data_PCOD9330246
_publ_section_title
;
Structure prediction by ZEFSAII (Michael W. Deem and Ramdas Pophale) SiO2 
 PCOD9330246
Probable space group: I 2 2 2
;
_chemical_formula_sum "Si O2"
_cell_formula_units_Z 56
_cell_length_a 16.192967
_cell_length_b 8.458504
_cell_length_c 22.190180
_cell_angle_alpha 90.000000
_cell_angle_beta 90.000000
_cell_angle_gamma 90.000000
_cell_volume 3039.350702
_symmetry_space_group_name_H-M "I 2 2 2"
_symmetry_group_IT_number 23
_symmetry_cell_setting 'orthorhombic'
loop_
_space_group_symop_operation_xyz
x,y,z
-x,-y,z
x,-y,-z
-x,y,-z
1/2+x,1/2+y,1/2+z
1/2-x,1/2-y,1/2+z
1/2+x,1/2-y,1/2-z
1/2-x,1/2+y,1/2-z
loop_
_atom_site_type_symbol
_atom_site_label
_atom_site_fract_x
_atom_site_fract_y
_atom_site_fract_z
Si Si1 0.906548 0.684696 0.982997
Si Si2 0.313576 0.283200 0.176077
Si Si3 0.531396 0.328482 0.756754
Si Si4 0.737002 0.102028 0.711644
Si Si5 0.577663 0.104771 0.316081
Si Si6 0.181272 0.815183 0.907729
Si Si7 0.851772 0.834726 0.861489
O O1 0.842378 0.781967 0.023742
O O2 0.897218 0.500000 0.000000
O O3 0.889421 0.724973 0.913716
O O4 0.000000 0.731758 0.000000
O O5 0.408293 0.253129 0.193132
O O6 0.258281 0.178285 0.222575
O O7 0.300820 0.467121 0.193959
O O8 0.272003 0.244877 0.112504
O O9 0.500000 0.500000 0.775425
O O10 0.456674 0.216285 0.736832
O O11 0.585997 0.350094 0.695294
O O12 0.728525 0.246930 0.665447
O O13 0.649397 0.010682 0.706662
O O14 0.616508 0.209350 0.369001
O O15 0.500000 0.000000 0.336543
O O16 0.167595 0.995601 0.889093
#
# Coordination Sequence:
#
# PCOD9330246 Si02
#       7
#     8   8   8   8   8   8   8
#     4  11  24  35  53  77 107 148 191 229 267 321
#     4  10  20  34  50  75 103 150 176 232 274 336
#     4  11  21  34  54  79 109 144 185 232 281 333
#     4  10  21  32  52  71 106 140 187 217 279 329
#     4  11  19  32  51  73 102 142 179 223 272 323
#     4  11  23  35  53  72 112 145 187 223 275 327
#     4  11  21  36  50  74 106 146 189 225 273 321
#
# _framework density 18.424987999999999
#
# number of rings (size 3 to 8) (size 9 to 14) (size 15 to 20)
#    0.000    1.286    4.286    4.714    4.000    0.571 
#    0.000    0.000    0.000    0.000    0.000    0.000 
#    0.000    5.143    3.429    0.000    0.000    0.000 
#
# Total GULP energy -156420.385914 kJ/mol
# GULP energy per Si atom -5586.442354 kJ/mol
# Density = 1.838305 g / cm^3
# Si number density = 18.424988 Si / 1000 Ang^3
#
#
#
# Elastic Constant Matrix: (Units=GPa)
#
#
# Indices 1 2 3 4 5 6 
#
# 1 43.8822 -1.7876 20.3222 0.0000 0.0000 0.0000
# 2 -1.7876 78.5516 2.2255 0.0000 0.0000 0.0000
# 3 20.3222 2.2255 63.0873 0.0000 0.0000 0.0000
# 4 0.0000 0.0000 0.0000 25.6733 0.0000 0.0000
# 5 0.0000 0.0000 0.0000 0.0000 29.8716 0.0000
# 6 0.0000 0.0000 0.0000 0.0000 0.0000 23.7808
#
#
#
# Elastic Compliance Matrix: (Units=1/GPa)
#
#
# Indices 1 2 3 4 5 6 
#
# 1 0.026841 0.000857 -0.008677 0.000000 0.000000 0.000000
# 2 0.000857 0.012771 -0.000726 0.000000 0.000000 0.000000
# 3 -0.008677 -0.000726 0.018672 0.000000 0.000000 0.000000
# 4 0.000000 0.000000 0.000000 0.038951 0.000000 0.000000
# 5 0.000000 0.000000 0.000000 0.000000 0.033477 0.000000
# 6 0.000000 0.000000 0.000000 0.000000 0.000000 0.042051
#
#
# Mechanical properties :
#
#
# Convention : Reuss Voigt Hill
#
# Bulk Modulus (GPa) = 24.27725 25.22681 24.75203
# Shear Modulus (GPa) = 24.55977 26.84920 25.70448
#
# Velocity S-wave (km/s) = 3.65493 3.82149 3.73914
# Velocity P-wave (km/s) = 5.56922 5.76134 5.66610
#
# Compressibility (1/GPa) = 0.04119082
#
# Stress axis : x y z
#
# Youngs Moduli (GPa) = 37.25594 78.30509 53.55710
#
# Poissons Ratio (x) = -0.06708 0.46469
# Poissons Ratio (y) = -0.03192 0.03891
# Poissons Ratio (z) = 0.32325 0.05689
#
# Static dielectric constant tensor:
#      x y z
#    x 1.683330 0.000000 0.000000 
#    y 0.000000 1.686130 0.000000 
#    z 0.000000 0.000000 1.631640 
# 
# From -- ./inp_files/12160.got.cif
#   From: 2010.05.17/outbox.cif.g08.bks.cpg/sg23_7_cif.got.tgz:12160.got - 2010.06.04 12:02:01.
