data_PCOD9330483
_publ_section_title
;
Structure prediction by ZEFSAII (Michael W. Deem and Ramdas Pophale) SiO2 
 PCOD9330483
Probable space group: I 2 2 2
;
_chemical_formula_sum "Si O2"
_cell_formula_units_Z 64
_cell_length_a 25.075222
_cell_length_b 8.373799
_cell_length_c 12.603250
_cell_angle_alpha 90.000000
_cell_angle_beta 90.000000
_cell_angle_gamma 90.000000
_cell_volume 2646.365767
_symmetry_space_group_name_H-M "I 2 2 2"
_symmetry_group_IT_number 23
_symmetry_cell_setting 'orthorhombic'
loop_
_space_group_symop_operation_xyz
x,y,z
-x,-y,z
x,-y,-z
-x,y,-z
1/2+x,1/2+y,1/2+z
1/2-x,1/2-y,1/2+z
1/2+x,1/2-y,1/2-z
1/2-x,1/2+y,1/2-z
loop_
_atom_site_type_symbol
_atom_site_label
_atom_site_fract_x
_atom_site_fract_y
_atom_site_fract_z
Si Si1 0.607205 0.002558 0.126096
Si Si2 0.669365 0.486312 0.625618
Si Si3 0.557862 0.958731 0.662946
Si Si4 0.837459 0.180780 0.393428
Si Si5 0.785489 0.685773 0.109966
Si Si6 0.668297 0.866421 0.377965
Si Si7 0.555651 0.410204 0.314555
Si Si8 0.622772 0.350516 0.125027
O O1 0.639951 0.843900 0.154330
O O2 0.559341 0.012207 0.209243
O O3 0.638131 0.167960 0.151597
O O4 0.594894 0.000000 0.000000
O O5 0.683351 0.500000 0.500000
O O6 0.694144 0.653812 0.665825
O O7 0.684104 0.309054 0.667051
O O8 0.605205 0.492998 0.637498
O O9 0.562948 0.769641 0.641989
O O10 0.500000 0.000000 0.621098
O O11 0.607259 0.069186 0.626892
O O12 0.776051 0.204059 0.420778
O O13 0.874281 0.160333 0.498404
O O14 0.842868 0.005177 0.343685
O O15 0.795962 0.513899 0.163922
O O16 0.818618 0.663414 0.001698
O O17 0.500000 0.500000 0.332400
O O18 0.568204 0.387727 0.188272
#
# Coordination Sequence:
#
# PCOD9330483 Si02
#       8
#     8   8   8   8   8   8   8   8
#     4   9  21  39  62  90 126 158 209 258 301 384
#     4  10  22  39  63  90 124 164 206 257 308 376
#     4  11  23  40  65  92 123 167 206 261 329 366
#     4  10  20  39  67  87 125 166 204 253 317 366
#     4  10  21  40  63  92 123 165 206 255 310 375
#     4  10  20  37  63  87 124 158 203 257 306 372
#     4  11  23  41  63  89 128 161 209 264 317 372
#     4   9  20  37  60  90 119 160 202 257 307 375
#
# _framework density 24.184107999999998
#
# number of rings (size 3 to 8) (size 9 to 14) (size 15 to 20)
#    0.000    2.000    1.250    2.250    3.500    6.000 
#    0.000    5.000    0.000    0.000    0.000    0.000 
#    0.000    0.000    0.000    0.000    0.000    0.000 
#
# Total GULP energy -178376.448423 kJ/mol
# GULP energy per Si atom -5574.264013 kJ/mol
# Density = 2.412906 g / cm^3
# Si number density = 24.184108 Si / 1000 Ang^3
#
#
#
# Elastic Constant Matrix: (Units=GPa)
#
#
# Indices 1 2 3 4 5 6 
#
# 1 65.2106 39.9965 -3.3562 0.0000 0.0000 0.0000
# 2 39.9965 243.3071 26.8895 0.0000 0.0000 0.0000
# 3 -3.3562 26.8895 57.3495 0.0000 0.0000 0.0000
# 4 0.0000 0.0000 0.0000 42.2474 0.0000 0.0000
# 5 0.0000 0.0000 0.0000 0.0000 17.9484 0.0000
# 6 0.0000 0.0000 0.0000 0.0000 0.0000 26.1353
#
#
#
# Elastic Compliance Matrix: (Units=1/GPa)
#
#
# Indices 1 2 3 4 5 6 
#
# 1 0.017384 -0.003132 0.002486 0.000000 0.000000 0.000000
# 2 -0.003132 0.004899 -0.002480 0.000000 0.000000 0.000000
# 3 0.002486 -0.002480 0.018745 0.000000 0.000000 0.000000
# 4 0.000000 0.000000 0.000000 0.023670 0.000000 0.000000
# 5 0.000000 0.000000 0.000000 0.000000 0.055715 0.000000
# 6 0.000000 0.000000 0.000000 0.000000 0.000000 0.038262
#
#
# Mechanical properties :
#
#
# Convention : Reuss Voigt Hill
#
# Bulk Modulus (GPa) = 28.75620 54.76964 41.76292
# Shear Modulus (GPa) = 28.32511 37.42203 32.87357
#
# Velocity S-wave (km/s) = 3.42603 3.93794 3.69087
# Velocity P-wave (km/s) = 5.25039 6.58579 5.95564
#
# Compressibility (1/GPa) = 0.03477511
#
# Stress axis : x y z
#
# Youngs Moduli (GPa) = 57.52364 204.11952 53.34644
#
# Poissons Ratio (x) = 0.63940 -0.13262
# Poissons Ratio (y) = 0.18019 0.13232
# Poissons Ratio (z) = -0.14301 0.50629
#
# Static dielectric constant tensor:
#      x y z
#    x 1.847840 0.000000 0.000000 
#    y 0.000000 2.032720 0.000000 
#    z 0.000000 0.000000 2.103400 
# 
# From -- ./inp_files/22612.got.cif
#   From: 2010.05.17/outbox.cif.g08.bks.cpg/sg23_12_cif.got.tgz:22612.got - 2010.06.04 12:02:01.
