data_PCOD9330989
_publ_section_title
;
Structure prediction by ZEFSAII (Michael W. Deem and Ramdas Pophale) SiO2 
 PCOD9330989
Probable space group: I 2 2 2
;
_chemical_formula_sum "Si O2"
_cell_formula_units_Z 40
_cell_length_a 11.907584
_cell_length_b 9.532829
_cell_length_c 16.903061
_cell_angle_alpha 90.000000
_cell_angle_beta 90.000000
_cell_angle_gamma 90.000000
_cell_volume 1918.716522
_symmetry_space_group_name_H-M "I 2 2 2"
_symmetry_group_IT_number 23
_symmetry_cell_setting 'orthorhombic'
loop_
_space_group_symop_operation_xyz
x,y,z
-x,-y,z
x,-y,-z
-x,y,-z
1/2+x,1/2+y,1/2+z
1/2-x,1/2-y,1/2+z
1/2+x,1/2-y,1/2-z
1/2-x,1/2+y,1/2-z
loop_
_atom_site_type_symbol
_atom_site_label
_atom_site_fract_x
_atom_site_fract_y
_atom_site_fract_z
Si Si1 0.200933 0.518436 0.260079
Si Si2 0.227088 0.165402 0.487413
Si Si3 0.324423 0.248812 0.653428
Si Si4 0.381492 0.079863 0.927089
Si Si5 0.060440 0.643844 0.127920
O O1 0.296790 0.624347 0.287904
O O2 0.214376 0.393938 0.197629
O O3 0.168238 0.444477 0.341424
O O4 0.106879 0.613246 0.216195
O O5 0.258779 0.236912 0.570823
O O6 0.127096 0.256610 0.448961
O O7 0.335576 0.177371 0.428991
O O8 0.204760 0.000000 0.500000
O O9 0.456625 0.248653 0.633678
O O10 0.500000 0.000000 0.922519
O O11 0.320853 0.000000 0.000000
O O12 0.000000 0.500000 0.099362
#
# Coordination Sequence:
#
# PCOD9330989 Si02
#       5
#     8   8   8   8   8
#     4  11  22  41  64  96 134 185 222 278 345 407
#     4  12  22  42  71 102 133 173 231 290 342 417
#     4  11  23  39  66 100 137 178 226 283 348 407
#     4  11  24  44  67  90 132 182 227 273 342 416
#     4  10  21  38  70 101 135 178 226 286 349 402
#
# _framework density 20.847270000000002
#
# number of rings (size 3 to 8) (size 9 to 14) (size 15 to 20)
#    0.000    1.000    6.000    3.600    0.000    0.000 
#    0.000    6.000    0.000    0.000    0.000    0.000 
#    0.000    0.000    0.000    0.000    0.000    0.000 
#
# Total GULP energy -111506.459378 kJ/mol
# GULP energy per Si atom -5575.322969 kJ/mol
# Density = 2.079982 g / cm^3
# Si number density = 20.847270 Si / 1000 Ang^3
#
#
#
# Elastic Constant Matrix: (Units=GPa)
#
#
# Indices 1 2 3 4 5 6 
#
# 1 66.7456 53.7295 6.5984 0.0000 0.0000 0.0000
# 2 53.7295 100.6100 15.1432 0.0000 0.0000 0.0000
# 3 6.5984 15.1432 84.6890 0.0000 0.0000 0.0000
# 4 0.0000 0.0000 0.0000 35.8675 0.0000 0.0000
# 5 0.0000 0.0000 0.0000 0.0000 22.8303 0.0000
# 6 0.0000 0.0000 0.0000 0.0000 0.0000 29.9985
#
#
#
# Elastic Compliance Matrix: (Units=1/GPa)
#
#
# Indices 1 2 3 4 5 6 
#
# 1 0.026298 -0.014116 0.000475 0.000000 0.000000 0.000000
# 2 -0.014116 0.017791 -0.002081 0.000000 0.000000 0.000000
# 3 0.000475 -0.002081 0.012143 0.000000 0.000000 0.000000
# 4 0.000000 0.000000 0.000000 0.027880 0.000000 0.000000
# 5 0.000000 0.000000 0.000000 0.000000 0.043801 0.000000
# 6 0.000000 0.000000 0.000000 0.000000 0.000000 0.033335
#
#
# Mechanical properties :
#
#
# Convention : Reuss Voigt Hill
#
# Bulk Modulus (GPa) = 40.34185 44.77630 42.55908
# Shear Modulus (GPa) = 24.88101 29.51082 27.19591
#
# Velocity S-wave (km/s) = 3.45844 3.76649 3.61575
# Velocity P-wave (km/s) = 5.94482 6.35926 6.15553
#
# Compressibility (1/GPa) = 0.02478815
#
# Stress axis : x y z
#
# Youngs Moduli (GPa) = 38.02511 56.20808 82.35151
#
# Poissons Ratio (x) = 0.79342 -0.03912
# Poissons Ratio (y) = 0.53676 0.17141
# Poissons Ratio (z) = -0.01806 0.11699
#
# Static dielectric constant tensor:
#      x y z
#    x 1.801000 0.000000 0.000000 
#    y 0.000000 1.844090 0.000000 
#    z 0.000000 0.000000 1.786360 
# 
# From -- ./inp_files/8192.got.cif
#   From: 2010.05.17/outbox.cif.g08.bks.cpg/sg23_5_cif.got.tgz:8192.got - 2010.06.04 12:02:01.
