data_PCOD9330364
_publ_section_title
;
Structure prediction by ZEFSAII (Michael W. Deem and Ramdas Pophale) SiO2 
 PCOD9330364
Probable space group: I 2 2 2
;
_chemical_formula_sum "Si O2"
_cell_formula_units_Z 38
_cell_length_a 5.957096
_cell_length_b 23.981355
_cell_length_c 13.312187
_cell_angle_alpha 90.000000
_cell_angle_beta 90.000000
_cell_angle_gamma 90.000000
_cell_volume 1901.768837
_symmetry_space_group_name_H-M "I 2 2 2"
_symmetry_group_IT_number 23
_symmetry_cell_setting 'orthorhombic'
loop_
_space_group_symop_operation_xyz
x,y,z
-x,-y,z
x,-y,-z
-x,y,-z
1/2+x,1/2+y,1/2+z
1/2-x,1/2-y,1/2+z
1/2+x,1/2-y,1/2-z
1/2-x,1/2+y,1/2-z
loop_
_atom_site_type_symbol
_atom_site_label
_atom_site_fract_x
_atom_site_fract_y
_atom_site_fract_z
Si Si1 0.500000 0.152144 0.000000
Si Si2 0.000000 0.000000 0.500000
Si Si3 0.312483 0.908897 0.580001
Si Si4 0.000000 0.812908 0.500000
Si Si5 0.500000 0.711189 0.500000
Si Si6 0.532323 0.150439 0.775080
Si Si7 0.230702 0.739462 0.828505
O O1 0.490205 0.126497 0.112484
O O2 0.243382 0.179865 0.996280
O O3 0.138124 0.959130 0.572846
O O4 0.500000 0.924782 0.500000
O O5 0.405219 0.893392 0.689367
O O6 0.197646 0.853593 0.534417
O O7 0.928294 0.775883 0.594206
O O8 0.479657 0.749491 0.401563
O O9 0.713342 0.201272 0.779589
O O10 0.315234 0.186303 0.740457
#
# Coordination Sequence:
#
# PCOD9330364 Si02
#       7
#     4   2   8   4   4   8   8
#     4  10  23  38  53  86 128 177 223 261 309 388
#     4  10  26  44  74  94 126 148 228 306 372 398
#     4  11  22  43  64  96 125 167 220 289 351 401
#     4  11  21  35  60  94 135 181 223 263 327 396
#     4  10  20  36  52  78 128 186 236 266 300 350
#     4  11  21  34  58  90 135 179 221 259 322 395
#     4  11  19  33  55  90 137 183 222 260 306 394
#
# _framework density 19.981397000000001
#
# number of rings (size 3 to 8) (size 9 to 14) (size 15 to 20)
#    0.000    1.263    2.105    6.632    0.000    1.684 
#    0.000    0.000    0.000    0.000    0.000    4.421 
#    0.000    0.000    0.000    0.000    0.000    0.000 
#
# Total GULP energy -105859.030966 kJ/mol
# GULP energy per Si atom -5571.527946 kJ/mol
# Density = 1.993592 g / cm^3
# Si number density = 19.981397 Si / 1000 Ang^3
#
#
#
# Elastic Constant Matrix: (Units=GPa)
#
#
# Indices 1 2 3 4 5 6 
#
# 1 86.6965 27.6428 29.2727 0.0000 0.0000 0.0000
# 2 27.6428 71.8999 40.0268 0.0000 0.0000 0.0000
# 3 29.2727 40.0268 163.5043 0.0000 0.0000 0.0000
# 4 0.0000 0.0000 0.0000 3.0818 0.0000 0.0000
# 5 0.0000 0.0000 0.0000 0.0000 41.9358 0.0000
# 6 0.0000 0.0000 0.0000 0.0000 0.0000 9.3598
#
#
#
# Elastic Compliance Matrix: (Units=1/GPa)
#
#
# Indices 1 2 3 4 5 6 
#
# 1 0.013386 -0.004414 -0.001316 0.000000 0.000000 0.000000
# 2 -0.004414 0.017558 -0.003508 0.000000 0.000000 0.000000
# 3 -0.001316 -0.003508 0.007210 0.000000 0.000000 0.000000
# 4 0.000000 0.000000 0.000000 0.324483 0.000000 0.000000
# 5 0.000000 0.000000 0.000000 0.000000 0.023846 0.000000
# 6 0.000000 0.000000 0.000000 0.000000 0.000000 0.106840
#
#
# Mechanical properties :
#
#
# Convention : Reuss Voigt Hill
#
# Bulk Modulus (GPa) = 50.81608 57.33170 54.07389
# Shear Modulus (GPa) = 9.64582 25.88605 17.76594
#
# Velocity S-wave (km/s) = 2.19952 3.60322 2.98505
# Velocity P-wave (km/s) = 5.65132 6.78718 6.24512
#
# Compressibility (1/GPa) = 0.01967881
#
# Stress axis : x y z
#
# Youngs Moduli (GPa) = 74.70395 56.95360 138.68724
#
# Poissons Ratio (x) = 0.25138 0.18252
# Poissons Ratio (y) = 0.32973 0.48653
# Poissons Ratio (z) = 0.09831 0.19980
#
# Static dielectric constant tensor:
#      x y z
#    x 1.908080 0.000000 0.000000 
#    y 0.000000 1.667470 0.000000 
#    z 0.000000 0.000000 1.779300 
# 
# From -- ./inp_files/1775.got.cif
#   From: 2010.05.17/outbox.cif.g08.bks.cpg/sg23_1_cif.got.tgz:1775.got - 2010.06.04 12:02:01.
