data_PCOD9330219
_publ_section_title
;
Structure prediction by ZEFSAII (Michael W. Deem and Ramdas Pophale) SiO2 
 PCOD9330219
Probable space group: I 2 2 2
;
_chemical_formula_sum "Si O2"
_cell_formula_units_Z 56
_cell_length_a 10.100831
_cell_length_b 21.600576
_cell_length_c 16.750679
_cell_angle_alpha 90.000000
_cell_angle_beta 90.000000
_cell_angle_gamma 90.000000
_cell_volume 3654.726255
_symmetry_space_group_name_H-M "I 2 2 2"
_symmetry_group_IT_number 23
_symmetry_cell_setting 'orthorhombic'
loop_
_space_group_symop_operation_xyz
x,y,z
-x,-y,z
x,-y,-z
-x,y,-z
1/2+x,1/2+y,1/2+z
1/2-x,1/2-y,1/2+z
1/2+x,1/2-y,1/2-z
1/2-x,1/2+y,1/2-z
loop_
_atom_site_type_symbol
_atom_site_label
_atom_site_fract_x
_atom_site_fract_y
_atom_site_fract_z
Si Si1 0.982193 0.187642 0.677282
Si Si2 0.968829 0.319330 0.735016
Si Si3 0.295335 0.870963 0.674147
Si Si4 0.840494 0.500781 0.092782
Si Si5 0.347267 0.785288 0.520092
Si Si6 0.760509 0.362382 0.864746
Si Si7 0.104564 0.710273 0.564263
O O1 0.111641 0.148055 0.664192
O O2 0.407350 0.171902 0.853501
O O3 0.007215 0.246309 0.735253
O O4 0.850232 0.151030 0.699889
O O5 0.858897 0.332775 0.800402
O O6 0.949322 0.222459 0.593767
O O7 0.096955 0.359669 0.756705
O O8 0.293599 0.940289 0.640146
O O9 0.341648 0.826360 0.600885
O O10 0.792258 0.565487 0.127646
O O11 0.000000 0.500000 0.094524
O O12 0.798829 0.500000 0.000000
O O13 0.500000 0.770580 0.500000
O O14 0.289109 0.827428 0.448341
O O15 0.250798 0.726121 0.532468
O O16 0.000000 0.686258 0.500000
#
# Coordination Sequence:
#
# PCOD9330219 Si02
#       7
#     8   8   8   8   8   8   8
#     4   9  22  32  50  72 104 133 177 219 266 300
#     4  10  20  33  53  72 101 141 181 214 261 311
#     4  11  20  35  48  75 103 142 178 217 249 317
#     4  11  21  33  51  74 106 144 180 211 251 319
#     4  11  18  30  50  71 103 134 175 208 258 307
#     4  12  20  33  53  77 103 144 174 215 261 314
#     4   9  19  33  48  72 104 134 168 218 266 306
#
# _framework density 15.322625
#
# number of rings (size 3 to 8) (size 9 to 14) (size 15 to 20)
#    0.857    0.714    5.714    0.857    0.000    0.571 
#    0.000    0.714    0.000    0.000    0.000    2.000 
#    0.000    0.000    0.000    2.857    0.000    0.000 
#
# Total GULP energy -155921.973356 kJ/mol
# GULP energy per Si atom -5568.641906 kJ/mol
# Density = 1.528775 g / cm^3
# Si number density = 15.322625 Si / 1000 Ang^3
#
#
#
# Elastic Constant Matrix: (Units=GPa)
#
#
# Indices 1 2 3 4 5 6 
#
# 1 111.5151 34.8556 25.5607 0.0000 0.0000 0.0000
# 2 34.8556 67.5643 33.5627 0.0000 0.0000 0.0000
# 3 25.5607 33.5627 57.3361 0.0000 0.0000 0.0000
# 4 0.0000 0.0000 0.0000 51.7219 0.0000 0.0000
# 5 0.0000 0.0000 0.0000 0.0000 9.7411 0.0000
# 6 0.0000 0.0000 0.0000 0.0000 0.0000 10.6813
#
#
#
# Elastic Compliance Matrix: (Units=1/GPa)
#
#
# Indices 1 2 3 4 5 6 
#
# 1 0.010886 -0.004519 -0.002208 0.000000 0.000000 0.000000
# 2 -0.004519 0.022745 -0.011300 0.000000 0.000000 0.000000
# 3 -0.002208 -0.011300 0.025040 0.000000 0.000000 0.000000
# 4 0.000000 0.000000 0.000000 0.019334 0.000000 0.000000
# 5 0.000000 0.000000 0.000000 0.000000 0.102657 0.000000
# 6 0.000000 0.000000 0.000000 0.000000 0.000000 0.093621
#
#
# Mechanical properties :
#
#
# Convention : Reuss Voigt Hill
#
# Bulk Modulus (GPa) = 44.21288 47.15262 45.68275
# Shear Modulus (GPa) = 15.72940 23.92464 19.82702
#
# Velocity S-wave (km/s) = 3.20745 3.95573 3.60108
# Velocity P-wave (km/s) = 6.52949 7.19053 6.86797
#
# Compressibility (1/GPa) = 0.02261784
#
# Stress axis : x y z
#
# Youngs Moduli (GPa) = 91.86134 43.96514 39.93672
#
# Poissons Ratio (x) = 0.19869 0.08816
# Poissons Ratio (y) = 0.41515 0.45127
# Poissons Ratio (z) = 0.20279 0.49679
#
# Static dielectric constant tensor:
#      x y z
#    x 1.525260 0.000000 0.000000 
#    y 0.000000 1.484850 0.000000 
#    z 0.000000 0.000000 1.528830 
# 
# From -- ./inp_files/20201.got.cif
#   From: 2010.05.17/outbox.cif.g08.bks.cpg/sg23_11_cif.got.tgz:20201.got - 2010.06.04 12:02:01.
