data_PCOD9330283
_publ_section_title
;
Structure prediction by ZEFSAII (Michael W. Deem and Ramdas Pophale) SiO2 
 PCOD9330283
Probable space group: I 2 2 2
;
_chemical_formula_sum "Si O2"
_cell_formula_units_Z 32
_cell_length_a 22.561878
_cell_length_b 8.561944
_cell_length_c 7.859871
_cell_angle_alpha 90.000000
_cell_angle_beta 90.000000
_cell_angle_gamma 90.000000
_cell_volume 1518.319073
_symmetry_space_group_name_H-M "I 2 2 2"
_symmetry_group_IT_number 23
_symmetry_cell_setting 'orthorhombic'
loop_
_space_group_symop_operation_xyz
x,y,z
-x,-y,z
x,-y,-z
-x,y,-z
1/2+x,1/2+y,1/2+z
1/2-x,1/2-y,1/2+z
1/2+x,1/2-y,1/2-z
1/2-x,1/2+y,1/2-z
loop_
_atom_site_type_symbol
_atom_site_label
_atom_site_fract_x
_atom_site_fract_y
_atom_site_fract_z
Si Si1 0.089275 0.000000 0.000000
Si Si2 0.000000 0.000000 0.500000
Si Si3 0.000000 0.500000 0.500000
Si Si4 0.067811 0.243877 0.726160
Si Si5 0.808121 0.102891 0.753503
Si Si6 0.803733 0.764415 0.603235
O O1 0.132415 0.075502 0.141241
O O2 0.059173 0.848411 0.092381
O O3 0.044201 0.893972 0.393614
O O4 0.964470 0.609288 0.635645
O O5 0.137372 0.282575 0.705722
O O6 0.818096 0.219215 0.595759
O O7 0.753955 0.162067 0.866664
O O8 0.790328 0.936951 0.674133
#
# Coordination Sequence:
#
# PCOD9330283 Si02
#       6
#     4   2   2   8   8   8
#     4  10  20  38  64  92 122 170 212 246 310 402
#     4  10  20  40  64  82 112 176 228 250 308 394
#     4  10  24  40  64 100 128 162 216 282 328 350
#     4  10  21  39  64  90 123 164 214 267 317 370
#     4  10  20  34  58  89 120 156 200 244 309 386
#     4  10  20  36  58  88 122 158 197 251 312 378
#
# _framework density 21.075938000000001
#
# number of rings (size 3 to 8) (size 9 to 14) (size 15 to 20)
#    0.000    2.000    0.000    6.000    0.000    3.500 
#    0.000    0.000    0.000   40.500    0.000    0.000 
#    0.000    0.000    0.000    0.000    0.000    0.000 
#
# Total GULP energy -89105.923460 kJ/mol
# GULP energy per Si atom -5569.120216 kJ/mol
# Density = 2.102797 g / cm^3
# Si number density = 21.075938 Si / 1000 Ang^3
#
#
#
# Elastic Constant Matrix: (Units=GPa)
#
#
# Indices 1 2 3 4 5 6 
#
# 1 71.0197 37.9519 31.4094 0.0000 0.0000 0.0000
# 2 37.9519 92.6882 43.4426 0.0000 0.0000 0.0000
# 3 31.4094 43.4426 121.8599 0.0000 0.0000 0.0000
# 4 0.0000 0.0000 0.0000 22.8073 0.0000 0.0000
# 5 0.0000 0.0000 0.0000 0.0000 -13.9591 0.0000
# 6 0.0000 0.0000 0.0000 0.0000 0.0000 2.8340
#
#
#
# Elastic Compliance Matrix: (Units=1/GPa)
#
#
# Indices 1 2 3 4 5 6 
#
# 1 0.018639 -0.006459 -0.002501 0.000000 0.000000 0.000000
# 2 -0.006459 0.015192 -0.003751 0.000000 0.000000 0.000000
# 3 -0.002501 -0.003751 0.010188 0.000000 0.000000 0.000000
# 4 0.000000 0.000000 0.000000 0.043846 0.000000 0.000000
# 5 0.000000 0.000000 0.000000 0.000000 -0.071638 0.000000
# 6 0.000000 0.000000 0.000000 0.000000 0.000000 0.352855
#
#
# Mechanical properties :
#
#
# Convention : Reuss Voigt Hill
#
# Bulk Modulus (GPa) = 53.77739 56.79731 55.28735
# Shear Modulus (GPa) = 12.47806 13.85402 13.16604
#
# Velocity S-wave (km/s) = 2.43585 2.56664 2.50210
# Velocity P-wave (km/s) = 5.78641 5.98255 5.88530
#
# Compressibility (1/GPa) = 0.01859518
#
# Stress axis : x y z
#
# Youngs Moduli (GPa) = 53.65193 65.82532 98.15412
#
# Poissons Ratio (x) = 0.42519 0.24552
# Poissons Ratio (y) = 0.34656 0.36817
# Poissons Ratio (z) = 0.13420 0.24690
#
# Static dielectric constant tensor:
#      x y z
#    x 1.828130 0.000000 0.000000 
#    y 0.000000 1.849300 0.000000 
#    z 0.000000 0.000000 1.822940 
# 
# From -- ./inp_files/6849.got.cif
#   From: 2010.05.17/outbox.cif.g08.bks.cpg/sg23_4_cif.got.tgz:6849.got - 2010.06.04 12:02:01.
