data_PCOD9330230
_publ_section_title
;
Structure prediction by ZEFSAII (Michael W. Deem and Ramdas Pophale) SiO2 
 PCOD9330230
Probable space group: I 2 2 2
;
_chemical_formula_sum "Si O2"
_cell_formula_units_Z 56
_cell_length_a 7.847834
_cell_length_b 20.952199
_cell_length_c 19.127407
_cell_angle_alpha 90.000000
_cell_angle_beta 90.000000
_cell_angle_gamma 90.000000
_cell_volume 3145.107668
_symmetry_space_group_name_H-M "I 2 2 2"
_symmetry_group_IT_number 23
_symmetry_cell_setting 'orthorhombic'
loop_
_space_group_symop_operation_xyz
x,y,z
-x,-y,z
x,-y,-z
-x,y,-z
1/2+x,1/2+y,1/2+z
1/2-x,1/2-y,1/2+z
1/2+x,1/2-y,1/2-z
1/2-x,1/2+y,1/2-z
loop_
_atom_site_type_symbol
_atom_site_label
_atom_site_fract_x
_atom_site_fract_y
_atom_site_fract_z
Si Si1 0.815800 0.563267 0.464148
Si Si2 0.071457 0.434275 0.304377
Si Si3 0.202948 0.791598 0.012884
Si Si4 0.141225 0.728126 0.151117
Si Si5 0.625460 0.351803 0.753298
Si Si6 0.243626 0.854306 0.773959
Si Si7 0.747418 0.769842 0.628519
O O1 0.732826 0.500000 0.500000
O O2 0.848263 0.554436 0.381413
O O3 0.735938 0.632861 0.477888
O O4 0.000000 0.567429 0.500000
O O5 0.215319 0.397526 0.260904
O O6 0.000000 0.500000 0.273934
O O7 0.898949 0.393183 0.306189
O O8 0.240918 0.752876 0.083477
O O9 0.293446 0.757585 0.947394
O O10 0.000000 0.786519 0.000000
O O11 0.139346 0.790221 0.201962
O O12 0.215167 0.670920 0.196430
O O13 0.950090 0.708244 0.129070
O O14 0.445390 0.383323 0.732035
O O15 0.638677 0.321866 0.831178
O O16 0.238322 0.791996 0.822147
#
# Coordination Sequence:
#
# PCOD9330230 Si02
#       7
#     8   8   8   8   8   8   8
#     4  11  22  37  50  74 115 160 200 227 268 335
#     4  12  23  39  58  77 117 158 198 238 276 338
#     4  10  20  33  55  85 116 153 190 231 293 348
#     4   9  17  33  53  81 117 145 184 245 295 341
#     4  10  20  36  56  81 109 148 196 243 290 339
#     4  10  21  35  57  81 109 149 195 243 292 335
#     4   9  18  32  54  83 113 145 187 242 297 343
#
# _framework density 17.805430999999999
#
# number of rings (size 3 to 8) (size 9 to 14) (size 15 to 20)
#    0.000    1.857    4.286    0.857    2.000    2.000 
#    0.000    1.429    0.000    0.000    0.000    2.000 
#    0.000    2.286    0.000    0.000    0.000    0.000 
#
# Total GULP energy -155969.071938 kJ/mol
# GULP energy per Si atom -5570.323998 kJ/mol
# Density = 1.776490 g / cm^3
# Si number density = 17.805431 Si / 1000 Ang^3
#
#
#
# Elastic Constant Matrix: (Units=GPa)
#
#
# Indices 1 2 3 4 5 6 
#
# 1 63.2273 14.7606 0.7199 0.0000 0.0000 0.0000
# 2 14.7606 34.2155 16.3179 0.0000 0.0000 0.0000
# 3 0.7199 16.3179 93.7669 0.0000 0.0000 0.0000
# 4 0.0000 0.0000 0.0000 191.9877 0.0000 0.0000
# 5 0.0000 0.0000 0.0000 0.0000 14.7444 0.0000
# 6 0.0000 0.0000 0.0000 0.0000 0.0000 8.7246
#
#
#
# Elastic Compliance Matrix: (Units=1/GPa)
#
#
# Indices 1 2 3 4 5 6 
#
# 1 0.017732 -0.008271 0.001303 0.000000 0.000000 0.000000
# 2 -0.008271 0.035730 -0.006154 0.000000 0.000000 0.000000
# 3 0.001303 -0.006154 0.011726 0.000000 0.000000 0.000000
# 4 0.000000 0.000000 0.000000 0.005209 0.000000 0.000000
# 5 0.000000 0.000000 0.000000 0.000000 0.067822 0.000000
# 6 0.000000 0.000000 0.000000 0.000000 0.000000 0.114618
#
#
# Mechanical properties :
#
#
# Convention : Reuss Voigt Hill
#
# Bulk Modulus (GPa) = 25.67855 28.31182 26.99519
# Shear Modulus (GPa) = 17.11966 53.71878 35.41922
#
# Velocity S-wave (km/s) = 3.10415 5.49867 4.46492
# Velocity P-wave (km/s) = 5.22501 7.49994 6.46335
#
# Compressibility (1/GPa) = 0.03894301
#
# Stress axis : x y z
#
# Youngs Moduli (GPa) = 56.39509 27.98786 85.28233
#
# Poissons Ratio (x) = 0.23149 -0.11114
# Poissons Ratio (y) = 0.46645 0.52486
# Poissons Ratio (z) = -0.07350 0.17225
#
# Static dielectric constant tensor:
#      x y z
#    x 1.659280 0.000000 0.000000 
#    y 0.000000 1.640000 0.000000 
#    z 0.000000 0.000000 1.641530 
# 
# From -- ./inp_files/23947.got.cif
#   From: 2010.05.17/outbox.cif.g08.bks.cpg/sg23_12_cif.got.tgz:23947.got - 2010.06.04 12:02:01.
