data_PCOD9330918
_publ_section_title
;
Structure prediction by ZEFSAII (Michael W. Deem and Ramdas Pophale) SiO2 
 PCOD9330918
Probable space group: I 2 2 2
;
_chemical_formula_sum "Si O2"
_cell_formula_units_Z 42
_cell_length_a 8.600681
_cell_length_b 13.396872
_cell_length_c 15.199201
_cell_angle_alpha 90.000000
_cell_angle_beta 90.000000
_cell_angle_gamma 90.000000
_cell_volume 1751.285719
_symmetry_space_group_name_H-M "I 2 2 2"
_symmetry_group_IT_number 23
_symmetry_cell_setting 'orthorhombic'
loop_
_space_group_symop_operation_xyz
x,y,z
-x,-y,z
x,-y,-z
-x,y,-z
1/2+x,1/2+y,1/2+z
1/2-x,1/2-y,1/2+z
1/2+x,1/2-y,1/2-z
1/2-x,1/2+y,1/2-z
loop_
_atom_site_type_symbol
_atom_site_label
_atom_site_fract_x
_atom_site_fract_y
_atom_site_fract_z
Si Si1 0.493818 0.679707 0.341525
Si Si2 0.500000 0.500000 0.000000
Si Si3 0.589637 0.101603 0.322840
Si Si4 0.050404 0.147946 0.641393
Si Si5 0.314816 0.922248 0.125670
Si Si6 0.328233 0.146139 0.068613
O O1 0.511152 0.800207 0.347258
O O2 0.471884 0.652835 0.237685
O O3 0.634656 0.608314 0.366487
O O4 0.351641 0.662804 0.406483
O O5 0.448588 0.583196 0.073315
O O6 0.770265 0.104465 0.356394
O O7 0.613576 0.109238 0.218024
O O8 0.500000 0.000000 0.346113
O O9 0.085037 0.259235 0.608849
O O10 0.350427 0.038482 0.112914
O O11 0.355408 0.869153 0.034375
#
# Coordination Sequence:
#
# PCOD9330918 Si02
#       6
#     8   2   8   8   8   8
#     4  10  21  38  63  92 125 171 213 266 319 394
#     4  12  28  44  66  94 134 172 220 274 324 406
#     4  10  22  41  65  95 131 171 217 265 328 395
#     4  10  25  42  63  94 127 178 214 267 331 390
#     4  10  21  37  65  95 125 166 209 274 327 377
#     4  10  21  40  61  94 125 160 221 267 327 382
#
# _framework density 23.982379999999999
#
# number of rings (size 3 to 8) (size 9 to 14) (size 15 to 20)
#    0.000    1.905    0.000    2.286    8.000    3.048 
#    0.000    3.333    0.000    0.000    0.000    0.000 
#    0.000    0.000    0.000    0.000    0.000    0.000 
#
# Total GULP energy -117195.042601 kJ/mol
# GULP energy per Si atom -5580.716314 kJ/mol
# Density = 2.392780 g / cm^3
# Si number density = 23.982380 Si / 1000 Ang^3
#
#
#
# Elastic Constant Matrix: (Units=GPa)
#
#
# Indices 1 2 3 4 5 6 
#
# 1 56.2100 63.9312 10.9132 0.0000 0.0000 0.0000
# 2 63.9312 145.8856 45.1045 0.0000 0.0000 0.0000
# 3 10.9132 45.1045 79.3004 0.0000 0.0000 0.0000
# 4 0.0000 0.0000 0.0000 36.6829 0.0000 0.0000
# 5 0.0000 0.0000 0.0000 0.0000 16.8722 0.0000
# 6 0.0000 0.0000 0.0000 0.0000 0.0000 38.3074
#
#
#
# Elastic Compliance Matrix: (Units=1/GPa)
#
#
# Indices 1 2 3 4 5 6 
#
# 1 0.037045 -0.017786 0.005018 0.000000 0.000000 0.000000
# 2 -0.017786 0.016856 -0.007140 0.000000 0.000000 0.000000
# 3 0.005018 -0.007140 0.015981 0.000000 0.000000 0.000000
# 4 0.000000 0.000000 0.000000 0.027261 0.000000 0.000000
# 5 0.000000 0.000000 0.000000 0.000000 0.059269 0.000000
# 6 0.000000 0.000000 0.000000 0.000000 0.000000 0.026105
#
#
# Mechanical properties :
#
#
# Convention : Reuss Voigt Hill
#
# Bulk Modulus (GPa) = 33.25901 57.92152 45.59026
# Shear Modulus (GPa) = 21.51893 29.13564 25.32728
#
# Velocity S-wave (km/s) = 2.99871 3.48929 3.25326
# Velocity P-wave (km/s) = 5.08802 6.35906 5.75871
#
# Compressibility (1/GPa) = 0.03006704
#
# Stress axis : x y z
#
# Youngs Moduli (GPa) = 26.99428 59.32482 62.57518
#
# Poissons Ratio (x) = 1.05513 -0.31401
# Poissons Ratio (y) = 0.48011 0.44678
# Poissons Ratio (z) = -0.13546 0.42358
#
# Static dielectric constant tensor:
#      x y z
#    x 2.031620 0.000000 0.000000 
#    y 0.000000 1.904730 0.000000 
#    z 0.000000 0.000000 1.883520 
# 
# From -- ./inp_files/15699.got.cif
#   From: 2010.05.17/outbox.cif.g08.bks.cpg/sg23_8_cif.got.tgz:15699.got - 2010.06.04 12:02:01.
