data_PCOD9330682
_publ_section_title
;
Structure prediction by ZEFSAII (Michael W. Deem and Ramdas Pophale) SiO2 
 PCOD9330682
Probable space group: I 2 2 2
;
_chemical_formula_sum "Si O2"
_cell_formula_units_Z 28
_cell_length_a 11.811384
_cell_length_b 8.158693
_cell_length_c 11.669759
_cell_angle_alpha 90.000000
_cell_angle_beta 90.000000
_cell_angle_gamma 90.000000
_cell_volume 1124.561647
_symmetry_space_group_name_H-M "I 2 2 2"
_symmetry_group_IT_number 23
_symmetry_cell_setting 'orthorhombic'
loop_
_space_group_symop_operation_xyz
x,y,z
-x,-y,z
x,-y,-z
-x,y,-z
1/2+x,1/2+y,1/2+z
1/2-x,1/2-y,1/2+z
1/2+x,1/2-y,1/2-z
1/2-x,1/2+y,1/2-z
loop_
_atom_site_type_symbol
_atom_site_label
_atom_site_fract_x
_atom_site_fract_y
_atom_site_fract_z
Si Si1 0.309145 0.500000 0.000000
Si Si2 0.072760 0.153914 0.117055
Si Si3 0.661432 0.851556 0.075805
Si Si4 0.619694 0.015442 0.310986
O O1 0.368733 0.671588 0.970661
O O2 0.224878 0.478874 0.891598
O O3 0.201271 0.131189 0.074086
O O4 0.104883 0.290518 0.213245
O O5 0.000000 0.000000 0.164627
O O6 0.000000 0.192638 0.000000
O O7 0.624989 0.895106 0.204394
O O8 0.618258 0.000000 0.000000
O O9 0.500000 0.000000 0.373768
#
# Coordination Sequence:
#
# PCOD9330682 Si02
#       4
#     4   8   8   8
#     4  10  25  44  72 105 140 188 255 308 355 432
#     4  10  20  40  71 105 138 185 248 312 350 422
#     4  11  24  42  70 103 145 186 241 299 371 431
#     4  11  24  41  69 105 144 187 240 301 369 435
#
# _framework density 24.898591
#
# number of rings (size 3 to 8) (size 9 to 14) (size 15 to 20)
#    0.000    1.429    2.857    3.857    8.000    0.571 
#    0.000    0.000    0.000    1.714    0.000    0.000 
#    0.000    0.000    0.000    0.000    0.000    0.000 
#
# Total GULP energy -77943.882933 kJ/mol
# GULP energy per Si atom -5567.420210 kJ/mol
# Density = 2.484192 g / cm^3
# Si number density = 24.898591 Si / 1000 Ang^3
#
#
#
# Elastic Constant Matrix: (Units=GPa)
#
#
# Indices 1 2 3 4 5 6 
#
# 1 137.9004 28.2357 20.5197 0.0000 0.0000 0.0000
# 2 28.2357 238.9264 80.7610 0.0000 0.0000 0.0000
# 3 20.5197 80.7610 113.2175 0.0000 0.0000 0.0000
# 4 0.0000 0.0000 0.0000 40.4434 0.0000 0.0000
# 5 0.0000 0.0000 0.0000 0.0000 -37.7615 0.0000
# 6 0.0000 0.0000 0.0000 0.0000 0.0000 4.5004
#
#
#
# Elastic Compliance Matrix: (Units=1/GPa)
#
#
# Indices 1 2 3 4 5 6 
#
# 1 0.007510 -0.000563 -0.000959 0.000000 0.000000 0.000000
# 2 -0.000563 0.005557 -0.003862 0.000000 0.000000 0.000000
# 3 -0.000959 -0.003862 0.011761 0.000000 0.000000 0.000000
# 4 0.000000 0.000000 0.000000 0.024726 0.000000 0.000000
# 5 0.000000 0.000000 0.000000 0.000000 -0.026482 0.000000
# 6 0.000000 0.000000 0.000000 0.000000 0.000000 0.222204
#
#
# Mechanical properties :
#
#
# Convention : Reuss Voigt Hill
#
# Bulk Modulus (GPa) = 71.12825 83.23082 77.17954
# Shear Modulus (GPa) = 19.17674 25.47164 22.32419
#
# Velocity S-wave (km/s) = 2.77825 3.20193 2.99758
# Velocity P-wave (km/s) = 6.23865 6.86806 6.56091
#
# Compressibility (1/GPa) = 0.01405911
#
# Stress axis : x y z
#
# Youngs Moduli (GPa) = 133.16147 179.93936 85.02378
#
# Poissons Ratio (x) = 0.10134 0.08156
# Poissons Ratio (y) = 0.07500 0.32838
# Poissons Ratio (z) = 0.12774 0.69496
#
# Static dielectric constant tensor:
#      x y z
#    x 1.982360 0.000000 0.000000 
#    y 0.000000 2.376810 0.000000 
#    z 0.000000 0.000000 2.027030 
# 
# From -- ./inp_files/16257.got.cif
#   From: 2010.05.17/outbox.cif.g08.bks.cpg/sg23_9_cif.got.tgz:16257.got - 2010.06.04 12:02:01.
