data_PCOD9330042
_publ_section_title
;
Structure prediction by ZEFSAII (Michael W. Deem and Ramdas Pophale) SiO2 
 PCOD9330042
Probable space group: I 2 2 2
;
_chemical_formula_sum "Si O2"
_cell_formula_units_Z 40
_cell_length_a 5.136542
_cell_length_b 33.435264
_cell_length_c 12.050573
_cell_angle_alpha 90.000000
_cell_angle_beta 90.000000
_cell_angle_gamma 90.000000
_cell_volume 2069.585144
_symmetry_space_group_name_H-M "I 2 2 2"
_symmetry_group_IT_number 23
_symmetry_cell_setting 'orthorhombic'
loop_
_space_group_symop_operation_xyz
x,y,z
-x,-y,z
x,-y,-z
-x,y,-z
1/2+x,1/2+y,1/2+z
1/2-x,1/2-y,1/2+z
1/2+x,1/2-y,1/2-z
1/2-x,1/2+y,1/2-z
loop_
_atom_site_type_symbol
_atom_site_label
_atom_site_fract_x
_atom_site_fract_y
_atom_site_fract_z
Si Si1 0.000000 0.340785 0.500000
Si Si2 0.434942 0.610059 0.873442
Si Si3 0.057817 0.733004 0.205883
Si Si4 0.243522 0.018499 0.625336
Si Si5 0.000000 0.216692 0.000000
Si Si6 0.436605 0.141098 0.249289
O O1 0.744180 0.313150 0.484722
O O2 0.999331 0.364241 0.617996
O O3 0.312351 0.565308 0.881225
O O4 0.202152 0.634296 0.817112
O O5 0.698320 0.614977 0.799998
O O6 0.500000 0.622322 0.000000
O O7 0.249405 0.759640 0.281506
O O8 0.132124 0.687576 0.228888
O O9 0.113364 0.752458 0.088856
O O10 0.500000 0.000000 0.677553
O O11 0.246312 0.000000 0.500000
O O12 0.000000 0.000000 0.687078
#
# Coordination Sequence:
#
# PCOD9330042 Si02
#       6
#     4   8   8   8   4   8
#     4  12  24  46  64  84 121 186 242 266 315 392
#     4  12  25  41  62 102 143 162 201 277 348 400
#     4  12  23  42  61  90 116 170 233 278 345 375
#     4  10  19  36  64  92 130 168 204 234 312 424
#     4  12  22  40  66  84 120 160 234 304 318 404
#     4  12  26  42  62  95 133 179 220 285 334 391
#
# _framework density 19.327546000000002
#
# number of rings (size 3 to 8) (size 9 to 14) (size 15 to 20)
#    0.000    0.400    6.000    4.200    5.600    0.000 
#    0.000    0.000    0.000    0.000    0.000   10.500 
#    0.000    0.000    0.000    0.000    0.000    0.000 
#
# Total GULP energy -111347.471637 kJ/mol
# GULP energy per Si atom -5567.373582 kJ/mol
# Density = 1.928356 g / cm^3
# Si number density = 19.327546 Si / 1000 Ang^3
#
#
#
# Elastic Constant Matrix: (Units=GPa)
#
#
# Indices 1 2 3 4 5 6 
#
# 1 142.3404 19.8223 27.0066 0.0000 0.0000 0.0000
# 2 19.8223 67.6132 36.2107 0.0000 0.0000 0.0000
# 3 27.0066 36.2107 99.7219 0.0000 0.0000 0.0000
# 4 0.0000 0.0000 0.0000 15.2251 0.0000 0.0000
# 5 0.0000 0.0000 0.0000 0.0000 18.4693 0.0000
# 6 0.0000 0.0000 0.0000 0.0000 0.0000 47.8675
#
#
#
# Elastic Compliance Matrix: (Units=1/GPa)
#
#
# Indices 1 2 3 4 5 6 
#
# 1 0.007508 -0.001381 -0.001532 0.000000 0.000000 0.000000
# 2 -0.001381 0.018614 -0.006385 0.000000 0.000000 0.000000
# 3 -0.001532 -0.006385 0.012761 0.000000 0.000000 0.000000
# 4 0.000000 0.000000 0.000000 0.065681 0.000000 0.000000
# 5 0.000000 0.000000 0.000000 0.000000 0.054144 0.000000
# 6 0.000000 0.000000 0.000000 0.000000 0.000000 0.020891
#
#
# Mechanical properties :
#
#
# Convention : Reuss Voigt Hill
#
# Bulk Modulus (GPa) = 49.29001 52.86165 51.07583
# Shear Modulus (GPa) = 24.39514 31.42146 27.90830
#
# Velocity S-wave (km/s) = 3.55659 4.03641 3.80408
# Velocity P-wave (km/s) = 6.51334 7.00952 6.76598
#
# Compressibility (1/GPa) = 0.02028809
#
# Stress axis : x y z
#
# Youngs Moduli (GPa) = 133.18467 53.72162 78.36134
#
# Poissons Ratio (x) = 0.07418 0.12005
# Poissons Ratio (y) = 0.18389 0.50036
# Poissons Ratio (z) = 0.20404 0.34303
#
# Static dielectric constant tensor:
#      x y z
#    x 1.626500 0.000000 0.000000 
#    y 0.000000 1.771340 0.000000 
#    z 0.000000 0.000000 1.692540 
# 
# From -- ./inp_files/13908.got.cif
#   From: 2010.05.17/outbox.cif.g08.bks.cpg/sg23_7_cif.got.tgz:13908.got - 2010.06.04 12:02:01.
