data_PCOD9330461
_publ_section_title
;
Structure prediction by ZEFSAII (Michael W. Deem and Ramdas Pophale) SiO2 
 PCOD9330461
Probable space group: I 2 2 2
;
_chemical_formula_sum "Si O2"
_cell_formula_units_Z 58
_cell_length_a 24.618876
_cell_length_b 8.809695
_cell_length_c 13.303073
_cell_angle_alpha 90.000000
_cell_angle_beta 90.000000
_cell_angle_gamma 90.000000
_cell_volume 2885.234178
_symmetry_space_group_name_H-M "I 2 2 2"
_symmetry_group_IT_number 23
_symmetry_cell_setting 'orthorhombic'
loop_
_space_group_symop_operation_xyz
x,y,z
-x,-y,z
x,-y,-z
-x,y,-z
1/2+x,1/2+y,1/2+z
1/2-x,1/2-y,1/2+z
1/2+x,1/2-y,1/2-z
1/2-x,1/2+y,1/2-z
loop_
_atom_site_type_symbol
_atom_site_label
_atom_site_fract_x
_atom_site_fract_y
_atom_site_fract_z
Si Si1 0.815974 0.820039 0.480633
Si Si2 0.091282 0.317245 0.997110
Si Si3 0.160120 0.352308 0.291000
Si Si4 0.564877 0.329658 0.713831
Si Si5 0.205958 0.649414 0.929182
Si Si6 0.058200 0.182504 0.196497
Si Si7 0.000000 0.500000 0.500000
Si Si8 0.896669 0.360591 0.391875
O O1 0.809598 0.766133 0.365186
O O2 0.763286 0.773807 0.546620
O O3 0.867415 0.725442 0.517780
O O4 0.824729 0.000000 0.500000
O O5 0.077520 0.259595 0.887735
O O6 0.088005 0.500000 0.000000
O O7 0.152219 0.268091 0.029598
O O8 0.054145 0.246017 0.083355
O O9 0.194227 0.383074 0.188390
O O10 0.103664 0.277272 0.253851
O O11 0.140794 0.502316 0.350424
O O12 0.574580 0.506837 0.696184
O O13 0.501666 0.307740 0.741567
O O14 0.599252 0.259621 0.802576
O O15 0.208408 0.500000 0.000000
O O16 0.043445 0.587696 0.428675
#
# Coordination Sequence:
#
# PCOD9330461 Si02
#       8
#     8   8   8   8   8   8   2   8
#     4  11  24  43  63  93 129 165 213 268 336 400
#     4  10  20  37  60  92 126 164 214 268 321 398
#     4  11  22  43  66  90 130 167 220 278 331 402
#     4  11  22  36  60  89 125 170 210 267 333 394
#     4   9  21  40  65  94 126 169 217 275 332 397
#     4  10  22  38  57  90 128 165 212 263 335 398
#     4  12  24  44  66  96 126 172 230 292 330 400
#     4  12  24  42  66  92 125 168 224 275 332 406
#
# _framework density 20.102354999999999
#
# number of rings (size 3 to 8) (size 9 to 14) (size 15 to 20)
#    0.000    1.379    1.379    4.966    0.000    6.621 
#    0.000    5.517    0.000    0.000    0.000    0.000 
#    0.000    0.000    0.000    0.000    0.000    0.000 
#
# Total GULP energy -161846.398129 kJ/mol
# GULP energy per Si atom -5580.910280 kJ/mol
# Density = 2.005660 g / cm^3
# Si number density = 20.102355 Si / 1000 Ang^3
#
#
#
# Elastic Constant Matrix: (Units=GPa)
#
#
# Indices 1 2 3 4 5 6 
#
# 1 63.1177 16.7517 14.3684 0.0000 0.0000 0.0000
# 2 16.7517 78.4491 50.2290 0.0000 0.0000 0.0000
# 3 14.3684 50.2290 114.0293 0.0000 0.0000 0.0000
# 4 0.0000 0.0000 0.0000 34.4933 0.0000 0.0000
# 5 0.0000 0.0000 0.0000 0.0000 13.6501 0.0000
# 6 0.0000 0.0000 0.0000 0.0000 0.0000 17.2470
#
#
#
# Elastic Compliance Matrix: (Units=1/GPa)
#
#
# Indices 1 2 3 4 5 6 
#
# 1 0.016841 -0.003116 -0.000749 0.000000 0.000000 0.000000
# 2 -0.003116 0.018331 -0.007682 0.000000 0.000000 0.000000
# 3 -0.000749 -0.007682 0.012248 0.000000 0.000000 0.000000
# 4 0.000000 0.000000 0.000000 0.028991 0.000000 0.000000
# 5 0.000000 0.000000 0.000000 0.000000 0.073260 0.000000
# 6 0.000000 0.000000 0.000000 0.000000 0.000000 0.057981
#
#
# Mechanical properties :
#
#
# Convention : Reuss Voigt Hill
#
# Bulk Modulus (GPa) = 41.11049 46.47715 43.79382
# Shear Modulus (GPa) = 20.93312 24.69455 22.81384
#
# Velocity S-wave (km/s) = 3.23046 3.50871 3.37246
# Velocity P-wave (km/s) = 5.86596 6.29168 6.08254
#
# Compressibility (1/GPa) = 0.02432469
#
# Stress axis : x y z
#
# Youngs Moduli (GPa) = 59.37858 54.55177 81.64605
#
# Poissons Ratio (x) = 0.17000 0.06118
# Poissons Ratio (y) = 0.18505 0.62721
# Poissons Ratio (z) = 0.04449 0.41907
#
# Static dielectric constant tensor:
#      x y z
#    x 1.747730 0.000000 0.000000 
#    y 0.000000 1.725840 0.000000 
#    z 0.000000 0.000000 1.709770 
# 
# From -- ./inp_files/18776.got.cif
#   From: 2010.05.17/outbox.cif.g08.bks.cpg/sg23_10_cif.got.tgz:18776.got - 2010.06.04 12:02:01.
