data_PCOD9330189
_publ_section_title
;
Structure prediction by ZEFSAII (Michael W. Deem and Ramdas Pophale) SiO2 
 PCOD9330189
Probable space group: I 2 2 2
;
_chemical_formula_sum "Si O2"
_cell_formula_units_Z 64
_cell_length_a 7.770560
_cell_length_b 23.773715
_cell_length_c 14.280567
_cell_angle_alpha 90.000000
_cell_angle_beta 90.000000
_cell_angle_gamma 90.000000
_cell_volume 2638.121670
_symmetry_space_group_name_H-M "I 2 2 2"
_symmetry_group_IT_number 23
_symmetry_cell_setting 'orthorhombic'
loop_
_space_group_symop_operation_xyz
x,y,z
-x,-y,z
x,-y,-z
-x,y,-z
1/2+x,1/2+y,1/2+z
1/2-x,1/2-y,1/2+z
1/2+x,1/2-y,1/2-z
1/2-x,1/2+y,1/2-z
loop_
_atom_site_type_symbol
_atom_site_label
_atom_site_fract_x
_atom_site_fract_y
_atom_site_fract_z
Si Si1 0.539911 0.682655 0.841746
Si Si2 0.456816 0.938799 0.689135
Si Si3 0.559346 0.076997 0.898361
Si Si4 0.550717 0.801656 0.873532
Si Si5 0.456816 0.438799 0.810865
Si Si6 0.960089 0.682655 0.841746
Si Si7 0.550717 0.301656 0.626468
Si Si8 0.940654 0.076997 0.898361
O O1 0.487269 0.738814 0.897202
O O2 0.488178 0.618393 0.864632
O O3 0.750000 0.685310 0.836586
O O4 0.463117 0.692673 0.738789
O O5 0.526917 0.936139 0.797447
O O6 0.250000 0.934702 0.693989
O O7 0.511822 0.881607 0.635368
O O8 0.500000 0.000000 0.649543
O O9 0.556426 0.144802 0.905129
O O10 0.750000 0.054379 0.888541
O O11 0.500000 0.941912 0.000000
O O12 0.536883 0.807327 0.761211
O O13 0.750000 0.808609 0.901238
O O14 0.500000 0.500000 0.850457
O O15 0.526917 0.436139 0.702553
O O16 0.012731 0.738814 0.897202
O O17 0.443574 0.355198 0.594871
O O18 0.000000 0.058088 0.000000
#
# Coordination Sequence:
#
# PCOD9330189 Si02
#       8
#     8   8   8   8   8   8   8   8
#     4   8  15  27  41  59  82 105 131 166 207 248
#     4   9  18  30  42  58  82 111 142 174 203 236
#     4  10  20  32  43  58  82 110 142 176 208 243
#     4   9  15  25  43  62  79 102 132 167 209 249
#     4   9  18  30  42  58  82 111 142 174 203 236
#     4   8  15  27  41  59  82 105 131 166 207 248
#     4   9  15  25  43  62  79 102 132 167 209 249
#     4  10  20  32  43  58  82 110 142 176 208 243
#
# _framework density 24.259684
#
# number of rings (size 3 to 8) (size 9 to 14) (size 15 to 20)
#    0.000    3.000    0.000    3.000    0.000    6.500 
#    0.000    2.500    0.000    0.000    0.000    0.000 
#    0.000    1.000    0.000   11.500    0.000    4.000 
#
# Total GULP energy -178203.169114 kJ/mol
# GULP energy per Si atom -5568.849035 kJ/mol
# Density = 2.420447 g / cm^3
# Si number density = 24.259684 Si / 1000 Ang^3
#
#
#
# Elastic Constant Matrix: (Units=GPa)
#
#
# Indices 1 2 3 4 5 6 
#
# 1 27.0803 1.0246 -6.2747 0.0000 0.0000 0.0000
# 2 1.0246 243.1710 1.5614 0.0000 0.0000 0.0000
# 3 -6.2747 1.5614 33.2092 -0.0001 0.0000 0.0000
# 4 0.0000 0.0000 -0.0001 -21.3782 0.0000 0.0000
# 5 0.0000 0.0000 0.0000 0.0000 6.1926 0.0000
# 6 0.0000 0.0000 0.0000 0.0000 0.0000 32.8942
#
#
#
# Elastic Compliance Matrix: (Units=1/GPa)
#
#
# Indices 1 2 3 4 5 6 
#
# 1 0.038629 -0.000210 0.007309 0.000000 0.000000 0.000000
# 2 -0.000210 0.004115 -0.000233 0.000000 0.000000 0.000000
# 3 0.007309 -0.000233 0.031504 0.000000 0.000000 0.000000
# 4 0.000000 0.000000 0.000000 -0.046777 0.000000 0.000000
# 5 0.000000 0.000000 0.000000 0.000000 0.161483 0.000000
# 6 0.000000 0.000000 0.000000 0.000000 0.000000 0.030401
#
#
# Mechanical properties :
#
#
# Convention : Reuss Voigt Hill
#
# Bulk Modulus (GPa) = 11.36635 32.89813 22.13224
# Shear Modulus (GPa) = 21.28125 24.01833 22.64979
#
# Velocity S-wave (km/s) = 2.96502 3.14992 3.05887
# Velocity P-wave (km/s) = 4.05182 5.17876 4.64956
#
# Compressibility (1/GPa) = 0.08797897
#
# Stress axis : x y z
#
# Youngs Moduli (GPa) = 25.88754 243.03033 31.74196
#
# Poissons Ratio (x) = 0.05096 -0.23199
# Poissons Ratio (y) = 0.00543 0.00740
# Poissons Ratio (z) = -0.18920 0.05665
#
# Static dielectric constant tensor:
#      x y z
#    x 1.845140 0.000000 0.000000 
#    y 0.000000 2.021180 0.000000 
#    z 0.000000 0.000000 1.982780 
# 
# From -- ./inp_files/12285.got.cif
#   From: 2010.05.17/outbox.cif.g08.bks.cpg/sg23_7_cif.got.tgz:12285.got - 2010.06.04 12:02:01.
