data_PCOD9330203
_publ_section_title
;
Structure prediction by ZEFSAII (Michael W. Deem and Ramdas Pophale) SiO2 
 PCOD9330203
Probable space group: I 2 2 2
;
_chemical_formula_sum "Si O2"
_cell_formula_units_Z 40
_cell_length_a 15.363144
_cell_length_b 5.015257
_cell_length_c 26.647250
_cell_angle_alpha 90.000000
_cell_angle_beta 90.000000
_cell_angle_gamma 90.000000
_cell_volume 2053.173690
_symmetry_space_group_name_H-M "I 2 2 2"
_symmetry_group_IT_number 23
_symmetry_cell_setting 'orthorhombic'
loop_
_space_group_symop_operation_xyz
x,y,z
-x,-y,z
x,-y,-z
-x,y,-z
1/2+x,1/2+y,1/2+z
1/2-x,1/2-y,1/2+z
1/2+x,1/2-y,1/2-z
1/2-x,1/2+y,1/2-z
loop_
_atom_site_type_symbol
_atom_site_label
_atom_site_fract_x
_atom_site_fract_y
_atom_site_fract_z
Si Si1 0.347344 0.392188 0.814289
Si Si2 0.560097 0.739895 0.710977
Si Si3 0.092641 0.879962 0.573162
Si Si4 0.800493 0.609669 0.550526
Si Si5 0.739521 0.601352 0.662652
O O1 0.406966 0.322606 0.767375
O O2 0.398056 0.359062 0.866640
O O3 0.311496 0.692438 0.816078
O O4 0.265674 0.186420 0.815014
O O5 0.500000 0.500000 0.693349
O O6 0.647798 0.724181 0.678429
O O7 0.500000 0.000000 0.709463
O O8 0.116228 0.587855 0.554134
O O9 0.164894 0.088864 0.553198
O O10 0.000000 0.000000 0.559813
O O11 0.755258 0.500000 0.500000
O O12 0.748326 0.574884 0.602500
#
# Coordination Sequence:
#
# PCOD9330203 Si02
#       5
#     8   8   8   8   8
#     4  10  20  36  55  77 110 149 180 208 263 332
#     4  12  23  35  56  84 111 141 181 228 275 322
#     4  10  20  32  50  78 111 140 175 222 266 318
#     4  10  21  35  53  75 101 143 186 222 271 324
#     4  10  21  38  56  77 108 144 182 223 266 326
#
# _framework density 19.482033000000001
#
# number of rings (size 3 to 8) (size 9 to 14) (size 15 to 20)
#    0.000    1.600    0.000    5.400    0.000    5.600 
#    0.000    0.000    0.000    0.600    0.000    1.400 
#    0.000    0.000    0.000    0.000    0.000    0.000 
#
# Total GULP energy -111689.884215 kJ/mol
# GULP energy per Si atom -5584.494211 kJ/mol
# Density = 1.943769 g / cm^3
# Si number density = 19.482033 Si / 1000 Ang^3
#
#
#
# Elastic Constant Matrix: (Units=GPa)
#
#
# Indices 1 2 3 4 5 6 
#
# 1 56.3300 5.3243 25.9605 0.0000 0.0000 0.0000
# 2 5.3243 84.6632 15.9575 0.0000 0.0000 0.0000
# 3 25.9605 15.9575 102.9501 0.0000 0.0000 0.0000
# 4 0.0000 0.0000 0.0000 35.6916 0.0000 0.0000
# 5 0.0000 0.0000 0.0000 0.0000 -1.8726 0.0000
# 6 0.0000 0.0000 0.0000 0.0000 0.0000 36.5004
#
#
#
# Elastic Compliance Matrix: (Units=1/GPa)
#
#
# Indices 1 2 3 4 5 6 
#
# 1 0.020095 -0.000318 -0.005018 0.000000 0.000000 0.000000
# 2 -0.000318 0.012172 -0.001807 0.000000 0.000000 0.000000
# 3 -0.005018 -0.001807 0.011259 0.000000 0.000000 0.000000
# 4 0.000000 0.000000 0.000000 0.028018 0.000000 0.000000
# 5 0.000000 0.000000 0.000000 0.000000 -0.534004 0.000000
# 6 0.000000 0.000000 0.000000 0.000000 0.000000 0.027397
#
#
# Mechanical properties :
#
#
# Convention : Reuss Voigt Hill
#
# Bulk Modulus (GPa) = 34.19847 37.60309 35.90078
# Shear Modulus (GPa) = -12.16453 27.17726 7.50637
#
# Velocity S-wave (km/s) = -2.50151 3.73901 1.96503
# Velocity P-wave (km/s) = 3.04115 6.16308 4.85964
#
# Compressibility (1/GPa) = 0.02924107
#
# Stress axis : x y z
#
# Youngs Moduli (GPa) = 49.76305 82.15576 88.81912
#
# Poissons Ratio (x) = 0.02612 0.44570
# Poissons Ratio (y) = 0.01582 0.16045
# Poissons Ratio (z) = 0.24971 0.14842
#
# Static dielectric constant tensor:
#      x y z
#    x 1.632800 0.000000 0.000000 
#    y 0.000000 1.670670 0.000000 
#    z 0.000000 0.000000 1.736480 
# 
# From -- ./inp_files/28853.got.cif
#   From: 2010.05.17/outbox.cif.g08.bks.cpg/sg23_15_cif.got.tgz:28853.got - 2010.06.04 12:02:01.
