data_PCOD9330843
_publ_section_title
;
Structure prediction by ZEFSAII (Michael W. Deem and Ramdas Pophale) SiO2 
 PCOD9330843
Probable space group: I 2 2 2
;
_chemical_formula_sum "Si O2"
_cell_formula_units_Z 32
_cell_length_a 8.756641
_cell_length_b 11.322919
_cell_length_c 12.440419
_cell_angle_alpha 90.000000
_cell_angle_beta 90.000000
_cell_angle_gamma 90.000000
_cell_volume 1233.476709
_symmetry_space_group_name_H-M "I 2 2 2"
_symmetry_group_IT_number 23
_symmetry_cell_setting 'orthorhombic'
loop_
_space_group_symop_operation_xyz
x,y,z
-x,-y,z
x,-y,-z
-x,y,-z
1/2+x,1/2+y,1/2+z
1/2-x,1/2-y,1/2+z
1/2+x,1/2-y,1/2-z
1/2-x,1/2+y,1/2-z
loop_
_atom_site_type_symbol
_atom_site_label
_atom_site_fract_x
_atom_site_fract_y
_atom_site_fract_z
Si Si1 0.835557 0.933134 0.902868
Si Si2 0.173021 0.336479 0.985738
Si Si3 0.063554 0.761219 0.374874
Si Si4 0.273879 0.596422 0.225558
O O1 0.833258 0.796890 0.931523
O O2 0.778464 0.973252 0.788533
O O3 0.000000 0.000000 0.900194
O O4 0.750135 0.000000 0.000000
O O5 0.287656 0.330181 0.083618
O O6 0.227020 0.423367 0.894899
O O7 0.000000 0.363104 0.000000
O O8 0.146392 0.666871 0.295971
O O9 0.000000 0.729321 0.500000
O O10 0.933526 0.828667 0.301613
#
# Coordination Sequence:
#
# PCOD9330843 Si02
#       4
#     8   8   8   8
#     4  11  19  36  66 101 129 175 229 274 322 415
#     4  11  21  40  69 101 137 177 233 280 337 406
#     4  10  21  36  59  97 136 181 228 274 347 402
#     4  11  22  38  64 100 140 178 223 289 344 397
#
# _framework density 25.942928999999999
#
# number of rings (size 3 to 8) (size 9 to 14) (size 15 to 20)
#    0.000    1.250    5.000    3.000    0.000    0.000 
#    0.000    8.750    0.000   44.250    6.500    1.750 
#    0.000    0.000    0.000    0.000    0.000    0.000 
#
# Total GULP energy -89124.945753 kJ/mol
# GULP energy per Si atom -5570.309110 kJ/mol
# Density = 2.588388 g / cm^3
# Si number density = 25.942929 Si / 1000 Ang^3
#
#
#
# Elastic Constant Matrix: (Units=GPa)
#
#
# Indices 1 2 3 4 5 6 
#
# 1 133.8358 22.6088 -1.6538 0.0000 0.0000 0.0000
# 2 22.6088 119.5965 11.3527 0.0000 0.0000 0.0000
# 3 -1.6538 11.3527 96.1792 0.0000 0.0000 0.0000
# 4 0.0000 0.0000 0.0000 162.9512 0.0000 0.0000
# 5 0.0000 0.0000 0.0000 0.0000 36.3922 0.0000
# 6 0.0000 0.0000 0.0000 0.0000 0.0000 -0.3963
#
#
#
# Elastic Compliance Matrix: (Units=1/GPa)
#
#
# Indices 1 2 3 4 5 6 
#
# 1 0.007727 -0.001490 0.000309 0.000000 0.000000 0.000000
# 2 -0.001490 0.008744 -0.001058 0.000000 0.000000 0.000000
# 3 0.000309 -0.001058 0.010527 0.000000 0.000000 0.000000
# 4 0.000000 0.000000 0.000000 0.006137 0.000000 0.000000
# 5 0.000000 0.000000 0.000000 0.000000 0.027478 0.000000
# 6 0.000000 0.000000 0.000000 0.000000 0.000000 -2.523604
#
#
# Mechanical properties :
#
#
# Convention : Reuss Voigt Hill
#
# Bulk Modulus (GPa) = 44.40444 46.02521 45.21483
# Shear Modulus (GPa) = -2.03998 60.94301 29.45152
#
# Velocity S-wave (km/s) = -0.88772 4.85203 3.37299
# Velocity P-wave (km/s) = 4.01281 7.01206 5.71278
#
# Compressibility (1/GPa) = 0.02252027
#
# Stress axis : x y z
#
# Youngs Moduli (GPa) = 129.40993 114.37013 94.99009
#
# Poissons Ratio (x) = 0.17042 -0.02933
# Poissons Ratio (y) = 0.19284 0.10047
# Poissons Ratio (z) = -0.03996 0.12097
#
# Static dielectric constant tensor:
#      x y z
#    x 1.538870 0.000000 0.000000 
#    y 0.000000 2.131680 0.000000 
#    z 0.000000 0.000000 2.142820 
# 
# From -- ./inp_files/14295.got.cif
#   From: 2010.05.17/outbox.cif.g08.bks.cpg/sg23_8_cif.got.tgz:14295.got - 2010.06.04 12:02:01.
