data_PCOD9330822
_publ_section_title
;
Structure prediction by ZEFSAII (Michael W. Deem and Ramdas Pophale) SiO2 
 PCOD9330822
Probable space group: I 2 2 2
;
_chemical_formula_sum "Si O2"
_cell_formula_units_Z 64
_cell_length_a 13.101724
_cell_length_b 20.210466
_cell_length_c 12.322227
_cell_angle_alpha 90.000000
_cell_angle_beta 90.000000
_cell_angle_gamma 90.000000
_cell_volume 3262.826484
_symmetry_space_group_name_H-M "I 2 2 2"
_symmetry_group_IT_number 23
_symmetry_cell_setting 'orthorhombic'
loop_
_space_group_symop_operation_xyz
x,y,z
-x,-y,z
x,-y,-z
-x,y,-z
1/2+x,1/2+y,1/2+z
1/2-x,1/2-y,1/2+z
1/2+x,1/2-y,1/2-z
1/2-x,1/2+y,1/2-z
loop_
_atom_site_type_symbol
_atom_site_label
_atom_site_fract_x
_atom_site_fract_y
_atom_site_fract_z
Si Si1 0.111459 0.189491 0.715478
Si Si2 0.168052 0.308662 0.124541
Si Si3 0.612864 0.922436 0.215582
Si Si4 0.331930 0.191705 0.375302
Si Si5 0.330251 0.578155 0.621973
Si Si6 0.388517 0.310141 0.784370
Si Si7 0.669917 0.421526 0.378448
Si Si8 0.112989 0.577257 0.715926
O O1 0.208826 0.192717 0.637221
O O2 0.126043 0.248550 0.802284
O O3 0.119512 0.122262 0.785564
O O4 0.999980 0.194828 0.664107
O O5 0.125871 0.249152 0.197980
O O6 0.129959 0.375972 0.180783
O O7 0.138254 0.302908 0.999943
O O8 0.629903 0.875446 0.318588
O O9 0.707947 0.910408 0.135764
O O10 0.499835 0.909655 0.169504
O O11 0.617761 0.999823 0.245786
O O12 0.208811 0.192993 0.362681
O O13 0.361400 0.597435 0.500253
O O14 0.650380 0.500178 0.635329
O O15 0.208172 0.589381 0.636313
O O16 0.380187 0.377180 0.713796
#
# Coordination Sequence:
#
# PCOD9330822 Si02
#       8
#     8   8   8   8   8   8   8   8
#     4  10  21  36  53  74 100 129 163 203 245 291
#     4  10  21  36  53  74 100 129 163 203 245 291
#     4   9  18  32  50  74 103 133 166 204 245 290
#     4  10  21  36  53  74 100 129 163 203 245 291
#     4   9  18  32  50  74 103 133 166 204 245 290
#     4  10  21  36  53  74 100 129 163 203 245 291
#     4   9  18  32  50  74 103 133 166 204 245 290
#     4   9  18  32  50  74 103 133 166 204 245 290
#
# _framework density 19.614895000000001
#
# number of rings (size 3 to 8) (size 9 to 14) (size 15 to 20)
#    0.000    2.500    0.000    1.500    0.000    5.500 
#    0.000    5.000    0.000    9.000    0.000    7.000 
#    0.000    0.000    0.000    0.000    0.000    0.000 
#
# Total GULP energy -178578.743837 kJ/mol
# GULP energy per Si atom -5580.585745 kJ/mol
# Density = 1.957025 g / cm^3
# Si number density = 19.614895 Si / 1000 Ang^3
#
#
#
# Elastic Constant Matrix: (Units=GPa)
#
#
# Indices 1 2 3 4 5 6 
#
# 1 104.3153 5.5877 -24.1987 0.0000 0.0000 0.0000
# 2 5.5877 34.6442 6.9539 0.0000 0.0000 0.0000
# 3 -24.1987 6.9539 40.8453 0.0000 0.0000 0.0000
# 4 0.0000 0.0000 0.0000 15.1279 0.0000 0.0000
# 5 0.0000 0.0000 0.0000 0.0000 -2.4591 0.0000
# 6 0.0000 0.0000 0.0000 0.0000 0.0000 15.0758
#
#
#
# Elastic Compliance Matrix: (Units=1/GPa)
#
#
# Indices 1 2 3 4 5 6 
#
# 1 0.011473 -0.003328 0.007364 0.000000 0.000000 0.000000
# 2 -0.003328 0.030852 -0.007224 0.000000 0.000000 0.000000
# 3 0.007364 -0.007224 0.030075 0.000000 0.000000 0.000000
# 4 0.000000 0.000000 0.000000 0.066103 0.000000 0.000000
# 5 0.000000 0.000000 0.000000 0.000000 -0.406659 0.000000
# 6 0.000000 0.000000 0.000000 0.000000 0.000000 0.066332
#
#
# Mechanical properties :
#
#
# Convention : Reuss Voigt Hill
#
# Bulk Modulus (GPa) = 15.14661 17.38784 16.26723
# Shear Modulus (GPa) = -28.82851 18.31306 -5.25772
#
# Velocity S-wave (km/s) = -3.83786 3.05885 -1.63899
# Velocity P-wave (km/s) = 3.44966 4.62161 2.17476
#
# Compressibility (1/GPa) = 0.06602136
#
# Stress axis : x y z
#
# Youngs Moduli (GPa) = 87.16257 32.41299 33.24997
#
# Poissons Ratio (x) = 0.10789 -0.24484
# Poissons Ratio (y) = 0.29012 0.24021
# Poissons Ratio (z) = -0.64184 0.23417
#
# Static dielectric constant tensor:
#      x y z
#    x 1.743670 0.000000 0.000000 
#    y 0.000000 1.678420 0.000000 
#    z 0.000000 0.000000 1.610920 
# 
# From -- ./inp_files/16103.got.cif
#   From: 2010.05.17/outbox.cif.g08.bks.cpg/sg23_9_cif.got.tgz:16103.got - 2010.06.04 12:02:01.
