data_PCOD9330518
_publ_section_title
;
Structure prediction by ZEFSAII (Michael W. Deem and Ramdas Pophale) SiO2 
 PCOD9330518
Probable space group: I 2 2 2
;
_chemical_formula_sum "Si O2"
_cell_formula_units_Z 40
_cell_length_a 14.492888
_cell_length_b 12.121786
_cell_length_c 13.600474
_cell_angle_alpha 90.000000
_cell_angle_beta 90.000000
_cell_angle_gamma 90.000000
_cell_volume 2389.327013
_symmetry_space_group_name_H-M "I 2 2 2"
_symmetry_group_IT_number 23
_symmetry_cell_setting 'orthorhombic'
loop_
_space_group_symop_operation_xyz
x,y,z
-x,-y,z
x,-y,-z
-x,y,-z
1/2+x,1/2+y,1/2+z
1/2-x,1/2-y,1/2+z
1/2+x,1/2-y,1/2-z
1/2-x,1/2+y,1/2-z
loop_
_atom_site_type_symbol
_atom_site_label
_atom_site_fract_x
_atom_site_fract_y
_atom_site_fract_z
Si Si1 0.500000 0.367100 0.883121
Si Si2 0.854948 0.780724 0.230764
Si Si3 0.000000 0.367676 0.882889
Si Si4 0.145051 0.780723 0.230764
Si Si5 0.388696 0.500000 0.388258
O O1 0.500000 0.500000 0.864910
O O2 0.412071 0.312484 0.829072
O O3 0.587928 0.312484 0.829071
O O4 0.500000 0.349918 0.000000
O O5 0.750000 0.750000 0.249999
O O6 0.912082 0.687859 0.170920
O O7 0.856913 0.890763 0.165825
O O8 0.087918 0.312143 0.829079
O O9 0.000000 0.500000 0.872510
O O10 0.000000 0.341179 0.000000
O O11 0.143085 0.890761 0.165824
O O12 0.500000 0.500000 0.386555
O O13 0.357156 0.500000 0.500000
#
# Coordination Sequence:
#
# PCOD9330518 Si02
#       5
#     8   8   8   8   8
#     4  10  20  38  59  83 114 149 190 235 285 339
#     4  11  22  37  60  86 119 151 190 239 287 338
#     4  10  22  39  60  86 117 151 189 237 291 341
#     4  11  22  37  60  86 119 151 190 239 287 338
#     4  11  20  38  64  87 110 147 199 244 285 335
#
# _framework density 16.741116000000002
#
# number of rings (size 3 to 8) (size 9 to 14) (size 15 to 20)
#    0.000    1.400    6.000    1.200    2.800    3.200 
#    0.000    4.000    0.000    2.400    0.000    0.000 
#    0.000    0.000    0.000    0.000    0.000    0.000 
#
# Total GULP energy -111643.163314 kJ/mol
# GULP energy per Si atom -5582.158166 kJ/mol
# Density = 1.670301 g / cm^3
# Si number density = 16.741116 Si / 1000 Ang^3
#
#
#
# Elastic Constant Matrix: (Units=GPa)
#
#
# Indices 1 2 3 4 5 6 
#
# 1 170.3776 70.6679 81.1132 0.0000 0.0000 0.0000
# 2 70.6679 125.9465 75.3296 0.0000 0.0000 0.0000
# 3 81.1132 75.3296 164.6484 0.0000 0.0000 0.0000
# 4 0.0000 0.0000 0.0000 32.7578 0.0000 0.0000
# 5 0.0000 0.0000 0.0000 0.0000 2.0670 0.0000
# 6 0.0000 0.0000 0.0000 0.0000 0.0000 20.5933
#
#
#
# Elastic Compliance Matrix: (Units=1/GPa)
#
#
# Indices 1 2 3 4 5 6 
#
# 1 0.008467 -0.003106 -0.002750 0.000000 0.000000 0.000000
# 2 -0.003106 0.012070 -0.003992 0.000000 0.000000 0.000000
# 3 -0.002750 -0.003992 0.009255 0.000000 0.000000 0.000000
# 4 0.000000 0.000000 0.000000 0.030527 0.000000 0.000000
# 5 0.000000 0.000000 0.000000 0.000000 0.483783 0.000000
# 6 0.000000 0.000000 0.000000 0.000000 0.000000 0.048559
#
#
# Mechanical properties :
#
#
# Convention : Reuss Voigt Hill
#
# Bulk Modulus (GPa) = 99.05378 101.68820 100.37099
# Shear Modulus (GPa) = 8.12052 26.67442 17.39747
#
# Velocity S-wave (km/s) = 2.20481 3.99601 3.22717
# Velocity P-wave (km/s) = 8.11036 9.06445 8.60065
#
# Compressibility (1/GPa) = 0.01009553
#
# Stress axis : x y z
#
# Youngs Moduli (GPa) = 118.10829 82.84737 108.04971
#
# Poissons Ratio (x) = 0.25730 0.29716
# Poissons Ratio (y) = 0.36682 0.43138
# Poissons Ratio (z) = 0.32482 0.33076
#
# Static dielectric constant tensor:
#      x y z
#    x 1.518020 0.000000 0.000000 
#    y 0.000000 1.544250 0.000000 
#    z 0.000000 0.000000 1.565840 
# 
# From -- ./inp_files/16510.got.cif
#   From: 2010.05.17/outbox.cif.g08.bks.cpg/sg23_9_cif.got.tgz:16510.got - 2010.06.04 12:02:01.
