data_PCOD9330642
_publ_section_title
;
Structure prediction by ZEFSAII (Michael W. Deem and Ramdas Pophale) SiO2 
 PCOD9330642
Probable space group: I 2 2 2
;
_chemical_formula_sum "Si O2"
_cell_formula_units_Z 52
_cell_length_a 24.582461
_cell_length_b 5.744388
_cell_length_c 18.456137
_cell_angle_alpha 90.000000
_cell_angle_beta 90.000000
_cell_angle_gamma 90.000000
_cell_volume 2606.213142
_symmetry_space_group_name_H-M "I 2 2 2"
_symmetry_group_IT_number 23
_symmetry_cell_setting 'orthorhombic'
loop_
_space_group_symop_operation_xyz
x,y,z
-x,-y,z
x,-y,-z
-x,y,-z
1/2+x,1/2+y,1/2+z
1/2-x,1/2-y,1/2+z
1/2+x,1/2-y,1/2-z
1/2-x,1/2+y,1/2-z
loop_
_atom_site_type_symbol
_atom_site_label
_atom_site_fract_x
_atom_site_fract_y
_atom_site_fract_z
Si Si1 0.139571 0.361806 0.322890
Si Si2 0.000000 0.000000 0.500000
Si Si3 0.939474 0.970398 0.254897
Si Si4 0.867752 0.643299 0.820970
Si Si5 0.052442 0.660707 0.888364
Si Si6 0.500000 0.500000 0.500000
Si Si7 0.443485 0.889457 0.921168
Si Si8 0.253946 0.331660 0.293621
O O1 0.102778 0.132872 0.312979
O O2 0.146316 0.456986 0.241272
O O3 0.105318 0.547306 0.368799
O O4 0.201617 0.328779 0.346582
O O5 0.039727 0.864527 0.445821
O O6 0.946585 0.790429 0.188655
O O7 0.913769 0.195335 0.216246
O O8 0.000000 0.000000 0.285136
O O9 0.894539 0.504928 0.887638
O O10 0.812687 0.789955 0.830722
O O11 0.000000 0.500000 0.890487
O O12 0.040131 0.846134 0.950466
O O13 0.500000 0.000000 0.891573
O O14 0.432443 0.000000 0.000000
O O15 0.255435 0.591477 0.255325
#
# Coordination Sequence:
#
# PCOD9330642 Si02
#       8
#     8   2   8   8   8   2   8   8
#     4  10  22  34  58  90 123 162 206 254 317 385
#     4   8  18  40  56  72 136 168 210 254 320 380
#     4  11  20  34  54  87 125 153 192 260 319 374
#     4  10  21  35  57  87 130 160 205 259 323 383
#     4  11  21  36  56  88 123 163 210 256 319 390
#     4  12  22  36  60  88 132 168 218 254 328 404
#     4   9  20  37  54  85 122 160 206 254 308 378
#     4  10  20  40  59  91 132 167 211 255 325 388
#
# _framework density 19.95232
#
# number of rings (size 3 to 8) (size 9 to 14) (size 15 to 20)
#    0.000    2.000    3.846    0.231    2.154    2.462 
#    1.385    0.000    0.000    0.000   12.000    0.000 
#    0.000    0.000    0.000    0.000    0.000    0.000 
#
# Total GULP energy -144815.485572 kJ/mol
# GULP energy per Si atom -5569.826368 kJ/mol
# Density = 1.990691 g / cm^3
# Si number density = 19.952320 Si / 1000 Ang^3
#
#
#
# Elastic Constant Matrix: (Units=GPa)
#
#
# Indices 1 2 3 4 5 6 
#
# 1 151.0988 31.2604 28.4653 0.0000 0.0000 0.0000
# 2 31.2604 95.1011 23.5320 0.0000 0.0000 0.0000
# 3 28.4653 23.5320 52.1627 0.0000 0.0000 0.0000
# 4 0.0000 0.0000 0.0000 -12.1659 0.0000 0.0000
# 5 0.0000 0.0000 0.0000 0.0000 12.9664 0.0000
# 6 0.0000 0.0000 0.0000 0.0000 0.0000 -45.7721
#
#
#
# Elastic Compliance Matrix: (Units=1/GPa)
#
#
# Indices 1 2 3 4 5 6 
#
# 1 0.007602 -0.001657 -0.003401 0.000000 0.000000 0.000000
# 2 -0.001657 0.012198 -0.004598 0.000000 0.000000 0.000000
# 3 -0.003401 -0.004598 0.023101 0.000000 0.000000 0.000000
# 4 0.000000 0.000000 0.000000 -0.082197 0.000000 0.000000
# 5 0.000000 0.000000 0.000000 0.000000 0.077122 0.000000
# 6 0.000000 0.000000 0.000000 0.000000 0.000000 -0.021847
#
#
# Mechanical properties :
#
#
# Convention : Reuss Voigt Hill
#
# Bulk Modulus (GPa) = 42.39464 51.65311 47.02387
# Shear Modulus (GPa) = 115.86510 5.34599 60.60555
#
# Velocity S-wave (km/s) = 7.62870 1.63866 5.51735
# Velocity P-wave (km/s) = 9.94435 5.43367 8.01296
#
# Compressibility (1/GPa) = 0.02358789
#
# Stress axis : x y z
#
# Youngs Moduli (GPa) = 131.54963 81.98262 43.28823
#
# Poissons Ratio (x) = 0.13587 0.14721
# Poissons Ratio (y) = 0.21801 0.19905
# Poissons Ratio (z) = 0.44735 0.37698
#
# Static dielectric constant tensor:
#      x y z
#    x 1.759180 0.000000 0.000000 
#    y 0.000000 1.824170 0.000000 
#    z 0.000000 0.000000 1.744530 
# 
# From -- ./inp_files/27298.got.cif
#   From: 2010.05.17/outbox.cif.g08.bks.cpg/sg23_14_cif.got.tgz:27298.got - 2010.06.04 12:02:01.
