data_PCOD9330485
_publ_section_title
;
Structure prediction by ZEFSAII (Michael W. Deem and Ramdas Pophale) SiO2 
 PCOD9330485
Probable space group: I 2 2 2
;
_chemical_formula_sum "Si O2"
_cell_formula_units_Z 32
_cell_length_a 11.391041
_cell_length_b 9.061801
_cell_length_c 12.895207
_cell_angle_alpha 90.000000
_cell_angle_beta 90.000000
_cell_angle_gamma 90.000000
_cell_volume 1331.086423
_symmetry_space_group_name_H-M "I 2 2 2"
_symmetry_group_IT_number 23
_symmetry_cell_setting 'orthorhombic'
loop_
_space_group_symop_operation_xyz
x,y,z
-x,-y,z
x,-y,-z
-x,y,-z
1/2+x,1/2+y,1/2+z
1/2-x,1/2-y,1/2+z
1/2+x,1/2-y,1/2-z
1/2-x,1/2+y,1/2-z
loop_
_atom_site_type_symbol
_atom_site_label
_atom_site_fract_x
_atom_site_fract_y
_atom_site_fract_z
Si Si1 0.846946 0.906250 0.599056
Si Si2 0.121712 0.080342 0.850301
Si Si3 0.615504 0.085706 0.630803
Si Si4 0.373460 0.924576 0.875942
O O1 0.884485 0.921825 0.721621
O O2 0.862041 0.734945 0.571493
O O3 0.891034 0.000000 0.500000
O O4 0.716724 0.970510 0.606152
O O5 0.123478 0.243918 0.900854
O O6 0.247811 0.009385 0.883083
O O7 0.000000 0.000000 0.880985
O O8 0.617337 0.103712 0.754267
O O9 0.500000 0.000000 0.602868
O O10 0.500000 0.000000 0.899436
#
# Coordination Sequence:
#
# PCOD9330485 Si02
#       4
#     8   8   8   8
#     4  10  21  36  59  91 127 161 201 253 314 368
#     4  10  20  37  63  89 119 162 210 254 300 361
#     4   9  18  34  59  89 120 161 211 252 293 358
#     4   9  19  37  62  90 121 161 207 251 298 362
#
# _framework density 24.040512
#
# number of rings (size 3 to 8) (size 9 to 14) (size 15 to 20)
#    0.000    2.500    0.000    1.500    0.000   13.000 
#    0.000    1.250    0.000   16.500    0.000    0.000 
#    0.000    0.000    0.000    0.000    0.000    0.000 
#
# Total GULP energy -89096.003750 kJ/mol
# GULP energy per Si atom -5568.500234 kJ/mol
# Density = 2.398580 g / cm^3
# Si number density = 24.040512 Si / 1000 Ang^3
#
#
#
# Elastic Constant Matrix: (Units=GPa)
#
#
# Indices 1 2 3 4 5 6 
#
# 1 270.4366 158.1731 8.5973 0.0000 0.0000 0.0000
# 2 158.1731 257.5753 28.2137 0.0000 0.0000 0.0000
# 3 8.5973 28.2137 112.4375 0.0000 0.0000 0.0000
# 4 0.0000 0.0000 0.0000 30.1692 0.0000 0.0000
# 5 0.0000 0.0000 0.0000 0.0000 -100.9195 0.0000
# 6 0.0000 0.0000 0.0000 0.0000 0.0000 104.5861
#
#
#
# Elastic Compliance Matrix: (Units=1/GPa)
#
#
# Indices 1 2 3 4 5 6 
#
# 1 0.005793 -0.003608 0.000462 0.000000 0.000000 0.000000
# 2 -0.003608 0.006239 -0.001290 0.000000 0.000000 0.000000
# 3 0.000462 -0.001290 0.009182 0.000000 0.000000 0.000000
# 4 0.000000 0.000000 0.000000 0.033146 0.000000 0.000000
# 5 0.000000 0.000000 0.000000 0.000000 -0.009909 0.000000
# 6 0.000000 0.000000 0.000000 0.000000 0.000000 0.009562
#
#
# Mechanical properties :
#
#
# Convention : Reuss Voigt Hill
#
# Bulk Modulus (GPa) = 81.01266 114.49083 97.75174
# Shear Modulus (GPa) = 74.62695 36.46483 55.54589
#
# Velocity S-wave (km/s) = 5.57759 3.89885 4.81199
# Velocity P-wave (km/s) = 8.67473 8.24594 8.46305
#
# Compressibility (1/GPa) = 0.01234375
#
# Stress axis : x y z
#
# Youngs Moduli (GPa) = 172.60818 160.27031 108.90754
#
# Poissons Ratio (x) = 0.57831 -0.05036
# Poissons Ratio (y) = 0.62283 0.14046
# Poissons Ratio (z) = -0.07982 0.20671
#
# Static dielectric constant tensor:
#      x y z
#    x 1.752360 0.000000 0.000000 
#    y 0.000000 1.914000 0.000000 
#    z 0.000000 0.000000 1.970420 
# 
# From -- ./inp_files/7836.got.cif
#   From: 2010.05.17/outbox.cif.g08.bks.cpg/sg23_4_cif.got.tgz:7836.got - 2010.06.04 12:02:01.
