data_PCOD9330969
_publ_section_title
;
Structure prediction by ZEFSAII (Michael W. Deem and Ramdas Pophale) SiO2 
 PCOD9330969
Probable space group: I 2 2 2
;
_chemical_formula_sum "Si O2"
_cell_formula_units_Z 40
_cell_length_a 15.637155
_cell_length_b 7.722277
_cell_length_c 14.757775
_cell_angle_alpha 90.000000
_cell_angle_beta 90.000000
_cell_angle_gamma 90.000000
_cell_volume 1782.066891
_symmetry_space_group_name_H-M "I 2 2 2"
_symmetry_group_IT_number 23
_symmetry_cell_setting 'orthorhombic'
loop_
_space_group_symop_operation_xyz
x,y,z
-x,-y,z
x,-y,-z
-x,y,-z
1/2+x,1/2+y,1/2+z
1/2-x,1/2-y,1/2+z
1/2+x,1/2-y,1/2-z
1/2-x,1/2+y,1/2-z
loop_
_atom_site_type_symbol
_atom_site_label
_atom_site_fract_x
_atom_site_fract_y
_atom_site_fract_z
Si Si1 0.666337 0.000000 0.500000
Si Si2 0.100253 0.214449 0.497585
Si Si3 0.089281 0.155855 0.945775
Si Si4 0.351272 0.666794 0.197915
Si Si5 0.722982 0.303895 0.852575
Si Si6 0.000000 0.000000 0.780427
O O1 0.621159 0.149372 0.557449
O O2 0.716222 0.116155 0.429025
O O3 0.147345 0.254056 0.401633
O O4 0.151559 0.290187 0.584376
O O5 0.000000 0.261980 0.500000
O O6 0.102460 0.000000 0.500000
O O7 0.069096 0.084412 0.847497
O O8 0.000000 0.172367 0.000000
O O9 0.137689 0.000000 0.000000
O O10 0.326846 0.466955 0.186612
O O11 0.284191 0.732782 0.273143
O O12 0.450535 0.650947 0.227767
#
# Coordination Sequence:
#
# PCOD9330969 Si02
#       6
#     4   8   8   8   8   4
#     4  12  21  40  61  90 136 170 216 284 347 402
#     4   9  18  40  65  88 125 176 221 274 343 416
#     4   9  20  37  58  91 122 170 215 267 348 412
#     4  11  22  39  65  96 128 171 229 278 341 415
#     4  11  23  39  63  98 127 170 228 283 344 408
#     4  10  21  38  63  94 126 170 224 272 336 422
#
# _framework density 22.445846
#
# number of rings (size 3 to 8) (size 9 to 14) (size 15 to 20)
#    0.000    2.000    3.000    5.100    2.800    0.000 
#    0.000    1.000    0.000    1.200    0.000    0.000 
#    0.000    0.000    0.000    0.000    0.000    0.000 
#
# Total GULP energy -111376.190704 kJ/mol
# GULP energy per Si atom -5568.809535 kJ/mol
# Density = 2.239476 g / cm^3
# Si number density = 22.445846 Si / 1000 Ang^3
#
#
#
# Elastic Constant Matrix: (Units=GPa)
#
#
# Indices 1 2 3 4 5 6 
#
# 1 79.1303 13.2894 57.5378 0.0000 0.0000 0.0000
# 2 13.2894 52.7006 11.7127 0.0000 0.0000 0.0000
# 3 57.5378 11.7127 151.6355 0.0000 0.0000 0.0000
# 4 0.0000 0.0000 0.0000 19.5234 0.0000 0.0000
# 5 0.0000 0.0000 0.0000 0.0000 9.0614 0.0000
# 6 0.0000 0.0000 0.0000 0.0000 0.0000 41.9669
#
#
#
# Elastic Compliance Matrix: (Units=1/GPa)
#
#
# Indices 1 2 3 4 5 6 
#
# 1 0.017925 -0.003061 -0.006565 0.000000 0.000000 0.000000
# 2 -0.003061 0.019829 -0.000370 0.000000 0.000000 0.000000
# 3 -0.006565 -0.000370 0.009115 0.000000 0.000000 0.000000
# 4 0.000000 0.000000 0.000000 0.051220 0.000000 0.000000
# 5 0.000000 0.000000 0.000000 0.000000 0.110359 0.000000
# 6 0.000000 0.000000 0.000000 0.000000 0.000000 0.023828
#
#
# Mechanical properties :
#
#
# Convention : Reuss Voigt Hill
#
# Bulk Modulus (GPa) = 37.20774 49.83848 43.52311
# Shear Modulus (GPa) = 19.14037 27.50545 23.32291
#
# Velocity S-wave (km/s) = 2.92333 3.50439 3.22696
# Velocity P-wave (km/s) = 5.29218 6.21501 5.77207
#
# Compressibility (1/GPa) = 0.02687613
#
# Stress axis : x y z
#
# Youngs Moduli (GPa) = 55.78725 50.43053 109.71487
#
# Poissons Ratio (x) = 0.15437 0.72031
# Poissons Ratio (y) = 0.17077 0.04061
# Poissons Ratio (z) = 0.36626 0.01867
#
# Static dielectric constant tensor:
#      x y z
#    x 2.601460 0.000000 0.000000 
#    y 0.000000 1.986530 0.000000 
#    z 0.000000 0.000000 1.812000 
# 
# From -- ./inp_files/21370.got.cif
#   From: 2010.05.17/outbox.cif.g08.bks.cpg/sg23_11_cif.got.tgz:21370.got - 2010.06.04 12:02:01.
