data_PCOD9330735
_publ_section_title
;
Structure prediction by ZEFSAII (Michael W. Deem and Ramdas Pophale) SiO2 
 PCOD9330735
Probable space group: I 2 2 2
;
_chemical_formula_sum "Si O2"
_cell_formula_units_Z 38
_cell_length_a 11.984898
_cell_length_b 7.792899
_cell_length_c 16.796788
_cell_angle_alpha 90.000000
_cell_angle_beta 90.000000
_cell_angle_gamma 90.000000
_cell_volume 1568.771282
_symmetry_space_group_name_H-M "I 2 2 2"
_symmetry_group_IT_number 23
_symmetry_cell_setting 'orthorhombic'
loop_
_space_group_symop_operation_xyz
x,y,z
-x,-y,z
x,-y,-z
-x,y,-z
1/2+x,1/2+y,1/2+z
1/2-x,1/2-y,1/2+z
1/2+x,1/2-y,1/2-z
1/2-x,1/2+y,1/2-z
loop_
_atom_site_type_symbol
_atom_site_label
_atom_site_fract_x
_atom_site_fract_y
_atom_site_fract_z
Si Si1 0.720702 0.027538 0.240665
Si Si2 0.420233 0.161922 0.615629
Si Si3 0.565072 0.690729 0.249040
Si Si4 0.762533 0.500000 0.000000
Si Si5 0.880797 0.235674 0.613705
Si Si6 0.500000 0.000000 0.000000
O O1 0.669215 0.121312 0.316533
O O2 0.853115 0.027039 0.250581
O O3 0.703439 0.152442 0.166406
O O4 0.645850 0.857251 0.235624
O O5 0.503123 0.289353 0.664919
O O6 0.500000 0.000000 0.603145
O O7 0.342449 0.152822 0.536221
O O8 0.484797 0.696524 0.172343
O O9 0.683057 0.583251 0.932312
O O10 0.925565 0.371694 0.550645
#
# Coordination Sequence:
#
# PCOD9330735 Si02
#       6
#     8   8   8   4   8   2
#     4  10  20  42  67  96 135 191 226 281 352 433
#     4   9  20  39  63  97 141 178 221 293 346 409
#     4  10  21  44  71  98 140 184 236 286 356 430
#     4  12  25  41  70 108 138 178 250 294 358 422
#     4  11  24  43  65  99 141 185 231 296 351 423
#     4  12  24  46  64  88 150 180 212 296 368 402
#
# _framework density 24.222778000000002
#
# number of rings (size 3 to 8) (size 9 to 14) (size 15 to 20)
#    0.000    1.684    2.105    4.105    2.947    0.421 
#    3.789    3.158    0.000    5.053    0.000    1.474 
#    0.000    0.000    0.000    0.000    0.000    0.000 
#
# Total GULP energy -106005.379632 kJ/mol
# GULP energy per Si atom -5579.230507 kJ/mol
# Density = 2.416765 g / cm^3
# Si number density = 24.222778 Si / 1000 Ang^3
#
#
#
# Elastic Constant Matrix: (Units=GPa)
#
#
# Indices 1 2 3 4 5 6 
#
# 1 152.8984 59.5412 71.2315 0.0000 0.0000 0.0000
# 2 59.5412 93.9305 33.0237 0.0000 0.0000 0.0000
# 3 71.2315 33.0237 127.9263 0.0000 0.0000 0.0000
# 4 0.0000 0.0000 0.0000 33.9337 0.0000 0.0000
# 5 0.0000 0.0000 0.0000 0.0000 38.3372 0.0000
# 6 0.0000 0.0000 0.0000 0.0000 0.0000 62.6757
#
#
#
# Elastic Compliance Matrix: (Units=1/GPa)
#
#
# Indices 1 2 3 4 5 6 
#
# 1 0.010706 -0.005159 -0.004630 0.000000 0.000000 0.000000
# 2 -0.005159 0.014195 -0.000792 0.000000 0.000000 0.000000
# 3 -0.004630 -0.000792 0.010599 0.000000 0.000000 0.000000
# 4 0.000000 0.000000 0.000000 0.029469 0.000000 0.000000
# 5 0.000000 0.000000 0.000000 0.000000 0.026084 0.000000
# 6 0.000000 0.000000 0.000000 0.000000 0.000000 0.015955
#
#
# Mechanical properties :
#
#
# Convention : Reuss Voigt Hill
#
# Bulk Modulus (GPa) = 69.73702 78.03868 73.88785
# Shear Modulus (GPa) = 37.60852 41.05323 39.33087
#
# Velocity S-wave (km/s) = 3.94459 4.12128 4.03391
# Velocity P-wave (km/s) = 7.04264 7.41172 7.22954
#
# Compressibility (1/GPa) = 0.01433959
#
# Stress axis : x y z
#
# Youngs Moduli (GPa) = 93.40569 70.44937 94.34651
#
# Poissons Ratio (x) = 0.36343 0.43678
# Poissons Ratio (y) = 0.48185 0.07470
# Poissons Ratio (z) = 0.43243 0.05578
#
# Static dielectric constant tensor:
#      x y z
#    x 2.081760 0.000000 0.000000 
#    y 0.000000 1.995640 0.000000 
#    z 0.000000 0.000000 2.011940 
# 
# From -- ./inp_files/24194.got.cif
#   From: 2010.05.17/outbox.cif.g08.bks.cpg/sg23_13_cif.got.tgz:24194.got - 2010.06.04 12:02:01.
