data_PCOD9330234
_publ_section_title
;
Structure prediction by ZEFSAII (Michael W. Deem and Ramdas Pophale) SiO2 
 PCOD9330234
Probable space group: I 2 2 2
;
_chemical_formula_sum "Si O2"
_cell_formula_units_Z 60
_cell_length_a 21.797754
_cell_length_b 12.583674
_cell_length_c 11.447803
_cell_angle_alpha 90.000000
_cell_angle_beta 90.000000
_cell_angle_gamma 90.000000
_cell_volume 3140.084629
_symmetry_space_group_name_H-M "I 2 2 2"
_symmetry_group_IT_number 23
_symmetry_cell_setting 'orthorhombic'
loop_
_space_group_symop_operation_xyz
x,y,z
-x,-y,z
x,-y,-z
-x,y,-z
1/2+x,1/2+y,1/2+z
1/2-x,1/2-y,1/2+z
1/2+x,1/2-y,1/2-z
1/2-x,1/2+y,1/2-z
loop_
_atom_site_type_symbol
_atom_site_label
_atom_site_fract_x
_atom_site_fract_y
_atom_site_fract_z
Si Si1 0.750712 0.454690 0.760043
Si Si2 0.845032 0.210149 0.604865
Si Si3 0.934353 0.464138 0.866049
Si Si4 0.572373 0.873008 0.009742
Si Si5 0.848339 0.726085 0.153368
Si Si6 0.653082 0.877621 0.231051
Si Si7 0.293412 0.290871 0.409607
Si Si8 0.822775 0.000000 0.500000
O O1 0.797233 0.360617 0.803545
O O2 0.786521 0.553689 0.702215
O O3 0.710948 0.402677 0.657014
O O4 0.717417 0.487316 0.881181
O O5 0.891088 0.308267 0.587576
O O6 0.849150 0.188490 0.742865
O O7 0.776335 0.248194 0.572324
O O8 0.859399 0.108217 0.525685
O O9 0.910923 0.343068 0.858890
O O10 0.885804 0.537275 0.802472
O O11 0.000000 0.500000 0.815150
O O12 0.934288 0.500000 0.000000
O O13 0.609836 0.841206 0.125983
O O14 0.500000 0.850035 0.000000
O O15 0.579745 0.000000 0.000000
O O16 0.828030 0.777004 0.031617
O O17 0.673995 0.784873 0.315555
#
# Coordination Sequence:
#
# PCOD9330234 Si02
#       8
#     8   8   8   8   8   8   8   4
#     4  10  20  33  59  84 120 162 200 255 317 372
#     4  11  24  38  62  86 124 173 209 262 322 375
#     4  10  20  33  56  89 122 164 201 245 319 389
#     4  11  25  43  62  92 130 166 211 268 327 386
#     4  10  20  36  54  85 124 160 210 259 315 378
#     4  11  21  36  59  87 123 165 200 253 309 383
#     4  11  20  36  59  89 124 159 208 264 317 379
#     4  12  20  40  61  88 129 168 218 260 316 388
#
# _framework density 19.107765000000001
#
# number of rings (size 3 to 8) (size 9 to 14) (size 15 to 20)
#    0.000    1.333    4.000    3.200    7.467    0.000 
#    0.000    1.000    0.000    0.000    0.000    0.000 
#    0.000    0.267    0.000    0.000    0.000    0.000 
#
# Total GULP energy -167384.863800 kJ/mol
# GULP energy per Si atom -5579.495460 kJ/mol
# Density = 1.906428 g / cm^3
# Si number density = 19.107765 Si / 1000 Ang^3
#
#
#
# Elastic Constant Matrix: (Units=GPa)
#
#
# Indices 1 2 3 4 5 6 
#
# 1 90.1068 37.6187 44.6534 0.0000 0.0000 0.0000
# 2 37.6187 58.2417 37.4110 0.0000 0.0000 0.0000
# 3 44.6534 37.4110 94.6227 0.0000 0.0000 0.0000
# 4 0.0000 0.0000 0.0000 34.4047 0.0000 0.0000
# 5 0.0000 0.0000 0.0000 0.0000 23.3898 0.0000
# 6 0.0000 0.0000 0.0000 0.0000 0.0000 16.1369
#
#
#
# Elastic Compliance Matrix: (Units=1/GPa)
#
#
# Indices 1 2 3 4 5 6 
#
# 1 0.016705 -0.007676 -0.004849 0.000000 0.000000 0.000000
# 2 -0.007676 0.026541 -0.006872 0.000000 0.000000 0.000000
# 3 -0.004849 -0.006872 0.015573 0.000000 0.000000 0.000000
# 4 0.000000 0.000000 0.000000 0.029066 0.000000 0.000000
# 5 0.000000 0.000000 0.000000 0.000000 0.042754 0.000000
# 6 0.000000 0.000000 0.000000 0.000000 0.000000 0.061970
#
#
# Mechanical properties :
#
#
# Convention : Reuss Voigt Hill
#
# Bulk Modulus (GPa) = 49.92919 53.59306 51.76112
# Shear Modulus (GPa) = 21.00164 23.00547 22.00356
#
# Velocity S-wave (km/s) = 3.31889 3.47361 3.39713
# Velocity P-wave (km/s) = 6.39326 6.64806 6.52190
#
# Compressibility (1/GPa) = 0.02002837
#
# Stress axis : x y z
#
# Youngs Moduli (GPa) = 59.86147 37.67701 64.21266
#
# Poissons Ratio (x) = 0.28919 0.31135
# Poissons Ratio (y) = 0.45947 0.44124
# Poissons Ratio (z) = 0.29025 0.25890
#
# Static dielectric constant tensor:
#      x y z
#    x 1.705920 0.000000 0.000000 
#    y 0.000000 1.695920 0.000000 
#    z 0.000000 0.000000 1.788330 
# 
# From -- ./inp_files/18032.got.cif
#   From: 2010.05.17/outbox.cif.g08.bks.cpg/sg23_10_cif.got.tgz:18032.got - 2010.06.04 12:02:01.
