data_PCOD9330817
_publ_section_title
;
Structure prediction by ZEFSAII (Michael W. Deem and Ramdas Pophale) SiO2 
 PCOD9330817
Probable space group: I 2 2 2
;
_chemical_formula_sum "Si O2"
_cell_formula_units_Z 64
_cell_length_a 28.617683
_cell_length_b 9.014453
_cell_length_c 12.158304
_cell_angle_alpha 90.000000
_cell_angle_beta 90.000000
_cell_angle_gamma 90.000000
_cell_volume 3136.511220
_symmetry_space_group_name_H-M "I 2 2 2"
_symmetry_group_IT_number 23
_symmetry_cell_setting 'orthorhombic'
loop_
_space_group_symop_operation_xyz
x,y,z
-x,-y,z
x,-y,-z
-x,y,-z
1/2+x,1/2+y,1/2+z
1/2-x,1/2-y,1/2+z
1/2+x,1/2-y,1/2-z
1/2-x,1/2+y,1/2-z
loop_
_atom_site_type_symbol
_atom_site_label
_atom_site_fract_x
_atom_site_fract_y
_atom_site_fract_z
Si Si1 0.903616 0.195427 0.736653
Si Si2 0.752771 0.854042 0.944013
Si Si3 0.778619 0.879110 0.594895
Si Si4 0.919817 0.839450 0.735896
Si Si5 0.686854 0.898410 0.735654
Si Si6 0.670874 0.235832 0.703981
Si Si7 0.507864 0.679194 0.623071
Si Si8 0.554826 0.318723 0.002290
O O1 0.854243 0.274688 0.764636
O O2 0.942606 0.230317 0.828582
O O3 0.920259 0.237529 0.612941
O O4 0.908236 0.015424 0.733298
O O5 0.718990 0.877046 0.841921
O O6 0.794294 0.753934 0.897381
O O7 0.721293 0.776509 0.034254
O O8 0.772940 0.000000 0.000000
O O9 0.725235 0.895193 0.637449
O O10 0.810872 0.852994 0.701949
O O11 0.790664 0.000000 0.500000
O O12 0.881680 0.778211 0.819175
O O13 0.918569 0.779818 0.610824
O O14 0.969409 0.790427 0.783845
O O15 0.669377 0.066406 0.741047
O O16 0.500000 0.500000 0.615309
O O17 0.500000 0.737652 0.500000
O O18 0.554516 0.500000 0.000000
O O19 0.500000 0.274773 0.000000
#
# Coordination Sequence:
#
# PCOD9330817 Si02
#       8
#     8   8   8   8   8   8   8   8
#     4  10  21  35  62  91 119 165 212 261 319 376
#     4  11  24  43  65  88 127 170 207 257 320 378
#     4  11  24  43  66  86 126 170 209 257 318 379
#     4  10  21  35  60  91 121 158 217 262 317 379
#     4  11  25  41  60  94 127 164 211 261 322 386
#     4  11  25  41  61  95 128 161 212 260 312 396
#     4   9  18  37  58  88 124 162 210 270 314 371
#     4   9  16  32  58  85 118 152 202 263 313 365
#
# _framework density 20.404838000000002
#
# number of rings (size 3 to 8) (size 9 to 14) (size 15 to 20)
#    0.000    1.750    3.750    0.000    5.250    1.500 
#    2.250    0.625    0.000    1.500    0.000    0.000 
#    0.000    0.000    0.000    0.000    0.000    0.000 
#
# Total GULP energy -178200.874612 kJ/mol
# GULP energy per Si atom -5568.777332 kJ/mol
# Density = 2.035840 g / cm^3
# Si number density = 20.404838 Si / 1000 Ang^3
#
#
#
# Elastic Constant Matrix: (Units=GPa)
#
#
# Indices 1 2 3 4 5 6 
#
# 1 41.3383 7.0053 1.6280 0.0000 0.0000 0.0000
# 2 7.0053 32.1992 2.9112 0.0000 0.0000 0.0000
# 3 1.6280 2.9112 84.6317 0.0000 0.0000 0.0000
# 4 0.0000 0.0000 0.0000 20.7554 0.0000 0.0000
# 5 0.0000 0.0000 0.0000 0.0000 8.2189 0.0000
# 6 0.0000 0.0000 0.0000 0.0000 0.0000 17.6504
#
#
#
# Elastic Compliance Matrix: (Units=1/GPa)
#
#
# Indices 1 2 3 4 5 6 
#
# 1 0.025124 -0.005439 -0.000296 0.000000 0.000000 0.000000
# 2 -0.005439 0.032331 -0.001008 0.000000 0.000000 0.000000
# 3 -0.000296 -0.001008 0.011856 0.000000 0.000000 0.000000
# 4 0.000000 0.000000 0.000000 0.048180 0.000000 0.000000
# 5 0.000000 0.000000 0.000000 0.000000 0.121671 0.000000
# 6 0.000000 0.000000 0.000000 0.000000 0.000000 0.056656
#
#
# Mechanical properties :
#
#
# Convention : Reuss Voigt Hill
#
# Bulk Modulus (GPa) = 17.91297 20.13982 19.02639
# Shear Modulus (GPa) = 15.24797 19.09994 17.17395
#
# Velocity S-wave (km/s) = 2.73659 3.06281 2.90429
# Velocity P-wave (km/s) = 4.33395 4.73279 4.53775
#
# Compressibility (1/GPa) = 0.05582548
#
# Stress axis : x y z
#
# Youngs Moduli (GPa) = 39.80247 30.92997 84.34364
#
# Poissons Ratio (x) = 0.16824 0.02498
# Poissons Ratio (y) = 0.21650 0.08498
# Poissons Ratio (z) = 0.01179 0.03116
#
# Static dielectric constant tensor:
#      x y z
#    x 1.727190 0.000000 0.000000 
#    y 0.000000 1.757500 0.000000 
#    z 0.000000 0.000000 1.748930 
# 
# From -- ./inp_files/18823.got.cif
#   From: 2010.05.17/outbox.cif.g08.bks.cpg/sg23_10_cif.got.tgz:18823.got - 2010.06.04 12:02:01.
