data_PCOD9330288
_publ_section_title
;
Structure prediction by ZEFSAII (Michael W. Deem and Ramdas Pophale) SiO2 
 PCOD9330288
Probable space group: I 2 2 2
;
_chemical_formula_sum "Si O2"
_cell_formula_units_Z 34
_cell_length_a 13.745070
_cell_length_b 9.679830
_cell_length_c 10.869460
_cell_angle_alpha 90.000000
_cell_angle_beta 90.000000
_cell_angle_gamma 90.000000
_cell_volume 1446.181011
_symmetry_space_group_name_H-M "I 2 2 2"
_symmetry_group_IT_number 23
_symmetry_cell_setting 'orthorhombic'
loop_
_space_group_symop_operation_xyz
x,y,z
-x,-y,z
x,-y,-z
-x,y,-z
1/2+x,1/2+y,1/2+z
1/2-x,1/2-y,1/2+z
1/2+x,1/2-y,1/2-z
1/2-x,1/2+y,1/2-z
loop_
_atom_site_type_symbol
_atom_site_label
_atom_site_fract_x
_atom_site_fract_y
_atom_site_fract_z
Si Si1 0.000000 0.000000 0.000000
Si Si2 0.852485 0.507656 0.868115
Si Si3 0.354583 0.895340 0.890086
Si Si4 0.639147 0.681948 0.669616
Si Si5 0.857153 0.863960 0.439506
O O1 0.063803 0.893925 0.919069
O O2 0.898711 0.574471 0.745049
O O3 0.835046 0.345110 0.840582
O O4 0.755988 0.599252 0.902179
O O5 0.903855 0.500000 0.000000
O O6 0.239254 0.900618 0.858472
O O7 0.369277 0.750786 0.957184
O O8 0.379739 0.000000 0.000000
O O9 0.599340 0.669943 0.807965
O O10 0.896061 0.000000 0.500000
#
# Coordination Sequence:
#
# PCOD9330288 Si02
#       5
#     2   8   8   8   8
#     4  12  28  40  60  84 136 196 218 260 300 400
#     4  10  20  34  60  96 134 155 200 272 337 377
#     4  11  19  34  62  94 127 156 198 277 336 375
#     4  11  22  38  56  90 133 171 219 252 321 392
#     4  10  20  35  63 101 124 156 206 283 343 376
#
# _framework density 23.510197000000002
#
# number of rings (size 3 to 8) (size 9 to 14) (size 15 to 20)
#    0.000    1.412    8.235    0.000    0.000    1.882 
#    0.000    1.176    0.000    0.000    0.000    0.000 
#    0.000    0.000    0.000    0.000    0.000    0.000 
#
# Total GULP energy -94783.745693 kJ/mol
# GULP energy per Si atom -5575.514453 kJ/mol
# Density = 2.345669 g / cm^3
# Si number density = 23.510197 Si / 1000 Ang^3
#
#
#
# Elastic Constant Matrix: (Units=GPa)
#
#
# Indices 1 2 3 4 5 6 
#
# 1 66.8731 7.0009 23.3825 0.0000 0.0000 0.0000
# 2 7.0009 150.7798 81.6262 0.0000 0.0000 0.0000
# 3 23.3825 81.6262 268.6219 0.0000 0.0000 0.0000
# 4 0.0000 0.0000 0.0000 57.0371 0.0000 0.0000
# 5 0.0000 0.0000 0.0000 0.0000 -32.3196 0.0000
# 6 0.0000 0.0000 0.0000 0.0000 0.0000 -16.4222
#
#
#
# Elastic Compliance Matrix: (Units=1/GPa)
#
#
# Indices 1 2 3 4 5 6 
#
# 1 0.015423 0.000013 -0.001346 0.000000 0.000000 0.000000
# 2 0.000013 0.007938 -0.002413 0.000000 0.000000 0.000000
# 3 -0.001346 -0.002413 0.004573 0.000000 0.000000 0.000000
# 4 0.000000 0.000000 0.000000 0.017532 0.000000 0.000000
# 5 0.000000 0.000000 0.000000 0.000000 -0.030941 0.000000
# 6 0.000000 0.000000 0.000000 0.000000 0.000000 -0.060893
#
#
# Mechanical properties :
#
#
# Convention : Reuss Voigt Hill
#
# Bulk Modulus (GPa) = 48.92216 78.92155 63.92185
# Shear Modulus (GPa) = -155.95702 26.61008 -64.67347
#
# Velocity S-wave (km/s) = -8.15352 3.36795 -5.25056
# Velocity P-wave (km/s) = 8.23321 6.98327 3.08381
#
# Compressibility (1/GPa) = 0.02044064
#
# Stress axis : x y z
#
# Youngs Moduli (GPa) = 64.83766 125.97585 218.66451
#
# Poissons Ratio (x) = -0.00161 0.29441
# Poissons Ratio (y) = -0.00083 0.52769
# Poissons Ratio (z) = 0.08730 0.30401
#
# Static dielectric constant tensor:
#      x y z
#    x 1.919380 0.000000 0.000000 
#    y 0.000000 1.848420 0.000000 
#    z 0.000000 0.000000 1.912020 
# 
# From -- ./inp_files/10670.got.cif
#   From: 2010.05.17/outbox.cif.g08.bks.cpg/sg23_6_cif.got.tgz:10670.got - 2010.06.04 12:02:01.
