data_PCOD9330997
_publ_section_title
;
Structure prediction by ZEFSAII (Michael W. Deem and Ramdas Pophale) SiO2 
 PCOD9330997
Probable space group: I 2 2 2
;
_chemical_formula_sum "Si O2"
_cell_formula_units_Z 58
_cell_length_a 26.566395
_cell_length_b 8.515782
_cell_length_c 12.526722
_cell_angle_alpha 90.000000
_cell_angle_beta 90.000000
_cell_angle_gamma 90.000000
_cell_volume 2833.965769
_symmetry_space_group_name_H-M "I 2 2 2"
_symmetry_group_IT_number 23
_symmetry_cell_setting 'orthorhombic'
loop_
_space_group_symop_operation_xyz
x,y,z
-x,-y,z
x,-y,-z
-x,y,-z
1/2+x,1/2+y,1/2+z
1/2-x,1/2-y,1/2+z
1/2+x,1/2-y,1/2-z
1/2-x,1/2+y,1/2-z
loop_
_atom_site_type_symbol
_atom_site_label
_atom_site_fract_x
_atom_site_fract_y
_atom_site_fract_z
Si Si1 0.567804 0.165870 0.826378
Si Si2 0.363016 0.335455 0.598278
Si Si3 0.000000 0.500000 0.500000
Si Si4 0.705855 0.100707 0.711858
Si Si5 0.389312 0.300762 0.372201
Si Si6 0.257057 0.207628 0.612662
Si Si7 0.132121 0.626344 0.693392
Si Si8 0.148432 0.184219 0.518571
O O1 0.527521 0.122789 0.918145
O O2 0.566314 0.255879 0.711580
O O3 0.612538 0.259424 0.886255
O O4 0.586025 0.991353 0.798867
O O5 0.396686 0.275783 0.499144
O O6 0.374327 0.515243 0.628057
O O7 0.304682 0.301821 0.566722
O O8 0.368997 0.235161 0.704158
O O9 0.659365 0.197739 0.662703
O O10 0.744229 0.214895 0.771693
O O11 0.729999 0.976501 0.630001
O O12 0.680958 0.985070 0.799576
O O13 0.206275 0.220172 0.545854
O O14 0.132199 0.722046 0.585681
O O15 0.142878 0.000000 0.500000
#
# Coordination Sequence:
#
# PCOD9330997 Si02
#       8
#     8   8   2   8   8   8   8   8
#     4  11  23  45  70  95 128 160 213 276 357 411
#     4  10  23  37  62  90 134 189 230 259 303 378
#     4  12  24  48  78 106 124 152 210 292 366 448
#     4  10  22  34  52  77 125 172 234 277 312 357
#     4  10  21  42  59  90 132 179 223 274 324 381
#     4  11  23  33  53  89 127 187 235 276 302 371
#     4  10  21  39  59  85 125 171 216 267 329 391
#     4  12  24  37  60  90 134 177 220 275 334 379
#
# _framework density 20.466018999999999
#
# number of rings (size 3 to 8) (size 9 to 14) (size 15 to 20)
#    0.000    1.379    4.138    1.655    5.793    6.621 
#    0.000    0.345    0.000    1.655    0.000    1.931 
#    0.000    0.000    0.000    0.000    0.000    0.000 
#
# Total GULP energy -161745.476768 kJ/mol
# GULP energy per Si atom -5577.430233 kJ/mol
# Density = 2.041944 g / cm^3
# Si number density = 20.466019 Si / 1000 Ang^3
#
#
#
# Elastic Constant Matrix: (Units=GPa)
#
#
# Indices 1 2 3 4 5 6 
#
# 1 8.8545 -7.2411 -8.0183 0.0000 0.0000 0.0000
# 2 -7.2411 89.6459 27.6568 0.0000 0.0000 0.0000
# 3 -8.0183 27.6568 74.8300 0.0000 0.0000 0.0000
# 4 0.0000 0.0000 0.0000 29.6220 0.0000 0.0000
# 5 0.0000 0.0000 0.0000 0.0000 30.8314 0.0000
# 6 0.0000 0.0000 0.0000 0.0000 0.0000 5.9807
#
#
#
# Elastic Compliance Matrix: (Units=1/GPa)
#
#
# Indices 1 2 3 4 5 6 
#
# 1 0.128785 0.006936 0.011236 0.000000 0.000000 0.000000
# 2 0.006936 0.012964 -0.004048 0.000000 0.000000 0.000000
# 3 0.011236 -0.004048 0.016064 0.000000 0.000000 0.000000
# 4 0.000000 0.000000 0.000000 0.033759 0.000000 0.000000
# 5 0.000000 0.000000 0.000000 0.000000 0.032434 0.000000
# 6 0.000000 0.000000 0.000000 0.000000 0.000000 0.167205
#
#
# Mechanical properties :
#
#
# Convention : Reuss Voigt Hill
#
# Bulk Modulus (GPa) = 5.37460 22.01392 13.69426
# Shear Modulus (GPa) = 11.76516 24.01568 17.89042
#
# Velocity S-wave (km/s) = 2.40023 3.42927 2.95981
# Velocity P-wave (km/s) = 3.21143 5.14388 4.28794
#
# Compressibility (1/GPa) = 0.18606038
#
# Stress axis : x y z
#
# Youngs Moduli (GPa) = 7.76490 77.13547 62.25157
#
# Poissons Ratio (x) = -0.53501 -0.69947
# Poissons Ratio (y) = -0.05386 0.25201
# Poissons Ratio (z) = -0.08725 0.31227
#
# Static dielectric constant tensor:
#      x y z
#    x 1.754710 0.000000 0.000000 
#    y 0.000000 1.726460 0.000000 
#    z 0.000000 0.000000 1.847200 
# 
# From -- ./inp_files/18639.got.cif
#   From: 2010.05.17/outbox.cif.g08.bks.cpg/sg23_10_cif.got.tgz:18639.got - 2010.06.04 12:02:01.
