data_PCOD9330228
_publ_section_title
;
Structure prediction by ZEFSAII (Michael W. Deem and Ramdas Pophale) SiO2 
 PCOD9330228
Probable space group: I 2 2 2
;
_chemical_formula_sum "Si O2"
_cell_formula_units_Z 56
_cell_length_a 14.534855
_cell_length_b 25.140525
_cell_length_c 8.730292
_cell_angle_alpha 90.000000
_cell_angle_beta 90.000000
_cell_angle_gamma 90.000000
_cell_volume 3190.169921
_symmetry_space_group_name_H-M "I 2 2 2"
_symmetry_group_IT_number 23
_symmetry_cell_setting 'orthorhombic'
loop_
_space_group_symop_operation_xyz
x,y,z
-x,-y,z
x,-y,-z
-x,y,-z
1/2+x,1/2+y,1/2+z
1/2-x,1/2-y,1/2+z
1/2+x,1/2-y,1/2-z
1/2-x,1/2+y,1/2-z
loop_
_atom_site_type_symbol
_atom_site_label
_atom_site_fract_x
_atom_site_fract_y
_atom_site_fract_z
Si Si1 0.504799 0.676951 0.169275
Si Si2 0.176920 0.107362 0.323811
Si Si3 0.311038 0.608822 0.821781
Si Si4 0.891634 0.999039 0.816128
Si Si5 0.790478 0.296656 0.319143
Si Si6 0.817098 0.694682 0.318931
Si Si7 0.492165 0.783522 0.677130
O O1 0.423834 0.634368 0.171340
O O2 0.601209 0.647960 0.185779
O O3 0.493399 0.720313 0.299654
O O4 0.500000 0.703536 0.000000
O O5 0.210558 0.101473 0.498583
O O6 0.239843 0.149571 0.234664
O O7 0.161459 0.050578 0.246436
O O8 0.342833 0.553716 0.747265
O O9 0.231543 0.640547 0.735096
O O10 0.000000 0.000000 0.767778
O O11 0.890240 0.000000 0.000000
O O12 0.802349 0.295992 0.501405
O O13 0.731204 0.245153 0.266163
O O14 0.890929 0.294699 0.241798
O O15 0.923873 0.692035 0.272822
O O16 0.500000 0.798369 0.500000
#
# Coordination Sequence:
#
# PCOD9330228 Si02
#       7
#     8   8   8   8   8   8   8
#     4  10  20  33  55  84 120 157 196 240 289 345
#     4  11  22  38  59  85 119 158 200 243 294 352
#     4  11  22  38  59  85 119 158 200 243 294 352
#     4  11  23  37  57  86 121 158 199 243 295 352
#     4  12  24  39  59  86 120 157 198 244 297 353
#     4  12  24  39  59  86 120 157 198 244 297 353
#     4  12  24  38  59  86 119 158 199 242 295 353
#
# _framework density 17.553925
#
# number of rings (size 3 to 8) (size 9 to 14) (size 15 to 20)
#    0.000    0.714    4.286    5.143    0.000    1.714 
#    0.000    0.000    0.000    0.857    0.000    6.000 
#    0.000    0.000    0.000    0.000    0.000    0.000 
#
# Total GULP energy -156505.038526 kJ/mol
# GULP energy per Si atom -5589.465662 kJ/mol
# Density = 1.751397 g / cm^3
# Si number density = 17.553925 Si / 1000 Ang^3
#
#
#
# Elastic Constant Matrix: (Units=GPa)
#
#
# Indices 1 2 3 4 5 6 
#
# 1 57.7390 9.8026 -3.8602 -0.0001 -0.0001 0.0001
# 2 9.8026 88.9258 13.6583 -0.0006 -0.0001 0.0000
# 3 -3.8602 13.6583 87.8140 -0.0027 0.0008 0.0012
# 4 -0.0001 -0.0006 -0.0027 31.5596 0.0003 0.0003
# 5 -0.0001 -0.0001 0.0008 0.0003 25.6597 -0.0001
# 6 0.0001 0.0000 0.0012 0.0003 -0.0001 28.7014
#
#
#
# Elastic Compliance Matrix: (Units=1/GPa)
#
#
# Indices 1 2 3 4 5 6 
#
# 1 0.017755 -0.002128 0.001111 0.000000 0.000000 0.000000
# 2 -0.002128 0.011776 -0.001925 0.000000 0.000000 0.000000
# 3 0.001111 -0.001925 0.011736 0.000001 0.000000 0.000000
# 4 0.000000 0.000000 0.000001 0.031686 0.000000 0.000000
# 5 0.000000 0.000000 0.000000 0.000000 0.038972 0.000000
# 6 0.000000 0.000000 0.000000 0.000000 0.000000 0.034842
#
#
# Mechanical properties :
#
#
# Convention : Reuss Voigt Hill
#
# Bulk Modulus (GPa) = 28.26184 30.40891 29.33537
# Shear Modulus (GPa) = 30.40565 31.50935 30.95750
#
# Velocity S-wave (km/s) = 4.16640 4.24134 4.20404
# Velocity P-wave (km/s) = 6.26739 6.43009 6.34926
#
# Compressibility (1/GPa) = 0.03538340
#
# Stress axis : x y z
#
# Youngs Moduli (GPa) = 56.32252 84.92154 85.20803
#
# Poissons Ratio (x) = 0.18070 -0.09470
# Poissons Ratio (y) = 0.11985 0.16403
# Poissons Ratio (z) = -0.06260 0.16348
#
# Static dielectric constant tensor:
#      x y z
#    x 1.594830 0.000000 0.000000 
#    y 0.000000 1.571600 0.000000 
#    z 0.000000 0.000000 1.613940 
# 
# From -- ./inp_files/10244.got.cif
#   From: 2010.05.17/outbox.cif.g08.bks.cpg/sg23_6_cif.got.tgz:10244.got - 2010.06.04 12:02:01.
