data_PCOD9330006
_publ_section_title
;
Structure prediction by ZEFSAII (Michael W. Deem and Ramdas Pophale) SiO2 
 PCOD9330006
Probable space group: I 2 2 2
;
_chemical_formula_sum "Si O2"
_cell_formula_units_Z 64
_cell_length_a 15.111462
_cell_length_b 24.347640
_cell_length_c 9.414915
_cell_angle_alpha 90.000000
_cell_angle_beta 90.000000
_cell_angle_gamma 90.000000
_cell_volume 3464.014957
_symmetry_space_group_name_H-M "I 2 2 2"
_symmetry_group_IT_number 23
_symmetry_cell_setting 'orthorhombic'
loop_
_space_group_symop_operation_xyz
x,y,z
-x,-y,z
x,-y,-z
-x,y,-z
1/2+x,1/2+y,1/2+z
1/2-x,1/2-y,1/2+z
1/2+x,1/2-y,1/2-z
1/2-x,1/2+y,1/2-z
loop_
_atom_site_type_symbol
_atom_site_label
_atom_site_fract_x
_atom_site_fract_y
_atom_site_fract_z
Si Si1 0.309136 0.185245 0.784943
Si Si2 0.087931 0.058511 0.077176
Si Si3 0.449168 0.732248 0.861448
Si Si4 0.308799 0.795090 0.694803
Si Si5 0.067793 0.238125 0.126447
Si Si6 0.910203 0.058435 0.578421
Si Si7 0.708445 0.348753 0.954989
Si Si8 0.777639 0.846446 0.057915
O O1 0.249959 0.240651 0.783655
O O2 0.397356 0.208126 0.711583
O O3 0.256828 0.139960 0.693384
O O4 0.299534 0.165857 0.945440
O O5 0.078577 0.053704 0.249794
O O6 0.169289 0.097871 0.041092
O O7 0.000000 0.082272 0.000000
O O8 0.100053 0.000000 0.000000
O O9 0.401718 0.777377 0.761565
O O10 0.518441 0.704118 0.752353
O O11 0.373673 0.691847 0.921170
O O12 0.500000 0.753510 0.000000
O O13 0.285368 0.815846 0.539002
O O14 0.268028 0.842497 0.790996
O O15 0.147168 0.201750 0.060090
O O16 0.000000 0.249891 0.000000
O O17 0.832289 0.100283 0.537642
O O18 0.000000 0.079183 0.500000
O O19 0.893882 0.000000 0.500000
#
# Coordination Sequence:
#
# PCOD9330006 Si02
#       8
#     8   8   8   8   8   8   8   8
#     4  10  21  32  53  75 109 146 180 224 262 323
#     4  11  24  39  56  78 110 142 185 234 272 317
#     4  11  21  32  55  79 112 147 186 224 264 329
#     4  10  19  36  49  76 109 144 184 222 269 315
#     4  11  21  35  52  82 111 149 189 225 267 322
#     4  11  24  38  57  79 109 141 187 234 271 315
#     4  11  21  35  55  75 108 151 183 219 270 325
#     4  11  21  35  54  75 110 151 186 214 275 324
#
# _framework density 18.475670999999998
#
# number of rings (size 3 to 8) (size 9 to 14) (size 15 to 20)
#    0.000    1.250    1.250    9.000    5.250    0.000 
#    0.000    0.000    0.000    0.000    0.000    0.000 
#    0.000   15.000    0.000    0.000    0.000    0.000 
#
# Total GULP energy -178336.824808 kJ/mol
# GULP energy per Si atom -5573.025775 kJ/mol
# Density = 1.843362 g / cm^3
# Si number density = 18.475671 Si / 1000 Ang^3
#
#
#
# Elastic Constant Matrix: (Units=GPa)
#
#
# Indices 1 2 3 4 5 6 
#
# 1 49.0340 11.6015 26.5335 0.0000 -0.0001 0.0000
# 2 11.6015 42.4881 18.4619 0.0000 0.0000 0.0000
# 3 26.5335 18.4619 122.8432 0.0000 0.0000 0.0002
# 4 0.0000 0.0000 0.0000 21.8799 0.0000 0.0000
# 5 -0.0001 0.0000 0.0000 0.0000 41.3527 0.0000
# 6 0.0000 0.0000 0.0002 0.0000 0.0000 27.6897
#
#
#
# Elastic Compliance Matrix: (Units=1/GPa)
#
#
# Indices 1 2 3 4 5 6 
#
# 1 0.023899 -0.004582 -0.004473 0.000000 0.000000 0.000000
# 2 -0.004582 0.026059 -0.002927 0.000000 0.000000 0.000000
# 3 -0.004473 -0.002927 0.009547 0.000000 0.000000 0.000000
# 4 0.000000 0.000000 0.000000 0.045704 0.000000 0.000000
# 5 0.000000 0.000000 0.000000 0.000000 0.024182 0.000000
# 6 0.000000 0.000000 0.000000 0.000000 0.000000 0.036114
#
#
# Mechanical properties :
#
#
# Convention : Reuss Voigt Hill
#
# Bulk Modulus (GPa) = 28.13714 36.39546 32.26630
# Shear Modulus (GPa) = 24.83666 28.70235 26.76951
#
# Velocity S-wave (km/s) = 3.67043 3.94575 3.81058
# Velocity P-wave (km/s) = 5.76412 6.36400 6.07147
#
# Compressibility (1/GPa) = 0.03554021
#
# Stress axis : x y z
#
# Youngs Moduli (GPa) = 41.84322 38.37485 104.75000
#
# Poissons Ratio (x) = 0.17583 0.46859
# Poissons Ratio (y) = 0.19172 0.30657
# Poissons Ratio (z) = 0.18718 0.11231
#
# Static dielectric constant tensor:
#      x y z
#    x 1.718780 0.000000 0.000000 
#    y 0.000000 1.625630 0.000000 
#    z 0.000000 0.000000 1.700140 
# 
# From -- ./inp_files/11493.got.cif
#   From: 2010.05.17/outbox.cif.g08.bks.cpg/sg23_6_cif.got.tgz:11493.got - 2010.06.04 12:02:01.
