data_PCOD9330426
_publ_section_title
;
Structure prediction by ZEFSAII (Michael W. Deem and Ramdas Pophale) SiO2 
 PCOD9330426
Probable space group: I 2 2 2
;
_chemical_formula_sum "Si O2"
_cell_formula_units_Z 64
_cell_length_a 9.213596
_cell_length_b 17.774879
_cell_length_c 19.503895
_cell_angle_alpha 90.000000
_cell_angle_beta 90.000000
_cell_angle_gamma 90.000000
_cell_volume 3194.163690
_symmetry_space_group_name_H-M "I 2 2 2"
_symmetry_group_IT_number 23
_symmetry_cell_setting 'orthorhombic'
loop_
_space_group_symop_operation_xyz
x,y,z
-x,-y,z
x,-y,-z
-x,y,-z
1/2+x,1/2+y,1/2+z
1/2-x,1/2-y,1/2+z
1/2+x,1/2-y,1/2-z
1/2-x,1/2+y,1/2-z
loop_
_atom_site_type_symbol
_atom_site_label
_atom_site_fract_x
_atom_site_fract_y
_atom_site_fract_z
Si Si1 0.961966 0.233127 0.075301
Si Si2 0.382471 0.940842 0.691189
Si Si3 0.366128 0.544335 0.812592
Si Si4 0.217825 0.655228 0.919924
Si Si5 0.905302 0.174175 0.217034
Si Si6 0.053987 0.679587 0.716452
Si Si7 0.275909 0.652580 0.073075
Si Si8 0.025463 0.741416 0.422162
O O1 0.057348 0.309847 0.086796
O O2 0.963348 0.178128 0.139443
O O3 0.800409 0.265780 0.073551
O O4 0.000000 0.203552 0.000000
O O5 0.471113 0.886689 0.742603
O O6 0.297368 0.896435 0.631552
O O7 0.500000 0.000000 0.662367
O O8 0.251961 0.990009 0.722949
O O9 0.500000 0.500000 0.846948
O O10 0.273255 0.595261 0.865273
O O11 0.438951 0.598442 0.757048
O O12 0.310617 0.731762 0.912383
O O13 0.246350 0.623588 0.996365
O O14 0.983808 0.244023 0.253689
O O15 0.729053 0.181190 0.223241
O O16 0.019016 0.683137 0.635793
O O17 0.440246 0.678038 0.085531
O O18 0.000000 0.716337 0.500000
#
# Coordination Sequence:
#
# PCOD9330426 Si02
#       8
#     8   8   8   8   8   8   8   8
#     4  10  20  37  66  96 123 156 212 271 318 366
#     4  12  24  40  60  92 131 172 210 257 311 377
#     4  12  26  40  60  92 134 169 214 256 316 379
#     4  10  21  39  59  92 127 168 207 254 305 387
#     4  12  24  41  67  94 123 169 216 267 314 378
#     4  12  23  40  68  92 125 168 219 265 319 372
#     4  10  20  38  61  86 130 168 209 249 310 373
#     4  10  20  36  63  96 123 156 210 270 317 365
#
# _framework density 20.036543999999999
#
# number of rings (size 3 to 8) (size 9 to 14) (size 15 to 20)
#    0.000    1.000    5.000    2.250    1.750    0.500 
#    0.000    1.250    0.000    0.750    0.000    0.000 
#    0.000    0.000    0.000    0.000    0.000    0.000 
#
# Total GULP energy -178596.080994 kJ/mol
# GULP energy per Si atom -5581.127531 kJ/mol
# Density = 1.999094 g / cm^3
# Si number density = 20.036544 Si / 1000 Ang^3
#
#
#
# Elastic Constant Matrix: (Units=GPa)
#
#
# Indices 1 2 3 4 5 6 
#
# 1 67.1956 9.4755 13.3461 0.0000 0.0000 0.0000
# 2 9.4755 49.2758 46.8321 0.0000 0.0000 0.0000
# 3 13.3461 46.8321 146.7331 0.0000 0.0000 0.0000
# 4 0.0000 0.0000 0.0000 13.3625 0.0000 0.0000
# 5 0.0000 0.0000 0.0000 0.0000 29.9857 0.0000
# 6 0.0000 0.0000 0.0000 0.0000 0.0000 23.7084
#
#
#
# Elastic Compliance Matrix: (Units=1/GPa)
#
#
# Indices 1 2 3 4 5 6 
#
# 1 0.015340 -0.002331 -0.000651 0.000000 0.000000 0.000000
# 2 -0.002331 0.029484 -0.009198 0.000000 0.000000 0.000000
# 3 -0.000651 -0.009198 0.009810 0.000000 0.000000 0.000000
# 4 0.000000 0.000000 0.000000 0.074836 0.000000 0.000000
# 5 0.000000 0.000000 0.000000 0.000000 0.033349 0.000000
# 6 0.000000 0.000000 0.000000 0.000000 0.000000 0.042179
#
#
# Mechanical properties :
#
#
# Convention : Reuss Voigt Hill
#
# Bulk Modulus (GPa) = 33.03220 44.72356 38.87788
# Shear Modulus (GPa) = 20.88109 26.31471 23.59790
#
# Velocity S-wave (km/s) = 3.23174 3.62793 3.43555
# Velocity P-wave (km/s) = 5.51790 6.31812 5.93152
#
# Compressibility (1/GPa) = 0.03027350
#
# Stress axis : x y z
#
# Youngs Moduli (GPa) = 65.18919 33.91626 101.93529
#
# Poissons Ratio (x) = 0.07905 0.06640
# Poissons Ratio (y) = 0.15194 0.93764
# Poissons Ratio (z) = 0.04246 0.31198
#
# Static dielectric constant tensor:
#      x y z
#    x 1.726050 0.000000 0.000000 
#    y 0.000000 1.698130 0.000000 
#    z 0.000000 0.000000 1.763740 
# 
# From -- ./inp_files/26411.got.cif
#   From: 2010.05.17/outbox.cif.g08.bks.cpg/sg23_14_cif.got.tgz:26411.got - 2010.06.04 12:02:01.
