data_PCOD9330103
_publ_section_title
;
Structure prediction by ZEFSAII (Michael W. Deem and Ramdas Pophale) SiO2 
 PCOD9330103
Probable space group: I 2 2 2
;
_chemical_formula_sum "Si O2"
_cell_formula_units_Z 48
_cell_length_a 16.379162
_cell_length_b 15.911659
_cell_length_c 9.060526
_cell_angle_alpha 90.000000
_cell_angle_beta 90.000000
_cell_angle_gamma 90.000000
_cell_volume 2361.351028
_symmetry_space_group_name_H-M "I 2 2 2"
_symmetry_group_IT_number 23
_symmetry_cell_setting 'orthorhombic'
loop_
_space_group_symop_operation_xyz
x,y,z
-x,-y,z
x,-y,-z
-x,y,-z
1/2+x,1/2+y,1/2+z
1/2-x,1/2-y,1/2+z
1/2+x,1/2-y,1/2-z
1/2-x,1/2+y,1/2-z
loop_
_atom_site_type_symbol
_atom_site_label
_atom_site_fract_x
_atom_site_fract_y
_atom_site_fract_z
Si Si1 0.288287 0.100594 0.238392
Si Si2 0.907501 0.839667 0.963907
Si Si3 0.152010 0.152683 0.638493
Si Si4 0.292903 0.500000 0.500000
Si Si5 0.766669 0.000000 0.500000
Si Si6 0.405846 0.190887 0.999605
Si Si7 0.321554 0.761679 0.293020
O O1 0.357337 0.145243 0.134931
O O2 0.218231 0.172243 0.256993
O O3 0.291397 0.059330 0.399948
O O4 0.262101 0.020768 0.139607
O O5 0.892946 0.826046 0.791565
O O6 0.848721 0.918497 0.990306
O O7 0.879912 0.763851 0.071041
O O8 0.000000 0.860839 0.000000
O O9 0.101726 0.208635 0.524262
O O10 0.243002 0.189681 0.649249
O O11 0.170481 0.057270 0.595750
O O12 0.500000 0.164613 0.000000
O O13 0.362017 0.185203 0.839660
#
# Coordination Sequence:
#
# PCOD9330103 Si02
#       7
#     8   8   8   4   4   8   8
#     4  10  22  38  67  93 123 178 226 272 325 407
#     4  11  22  36  60  94 130 167 214 280 340 390
#     4  11  22  40  65  93 129 175 221 271 329 411
#     4  10  19  38  59  88 128 168 220 264 333 402
#     4  12  22  40  67 101 130 168 232 278 318 404
#     4  11  23  41  64  97 132 172 221 284 337 387
#     4  10  21  40  63  92 124 174 230 269 319 414
#
# _framework density 20.327345999999999
#
# number of rings (size 3 to 8) (size 9 to 14) (size 15 to 20)
#    0.000    1.333    3.333    4.250    2.333    0.000 
#    0.000    0.833    0.000    1.000    0.000    0.000 
#    0.000    0.000    0.000    0.000    0.000    0.000 
#
# Total GULP energy -133694.752483 kJ/mol
# GULP energy per Si atom -5570.614687 kJ/mol
# Density = 2.028108 g / cm^3
# Si number density = 20.327346 Si / 1000 Ang^3
#
#
#
# Elastic Constant Matrix: (Units=GPa)
#
#
# Indices 1 2 3 4 5 6 
#
# 1 87.6119 15.7393 34.9741 0.0000 0.0000 0.0000
# 2 15.7393 63.7287 29.7862 0.0000 0.0000 0.0000
# 3 34.9741 29.7862 93.8645 0.0000 0.0000 0.0000
# 4 0.0000 0.0000 0.0000 24.7833 0.0000 0.0000
# 5 0.0000 0.0000 0.0000 0.0000 33.6355 0.0000
# 6 0.0000 0.0000 0.0000 0.0000 0.0000 14.2331
#
#
#
# Elastic Compliance Matrix: (Units=1/GPa)
#
#
# Indices 1 2 3 4 5 6 
#
# 1 0.013480 -0.001153 -0.004657 0.000000 0.000000 0.000000
# 2 -0.001153 0.018523 -0.005448 0.000000 0.000000 0.000000
# 3 -0.004657 -0.005448 0.014118 0.000000 0.000000 0.000000
# 4 0.000000 0.000000 0.000000 0.040350 0.000000 0.000000
# 5 0.000000 0.000000 0.000000 0.000000 0.029731 0.000000
# 6 0.000000 0.000000 0.000000 0.000000 0.000000 0.070259
#
#
# Mechanical properties :
#
#
# Convention : Reuss Voigt Hill
#
# Bulk Modulus (GPa) = 42.36443 45.13380 43.74912
# Shear Modulus (GPa) = 23.05809 25.51075 24.28442
#
# Velocity S-wave (km/s) = 3.37165 3.54644 3.46015
# Velocity P-wave (km/s) = 6.00364 6.24670 6.12638
#
# Compressibility (1/GPa) = 0.02360471
#
# Stress axis : x y z
#
# Youngs Moduli (GPa) = 74.18371 53.98780 70.83271
#
# Poissons Ratio (x) = 0.06223 0.32986
# Poissons Ratio (y) = 0.08550 0.38592
# Poissons Ratio (z) = 0.34547 0.29415
#
# Static dielectric constant tensor:
#      x y z
#    x 1.710580 0.000000 0.000000 
#    y 0.000000 1.735820 0.000000 
#    z 0.000000 0.000000 1.854130 
# 
# From -- ./inp_files/9996.got.cif
#   From: 2010.05.17/outbox.cif.g08.bks.cpg/sg23_5_cif.got.tgz:9996.got - 2010.06.04 12:02:01.
