data_PCOD9330040
_publ_section_title
;
Structure prediction by ZEFSAII (Michael W. Deem and Ramdas Pophale) SiO2 
 PCOD9330040
Probable space group: I 2 2 2
;
_chemical_formula_sum "Si O2"
_cell_formula_units_Z 64
_cell_length_a 14.501714
_cell_length_b 8.405704
_cell_length_c 23.254141
_cell_angle_alpha 90.000000
_cell_angle_beta 90.000000
_cell_angle_gamma 90.000000
_cell_volume 2834.612708
_symmetry_space_group_name_H-M "I 2 2 2"
_symmetry_group_IT_number 23
_symmetry_cell_setting 'orthorhombic'
loop_
_space_group_symop_operation_xyz
x,y,z
-x,-y,z
x,-y,-z
-x,y,-z
1/2+x,1/2+y,1/2+z
1/2-x,1/2-y,1/2+z
1/2+x,1/2-y,1/2-z
1/2-x,1/2+y,1/2-z
loop_
_atom_site_type_symbol
_atom_site_label
_atom_site_fract_x
_atom_site_fract_y
_atom_site_fract_z
Si Si1 0.969421 0.820095 0.365493
Si Si2 0.775070 0.041766 0.637744
Si Si3 0.978515 0.190485 0.759018
Si Si4 0.246322 0.844719 0.468931
Si Si5 0.227875 0.935036 0.887123
Si Si6 0.863129 0.226440 0.162587
Si Si7 0.264246 0.229409 0.723613
Si Si8 0.383073 0.130103 0.953358
O O1 0.860191 0.842006 0.353894
O O2 0.969297 0.703104 0.419018
O O3 0.011459 0.761087 0.305337
O O4 0.000000 0.000000 0.377446
O O5 0.682312 0.137914 0.623657
O O6 0.801804 0.923438 0.586584
O O7 0.754687 0.940434 0.694281
O O8 0.037391 0.259585 0.811323
O O9 0.872522 0.238492 0.766060
O O10 0.000000 0.000000 0.760113
O O11 0.297175 0.696320 0.436432
O O12 0.174609 0.768344 0.513813
O O13 0.291209 0.000000 0.500000
O O14 0.259159 0.852469 0.827660
O O15 0.147430 0.058156 0.869442
O O16 0.311468 0.039824 0.911460
O O17 0.796637 0.228518 0.219084
O O18 0.405774 0.000000 0.000000
#
# Coordination Sequence:
#
# PCOD9330040 Si02
#       8
#     8   8   8   8   8   8   8   8
#     4  11  21  38  63  97 136 182 228 271 335 423
#     4  11  22  37  62  93 129 175 222 275 336 404
#     4  11  22  37  62  95 133 182 223 266 341 422
#     4  10  19  36  63  96 125 167 233 268 339 408
#     4  10  20  34  62  93 129 170 215 281 330 400
#     4  12  21  38  62  94 133 177 221 282 342 402
#     4  11  21  37  59  93 134 173 224 277 342 413
#     4  10  20  39  66  99 131 169 232 287 341 401
#
# _framework density 22.578039
#
# number of rings (size 3 to 8) (size 9 to 14) (size 15 to 20)
#    0.000    1.250    5.000    2.250    0.000    0.500 
#    0.000    1.250    0.000   16.500    3.250   67.375 
#    0.000    0.000    0.000    0.000    0.000    0.000 
#
# Total GULP energy -178647.687641 kJ/mol
# GULP energy per Si atom -5582.740239 kJ/mol
# Density = 2.252665 g / cm^3
# Si number density = 22.578039 Si / 1000 Ang^3
#
#
#
# Elastic Constant Matrix: (Units=GPa)
#
#
# Indices 1 2 3 4 5 6 
#
# 1 68.1268 8.9751 27.9806 0.0000 0.0000 0.0000
# 2 8.9751 90.8555 49.4235 0.0000 0.0000 0.0000
# 3 27.9806 49.4235 105.9651 0.0000 0.0000 0.0000
# 4 0.0000 0.0000 0.0000 41.6452 0.0000 0.0000
# 5 0.0000 0.0000 0.0000 0.0000 31.1068 0.0000
# 6 0.0000 0.0000 0.0000 0.0000 0.0000 23.2461
#
#
#
# Elastic Compliance Matrix: (Units=1/GPa)
#
#
# Indices 1 2 3 4 5 6 
#
# 1 0.016531 0.000994 -0.004828 0.000000 0.000000 0.000000
# 2 0.000994 0.014808 -0.007169 0.000000 0.000000 0.000000
# 3 -0.004828 -0.007169 0.014056 0.000000 0.000000 0.000000
# 4 0.000000 0.000000 0.000000 0.024012 0.000000 0.000000
# 5 0.000000 0.000000 0.000000 0.000000 0.032147 0.000000
# 6 0.000000 0.000000 0.000000 0.000000 0.000000 0.043018
#
#
# Mechanical properties :
#
#
# Convention : Reuss Voigt Hill
#
# Bulk Modulus (GPa) = 42.75911 48.63396 45.69654
# Shear Modulus (GPa) = 28.67372 31.10418 29.88895
#
# Velocity S-wave (km/s) = 3.56755 3.71567 3.64236
# Velocity P-wave (km/s) = 5.99578 6.32419 6.16217
#
# Compressibility (1/GPa) = 0.02338683
#
# Stress axis : x y z
#
# Youngs Moduli (GPa) = 60.49346 67.53027 71.14507
#
# Poissons Ratio (x) = -0.06710 0.34352
# Poissons Ratio (y) = -0.06011 0.51004
# Poissons Ratio (z) = 0.29209 0.48413
#
# Static dielectric constant tensor:
#      x y z
#    x 1.832660 0.000000 0.000000 
#    y 0.000000 1.908190 0.000000 
#    z 0.000000 0.000000 1.907850 
# 
# From -- ./inp_files/28579.got.cif
#   From: 2010.05.17/outbox.cif.g08.bks.cpg/sg23_15_cif.got.tgz:28579.got - 2010.06.04 12:02:01.
