data_PCOD9330920
_publ_section_title
;
Structure prediction by ZEFSAII (Michael W. Deem and Ramdas Pophale) SiO2 
 PCOD9330920
Probable space group: I 2 2 2
;
_chemical_formula_sum "Si O2"
_cell_formula_units_Z 34
_cell_length_a 18.205656
_cell_length_b 5.280338
_cell_length_c 15.216876
_cell_angle_alpha 90.000000
_cell_angle_beta 90.000000
_cell_angle_gamma 90.000000
_cell_volume 1462.828985
_symmetry_space_group_name_H-M "I 2 2 2"
_symmetry_group_IT_number 23
_symmetry_cell_setting 'orthorhombic'
loop_
_space_group_symop_operation_xyz
x,y,z
-x,-y,z
x,-y,-z
-x,y,-z
1/2+x,1/2+y,1/2+z
1/2-x,1/2-y,1/2+z
1/2+x,1/2-y,1/2-z
1/2-x,1/2+y,1/2-z
loop_
_atom_site_type_symbol
_atom_site_label
_atom_site_fract_x
_atom_site_fract_y
_atom_site_fract_z
Si Si1 0.739505 0.481521 0.606917
Si Si2 0.620620 0.658185 0.913657
Si Si3 0.839115 0.510536 0.104542
Si Si4 0.000000 0.500000 0.500000
Si Si5 0.000000 0.000000 0.708091
Si Si6 0.000000 0.500000 0.175197
O O1 0.736250 0.500000 0.500000
O O2 0.818778 0.352106 0.622941
O O3 0.711661 0.756467 0.638814
O O4 0.685297 0.262333 0.640184
O O5 0.577338 0.483569 0.845550
O O6 0.647690 0.500000 0.000000
O O7 0.552901 0.826712 0.944665
O O8 0.925274 0.534503 0.120777
O O9 0.827299 0.500000 0.000000
O O10 0.999440 0.748778 0.765482
#
# Coordination Sequence:
#
# PCOD9330920 Si02
#       6
#     8   8   8   2   4   4
#     4  10  21  37  68 101 130 160 215 282 342 391
#     4  12  23  40  66 101 138 177 224 277 328 411
#     4  10  22  43  70  99 124 171 222 284 342 390
#     4  12  20  36  68  96 140 172 226 262 330 378
#     4  12  27  42  65 100 138 188 224 276 333 396
#     4  12  26  46  67  95 138 176 236 282 330 406
#
# _framework density 23.242633000000001
#
# number of rings (size 3 to 8) (size 9 to 14) (size 15 to 20)
#    0.000    0.941    3.529    4.588    0.000    0.000 
#    0.000    9.412    0.000    0.000    0.000    0.000 
#    0.000    0.000    0.000    0.000    0.000    0.000 
#
# Total GULP energy -94995.134660 kJ/mol
# GULP energy per Si atom -5587.949098 kJ/mol
# Density = 2.318973 g / cm^3
# Si number density = 23.242633 Si / 1000 Ang^3
#
#
#
# Elastic Constant Matrix: (Units=GPa)
#
#
# Indices 1 2 3 4 5 6 
#
# 1 168.5698 51.1276 21.2539 0.0000 0.0000 0.0000
# 2 51.1276 159.8899 34.7108 0.0000 0.0000 0.0000
# 3 21.2539 34.7108 23.9261 0.0000 0.0000 0.0000
# 4 0.0000 0.0000 0.0000 128.7557 0.0000 0.0000
# 5 0.0000 0.0000 0.0000 0.0000 7.8884 0.0000
# 6 0.0000 0.0000 0.0000 0.0000 0.0000 114.1426
#
#
#
# Elastic Compliance Matrix: (Units=1/GPa)
#
#
# Indices 1 2 3 4 5 6 
#
# 1 0.006853 -0.001270 -0.004245 0.000000 0.000000 0.000000
# 2 -0.001270 0.009365 -0.012458 0.000000 0.000000 0.000000
# 3 -0.004245 -0.012458 0.063641 0.000000 0.000000 0.000000
# 4 0.000000 0.000000 0.000000 0.007767 0.000000 0.000000
# 5 0.000000 0.000000 0.000000 0.000000 0.126769 0.000000
# 6 0.000000 0.000000 0.000000 0.000000 0.000000 0.008761
#
#
# Mechanical properties :
#
#
# Convention : Reuss Voigt Hill
#
# Bulk Modulus (GPa) = 22.77311 62.95227 42.86269
# Shear Modulus (GPa) = 18.26560 66.51024 42.38792
#
# Velocity S-wave (km/s) = 2.80637 5.35516 4.27513
# Velocity P-wave (km/s) = 4.50780 8.08583 6.54602
#
# Compressibility (1/GPa) = 0.04391144
#
# Stress axis : x y z
#
# Youngs Moduli (GPa) = 145.92984 106.78188 15.71323
#
# Poissons Ratio (x) = 0.13557 0.06671
# Poissons Ratio (y) = 0.18527 0.19576
# Poissons Ratio (z) = 0.61953 1.33032
#
# Static dielectric constant tensor:
#      x y z
#    x 1.801520 0.000000 0.000000 
#    y 0.000000 2.030240 0.000000 
#    z 0.000000 0.000000 1.489110 
# 
# From -- ./inp_files/24576.got.cif
#   From: 2010.05.17/outbox.cif.g08.bks.cpg/sg23_13_cif.got.tgz:24576.got - 2010.06.04 12:02:01.
