data_PCOD9330332
_publ_section_title
;
Structure prediction by ZEFSAII (Michael W. Deem and Ramdas Pophale) SiO2 
 PCOD9330332
Probable space group: I 2 2 2
;
_chemical_formula_sum "Si O2"
_cell_formula_units_Z 42
_cell_length_a 21.541417
_cell_length_b 5.424242
_cell_length_c 15.613495
_cell_angle_alpha 90.000000
_cell_angle_beta 90.000000
_cell_angle_gamma 90.000000
_cell_volume 1824.372233
_symmetry_space_group_name_H-M "I 2 2 2"
_symmetry_group_IT_number 23
_symmetry_cell_setting 'orthorhombic'
loop_
_space_group_symop_operation_xyz
x,y,z
-x,-y,z
x,-y,-z
-x,y,-z
1/2+x,1/2+y,1/2+z
1/2-x,1/2-y,1/2+z
1/2+x,1/2-y,1/2-z
1/2-x,1/2+y,1/2-z
loop_
_atom_site_type_symbol
_atom_site_label
_atom_site_fract_x
_atom_site_fract_y
_atom_site_fract_z
Si Si1 0.799003 0.252783 0.052318
Si Si2 0.000000 0.000000 0.000000
Si Si3 0.169347 0.558513 0.593561
Si Si4 0.758501 0.750529 0.197866
Si Si5 0.421084 0.289489 0.346947
Si Si6 0.104161 0.708144 0.767258
O O1 0.727145 0.244945 0.080175
O O2 0.848777 0.230036 0.127113
O O3 0.811185 0.500000 0.000000
O O4 0.807239 0.000000 0.000000
O O5 0.041680 0.837496 0.064846
O O6 0.141812 0.500000 0.500000
O O7 0.206654 0.315958 0.627673
O O8 0.124957 0.654976 0.669122
O O9 0.743119 0.498028 0.245143
O O10 0.831267 0.722475 0.178644
O O11 0.428001 0.531095 0.287082
O O12 0.432580 0.029359 0.301292
#
# Coordination Sequence:
#
# PCOD9330332 Si02
#       6
#     8   2   8   8   8   8
#     4  11  23  37  58  94 131 180 217 266 320 403
#     4  12  32  54  72 106 122 178 240 318 336 416
#     4  10  23  37  63 100 144 183 230 263 326 422
#     4  10  20  35  57  88 133 180 224 257 314 393
#     4  12  26  45  70  89 133 170 234 287 356 396
#     4  11  24  41  65  95 132 190 215 282 340 414
#
# _framework density 23.021618
#
# number of rings (size 3 to 8) (size 9 to 14) (size 15 to 20)
#    0.000    1.143    2.857    3.429    8.000    4.571 
#    0.000    0.000    0.000    0.000    0.000    4.000 
#    0.000    0.000    0.000    0.000    0.000    0.000 
#
# Total GULP energy -117387.675929 kJ/mol
# GULP energy per Si atom -5589.889330 kJ/mol
# Density = 2.296922 g / cm^3
# Si number density = 23.021618 Si / 1000 Ang^3
#
#
#
# Elastic Constant Matrix: (Units=GPa)
#
#
# Indices 1 2 3 4 5 6 
#
# 1 81.8049 38.2107 34.5388 0.0000 0.0000 0.0000
# 2 38.2107 223.4441 75.0530 0.0000 0.0000 0.0000
# 3 34.5388 75.0530 147.0689 0.0000 0.0000 0.0000
# 4 0.0000 0.0000 0.0000 48.0192 0.0000 0.0000
# 5 0.0000 0.0000 0.0000 0.0000 30.4262 0.0000
# 6 0.0000 0.0000 0.0000 0.0000 0.0000 -9.8703
#
#
#
# Elastic Compliance Matrix: (Units=1/GPa)
#
#
# Indices 1 2 3 4 5 6 
#
# 1 0.014005 -0.001557 -0.002494 0.000000 0.000000 0.000000
# 2 -0.001557 0.005574 -0.002479 0.000000 0.000000 0.000000
# 3 -0.002494 -0.002479 0.008650 0.000000 0.000000 0.000000
# 4 0.000000 0.000000 0.000000 0.020825 0.000000 0.000000
# 5 0.000000 0.000000 0.000000 0.000000 0.032866 0.000000
# 6 0.000000 0.000000 0.000000 0.000000 0.000000 -0.101314
#
#
# Mechanical properties :
#
#
# Convention : Reuss Voigt Hill
#
# Bulk Modulus (GPa) = 65.92610 83.10256 74.51433
# Shear Modulus (GPa) = -3919.20406 34.01603 -1942.59401
#
# Velocity S-wave (km/s) = -41.30493 3.84809 -29.07997
# Velocity P-wave (km/s) = 47.39301 7.47795 33.09213
#
# Compressibility (1/GPa) = 0.01516850
#
# Stress axis : x y z
#
# Youngs Moduli (GPa) = 71.40484 179.39276 115.60090
#
# Poissons Ratio (x) = 0.27933 0.28835
# Poissons Ratio (y) = 0.11118 0.28658
# Poissons Ratio (z) = 0.17811 0.44473
#
# Static dielectric constant tensor:
#      x y z
#    x 1.855390 0.000000 0.000000 
#    y 0.000000 1.888540 0.000000 
#    z 0.000000 0.000000 1.991870 
# 
# From -- ./inp_files/25316.got.cif
#   From: 2010.05.17/outbox.cif.g08.bks.cpg/sg23_13_cif.got.tgz:25316.got - 2010.06.04 12:02:01.
