data_PCOD9330174
_publ_section_title
;
Structure prediction by ZEFSAII (Michael W. Deem and Ramdas Pophale) SiO2 
 PCOD9330174
Probable space group: I 2 2 2
;
_chemical_formula_sum "Si O2"
_cell_formula_units_Z 60
_cell_length_a 11.332792
_cell_length_b 11.404486
_cell_length_c 19.276944
_cell_angle_alpha 90.000000
_cell_angle_beta 90.000000
_cell_angle_gamma 90.000000
_cell_volume 2491.442222
_symmetry_space_group_name_H-M "I 2 2 2"
_symmetry_group_IT_number 23
_symmetry_cell_setting 'orthorhombic'
loop_
_space_group_symop_operation_xyz
x,y,z
-x,-y,z
x,-y,-z
-x,y,-z
1/2+x,1/2+y,1/2+z
1/2-x,1/2-y,1/2+z
1/2+x,1/2-y,1/2-z
1/2-x,1/2+y,1/2-z
loop_
_atom_site_type_symbol
_atom_site_label
_atom_site_fract_x
_atom_site_fract_y
_atom_site_fract_z
Si Si1 0.802755 0.248877 0.876179
Si Si2 0.581933 0.398318 0.264950
Si Si3 0.265727 0.641765 0.147412
Si Si4 0.588240 0.174589 0.066401
Si Si5 0.119562 0.281593 0.729693
Si Si6 0.666483 0.624761 0.479303
Si Si7 0.966472 0.660705 0.922586
Si Si8 0.500000 0.000000 0.817207
O O1 0.837552 0.139601 0.828098
O O2 0.679300 0.275686 0.839071
O O3 0.799057 0.206106 0.954888
O O4 0.915620 0.335680 0.876419
O O5 0.500000 0.500000 0.289901
O O6 0.655928 0.437738 0.197661
O O7 0.500148 0.288142 0.244657
O O8 0.354829 0.703327 0.093253
O O9 0.210003 0.732211 0.205102
O O10 0.149260 0.598220 0.107588
O O11 0.533221 0.105260 0.130476
O O12 0.500000 0.180713 0.000000
O O13 0.706733 0.100536 0.053290
O O14 0.092457 0.422585 0.727130
O O15 0.618110 0.500000 0.500000
O O16 0.579926 0.704090 0.432840
O O17 0.000000 0.623151 0.000000
#
# Coordination Sequence:
#
# PCOD9330174 Si02
#       8
#     8   8   8   8   8   8   8   4
#     4  10  21  37  58  90 126 173 214 255 333 392
#     4  11  24  41  64  89 128 176 224 275 315 392
#     4  10  22  41  61  96 130 172 222 266 336 399
#     4  11  21  36  63  99 138 168 213 278 338 410
#     4  11  23  41  64  92 132 177 219 275 327 398
#     4  10  20  30  52  91 130 166 199 256 331 400
#     4   9  19  35  58  87 126 166 209 269 325 399
#     4  12  23  40  66 100 137 174 216 272 352 398
#
# _framework density 24.082436999999999
#
# number of rings (size 3 to 8) (size 9 to 14) (size 15 to 20)
#    0.000    1.600    2.667    2.600    1.867    4.000 
#    0.000    0.000    0.000    0.400    3.467    2.800 
#    0.000    0.000    0.000    0.000    0.000    0.000 
#
# Total GULP energy -167335.909041 kJ/mol
# GULP energy per Si atom -5577.863635 kJ/mol
# Density = 2.402762 g / cm^3
# Si number density = 24.082437 Si / 1000 Ang^3
#
#
#
# Elastic Constant Matrix: (Units=GPa)
#
#
# Indices 1 2 3 4 5 6 
#
# 1 88.6550 6.6065 13.3670 0.0000 0.0000 0.0000
# 2 6.6065 70.7326 -0.1479 0.0000 0.0000 0.0000
# 3 13.3670 -0.1479 73.3650 0.0000 0.0000 0.0000
# 4 0.0000 0.0000 0.0000 8.0295 0.0000 0.0000
# 5 0.0000 0.0000 0.0000 0.0000 49.0726 0.0000
# 6 0.0000 0.0000 0.0000 0.0000 0.0000 5.3538
#
#
#
# Elastic Compliance Matrix: (Units=1/GPa)
#
#
# Indices 1 2 3 4 5 6 
#
# 1 0.011683 -0.001096 -0.002131 0.000000 0.000000 0.000000
# 2 -0.001096 0.014241 0.000228 0.000000 0.000000 0.000000
# 3 -0.002131 0.000228 0.014019 0.000000 0.000000 0.000000
# 4 0.000000 0.000000 0.000000 0.124540 0.000000 0.000000
# 5 0.000000 0.000000 0.000000 0.000000 0.020378 0.000000
# 6 0.000000 0.000000 0.000000 0.000000 0.000000 0.186782
#
#
# Mechanical properties :
#
#
# Convention : Reuss Voigt Hill
#
# Bulk Modulus (GPa) = 29.45838 30.26709 29.86274
# Shear Modulus (GPa) = 12.85499 26.68632 19.77066
#
# Velocity S-wave (km/s) = 2.31290 3.33246 2.86834
# Velocity P-wave (km/s) = 4.40358 5.23474 4.83704
#
# Compressibility (1/GPa) = 0.03394620
#
# Stress axis : x y z
#
# Youngs Moduli (GPa) = 85.59741 70.22198 71.33092
#
# Poissons Ratio (x) = 0.07694 0.15199
# Poissons Ratio (y) = 0.09378 -0.01629
# Poissons Ratio (z) = 0.18239 -0.01603
#
# Static dielectric constant tensor:
#      x y z
#    x 2.032060 0.000000 0.000000 
#    y 0.000000 1.960530 0.000000 
#    z 0.000000 0.000000 1.986360 
# 
# From -- ./inp_files/26759.got.cif
#   From: 2010.05.17/outbox.cif.g08.bks.cpg/sg23_14_cif.got.tgz:26759.got - 2010.06.04 12:02:01.
