data_PCOD9330576
_publ_section_title
;
Structure prediction by ZEFSAII (Michael W. Deem and Ramdas Pophale) SiO2 
 PCOD9330576
Probable space group: I 2 2 2
;
_chemical_formula_sum "Si O2"
_cell_formula_units_Z 38
_cell_length_a 11.891791
_cell_length_b 8.964370
_cell_length_c 18.385677
_cell_angle_alpha 90.000000
_cell_angle_beta 90.000000
_cell_angle_gamma 90.000000
_cell_volume 1959.957560
_symmetry_space_group_name_H-M "I 2 2 2"
_symmetry_group_IT_number 23
_symmetry_cell_setting 'orthorhombic'
loop_
_space_group_symop_operation_xyz
x,y,z
-x,-y,z
x,-y,-z
-x,y,-z
1/2+x,1/2+y,1/2+z
1/2-x,1/2-y,1/2+z
1/2+x,1/2-y,1/2-z
1/2-x,1/2+y,1/2-z
loop_
_atom_site_type_symbol
_atom_site_label
_atom_site_fract_x
_atom_site_fract_y
_atom_site_fract_z
Si Si1 0.297920 0.808459 0.695957
Si Si2 0.000000 0.500000 0.152434
Si Si3 0.000000 0.000000 0.500000
Si Si4 0.723651 0.654233 0.968561
Si Si5 0.905728 0.215424 0.937861
Si Si6 0.122131 0.025941 0.206514
O O1 0.262781 0.820770 0.612298
O O2 0.200444 0.863659 0.748646
O O3 0.324343 0.636697 0.707948
O O4 0.406681 0.915774 0.700762
O O5 0.944854 0.631258 0.102987
O O6 0.090649 0.884209 0.534408
O O7 0.772828 0.500000 0.000000
O O8 0.784214 0.770569 0.022339
O O9 0.896334 0.093626 0.874023
O O10 0.000000 0.186060 0.000000
O O11 0.000000 0.000000 0.240973
#
# Coordination Sequence:
#
# PCOD9330576 Si02
#       6
#     8   4   2   8   8   8
#     4  12  26  43  67 104 139 189 235 291 362 423
#     4  12  19  42  70 106 136 181 234 286 361 416
#     4   8  20  36  62 102 120 188 206 272 344 416
#     4  10  20  38  68  97 133 177 234 288 344 426
#     4  12  21  42  72 107 136 177 238 302 349 412
#     4  12  28  46  69 102 146 187 233 299 363 421
#
# _framework density 19.388176000000001
#
# number of rings (size 3 to 8) (size 9 to 14) (size 15 to 20)
#    0.632    0.000    6.316    1.579    1.474    2.947 
#    0.000    0.000    0.000    1.263    0.000    0.000 
#    0.000    0.000    0.000    0.000    0.000    0.000 
#
# Total GULP energy -105908.125013 kJ/mol
# GULP energy per Si atom -5574.111843 kJ/mol
# Density = 1.934405 g / cm^3
# Si number density = 19.388176 Si / 1000 Ang^3
#
#
#
# Elastic Constant Matrix: (Units=GPa)
#
#
# Indices 1 2 3 4 5 6 
#
# 1 116.1269 61.4297 38.7228 0.0000 0.0000 0.0000
# 2 61.4297 136.3274 55.4374 0.0000 0.0000 0.0000
# 3 38.7228 55.4374 75.2288 0.0000 0.0000 0.0000
# 4 0.0000 0.0000 0.0000 30.6347 0.0000 0.0000
# 5 0.0000 0.0000 0.0000 0.0000 34.8900 0.0000
# 6 0.0000 0.0000 0.0000 0.0000 0.0000 27.5393
#
#
#
# Elastic Compliance Matrix: (Units=1/GPa)
#
#
# Indices 1 2 3 4 5 6 
#
# 1 0.011784 -0.004060 -0.003074 0.000000 0.000000 0.000000
# 2 -0.004060 0.011873 -0.006659 0.000000 0.000000 0.000000
# 3 -0.003074 -0.006659 0.019782 0.000000 0.000000 0.000000
# 4 0.000000 0.000000 0.000000 0.032643 0.000000 0.000000
# 5 0.000000 0.000000 0.000000 0.000000 0.028662 0.000000
# 6 0.000000 0.000000 0.000000 0.000000 0.000000 0.036312
#
#
# Mechanical properties :
#
#
# Convention : Reuss Voigt Hill
#
# Bulk Modulus (GPa) = 63.08032 70.98478 67.03255
# Shear Modulus (GPa) = 28.74793 30.08567 29.41680
#
# Velocity S-wave (km/s) = 3.85483 3.94350 3.89942
# Velocity P-wave (km/s) = 7.24010 7.57805 7.41100
#
# Compressibility (1/GPa) = 0.01585280
#
# Stress axis : x y z
#
# Youngs Moduli (GPa) = 84.86182 84.22631 50.54999
#
# Poissons Ratio (x) = 0.34195 0.15538
# Poissons Ratio (y) = 0.34453 0.33664
# Poissons Ratio (z) = 0.26084 0.56090
#
# Static dielectric constant tensor:
#      x y z
#    x 1.761750 0.000000 0.000000 
#    y 0.000000 1.687720 0.000000 
#    z 0.000000 0.000000 1.653750 
# 
# From -- ./inp_files/24196.got.cif
#   From: 2010.05.17/outbox.cif.g08.bks.cpg/sg23_13_cif.got.tgz:24196.got - 2010.06.04 12:02:01.
