data_PCOD9330763
_publ_section_title
;
Structure prediction by ZEFSAII (Michael W. Deem and Ramdas Pophale) SiO2 
 PCOD9330763
Probable space group: I 2 2 2
;
_chemical_formula_sum "Si O2"
_cell_formula_units_Z 52
_cell_length_a 15.883349
_cell_length_b 20.443210
_cell_length_c 8.286922
_cell_angle_alpha 90.000000
_cell_angle_beta 90.000000
_cell_angle_gamma 90.000000
_cell_volume 2690.818591
_symmetry_space_group_name_H-M "I 2 2 2"
_symmetry_group_IT_number 23
_symmetry_cell_setting 'orthorhombic'
loop_
_space_group_symop_operation_xyz
x,y,z
-x,-y,z
x,-y,-z
-x,y,-z
1/2+x,1/2+y,1/2+z
1/2-x,1/2-y,1/2+z
1/2+x,1/2-y,1/2-z
1/2-x,1/2+y,1/2-z
loop_
_atom_site_type_symbol
_atom_site_label
_atom_site_fract_x
_atom_site_fract_y
_atom_site_fract_z
Si Si1 0.000000 0.000000 0.000000
Si Si2 0.536037 0.067216 0.682900
Si Si3 0.615371 0.571919 0.749754
Si Si4 0.299575 0.205498 0.052971
Si Si5 0.973713 0.709284 0.685061
Si Si6 0.202497 0.446035 0.638095
Si Si7 0.500000 0.500000 0.000000
Si Si8 0.865527 0.773708 0.230078
O O1 0.058917 0.952022 0.898558
O O2 0.500000 0.072430 0.500000
O O3 0.512177 0.133067 0.775695
O O4 0.635152 0.058690 0.716571
O O5 0.500000 0.000000 0.753023
O O6 0.706947 0.541544 0.717806
O O7 0.627059 0.649306 0.764413
O O8 0.562605 0.544942 0.898339
O O9 0.373435 0.223135 0.183803
O O10 0.296227 0.126283 0.056198
O O11 0.207449 0.232420 0.096848
O O12 0.329702 0.234257 0.883618
O O13 0.000000 0.722555 0.500000
O O14 0.039526 0.747932 0.796798
O O15 0.183878 0.500000 0.500000
#
# Coordination Sequence:
#
# PCOD9330763 Si02
#       8
#     2   8   8   8   8   8   2   8
#     4  10  20  46  64  90 126 154 226 258 300 410
#     4  10  23  37  57  91 125 156 206 259 307 360
#     4  10  22  42  64  92 125 162 211 262 321 380
#     4   9  21  39  58  93 120 158 213 249 301 383
#     4   9  20  37  59  82 119 164 201 243 306 374
#     4  10  21  40  66  89 124 175 213 254 309 377
#     4  10  24  38  64  98 118 166 198 274 324 370
#     4  10  21  40  60  88 124 160 204 255 315 370
#
# _framework density 19.324974999999998
#
# number of rings (size 3 to 8) (size 9 to 14) (size 15 to 20)
#    0.000    2.308    0.769    0.000    9.692    4.923 
#    9.692    0.000    0.000    0.000    0.000    0.000 
#    0.000    0.000    0.000    0.000    0.000    0.000 
#
# Total GULP energy -144819.791776 kJ/mol
# GULP energy per Si atom -5569.991991 kJ/mol
# Density = 1.928099 g / cm^3
# Si number density = 19.324975 Si / 1000 Ang^3
#
#
#
# Elastic Constant Matrix: (Units=GPa)
#
#
# Indices 1 2 3 4 5 6 
#
# 1 105.8371 11.9648 31.0635 0.0000 0.0000 0.0000
# 2 11.9648 39.2593 10.2908 0.0000 0.0000 0.0000
# 3 31.0635 10.2908 51.0560 0.0000 0.0000 0.0000
# 4 0.0000 0.0000 0.0000 15.7891 0.0000 0.0000
# 5 0.0000 0.0000 0.0000 0.0000 -34.9584 0.0000
# 6 0.0000 0.0000 0.0000 0.0000 0.0000 27.9321
#
#
#
# Elastic Compliance Matrix: (Units=1/GPa)
#
#
# Indices 1 2 3 4 5 6 
#
# 1 0.011619 -0.001782 -0.006710 0.000000 0.000000 0.000000
# 2 -0.001782 0.027166 -0.004391 0.000000 0.000000 0.000000
# 3 -0.006710 -0.004391 0.024554 0.000000 0.000000 0.000000
# 4 0.000000 0.000000 0.000000 0.063335 0.000000 0.000000
# 5 0.000000 0.000000 0.000000 0.000000 -0.028605 0.000000
# 6 0.000000 0.000000 0.000000 0.000000 0.000000 0.035801
#
#
# Mechanical properties :
#
#
# Convention : Reuss Voigt Hill
#
# Bulk Modulus (GPa) = 26.61554 33.64339 30.12946
# Shear Modulus (GPa) = 29.04250 11.27478 20.15864
#
# Velocity S-wave (km/s) = 3.88086 2.41805 3.23327
# Velocity P-wave (km/s) = 5.82100 5.02424 5.43723
#
# Compressibility (1/GPa) = 0.03757204
#
# Stress axis : x y z
#
# Youngs Moduli (GPa) = 86.06264 36.81086 40.72642
#
# Poissons Ratio (x) = 0.06561 0.27329
# Poissons Ratio (y) = 0.15339 0.17884
# Poissons Ratio (z) = 0.57750 0.16164
#
# Static dielectric constant tensor:
#      x y z
#    x 1.737120 0.000000 0.000000 
#    y 0.000000 1.671220 0.000000 
#    z 0.000000 0.000000 1.667810 
# 
# From -- ./inp_files/10179.got.cif
#   From: 2010.05.17/outbox.cif.g08.bks.cpg/sg23_6_cif.got.tgz:10179.got - 2010.06.04 12:02:01.
