data_PCOD9330435
_publ_section_title
;
Structure prediction by ZEFSAII (Michael W. Deem and Ramdas Pophale) SiO2 
 PCOD9330435
Probable space group: I 2 2 2
;
_chemical_formula_sum "Si O2"
_cell_formula_units_Z 30
_cell_length_a 10.104489
_cell_length_b 7.559911
_cell_length_c 17.550674
_cell_angle_alpha 90.000000
_cell_angle_beta 90.000000
_cell_angle_gamma 90.000000
_cell_volume 1340.679095
_symmetry_space_group_name_H-M "I 2 2 2"
_symmetry_group_IT_number 23
_symmetry_cell_setting 'orthorhombic'
loop_
_space_group_symop_operation_xyz
x,y,z
-x,-y,z
x,-y,-z
-x,y,-z
1/2+x,1/2+y,1/2+z
1/2-x,1/2-y,1/2+z
1/2+x,1/2-y,1/2-z
1/2-x,1/2+y,1/2-z
loop_
_atom_site_type_symbol
_atom_site_label
_atom_site_fract_x
_atom_site_fract_y
_atom_site_fract_z
Si Si1 0.500000 0.000000 0.000000
Si Si2 0.149736 0.008707 0.666135
Si Si3 0.000000 0.000000 0.183015
Si Si4 0.835827 0.792399 0.091872
Si Si5 0.243291 0.308037 0.428203
O O1 0.404050 0.869780 0.046238
O O2 0.227091 0.837772 0.635985
O O3 0.231697 0.176639 0.637793
O O4 0.000000 0.000000 0.632488
O O5 0.121173 0.012308 0.756062
O O6 0.802102 0.001151 0.091627
O O7 0.974736 0.817253 0.135582
O O8 0.821556 0.739009 0.003470
#
# Coordination Sequence:
#
# PCOD9330435 Si02
#       5
#     2   8   4   8   8
#     4   8  16  32  58 102 128 166 224 306 330 378
#     4  10  22  38  66  96 130 178 232 285 334 415
#     4  10  26  39  63  98 142 176 210 288 362 409
#     4  10  22  42  60  94 133 176 222 285 346 415
#     4  10  20  36  68  90 129 172 238 275 339 408
#
# _framework density 22.376718
#
# number of rings (size 3 to 8) (size 9 to 14) (size 15 to 20)
#    0.800    1.600    0.000    4.000    3.733    3.200 
#    0.000    4.000    0.000    6.400    0.000    0.000 
#    0.000    0.000    0.000    0.000    0.000    0.000 
#
# Total GULP energy -83549.807750 kJ/mol
# GULP energy per Si atom -5569.987183 kJ/mol
# Density = 2.232579 g / cm^3
# Si number density = 22.376718 Si / 1000 Ang^3
#
#
#
# Elastic Constant Matrix: (Units=GPa)
#
#
# Indices 1 2 3 4 5 6 
#
# 1 66.7701 31.4674 22.3464 0.0000 0.0000 0.0000
# 2 31.4674 66.3312 23.5750 0.0000 0.0000 0.0000
# 3 22.3464 23.5750 126.6388 0.0000 0.0000 0.0000
# 4 0.0000 0.0000 0.0000 -710.5163 0.0000 0.0000
# 5 0.0000 0.0000 0.0000 0.0000 15.3010 0.0000
# 6 0.0000 0.0000 0.0000 0.0000 0.0000 43.8026
#
#
#
# Elastic Compliance Matrix: (Units=1/GPa)
#
#
# Indices 1 2 3 4 5 6 
#
# 1 0.019690 -0.008680 -0.001858 0.000000 0.000000 0.000000
# 2 -0.008680 0.019971 -0.002186 0.000000 0.000000 0.000000
# 3 -0.001858 -0.002186 0.008631 0.000000 0.000000 0.000000
# 4 0.000000 0.000000 0.000000 -0.001407 0.000000 0.000000
# 5 0.000000 0.000000 0.000000 0.000000 0.065355 0.000000
# 6 0.000000 0.000000 0.000000 0.000000 0.000000 0.022830
#
#
# Mechanical properties :
#
#
# Convention : Reuss Voigt Hill
#
# Bulk Modulus (GPa) = 43.77858 46.05751 44.91805
# Shear Modulus (GPa) = 29.73851 -118.12579 -44.19364
#
# Velocity S-wave (km/s) = 3.64949 -7.27353 -4.44890
# Velocity P-wave (km/s) = 6.11271 7.06480 2.50462
#
# Compressibility (1/GPa) = 0.02284222
#
# Stress axis : x y z
#
# Youngs Moduli (GPa) = 50.78846 50.07351 115.85647
#
# Poissons Ratio (x) = 0.43464 0.21532
# Poissons Ratio (y) = 0.44085 0.25327
# Poissons Ratio (z) = 0.09439 0.10946
#
# Static dielectric constant tensor:
#      x y z
#    x 2.101880 0.000000 0.000000 
#    y 0.000000 1.754730 0.000000 
#    z 0.000000 0.000000 2.088120 
# 
# From -- ./inp_files/11638.got.cif
#   From: 2010.05.17/outbox.cif.g08.bks.cpg/sg23_6_cif.got.tgz:11638.got - 2010.06.04 12:02:01.
