data_PCOD9330640
_publ_section_title
;
Structure prediction by ZEFSAII (Michael W. Deem and Ramdas Pophale) SiO2 
 PCOD9330640
Probable space group: I 2 2 2
;
_chemical_formula_sum "Si O2"
_cell_formula_units_Z 56
_cell_length_a 15.435291
_cell_length_b 9.419584
_cell_length_c 20.327577
_cell_angle_alpha 90.000000
_cell_angle_beta 90.000000
_cell_angle_gamma 90.000000
_cell_volume 2955.508140
_symmetry_space_group_name_H-M "I 2 2 2"
_symmetry_group_IT_number 23
_symmetry_cell_setting 'orthorhombic'
loop_
_space_group_symop_operation_xyz
x,y,z
-x,-y,z
x,-y,-z
-x,y,-z
1/2+x,1/2+y,1/2+z
1/2-x,1/2-y,1/2+z
1/2+x,1/2-y,1/2-z
1/2-x,1/2+y,1/2-z
loop_
_atom_site_type_symbol
_atom_site_label
_atom_site_fract_x
_atom_site_fract_y
_atom_site_fract_z
Si Si1 0.673194 0.047312 0.288646
Si Si2 0.832754 0.858379 0.258822
Si Si3 0.542442 0.734136 0.119439
Si Si4 0.697324 0.161683 0.974747
Si Si5 0.219283 0.575764 0.934257
Si Si6 0.000000 0.500000 0.291763
Si Si7 0.135056 0.863603 0.587060
Si Si8 0.500000 0.500000 0.221856
O O1 0.687250 0.213507 0.277060
O O2 0.674558 0.025987 0.367238
O O3 0.584760 0.002758 0.253682
O O4 0.752685 0.964693 0.255153
O O5 0.846344 0.831158 0.336797
O O6 0.925922 0.920497 0.237796
O O7 0.617302 0.807532 0.075688
O O8 0.466745 0.660769 0.076524
O O9 0.554195 0.610131 0.175023
O O10 0.502865 0.863397 0.161528
O O11 0.774960 0.254047 0.941846
O O12 0.680358 0.250632 0.040717
O O13 0.707494 0.000000 0.000000
O O14 0.318830 0.514077 0.927689
O O15 0.184419 0.500000 0.000000
#
# Coordination Sequence:
#
# PCOD9330640 Si02
#       8
#     8   8   8   8   8   4   8   4
#     4  11  23  39  61  88 117 163 202 256 306 354
#     4  10  22  36  60  83 119 160 203 239 309 359
#     4  11  20  33  53  80 126 163 192 236 290 371
#     4  11  21  30  55  83 118 155 191 237 297 346
#     4   9  21  40  59  79 111 153 207 247 293 367
#     4  12  24  36  56  90 130 148 212 258 298 346
#     4   9  18  36  49  79 113 158 194 227 277 368
#     4  10  20  40  55  82 124 161 202 250 292 380
#
# _framework density 18.947672000000001
#
# number of rings (size 3 to 8) (size 9 to 14) (size 15 to 20)
#    0.000    1.714    2.857    3.857    4.000    0.571 
#    0.000    5.357    0.000    0.000    0.000    0.000 
#    0.000    0.000    0.000    0.000    0.000    0.000 
#
# Total GULP energy -156004.192599 kJ/mol
# GULP energy per Si atom -5571.578307 kJ/mol
# Density = 1.890455 g / cm^3
# Si number density = 18.947672 Si / 1000 Ang^3
#
#
#
# Elastic Constant Matrix: (Units=GPa)
#
#
# Indices 1 2 3 4 5 6 
#
# 1 78.7496 31.5008 25.9829 0.0000 0.0000 0.0000
# 2 31.5008 130.0638 19.6935 0.0000 0.0000 0.0000
# 3 25.9829 19.6935 55.1313 0.0000 0.0000 0.0000
# 4 0.0000 0.0000 0.0000 17.5664 0.0000 0.0000
# 5 0.0000 0.0000 0.0000 0.0000 -11.2908 0.0000
# 6 0.0000 0.0000 0.0000 0.0000 0.0000 22.2735
#
#
#
# Elastic Compliance Matrix: (Units=1/GPa)
#
#
# Indices 1 2 3 4 5 6 
#
# 1 0.016002 -0.002890 -0.006509 0.000000 0.000000 0.000000
# 2 -0.002890 0.008650 -0.001728 0.000000 0.000000 0.000000
# 3 -0.006509 -0.001728 0.021824 0.000000 0.000000 0.000000
# 4 0.000000 0.000000 0.000000 0.056927 0.000000 0.000000
# 5 0.000000 0.000000 0.000000 0.000000 -0.088568 0.000000
# 6 0.000000 0.000000 0.000000 0.000000 0.000000 0.044896
#
#
# Mechanical properties :
#
#
# Convention : Reuss Voigt Hill
#
# Bulk Modulus (GPa) = 41.28587 46.47766 43.88177
# Shear Modulus (GPa) = 55.51882 18.16099 36.83991
#
# Velocity S-wave (km/s) = 5.41892 3.09929 4.41420
# Velocity P-wave (km/s) = 7.80959 6.11476 7.01356
#
# Compressibility (1/GPa) = 0.02422136
#
# Stress axis : x y z
#
# Youngs Moduli (GPa) = 62.49121 115.60540 45.82207
#
# Poissons Ratio (x) = 0.33411 0.29827
# Poissons Ratio (y) = 0.18060 0.07917
# Poissons Ratio (z) = 0.40678 0.19975
#
# Static dielectric constant tensor:
#      x y z
#    x 1.691550 0.000000 0.000000 
#    y 0.000000 1.727970 0.000000 
#    z 0.000000 0.000000 1.670360 
# 
# From -- ./inp_files/27019.got.cif
#   From: 2010.05.17/outbox.cif.g08.bks.cpg/sg23_14_cif.got.tgz:27019.got - 2010.06.04 12:02:01.
