data_PCOD9330946
_publ_section_title
;
Structure prediction by ZEFSAII (Michael W. Deem and Ramdas Pophale) SiO2 
 PCOD9330946
Probable space group: I 2 2 2
;
_chemical_formula_sum "Si O2"
_cell_formula_units_Z 56
_cell_length_a 23.304222
_cell_length_b 7.419016
_cell_length_c 16.297981
_cell_angle_alpha 90.000000
_cell_angle_beta 90.000000
_cell_angle_gamma 90.000000
_cell_volume 2817.829579
_symmetry_space_group_name_H-M "I 2 2 2"
_symmetry_group_IT_number 23
_symmetry_cell_setting 'orthorhombic'
loop_
_space_group_symop_operation_xyz
x,y,z
-x,-y,z
x,-y,-z
-x,y,-z
1/2+x,1/2+y,1/2+z
1/2-x,1/2-y,1/2+z
1/2+x,1/2-y,1/2-z
1/2-x,1/2+y,1/2-z
loop_
_atom_site_type_symbol
_atom_site_label
_atom_site_fract_x
_atom_site_fract_y
_atom_site_fract_z
Si Si1 0.157254 0.478046 0.902232
Si Si2 0.127106 0.836114 0.677965
Si Si3 0.773445 0.229258 0.803393
Si Si4 0.795668 0.898995 0.923161
Si Si5 0.142935 0.254337 0.672286
Si Si6 0.066512 0.458987 0.230012
Si Si7 0.320423 0.714022 0.010659
O O1 0.206008 0.601791 0.859040
O O2 0.168460 0.267199 0.889326
O O3 0.099061 0.536672 0.857152
O O4 0.157197 0.500000 0.000000
O O5 0.186711 0.780841 0.723555
O O6 0.078304 0.731956 0.726757
O O7 0.134096 0.774886 0.584223
O O8 0.120875 0.050425 0.680670
O O9 0.706198 0.238339 0.787816
O O10 0.784174 0.048725 0.855304
O O11 0.737142 0.814314 0.960649
O O12 0.825037 0.000000 0.000000
O O13 0.100750 0.396629 0.713468
O O14 0.155849 0.286513 0.575518
O O15 0.000000 0.500000 0.223688
O O16 0.307562 0.500000 0.000000
#
# Coordination Sequence:
#
# PCOD9330946 Si02
#       7
#     8   8   8   8   8   8   8
#     4  11  22  41  62  93 130 162 214 265 317 386
#     4  10  24  39  63  92 123 162 212 258 322 385
#     4  11  23  35  59  97 131 166 198 251 331 388
#     4  12  20  33  58  93 137 163 196 249 317 395
#     4  11  22  40  62  91 128 166 206 262 323 376
#     4  11  27  45  64  89 122 175 224 265 313 377
#     4  10  21  38  60  92 133 165 197 257 323 390
#
# _framework density 19.873452
#
# number of rings (size 3 to 8) (size 9 to 14) (size 15 to 20)
#    0.000    1.143    2.857    3.857    8.000    0.857 
#    0.000    1.429    0.000    2.571    0.000    0.000 
#    0.000    0.000    0.000    0.000    0.000    0.000 
#
# Total GULP energy -156744.551726 kJ/mol
# GULP energy per Si atom -5598.019705 kJ/mol
# Density = 1.982822 g / cm^3
# Si number density = 19.873452 Si / 1000 Ang^3
#
#
#
# Elastic Constant Matrix: (Units=GPa)
#
#
# Indices 1 2 3 4 5 6 
#
# 1 88.9161 14.3392 14.6663 0.0000 0.0000 0.0000
# 2 14.3392 81.8664 16.2933 0.0000 0.0000 0.0000
# 3 14.6663 16.2933 112.5920 0.0000 0.0000 0.0000
# 4 0.0000 0.0000 0.0000 25.8106 0.0000 0.0000
# 5 0.0000 0.0000 0.0000 0.0000 12.0715 0.0000
# 6 0.0000 0.0000 0.0000 0.0000 0.0000 14.5015
#
#
#
# Elastic Compliance Matrix: (Units=1/GPa)
#
#
# Indices 1 2 3 4 5 6 
#
# 1 0.011747 -0.001805 -0.001269 0.000000 0.000000 0.000000
# 2 -0.001805 0.012855 -0.001625 0.000000 0.000000 0.000000
# 3 -0.001269 -0.001625 0.009282 0.000000 0.000000 0.000000
# 4 0.000000 0.000000 0.000000 0.038744 0.000000 0.000000
# 5 0.000000 0.000000 0.000000 0.000000 0.082840 0.000000
# 6 0.000000 0.000000 0.000000 0.000000 0.000000 0.068958
#
#
# Mechanical properties :
#
#
# Convention : Reuss Voigt Hill
#
# Bulk Modulus (GPa) = 40.84033 41.55246 41.19639
# Shear Modulus (GPa) = 20.66237 26.34842 23.50540
#
# Velocity S-wave (km/s) = 3.22793 3.64512 3.44285
# Velocity P-wave (km/s) = 5.87261 6.21850 6.04803
#
# Compressibility (1/GPa) = 0.02448560
#
# Stress axis : x y z
#
# Youngs Moduli (GPa) = 85.12844 77.79316 107.73437
#
# Poissons Ratio (x) = 0.14041 0.13671
# Poissons Ratio (y) = 0.15365 0.17508
# Poissons Ratio (z) = 0.10803 0.12642
#
# Static dielectric constant tensor:
#      x y z
#    x 1.648640 0.000000 0.000000 
#    y 0.000000 1.736400 0.000000 
#    z 0.000000 0.000000 1.760060 
# 
# From -- ./inp_files/22393.got.cif
#   From: 2010.05.17/outbox.cif.g08.bks.cpg/sg23_12_cif.got.tgz:22393.got - 2010.06.04 12:02:01.
