data_PCOD9330492
_publ_section_title
;
Structure prediction by ZEFSAII (Michael W. Deem and Ramdas Pophale) SiO2 
 PCOD9330492
Probable space group: I 2 2 2
;
_chemical_formula_sum "Si O2"
_cell_formula_units_Z 56
_cell_length_a 8.298592
_cell_length_b 14.571517
_cell_length_c 20.272086
_cell_angle_alpha 90.000000
_cell_angle_beta 90.000000
_cell_angle_gamma 90.000000
_cell_volume 2451.362964
_symmetry_space_group_name_H-M "I 2 2 2"
_symmetry_group_IT_number 23
_symmetry_cell_setting 'orthorhombic'
loop_
_space_group_symop_operation_xyz
x,y,z
-x,-y,z
x,-y,-z
-x,y,-z
1/2+x,1/2+y,1/2+z
1/2-x,1/2-y,1/2+z
1/2+x,1/2-y,1/2-z
1/2-x,1/2+y,1/2-z
loop_
_atom_site_type_symbol
_atom_site_label
_atom_site_fract_x
_atom_site_fract_y
_atom_site_fract_z
Si Si1 0.759368 0.309845 0.658468
Si Si2 0.825908 0.365961 0.849189
Si Si3 0.435036 0.704151 0.262406
Si Si4 0.822172 0.798146 0.530636
Si Si5 0.840793 0.623733 0.914188
Si Si6 0.187949 0.400060 0.479613
Si Si7 0.182111 0.029803 0.299918
O O1 0.611230 0.326052 0.710588
O O2 0.915368 0.271270 0.698421
O O3 0.699068 0.222963 0.616532
O O4 0.792418 0.382846 0.599710
O O5 0.867795 0.268377 0.818897
O O6 0.677620 0.341092 0.896670
O O7 0.797124 0.442354 0.793121
O O8 0.978740 0.396264 0.892235
O O9 0.315656 0.619202 0.246068
O O10 0.706702 0.865024 0.488996
O O11 0.757140 0.692977 0.519482
O O12 0.000000 0.799445 0.500000
O O13 0.723634 0.557199 0.874540
O O14 0.258626 0.500000 0.500000
O O15 0.000000 0.404087 0.500000
O O16 0.000000 0.000000 0.294744
#
# Coordination Sequence:
#
# PCOD9330492 Si02
#       7
#     8   8   8   8   8   8   8
#     4   9  19  38  67  92 134 176 225 279 344 400
#     4  11  22  39  64  94 131 177 218 272 340 400
#     4  10  22  41  64  97 136 179 225 283 343 409
#     4  10  20  37  63  96 128 172 218 271 338 395
#     4   9  20  38  61  89 128 164 214 273 333 401
#     4   9  19  38  65  99 136 175 229 287 334 412
#     4  11  22  39  63  91 127 166 219 275 328 406
#
# _framework density 22.844432999999999
#
# number of rings (size 3 to 8) (size 9 to 14) (size 15 to 20)
#    0.000    2.143    0.000    2.571    0.000    5.143 
#    5.143    2.857   12.571    8.571    0.000    1.000 
#    0.000    0.000    0.000    0.000    0.000    0.000 
#
# Total GULP energy -155940.244778 kJ/mol
# GULP energy per Si atom -5569.294456 kJ/mol
# Density = 2.279244 g / cm^3
# Si number density = 22.844433 Si / 1000 Ang^3
#
#
#
# Elastic Constant Matrix: (Units=GPa)
#
#
# Indices 1 2 3 4 5 6 
#
# 1 66.4869 26.8708 31.3755 0.0000 0.0000 0.0000
# 2 26.8708 116.1573 40.8576 0.0000 0.0000 0.0000
# 3 31.3755 40.8576 89.3033 0.0000 0.0000 0.0000
# 4 0.0000 0.0000 0.0000 28.5065 0.0000 0.0000
# 5 0.0000 0.0000 0.0000 0.0000 21.6891 0.0000
# 6 0.0000 0.0000 0.0000 0.0000 0.0000 25.0630
#
#
#
# Elastic Compliance Matrix: (Units=1/GPa)
#
#
# Indices 1 2 3 4 5 6 
#
# 1 0.018568 -0.002384 -0.005433 0.000000 0.000000 0.000000
# 2 -0.002384 0.010566 -0.003997 0.000000 0.000000 0.000000
# 3 -0.005433 -0.003997 0.014935 0.000000 0.000000 0.000000
# 4 0.000000 0.000000 0.000000 0.035080 0.000000 0.000000
# 5 0.000000 0.000000 0.000000 0.000000 0.046106 0.000000
# 6 0.000000 0.000000 0.000000 0.000000 0.000000 0.039899
#
#
# Mechanical properties :
#
#
# Convention : Reuss Voigt Hill
#
# Bulk Modulus (GPa) = 48.91895 52.23949 50.57922
# Shear Modulus (GPa) = 25.56293 26.57463 26.06878
#
# Velocity S-wave (km/s) = 3.34878 3.41440 3.38175
# Velocity P-wave (km/s) = 6.03430 6.20172 6.11858
#
# Compressibility (1/GPa) = 0.02044198
#
# Stress axis : x y z
#
# Youngs Moduli (GPa) = 53.85633 94.63992 66.95698
#
# Poissons Ratio (x) = 0.22566 0.36375
# Poissons Ratio (y) = 0.12842 0.26760
# Poissons Ratio (z) = 0.29258 0.37823
#
# Static dielectric constant tensor:
#      x y z
#    x 1.899910 0.000000 0.000000 
#    y 0.000000 1.962730 0.000000 
#    z 0.000000 0.000000 1.888230 
# 
# From -- ./inp_files/26264.got.cif
#   From: 2010.05.17/outbox.cif.g08.bks.cpg/sg23_14_cif.got.tgz:26264.got - 2010.06.04 12:02:01.
