data_PCOD9330535
_publ_section_title
;
Structure prediction by ZEFSAII (Michael W. Deem and Ramdas Pophale) SiO2 
 PCOD9330535
Probable space group: I 2 2 2
;
_chemical_formula_sum "Si O2"
_cell_formula_units_Z 48
_cell_length_a 8.700830
_cell_length_b 16.489085
_cell_length_c 16.946385
_cell_angle_alpha 90.000000
_cell_angle_beta 90.000000
_cell_angle_gamma 90.000000
_cell_volume 2431.276257
_symmetry_space_group_name_H-M "I 2 2 2"
_symmetry_group_IT_number 23
_symmetry_cell_setting 'orthorhombic'
loop_
_space_group_symop_operation_xyz
x,y,z
-x,-y,z
x,-y,-z
-x,y,-z
1/2+x,1/2+y,1/2+z
1/2-x,1/2-y,1/2+z
1/2+x,1/2-y,1/2-z
1/2-x,1/2+y,1/2-z
loop_
_atom_site_type_symbol
_atom_site_label
_atom_site_fract_x
_atom_site_fract_y
_atom_site_fract_z
Si Si1 0.101045 0.920341 0.153030
Si Si2 0.434030 0.917931 0.411530
Si Si3 0.430443 0.253807 0.836725
Si Si4 0.936965 0.582557 0.411376
Si Si5 0.060377 0.745712 0.161807
Si Si6 0.599607 0.418767 0.843329
O O1 0.254844 0.924463 0.101753
O O2 0.019772 0.835570 0.130091
O O3 0.137471 0.914199 0.248203
O O4 0.000000 0.000000 0.141950
O O5 0.500000 0.919690 0.500000
O O6 0.493581 0.832706 0.379519
O O7 0.252466 0.921325 0.395831
O O8 0.500000 0.000000 0.371583
O O9 0.481062 0.170785 0.878548
O O10 0.245676 0.258838 0.838416
O O11 0.490112 0.244259 0.748423
O O12 0.504116 0.338083 0.865566
O O13 0.000000 0.500000 0.371379
O O14 0.000000 0.581713 0.500000
O O15 0.500000 0.500000 0.854147
#
# Coordination Sequence:
#
# PCOD9330535 Si02
#       6
#     8   8   8   8   8   8
#     4   9  20  38  61  89 117 150 195 245 295 347
#     4  11  24  40  57  85 123 161 198 241 299 364
#     4  10  21  37  61  89 117 153 198 248 296 350
#     4  10  22  38  55  81 118 156 197 237 289 353
#     4  10  20  38  61  90 119 152 199 248 298 353
#     4  10  21  39  64  92 118 152 199 249 301 357
#
# _framework density 19.742716000000001
#
# number of rings (size 3 to 8) (size 9 to 14) (size 15 to 20)
#    0.000    2.000    0.000    4.000    0.000   10.667 
#    0.000   10.000    0.000    0.000    0.000    0.000 
#    0.000    0.000    0.000    0.000    0.000    0.000 
#
# Total GULP energy -133814.801976 kJ/mol
# GULP energy per Si atom -5575.616749 kJ/mol
# Density = 1.969778 g / cm^3
# Si number density = 19.742716 Si / 1000 Ang^3
#
#
#
# Elastic Constant Matrix: (Units=GPa)
#
#
# Indices 1 2 3 4 5 6 
#
# 1 98.4752 79.8500 41.1154 0.0000 0.0000 0.0000
# 2 79.8500 237.3171 53.4639 0.0000 0.0000 0.0000
# 3 41.1154 53.4639 41.9820 0.0000 0.0000 0.0000
# 4 0.0000 0.0000 0.0000 43.8803 0.0000 0.0000
# 5 0.0000 0.0000 0.0000 0.0000 24.8719 0.0000
# 6 0.0000 0.0000 0.0000 0.0000 0.0000 44.6541
#
#
#
# Elastic Compliance Matrix: (Units=1/GPa)
#
#
# Indices 1 2 3 4 5 6 
#
# 1 0.018607 -0.003023 -0.014374 0.000000 0.000000 0.000000
# 2 -0.003023 0.006400 -0.005190 0.000000 0.000000 0.000000
# 3 -0.014374 -0.005190 0.044507 0.000000 0.000000 0.000000
# 4 0.000000 0.000000 0.000000 0.022789 0.000000 0.000000
# 5 0.000000 0.000000 0.000000 0.000000 0.040206 0.000000
# 6 0.000000 0.000000 0.000000 0.000000 0.000000 0.022394
#
#
# Mechanical properties :
#
#
# Convention : Reuss Voigt Hill
#
# Bulk Modulus (GPa) = 41.08378 80.73699 60.91039
# Shear Modulus (GPa) = 24.01652 36.23759 30.12706
#
# Velocity S-wave (km/s) = 3.49158 4.28891 3.91062
# Velocity P-wave (km/s) = 6.09177 8.09381 7.16308
#
# Compressibility (1/GPa) = 0.02434051
#
# Stress axis : x y z
#
# Youngs Moduli (GPa) = 53.74321 156.24863 22.46856
#
# Poissons Ratio (x) = 0.47226 0.32296
# Poissons Ratio (y) = 0.16244 0.11662
# Poissons Ratio (z) = 0.77249 0.81098
#
# Static dielectric constant tensor:
#      x y z
#    x 1.674760 0.000000 0.000000 
#    y 0.000000 1.755310 0.000000 
#    z 0.000000 0.000000 1.541560 
# 
# From -- ./inp_files/20000.got.cif
#   From: 2010.05.17/outbox.cif.g08.bks.cpg/sg23_10_cif.got.tgz:20000.got - 2010.06.04 12:02:01.
