data_PCOD9330737
_publ_section_title
;
Structure prediction by ZEFSAII (Michael W. Deem and Ramdas Pophale) SiO2 
 PCOD9330737
Probable space group: I 2 2 2
;
_chemical_formula_sum "Si O2"
_cell_formula_units_Z 40
_cell_length_a 8.346804
_cell_length_b 17.140509
_cell_length_c 12.269653
_cell_angle_alpha 90.000000
_cell_angle_beta 90.000000
_cell_angle_gamma 90.000000
_cell_volume 1755.400471
_symmetry_space_group_name_H-M "I 2 2 2"
_symmetry_group_IT_number 23
_symmetry_cell_setting 'orthorhombic'
loop_
_space_group_symop_operation_xyz
x,y,z
-x,-y,z
x,-y,-z
-x,y,-z
1/2+x,1/2+y,1/2+z
1/2-x,1/2-y,1/2+z
1/2+x,1/2-y,1/2-z
1/2-x,1/2+y,1/2-z
loop_
_atom_site_type_symbol
_atom_site_label
_atom_site_fract_x
_atom_site_fract_y
_atom_site_fract_z
Si Si1 0.838952 0.282036 0.946292
Si Si2 0.661540 0.584815 0.944399
Si Si3 0.127872 0.617280 0.734124
Si Si4 0.232404 0.557940 0.280572
Si Si5 0.184586 0.372397 0.506759
O O1 0.847107 0.318975 0.826626
O O2 0.707496 0.214342 0.947457
O O3 0.798424 0.355368 0.023085
O O4 0.000000 0.247193 0.000000
O O5 0.647424 0.584225 0.813851
O O6 0.690836 0.500000 0.000000
O O7 0.500000 0.614045 0.000000
O O8 0.192807 0.530153 0.754858
O O9 0.218369 0.636316 0.621323
O O10 0.935581 0.605039 0.726495
O O11 0.275685 0.571287 0.407484
O O12 0.000000 0.400687 0.500000
#
# Coordination Sequence:
#
# PCOD9330737 Si02
#       5
#     8   8   8   8   8
#     4  12  24  40  63  97 134 174 216 269 335 395
#     4  11  23  40  62  97 128 167 218 274 338 384
#     4  10  21  39  70  95 127 171 225 275 322 391
#     4  10  20  42  68  94 126 170 227 275 322 392
#     4  10  24  42  64  96 132 178 218 273 332 392
#
# _framework density 22.786822000000001
#
# number of rings (size 3 to 8) (size 9 to 14) (size 15 to 20)
#    0.000    1.400    4.000    1.200    2.800    2.800 
#    3.600    0.000    0.000    1.200    0.000    0.000 
#    0.000    0.000    0.000    0.000    0.000    0.000 
#
# Total GULP energy -111526.948956 kJ/mol
# GULP energy per Si atom -5576.347448 kJ/mol
# Density = 2.273496 g / cm^3
# Si number density = 22.786822 Si / 1000 Ang^3
#
#
#
# Elastic Constant Matrix: (Units=GPa)
#
#
# Indices 1 2 3 4 5 6 
#
# 1 29.5521 9.3436 30.9793 0.0000 0.0000 0.0000
# 2 9.3436 43.6119 19.1458 0.0000 0.0000 0.0000
# 3 30.9793 19.1458 203.1434 0.0000 0.0000 -0.0001
# 4 0.0000 0.0000 0.0000 25.9043 0.0000 0.0000
# 5 0.0000 0.0000 0.0000 0.0000 31.7698 0.0000
# 6 0.0000 0.0000 -0.0001 0.0000 0.0000 -18.4069
#
#
#
# Elastic Compliance Matrix: (Units=1/GPa)
#
#
# Indices 1 2 3 4 5 6 
#
# 1 0.041945 -0.006445 -0.005789 0.000000 0.000000 0.000000
# 2 -0.006445 0.024909 -0.001365 0.000000 0.000000 0.000000
# 3 -0.005789 -0.001365 0.005934 0.000000 0.000000 0.000000
# 4 0.000000 0.000000 0.000000 0.038604 0.000000 0.000000
# 5 0.000000 0.000000 0.000000 0.000000 0.031476 0.000000
# 6 0.000000 0.000000 0.000000 0.000000 0.000000 -0.054327
#
#
# Mechanical properties :
#
#
# Convention : Reuss Voigt Hill
#
# Bulk Modulus (GPa) = 21.93433 43.91609 32.92521
# Shear Modulus (GPa) = 38.18653 22.30936 30.24794
#
# Velocity S-wave (km/s) = 4.09811 3.13237 3.64735
# Velocity P-wave (km/s) = 5.66035 5.69181 5.67610
#
# Compressibility (1/GPa) = 0.04559062
#
# Stress axis : x y z
#
# Youngs Moduli (GPa) = 23.84069 40.14539 168.51731
#
# Poissons Ratio (x) = 0.25874 0.97558
# Poissons Ratio (y) = 0.15365 0.22999
# Poissons Ratio (z) = 0.13802 0.05479
#
# Static dielectric constant tensor:
#      x y z
#    x 2.148160 0.000000 0.000000 
#    y 0.000000 1.818500 0.000000 
#    z 0.000000 0.000000 1.948770 
# 
# From -- ./inp_files/8177.got.cif
#   From: 2010.05.17/outbox.cif.g08.bks.cpg/sg23_5_cif.got.tgz:8177.got - 2010.06.04 12:02:01.
