data_PCOD9330928
_publ_section_title
;
Structure prediction by ZEFSAII (Michael W. Deem and Ramdas Pophale) SiO2 
 PCOD9330928
Probable space group: I 2 2 2
;
_chemical_formula_sum "Si O2"
_cell_formula_units_Z 42
_cell_length_a 20.312120
_cell_length_b 5.083398
_cell_length_c 21.909145
_cell_angle_alpha 90.000000
_cell_angle_beta 90.000000
_cell_angle_gamma 90.000000
_cell_volume 2262.219788
_symmetry_space_group_name_H-M "I 2 2 2"
_symmetry_group_IT_number 23
_symmetry_cell_setting 'orthorhombic'
loop_
_space_group_symop_operation_xyz
x,y,z
-x,-y,z
x,-y,-z
-x,y,-z
1/2+x,1/2+y,1/2+z
1/2-x,1/2-y,1/2+z
1/2+x,1/2-y,1/2-z
1/2-x,1/2+y,1/2-z
loop_
_atom_site_type_symbol
_atom_site_label
_atom_site_fract_x
_atom_site_fract_y
_atom_site_fract_z
Si Si1 0.500000 0.000000 0.500000
Si Si2 0.392808 0.170822 0.404992
Si Si3 0.310184 0.347681 0.564979
Si Si4 0.047782 0.246665 0.642348
Si Si5 0.837003 0.746574 0.543993
Si Si6 0.955239 0.744447 0.776302
O O1 0.547019 0.829878 0.454445
O O2 0.351250 0.437900 0.398136
O O3 0.419135 0.142214 0.336571
O O4 0.347787 0.928598 0.427889
O O5 0.312045 0.500000 0.500000
O O6 0.233596 0.296363 0.576745
O O7 0.104936 0.239346 0.592564
O O8 0.079166 0.211972 0.710704
O O9 0.000000 0.500000 0.634757
O O10 0.000000 0.000000 0.634365
O O11 0.848519 0.500000 0.500000
O O12 0.832104 0.000000 0.500000
O O13 0.000000 0.500000 0.759702
O O14 0.000000 0.000000 0.790953
#
# Coordination Sequence:
#
# PCOD9330928 Si02
#       6
#     2   8   8   8   8   8
#     4  12  24  34  60  94 116 150 208 262 268 346
#     4  12  23  36  57  86 118 157 203 244 291 338
#     4  11  22  39  54  81 121 160 191 240 298 356
#     4  10  22  40  63  91 120 151 196 253 306 365
#     4  11  23  40  63  88 119 158 196 246 311 367
#     4  10  21  38  58  84 122 160 195 245 310 356
#
# _framework density 18.565836000000001
#
# number of rings (size 3 to 8) (size 9 to 14) (size 15 to 20)
#    0.000    1.143    2.857    4.571    0.000    3.048 
#    0.000    1.905    0.000    0.000    0.000    0.000 
#    0.000    0.000    0.000    0.000    0.000    0.000 
#
# Total GULP energy -116995.094888 kJ/mol
# GULP energy per Si atom -5571.194995 kJ/mol
# Density = 1.852358 g / cm^3
# Si number density = 18.565836 Si / 1000 Ang^3
#
#
#
# Elastic Constant Matrix: (Units=GPa)
#
#
# Indices 1 2 3 4 5 6 
#
# 1 107.8633 31.7061 72.9684 0.0000 0.0000 0.0000
# 2 31.7061 108.8232 17.1609 0.0000 0.0000 0.0000
# 3 72.9684 17.1609 99.5399 0.0000 0.0000 0.0000
# 4 0.0000 0.0000 0.0000 24.9920 0.0000 0.0000
# 5 0.0000 0.0000 0.0000 0.0000 12.1581 0.0000
# 6 0.0000 0.0000 0.0000 0.0000 0.0000 23.3073
#
#
#
# Elastic Compliance Matrix: (Units=1/GPa)
#
#
# Indices 1 2 3 4 5 6 
#
# 1 0.019639 -0.003548 -0.013785 0.000000 0.000000 0.000000
# 2 -0.003548 0.010087 0.000862 0.000000 0.000000 0.000000
# 3 -0.013785 0.000862 0.020003 0.000000 0.000000 0.000000
# 4 0.000000 0.000000 0.000000 0.040013 0.000000 0.000000
# 5 0.000000 0.000000 0.000000 0.000000 0.082250 0.000000
# 6 0.000000 0.000000 0.000000 0.000000 0.000000 0.042905
#
#
# Mechanical properties :
#
#
# Convention : Reuss Voigt Hill
#
# Bulk Modulus (GPa) = 59.57070 62.21078 60.89074
# Shear Modulus (GPa) = 19.72891 25.05088 22.38989
#
# Velocity S-wave (km/s) = 3.26336 3.67727 3.47648
# Velocity P-wave (km/s) = 6.80847 7.18406 6.99878
#
# Compressibility (1/GPa) = 0.01678678
#
# Stress axis : x y z
#
# Youngs Moduli (GPa) = 50.91790 99.13687 49.99282
#
# Poissons Ratio (x) = 0.35176 0.68916
# Poissons Ratio (y) = 0.18067 -0.04309
# Poissons Ratio (z) = 0.70191 -0.08545
#
# Static dielectric constant tensor:
#      x y z
#    x 1.641660 0.000000 0.000000 
#    y 0.000000 1.697960 0.000000 
#    z 0.000000 0.000000 2.293750 
# 
# From -- ./inp_files/28612.got.cif
#   From: 2010.05.17/outbox.cif.g08.bks.cpg/sg23_15_cif.got.tgz:28612.got - 2010.06.04 12:02:01.
