data_PCOD9330670
_publ_section_title
;
Structure prediction by ZEFSAII (Michael W. Deem and Ramdas Pophale) SiO2 
 PCOD9330670
Probable space group: I 2 2 2
;
_chemical_formula_sum "Si O2"
_cell_formula_units_Z 32
_cell_length_a 10.616727
_cell_length_b 4.795193
_cell_length_c 22.767544
_cell_angle_alpha 90.000000
_cell_angle_beta 90.000000
_cell_angle_gamma 90.000000
_cell_volume 1159.078703
_symmetry_space_group_name_H-M "I 2 2 2"
_symmetry_group_IT_number 23
_symmetry_cell_setting 'orthorhombic'
loop_
_space_group_symop_operation_xyz
x,y,z
-x,-y,z
x,-y,-z
-x,y,-z
1/2+x,1/2+y,1/2+z
1/2-x,1/2-y,1/2+z
1/2+x,1/2-y,1/2-z
1/2-x,1/2+y,1/2-z
loop_
_atom_site_type_symbol
_atom_site_label
_atom_site_fract_x
_atom_site_fract_y
_atom_site_fract_z
Si Si1 0.500000 0.500000 0.805232
Si Si2 0.247898 0.000000 0.000000
Si Si3 0.367582 0.654214 0.384631
Si Si4 0.831582 0.413614 0.768567
Si Si5 0.126539 0.686346 0.608227
O O1 0.444548 0.254348 0.764396
O O2 0.608152 0.529603 0.856452
O O3 0.165606 0.818301 0.953990
O O4 0.336410 0.195052 0.959866
O O5 0.500000 0.500000 0.380870
O O6 0.366784 0.898473 0.337145
O O7 0.248967 0.463835 0.365715
O O8 0.790886 0.716823 0.745837
O O9 0.000000 0.500000 0.615122
#
# Coordination Sequence:
#
# PCOD9330670 Si02
#       5
#     4   4   8   8   8
#     4  12  24  40  71 105 142 190 246 298 376 442
#     4   8  20  38  68  96 138 182 242 294 362 434
#     4  10  20  40  67 102 137 187 233 300 364 437
#     4  12  25  44  70 105 145 189 241 302 367 440
#     4  10  21  41  67  96 138 181 237 297 359 433
#
# _framework density 27.608132999999999
#
# number of rings (size 3 to 8) (size 9 to 14) (size 15 to 20)
#    1.500    0.000    3.750    2.250    0.000    0.000 
#    0.000    2.500    5.500    0.000    0.000    7.000 
#    0.000    0.000    0.000    0.000    0.000    0.000 
#
# Total GULP energy -89262.133279 kJ/mol
# GULP energy per Si atom -5578.883330 kJ/mol
# Density = 2.754530 g / cm^3
# Si number density = 27.608133 Si / 1000 Ang^3
#
#
#
# Elastic Constant Matrix: (Units=GPa)
#
#
# Indices 1 2 3 4 5 6 
#
# 1 211.8133 52.9369 11.2614 0.0000 0.0000 0.0000
# 2 52.9369 137.6049 41.0873 0.0000 0.0000 0.0000
# 3 11.2614 41.0873 224.8888 0.0000 0.0000 0.0000
# 4 0.0000 0.0000 0.0000 30.3916 0.0000 0.0000
# 5 0.0000 0.0000 0.0000 0.0000 36.0045 0.0000
# 6 0.0000 0.0000 0.0000 0.0000 0.0000 56.7583
#
#
#
# Elastic Compliance Matrix: (Units=1/GPa)
#
#
# Indices 1 2 3 4 5 6 
#
# 1 0.005226 -0.002044 0.000112 0.000000 0.000000 0.000000
# 2 -0.002044 0.008486 -0.001448 0.000000 0.000000 0.000000
# 3 0.000112 -0.001448 0.004706 0.000000 0.000000 0.000000
# 4 0.000000 0.000000 0.000000 0.032904 0.000000 0.000000
# 5 0.000000 0.000000 0.000000 0.000000 0.027774 0.000000
# 6 0.000000 0.000000 0.000000 0.000000 0.000000 0.017619
#
#
# Mechanical properties :
#
#
# Convention : Reuss Voigt Hill
#
# Bulk Modulus (GPa) = 85.78408 87.20867 86.49638
# Shear Modulus (GPa) = 46.57225 55.89897 51.23561
#
# Velocity S-wave (km/s) = 4.11165 4.50458 4.31259
# Velocity P-wave (km/s) = 7.32669 7.66235 7.49640
#
# Compressibility (1/GPa) = 0.01165717
#
# Stress axis : x y z
#
# Youngs Moduli (GPa) = 191.35125 117.84393 212.51264
#
# Poissons Ratio (x) = 0.24085 -0.02374
# Poissons Ratio (y) = 0.39108 0.30772
# Poissons Ratio (z) = -0.02138 0.17064
#
# Static dielectric constant tensor:
#      x y z
#    x 2.276810 0.000000 0.000000 
#    y 0.000000 2.174040 0.000000 
#    z 0.000000 0.000000 2.200660 
# 
# From -- ./inp_files/28187.got.cif
#   From: 2010.05.17/outbox.cif.g08.bks.cpg/sg23_15_cif.got.tgz:28187.got - 2010.06.04 12:02:01.
