data_PCOD9330760
_publ_section_title
;
Structure prediction by ZEFSAII (Michael W. Deem and Ramdas Pophale) SiO2 
 PCOD9330760
Probable space group: I 2 2 2
;
_chemical_formula_sum "Si O2"
_cell_formula_units_Z 64
_cell_length_a 18.083451
_cell_length_b 9.029968
_cell_length_c 14.891287
_cell_angle_alpha 90.000000
_cell_angle_beta 90.000000
_cell_angle_gamma 90.000000
_cell_volume 2431.642688
_symmetry_space_group_name_H-M "I 2 2 2"
_symmetry_group_IT_number 23
_symmetry_cell_setting 'orthorhombic'
loop_
_space_group_symop_operation_xyz
x,y,z
-x,-y,z
x,-y,-z
-x,y,-z
1/2+x,1/2+y,1/2+z
1/2-x,1/2-y,1/2+z
1/2+x,1/2-y,1/2-z
1/2-x,1/2+y,1/2-z
loop_
_atom_site_type_symbol
_atom_site_label
_atom_site_fract_x
_atom_site_fract_y
_atom_site_fract_z
Si Si1 0.206595 0.837782 0.067433
Si Si2 0.751235 0.757987 0.632083
Si Si3 0.457815 0.858017 0.265818
Si Si4 0.879087 0.596233 0.414994
Si Si5 0.081965 0.164925 0.674099
Si Si6 0.745191 0.914280 0.307033
Si Si7 0.881991 0.915470 0.429582
Si Si8 0.581716 0.541673 0.649330
O O1 0.289494 0.900501 0.083544
O O2 0.194592 0.703871 0.139473
O O3 0.216814 0.227466 0.034123
O O4 0.143760 0.959535 0.088301
O O5 0.841102 0.765307 0.640102
O O6 0.739338 0.630854 0.705462
O O7 0.725010 0.916455 0.672114
O O8 0.404382 0.924845 0.187993
O O9 0.520584 0.776769 0.206034
O O10 0.423270 0.720635 0.325657
O O11 0.500000 0.000000 0.311124
O O12 0.902752 0.500000 0.500000
O O13 0.910913 0.755439 0.444380
O O14 0.066443 0.051705 0.593780
O O15 0.088304 0.053587 0.758811
O O16 0.824930 0.887871 0.350385
O O17 0.829013 0.000000 0.500000
O O18 0.500000 0.500000 0.612859
#
# Coordination Sequence:
#
# PCOD9330760 Si02
#       8
#     8   8   8   8   8   8   8   8
#     4  11  24  46  79 121 174 226 300 371 449 547
#     4  11  23  42  76 120 173 230 294 367 461 545
#     4  11  26  46  76 114 172 230 294 372 464 556
#     4  11  25  44  67 115 171 209 274 362 448 533
#     4  10  20  45  75 109 160 231 294 351 437 553
#     4  10  21  41  69 114 171 225 282 369 448 533
#     4  10  21  41  69 101 158 224 281 339 430 535
#     4  10  22  49  84 117 162 232 304 374 444 547
#
# _framework density 26.319656999999999
#
# number of rings (size 3 to 8) (size 9 to 14) (size 15 to 20)
#    0.000    1.500    2.500    3.375    3.500    2.250 
#    0.000    3.125    2.750    3.375   13.000    0.000 
#    0.000    0.000    1.500    0.000    0.000    0.000 
#
# Total GULP energy -178622.739962 kJ/mol
# GULP energy per Si atom -5581.960624 kJ/mol
# Density = 2.625975 g / cm^3
# Si number density = 26.319657 Si / 1000 Ang^3
#
#
#
# Elastic Constant Matrix: (Units=GPa)
#
#
# Indices 1 2 3 4 5 6 
#
# 1 120.3692 62.2664 31.9408 0.0000 0.0000 0.0000
# 2 62.2664 197.6179 82.5237 0.0000 0.0000 0.0000
# 3 31.9408 82.5237 152.0392 0.0000 0.0000 0.0000
# 4 0.0000 0.0000 0.0000 51.3154 0.0000 0.0000
# 5 0.0000 0.0000 0.0000 0.0000 14.9192 0.0000
# 6 0.0000 0.0000 0.0000 0.0000 0.0000 49.8005
#
#
#
# Elastic Compliance Matrix: (Units=1/GPa)
#
#
# Indices 1 2 3 4 5 6 
#
# 1 0.009955 -0.002927 -0.000503 0.000000 0.000000 0.000000
# 2 -0.002927 0.007404 -0.003404 0.000000 0.000000 0.000000
# 3 -0.000503 -0.003404 0.008530 0.000000 0.000000 0.000000
# 4 0.000000 0.000000 0.000000 0.019487 0.000000 0.000000
# 5 0.000000 0.000000 0.000000 0.000000 0.067028 0.000000
# 6 0.000000 0.000000 0.000000 0.000000 0.000000 0.020080
#
#
# Mechanical properties :
#
#
# Convention : Reuss Voigt Hill
#
# Bulk Modulus (GPa) = 81.81512 91.49869 86.65691
# Shear Modulus (GPa) = 33.28324 42.76005 38.02164
#
# Velocity S-wave (km/s) = 3.55995 4.03506 3.80493
# Velocity P-wave (km/s) = 6.93183 7.51989 7.23184
#
# Compressibility (1/GPa) = 0.01222268
#
# Stress axis : x y z
#
# Youngs Moduli (GPa) = 100.44999 135.06500 117.22788
#
# Poissons Ratio (x) = 0.39530 0.05895
# Poissons Ratio (y) = 0.29399 0.39902
# Poissons Ratio (z) = 0.05051 0.45973
#
# Static dielectric constant tensor:
#      x y z
#    x 2.208040 0.000000 0.000000 
#    y 0.000000 2.226650 0.000000 
#    z 0.000000 0.000000 2.249680 
# 
# From -- ./inp_files/27187.got.cif
#   From: 2010.05.17/outbox.cif.g08.bks.cpg/sg23_14_cif.got.tgz:27187.got - 2010.06.04 12:02:01.
