data_PCOD9330963
_publ_section_title
;
Structure prediction by ZEFSAII (Michael W. Deem and Ramdas Pophale) SiO2 
 PCOD9330963
Probable space group: I 2 2 2
;
_chemical_formula_sum "Si O2"
_cell_formula_units_Z 64
_cell_length_a 9.352095
_cell_length_b 29.077293
_cell_length_c 12.152096
_cell_angle_alpha 90.000000
_cell_angle_beta 90.000000
_cell_angle_gamma 90.000000
_cell_volume 3304.563292
_symmetry_space_group_name_H-M "I 2 2 2"
_symmetry_group_IT_number 23
_symmetry_cell_setting 'orthorhombic'
loop_
_space_group_symop_operation_xyz
x,y,z
-x,-y,z
x,-y,-z
-x,y,-z
1/2+x,1/2+y,1/2+z
1/2-x,1/2-y,1/2+z
1/2+x,1/2-y,1/2-z
1/2-x,1/2+y,1/2-z
loop_
_atom_site_type_symbol
_atom_site_label
_atom_site_fract_x
_atom_site_fract_y
_atom_site_fract_z
Si Si1 0.668091 0.944546 0.489147
Si Si2 0.350603 0.765194 0.047292
Si Si3 0.171066 0.009957 0.122574
Si Si4 0.344401 0.410220 0.776715
Si Si5 0.258015 0.167499 0.766559
Si Si6 0.183335 0.071007 0.716107
Si Si7 0.058556 0.808550 0.725094
Si Si8 0.103535 0.730321 0.899129
O O1 0.500000 0.932750 0.500000
O O2 0.744862 0.925702 0.378789
O O3 0.751031 0.925923 0.595308
O O4 0.680248 0.000000 0.500000
O O5 0.275708 0.803745 0.121911
O O6 0.382282 0.721701 0.125641
O O7 0.500000 0.782813 0.000000
O O8 0.252038 0.747014 0.950521
O O9 0.197837 0.061130 0.167830
O O10 0.221828 0.975170 0.217978
O O11 0.000000 0.000000 0.116956
O O12 0.227474 0.000000 0.000000
O O13 0.511026 0.425028 0.795560
O O14 0.350947 0.355232 0.760846
O O15 0.250257 0.113353 0.783890
O O16 0.375640 0.187634 0.683029
O O17 0.105528 0.177479 0.709420
O O18 0.054631 0.774156 0.828407
O O19 0.000000 0.719813 0.000000
#
# Coordination Sequence:
#
# PCOD9330963 Si02
#       8
#     8   8   8   8   8   8   8   8
#     4  11  23  39  60  86 127 160 194 250 310 369
#     4  11  22  39  60  82 123 163 199 251 306 360
#     4   9  18  35  60  91 120 152 196 258 305 353
#     4  10  21  38  63  92 117 159 207 250 308 363
#     4  10  22  38  59  91 118 156 207 252 303 366
#     4  10  21  38  63  90 121 154 209 255 300 368
#     4  10  22  38  59  91 118 155 207 253 298 369
#     4  11  22  39  61  83 120 164 200 249 307 364
#
# _framework density 19.367158
#
# number of rings (size 3 to 8) (size 9 to 14) (size 15 to 20)
#    0.000    1.750    3.750    0.375    1.750    2.000 
#    4.500    0.000    0.000    0.750    0.000    0.000 
#    0.000    0.000    0.000    0.000    0.000    0.000 
#
# Total GULP energy -178503.526561 kJ/mol
# GULP energy per Si atom -5578.235205 kJ/mol
# Density = 1.932308 g / cm^3
# Si number density = 19.367158 Si / 1000 Ang^3
#
#
#
# Elastic Constant Matrix: (Units=GPa)
#
#
# Indices 1 2 3 4 5 6 
#
# 1 49.8979 12.7334 8.2338 0.0000 0.0000 0.0000
# 2 12.7334 91.3785 14.3261 0.0000 0.0000 0.0000
# 3 8.2338 14.3261 71.8116 0.0003 0.0004 0.0002
# 4 0.0000 0.0000 0.0003 14.2752 0.0001 0.0001
# 5 0.0000 0.0000 0.0004 0.0001 16.2731 0.0001
# 6 0.0000 0.0000 0.0002 0.0001 0.0001 19.0933
#
#
#
# Elastic Compliance Matrix: (Units=1/GPa)
#
#
# Indices 1 2 3 4 5 6 
#
# 1 0.021024 -0.002634 -0.001885 0.000000 0.000000 0.000000
# 2 -0.002634 0.011627 -0.002017 0.000000 0.000000 0.000000
# 3 -0.001885 -0.002017 0.014544 0.000000 0.000000 0.000000
# 4 0.000000 0.000000 0.000000 0.070052 0.000000 0.000000
# 5 0.000000 0.000000 0.000000 0.000000 0.061451 0.000000
# 6 0.000000 0.000000 0.000000 0.000000 0.000000 0.052374
#
#
# Mechanical properties :
#
#
# Convention : Reuss Voigt Hill
#
# Bulk Modulus (GPa) = 29.30695 31.51937 30.41316
# Shear Modulus (GPa) = 19.56798 21.78129 20.67464
#
# Velocity S-wave (km/s) = 3.18208 3.35722 3.27082
# Velocity P-wave (km/s) = 5.35406 5.59802 5.47740
#
# Compressibility (1/GPa) = 0.03412159
#
# Stress axis : x y z
#
# Youngs Moduli (GPa) = 47.56426 86.00779 68.75709
#
# Poissons Ratio (x) = 0.22656 0.12961
# Poissons Ratio (y) = 0.12529 0.13872
# Poissons Ratio (z) = 0.08966 0.17352
#
# Static dielectric constant tensor:
#      x y z
#    x 1.675750 0.000000 0.000000 
#    y 0.000000 1.748600 0.000000 
#    z 0.000000 0.000000 1.652330 
# 
# From -- ./inp_files/14991.got.cif
#   From: 2010.05.17/outbox.cif.g08.bks.cpg/sg23_8_cif.got.tgz:14991.got - 2010.06.04 12:02:01.
