data_PCOD9330504
_publ_section_title
;
Structure prediction by ZEFSAII (Michael W. Deem and Ramdas Pophale) SiO2 
 PCOD9330504
Probable space group: I 2 2 2
;
_chemical_formula_sum "Si O2"
_cell_formula_units_Z 58
_cell_length_a 23.991216
_cell_length_b 8.679740
_cell_length_c 12.084065
_cell_angle_alpha 90.000000
_cell_angle_beta 90.000000
_cell_angle_gamma 90.000000
_cell_volume 2516.355693
_symmetry_space_group_name_H-M "I 2 2 2"
_symmetry_group_IT_number 23
_symmetry_cell_setting 'orthorhombic'
loop_
_space_group_symop_operation_xyz
x,y,z
-x,-y,z
x,-y,-z
-x,y,-z
1/2+x,1/2+y,1/2+z
1/2-x,1/2-y,1/2+z
1/2+x,1/2-y,1/2-z
1/2-x,1/2+y,1/2-z
loop_
_atom_site_type_symbol
_atom_site_label
_atom_site_fract_x
_atom_site_fract_y
_atom_site_fract_z
Si Si1 0.146491 0.892875 0.605737
Si Si2 0.565772 0.355633 0.299327
Si Si3 0.750704 0.093812 0.895650
Si Si4 0.031790 0.654853 0.264881
Si Si5 0.207853 0.641964 0.753021
Si Si6 0.610402 0.021401 0.374537
Si Si7 0.500000 0.500000 0.500000
Si Si8 0.880226 0.342422 0.445306
O O1 0.109655 0.938233 0.715104
O O2 0.189009 0.764441 0.657974
O O3 0.105911 0.786612 0.534215
O O4 0.168041 0.000000 0.500000
O O5 0.509694 0.297023 0.238911
O O6 0.590907 0.193129 0.342275
O O7 0.544075 0.432747 0.410674
O O8 0.777991 0.251739 0.857009
O O9 0.685918 0.136797 0.921699
O O10 0.754873 0.967608 0.797228
O O11 0.773541 0.000000 0.000000
O O12 0.060244 0.597620 0.150085
O O13 0.084478 0.690742 0.338740
O O14 0.000000 0.500000 0.304827
O O15 0.162260 0.516214 0.790959
O O16 0.627934 0.000000 0.500000
O O17 0.898679 0.500000 0.500000
#
# Coordination Sequence:
#
# PCOD9330504 Si02
#       8
#     8   8   8   8   8   8   2   8
#     4  11  25  45  66  97 140 180 228 287 346 410
#     4  10  24  41  63  98 133 181 231 271 334 415
#     4  11  24  44  68  97 134 175 224 284 346 416
#     4  10  20  37  68  97 123 167 220 274 328 392
#     4  11  24  44  66 100 133 169 236 277 347 418
#     4  10  20  41  64  95 128 167 228 278 325 402
#     4  12  24  44  56  84 148 184 212 280 328 396
#     4  11  20  42  67  94 135 172 216 286 337 404
#
# _framework density 23.049206999999999
#
# number of rings (size 3 to 8) (size 9 to 14) (size 15 to 20)
#    0.000    1.379    4.138    2.483    3.862    4.966 
#    4.966    0.000    0.000    0.000    0.000    0.000 
#    0.000    0.000    0.000    0.000    0.000    0.000 
#
# Total GULP energy -161437.041174 kJ/mol
# GULP energy per Si atom -5566.794523 kJ/mol
# Density = 2.299675 g / cm^3
# Si number density = 23.049207 Si / 1000 Ang^3
#
#
#
# Elastic Constant Matrix: (Units=GPa)
#
#
# Indices 1 2 3 4 5 6 
#
# 1 42.7919 7.4628 19.4784 0.0000 0.0000 0.0000
# 2 7.4628 29.8875 13.1391 0.0000 0.0000 0.0000
# 3 19.4784 13.1391 88.0346 0.0000 0.0000 0.0000
# 4 0.0000 0.0000 0.0000 37.0969 0.0000 0.0000
# 5 0.0000 0.0000 0.0000 0.0000 -32.0678 0.0000
# 6 0.0000 0.0000 0.0000 0.0000 0.0000 47.2791
#
#
#
# Elastic Compliance Matrix: (Units=1/GPa)
#
#
# Indices 1 2 3 4 5 6 
#
# 1 0.026498 -0.004323 -0.005218 0.000000 0.000000 0.000000
# 2 -0.004323 0.036513 -0.004493 0.000000 0.000000 0.000000
# 3 -0.005218 -0.004493 0.013184 0.000000 0.000000 0.000000
# 4 0.000000 0.000000 0.000000 0.026956 0.000000 0.000000
# 5 0.000000 0.000000 0.000000 0.000000 -0.031184 0.000000
# 6 0.000000 0.000000 0.000000 0.000000 0.000000 0.021151
#
#
# Mechanical properties :
#
#
# Convention : Reuss Voigt Hill
#
# Bulk Modulus (GPa) = 20.77776 26.76386 23.77081
# Shear Modulus (GPa) = 36.43551 18.50390 27.46970
#
# Velocity S-wave (km/s) = 3.98020 2.83645 3.45597
# Velocity P-wave (km/s) = 5.49152 4.72907 5.12449
#
# Compressibility (1/GPa) = 0.04812838
#
# Stress axis : x y z
#
# Youngs Moduli (GPa) = 37.73895 27.38721 75.84815
#
# Poissons Ratio (x) = 0.11838 0.39575
# Poissons Ratio (y) = 0.16313 0.34080
# Poissons Ratio (z) = 0.19691 0.12306
#
# Static dielectric constant tensor:
#      x y z
#    x 2.010410 0.000000 0.000000 
#    y 0.000000 1.943060 0.000000 
#    z 0.000000 0.000000 1.681030 
# 
# From -- ./inp_files/18620.got.cif
#   From: 2010.05.17/outbox.cif.g08.bks.cpg/sg23_10_cif.got.tgz:18620.got - 2010.06.04 12:02:01.
