data_PCOD9330427
_publ_section_title
;
Structure prediction by ZEFSAII (Michael W. Deem and Ramdas Pophale) SiO2 
 PCOD9330427
Probable space group: I 2 2 2
;
_chemical_formula_sum "Si O2"
_cell_formula_units_Z 58
_cell_length_a 10.760860
_cell_length_b 9.516083
_cell_length_c 27.997474
_cell_angle_alpha 90.000000
_cell_angle_beta 90.000000
_cell_angle_gamma 90.000000
_cell_volume 2866.975968
_symmetry_space_group_name_H-M "I 2 2 2"
_symmetry_group_IT_number 23
_symmetry_cell_setting 'orthorhombic'
loop_
_space_group_symop_operation_xyz
x,y,z
-x,-y,z
x,-y,-z
-x,y,-z
1/2+x,1/2+y,1/2+z
1/2-x,1/2-y,1/2+z
1/2+x,1/2-y,1/2-z
1/2-x,1/2+y,1/2-z
loop_
_atom_site_type_symbol
_atom_site_label
_atom_site_fract_x
_atom_site_fract_y
_atom_site_fract_z
Si Si1 0.771720 0.896534 0.895797
Si Si2 0.424546 0.219211 0.334070
Si Si3 0.309648 0.083125 0.665385
Si Si4 0.028497 0.655854 0.660441
Si Si5 0.000000 0.000000 0.500000
Si Si6 0.087325 0.867999 0.264014
Si Si7 0.868014 0.731282 0.485399
Si Si8 0.197215 0.291651 0.592293
O O1 0.897539 0.824483 0.877860
O O2 0.668937 0.844485 0.857309
O O3 0.715173 0.843559 0.946082
O O4 0.771589 0.065209 0.896176
O O5 0.567115 0.175103 0.326169
O O6 0.382701 0.288773 0.284669
O O7 0.351146 0.075290 0.343816
O O8 0.213463 0.089477 0.709021
O O9 0.244582 0.157045 0.620620
O O10 0.000000 0.500000 0.679636
O O11 0.988510 0.768380 0.699444
O O12 0.940606 0.677625 0.613735
O O13 0.086451 0.889730 0.528712
O O14 0.000000 0.000000 0.253245
O O15 0.800650 0.737126 0.536287
O O16 0.000000 0.659916 0.500000
#
# Coordination Sequence:
#
# PCOD9330427 Si02
#       8
#     8   8   8   8   2   8   8   8
#     4  11  22  37  65  97 135 174 219 278 347 403
#     4  11  27  43  64  90 129 178 217 275 341 409
#     4  10  26  46  63  92 132 171 222 272 336 417
#     4   9  19  36  59  96 130 165 214 270 339 394
#     4   8  20  32  58 100 130 180 206 288 338 404
#     4  11  25  41  69  94 123 171 222 280 331 408
#     4  10  20  36  63  99 137 172 227 279 345 396
#     4  10  21  39  64  94 133 175 215 287 334 400
#
# _framework density 20.230376
#
# number of rings (size 3 to 8) (size 9 to 14) (size 15 to 20)
#    0.414    1.379    1.379    1.241    9.655    1.655 
#    6.207    0.690    0.000    3.310    0.000    0.000 
#    0.000    0.000    0.000    0.000    0.000    0.000 
#
# Total GULP energy -161906.789320 kJ/mol
# GULP energy per Si atom -5582.992735 kJ/mol
# Density = 2.018433 g / cm^3
# Si number density = 20.230376 Si / 1000 Ang^3
#
#
#
# Elastic Constant Matrix: (Units=GPa)
#
#
# Indices 1 2 3 4 5 6 
#
# 1 65.6150 29.0640 14.7390 0.0000 0.0000 0.0000
# 2 29.0640 87.5944 26.6987 0.0000 0.0000 0.0000
# 3 14.7390 26.6987 89.0527 0.0000 0.0000 0.0000
# 4 0.0000 0.0000 0.0000 11.1936 0.0000 0.0000
# 5 0.0000 0.0000 0.0000 0.0000 9.6864 0.0000
# 6 0.0000 0.0000 0.0000 0.0000 0.0000 21.6071
#
#
#
# Elastic Compliance Matrix: (Units=1/GPa)
#
#
# Indices 1 2 3 4 5 6 
#
# 1 0.018004 -0.005575 -0.001308 0.000000 0.000000 0.000000
# 2 -0.005575 0.014291 -0.003362 0.000000 0.000000 0.000000
# 3 -0.001308 -0.003362 0.012454 0.000000 0.000000 0.000000
# 4 0.000000 0.000000 0.000000 0.089337 0.000000 0.000000
# 5 0.000000 0.000000 0.000000 0.000000 0.103237 0.000000
# 6 0.000000 0.000000 0.000000 0.000000 0.000000 0.046281
#
#
# Mechanical properties :
#
#
# Convention : Reuss Voigt Hill
#
# Bulk Modulus (GPa) = 41.22338 42.58505 41.90422
# Shear Modulus (GPa) = 16.01644 19.94811 17.98228
#
# Velocity S-wave (km/s) = 2.81677 3.14355 2.98464
# Velocity P-wave (km/s) = 5.56778 5.85419 5.71278
#
# Compressibility (1/GPa) = 0.02425808
#
# Stress axis : x y z
#
# Youngs Moduli (GPa) = 55.54414 69.97567 80.29717
#
# Poissons Ratio (x) = 0.39011 0.10506
# Poissons Ratio (y) = 0.30965 0.26994
# Poissons Ratio (z) = 0.07267 0.23524
#
# Static dielectric constant tensor:
#      x y z
#    x 1.758290 0.000000 0.000000 
#    y 0.000000 1.717290 0.000000 
#    z 0.000000 0.000000 1.700310 
# 
# From -- ./inp_files/29452.got.cif
#   From: 2010.05.17/outbox.cif.g08.bks.cpg/sg23_15_cif.got.tgz:29452.got - 2010.06.04 12:02:01.
