data_PCOD9330956
_publ_section_title
;
Structure prediction by ZEFSAII (Michael W. Deem and Ramdas Pophale) SiO2 
 PCOD9330956
Probable space group: I 2 2 2
;
_chemical_formula_sum "Si O2"
_cell_formula_units_Z 40
_cell_length_a 13.659140
_cell_length_b 15.173722
_cell_length_c 7.107099
_cell_angle_alpha 90.000000
_cell_angle_beta 90.000000
_cell_angle_gamma 90.000000
_cell_volume 1473.017290
_symmetry_space_group_name_H-M "I 2 2 2"
_symmetry_group_IT_number 23
_symmetry_cell_setting 'orthorhombic'
loop_
_space_group_symop_operation_xyz
x,y,z
-x,-y,z
x,-y,-z
-x,y,-z
1/2+x,1/2+y,1/2+z
1/2-x,1/2-y,1/2+z
1/2+x,1/2-y,1/2-z
1/2-x,1/2+y,1/2-z
loop_
_atom_site_type_symbol
_atom_site_label
_atom_site_fract_x
_atom_site_fract_y
_atom_site_fract_z
Si Si1 0.084342 0.848425 0.294581
Si Si2 0.123219 0.885021 0.720087
Si Si3 0.083717 0.337007 0.845258
Si Si4 0.805224 0.315275 0.786695
Si Si5 0.310637 0.003090 0.270692
O O1 0.103837 0.890942 0.496654
O O2 0.057973 0.744466 0.287570
O O3 0.194639 0.838740 0.221047
O O4 0.988289 0.891773 0.203836
O O5 0.159922 0.783683 0.746226
O O6 0.203885 0.956103 0.785672
O O7 0.111376 0.421859 0.729272
O O8 0.175898 0.319357 0.987433
O O9 0.000000 0.349073 0.000000
O O10 0.849449 0.407215 0.710777
O O11 0.306091 0.000000 0.500000
#
# Coordination Sequence:
#
# PCOD9330956 Si02
#       5
#     8   8   8   8   8
#     4  11  21  37  62  88 125 159 197 251 302 368
#     4  11  22  38  62  92 122 158 203 249 310 355
#     4  11  21  38  62  90 118 161 207 246 301 362
#     4  11  21  40  62  91 119 161 202 253 306 353
#     4  10  21  38  62  93 117 159 208 250 295 361
#
# _framework density 27.155144
#
# number of rings (size 3 to 8) (size 9 to 14) (size 15 to 20)
#    0.000    1.200    8.000    0.000    0.000    4.400 
#    0.000    1.000    0.000    2.400    0.000    0.000 
#    0.000    0.000    0.000    0.000    0.000    0.000 
#
# Total GULP energy -111443.822333 kJ/mol
# GULP energy per Si atom -5572.191117 kJ/mol
# Density = 2.709334 g / cm^3
# Si number density = 27.155144 Si / 1000 Ang^3
#
#
#
# Elastic Constant Matrix: (Units=GPa)
#
#
# Indices 1 2 3 4 5 6 
#
# 1 87.8704 16.9848 3.0813 0.0000 0.0000 0.0000
# 2 16.9848 135.1761 38.0029 0.0000 0.0000 0.0000
# 3 3.0813 38.0029 78.4425 0.0000 0.0000 0.0000
# 4 0.0000 0.0000 0.0000 18.8568 0.0000 0.0000
# 5 0.0000 0.0000 0.0000 0.0000 0.1093 0.0000
# 6 0.0000 0.0000 0.0000 0.0000 0.0000 -1.3274
#
#
#
# Elastic Compliance Matrix: (Units=1/GPa)
#
#
# Indices 1 2 3 4 5 6 
#
# 1 0.011669 -0.001548 0.000292 0.000000 0.000000 0.000000
# 2 -0.001548 0.008770 -0.004188 0.000000 0.000000 0.000000
# 3 0.000292 -0.004188 0.014766 0.000000 0.000000 0.000000
# 4 0.000000 0.000000 0.000000 0.053031 0.000000 0.000000
# 5 0.000000 0.000000 0.000000 0.000000 9.145733 0.000000
# 6 0.000000 0.000000 0.000000 0.000000 0.000000 -0.753338
#
#
# Mechanical properties :
#
#
# Convention : Reuss Voigt Hill
#
# Bulk Modulus (GPa) = 41.12527 46.40299 43.76413
# Shear Modulus (GPa) = 0.58826 19.75574 10.17200
#
# Velocity S-wave (km/s) = 0.46594 2.70017 1.93753
# Velocity P-wave (km/s) = 3.93280 5.18136 4.59964
#
# Compressibility (1/GPa) = 0.02431595
#
# Stress axis : x y z
#
# Youngs Moduli (GPa) = 85.69390 114.02971 67.72500
#
# Poissons Ratio (x) = 0.17655 -0.01976
# Poissons Ratio (y) = 0.13268 0.28362
# Poissons Ratio (z) = -0.02500 0.47753
#
# Static dielectric constant tensor:
#      x y z
#    x 2.300000 0.000000 0.000000 
#    y 0.000000 2.237130 0.000000 
#    z 0.000000 0.000000 2.183200 
# 
# From -- ./inp_files/9561.got.cif
#   From: 2010.05.17/outbox.cif.g08.bks.cpg/sg23_5_cif.got.tgz:9561.got - 2010.06.04 12:02:01.
