data_PCOD9330115
_publ_section_title
;
Structure prediction by ZEFSAII (Michael W. Deem and Ramdas Pophale) SiO2 
 PCOD9330115
Probable space group: I 2 2 2
;
_chemical_formula_sum "Si O2"
_cell_formula_units_Z 52
_cell_length_a 8.296309
_cell_length_b 21.036716
_cell_length_c 12.997815
_cell_angle_alpha 90.000000
_cell_angle_beta 90.000000
_cell_angle_gamma 90.000000
_cell_volume 2268.470910
_symmetry_space_group_name_H-M "I 2 2 2"
_symmetry_group_IT_number 23
_symmetry_cell_setting 'orthorhombic'
loop_
_space_group_symop_operation_xyz
x,y,z
-x,-y,z
x,-y,-z
-x,y,-z
1/2+x,1/2+y,1/2+z
1/2-x,1/2-y,1/2+z
1/2+x,1/2-y,1/2-z
1/2-x,1/2+y,1/2-z
loop_
_atom_site_type_symbol
_atom_site_label
_atom_site_fract_x
_atom_site_fract_y
_atom_site_fract_z
Si Si1 0.832965 0.300022 0.618974
Si Si2 0.821836 0.149444 0.592396
Si Si3 0.661106 0.284190 0.429505
Si Si4 0.500000 0.500000 0.241263
Si Si5 0.959578 0.657384 0.177824
Si Si6 0.483829 0.634604 0.715015
Si Si7 0.757102 0.449680 0.917297
O O1 0.849900 0.225370 0.593344
O O2 0.797830 0.317278 0.500142
O O3 0.963865 0.321379 0.702494
O O4 0.673538 0.325339 0.682542
O O5 0.638401 0.149247 0.634221
O O6 0.818229 0.104471 0.493075
O O7 0.965833 0.128127 0.666908
O O8 0.500000 0.288644 0.500000
O O9 0.642938 0.212202 0.384838
O O10 0.631982 0.327740 0.332422
O O11 0.483484 0.438723 0.314933
O O12 0.648323 0.509170 0.161340
O O13 0.874319 0.590715 0.155513
O O14 0.823744 0.500000 0.000000
#
# Coordination Sequence:
#
# PCOD9330115 Si02
#       7
#     8   8   8   4   8   8   8
#     4  11  21  40  65  95 127 173 226 284 335 398
#     4  12  22  37  64  96 129 176 217 278 339 398
#     4  10  19  38  64  93 125 170 224 276 329 393
#     4  12  25  44  61 100 134 184 225 274 337 420
#     4  12  22  39  65  93 136 172 225 280 338 405
#     4  11  23  40  65  87 134 172 220 276 331 406
#     4  12  25  40  63  93 139 176 218 271 339 410
#
# _framework density 22.922930000000001
#
# number of rings (size 3 to 8) (size 9 to 14) (size 15 to 20)
#    0.000    0.615    9.231    0.692    0.000    1.231 
#    0.000    4.231    0.000    0.000    0.000    0.000 
#    0.000    0.000    0.000    0.000    0.000    0.000 
#
# Total GULP energy -144766.211692 kJ/mol
# GULP energy per Si atom -5567.931219 kJ/mol
# Density = 2.287076 g / cm^3
# Si number density = 22.922930 Si / 1000 Ang^3
#
#
#
# Elastic Constant Matrix: (Units=GPa)
#
#
# Indices 1 2 3 4 5 6 
#
# 1 48.4893 11.8594 24.7530 0.0000 0.0000 0.0000
# 2 11.8594 110.7758 19.4615 0.0000 0.0000 0.0000
# 3 24.7530 19.4615 102.9011 0.0000 0.0000 0.0000
# 4 0.0000 0.0000 0.0000 34.4958 0.0000 0.0000
# 5 0.0000 0.0000 0.0000 0.0000 23.9580 0.0000
# 6 0.0000 0.0000 0.0000 0.0000 0.0000 25.6320
#
#
#
# Elastic Compliance Matrix: (Units=1/GPa)
#
#
# Indices 1 2 3 4 5 6 
#
# 1 0.023779 -0.001594 -0.005419 0.000000 0.000000 0.000000
# 2 -0.001594 0.009444 -0.001403 0.000000 0.000000 0.000000
# 3 -0.005419 -0.001403 0.011287 0.000000 0.000000 0.000000
# 4 0.000000 0.000000 0.000000 0.028989 0.000000 0.000000
# 5 0.000000 0.000000 0.000000 0.000000 0.041740 0.000000
# 6 0.000000 0.000000 0.000000 0.000000 0.000000 0.039014
#
#
# Mechanical properties :
#
#
# Convention : Reuss Voigt Hill
#
# Bulk Modulus (GPa) = 36.12751 41.59046 38.85898
# Shear Modulus (GPa) = 27.73006 30.55664 29.14335
#
# Velocity S-wave (km/s) = 3.48186 3.65501 3.56949
# Velocity P-wave (km/s) = 5.65324 5.99959 5.82899
#
# Compressibility (1/GPa) = 0.02767974
#
# Stress axis : x y z
#
# Youngs Moduli (GPa) = 42.05387 105.88379 88.59868
#
# Poissons Ratio (x) = 0.16875 0.48009
# Poissons Ratio (y) = 0.06702 0.12429
# Poissons Ratio (z) = 0.22788 0.14853
#
# Static dielectric constant tensor:
#      x y z
#    x 2.048340 0.000000 0.000000 
#    y 0.000000 1.984370 0.000000 
#    z 0.000000 0.000000 1.731100 
# 
# From -- ./inp_files/20165.got.cif
#   From: 2010.05.17/outbox.cif.g08.bks.cpg/sg23_11_cif.got.tgz:20165.got - 2010.06.04 12:02:01.
