data_PCOD9330226
_publ_section_title
;
Structure prediction by ZEFSAII (Michael W. Deem and Ramdas Pophale) SiO2 
 PCOD9330226
Probable space group: I 2 2 2
;
_chemical_formula_sum "Si O2"
_cell_formula_units_Z 64
_cell_length_a 28.105245
_cell_length_b 17.316584
_cell_length_c 5.671687
_cell_angle_alpha 90.000000
_cell_angle_beta 90.000000
_cell_angle_gamma 90.000000
_cell_volume 2760.335400
_symmetry_space_group_name_H-M "I 2 2 2"
_symmetry_group_IT_number 23
_symmetry_cell_setting 'orthorhombic'
loop_
_space_group_symop_operation_xyz
x,y,z
-x,-y,z
x,-y,-z
-x,y,-z
1/2+x,1/2+y,1/2+z
1/2-x,1/2-y,1/2+z
1/2+x,1/2-y,1/2-z
1/2-x,1/2+y,1/2-z
loop_
_atom_site_type_symbol
_atom_site_label
_atom_site_fract_x
_atom_site_fract_y
_atom_site_fract_z
Si Si1 0.818704 0.075042 0.864961
Si Si2 0.057279 0.320006 0.500414
Si Si3 0.056662 0.139128 0.507053
Si Si4 0.773125 0.860168 0.538086
Si Si5 0.588793 0.640800 0.511662
Si Si6 0.592455 0.816670 0.498583
Si Si7 0.712141 0.917291 0.931317
Si Si8 0.309568 0.213264 0.266180
O O1 0.809648 0.082380 0.587991
O O2 0.855148 0.140280 0.939171
O O3 0.764708 0.083424 0.951192
O O4 0.837168 0.000000 0.000000
O O5 0.073489 0.229315 0.504416
O O6 0.078413 0.351849 0.252446
O O7 0.000000 0.322466 0.500000
O O8 0.073390 0.353551 0.754164
O O9 0.070985 0.102805 0.255678
O O10 0.000000 0.139553 0.500000
O O11 0.075076 0.106736 0.757191
O O12 0.730404 0.906320 0.666027
O O13 0.742536 0.803639 0.371863
O O14 0.805505 0.800617 0.680789
O O15 0.570559 0.729401 0.506039
O O16 0.648549 0.806389 0.448120
O O17 0.684816 0.845317 0.044060
O O18 0.690516 0.000000 0.000000
#
# Coordination Sequence:
#
# PCOD9330226 Si02
#       8
#     8   8   8   8   8   8   8   8
#     4  10  24  39  57  82 114 160 211 269 316 370
#     4   9  18  33  52  81 119 158 193 246 315 378
#     4   9  18  33  53  78 110 149 194 252 322 389
#     4  11  23  40  63  85 129 167 220 265 327 387
#     4  10  20  33  55  83 109 150 204 262 314 377
#     4  10  21  31  56  85 119 156 205 252 306 379
#     4  10  23  42  60  87 121 170 210 258 323 382
#     4  11  23  35  61  93 123 171 212 268 320 388
#
# _framework density 23.185587000000002
#
# number of rings (size 3 to 8) (size 9 to 14) (size 15 to 20)
#    0.000    2.000    1.250    1.500   10.500    7.500 
#    0.000    0.000    0.000    2.250    0.000    0.000 
#    0.000    0.500    0.750    0.000    0.250    0.000 
#
# Total GULP energy -178288.518599 kJ/mol
# GULP energy per Si atom -5571.516206 kJ/mol
# Density = 2.313282 g / cm^3
# Si number density = 23.185587 Si / 1000 Ang^3
#
#
#
# Elastic Constant Matrix: (Units=GPa)
#
#
# Indices 1 2 3 4 5 6 
#
# 1 62.3839 1.7271 44.4680 0.0000 0.0000 0.0000
# 2 1.7271 39.2798 32.3460 0.0000 0.0000 0.0000
# 3 44.4680 32.3460 199.4840 0.0000 0.0000 0.0000
# 4 0.0000 0.0000 0.0000 9.5286 0.0000 0.0000
# 5 0.0000 0.0000 0.0000 0.0000 46.4602 0.0000
# 6 0.0000 0.0000 0.0000 0.0000 0.0000 2.0748
#
#
#
# Elastic Compliance Matrix: (Units=1/GPa)
#
#
# Indices 1 2 3 4 5 6 
#
# 1 0.019384 0.003123 -0.004827 0.000000 0.000000 0.000000
# 2 0.003123 0.029885 -0.005542 0.000000 0.000000 0.000000
# 3 -0.004827 -0.005542 0.006988 0.000000 0.000000 0.000000
# 4 0.000000 0.000000 0.000000 0.104947 0.000000 0.000000
# 5 0.000000 0.000000 0.000000 0.000000 0.021524 0.000000
# 6 0.000000 0.000000 0.000000 0.000000 0.000000 0.481968
#
#
# Mechanical properties :
#
#
# Convention : Reuss Voigt Hill
#
# Bulk Modulus (GPa) = 23.94410 50.91443 37.42926
# Shear Modulus (GPa) = 7.21387 26.45316 16.83351
#
# Velocity S-wave (km/s) = 1.76582 3.38143 2.69742
# Velocity P-wave (km/s) = 3.80881 6.10349 5.08722
#
# Compressibility (1/GPa) = 0.04176394
#
# Stress axis : x y z
#
# Youngs Moduli (GPa) = 51.58789 33.46194 143.10947
#
# Poissons Ratio (x) = -0.10450 0.69085
# Poissons Ratio (y) = -0.16111 0.79310
# Poissons Ratio (z) = 0.24904 0.18544
#
# Static dielectric constant tensor:
#      x y z
#    x 1.850630 0.000000 0.000000 
#    y 0.000000 1.888980 0.000000 
#    z 0.000000 0.000000 2.127860 
# 
# From -- ./inp_files/5458.got.cif
#   From: 2010.05.17/outbox.cif.g08.bks.cpg/sg23_3_cif.got.tgz:5458.got - 2010.06.04 12:02:01.
