data_PCOD9330922
_publ_section_title
;
Structure prediction by ZEFSAII (Michael W. Deem and Ramdas Pophale) SiO2 
 PCOD9330922
Probable space group: I 2 2 2
;
_chemical_formula_sum "Si O2"
_cell_formula_units_Z 48
_cell_length_a 17.841129
_cell_length_b 5.428386
_cell_length_c 21.321722
_cell_angle_alpha 90.000000
_cell_angle_beta 90.000000
_cell_angle_gamma 90.000000
_cell_volume 2064.977537
_symmetry_space_group_name_H-M "I 2 2 2"
_symmetry_group_IT_number 23
_symmetry_cell_setting 'orthorhombic'
loop_
_space_group_symop_operation_xyz
x,y,z
-x,-y,z
x,-y,-z
-x,y,-z
1/2+x,1/2+y,1/2+z
1/2-x,1/2-y,1/2+z
1/2+x,1/2-y,1/2-z
1/2-x,1/2+y,1/2-z
loop_
_atom_site_type_symbol
_atom_site_label
_atom_site_fract_x
_atom_site_fract_y
_atom_site_fract_z
Si Si1 0.845999 0.449588 0.564223
Si Si2 0.680431 0.218419 0.673083
Si Si3 0.979136 0.244999 0.108868
Si Si4 0.166608 0.468659 0.302260
Si Si5 0.752749 0.056200 0.434554
Si Si6 0.460470 0.743509 0.252412
O O1 0.890868 0.500000 0.500000
O O2 0.877431 0.510234 0.632859
O O3 0.815683 0.166252 0.565325
O O4 0.782624 0.666141 0.559488
O O5 0.604956 0.279177 0.635769
O O6 0.748900 0.408940 0.677527
O O7 0.712037 0.990579 0.631320
O O8 0.663193 0.157757 0.745249
O O9 0.000000 0.500000 0.076976
O O10 0.031090 0.247359 0.172241
O O11 0.000000 0.000000 0.072893
O O12 0.124664 0.239327 0.270146
O O13 0.709333 0.000000 0.500000
O O14 0.500000 0.500000 0.228584
O O15 0.500000 0.000000 0.232900
#
# Coordination Sequence:
#
# PCOD9330922 Si02
#       6
#     8   8   8   8   8   8
#     4   9  19  36  55  82 120 154 182 231 299 346
#     4  11  22  34  59  94 115 146 199 252 278 332
#     4  10  21  38  53  76 116 160 180 220 295 354
#     4  11  22  34  59  94 115 146 199 252 278 332
#     4   9  19  36  55  82 120 154 182 231 299 346
#     4  10  21  38  53  76 116 160 180 220 295 354
#
# _framework density 23.244804999999999
#
# number of rings (size 3 to 8) (size 9 to 14) (size 15 to 20)
#    0.000    2.000    3.333    1.000    4.667    5.333 
#    0.000    0.000    0.000    1.000    0.000    4.667 
#    0.000    0.000    0.000    0.000    0.000    0.000 
#
# Total GULP energy -133634.328116 kJ/mol
# GULP energy per Si atom -5568.097005 kJ/mol
# Density = 2.319190 g / cm^3
# Si number density = 23.244805 Si / 1000 Ang^3
#
#
#
# Elastic Constant Matrix: (Units=GPa)
#
#
# Indices 1 2 3 4 5 6 
#
# 1 47.4037 30.0014 -2.7377 0.0000 0.0000 0.0000
# 2 30.0014 162.4290 1.4624 0.0000 0.0000 0.0000
# 3 -2.7377 1.4624 123.2077 0.0000 0.0000 0.0000
# 4 0.0000 0.0000 0.0000 -87.6516 0.0000 0.0000
# 5 0.0000 0.0000 0.0000 0.0000 -10.7877 0.0000
# 6 0.0000 0.0000 0.0000 0.0000 0.0000 17.9268
#
#
#
# Elastic Compliance Matrix: (Units=1/GPa)
#
#
# Indices 1 2 3 4 5 6 
#
# 1 0.023930 -0.004425 0.000584 0.000000 0.000000 0.000000
# 2 -0.004425 0.006976 -0.000181 0.000000 0.000000 0.000000
# 3 0.000584 -0.000181 0.008132 0.000000 0.000000 0.000000
# 4 0.000000 0.000000 0.000000 -0.011409 0.000000 0.000000
# 5 0.000000 0.000000 0.000000 0.000000 -0.092698 0.000000
# 6 0.000000 0.000000 0.000000 0.000000 0.000000 0.055783
#
#
# Mechanical properties :
#
#
# Convention : Reuss Voigt Hill
#
# Bulk Modulus (GPa) = 32.26569 43.38806 37.82688
# Shear Modulus (GPa) = 550.22046 4.18512 277.20279
#
# Velocity S-wave (km/s) = 15.40197 1.34327 10.93218
# Velocity P-wave (km/s) = 18.17155 4.59478 13.25363
#
# Compressibility (1/GPa) = 0.03099268
#
# Stress axis : x y z
#
# Youngs Moduli (GPa) = 41.78889 143.35842 122.97846
#
# Poissons Ratio (x) = 0.63439 -0.07185
# Poissons Ratio (y) = 0.18492 0.02227
# Poissons Ratio (z) = -0.02442 0.02597
#
# Static dielectric constant tensor:
#      x y z
#    x 1.949560 0.000000 0.000000 
#    y 0.000000 1.985640 0.000000 
#    z 0.000000 0.000000 1.928230 
# 
# From -- ./inp_files/3367.got.cif
#   From: 2010.05.17/outbox.cif.g08.bks.cpg/sg23_2_cif.got.tgz:3367.got - 2010.06.04 12:02:01.
