data_PCOD9330829
_publ_section_title
;
Structure prediction by ZEFSAII (Michael W. Deem and Ramdas Pophale) SiO2 
 PCOD9330829
Probable space group: I 2 2 2
;
_chemical_formula_sum "Si O2"
_cell_formula_units_Z 64
_cell_length_a 5.274877
_cell_length_b 22.673603
_cell_length_c 26.188338
_cell_angle_alpha 90.000000
_cell_angle_beta 90.000000
_cell_angle_gamma 90.000000
_cell_volume 3132.137454
_symmetry_space_group_name_H-M "I 2 2 2"
_symmetry_group_IT_number 23
_symmetry_cell_setting 'orthorhombic'
loop_
_space_group_symop_operation_xyz
x,y,z
-x,-y,z
x,-y,-z
-x,y,-z
1/2+x,1/2+y,1/2+z
1/2-x,1/2-y,1/2+z
1/2+x,1/2-y,1/2-z
1/2-x,1/2+y,1/2-z
loop_
_atom_site_type_symbol
_atom_site_label
_atom_site_fract_x
_atom_site_fract_y
_atom_site_fract_z
Si Si1 0.753789 0.461960 0.302682
Si Si2 0.082836 0.746219 0.305723
Si Si3 0.533863 0.566326 0.802778
Si Si4 0.740496 0.318494 0.468881
Si Si5 0.885117 0.846304 0.146443
Si Si6 0.752571 0.349615 0.735106
Si Si7 0.140946 0.832772 0.615966
Si Si8 0.643200 0.819748 0.550575
O O1 0.500000 0.500000 0.313805
O O2 0.727929 0.441461 0.243974
O O3 0.772475 0.402711 0.334796
O O4 0.000000 0.500000 0.310691
O O5 0.002671 0.688168 0.274226
O O6 0.915957 0.773057 0.351683
O O7 0.325688 0.720030 0.334046
O O8 0.098556 0.799422 0.266344
O O9 0.500000 0.500000 0.823252
O O10 0.291122 0.594299 0.771808
O O11 0.621619 0.612277 0.845215
O O12 0.500000 0.340614 0.500000
O O13 0.686290 0.342992 0.412628
O O14 0.713358 0.247587 0.463701
O O15 0.000000 0.331010 0.500000
O O16 0.143247 0.859927 0.178176
O O17 0.418183 0.826022 0.591869
O O18 0.910665 0.841765 0.574785
O O19 0.500000 0.845384 0.500000
#
# Coordination Sequence:
#
# PCOD9330829 Si02
#       8
#     8   8   8   8   8   8   8   8
#     4  10  24  43  62  90 123 165 212 249 298 367
#     4  11  21  33  56  91 123 157 196 243 311 370
#     4   9  22  41  61  90 125 170 208 250 298 364
#     4  11  24  40  61  93 127 159 205 257 314 374
#     4  11  23  37  62  86 120 166 197 256 306 372
#     4  10  21  36  55  90 127 159 198 248 301 375
#     4  11  23  38  62  90 125 161 202 254 306 372
#     4  11  22  40  61  88 122 159 202 253 316 369
#
# _framework density 20.433329000000001
#
# number of rings (size 3 to 8) (size 9 to 14) (size 15 to 20)
#    0.000    1.500    2.500    2.625    7.000    2.000 
#    0.000    0.000    0.000    4.500    0.000    0.000 
#    0.000    0.000    0.000    0.000    0.000    0.000 
#
# Total GULP energy -178168.889269 kJ/mol
# GULP energy per Si atom -5567.777790 kJ/mol
# Density = 2.038682 g / cm^3
# Si number density = 20.433329 Si / 1000 Ang^3
#
#
#
# Elastic Constant Matrix: (Units=GPa)
#
#
# Indices 1 2 3 4 5 6 
#
# 1 103.8041 23.7233 28.7769 0.0000 0.0000 0.0000
# 2 23.7233 93.3339 22.1611 0.0000 0.0000 0.0000
# 3 28.7769 22.1611 94.2505 0.0000 0.0000 0.0000
# 4 0.0000 0.0000 0.0000 29.6295 0.0000 0.0000
# 5 0.0000 0.0000 0.0000 0.0000 13.1877 0.0000
# 6 0.0000 0.0000 0.0000 0.0000 0.0000 11.4637
#
#
#
# Elastic Compliance Matrix: (Units=1/GPa)
#
#
# Indices 1 2 3 4 5 6 
#
# 1 0.010899 -0.002097 -0.002834 0.000000 0.000000 0.000000
# 2 -0.002097 0.011751 -0.002123 0.000000 0.000000 0.000000
# 3 -0.002834 -0.002123 0.011975 0.000000 0.000000 0.000000
# 4 0.000000 0.000000 0.000000 0.033750 0.000000 0.000000
# 5 0.000000 0.000000 0.000000 0.000000 0.075828 0.000000
# 6 0.000000 0.000000 0.000000 0.000000 0.000000 0.087232
#
#
# Mechanical properties :
#
#
# Convention : Reuss Voigt Hill
#
# Bulk Modulus (GPa) = 48.74328 48.96791 48.85559
# Shear Modulus (GPa) = 19.81119 25.30464 22.55791
#
# Velocity S-wave (km/s) = 3.11714 3.52291 3.32622
# Velocity P-wave (km/s) = 6.07141 6.36903 6.22200
#
# Compressibility (1/GPa) = 0.02051565
#
# Stress axis : x y z
#
# Youngs Moduli (GPa) = 91.75489 85.09696 83.51020
#
# Poissons Ratio (x) = 0.17846 0.23671
# Poissons Ratio (y) = 0.19242 0.17727
# Poissons Ratio (z) = 0.26008 0.18064
#
# Static dielectric constant tensor:
#      x y z
#    x 1.886980 0.000000 0.000000 
#    y 0.000000 1.753990 0.000000 
#    z 0.000000 0.000000 1.856540 
# 
# From -- ./inp_files/29058.got.cif
#   From: 2010.05.17/outbox.cif.g08.bks.cpg/sg23_15_cif.got.tgz:29058.got - 2010.06.04 12:02:01.
