data_PCOD9330705
_publ_section_title
;
Structure prediction by ZEFSAII (Michael W. Deem and Ramdas Pophale) SiO2 
 PCOD9330705
Probable space group: I 2 2 2
;
_chemical_formula_sum "Si O2"
_cell_formula_units_Z 24
_cell_length_a 13.375777
_cell_length_b 6.579917
_cell_length_c 10.921003
_cell_angle_alpha 90.000000
_cell_angle_beta 90.000000
_cell_angle_gamma 90.000000
_cell_volume 961.173883
_symmetry_space_group_name_H-M "I 2 2 2"
_symmetry_group_IT_number 23
_symmetry_cell_setting 'orthorhombic'
loop_
_space_group_symop_operation_xyz
x,y,z
-x,-y,z
x,-y,-z
-x,y,-z
1/2+x,1/2+y,1/2+z
1/2-x,1/2-y,1/2+z
1/2+x,1/2-y,1/2-z
1/2-x,1/2+y,1/2-z
loop_
_atom_site_type_symbol
_atom_site_label
_atom_site_fract_x
_atom_site_fract_y
_atom_site_fract_z
Si Si1 0.674520 0.215627 0.599647
Si Si2 0.326001 0.000000 0.000000
Si Si3 0.143434 0.654831 0.749553
Si Si4 0.000000 0.000000 0.834668
O O1 0.752221 0.302851 0.498957
O O2 0.744243 0.271359 0.718234
O O3 0.577237 0.353464 0.596371
O O4 0.641353 0.987381 0.630916
O O5 0.383284 0.973798 0.127004
O O6 0.070776 0.845564 0.760480
#
# Coordination Sequence:
#
# PCOD9330705 Si02
#       4
#     8   4   8   4
#     4  10  20  41  67  99 147 192 248 310 366 452
#     4   8  20  43  71  96 150 194 246 308 378 452
#     4  10  20  42  68 104 150 194 247 312 372 456
#     4  12  22  39  73 104 148 202 240 314 388 446
#
# _framework density 24.969467999999999
#
# number of rings (size 3 to 8) (size 9 to 14) (size 15 to 20)
#    2.000    0.000    3.333    1.000    0.000    0.667 
#    0.000   20.000    0.000    8.000    0.000    0.000 
#    0.000    0.000    0.000    0.000    0.000    0.000 
#
# Total GULP energy -66940.056539 kJ/mol
# GULP energy per Si atom -5578.338045 kJ/mol
# Density = 2.491264 g / cm^3
# Si number density = 24.969468 Si / 1000 Ang^3
#
#
#
# Elastic Constant Matrix: (Units=GPa)
#
#
# Indices 1 2 3 4 5 6 
#
# 1 141.5789 48.7830 18.2536 0.0000 0.0000 0.0000
# 2 48.7830 162.7258 50.9049 0.0000 0.0000 0.0000
# 3 18.2536 50.9049 97.9772 0.0000 0.0000 0.0000
# 4 0.0000 0.0000 0.0000 37.3833 0.0000 0.0000
# 5 0.0000 0.0000 0.0000 0.0000 22.7207 0.0000
# 6 0.0000 0.0000 0.0000 0.0000 0.0000 54.4057
#
#
#
# Elastic Compliance Matrix: (Units=1/GPa)
#
#
# Indices 1 2 3 4 5 6 
#
# 1 0.007884 -0.002273 -0.000288 0.000000 0.000000 0.000000
# 2 -0.002273 0.007994 -0.003730 0.000000 0.000000 0.000000
# 3 -0.000288 -0.003730 0.012198 0.000000 0.000000 0.000000
# 4 0.000000 0.000000 0.000000 0.026750 0.000000 0.000000
# 5 0.000000 0.000000 0.000000 0.000000 0.044013 0.000000
# 6 0.000000 0.000000 0.000000 0.000000 0.000000 0.018380
#
#
# Mechanical properties :
#
#
# Convention : Reuss Voigt Hill
#
# Bulk Modulus (GPa) = 64.54205 70.90724 67.72464
# Shear Modulus (GPa) = 37.04696 41.85795 39.45246
#
# Velocity S-wave (km/s) = 3.85605 4.09879 3.97927
# Velocity P-wave (km/s) = 6.76240 7.13157 6.94943
#
# Compressibility (1/GPa) = 0.01549378
#
# Stress axis : x y z
#
# Youngs Moduli (GPa) = 126.84527 125.10063 81.98222
#
# Poissons Ratio (x) = 0.28441 0.02358
# Poissons Ratio (y) = 0.28838 0.30576
# Poissons Ratio (z) = 0.03648 0.46657
#
# Static dielectric constant tensor:
#      x y z
#    x 1.906460 0.000000 0.000000 
#    y 0.000000 2.042000 0.000000 
#    z 0.000000 0.000000 2.131890 
# 
# From -- ./inp_files/1158.got.cif
#   From: 2010.05.17/outbox.cif.g08.bks.cpg/sg23_1_cif.got.tgz:1158.got - 2010.06.04 12:02:01.
