data_PCOD9330499
_publ_section_title
;
Structure prediction by ZEFSAII (Michael W. Deem and Ramdas Pophale) SiO2 
 PCOD9330499
Probable space group: I 2 2 2
;
_chemical_formula_sum "Si O2"
_cell_formula_units_Z 52
_cell_length_a 12.301561
_cell_length_b 17.315559
_cell_length_c 10.309002
_cell_angle_alpha 90.000000
_cell_angle_beta 90.000000
_cell_angle_gamma 90.000000
_cell_volume 2195.904076
_symmetry_space_group_name_H-M "I 2 2 2"
_symmetry_group_IT_number 23
_symmetry_cell_setting 'orthorhombic'
loop_
_space_group_symop_operation_xyz
x,y,z
-x,-y,z
x,-y,-z
-x,y,-z
1/2+x,1/2+y,1/2+z
1/2-x,1/2-y,1/2+z
1/2+x,1/2-y,1/2-z
1/2-x,1/2+y,1/2-z
loop_
_atom_site_type_symbol
_atom_site_label
_atom_site_fract_x
_atom_site_fract_y
_atom_site_fract_z
Si Si1 0.000000 0.179723 0.500000
Si Si2 0.802593 0.288501 0.583437
Si Si3 0.864895 0.220367 0.855417
Si Si4 0.284269 0.041163 0.367924
Si Si5 0.459261 0.158348 0.362130
Si Si6 0.057252 0.075283 0.278576
Si Si7 0.905877 0.559428 0.340466
O O1 0.898009 0.234436 0.527680
O O2 0.017347 0.126827 0.626767
O O3 0.698921 0.272929 0.491159
O O4 0.840476 0.378713 0.571905
O O5 0.799979 0.263839 0.736956
O O6 0.986089 0.257592 0.855735
O O7 0.885504 0.131481 0.823204
O O8 0.337584 0.126214 0.353056
O O9 0.155875 0.048224 0.369384
O O10 0.321329 0.000000 0.500000
O O11 0.322524 0.989400 0.247080
O O12 0.500000 0.127862 0.500000
O O13 0.524347 0.114968 0.251204
O O14 0.000000 0.000000 0.223934
O O15 0.000000 0.500000 0.381931
#
# Coordination Sequence:
#
# PCOD9330499 Si02
#       7
#     4   8   8   8   8   8   8
#     4  10  23  44  71  96 136 184 246 286 347 424
#     4  10  23  46  72 104 141 184 237 295 362 425
#     4  10  25  45  71 107 140 190 239 298 364 434
#     4  11  21  38  71 105 139 180 236 299 353 418
#     4  10  20  37  67 106 135 175 236 304 352 404
#     4  11  25  44  68  99 139 188 240 287 358 433
#     4   9  20  38  67 106 141 181 229 291 363 427
#
# _framework density 23.680453
#
# number of rings (size 3 to 8) (size 9 to 14) (size 15 to 20)
#    0.000    1.846    1.538    1.154    4.308    7.385 
#    2.769    2.692    0.000    0.000    0.000    0.000 
#    0.000    0.000    0.000    0.000    0.000    0.000 
#
# Total GULP energy -145141.092710 kJ/mol
# GULP energy per Si atom -5582.349720 kJ/mol
# Density = 2.362656 g / cm^3
# Si number density = 23.680453 Si / 1000 Ang^3
#
#
#
# Elastic Constant Matrix: (Units=GPa)
#
#
# Indices 1 2 3 4 5 6 
#
# 1 70.8483 45.2112 29.5558 0.0000 0.0000 0.0000
# 2 45.2112 150.6701 39.9490 0.0000 0.0000 0.0000
# 3 29.5558 39.9490 85.1376 0.0000 0.0000 0.0000
# 4 0.0000 0.0000 0.0000 28.3444 0.0000 0.0000
# 5 0.0000 0.0000 0.0000 0.0000 31.8008 0.0000
# 6 0.0000 0.0000 0.0000 0.0000 0.0000 53.9846
#
#
#
# Elastic Compliance Matrix: (Units=1/GPa)
#
#
# Indices 1 2 3 4 5 6 
#
# 1 0.018818 -0.004471 -0.004435 0.000000 0.000000 0.000000
# 2 -0.004471 0.008642 -0.002503 0.000000 0.000000 0.000000
# 3 -0.004435 -0.002503 0.014460 0.000000 0.000000 0.000000
# 4 0.000000 0.000000 0.000000 0.035280 0.000000 0.000000
# 5 0.000000 0.000000 0.000000 0.000000 0.031446 0.000000
# 6 0.000000 0.000000 0.000000 0.000000 0.000000 0.018524
#
#
# Mechanical properties :
#
#
# Convention : Reuss Voigt Hill
#
# Bulk Modulus (GPa) = 52.34969 59.56534 55.95751
# Shear Modulus (GPa) = 31.97863 35.62197 33.80030
#
# Velocity S-wave (km/s) = 3.67880 3.88271 3.78213
# Velocity P-wave (km/s) = 6.34030 6.73119 6.53867
#
# Compressibility (1/GPa) = 0.01910231
#
# Stress axis : x y z
#
# Youngs Moduli (GPa) = 53.14144 115.71092 69.15718
#
# Poissons Ratio (x) = 0.51731 0.30670
# Poissons Ratio (y) = 0.23758 0.17311
# Poissons Ratio (z) = 0.23567 0.28964
#
# Static dielectric constant tensor:
#      x y z
#    x 1.883750 0.000000 0.000000 
#    y 0.000000 1.931260 0.000000 
#    z 0.000000 0.000000 1.885450 
# 
# From -- ./inp_files/20987.got.cif
#   From: 2010.05.17/outbox.cif.g08.bks.cpg/sg23_11_cif.got.tgz:20987.got - 2010.06.04 12:02:01.
