data_PCOD9330596
_publ_section_title
;
Structure prediction by ZEFSAII (Michael W. Deem and Ramdas Pophale) SiO2 
 PCOD9330596
Probable space group: I 2 2 2
;
_chemical_formula_sum "Si O2"
_cell_formula_units_Z 52
_cell_length_a 26.886459
_cell_length_b 11.230637
_cell_length_c 8.873203
_cell_angle_alpha 90.000000
_cell_angle_beta 90.000000
_cell_angle_gamma 90.000000
_cell_volume 2679.281936
_symmetry_space_group_name_H-M "I 2 2 2"
_symmetry_group_IT_number 23
_symmetry_cell_setting 'orthorhombic'
loop_
_space_group_symop_operation_xyz
x,y,z
-x,-y,z
x,-y,-z
-x,y,-z
1/2+x,1/2+y,1/2+z
1/2-x,1/2-y,1/2+z
1/2+x,1/2-y,1/2-z
1/2-x,1/2+y,1/2-z
loop_
_atom_site_type_symbol
_atom_site_label
_atom_site_fract_x
_atom_site_fract_y
_atom_site_fract_z
Si Si1 0.087783 0.364550 0.841633
Si Si2 0.500000 0.000000 0.500000
Si Si3 0.856103 0.887808 0.332836
Si Si4 0.000000 0.000000 0.500000
Si Si5 0.170393 0.497317 0.677039
Si Si6 0.409806 0.635765 0.868224
Si Si7 0.740195 0.880818 0.401815
Si Si8 0.836710 0.290922 0.901308
O O1 0.116157 0.452945 0.728439
O O2 0.087165 0.239212 0.753572
O O3 0.123386 0.351501 0.987915
O O4 0.035806 0.417504 0.897749
O O5 0.888497 0.827618 0.466529
O O6 0.798477 0.873997 0.377416
O O7 0.860233 0.825458 0.171872
O O8 0.873770 0.024939 0.325139
O O9 0.963818 0.919854 0.601028
O O10 0.175501 0.500000 0.500000
O O11 0.210084 0.405232 0.748895
O O12 0.176681 0.623780 0.760470
O O13 0.712768 0.777801 0.496611
O O14 0.730867 0.000000 0.500000
#
# Coordination Sequence:
#
# PCOD9330596 Si02
#       8
#     8   2   8   2   8   8   8   8
#     4  11  23  44  63  91 119 165 203 266 331 378
#     4  12  24  44  70  88 128 156 218 280 338 402
#     4  10  20  39  62  95 125 174 210 254 305 376
#     4   8  20  44  60  94 116 160 204 270 322 374
#     4  10  20  39  60  88 127 162 207 259 308 369
#     4  10  22  40  68  85 130 159 211 263 318 384
#     4   9  18  37  57  88 127 169 207 248 299 357
#     4  10  21  36  62  85 131 164 204 256 309 371
#
# _framework density 19.408186000000001
#
# number of rings (size 3 to 8) (size 9 to 14) (size 15 to 20)
#    0.000    2.154    3.077    1.846    0.000    6.769 
#    5.538    0.000    0.000    0.000    0.000    0.000 
#    0.000    0.000    0.000    0.000    0.000    0.000 
#
# Total GULP energy -145040.276304 kJ/mol
# GULP energy per Si atom -5578.472166 kJ/mol
# Density = 1.936401 g / cm^3
# Si number density = 19.408186 Si / 1000 Ang^3
#
#
#
# Elastic Constant Matrix: (Units=GPa)
#
#
# Indices 1 2 3 4 5 6 
#
# 1 136.1190 29.6371 48.6734 0.0000 0.0000 0.0000
# 2 29.6371 68.0933 43.5333 0.0000 0.0000 0.0000
# 3 48.6734 43.5333 136.6133 0.0000 0.0000 0.0000
# 4 0.0000 0.0000 0.0000 41.6587 0.0000 0.0000
# 5 0.0000 0.0000 0.0000 0.0000 8.9732 0.0000
# 6 0.0000 0.0000 0.0000 0.0000 0.0000 11.3969
#
#
#
# Elastic Compliance Matrix: (Units=1/GPa)
#
#
# Indices 1 2 3 4 5 6 
#
# 1 0.008688 -0.002264 -0.002374 0.000000 0.000000 0.000000
# 2 -0.002264 0.019033 -0.005259 0.000000 0.000000 0.000000
# 3 -0.002374 -0.005259 0.009841 0.000000 0.000000 0.000000
# 4 0.000000 0.000000 0.000000 0.024005 0.000000 0.000000
# 5 0.000000 0.000000 0.000000 0.000000 0.111443 0.000000
# 6 0.000000 0.000000 0.000000 0.000000 0.000000 0.087743
#
#
# Mechanical properties :
#
#
# Convention : Reuss Voigt Hill
#
# Bulk Modulus (GPa) = 56.27477 64.94590 60.61033
# Shear Modulus (GPa) = 17.45384 27.00453 22.22919
#
# Velocity S-wave (km/s) = 3.00209 3.73419 3.38798
# Velocity P-wave (km/s) = 6.40898 7.21998 6.82653
#
# Compressibility (1/GPa) = 0.01776995
#
# Stress axis : x y z
#
# Youngs Moduli (GPa) = 115.09674 52.54075 101.61053
#
# Poissons Ratio (x) = 0.11894 0.24124
# Poissons Ratio (y) = 0.26054 0.53432
# Poissons Ratio (z) = 0.27326 0.27629
#
# Static dielectric constant tensor:
#      x y z
#    x 1.668070 0.000000 0.000000 
#    y 0.000000 1.741220 0.000000 
#    z 0.000000 0.000000 1.683950 
# 
# From -- ./inp_files/13045.got.cif
#   From: 2010.05.17/outbox.cif.g08.bks.cpg/sg23_7_cif.got.tgz:13045.got - 2010.06.04 12:02:01.
