data_PCOD9330528
_publ_section_title
;
Structure prediction by ZEFSAII (Michael W. Deem and Ramdas Pophale) SiO2 
 PCOD9330528
Probable space group: I 2 2 2
;
_chemical_formula_sum "Si O2"
_cell_formula_units_Z 44
_cell_length_a 32.750455
_cell_length_b 7.870730
_cell_length_c 8.012500
_cell_angle_alpha 90.000000
_cell_angle_beta 90.000000
_cell_angle_gamma 90.000000
_cell_volume 2065.382034
_symmetry_space_group_name_H-M "I 2 2 2"
_symmetry_group_IT_number 23
_symmetry_cell_setting 'orthorhombic'
loop_
_space_group_symop_operation_xyz
x,y,z
-x,-y,z
x,-y,-z
-x,y,-z
1/2+x,1/2+y,1/2+z
1/2-x,1/2-y,1/2+z
1/2+x,1/2-y,1/2-z
1/2-x,1/2+y,1/2-z
loop_
_atom_site_type_symbol
_atom_site_label
_atom_site_fract_x
_atom_site_fract_y
_atom_site_fract_z
Si Si1 0.296991 0.235170 0.601923
Si Si2 0.000000 0.000000 0.762023
Si Si3 0.430063 0.500000 0.500000
Si Si4 0.286227 0.614863 0.749007
Si Si5 0.000000 0.737408 0.500000
Si Si6 0.929260 0.500000 0.500000
Si Si7 0.616059 0.240690 0.260462
Si Si8 0.151254 0.000000 0.500000
O O1 0.292081 0.426353 0.675055
O O2 0.293906 0.255853 0.402686
O O3 0.258704 0.135192 0.676040
O O4 0.340905 0.174425 0.665290
O O5 0.037577 0.928049 0.133739
O O6 0.982337 0.145504 0.644803
O O7 0.405512 0.653602 0.411974
O O8 0.319324 0.626350 0.896052
O O9 0.962085 0.634085 0.572133
O O10 0.905127 0.407888 0.650545
O O11 0.625234 0.389482 0.126675
#
# Coordination Sequence:
#
# PCOD9330528 Si02
#       8
#     8   4   4   8   4   4   8   4
#     4  10  21  37  61  88 127 168 221 275 329 392
#     4  10  22  42  78  92 122 186 228 260 324 446
#     4  11  22  40  68  99 128 170 232 271 330 420
#     4  10  20  38  60  88 121 173 223 272 317 403
#     4  10  22  46  70  98 126 182 220 264 340 426
#     4  11  24  40  66  97 142 162 216 289 346 400
#     4  11  23  40  63  97 135 171 222 285 345 391
#     4  10  22  38  64  87 122 180 234 263 320 416
#
# _framework density 21.303564000000001
#
# number of rings (size 3 to 8) (size 9 to 14) (size 15 to 20)
#    0.000    1.636    1.818    4.364    2.545    2.909 
#    0.000    0.909    0.000    0.000    0.000    0.000 
#    0.000    0.000    0.000    0.000    0.000    0.000 
#
# Total GULP energy -122743.124390 kJ/mol
# GULP energy per Si atom -5579.232927 kJ/mol
# Density = 2.125508 g / cm^3
# Si number density = 21.303564 Si / 1000 Ang^3
#
#
#
# Elastic Constant Matrix: (Units=GPa)
#
#
# Indices 1 2 3 4 5 6 
#
# 1 142.9830 54.5947 73.8255 0.0000 0.0000 0.0000
# 2 54.5947 64.1429 44.1497 0.0000 0.0000 0.0000
# 3 73.8255 44.1497 131.7329 0.0000 0.0000 0.0000
# 4 0.0000 0.0000 0.0000 25.3463 0.0000 0.0000
# 5 0.0000 0.0000 0.0000 0.0000 30.0620 0.0000
# 6 0.0000 0.0000 0.0000 0.0000 0.0000 35.8564
#
#
#
# Elastic Compliance Matrix: (Units=1/GPa)
#
#
# Indices 1 2 3 4 5 6 
#
# 1 0.011969 -0.007241 -0.004281 0.000000 0.000000 0.000000
# 2 -0.007241 0.024645 -0.004202 0.000000 0.000000 0.000000
# 3 -0.004281 -0.004202 0.011398 0.000000 0.000000 0.000000
# 4 0.000000 0.000000 0.000000 0.039453 0.000000 0.000000
# 5 0.000000 0.000000 0.000000 0.000000 0.033265 0.000000
# 6 0.000000 0.000000 0.000000 0.000000 0.000000 0.027889
#
#
# Mechanical properties :
#
#
# Convention : Reuss Voigt Hill
#
# Bulk Modulus (GPa) = 60.36619 75.99985 68.18302
# Shear Modulus (GPa) = 26.94137 29.33888 28.14012
#
# Velocity S-wave (km/s) = 3.56004 3.71507 3.63838
# Velocity P-wave (km/s) = 6.73024 7.35897 7.05162
#
# Compressibility (1/GPa) = 0.01656556
#
# Stress axis : x y z
#
# Youngs Moduli (GPa) = 83.55050 40.57592 87.73103
#
# Poissons Ratio (x) = 0.29379 0.37557
# Poissons Ratio (y) = 0.60496 0.36864
# Poissons Ratio (z) = 0.35767 0.17050
#
# Static dielectric constant tensor:
#      x y z
#    x 1.796030 0.000000 0.000000 
#    y 0.000000 1.810750 0.000000 
#    z 0.000000 0.000000 1.804430 
# 
# From -- ./inp_files/13310.got.cif
#   From: 2010.05.17/outbox.cif.g08.bks.cpg/sg23_7_cif.got.tgz:13310.got - 2010.06.04 12:02:01.
