data_PCOD9330957
_publ_section_title
;
Structure prediction by ZEFSAII (Michael W. Deem and Ramdas Pophale) SiO2 
 PCOD9330957
Probable space group: I 2 2 2
;
_chemical_formula_sum "Si O2"
_cell_formula_units_Z 56
_cell_length_a 14.189593
_cell_length_b 17.101418
_cell_length_c 11.892662
_cell_angle_alpha 90.000000
_cell_angle_beta 90.000000
_cell_angle_gamma 90.000000
_cell_volume 2885.899063
_symmetry_space_group_name_H-M "I 2 2 2"
_symmetry_group_IT_number 23
_symmetry_cell_setting 'orthorhombic'
loop_
_space_group_symop_operation_xyz
x,y,z
-x,-y,z
x,-y,-z
-x,y,-z
1/2+x,1/2+y,1/2+z
1/2-x,1/2-y,1/2+z
1/2+x,1/2-y,1/2-z
1/2-x,1/2+y,1/2-z
loop_
_atom_site_type_symbol
_atom_site_label
_atom_site_fract_x
_atom_site_fract_y
_atom_site_fract_z
Si Si1 0.697422 0.840755 0.088214
Si Si2 0.459241 0.087420 0.239623
Si Si3 0.278465 0.338620 0.133474
Si Si4 0.523242 0.409556 0.878556
Si Si5 0.146058 0.322615 0.330627
Si Si6 0.345530 0.641398 0.234932
Si Si7 0.310525 0.918258 0.568099
O O1 0.622235 0.895860 0.149381
O O2 0.684678 0.750481 0.128168
O O3 0.799722 0.861331 0.141151
O O4 0.676366 0.843676 0.956551
O O5 0.543429 0.146819 0.207577
O O6 0.405233 0.096094 0.359575
O O7 0.500000 0.000000 0.233599
O O8 0.367754 0.394334 0.134936
O O9 0.218679 0.358164 0.242453
O O10 0.212261 0.353502 0.025907
O O11 0.500000 0.500000 0.886696
O O12 0.454152 0.379932 0.781484
O O13 0.500000 0.371153 0.000000
O O14 0.157928 0.229819 0.312191
O O15 0.278115 0.588911 0.154233
O O16 0.314140 0.000000 0.500000
#
# Coordination Sequence:
#
# PCOD9330957 Si02
#       7
#     8   8   8   8   8   8   8
#     4  10  22  41  63  85 127 166 215 258 302 385
#     4  11  25  41  62  94 128 172 214 260 322 385
#     4  11  22  37  64  92 124 164 208 259 322 379
#     4  11  20  34  59  90 119 150 197 254 311 365
#     4  11  22  40  62  89 124 171 210 256 309 380
#     4  10  21  38  62  94 122 163 211 259 320 372
#     4  11  21  39  65  94 132 159 206 274 330 375
#
# _framework density 19.404698
#
# number of rings (size 3 to 8) (size 9 to 14) (size 15 to 20)
#    0.000    1.286    2.857    3.000    0.000    4.286 
#    0.000    0.714    0.000    0.857    0.000    0.000 
#    0.000    0.000    0.000    0.000    0.000    0.000 
#
# Total GULP energy -156214.945391 kJ/mol
# GULP energy per Si atom -5579.105193 kJ/mol
# Density = 1.936053 g / cm^3
# Si number density = 19.404698 Si / 1000 Ang^3
#
#
#
# Elastic Constant Matrix: (Units=GPa)
#
#
# Indices 1 2 3 4 5 6 
#
# 1 88.6003 21.2325 72.0423 0.0000 0.0000 0.0000
# 2 21.2325 41.5723 24.7059 0.0000 0.0000 0.0000
# 3 72.0423 24.7059 111.2992 0.0000 0.0000 0.0000
# 4 0.0000 0.0000 0.0000 182.3332 0.0000 0.0000
# 5 0.0000 0.0000 0.0000 0.0000 3.0808 0.0000
# 6 0.0000 0.0000 0.0000 0.0000 0.0000 14.6243
#
#
#
# Elastic Compliance Matrix: (Units=1/GPa)
#
#
# Indices 1 2 3 4 5 6 
#
# 1 0.024268 -0.003524 -0.014926 0.000000 0.000000 0.000000
# 2 -0.003524 0.028222 -0.003983 0.000000 0.000000 0.000000
# 3 -0.014926 -0.003983 0.019530 0.000000 0.000000 0.000000
# 4 0.000000 0.000000 0.000000 0.005484 0.000000 0.000000
# 5 0.000000 0.000000 0.000000 0.000000 0.324594 0.000000
# 6 0.000000 0.000000 0.000000 0.000000 0.000000 0.068379
#
#
# Mechanical properties :
#
#
# Convention : Reuss Voigt Hill
#
# Bulk Modulus (GPa) = 36.82860 53.04812 44.93836
# Shear Modulus (GPa) = 9.53479 48.24038 28.88759
#
# Velocity S-wave (km/s) = 2.21908 4.99141 3.86254
# Velocity P-wave (km/s) = 5.05828 7.78562 6.56514
#
# Compressibility (1/GPa) = 0.02715281
#
# Stress axis : x y z
#
# Youngs Moduli (GPa) = 41.20731 35.43373 51.20263
#
# Poissons Ratio (x) = 0.12487 0.76424
# Poissons Ratio (y) = 0.14522 0.20396
# Poissons Ratio (z) = 0.61505 0.14115
#
# Static dielectric constant tensor:
#      x y z
#    x 1.587900 0.000000 0.000000 
#    y 0.000000 1.721500 0.000000 
#    z 0.000000 0.000000 1.705180 
# 
# From -- ./inp_files/16803.got.cif
#   From: 2010.05.17/outbox.cif.g08.bks.cpg/sg23_9_cif.got.tgz:16803.got - 2010.06.04 12:02:01.
