data_PCOD9330252
_publ_section_title
;
Structure prediction by ZEFSAII (Michael W. Deem and Ramdas Pophale) SiO2 
 PCOD9330252
Probable space group: I 2 2 2
;
_chemical_formula_sum "Si O2"
_cell_formula_units_Z 48
_cell_length_a 7.603955
_cell_length_b 28.665988
_cell_length_c 10.873947
_cell_angle_alpha 90.000000
_cell_angle_beta 90.000000
_cell_angle_gamma 90.000000
_cell_volume 2370.247323
_symmetry_space_group_name_H-M "I 2 2 2"
_symmetry_group_IT_number 23
_symmetry_cell_setting 'orthorhombic'
loop_
_space_group_symop_operation_xyz
x,y,z
-x,-y,z
x,-y,-z
-x,y,-z
1/2+x,1/2+y,1/2+z
1/2-x,1/2-y,1/2+z
1/2+x,1/2-y,1/2-z
1/2-x,1/2+y,1/2-z
loop_
_atom_site_type_symbol
_atom_site_label
_atom_site_fract_x
_atom_site_fract_y
_atom_site_fract_z
Si Si1 0.212224 0.447570 0.358859
Si Si2 0.288545 0.301591 0.500000
Si Si3 0.212224 0.447570 0.641141
Si Si4 0.211738 0.807932 0.500000
Si Si5 0.792350 0.149336 0.246665
Si Si6 0.792350 0.149336 0.753335
O O1 0.270824 0.438352 0.500000
O O2 0.269901 0.500000 0.325402
O O3 0.271387 0.405834 0.272411
O O4 1.000000 0.447579 0.359939
O O5 0.500000 0.308034 0.500000
O O6 0.250410 0.246890 0.500000
O O7 0.218637 0.325661 0.375623
O O8 0.218637 0.325660 0.624377
O O9 0.271388 0.405834 0.727588
O O10 0.280784 0.831400 0.374743
O O11 0.280784 0.831400 0.625257
O O12 0.000000 0.813850 0.500000
O O13 1.000000 0.159947 0.248132
#
# Coordination Sequence:
#
# PCOD9330252 Si02
#       6
#     8   8   8   8   8   8
#     4   9  18  33  54  80 105 130 167 213 257 303
#     4  10  20  34  53  76 101 133 178 219 247 294
#     4   9  18  33  54  80 105 130 167 213 257 303
#     4  10  22  36  51  74 107 141 170 207 257 306
#     4  10  20  35  53  77 106 135 171 212 253 301
#     4  10  20  35  53  77 106 135 171 212 253 301
#
# _framework density 20.251052999999999
#
# number of rings (size 3 to 8) (size 9 to 14) (size 15 to 20)
#    0.000    2.333    1.667    2.000    0.000    3.333 
#    0.000    2.500    0.000    5.000    0.000    0.000 
#    0.000    0.000    0.000    0.000    0.000    0.000 
#
# Total GULP energy -133987.529334 kJ/mol
# GULP energy per Si atom -5582.813722 kJ/mol
# Density = 2.020496 g / cm^3
# Si number density = 20.251053 Si / 1000 Ang^3
#
#
#
# Elastic Constant Matrix: (Units=GPa)
#
#
# Indices 1 2 3 4 5 6 
#
# 1 39.7786 -16.1083 16.7582 0.0000 0.0000 0.0000
# 2 -16.1083 152.8233 106.2621 -0.0001 0.0000 0.0000
# 3 16.7582 106.2621 181.1143 -0.0002 0.0000 0.0000
# 4 0.0000 -0.0001 -0.0002 -10.6681 0.0000 0.0000
# 5 0.0000 0.0000 0.0000 0.0000 -1.3414 0.0000
# 6 0.0000 0.0000 0.0000 0.0000 0.0000 28.9037
#
#
#
# Elastic Compliance Matrix: (Units=1/GPa)
#
#
# Indices 1 2 3 4 5 6 
#
# 1 0.032477 0.009311 -0.008468 0.000000 0.000000 0.000000
# 2 0.009311 0.013722 -0.008912 0.000000 0.000000 0.000000
# 3 -0.008468 -0.008912 0.011534 0.000000 0.000000 0.000000
# 4 0.000000 0.000000 0.000000 -0.093737 0.000001 0.000000
# 5 0.000000 0.000000 0.000000 0.000001 -0.745498 0.000000
# 6 0.000000 0.000000 0.000000 0.000000 0.000000 0.034598
#
#
# Mechanical properties :
#
#
# Convention : Reuss Voigt Hill
#
# Bulk Modulus (GPa) = 24.04139 65.28222 44.66180
# Shear Modulus (GPa) = -6.97447 21.16578 7.09566
#
# Velocity S-wave (km/s) = -1.85782 3.23642 1.87389
# Velocity P-wave (km/s) = 2.70101 6.80237 5.17531
#
# Compressibility (1/GPa) = 0.04159494
#
# Stress axis : x y z
#
# Youngs Moduli (GPa) = 30.79066 72.87537 86.70029
#
# Poissons Ratio (x) = -0.67857 0.73420
# Poissons Ratio (y) = -0.28671 0.77271
# Poissons Ratio (z) = 0.26074 0.64950
#
# Static dielectric constant tensor:
#      x y z
#    x 1.745860 0.000000 0.000000 
#    y 0.000000 1.682070 0.000000 
#    z 0.000000 0.000000 1.722700 
# 
# From -- ./inp_files/7387.got.cif
#   From: 2010.05.17/outbox.cif.g08.bks.cpg/sg23_4_cif.got.tgz:7387.got - 2010.06.04 12:02:01.
