data_PCOD9330556
_publ_section_title
;
Structure prediction by ZEFSAII (Michael W. Deem and Ramdas Pophale) SiO2 
 PCOD9330556
Probable space group: I 2 2 2
;
_chemical_formula_sum "Si O2"
_cell_formula_units_Z 38
_cell_length_a 26.327065
_cell_length_b 11.316109
_cell_length_c 5.040716
_cell_angle_alpha 90.000000
_cell_angle_beta 90.000000
_cell_angle_gamma 90.000000
_cell_volume 1501.729794
_symmetry_space_group_name_H-M "I 2 2 2"
_symmetry_group_IT_number 23
_symmetry_cell_setting 'orthorhombic'
loop_
_space_group_symop_operation_xyz
x,y,z
-x,-y,z
x,-y,-z
-x,y,-z
1/2+x,1/2+y,1/2+z
1/2-x,1/2-y,1/2+z
1/2+x,1/2-y,1/2-z
1/2-x,1/2+y,1/2-z
loop_
_atom_site_type_symbol
_atom_site_label
_atom_site_fract_x
_atom_site_fract_y
_atom_site_fract_z
Si Si1 0.942262 0.810998 0.589874
Si Si2 0.083907 0.333691 0.108915
Si Si3 0.324427 0.000000 0.500000
Si Si4 0.000000 0.500000 0.000000
Si Si5 0.650045 0.571955 0.245463
Si Si6 0.779952 0.711976 0.703415
O O1 0.914507 0.770828 0.320009
O O2 0.910714 0.918194 0.715224
O O3 0.000000 0.831139 0.500000
O O4 0.934084 0.712135 0.819045
O O5 0.136146 0.405497 0.124009
O O6 0.038012 0.422326 0.178280
O O7 0.292145 0.078932 0.295407
O O8 0.665023 0.500000 0.500000
O O9 0.671383 0.704132 0.247773
O O10 0.671484 0.500000 0.000000
O O11 0.761238 0.731374 0.404938
#
# Coordination Sequence:
#
# PCOD9330556 Si02
#       6
#     8   8   4   2   8   8
#     4  12  24  47  72 110 150 203 253 308 370 450
#     4  11  24  41  72 108 154 189 246 306 387 442
#     4  11  28  51  76 114 152 192 251 318 387 454
#     4  10  20  38  64 110 146 202 216 310 370 456
#     4  12  28  52  77 107 154 207 258 315 379 451
#     4  12  30  51  81 115 150 197 256 322 392 457
#
# _framework density 25.304151000000001
#
# number of rings (size 3 to 8) (size 9 to 14) (size 15 to 20)
#    0.000    0.421    4.211    2.526    7.368    6.316 
#    0.000    1.053    0.000    0.000    0.000    0.000 
#    0.000    0.000    0.000    0.000    0.000    0.000 
#
# Total GULP energy -106419.436578 kJ/mol
# GULP energy per Si atom -5601.022978 kJ/mol
# Density = 2.524656 g / cm^3
# Si number density = 25.304151 Si / 1000 Ang^3
#
#
#
# Elastic Constant Matrix: (Units=GPa)
#
#
# Indices 1 2 3 4 5 6 
#
# 1 106.1758 14.6337 12.0750 0.0000 0.0000 0.0000
# 2 14.6337 84.9559 24.2693 0.0000 0.0000 0.0000
# 3 12.0750 24.2693 115.1657 0.0000 0.0000 -0.0001
# 4 0.0000 0.0000 0.0000 33.0371 -0.0001 0.0000
# 5 0.0000 0.0000 0.0000 -0.0001 86.4800 -0.0001
# 6 0.0000 0.0000 -0.0001 0.0000 -0.0001 41.5880
#
#
#
# Elastic Compliance Matrix: (Units=1/GPa)
#
#
# Indices 1 2 3 4 5 6 
#
# 1 0.009701 -0.001469 -0.000708 0.000000 0.000000 0.000000
# 2 -0.001469 0.012747 -0.002532 0.000000 0.000000 0.000000
# 3 -0.000708 -0.002532 0.009291 0.000000 0.000000 0.000000
# 4 0.000000 0.000000 0.000000 0.030269 0.000000 0.000000
# 5 0.000000 0.000000 0.000000 0.000000 0.011563 0.000000
# 6 0.000000 0.000000 0.000000 0.000000 0.000000 0.024045
#
#
# Mechanical properties :
#
#
# Convention : Reuss Voigt Hill
#
# Bulk Modulus (GPa) = 44.79907 45.36150 45.08028
# Shear Modulus (GPa) = 43.67750 49.24230 46.45990
#
# Velocity S-wave (km/s) = 4.15914 4.41615 4.28957
# Velocity P-wave (km/s) = 6.38806 6.63089 6.51060
#
# Compressibility (1/GPa) = 0.02232189
#
# Stress axis : x y z
#
# Youngs Moduli (GPa) = 103.07926 78.44842 107.63141
#
# Poissons Ratio (x) = 0.11523 0.07616
# Poissons Ratio (y) = 0.15141 0.27255
# Poissons Ratio (z) = 0.07294 0.19865
#
# Static dielectric constant tensor:
#      x y z
#    x 2.037950 0.000000 0.000000 
#    y 0.000000 1.942160 0.000000 
#    z 0.000000 0.000000 1.969220 
# 
# From -- ./inp_files/4784.got.cif
#   From: 2010.05.17/outbox.cif.g08.bks.cpg/sg23_3_cif.got.tgz:4784.got - 2010.06.04 12:02:01.
