data_PCOD9330260
_publ_section_title
;
Structure prediction by ZEFSAII (Michael W. Deem and Ramdas Pophale) SiO2 
 PCOD9330260
Probable space group: I 2 2 2
;
_chemical_formula_sum "Si O2"
_cell_formula_units_Z 44
_cell_length_a 14.277162
_cell_length_b 27.663406
_cell_length_c 5.235335
_cell_angle_alpha 90.000000
_cell_angle_beta 90.000000
_cell_angle_gamma 90.000000
_cell_volume 2067.721363
_symmetry_space_group_name_H-M "I 2 2 2"
_symmetry_group_IT_number 23
_symmetry_cell_setting 'orthorhombic'
loop_
_space_group_symop_operation_xyz
x,y,z
-x,-y,z
x,-y,-z
-x,y,-z
1/2+x,1/2+y,1/2+z
1/2-x,1/2-y,1/2+z
1/2+x,1/2-y,1/2-z
1/2-x,1/2+y,1/2-z
loop_
_atom_site_type_symbol
_atom_site_label
_atom_site_fract_x
_atom_site_fract_y
_atom_site_fract_z
Si Si1 0.106117 0.679901 0.111402
Si Si2 0.000000 0.370960 0.500000
Si Si3 0.887396 0.154207 0.499911
Si Si4 0.361545 0.948056 0.104142
Si Si5 0.886414 0.787952 0.999623
Si Si6 0.269702 0.088104 0.419115
O O1 0.080909 0.664702 0.400996
O O2 0.142923 0.733262 0.060672
O O3 0.175827 0.638551 0.021369
O O4 0.000000 0.676095 0.000000
O O5 0.946346 0.411143 0.670359
O O6 0.858165 0.176144 0.227229
O O7 0.837745 0.103660 0.559776
O O8 0.000000 0.150251 0.500000
O O9 0.859101 0.191137 0.726428
O O10 0.299864 0.948702 0.359401
O O11 0.303219 0.927364 0.861859
O O12 0.392982 0.000000 0.000000
O O13 0.000000 0.786300 0.000000
#
# Coordination Sequence:
#
# PCOD9330260 Si02
#       6
#     8   4   8   8   8   8
#     4  10  20  34  54  83 123 154 197 224 285 337
#     4  10  21  36  58  86 124 164 188 234 287 362
#     4  10  21  39  56  84 113 155 201 240 295 337
#     4  11  23  40  61  88 116 150 196 245 302 360
#     4   9  20  32  56  81 117 156 193 241 273 338
#     4  11  23  38  61  83 115 155 193 246 297 354
#
# _framework density 21.279463
#
# number of rings (size 3 to 8) (size 9 to 14) (size 15 to 20)
#    0.000    1.818    1.818    1.909    6.364    1.455 
#    0.000    1.818    0.000    3.273    0.000    0.000 
#    0.000    0.000    0.000    0.000    0.000    0.000 
#
# Total GULP energy -122667.995945 kJ/mol
# GULP energy per Si atom -5575.817997 kJ/mol
# Density = 2.123103 g / cm^3
# Si number density = 21.279463 Si / 1000 Ang^3
#
#
#
# Elastic Constant Matrix: (Units=GPa)
#
#
# Indices 1 2 3 4 5 6 
#
# 1 52.1568 19.2172 19.1606 0.0017 0.0081 -0.0034
# 2 19.2172 62.8619 17.7643 0.0108 -0.0444 0.0017
# 3 19.1606 17.7643 87.7543 0.0190 -0.0006 0.0313
# 4 0.0017 0.0108 0.0190 30.3042 -0.0156 0.0083
# 5 0.0081 -0.0444 -0.0006 -0.0156 17.5110 0.0226
# 6 -0.0034 0.0017 0.0313 0.0083 0.0226 19.4896
#
#
#
# Elastic Compliance Matrix: (Units=1/GPa)
#
#
# Indices 1 2 3 4 5 6 
#
# 1 0.022726 -0.005882 -0.003771 0.000003 -0.000025 0.000011
# 2 -0.005882 0.018395 -0.002440 -0.000005 0.000049 0.000001
# 3 -0.003771 -0.002440 0.012713 -0.000007 -0.000004 -0.000021
# 4 0.000003 -0.000005 -0.000007 0.032999 0.000029 -0.000014
# 5 -0.000025 0.000049 -0.000004 0.000029 0.057107 -0.000066
# 6 0.000011 0.000001 -0.000021 -0.000014 -0.000066 0.051310
#
#
# Mechanical properties :
#
#
# Convention : Reuss Voigt Hill
#
# Bulk Modulus (GPa) = 33.72844 35.00635 34.36740
# Shear Modulus (GPa) = 21.80388 23.23636 22.52012
#
# Velocity S-wave (km/s) = 3.20448 3.30807 3.25669
# Velocity P-wave (km/s) = 5.43840 5.57473 5.50699
#
# Compressibility (1/GPa) = 0.02964857
#
# Stress axis : x y z
#
# Youngs Moduli (GPa) = 44.00341 54.36155 78.66108
#
# Poissons Ratio (x) = 0.31973 0.29666
# Poissons Ratio (y) = 0.25881 0.19190
# Poissons Ratio (z) = 0.16595 0.13262
#
# Static dielectric constant tensor:
#      x y z
#    x 1.840120 0.000000 0.000360 
#    y 0.000000 1.753380 0.000020 
#    z 0.000360 0.000020 1.919500 
# 
# From -- ./inp_files/2497.got.cif
#   From: 2010.05.17/outbox.cif.g08.bks.cpg/sg23_2_cif.got.tgz:2497.got - 2010.06.04 12:02:01.
