data_PCOD9330397
_publ_section_title
;
Structure prediction by ZEFSAII (Michael W. Deem and Ramdas Pophale) SiO2 
 PCOD9330397
Probable space group: I 2 2 2
;
_chemical_formula_sum "Si O2"
_cell_formula_units_Z 48
_cell_length_a 8.342696
_cell_length_b 7.399802
_cell_length_c 36.542781
_cell_angle_alpha 90.000000
_cell_angle_beta 90.000000
_cell_angle_gamma 90.000000
_cell_volume 2255.942952
_symmetry_space_group_name_H-M "I 2 2 2"
_symmetry_group_IT_number 23
_symmetry_cell_setting 'orthorhombic'
loop_
_space_group_symop_operation_xyz
x,y,z
-x,-y,z
x,-y,-z
-x,y,-z
1/2+x,1/2+y,1/2+z
1/2-x,1/2-y,1/2+z
1/2+x,1/2-y,1/2-z
1/2-x,1/2+y,1/2-z
loop_
_atom_site_type_symbol
_atom_site_label
_atom_site_fract_x
_atom_site_fract_y
_atom_site_fract_z
Si Si1 0.822629 0.280052 0.042542
Si Si2 0.996383 0.222144 0.584836
Si Si3 0.680828 0.219838 0.457163
Si Si4 0.931013 0.797355 0.664312
Si Si5 0.660849 0.412671 0.304802
Si Si6 0.596909 0.162509 0.236015
O O1 0.666928 0.219775 0.064983
O O2 0.820579 0.499908 0.043948
O O3 0.001458 0.222902 0.055102
O O4 0.803917 0.229361 0.999899
O O5 0.161905 0.278720 0.565057
O O6 0.998230 0.283170 0.627027
O O7 0.000000 0.000000 0.584183
O O8 0.748418 0.723679 0.666943
O O9 0.983914 0.737195 0.704453
O O10 0.000000 0.000000 0.662934
O O11 0.500000 0.500000 0.320175
O O12 0.633211 0.302159 0.267335
O O13 0.761168 0.582105 0.288701
O O14 0.500000 0.000000 0.254601
#
# Coordination Sequence:
#
# PCOD9330397 Si02
#       6
#     8   8   8   8   8   8
#     4   8  13  22  39  63  94 140 184 227 275 332
#     4   9  16  27  42  65 104 147 181 223 286 346
#     4   8  13  22  39  63  95 136 188 227 270 338
#     4  10  21  36  52  77 115 152 186 234 294 357
#     4  11  21  36  59  85 107 143 194 243 288 349
#     4  10  20  36  59  80 109 143 182 237 291 347
#
# _framework density 21.277132999999999
#
# number of rings (size 3 to 8) (size 9 to 14) (size 15 to 20)
#    0.000    2.667    0.000    5.000    0.000    2.000 
#    3.000    0.000    3.667    0.000    0.000    0.000 
#    0.000   24.000    0.000    0.000    0.000    0.167 
#
# Total GULP energy -133625.147233 kJ/mol
# GULP energy per Si atom -5567.714468 kJ/mol
# Density = 2.122870 g / cm^3
# Si number density = 21.277133 Si / 1000 Ang^3
#
#
#
# Elastic Constant Matrix: (Units=GPa)
#
#
# Indices 1 2 3 4 5 6 
#
# 1 154.8941 26.0897 55.0109 0.0000 0.0000 0.0000
# 2 26.0897 68.5096 2.9319 0.0000 0.0000 0.0000
# 3 55.0109 2.9319 89.8227 0.0000 0.0000 0.0000
# 4 0.0000 0.0000 0.0000 -17.3333 0.0000 0.0000
# 5 0.0000 0.0000 0.0000 0.0000 11.2567 0.0000
# 6 0.0000 0.0000 0.0000 0.0000 0.0000 -15.1019
#
#
#
# Elastic Compliance Matrix: (Units=1/GPa)
#
#
# Indices 1 2 3 4 5 6 
#
# 1 0.008883 -0.003154 -0.005337 0.000000 0.000000 0.000000
# 2 -0.003154 0.015737 0.001418 0.000000 0.000000 0.000000
# 3 -0.005337 0.001418 0.014355 0.000000 0.000000 0.000000
# 4 0.000000 0.000000 0.000000 -0.057693 0.000000 0.000000
# 5 0.000000 0.000000 0.000000 0.000000 0.088836 0.000000
# 6 0.000000 0.000000 0.000000 0.000000 0.000000 -0.066217
#
#
# Mechanical properties :
#
#
# Convention : Reuss Voigt Hill
#
# Bulk Modulus (GPa) = 40.27619 53.47680 46.87649
# Shear Modulus (GPa) = 189.93073 11.04389 100.48731
#
# Velocity S-wave (km/s) = 9.45828 2.28074 6.87971
# Velocity P-wave (km/s) = 11.75794 5.66778 9.22965
#
# Compressibility (1/GPa) = 0.02482857
#
# Stress axis : x y z
#
# Youngs Moduli (GPa) = 112.57637 63.54434 69.65974
#
# Poissons Ratio (x) = 0.20044 0.37179
# Poissons Ratio (y) = 0.35510 -0.09879
# Poissons Ratio (z) = 0.60085 -0.09012
#
# Static dielectric constant tensor:
#      x y z
#    x 1.795200 0.000000 0.000000 
#    y 0.000000 1.765350 0.000000 
#    z 0.000000 0.000000 1.697390 
# 
# From -- ./inp_files/30220.got.cif
#   From: 2010.05.17/outbox.cif.g08.bks.cpg/sg23_16_cif.got.tgz:30220.got - 2010.06.04 12:02:01.
