data_PCOD9330121
_publ_section_title
;
Structure prediction by ZEFSAII (Michael W. Deem and Ramdas Pophale) SiO2 
 PCOD9330121
Probable space group: I 2 2 2
;
_chemical_formula_sum "Si O2"
_cell_formula_units_Z 38
_cell_length_a 8.688570
_cell_length_b 10.222947
_cell_length_c 20.602032
_cell_angle_alpha 90.000000
_cell_angle_beta 90.000000
_cell_angle_gamma 90.000000
_cell_volume 1829.929975
_symmetry_space_group_name_H-M "I 2 2 2"
_symmetry_group_IT_number 23
_symmetry_cell_setting 'orthorhombic'
loop_
_space_group_symop_operation_xyz
x,y,z
-x,-y,z
x,-y,-z
-x,y,-z
1/2+x,1/2+y,1/2+z
1/2-x,1/2-y,1/2+z
1/2+x,1/2-y,1/2-z
1/2-x,1/2+y,1/2-z
loop_
_atom_site_type_symbol
_atom_site_label
_atom_site_fract_x
_atom_site_fract_y
_atom_site_fract_z
Si Si1 0.346738 0.539234 0.871243
Si Si2 0.500000 0.678354 0.000000
Si Si3 0.406004 0.633029 0.686265
Si Si4 0.890682 0.627556 0.225906
Si Si5 0.791253 0.707490 0.924735
Si Si6 0.500000 0.000000 0.500000
O O1 0.500000 0.500000 0.832421
O O2 0.408337 0.599651 0.940704
O O3 0.219330 0.628210 0.838155
O O4 0.273942 0.395428 0.873083
O O5 0.641169 0.750920 0.965278
O O6 0.500000 0.500000 0.686870
O O7 0.235311 0.620787 0.716960
O O8 0.501419 0.745787 0.723781
O O9 0.383131 0.682479 0.612266
O O10 0.000000 0.500000 0.225790
O O11 0.893588 0.602791 0.963031
#
# Coordination Sequence:
#
# PCOD9330121 Si02
#       6
#     8   4   8   8   8   2
#     4  10  19  38  68 104 132 167 232 288 341 405
#     4  10  21  36  70 105 134 171 228 301 340 409
#     4  12  28  45  66 103 145 180 232 295 356 409
#     4  12  25  46  72  99 136 191 235 284 347 425
#     4  11  21  39  66 104 133 174 228 291 344 408
#     4  12  20  38  74 104 132 178 242 282 344 414
#
# _framework density 20.765822
#
# number of rings (size 3 to 8) (size 9 to 14) (size 15 to 20)
#    0.000    0.842    4.211    5.368    5.895    0.000 
#    0.000    0.526    0.000    1.263    0.000    0.000 
#    0.000    0.000    0.000    0.000    0.000    0.000 
#
# Total GULP energy -105783.091171 kJ/mol
# GULP energy per Si atom -5567.531114 kJ/mol
# Density = 2.071856 g / cm^3
# Si number density = 20.765822 Si / 1000 Ang^3
#
#
#
# Elastic Constant Matrix: (Units=GPa)
#
#
# Indices 1 2 3 4 5 6 
#
# 1 157.0148 73.0419 47.9825 0.0000 0.0000 0.0000
# 2 73.0419 124.3773 42.3598 0.0000 0.0000 0.0000
# 3 47.9825 42.3598 79.8789 0.0000 0.0000 0.0000
# 4 0.0000 0.0000 0.0000 17.8374 0.0000 0.0000
# 5 0.0000 0.0000 0.0000 0.0000 37.2763 0.0000
# 6 0.0000 0.0000 0.0000 0.0000 0.0000 7.4889
#
#
#
# Elastic Compliance Matrix: (Units=1/GPa)
#
#
# Indices 1 2 3 4 5 6 
#
# 1 0.009437 -0.004407 -0.003332 0.000000 0.000000 0.000000
# 2 -0.004407 0.011871 -0.003647 0.000000 0.000000 0.000000
# 3 -0.003332 -0.003647 0.016454 0.000000 0.000000 0.000000
# 4 0.000000 0.000000 0.000000 0.056062 0.000000 0.000000
# 5 0.000000 0.000000 0.000000 0.000000 0.026827 0.000000
# 6 0.000000 0.000000 0.000000 0.000000 0.000000 0.133531
#
#
# Mechanical properties :
#
#
# Convention : Reuss Voigt Hill
#
# Bulk Modulus (GPa) = 66.71433 76.44882 71.58158
# Shear Modulus (GPa) = 17.73356 25.71297 21.72326
#
# Velocity S-wave (km/s) = 2.92546 3.52267 3.23787
# Velocity P-wave (km/s) = 6.60362 7.31029 6.96592
#
# Compressibility (1/GPa) = 0.01498928
#
# Stress axis : x y z
#
# Youngs Moduli (GPa) = 105.96305 84.24163 60.77380
#
# Poissons Ratio (x) = 0.37129 0.20247
# Poissons Ratio (y) = 0.46703 0.22167
# Poissons Ratio (z) = 0.35303 0.30727
#
# Static dielectric constant tensor:
#      x y z
#    x 1.694890 0.000000 0.000000 
#    y 0.000000 1.986420 0.000000 
#    z 0.000000 0.000000 2.136740 
# 
# From -- ./inp_files/27895.got.cif
#   From: 2010.05.17/outbox.cif.g08.bks.cpg/sg23_14_cif.got.tgz:27895.got - 2010.06.04 12:02:01.
