data_PCOD9330156
_publ_section_title
;
Structure prediction by ZEFSAII (Michael W. Deem and Ramdas Pophale) SiO2 
 PCOD9330156
Probable space group: I 2 2 2
;
_chemical_formula_sum "Si O2"
_cell_formula_units_Z 64
_cell_length_a 16.305447
_cell_length_b 8.662255
_cell_length_c 21.902676
_cell_angle_alpha 90.000000
_cell_angle_beta 90.000000
_cell_angle_gamma 90.000000
_cell_volume 3093.576445
_symmetry_space_group_name_H-M "I 2 2 2"
_symmetry_group_IT_number 23
_symmetry_cell_setting 'orthorhombic'
loop_
_space_group_symop_operation_xyz
x,y,z
-x,-y,z
x,-y,-z
-x,y,-z
1/2+x,1/2+y,1/2+z
1/2-x,1/2-y,1/2+z
1/2+x,1/2-y,1/2-z
1/2-x,1/2+y,1/2-z
loop_
_atom_site_type_symbol
_atom_site_label
_atom_site_fract_x
_atom_site_fract_y
_atom_site_fract_z
Si Si1 0.853358 0.654938 0.197556
Si Si2 0.256030 0.170774 0.495715
Si Si3 0.633120 0.077795 0.059814
Si Si4 0.847962 0.262477 0.671803
Si Si5 0.582016 0.430931 0.827979
Si Si6 0.778426 0.286510 0.379856
Si Si7 0.169252 0.666707 0.128422
Si Si8 0.023888 0.826418 0.196872
O O1 0.847714 0.628011 0.269921
O O2 0.782581 0.776584 0.177519
O O3 0.837726 0.500292 0.159720
O O4 0.944212 0.720746 0.188389
O O5 0.191926 0.296894 0.472053
O O6 0.276037 0.223745 0.563664
O O7 0.326686 0.158763 0.445055
O O8 0.218023 0.000000 0.500000
O O9 0.594893 0.172782 0.116647
O O10 0.683896 0.946933 0.096908
O O11 0.591570 0.000000 0.000000
O O12 0.755818 0.240520 0.648006
O O13 0.874110 0.090390 0.691956
O O14 0.500000 0.500000 0.859407
O O15 0.645358 0.329136 0.866576
O O16 0.553913 0.336402 0.767776
O O17 0.096306 0.766941 0.154796
O O18 0.000000 0.000000 0.180719
#
# Coordination Sequence:
#
# PCOD9330156 Si02
#       8
#     8   8   8   8   8   8   8   8
#     4  12  23  38  64  99 138 178 224 290 348 419
#     4  10  19  42  66  96 130 176 232 291 334 415
#     4   9  22  38  64  98 130 171 230 289 339 403
#     4  11  22  38  65  98 130 172 232 273 351 417
#     4  11  22  45  65 101 140 185 218 290 357 420
#     4  11  22  39  70 100 131 180 241 285 349 411
#     4  11  24  40  67  96 133 181 233 286 350 421
#     4  11  25  43  62  97 149 176 224 287 362 413
#
# _framework density 20.688027999999999
#
# number of rings (size 3 to 8) (size 9 to 14) (size 15 to 20)
#    0.000    1.250    5.000    1.875    7.000    0.000 
#    0.000    1.250    0.000   21.375    0.000    0.000 
#    0.000    0.000    0.000    0.000    0.000    0.000 
#
# Total GULP energy -178435.770720 kJ/mol
# GULP energy per Si atom -5576.117835 kJ/mol
# Density = 2.064094 g / cm^3
# Si number density = 20.688028 Si / 1000 Ang^3
#
#
#
# Elastic Constant Matrix: (Units=GPa)
#
#
# Indices 1 2 3 4 5 6 
#
# 1 90.7964 13.2623 29.0305 0.0000 0.0000 0.0000
# 2 13.2623 82.4745 30.7122 0.0000 0.0000 0.0000
# 3 29.0305 30.7122 107.6832 0.0000 0.0000 0.0000
# 4 0.0000 0.0000 0.0000 35.0625 0.0000 0.0000
# 5 0.0000 0.0000 0.0000 0.0000 9.3100 0.0000
# 6 0.0000 0.0000 0.0000 0.0000 0.0000 29.5342
#
#
#
# Elastic Compliance Matrix: (Units=1/GPa)
#
#
# Indices 1 2 3 4 5 6 
#
# 1 0.012102 -0.000818 -0.003029 0.000000 0.000000 0.000000
# 2 -0.000818 0.013621 -0.003664 0.000000 0.000000 0.000000
# 3 -0.003029 -0.003664 0.011148 0.000000 0.000000 0.000000
# 4 0.000000 0.000000 0.000000 0.028521 0.000000 0.000000
# 5 0.000000 0.000000 0.000000 0.000000 0.107411 0.000000
# 6 0.000000 0.000000 0.000000 0.000000 0.000000 0.033859
#
#
# Mechanical properties :
#
#
# Convention : Reuss Voigt Hill
#
# Bulk Modulus (GPa) = 45.77090 47.44043 46.60566
# Shear Modulus (GPa) = 21.83718 28.64462 25.24090
#
# Velocity S-wave (km/s) = 3.25244 3.72506 3.49674
# Velocity P-wave (km/s) = 6.02303 6.44069 6.23536
#
# Compressibility (1/GPa) = 0.02184794
#
# Stress axis : x y z
#
# Youngs Moduli (GPa) = 82.63324 73.41589 89.70026
#
# Poissons Ratio (x) = 0.06005 0.27172
# Poissons Ratio (y) = 0.06759 0.32869
# Poissons Ratio (z) = 0.25031 0.26902
#
# Static dielectric constant tensor:
#      x y z
#    x 1.723480 0.000000 0.000000 
#    y 0.000000 1.776250 0.000000 
#    z 0.000000 0.000000 1.810770 
# 
# From -- ./inp_files/27204.got.cif
#   From: 2010.05.17/outbox.cif.g08.bks.cpg/sg23_14_cif.got.tgz:27204.got - 2010.06.04 12:02:01.
