data_PCOD9330365
_publ_section_title
;
Structure prediction by ZEFSAII (Michael W. Deem and Ramdas Pophale) SiO2 
 PCOD9330365
Probable space group: I 2 2 2
;
_chemical_formula_sum "Si O2"
_cell_formula_units_Z 60
_cell_length_a 21.822568
_cell_length_b 5.127255
_cell_length_c 25.020204
_cell_angle_alpha 90.000000
_cell_angle_beta 90.000000
_cell_angle_gamma 90.000000
_cell_volume 2799.507395
_symmetry_space_group_name_H-M "I 2 2 2"
_symmetry_group_IT_number 23
_symmetry_cell_setting 'orthorhombic'
loop_
_space_group_symop_operation_xyz
x,y,z
-x,-y,z
x,-y,-z
-x,y,-z
1/2+x,1/2+y,1/2+z
1/2-x,1/2-y,1/2+z
1/2+x,1/2-y,1/2-z
1/2-x,1/2+y,1/2-z
loop_
_atom_site_type_symbol
_atom_site_label
_atom_site_fract_x
_atom_site_fract_y
_atom_site_fract_z
Si Si1 0.124523 0.509343 0.936904
Si Si2 0.638859 0.912418 0.056888
Si Si3 0.655326 0.534029 0.375401
Si Si4 0.852797 0.085362 0.700029
Si Si5 0.561243 0.397764 0.296830
Si Si6 0.284201 0.913804 0.835046
Si Si7 0.570693 0.419620 0.091484
Si Si8 0.000000 0.500000 0.880780
O O1 0.135809 0.801234 0.915259
O O2 0.055640 0.420422 0.920089
O O3 0.168178 0.299300 0.907310
O O4 0.132408 0.500000 0.000000
O O5 0.687730 0.900742 0.104841
O O6 0.607026 0.631974 0.056458
O O7 0.587606 0.130011 0.071778
O O8 0.665403 0.000000 0.000000
O O9 0.600470 0.592742 0.333763
O O10 0.711710 0.419092 0.341857
O O11 0.891361 0.175369 0.751221
O O12 0.804997 0.310362 0.687468
O O13 0.900713 0.060696 0.650941
O O14 0.815219 0.814521 0.699844
O O15 0.500000 0.500000 0.268940
O O16 0.533532 0.197765 0.339961
O O17 0.500000 0.500000 0.090983
#
# Coordination Sequence:
#
# PCOD9330365 Si02
#       8
#     8   8   8   8   8   8   8   4
#     4  11  23  41  66  97 131 174 217 261 336 398
#     4  10  21  35  55  78 111 155 195 250 311 367
#     4  11  24  42  66  94 131 168 216 276 321 387
#     4  10  23  39  64  88 122 171 208 261 324 382
#     4  11  23  41  66  95 132 166 219 265 333 393
#     4  10  23  43  59  89 127 160 216 268 313 382
#     4  10  20  36  52  83 116 147 197 249 307 378
#     4  10  23  42  62  98 138 170 209 284 322 394
#
# _framework density 21.432341999999998
#
# number of rings (size 3 to 8) (size 9 to 14) (size 15 to 20)
#    0.000    1.600    1.333    2.600    1.867    3.733 
#    2.400    1.333    0.000    0.000    0.000    0.000 
#    0.000    0.000    0.000    0.000    0.000    0.000 
#
# Total GULP energy -167450.026362 kJ/mol
# GULP energy per Si atom -5581.667545 kJ/mol
# Density = 2.138356 g / cm^3
# Si number density = 21.432342 Si / 1000 Ang^3
#
#
#
# Elastic Constant Matrix: (Units=GPa)
#
#
# Indices 1 2 3 4 5 6 
#
# 1 81.8895 1.3437 15.9739 0.0000 0.0000 0.0000
# 2 1.3437 72.7407 -0.6346 0.0000 0.0000 0.0000
# 3 15.9739 -0.6346 60.5537 0.0000 0.0000 0.0000
# 4 0.0000 0.0000 0.0000 5.8826 0.0000 0.0000
# 5 0.0000 0.0000 0.0000 0.0000 13.0394 0.0000
# 6 0.0000 0.0000 0.0000 0.0000 0.0000 13.2961
#
#
#
# Elastic Compliance Matrix: (Units=1/GPa)
#
#
# Indices 1 2 3 4 5 6 
#
# 1 0.012879 -0.000268 -0.003400 0.000000 0.000000 0.000000
# 2 -0.000268 0.013754 0.000215 0.000000 0.000000 0.000000
# 3 -0.003400 0.000215 0.017414 0.000000 0.000000 0.000000
# 4 0.000000 0.000000 0.000000 0.169994 0.000000 0.000000
# 5 0.000000 0.000000 0.000000 0.000000 0.076691 0.000000
# 6 0.000000 0.000000 0.000000 0.000000 0.000000 0.075210
#
#
# Mechanical properties :
#
#
# Convention : Reuss Voigt Hill
#
# Bulk Modulus (GPa) = 26.92462 27.61664 27.27063
# Shear Modulus (GPa) = 12.97931 19.67701 16.32816
#
# Velocity S-wave (km/s) = 2.46355 3.03330 2.76315
# Velocity P-wave (km/s) = 4.54775 5.01810 4.78870
#
# Compressibility (1/GPa) = 0.03714073
#
# Stress axis : x y z
#
# Youngs Moduli (GPa) = 77.64422 72.70467 57.42669
#
# Poissons Ratio (x) = 0.01945 0.19527
# Poissons Ratio (y) = 0.02077 -0.01233
# Poissons Ratio (z) = 0.26401 -0.01561
#
# Static dielectric constant tensor:
#      x y z
#    x 1.767010 0.000000 0.000000 
#    y 0.000000 1.778880 0.000000 
#    z 0.000000 0.000000 1.794310 
# 
# From -- ./inp_files/28700.got.cif
#   From: 2010.05.17/outbox.cif.g08.bks.cpg/sg23_15_cif.got.tgz:28700.got - 2010.06.04 12:02:01.
