data_PCOD9330376
_publ_section_title
;
Structure prediction by ZEFSAII (Michael W. Deem and Ramdas Pophale) SiO2 
 PCOD9330376
Probable space group: I 2 2 2
;
_chemical_formula_sum "Si O2"
_cell_formula_units_Z 32
_cell_length_a 12.980020
_cell_length_b 24.168868
_cell_length_c 4.866558
_cell_angle_alpha 90.000000
_cell_angle_beta 90.000000
_cell_angle_gamma 90.000000
_cell_volume 1526.699541
_symmetry_space_group_name_H-M "I 2 2 2"
_symmetry_group_IT_number 23
_symmetry_cell_setting 'orthorhombic'
loop_
_space_group_symop_operation_xyz
x,y,z
-x,-y,z
x,-y,-z
-x,y,-z
1/2+x,1/2+y,1/2+z
1/2-x,1/2-y,1/2+z
1/2+x,1/2-y,1/2-z
1/2-x,1/2+y,1/2-z
loop_
_atom_site_type_symbol
_atom_site_label
_atom_site_fract_x
_atom_site_fract_y
_atom_site_fract_z
Si Si1 0.202700 0.121302 0.099142
Si Si2 0.315001 0.259338 0.369475
Si Si3 0.569169 0.848260 0.262893
Si Si4 0.880300 0.060182 0.410725
O O1 0.326831 0.123837 0.137493
O O2 0.166626 0.108186 0.403682
O O3 0.162508 0.179858 0.981950
O O4 0.152706 0.075093 0.898746
O O5 0.217191 0.240090 0.551850
O O6 0.394204 0.209517 0.397631
O O7 0.500000 0.877449 0.500000
O O8 0.500000 0.837167 0.000000
O O9 0.000000 0.059822 0.500000
O O10 0.838999 0.000000 0.500000
#
# Coordination Sequence:
#
# PCOD9330376 Si02
#       4
#     8   8   8   8
#     4  11  22  40  63  89 122 161 201 247 303 363
#     4  10  20  36  55  84 121 156 197 238 281 345
#     4  11  22  37  59  90 128 166 200 238 291 362
#     4  11  24  42  64  90 117 151 202 261 318 364
#
# _framework density 20.960246000000001
#
# number of rings (size 3 to 8) (size 9 to 14) (size 15 to 20)
#    0.000    1.250    0.000    9.000    0.000    5.000 
#    0.000    0.000    0.000   11.250    0.000    0.000 
#    0.000    0.000    0.000    0.000    0.000    0.000 
#
# Total GULP energy -89213.897714 kJ/mol
# GULP energy per Si atom -5575.868607 kJ/mol
# Density = 2.091254 g / cm^3
# Si number density = 20.960246 Si / 1000 Ang^3
#
#
#
# Elastic Constant Matrix: (Units=GPa)
#
#
# Indices 1 2 3 4 5 6 
#
# 1 91.1279 -0.5396 2.5252 -0.0012 0.0027 0.0003
# 2 -0.5396 62.2178 -5.0954 -0.0049 -0.0007 -0.0036
# 3 2.5252 -5.0954 71.9220 0.0626 -0.0362 -0.0015
# 4 -0.0012 -0.0049 0.0626 24.1882 -0.0134 -0.0092
# 5 0.0027 -0.0007 -0.0362 -0.0134 46.2553 0.0076
# 6 0.0003 -0.0036 -0.0015 -0.0092 0.0076 15.5149
#
#
#
# Elastic Compliance Matrix: (Units=1/GPa)
#
#
# Indices 1 2 3 4 5 6 
#
# 1 0.010985 0.000064 -0.000381 0.000002 -0.000001 0.000000
# 2 0.000064 0.016167 0.001143 0.000000 0.000001 0.000004
# 3 -0.000381 0.001143 0.013998 -0.000036 0.000011 0.000002
# 4 0.000002 0.000000 -0.000036 0.041343 0.000012 0.000024
# 5 -0.000001 0.000001 0.000011 0.000012 0.021619 -0.000011
# 6 0.000000 0.000004 0.000002 0.000024 -0.000011 0.064454
#
#
# Mechanical properties :
#
#
# Convention : Reuss Voigt Hill
#
# Bulk Modulus (GPa) = 23.36357 24.33867 23.85112
# Shear Modulus (GPa) = 27.59677 32.41686 30.00681
#
# Velocity S-wave (km/s) = 3.63247 3.93693 3.78776
# Velocity P-wave (km/s) = 5.36320 5.68357 5.52571
#
# Compressibility (1/GPa) = 0.04280169
#
# Stress axis : x y z
#
# Youngs Moduli (GPa) = 91.03718 61.85539 71.43699
#
# Poissons Ratio (x) = -0.00396 0.02723
# Poissons Ratio (y) = -0.00583 -0.08166
# Poissons Ratio (z) = 0.03470 -0.07071
#
# Static dielectric constant tensor:
#      x y z
#    x 1.863260 -0.000010 0.000050 
#    y -0.000010 1.777570 0.000000 
#    z 0.000050 0.000000 1.739310 
# 
# From -- ./inp_files/1345.got.cif
#   From: 2010.05.17/outbox.cif.g08.bks.cpg/sg23_1_cif.got.tgz:1345.got - 2010.06.04 12:02:01.
