data_PCOD9330913
_publ_section_title
;
Structure prediction by ZEFSAII (Michael W. Deem and Ramdas Pophale) SiO2 
 PCOD9330913
Probable space group: I 2 2 2
;
_chemical_formula_sum "Si O2"
_cell_formula_units_Z 56
_cell_length_a 14.047476
_cell_length_b 20.045261
_cell_length_c 8.385630
_cell_angle_alpha 90.000000
_cell_angle_beta 90.000000
_cell_angle_gamma 90.000000
_cell_volume 2361.270331
_symmetry_space_group_name_H-M "I 2 2 2"
_symmetry_group_IT_number 23
_symmetry_cell_setting 'orthorhombic'
loop_
_space_group_symop_operation_xyz
x,y,z
-x,-y,z
x,-y,-z
-x,y,-z
1/2+x,1/2+y,1/2+z
1/2-x,1/2-y,1/2+z
1/2+x,1/2-y,1/2-z
1/2-x,1/2+y,1/2-z
loop_
_atom_site_type_symbol
_atom_site_label
_atom_site_fract_x
_atom_site_fract_y
_atom_site_fract_z
Si Si1 0.871275 0.140659 0.371670
Si Si2 0.454396 0.789062 0.335452
Si Si3 0.632680 0.203459 0.863612
Si Si4 0.956346 0.127997 0.832651
Si Si5 0.759981 0.117431 0.688079
Si Si6 0.198782 0.368728 0.321404
Si Si7 0.389934 0.997034 0.692769
O O1 0.875841 0.219207 0.411996
O O2 0.974156 0.113482 0.318263
O O3 0.808168 0.109729 0.513609
O O4 0.810218 0.135334 0.209796
O O5 0.500000 0.812676 0.500000
O O6 0.527775 0.813244 0.200593
O O7 0.451699 0.709121 0.336105
O O8 0.352703 0.820412 0.306567
O O9 0.710679 0.189224 0.724243
O O10 0.667453 0.159490 0.009839
O O11 0.849643 0.104560 0.802312
O O12 0.000000 0.104948 0.000000
O O13 0.673580 0.067815 0.723212
O O14 0.161291 0.441540 0.278771
O O15 0.500000 0.000000 0.743673
O O16 0.389911 0.000000 0.500000
#
# Coordination Sequence:
#
# PCOD9330913 Si02
#       7
#     8   8   8   8   8   8   8
#     4  11  22  39  66 101 136 179 226 281 355 429
#     4  10  21  37  64 101 140 181 222 281 359 432
#     4  11  23  37  63 103 138 174 225 289 356 418
#     4  10  22  41  66 102 142 176 224 290 358 427
#     4  12  23  43  67  95 137 186 231 284 350 418
#     4  12  23  40  65  95 135 176 227 282 344 412
#     4  11  26  47  70  97 130 178 236 286 337 417
#
# _framework density 23.716048000000001
#
# number of rings (size 3 to 8) (size 9 to 14) (size 15 to 20)
#    0.000    1.000    1.429    6.000    2.000    5.143 
#    0.000    1.429    0.000    0.857    0.000    0.000 
#    0.000    0.000    0.000    0.000    0.000    0.000 
#
# Total GULP energy -156712.969293 kJ/mol
# GULP energy per Si atom -5596.891760 kJ/mol
# Density = 2.366207 g / cm^3
# Si number density = 23.716048 Si / 1000 Ang^3
#
#
#
# Elastic Constant Matrix: (Units=GPa)
#
#
# Indices 1 2 3 4 5 6 
#
# 1 143.1532 19.8740 17.5363 0.0000 0.0000 0.0000
# 2 19.8740 48.2585 14.2044 0.0000 0.0000 0.0000
# 3 17.5363 14.2044 87.5525 0.0000 0.0000 0.0000
# 4 0.0000 0.0000 0.0000 6.1107 0.0000 0.0000
# 5 0.0000 0.0000 0.0000 0.0000 38.7411 0.0000
# 6 0.0000 0.0000 0.0000 0.0000 0.0000 17.9082
#
#
#
# Elastic Compliance Matrix: (Units=1/GPa)
#
#
# Indices 1 2 3 4 5 6 
#
# 1 0.007500 -0.002779 -0.001051 0.000000 0.000000 0.000000
# 2 -0.002779 0.022791 -0.003141 0.000000 0.000000 0.000000
# 3 -0.001051 -0.003141 0.012142 0.000000 0.000000 0.000000
# 4 0.000000 0.000000 0.000000 0.163647 0.000000 0.000000
# 5 0.000000 0.000000 0.000000 0.000000 0.025812 0.000000
# 6 0.000000 0.000000 0.000000 0.000000 0.000000 0.055840
#
#
# Mechanical properties :
#
#
# Convention : Reuss Voigt Hill
#
# Bulk Modulus (GPa) = 35.10024 42.46595 38.78310
# Shear Modulus (GPa) = 16.06826 27.70864 21.88845
#
# Velocity S-wave (km/s) = 2.60576 3.42182 3.04129
# Velocity P-wave (km/s) = 4.88729 5.79281 5.35921
#
# Compressibility (1/GPa) = 0.02848983
#
# Stress axis : x y z
#
# Youngs Moduli (GPa) = 133.33043 43.87734 82.35963
#
# Poissons Ratio (x) = 0.12195 0.08659
# Poissons Ratio (y) = 0.37056 0.25868
# Poissons Ratio (z) = 0.14018 0.13781
#
# Static dielectric constant tensor:
#      x y z
#    x 1.890380 0.000000 0.000000 
#    y 0.000000 1.898910 0.000000 
#    z 0.000000 0.000000 1.963110 
# 
# From -- ./inp_files/10223.got.cif
#   From: 2010.05.17/outbox.cif.g08.bks.cpg/sg23_6_cif.got.tgz:10223.got - 2010.06.04 12:02:01.
