data_PCOD9330602
_publ_section_title
;
Structure prediction by ZEFSAII (Michael W. Deem and Ramdas Pophale) SiO2 
 PCOD9330602
Probable space group: I 2 2 2
;
_chemical_formula_sum "Si O2"
_cell_formula_units_Z 56
_cell_length_a 15.777265
_cell_length_b 10.545851
_cell_length_c 16.503416
_cell_angle_alpha 90.000000
_cell_angle_beta 90.000000
_cell_angle_gamma 90.000000
_cell_volume 2745.915687
_symmetry_space_group_name_H-M "I 2 2 2"
_symmetry_group_IT_number 23
_symmetry_cell_setting 'orthorhombic'
loop_
_space_group_symop_operation_xyz
x,y,z
-x,-y,z
x,-y,-z
-x,y,-z
1/2+x,1/2+y,1/2+z
1/2-x,1/2-y,1/2+z
1/2+x,1/2-y,1/2-z
1/2-x,1/2+y,1/2-z
loop_
_atom_site_type_symbol
_atom_site_label
_atom_site_fract_x
_atom_site_fract_y
_atom_site_fract_z
Si Si1 0.647582 0.095468 0.332896
Si Si2 0.900372 0.647680 0.490504
Si Si3 0.792402 0.315194 0.662338
Si Si4 0.477455 0.704908 0.405036
Si Si5 0.802993 0.227922 0.371305
Si Si6 0.367484 0.808428 0.696050
Si Si7 0.822684 0.038511 0.904891
O O1 0.663048 0.169689 0.248476
O O2 0.581557 0.171781 0.388097
O O3 0.743228 0.104201 0.369425
O O4 0.613090 0.957346 0.309743
O O5 0.870769 0.500000 0.500000
O O6 0.863916 0.686807 0.404527
O O7 0.866237 0.747284 0.555742
O O8 0.000000 0.644418 0.500000
O O9 0.726523 0.201119 0.657878
O O10 0.726568 0.431268 0.645572
O O11 0.500000 0.696339 0.500000
O O12 0.561920 0.728751 0.352358
O O13 0.417732 0.584328 0.383555
O O14 0.851705 0.256215 0.287011
O O15 0.734560 0.338921 0.388115
O O16 0.823476 0.000000 0.000000
#
# Coordination Sequence:
#
# PCOD9330602 Si02
#       7
#     8   8   8   8   8   8   8
#     4  10  23  40  61  85 125 163 208 252 302 384
#     4  11  21  35  63  95 121 148 200 266 314 360
#     4  11  21  39  65  90 121 164 206 256 319 376
#     4  11  26  40  60  94 129 167 206 263 313 371
#     4  10  20  39  61  89 120 160 203 256 312 367
#     4  11  23  39  61  89 122 167 208 248 312 382
#     4  11  19  39  67  91 126 156 210 263 317 373
#
# _framework density 20.393924999999999
#
# number of rings (size 3 to 8) (size 9 to 14) (size 15 to 20)
#    0.000    1.286    4.286    1.286    4.000    3.143 
#    0.000    0.000    0.000    1.714    0.000    0.000 
#    0.000    0.000    0.000    0.000    0.000    0.000 
#
# Total GULP energy -156162.743436 kJ/mol
# GULP energy per Si atom -5577.240837 kJ/mol
# Density = 2.034751 g / cm^3
# Si number density = 20.393925 Si / 1000 Ang^3
#
#
#
# Elastic Constant Matrix: (Units=GPa)
#
#
# Indices 1 2 3 4 5 6 
#
# 1 110.7265 13.1458 45.0598 0.0000 0.0000 0.0000
# 2 13.1458 42.8647 7.9971 0.0000 0.0000 0.0000
# 3 45.0598 7.9971 78.3317 0.0000 0.0000 0.0000
# 4 0.0000 0.0000 0.0000 8.7215 0.0000 0.0000
# 5 0.0000 0.0000 0.0000 0.0000 34.0255 0.0000
# 6 0.0000 0.0000 0.0000 0.0000 0.0000 24.4720
#
#
#
# Elastic Compliance Matrix: (Units=1/GPa)
#
#
# Indices 1 2 3 4 5 6 
#
# 1 0.012038 -0.002447 -0.006675 0.000000 0.000000 0.000000
# 2 -0.002447 0.024279 -0.001071 0.000000 0.000000 0.000000
# 3 -0.006675 -0.001071 0.016715 0.000000 0.000000 0.000000
# 4 0.000000 0.000000 0.000000 0.114659 0.000000 0.000000
# 5 0.000000 0.000000 0.000000 0.000000 0.029390 0.000000
# 6 0.000000 0.000000 0.000000 0.000000 0.000000 0.040863
#
#
# Mechanical properties :
#
#
# Convention : Reuss Voigt Hill
#
# Bulk Modulus (GPa) = 30.63075 40.48092 35.55583
# Shear Modulus (GPa) = 18.57263 24.49180 21.53222
#
# Velocity S-wave (km/s) = 3.02104 3.46921 3.25286
# Velocity P-wave (km/s) = 5.21738 5.99498 5.61965
#
# Compressibility (1/GPa) = 0.03264693
#
# Stress axis : x y z
#
# Youngs Moduli (GPa) = 83.06939 41.18714 59.82511
#
# Poissons Ratio (x) = 0.10077 0.39934
# Poissons Ratio (y) = 0.20323 0.06410
# Poissons Ratio (z) = 0.55449 0.04413
#
# Static dielectric constant tensor:
#      x y z
#    x 1.812500 0.000000 0.000000 
#    y 0.000000 1.843750 0.000000 
#    z 0.000000 0.000000 1.716290 
# 
# From -- ./inp_files/16785.got.cif
#   From: 2010.05.17/outbox.cif.g08.bks.cpg/sg23_9_cif.got.tgz:16785.got - 2010.06.04 12:02:01.
