data_PCOD9330011
_publ_section_title
;
Structure prediction by ZEFSAII (Michael W. Deem and Ramdas Pophale) SiO2 
 PCOD9330011
Probable space group: I 2 2 2
;
_chemical_formula_sum "Si O2"
_cell_formula_units_Z 56
_cell_length_a 8.780450
_cell_length_b 20.863284
_cell_length_c 14.788839
_cell_angle_alpha 90.000000
_cell_angle_beta 90.000000
_cell_angle_gamma 90.000000
_cell_volume 2709.152953
_symmetry_space_group_name_H-M "I 2 2 2"
_symmetry_group_IT_number 23
_symmetry_cell_setting 'orthorhombic'
loop_
_space_group_symop_operation_xyz
x,y,z
-x,-y,z
x,-y,-z
-x,y,-z
1/2+x,1/2+y,1/2+z
1/2-x,1/2-y,1/2+z
1/2+x,1/2-y,1/2-z
1/2-x,1/2+y,1/2-z
loop_
_atom_site_type_symbol
_atom_site_label
_atom_site_fract_x
_atom_site_fract_y
_atom_site_fract_z
Si Si1 0.169005 0.189062 0.259391
Si Si2 0.206199 0.711924 0.051894
Si Si3 0.307551 0.947398 0.924026
Si Si4 0.999828 0.068541 0.178063
Si Si5 0.012030 0.376060 0.708812
Si Si6 0.742413 0.854836 0.927311
Si Si7 0.883550 0.684005 0.136175
O O1 0.173478 0.198621 0.367843
O O2 0.056795 0.130879 0.232887
O O3 0.338937 0.165852 0.231352
O O4 0.135020 0.253313 0.201142
O O5 0.178098 0.788182 0.052827
O O6 0.047922 0.684616 0.088842
O O7 0.231340 0.688215 0.948967
O O8 0.133559 0.949061 0.892546
O O9 0.417257 0.939364 0.837998
O O10 0.315896 0.881705 0.978663
O O11 0.340316 0.000000 0.000000
O O12 0.851861 0.093845 0.123546
O O13 0.000000 0.000000 0.230643
O O14 0.902642 0.345043 0.635132
O O15 0.901006 0.376686 0.796463
#
# Coordination Sequence:
#
# PCOD9330011 Si02
#       7
#     8   8   8   8   8   8   8
#     4  10  20  39  59  87 130 161 214 269 318 384
#     4  10  20  33  62  87 118 169 214 265 316 383
#     4  11  23  38  55  85 131 166 210 251 310 393
#     4  11  22  38  59  86 123 171 212 258 308 397
#     4  10  23  36  53  84 126 163 204 270 314 370
#     4  12  21  34  57  85 121 168 208 251 316 384
#     4  10  19  36  56  85 122 166 214 255 321 386
#
# _framework density 20.670667999999999
#
# number of rings (size 3 to 8) (size 9 to 14) (size 15 to 20)
#    0.000    1.429    4.286    2.571    2.000    1.143 
#    0.000    0.000    0.000    0.000    0.000    2.000 
#    4.286    0.000    0.000    0.000    0.000    0.000 
#
# Total GULP energy -155939.487592 kJ/mol
# GULP energy per Si atom -5569.267414 kJ/mol
# Density = 2.062362 g / cm^3
# Si number density = 20.670668 Si / 1000 Ang^3
#
#
#
# Elastic Constant Matrix: (Units=GPa)
#
#
# Indices 1 2 3 4 5 6 
#
# 1 54.6776 18.3780 27.8651 0.0000 0.0000 0.0000
# 2 18.3780 69.3646 38.4631 0.0000 0.0000 0.0000
# 3 27.8651 38.4631 125.1797 0.0000 0.0000 0.0000
# 4 0.0000 0.0000 0.0000 24.7325 0.0000 0.0000
# 5 0.0000 0.0000 0.0000 0.0000 27.2724 0.0000
# 6 0.0000 0.0000 0.0000 0.0000 0.0000 9.3243
#
#
#
# Elastic Compliance Matrix: (Units=1/GPa)
#
#
# Indices 1 2 3 4 5 6 
#
# 1 0.021367 -0.003645 -0.003636 0.000000 0.000000 0.000000
# 2 -0.003645 0.017999 -0.004719 0.000000 0.000000 0.000000
# 3 -0.003636 -0.004719 0.010248 0.000000 0.000000 0.000000
# 4 0.000000 0.000000 0.000000 0.040433 0.000000 0.000000
# 5 0.000000 0.000000 0.000000 0.000000 0.036667 0.000000
# 6 0.000000 0.000000 0.000000 0.000000 0.000000 0.107246
#
#
# Mechanical properties :
#
#
# Convention : Reuss Voigt Hill
#
# Bulk Modulus (GPa) = 39.04171 46.51492 42.77831
# Shear Modulus (GPa) = 18.76180 23.23357 20.99769
#
# Velocity S-wave (km/s) = 3.01600 3.35623 3.19065
# Velocity P-wave (km/s) = 5.57286 6.12950 5.85780
#
# Compressibility (1/GPa) = 0.02561364
#
# Stress axis : x y z
#
# Youngs Moduli (GPa) = 46.80036 55.55857 97.58006
#
# Poissons Ratio (x) = 0.20250 0.35485
# Poissons Ratio (y) = 0.17058 0.46049
# Poissons Ratio (z) = 0.17019 0.26219
#
# Static dielectric constant tensor:
#      x y z
#    x 1.801530 0.000000 0.000000 
#    y 0.000000 1.820530 0.000000 
#    z 0.000000 0.000000 1.824760 
# 
# From -- ./inp_files/20193.got.cif
#   From: 2010.05.17/outbox.cif.g08.bks.cpg/sg23_11_cif.got.tgz:20193.got - 2010.06.04 12:02:01.
