data_PCOD9330037
_publ_section_title
;
Structure prediction by ZEFSAII (Michael W. Deem and Ramdas Pophale) SiO2 
 PCOD9330037
Probable space group: I 2 2 2
;
_chemical_formula_sum "Si O2"
_cell_formula_units_Z 40
_cell_length_a 7.951096
_cell_length_b 14.365858
_cell_length_c 16.249844
_cell_angle_alpha 90.000000
_cell_angle_beta 90.000000
_cell_angle_gamma 90.000000
_cell_volume 1856.127317
_symmetry_space_group_name_H-M "I 2 2 2"
_symmetry_group_IT_number 23
_symmetry_cell_setting 'orthorhombic'
loop_
_space_group_symop_operation_xyz
x,y,z
-x,-y,z
x,-y,-z
-x,y,-z
1/2+x,1/2+y,1/2+z
1/2-x,1/2-y,1/2+z
1/2+x,1/2-y,1/2-z
1/2-x,1/2+y,1/2-z
loop_
_atom_site_type_symbol
_atom_site_label
_atom_site_fract_x
_atom_site_fract_y
_atom_site_fract_z
Si Si1 0.432488 0.641175 0.088177
Si Si2 0.845708 0.292886 0.344619
Si Si3 0.194140 0.194568 0.977759
Si Si4 0.371390 0.931054 0.142374
Si Si5 0.164098 0.942265 0.746821
O O1 0.588600 0.687280 0.141018
O O2 0.293139 0.719336 0.064217
O O3 0.347304 0.569000 0.149287
O O4 0.500000 0.608590 0.000000
O O5 0.787620 0.321980 0.435990
O O6 0.705382 0.338917 0.284886
O O7 0.018475 0.345816 0.324811
O O8 0.227362 0.108587 0.916671
O O9 0.000000 0.211200 0.000000
O O10 0.500000 0.000000 0.096257
O O11 0.306462 0.991800 0.217408
O O12 0.000000 0.000000 0.774177
#
# Coordination Sequence:
#
# PCOD9330037 Si02
#       5
#     8   8   8   8   8
#     4   9  21  41  60  83 120 161 195 238 295 349
#     4   9  20  37  58  84 118 158 193 243 298 343
#     4  10  19  36  62  87 116 158 204 239 286 356
#     4   9  19  35  53  84 124 154 186 239 303 345
#     4  11  22  35  58  88 113 148 198 244 290 347
#
# _framework density 21.550245
#
# number of rings (size 3 to 8) (size 9 to 14) (size 15 to 20)
#    0.000    2.400    0.000    3.000    0.000   10.800 
#    0.000   15.000    0.000    0.000    0.000    0.000 
#    0.000    0.000    0.000    0.000    0.000    0.000 
#
# Total GULP energy -111359.023127 kJ/mol
# GULP energy per Si atom -5567.951156 kJ/mol
# Density = 2.150120 g / cm^3
# Si number density = 21.550245 Si / 1000 Ang^3
#
#
#
# Elastic Constant Matrix: (Units=GPa)
#
#
# Indices 1 2 3 4 5 6 
#
# 1 105.9450 33.9119 42.8505 0.0000 0.0000 0.0000
# 2 33.9119 55.4662 42.3878 0.0000 0.0000 0.0000
# 3 42.8505 42.3878 119.8442 0.0000 0.0000 0.0000
# 4 0.0000 0.0000 0.0000 40.0317 0.0000 0.0000
# 5 0.0000 0.0000 0.0000 0.0000 31.1976 0.0000
# 6 0.0000 0.0000 0.0000 0.0000 0.0000 13.6245
#
#
#
# Elastic Compliance Matrix: (Units=1/GPa)
#
#
# Indices 1 2 3 4 5 6 
#
# 1 0.012205 -0.005656 -0.002364 0.000000 0.000000 0.000000
# 2 -0.005656 0.027328 -0.007643 0.000000 0.000000 0.000000
# 3 -0.002364 -0.007643 0.011893 0.000000 0.000000 0.000000
# 4 0.000000 0.000000 0.000000 0.024980 0.000000 0.000000
# 5 0.000000 0.000000 0.000000 0.000000 0.032054 0.000000
# 6 0.000000 0.000000 0.000000 0.000000 0.000000 0.073397
#
#
# Mechanical properties :
#
#
# Convention : Reuss Voigt Hill
#
# Bulk Modulus (GPa) = 49.75076 57.72844 53.73960
# Shear Modulus (GPa) = 22.73932 27.77778 25.25855
#
# Velocity S-wave (km/s) = 3.25187 3.59413 3.42728
# Velocity P-wave (km/s) = 6.10210 6.63850 6.37594
#
# Compressibility (1/GPa) = 0.02010020
#
# Stress axis : x y z
#
# Youngs Moduli (GPa) = 81.93199 36.59208 84.08540
#
# Poissons Ratio (x) = 0.20697 0.19874
# Poissons Ratio (y) = 0.46341 0.64270
# Poissons Ratio (z) = 0.19365 0.27969
#
# Static dielectric constant tensor:
#      x y z
#    x 1.864190 0.000000 0.000000 
#    y 0.000000 1.893120 0.000000 
#    z 0.000000 0.000000 1.752770 
# 
# From -- ./inp_files/19778.got.cif
#   From: 2010.05.17/outbox.cif.g08.bks.cpg/sg23_10_cif.got.tgz:19778.got - 2010.06.04 12:02:01.
