data_PCOD9330187
_publ_section_title
;
Structure prediction by ZEFSAII (Michael W. Deem and Ramdas Pophale) SiO2 
 PCOD9330187
Probable space group: I 2 2 2
;
_chemical_formula_sum "Si O2"
_cell_formula_units_Z 64
_cell_length_a 26.848905
_cell_length_b 15.687073
_cell_length_c 7.366618
_cell_angle_alpha 90.000000
_cell_angle_beta 90.000000
_cell_angle_gamma 90.000000
_cell_volume 3102.677567
_symmetry_space_group_name_H-M "I 2 2 2"
_symmetry_group_IT_number 23
_symmetry_cell_setting 'orthorhombic'
loop_
_space_group_symop_operation_xyz
x,y,z
-x,-y,z
x,-y,-z
-x,y,-z
1/2+x,1/2+y,1/2+z
1/2-x,1/2-y,1/2+z
1/2+x,1/2-y,1/2-z
1/2-x,1/2+y,1/2-z
loop_
_atom_site_type_symbol
_atom_site_label
_atom_site_fract_x
_atom_site_fract_y
_atom_site_fract_z
Si Si1 0.727041 0.165426 0.454362
Si Si2 0.687212 0.218233 0.945972
Si Si3 0.778820 0.437180 0.634235
Si Si4 0.552360 0.945909 0.784572
Si Si5 0.553520 0.788636 0.507489
Si Si6 0.796678 0.051914 0.683412
Si Si7 0.405444 0.115793 0.172027
Si Si8 0.851138 0.207122 0.824513
O O1 0.777807 0.207460 0.368620
O O2 0.701575 0.093389 0.328720
O O3 0.751491 0.116906 0.623987
O O4 0.687178 0.240682 0.453650
O O5 0.647563 0.162836 0.837481
O O6 0.725487 0.149695 0.026264
O O7 0.657411 0.253624 0.121944
O O8 0.808249 0.500000 0.500000
O O9 0.728417 0.483723 0.686672
O O10 0.550279 0.873475 0.633378
O O11 0.500000 0.000000 0.792876
O O12 0.592758 0.020192 0.747838
O O13 0.569136 0.900014 0.973598
O O14 0.500000 0.745429 0.500000
O O15 0.564658 0.822817 0.306134
O O16 0.595586 0.728713 0.592863
O O17 0.836705 0.109322 0.787006
O O18 0.811975 0.000000 0.500000
#
# Coordination Sequence:
#
# PCOD9330187 Si02
#       8
#     8   8   8   8   8   8   8   8
#     4   9  20  38  58  80 126 167 198 254 309 369
#     4  10  21  37  55  85 124 165 203 248 307 374
#     4  10  20  31  54  82 115 159 205 246 294 366
#     4  11  23  41  58  80 121 172 223 266 297 354
#     4  12  25  39  60  87 120 170 219 261 319 369
#     4   9  19  38  59  84 119 168 207 248 312 376
#     4  11  23  35  59  85 119 170 208 255 307 362
#     4  10  21  39  56  83 124 160 206 263 305 373
#
# _framework density 20.627343
#
# number of rings (size 3 to 8) (size 9 to 14) (size 15 to 20)
#    0.000    1.750    2.500    1.875    1.750    5.000 
#    0.000    1.250    0.000    0.000    0.000    0.000 
#    0.000   60.500    0.000    0.000    0.000    0.000 
#
# Total GULP energy -178374.614207 kJ/mol
# GULP energy per Si atom -5574.206694 kJ/mol
# Density = 2.058039 g / cm^3
# Si number density = 20.627343 Si / 1000 Ang^3
#
#
#
# Elastic Constant Matrix: (Units=GPa)
#
#
# Indices 1 2 3 4 5 6 
#
# 1 133.7522 50.3673 32.8829 0.0000 0.0000 0.0000
# 2 50.3673 81.4053 19.2408 0.0000 0.0000 0.0000
# 3 32.8829 19.2408 67.0343 0.0000 0.0000 0.0000
# 4 0.0000 0.0000 0.0000 20.4016 0.0000 0.0000
# 5 0.0000 0.0000 0.0000 0.0000 27.8857 0.0000
# 6 0.0000 0.0000 0.0000 0.0000 0.0000 32.0036
#
#
#
# Elastic Compliance Matrix: (Units=1/GPa)
#
#
# Indices 1 2 3 4 5 6 
#
# 1 0.010466 -0.005645 -0.003514 0.000000 0.000000 0.000000
# 2 -0.005645 0.016223 -0.001887 0.000000 0.000000 0.000000
# 3 -0.003514 -0.001887 0.017183 0.000000 0.000000 0.000000
# 4 0.000000 0.000000 0.000000 0.049016 0.000000 0.000000
# 5 0.000000 0.000000 0.000000 0.000000 0.035861 0.000000
# 6 0.000000 0.000000 0.000000 0.000000 0.000000 0.031246
#
#
# Mechanical properties :
#
#
# Convention : Reuss Voigt Hill
#
# Bulk Modulus (GPa) = 45.91391 54.13042 50.02217
# Shear Modulus (GPa) = 26.40644 28.03823 27.22234
#
# Velocity S-wave (km/s) = 3.58182 3.69083 3.63674
# Velocity P-wave (km/s) = 6.27798 6.66799 6.47592
#
# Compressibility (1/GPa) = 0.02177989
#
# Stress axis : x y z
#
# Youngs Moduli (GPa) = 95.54598 61.64062 58.19676
#
# Poissons Ratio (x) = 0.34797 0.20449
# Poissons Ratio (y) = 0.53937 0.10984
# Poissons Ratio (z) = 0.33572 0.11634
#
# Static dielectric constant tensor:
#      x y z
#    x 1.755650 0.000000 0.000000 
#    y 0.000000 1.760930 0.000000 
#    z 0.000000 0.000000 1.848820 
# 
# From -- ./inp_files/13540.got.cif
#   From: 2010.05.17/outbox.cif.g08.bks.cpg/sg23_7_cif.got.tgz:13540.got - 2010.06.04 12:02:01.
