data_PCOD9330736
_publ_section_title
;
Structure prediction by ZEFSAII (Michael W. Deem and Ramdas Pophale) SiO2 
 PCOD9330736
Probable space group: I 2 2 2
;
_chemical_formula_sum "Si O2"
_cell_formula_units_Z 40
_cell_length_a 25.895538
_cell_length_b 9.170002
_cell_length_c 8.306970
_cell_angle_alpha 90.000000
_cell_angle_beta 90.000000
_cell_angle_gamma 90.000000
_cell_volume 1972.590834
_symmetry_space_group_name_H-M "I 2 2 2"
_symmetry_group_IT_number 23
_symmetry_cell_setting 'orthorhombic'
loop_
_space_group_symop_operation_xyz
x,y,z
-x,-y,z
x,-y,-z
-x,y,-z
1/2+x,1/2+y,1/2+z
1/2-x,1/2-y,1/2+z
1/2+x,1/2-y,1/2-z
1/2-x,1/2+y,1/2-z
loop_
_atom_site_type_symbol
_atom_site_label
_atom_site_fract_x
_atom_site_fract_y
_atom_site_fract_z
Si Si1 0.649284 0.882051 0.638588
Si Si2 0.558205 0.036004 0.811627
Si Si3 0.838896 0.897056 0.279961
Si Si4 0.771417 0.448158 0.325152
Si Si5 0.363628 0.714956 0.865013
O O1 0.649153 0.708065 0.628376
O O2 0.658719 0.000000 0.500000
O O3 0.595578 0.930596 0.714408
O O4 0.696011 0.916351 0.759033
O O5 0.586050 0.194477 0.806877
O O6 0.500000 0.000000 0.759355
O O7 0.561004 0.000000 0.000000
O O8 0.776803 0.911325 0.286580
O O9 0.861736 0.824495 0.443856
O O10 0.859291 0.061418 0.274948
O O11 0.752431 0.500000 0.500000
O O12 0.813474 0.317836 0.335386
#
# Coordination Sequence:
#
# PCOD9330736 Si02
#       5
#     8   8   8   8   8
#     4  11  23  38  59  90 127 164 218 268 328 404
#     4  10  20  42  68  85 116 164 217 275 334 403
#     4  11  22  35  59  90 133 166 215 278 329 380
#     4  11  22  37  55  83 127 182 221 248 320 405
#     4  10  21  38  59  91 127 162 224 281 319 398
#
# _framework density 20.277899999999999
#
# number of rings (size 3 to 8) (size 9 to 14) (size 15 to 20)
#    0.000    1.400    4.000    2.400    5.600    2.000 
#    0.000    1.000    0.000    0.000    0.000    5.600 
#    0.000    0.000    0.000    0.000    0.000    0.000 
#
# Total GULP energy -111534.303495 kJ/mol
# GULP energy per Si atom -5576.715175 kJ/mol
# Density = 2.023175 g / cm^3
# Si number density = 20.277900 Si / 1000 Ang^3
#
#
#
# Elastic Constant Matrix: (Units=GPa)
#
#
# Indices 1 2 3 4 5 6 
#
# 1 119.3161 58.5339 12.8321 0.0000 0.0000 0.0000
# 2 58.5339 180.3289 20.7144 0.0000 0.0000 0.0000
# 3 12.8321 20.7144 29.8507 0.0000 0.0000 0.0000
# 4 0.0000 0.0000 0.0000 33.9418 0.0000 0.0000
# 5 0.0000 0.0000 0.0000 0.0000 16.3173 0.0000
# 6 0.0000 0.0000 0.0000 0.0000 0.0000 6.8832
#
#
#
# Elastic Compliance Matrix: (Units=1/GPa)
#
#
# Indices 1 2 3 4 5 6 
#
# 1 0.010105 -0.003022 -0.002247 0.000000 0.000000 0.000000
# 2 -0.003022 0.006929 -0.003510 0.000000 0.000000 0.000000
# 3 -0.002247 -0.003510 0.036901 0.000000 0.000000 0.000000
# 4 0.000000 0.000000 0.000000 0.029462 0.000000 0.000000
# 5 0.000000 0.000000 0.000000 0.000000 0.061285 0.000000
# 6 0.000000 0.000000 0.000000 0.000000 0.000000 0.145281
#
#
# Mechanical properties :
#
#
# Convention : Reuss Voigt Hill
#
# Bulk Modulus (GPa) = 27.48829 57.07293 42.28061
# Shear Modulus (GPa) = 15.64226 27.25615 21.44920
#
# Velocity S-wave (km/s) = 2.78041 3.67022 3.25585
# Velocity P-wave (km/s) = 4.88803 6.79464 5.91861
#
# Compressibility (1/GPa) = 0.03637913
#
# Stress axis : x y z
#
# Youngs Moduli (GPa) = 98.95813 144.31070 27.09934
#
# Poissons Ratio (x) = 0.43611 0.06089
# Poissons Ratio (y) = 0.29905 0.09511
# Poissons Ratio (z) = 0.22235 0.50646
#
# Static dielectric constant tensor:
#      x y z
#    x 1.697480 0.000000 0.000000 
#    y 0.000000 1.751170 0.000000 
#    z 0.000000 0.000000 1.826760 
# 
# From -- ./inp_files/6902.got.cif
#   From: 2010.05.17/outbox.cif.g08.bks.cpg/sg23_4_cif.got.tgz:6902.got - 2010.06.04 12:02:01.
