data_PCOD9330886
_publ_section_title
;
Structure prediction by ZEFSAII (Michael W. Deem and Ramdas Pophale) SiO2 
 PCOD9330886
Probable space group: I 2 2 2
;
_chemical_formula_sum "Si O2"
_cell_formula_units_Z 52
_cell_length_a 7.159581
_cell_length_b 17.576231
_cell_length_c 16.821738
_cell_angle_alpha 90.000000
_cell_angle_beta 90.000000
_cell_angle_gamma 90.000000
_cell_volume 2116.821428
_symmetry_space_group_name_H-M "I 2 2 2"
_symmetry_group_IT_number 23
_symmetry_cell_setting 'orthorhombic'
loop_
_space_group_symop_operation_xyz
x,y,z
-x,-y,z
x,-y,-z
-x,y,-z
1/2+x,1/2+y,1/2+z
1/2-x,1/2-y,1/2+z
1/2+x,1/2-y,1/2-z
1/2-x,1/2+y,1/2-z
loop_
_atom_site_type_symbol
_atom_site_label
_atom_site_fract_x
_atom_site_fract_y
_atom_site_fract_z
Si Si1 0.320509 0.273723 0.902095
Si Si2 0.670133 0.623872 0.620968
Si Si3 0.115860 0.393253 0.366432
Si Si4 0.227469 0.292778 0.076772
Si Si5 0.000000 0.500000 0.500000
Si Si6 0.500000 0.500000 0.500000
Si Si7 0.773505 0.431842 0.814767
Si Si8 0.344584 0.591347 0.199914
O O1 0.284302 0.185255 0.887596
O O2 0.547239 0.280757 0.910050
O O3 0.270057 0.327910 0.829432
O O4 0.221609 0.302548 0.981868
O O5 0.870390 0.451122 0.559737
O O6 0.634738 0.712344 0.600716
O O7 0.590400 0.562683 0.560534
O O8 0.610006 0.597467 0.707638
O O9 0.894117 0.381061 0.370516
O O10 0.173608 0.417310 0.277832
O O11 0.154304 0.364208 0.128148
O O12 0.551286 0.423473 0.833093
O O13 0.794925 0.523186 0.823595
#
# Coordination Sequence:
#
# PCOD9330886 Si02
#       8
#     8   8   8   8   2   2   8   8
#     4   9  19  36  60  88 123 165 218 267 316 376
#     4  11  23  40  62  91 127 164 208 263 332 389
#     4  11  22  38  61  90 123 165 214 267 321 386
#     4   9  19  37  60  90 124 166 214 267 319 377
#     4  12  22  32  56  86 110 152 208 258 318 376
#     4  12  26  44  68  98 130 162 208 272 330 402
#     4  10  21  37  60  90 128 167 215 267 317 377
#     4  10  21  37  58  88 126 171 213 266 322 373
#
# _framework density 24.565134
#
# number of rings (size 3 to 8) (size 9 to 14) (size 15 to 20)
#    0.000    1.846    0.000    5.077    0.000    4.308 
#    0.000    4.615    0.000    0.000    0.000    2.154 
#    0.000    0.000    0.000    0.000    0.000    0.000 
#
# Total GULP energy -145288.842406 kJ/mol
# GULP energy per Si atom -5588.032400 kJ/mol
# Density = 2.450922 g / cm^3
# Si number density = 24.565134 Si / 1000 Ang^3
#
#
#
# Elastic Constant Matrix: (Units=GPa)
#
#
# Indices 1 2 3 4 5 6 
#
# 1 78.5177 25.0192 9.9268 0.0000 0.0000 0.0000
# 2 25.0192 229.9345 106.8112 0.0000 0.0000 0.0000
# 3 9.9268 106.8112 68.6698 0.0000 0.0000 0.0000
# 4 0.0000 0.0000 0.0000 51.4767 0.0000 0.0000
# 5 0.0000 0.0000 0.0000 0.0000 24.5649 0.0000
# 6 0.0000 0.0000 0.0000 0.0000 0.0000 18.7725
#
#
#
# Elastic Compliance Matrix: (Units=1/GPa)
#
#
# Indices 1 2 3 4 5 6 
#
# 1 0.013220 -0.001985 0.001176 0.000000 0.000000 0.000000
# 2 -0.001985 0.015973 -0.024558 0.000000 0.000000 0.000000
# 3 0.001176 -0.024558 0.052590 0.000000 0.000000 0.000000
# 4 0.000000 0.000000 0.000000 0.019426 0.000000 0.000000
# 5 0.000000 0.000000 0.000000 0.000000 0.040709 0.000000
# 6 0.000000 0.000000 0.000000 0.000000 0.000000 0.053269
#
#
# Mechanical properties :
#
#
# Convention : Reuss Voigt Hill
#
# Bulk Modulus (GPa) = 32.20596 73.40406 52.80501
# Shear Modulus (GPa) = 19.51076 34.65379 27.08228
#
# Velocity S-wave (km/s) = 2.82129 3.75999 3.32395
# Velocity P-wave (km/s) = 4.87359 6.98544 6.02280
#
# Compressibility (1/GPa) = 0.03105015
#
# Stress axis : x y z
#
# Youngs Moduli (GPa) = 75.64453 62.60678 19.01505
#
# Poissons Ratio (x) = 0.12427 -0.02237
# Poissons Ratio (y) = 0.15014 0.46696
# Poissons Ratio (z) = -0.08898 1.53747
#
# Static dielectric constant tensor:
#      x y z
#    x 2.542040 0.000000 0.000000 
#    y 0.000000 1.986070 0.000000 
#    z 0.000000 0.000000 1.925840 
# 
# From -- ./inp_files/16923.got.cif
#   From: 2010.05.17/outbox.cif.g08.bks.cpg/sg23_9_cif.got.tgz:16923.got - 2010.06.04 12:02:01.
