data_PCOD9330159
_publ_section_title
;
Structure prediction by ZEFSAII (Michael W. Deem and Ramdas Pophale) SiO2 
 PCOD9330159
Probable space group: I 2 2 2
;
_chemical_formula_sum "Si O2"
_cell_formula_units_Z 52
_cell_length_a 19.335185
_cell_length_b 15.899126
_cell_length_c 7.092591
_cell_angle_alpha 90.000000
_cell_angle_beta 90.000000
_cell_angle_gamma 90.000000
_cell_volume 2180.351433
_symmetry_space_group_name_H-M "I 2 2 2"
_symmetry_group_IT_number 23
_symmetry_cell_setting 'orthorhombic'
loop_
_space_group_symop_operation_xyz
x,y,z
-x,-y,z
x,-y,-z
-x,y,-z
1/2+x,1/2+y,1/2+z
1/2-x,1/2-y,1/2+z
1/2+x,1/2-y,1/2-z
1/2-x,1/2+y,1/2-z
loop_
_atom_site_type_symbol
_atom_site_label
_atom_site_fract_x
_atom_site_fract_y
_atom_site_fract_z
Si Si1 0.931456 0.368364 0.065360
Si Si2 0.185877 0.654783 0.796896
Si Si3 0.378027 0.409912 0.249784
Si Si4 0.672075 0.000000 0.500000
Si Si5 0.501927 0.708944 0.775355
Si Si6 0.267323 0.325100 0.533265
Si Si7 0.863056 0.103247 0.697261
O O1 0.961010 0.288875 0.181643
O O2 0.891804 0.340066 0.874403
O O3 0.875941 0.438178 0.130040
O O4 0.000000 0.413341 0.000000
O O5 0.195747 0.663883 0.575045
O O6 0.212172 0.873778 0.778889
O O7 0.223867 0.728844 0.908113
O O8 0.452700 0.368928 0.279572
O O9 0.323290 0.360158 0.380924
O O10 0.379409 0.510266 0.273472
O O11 0.363533 0.396262 0.027659
O O12 0.711555 0.063505 0.365481
O O13 0.579409 0.671827 0.737314
O O14 0.500000 0.723404 0.000000
#
# Coordination Sequence:
#
# PCOD9330159 Si02
#       7
#     8   8   8   4   8   8   8
#     4  10  19  42  73 103 132 180 240 306 374 424
#     4  10  25  43  71  99 142 186 250 305 369 440
#     4  10  21  42  66 104 148 194 230 294 362 439
#     4   8  21  44  70 104 124 190 235 310 360 430
#     4  10  20  38  70 109 146 183 237 297 372 449
#     4  12  24  45  64 101 140 196 245 295 363 444
#     4  10  23  39  68 105 150 186 236 293 363 451
#
# _framework density 23.849367000000001
#
# number of rings (size 3 to 8) (size 9 to 14) (size 15 to 20)
#    0.923    0.923    1.538    2.077    2.154    3.077 
#    2.769    1.538    0.000    3.692    0.000    0.000 
#    0.000    0.000    0.000    0.000    0.000    0.000 
#
# Total GULP energy -145010.436054 kJ/mol
# GULP energy per Si atom -5577.324464 kJ/mol
# Density = 2.379508 g / cm^3
# Si number density = 23.849367 Si / 1000 Ang^3
#
#
#
# Elastic Constant Matrix: (Units=GPa)
#
#
# Indices 1 2 3 4 5 6 
#
# 1 64.1988 26.8125 20.6482 0.0000 0.0000 0.0000
# 2 26.8125 181.3178 29.9081 0.0000 0.0000 0.0000
# 3 20.6482 29.9081 92.5033 0.0000 0.0000 0.0000
# 4 0.0000 0.0000 0.0000 28.5624 0.0000 0.0000
# 5 0.0000 0.0000 0.0000 0.0000 39.6094 0.0000
# 6 0.0000 0.0000 0.0000 0.0000 0.0000 19.3588
#
#
#
# Elastic Compliance Matrix: (Units=1/GPa)
#
#
# Indices 1 2 3 4 5 6 
#
# 1 0.017474 -0.002050 -0.003238 0.000000 0.000000 0.000000
# 2 -0.002050 0.006066 -0.001504 0.000000 0.000000 0.000000
# 3 -0.003238 -0.001504 0.012019 0.000000 0.000000 0.000000
# 4 0.000000 0.000000 0.000000 0.035011 0.000000 0.000000
# 5 0.000000 0.000000 0.000000 0.000000 0.025247 0.000000
# 6 0.000000 0.000000 0.000000 0.000000 0.000000 0.051656
#
#
# Mechanical properties :
#
#
# Convention : Reuss Voigt Hill
#
# Bulk Modulus (GPa) = 45.50229 54.75084 50.12656
# Shear Modulus (GPa) = 29.69437 34.88285 32.28861
#
# Velocity S-wave (km/s) = 3.53240 3.82859 3.68347
# Velocity P-wave (km/s) = 5.97976 6.52310 6.25733
#
# Compressibility (1/GPa) = 0.02197692
#
# Stress axis : x y z
#
# Youngs Moduli (GPa) = 57.22752 164.84347 83.19921
#
# Poissons Ratio (x) = 0.33792 0.26938
# Poissons Ratio (y) = 0.11731 0.12511
# Poissons Ratio (z) = 0.18529 0.24789
#
# Static dielectric constant tensor:
#      x y z
#    x 1.990410 0.000000 0.000000 
#    y 0.000000 1.934400 0.000000 
#    z 0.000000 0.000000 1.944680 
# 
# From -- ./inp_files/12009.got.cif
#   From: 2010.05.17/outbox.cif.g08.bks.cpg/sg23_7_cif.got.tgz:12009.got - 2010.06.04 12:02:01.
