data_PCOD9330714
_publ_section_title
;
Structure prediction by ZEFSAII (Michael W. Deem and Ramdas Pophale) SiO2 
 PCOD9330714
Probable space group: I 2 2 2
;
_chemical_formula_sum "Si O2"
_cell_formula_units_Z 60
_cell_length_a 5.327405
_cell_length_b 22.584795
_cell_length_c 22.512391
_cell_angle_alpha 90.000000
_cell_angle_beta 90.000000
_cell_angle_gamma 90.000000
_cell_volume 2708.653735
_symmetry_space_group_name_H-M "I 2 2 2"
_symmetry_group_IT_number 23
_symmetry_cell_setting 'orthorhombic'
loop_
_space_group_symop_operation_xyz
x,y,z
-x,-y,z
x,-y,-z
-x,y,-z
1/2+x,1/2+y,1/2+z
1/2-x,1/2-y,1/2+z
1/2+x,1/2-y,1/2-z
1/2-x,1/2+y,1/2-z
loop_
_atom_site_type_symbol
_atom_site_label
_atom_site_fract_x
_atom_site_fract_y
_atom_site_fract_z
Si Si1 0.379353 0.217668 0.198446
Si Si2 0.344845 0.575775 0.774247
Si Si3 0.383136 0.649400 0.661337
Si Si4 0.876216 0.934733 0.395923
Si Si5 0.500000 0.000000 0.331478
Si Si6 0.947332 0.679157 0.182703
Si Si7 0.194489 0.679582 0.054643
Si Si8 0.257559 0.815117 0.036504
O O1 0.640187 0.188038 0.180720
O O2 0.370918 0.210279 0.269626
O O3 0.144969 0.184340 0.167778
O O4 0.316539 0.285381 0.184303
O O5 0.416372 0.595296 0.708259
O O6 0.508159 0.587256 0.833201
O O7 0.231635 0.511344 0.787180
O O8 0.101040 0.616064 0.788073
O O9 0.312878 0.643256 0.592362
O O10 0.872327 0.878593 0.439602
O O11 0.591622 0.951201 0.378700
O O12 0.000000 0.000000 0.411703
O O13 0.046162 0.679812 0.116839
O O14 0.314407 0.745597 0.052778
O O15 0.000000 0.673281 0.000000
O O16 0.500000 0.836182 0.000000
O O17 0.000000 0.811876 0.000000
#
# Coordination Sequence:
#
# PCOD9330714 Si02
#       8
#     8   8   8   8   4   8   8   8
#     4  11  23  36  59  96 127 163 205 271 317 389
#     4  10  22  35  68  89 124 160 203 274 335 396
#     4  11  23  39  63  95 128 167 216 251 330 400
#     4  10  22  42  67  86 121 164 218 280 341 374
#     4  10  20  42  59  92 127 152 200 286 338 378
#     4  11  21  38  61  91 126 163 212 261 329 384
#     4  11  24  40  64  87 124 178 220 269 316 380
#     4  11  25  44  62  90 137 177 215 263 313 383
#
# _framework density 22.151226000000001
#
# number of rings (size 3 to 8) (size 9 to 14) (size 15 to 20)
#    0.000    1.333    2.667    3.200    5.600    0.000 
#    0.000    0.333    2.933    0.000    0.000    0.467 
#    0.000    0.000    0.000    0.000    0.000    0.000 
#
# Total GULP energy -167158.087580 kJ/mol
# GULP energy per Si atom -5571.936253 kJ/mol
# Density = 2.210081 g / cm^3
# Si number density = 22.151226 Si / 1000 Ang^3
#
#
#
# Elastic Constant Matrix: (Units=GPa)
#
#
# Indices 1 2 3 4 5 6 
#
# 1 71.0936 -7.3783 7.7091 0.0000 0.0000 0.0000
# 2 -7.3783 32.6416 14.6193 0.0000 0.0000 0.0000
# 3 7.7091 14.6193 124.8987 0.0000 0.0000 0.0000
# 4 0.0000 0.0000 0.0000 12.6569 0.0000 0.0000
# 5 0.0000 0.0000 0.0000 0.0000 40.7830 0.0000
# 6 0.0000 0.0000 0.0000 0.0000 0.0000 22.7162
#
#
#
# Elastic Compliance Matrix: (Units=1/GPa)
#
#
# Indices 1 2 3 4 5 6 
#
# 1 0.014620 0.003914 -0.001360 0.000000 0.000000 0.000000
# 2 0.003914 0.033378 -0.004149 0.000000 0.000000 0.000000
# 3 -0.001360 -0.004149 0.008576 0.000000 0.000000 0.000000
# 4 0.000000 0.000000 0.000000 0.079008 0.000000 0.000000
# 5 0.000000 0.000000 0.000000 0.000000 0.024520 0.000000
# 6 0.000000 0.000000 0.000000 0.000000 0.000000 0.044021
#
#
# Mechanical properties :
#
#
# Convention : Reuss Voigt Hill
#
# Bulk Modulus (GPa) = 18.73220 28.72603 23.72911
# Shear Modulus (GPa) = 22.21151 29.47681 25.84416
#
# Velocity S-wave (km/s) = 3.17001 3.65184 3.41943
# Velocity P-wave (km/s) = 4.67691 5.54775 5.13084
#
# Compressibility (1/GPa) = 0.05338402
#
# Stress axis : x y z
#
# Youngs Moduli (GPa) = 68.40094 29.95948 116.60390
#
# Poissons Ratio (x) = -0.11726 0.15864
# Poissons Ratio (y) = -0.26772 0.48373
# Poissons Ratio (z) = 0.09306 0.12429
#
# Static dielectric constant tensor:
#      x y z
#    x 1.929400 0.000000 0.000000 
#    y 0.000000 2.052520 0.000000 
#    z 0.000000 0.000000 1.859990 
# 
# From -- ./inp_files/25806.got.cif
#   From: 2010.05.17/outbox.cif.g08.bks.cpg/sg23_13_cif.got.tgz:25806.got - 2010.06.04 12:02:01.
