data_PCOD9330087
_publ_section_title
;
Structure prediction by ZEFSAII (Michael W. Deem and Ramdas Pophale) SiO2 
 PCOD9330087
Probable space group: I 2 2 2
;
_chemical_formula_sum "Si O2"
_cell_formula_units_Z 56
_cell_length_a 14.311043
_cell_length_b 13.552301
_cell_length_c 11.549893
_cell_angle_alpha 90.000000
_cell_angle_beta 90.000000
_cell_angle_gamma 90.000000
_cell_volume 2240.073593
_symmetry_space_group_name_H-M "I 2 2 2"
_symmetry_group_IT_number 23
_symmetry_cell_setting 'orthorhombic'
loop_
_space_group_symop_operation_xyz
x,y,z
-x,-y,z
x,-y,-z
-x,y,-z
1/2+x,1/2+y,1/2+z
1/2-x,1/2-y,1/2+z
1/2+x,1/2-y,1/2-z
1/2-x,1/2+y,1/2-z
loop_
_atom_site_type_symbol
_atom_site_label
_atom_site_fract_x
_atom_site_fract_y
_atom_site_fract_z
Si Si1 0.608926 0.475437 0.133296
Si Si2 0.322531 0.790349 0.867573
Si Si3 0.925242 0.582387 0.174369
Si Si4 0.292776 0.086548 0.340674
Si Si5 0.131242 0.399318 0.426312
Si Si6 0.658775 0.375313 0.674871
Si Si7 0.125085 0.256261 0.017742
O O1 0.500000 0.500000 0.127572
O O2 0.682923 0.386599 0.149549
O O3 0.632665 0.527495 0.256366
O O4 0.639258 0.500000 0.000000
O O5 0.325862 0.886775 0.787516
O O6 0.347853 0.702969 0.780575
O O7 0.216635 0.773387 0.909069
O O8 0.382642 0.810919 0.981679
O O9 0.826103 0.527152 0.143271
O O10 0.930174 0.601622 0.311231
O O11 0.939058 0.684716 0.107609
O O12 0.000000 0.500000 0.141298
O O13 0.343449 0.158391 0.428780
O O14 0.122123 0.500000 0.500000
O O15 0.236969 0.385984 0.376818
O O16 0.599875 0.335408 0.565357
#
# Coordination Sequence:
#
# PCOD9330087 Si02
#       7
#     8   8   8   8   8   8   8
#     4  11  22  39  67  99 130 168 224 281 342 415
#     4  10  19  37  66  95 127 175 223 278 343 397
#     4  12  24  41  65  98 136 180 237 274 341 424
#     4  11  21  40  66  90 128 181 225 279 340 407
#     4  11  20  38  65  96 135 180 225 275 339 413
#     4  10  20  39  69  99 132 169 229 280 349 400
#     4  10  22  38  67  94 130 182 224 282 335 406
#
# _framework density 24.999179999999999
#
# number of rings (size 3 to 8) (size 9 to 14) (size 15 to 20)
#    0.000    1.286    4.286    2.143    0.000    1.429 
#    0.000    4.286    9.429    9.857    0.000    0.000 
#    0.000    0.000    0.000    0.000    0.000    0.000 
#
# Total GULP energy -156160.865369 kJ/mol
# GULP energy per Si atom -5577.173763 kJ/mol
# Density = 2.494228 g / cm^3
# Si number density = 24.999180 Si / 1000 Ang^3
#
#
#
# Elastic Constant Matrix: (Units=GPa)
#
#
# Indices 1 2 3 4 5 6 
#
# 1 86.5885 -1.7720 17.8277 0.0000 0.0000 0.0000
# 2 -1.7720 33.4493 25.9092 0.0000 0.0000 0.0000
# 3 17.8277 25.9092 161.9878 0.0000 0.0000 0.0000
# 4 0.0000 0.0000 0.0000 -65.4352 0.0000 0.0000
# 5 0.0000 0.0000 0.0000 0.0000 25.3629 0.0000
# 6 0.0000 0.0000 0.0000 0.0000 0.0000 19.7582
#
#
#
# Elastic Compliance Matrix: (Units=1/GPa)
#
#
# Indices 1 2 3 4 5 6 
#
# 1 0.011919 0.001881 -0.001613 0.000000 0.000000 0.000000
# 2 0.001881 0.034420 -0.005712 0.000000 0.000000 0.000000
# 3 -0.001613 -0.005712 0.007264 0.000000 0.000000 0.000000
# 4 0.000000 0.000000 0.000000 -0.015282 0.000000 0.000000
# 5 0.000000 0.000000 0.000000 0.000000 0.039428 0.000000
# 6 0.000000 0.000000 0.000000 0.000000 0.000000 0.050612
#
#
# Mechanical properties :
#
#
# Convention : Reuss Voigt Hill
#
# Bulk Modulus (GPa) = 23.41080 40.66171 32.03626
# Shear Modulus (GPa) = 32.57573 11.94123 22.25848
#
# Velocity S-wave (km/s) = 3.61373 2.18793 2.98714
# Velocity P-wave (km/s) = 5.17658 4.76269 4.97394
#
# Compressibility (1/GPa) = 0.04271532
#
# Stress axis : x y z
#
# Youngs Moduli (GPa) = 83.89702 29.05263 137.65696
#
# Poissons Ratio (x) = -0.05463 0.22198
# Poissons Ratio (y) = -0.15777 0.78634
# Poissons Ratio (z) = 0.13529 0.16596
#
# Static dielectric constant tensor:
#      x y z
#    x 2.200390 0.000000 0.000000 
#    y 0.000000 2.166190 0.000000 
#    z 0.000000 0.000000 1.975540 
# 
# From -- ./inp_files/16762.got.cif
#   From: 2010.05.17/outbox.cif.g08.bks.cpg/sg23_9_cif.got.tgz:16762.got - 2010.06.04 12:02:01.
