data_PCOD9330294
_publ_section_title
;
Structure prediction by ZEFSAII (Michael W. Deem and Ramdas Pophale) SiO2 
 PCOD9330294
Probable space group: I 2 2 2
;
_chemical_formula_sum "Si O2"
_cell_formula_units_Z 56
_cell_length_a 23.498855
_cell_length_b 7.681660
_cell_length_c 10.783187
_cell_angle_alpha 90.000000
_cell_angle_beta 90.000000
_cell_angle_gamma 90.000000
_cell_volume 1946.475398
_symmetry_space_group_name_H-M "I 2 2 2"
_symmetry_group_IT_number 23
_symmetry_cell_setting 'orthorhombic'
loop_
_space_group_symop_operation_xyz
x,y,z
-x,-y,z
x,-y,-z
-x,y,-z
1/2+x,1/2+y,1/2+z
1/2-x,1/2-y,1/2+z
1/2+x,1/2-y,1/2-z
1/2-x,1/2+y,1/2-z
loop_
_atom_site_type_symbol
_atom_site_label
_atom_site_fract_x
_atom_site_fract_y
_atom_site_fract_z
Si Si1 0.210473 0.942243 0.372415
Si Si2 0.925430 0.306008 0.544225
Si Si3 0.990049 0.710286 0.199600
Si Si4 0.394835 0.695215 0.787921
Si Si5 0.381926 0.194287 0.555592
Si Si6 0.327188 0.938592 0.196477
Si Si7 0.729141 0.727166 0.438621
O O1 0.158145 0.934532 0.279513
O O2 0.262656 0.907279 0.148334
O O3 0.240480 0.768257 0.428263
O O4 0.180217 0.000000 0.500000
O O5 0.943342 0.500000 0.500000
O O6 0.960833 0.255589 0.666060
O O7 0.924644 0.187197 0.423212
O O8 0.861210 0.337365 0.588374
O O9 0.943485 0.761416 0.097219
O O10 0.000000 0.500000 0.192418
O O11 0.052300 0.796705 0.195295
O O12 0.360335 0.878593 0.792575
O O13 0.346560 0.163860 0.681645
O O14 0.337281 0.292980 0.466974
O O15 0.389978 0.000000 0.500000
O O16 0.259557 0.089630 0.364877
#
# Coordination Sequence:
#
# PCOD9330294 Si02
#       7
#     8   8   8   8   8   8   8
#     4   8  18  35  61  85 138 178 215 291 364 398
#     4   9  15  26  50  82 125 153 201 293 343 365
#     4  11  20  31  54 100 131 176 224 284 358 413
#     4  11  18  33  61 102 134 166 238 309 347 405
#     4  11  22  42  60  89 143 186 220 287 356 428
#     4  10  20  34  64  95 123 172 243 283 358 415
#     4   9  19  41  59  88 131 191 220 280 353 436
#
# _framework density 28.769950000000001
#
# number of rings (size 3 to 8) (size 9 to 14) (size 15 to 20)
#    0.857    1.143    7.143    0.429    0.000    0.286 
#    2.571    0.000    0.000   12.000    0.000    0.000 
#    0.000    2.571    0.000    0.000    0.000    0.000 
#
# Total GULP energy -156552.580917 kJ/mol
# GULP energy per Si atom -5591.163604 kJ/mol
# Density = 2.870447 g / cm^3
# Si number density = 28.769950 Si / 1000 Ang^3
#
#
#
# Elastic Constant Matrix: (Units=GPa)
#
#
# Indices 1 2 3 4 5 6 
#
# 1 308.5152 27.3948 74.4749 0.0000 0.0000 0.0000
# 2 27.3948 75.6420 18.7500 0.0000 0.0000 0.0000
# 3 74.4749 18.7500 141.0874 0.0000 0.0000 0.0000
# 4 0.0000 0.0000 0.0000 28.2535 0.0000 0.0000
# 5 0.0000 0.0000 0.0000 0.0000 54.4978 0.0000
# 6 0.0000 0.0000 0.0000 0.0000 0.0000 21.5486
#
#
#
# Elastic Compliance Matrix: (Units=1/GPa)
#
#
# Indices 1 2 3 4 5 6 
#
# 1 0.003773 -0.000903 -0.001872 0.000000 0.000000 0.000000
# 2 -0.000903 0.013886 -0.001369 0.000000 0.000000 0.000000
# 3 -0.001872 -0.001369 0.008258 0.000000 0.000000 0.000000
# 4 0.000000 0.000000 0.000000 0.035394 0.000000 0.000000
# 5 0.000000 0.000000 0.000000 0.000000 0.018349 0.000000
# 6 0.000000 0.000000 0.000000 0.000000 0.000000 0.046407
#
#
# Mechanical properties :
#
#
# Convention : Reuss Voigt Hill
#
# Bulk Modulus (GPa) = 56.71935 85.16490 70.94212
# Shear Modulus (GPa) = 35.65539 47.83497 41.74518
#
# Velocity S-wave (km/s) = 3.52423 4.08201 3.81333
# Velocity P-wave (km/s) = 6.02643 7.20301 6.64083
#
# Compressibility (1/GPa) = 0.01763067
#
# Stress axis : x y z
#
# Youngs Moduli (GPa) = 265.01718 72.01291 121.09722
#
# Poissons Ratio (x) = 0.06500 0.22668
# Poissons Ratio (y) = 0.23920 0.16578
# Poissons Ratio (z) = 0.49608 0.09859
#
# Static dielectric constant tensor:
#      x y z
#    x 2.248290 0.000000 0.000000 
#    y 0.000000 2.301800 0.000000 
#    z 0.000000 0.000000 2.450780 
# 
# From -- ./inp_files/18009.got.cif
#   From: 2010.05.17/outbox.cif.g08.bks.cpg/sg23_10_cif.got.tgz:18009.got - 2010.06.04 12:02:01.
