data_PCOD9330507
_publ_section_title
;
Structure prediction by ZEFSAII (Michael W. Deem and Ramdas Pophale) SiO2 
 PCOD9330507
Probable space group: I 2 2 2
;
_chemical_formula_sum "Si O2"
_cell_formula_units_Z 56
_cell_length_a 21.721601
_cell_length_b 22.469864
_cell_length_c 6.049837
_cell_angle_alpha 90.000000
_cell_angle_beta 90.000000
_cell_angle_gamma 90.000000
_cell_volume 2952.813036
_symmetry_space_group_name_H-M "I 2 2 2"
_symmetry_group_IT_number 23
_symmetry_cell_setting 'orthorhombic'
loop_
_space_group_symop_operation_xyz
x,y,z
-x,-y,z
x,-y,-z
-x,y,-z
1/2+x,1/2+y,1/2+z
1/2-x,1/2-y,1/2+z
1/2+x,1/2-y,1/2-z
1/2-x,1/2+y,1/2-z
loop_
_atom_site_type_symbol
_atom_site_label
_atom_site_fract_x
_atom_site_fract_y
_atom_site_fract_z
Si Si1 0.200033 0.305098 0.007985
Si Si2 0.370101 0.942892 0.114301
Si Si3 0.742545 0.901223 0.175309
Si Si4 0.500000 0.231104 0.500000
Si Si5 0.435055 0.294356 0.130305
Si Si6 0.686146 0.328635 0.669836
Si Si7 0.586707 0.180159 0.164447
Si Si8 0.203707 0.500000 0.000000
O O1 0.258930 0.323063 0.153682
O O2 0.142219 0.320032 0.160617
O O3 0.209867 0.344114 0.788843
O O4 0.191048 0.236069 0.947849
O O5 0.411920 0.885740 0.073915
O O6 0.343805 0.960626 0.353954
O O7 0.306814 0.928429 0.989820
O O8 0.399171 0.000000 0.000000
O O9 0.745933 0.953697 0.359678
O O10 0.798577 0.876997 0.022463
O O11 0.452564 0.273428 0.376413
O O12 0.526310 0.191782 0.305690
O O13 0.376643 0.336408 0.185912
O O14 0.500000 0.311500 0.000000
O O15 0.409295 0.236389 0.999317
#
# Coordination Sequence:
#
# PCOD9330507 Si02
#       8
#     8   8   8   4   8   8   8   4
#     4  12  21  32  55  88 117 144 194 245 293 364
#     4  10  21  34  55  77 106 148 193 250 300 346
#     4  11  21  33  53  84 115 154 192 240 305 359
#     4  10  22  36  56  73 106 162 195 248 284 358
#     4  10  23  37  54  77 113 157 203 236 291 362
#     4  12  21  32  53  85 117 151 196 247 299 364
#     4  11  20  37  54  80 107 152 207 240 299 356
#     4  10  20  38  52  79 114 156 199 236 302 360
#
# _framework density 18.964964999999999
#
# number of rings (size 3 to 8) (size 9 to 14) (size 15 to 20)
#    0.000    1.143    5.714    1.714    0.000    0.000 
#    0.000    0.000    0.000   10.286    0.000    0.000 
#    0.000    0.000    0.000  216.643    0.000    4.857 
#
# Total GULP energy -155917.852306 kJ/mol
# GULP energy per Si atom -5568.494725 kJ/mol
# Density = 1.892180 g / cm^3
# Si number density = 18.964965 Si / 1000 Ang^3
#
#
#
# Elastic Constant Matrix: (Units=GPa)
#
#
# Indices 1 2 3 4 5 6 
#
# 1 47.7204 -6.5186 -5.2660 0.0000 0.0000 0.0000
# 2 -6.5186 26.4541 3.2123 0.0000 0.0000 0.0000
# 3 -5.2660 3.2123 56.2412 0.0000 0.0000 0.0000
# 4 0.0000 0.0000 0.0000 31.8785 0.0000 0.0000
# 5 0.0000 0.0000 0.0000 0.0000 30.0223 0.0000
# 6 0.0000 0.0000 0.0000 0.0000 0.0000 9.1598
#
#
#
# Elastic Compliance Matrix: (Units=1/GPa)
#
#
# Indices 1 2 3 4 5 6 
#
# 1 0.021855 0.005173 0.001751 0.000000 0.000000 0.000000
# 2 0.005173 0.039290 -0.001760 0.000000 0.000000 0.000000
# 3 0.001751 -0.001760 0.018045 0.000000 0.000000 0.000000
# 4 0.000000 0.000000 0.000000 0.031369 0.000000 0.000000
# 5 0.000000 0.000000 0.000000 0.000000 0.033309 0.000000
# 6 0.000000 0.000000 0.000000 0.000000 0.000000 0.109172
#
#
# Mechanical properties :
#
#
# Convention : Reuss Voigt Hill
#
# Bulk Modulus (GPa) = 11.17098 12.58569 11.87834
# Shear Modulus (GPa) = 18.34518 23.47799 20.91158
#
# Velocity S-wave (km/s) = 3.11355 3.52229 3.32421
# Velocity P-wave (km/s) = 4.33921 4.81588 4.58375
#
# Compressibility (1/GPa) = 0.08951763
#
# Stress axis : x y z
#
# Youngs Moduli (GPa) = 45.75574 25.45199 55.41699
#
# Poissons Ratio (x) = -0.13166 -0.09703
# Poissons Ratio (y) = -0.23668 0.09752
# Poissons Ratio (z) = -0.08011 0.04479
#
# Static dielectric constant tensor:
#      x y z
#    x 1.709740 0.000000 0.000000 
#    y 0.000000 1.750160 0.000000 
#    z 0.000000 0.000000 1.809520 
# 
# From -- ./inp_files/4592.got.cif
#   From: 2010.05.17/outbox.cif.g08.bks.cpg/sg23_3_cif.got.tgz:4592.got - 2010.06.04 12:02:01.
