data_PCOD9330613
_publ_section_title
;
Structure prediction by ZEFSAII (Michael W. Deem and Ramdas Pophale) SiO2 
 PCOD9330613
Probable space group: I 2 2 2
;
_chemical_formula_sum "Si O2"
_cell_formula_units_Z 38
_cell_length_a 7.710250
_cell_length_b 10.673704
_cell_length_c 20.911025
_cell_angle_alpha 90.000000
_cell_angle_beta 90.000000
_cell_angle_gamma 90.000000
_cell_volume 1720.913083
_symmetry_space_group_name_H-M "I 2 2 2"
_symmetry_group_IT_number 23
_symmetry_cell_setting 'orthorhombic'
loop_
_space_group_symop_operation_xyz
x,y,z
-x,-y,z
x,-y,-z
-x,y,-z
1/2+x,1/2+y,1/2+z
1/2-x,1/2-y,1/2+z
1/2+x,1/2-y,1/2-z
1/2-x,1/2+y,1/2-z
loop_
_atom_site_type_symbol
_atom_site_label
_atom_site_fract_x
_atom_site_fract_y
_atom_site_fract_z
Si Si1 0.500000 0.000000 0.500000
Si Si2 0.837380 0.349414 0.116108
Si Si3 0.183493 0.927474 0.324656
Si Si4 0.349603 0.395714 0.315924
Si Si5 0.037004 0.232003 0.571815
Si Si6 0.500000 0.000000 0.882421
O O1 0.399793 0.907638 0.549084
O O2 0.822930 0.463493 0.165801
O O3 0.920644 0.224657 0.145170
O O4 0.641673 0.301207 0.106581
O O5 0.192239 0.857360 0.257443
O O6 0.181942 0.841368 0.387918
O O7 0.000000 0.000000 0.323768
O O8 0.500000 0.500000 0.316671
O O9 0.169595 0.454116 0.343090
O O10 0.000000 0.189830 0.500000
O O11 0.061195 0.380517 0.576390
#
# Coordination Sequence:
#
# PCOD9330613 Si02
#       6
#     2   8   8   8   8   4
#     4  12  24  42  60  98 132 180 226 276 344 400
#     4  10  23  40  61  95 130 173 228 272 333 415
#     4   9  20  39  62  91 124 169 216 273 327 391
#     4  10  23  43  64  97 136 171 223 278 340 395
#     4  10  20  39  64  91 128 172 220 274 333 399
#     4  10  23  39  64  95 124 175 220 272 332 407
#
# _framework density 22.081301
#
# number of rings (size 3 to 8) (size 9 to 14) (size 15 to 20)
#    0.000    2.105    0.000    1.579    2.947    7.158 
#    7.579    2.632    0.000    0.000    0.000    0.000 
#    0.000    0.000    0.000    0.000    0.000    0.000 
#
# Total GULP energy -105962.768047 kJ/mol
# GULP energy per Si atom -5576.987792 kJ/mol
# Density = 2.203104 g / cm^3
# Si number density = 22.081301 Si / 1000 Ang^3
#
#
#
# Elastic Constant Matrix: (Units=GPa)
#
#
# Indices 1 2 3 4 5 6 
#
# 1 70.7238 29.7174 11.5519 0.0000 0.0000 0.0000
# 2 29.7174 144.0083 61.6754 0.0000 0.0000 0.0000
# 3 11.5519 61.6754 114.4375 0.0000 0.0000 0.0000
# 4 0.0000 0.0000 0.0000 -11.3849 0.0000 0.0000
# 5 0.0000 0.0000 0.0000 0.0000 27.3620 0.0000
# 6 0.0000 0.0000 0.0000 0.0000 0.0000 23.2032
#
#
#
# Elastic Compliance Matrix: (Units=1/GPa)
#
#
# Indices 1 2 3 4 5 6 
#
# 1 0.015486 -0.003284 0.000207 0.000000 0.000000 0.000000
# 2 -0.003284 0.009724 -0.004909 0.000000 0.000000 0.000000
# 3 0.000207 -0.004909 0.011363 0.000000 0.000000 0.000000
# 4 0.000000 0.000000 0.000000 -0.087836 0.000000 0.000000
# 5 0.000000 0.000000 0.000000 0.000000 0.036547 0.000000
# 6 0.000000 0.000000 0.000000 0.000000 0.000000 0.043098
#
#
# Mechanical properties :
#
#
# Convention : Reuss Voigt Hill
#
# Bulk Modulus (GPa) = 48.54382 59.45097 53.99739
# Shear Modulus (GPa) = 97.61338 22.91771 60.26555
#
# Velocity S-wave (km/s) = 6.65600 3.22511 5.22990
# Velocity P-wave (km/s) = 9.00564 6.39144 7.80872
#
# Compressibility (1/GPa) = 0.02059995
#
# Stress axis : x y z
#
# Youngs Moduli (GPa) = 64.57568 102.83493 88.00195
#
# Poissons Ratio (x) = 0.33773 -0.01820
# Poissons Ratio (y) = 0.21208 0.43203
# Poissons Ratio (z) = -0.01335 0.50485
#
# Static dielectric constant tensor:
#      x y z
#    x 1.871980 0.000000 0.000000 
#    y 0.000000 1.837320 0.000000 
#    z 0.000000 0.000000 1.823150 
# 
# From -- ./inp_files/14469.got.cif
#   From: 2010.05.17/outbox.cif.g08.bks.cpg/sg23_8_cif.got.tgz:14469.got - 2010.06.04 12:02:01.
