data_PCOD9330653
_publ_section_title
;
Structure prediction by ZEFSAII (Michael W. Deem and Ramdas Pophale) SiO2 
 PCOD9330653
Probable space group: I 2 2 2
;
_chemical_formula_sum "Si O2"
_cell_formula_units_Z 44
_cell_length_a 15.265518
_cell_length_b 14.283588
_cell_length_c 10.835888
_cell_angle_alpha 90.000000
_cell_angle_beta 90.000000
_cell_angle_gamma 90.000000
_cell_volume 2362.726041
_symmetry_space_group_name_H-M "I 2 2 2"
_symmetry_group_IT_number 23
_symmetry_cell_setting 'orthorhombic'
loop_
_space_group_symop_operation_xyz
x,y,z
-x,-y,z
x,-y,-z
-x,y,-z
1/2+x,1/2+y,1/2+z
1/2-x,1/2-y,1/2+z
1/2+x,1/2-y,1/2-z
1/2-x,1/2+y,1/2-z
loop_
_atom_site_type_symbol
_atom_site_label
_atom_site_fract_x
_atom_site_fract_y
_atom_site_fract_z
Si Si1 0.180204 0.406379 0.567754
Si Si2 0.000000 0.261912 0.000000
Si Si3 0.974742 0.391865 0.236069
Si Si4 0.125250 0.272449 0.365151
Si Si5 0.000000 0.000000 0.289032
Si Si6 0.633303 0.636746 0.650263
Si Si7 0.500000 0.369214 0.000000
O O1 0.148576 0.500000 0.500000
O O2 0.112015 0.386134 0.678384
O O3 0.183441 0.325975 0.463685
O O4 0.279527 0.416579 0.611600
O O5 0.078097 0.194719 0.048686
O O6 0.969138 0.328712 0.112602
O O7 0.000000 0.500000 0.209483
O O8 0.054248 0.345820 0.313011
O O9 0.163447 0.215553 0.249935
O O10 0.072742 0.194646 0.440255
O O11 0.933500 0.938601 0.209549
O O12 0.042317 0.928818 0.388559
#
# Coordination Sequence:
#
# PCOD9330653 Si02
#       7
#     8   4   8   8   4   8   4
#     4  12  24  38  66  93 124 154 208 264 301 365
#     4  10  25  43  66  86 124 174 198 251 319 380
#     4  11  21  41  66  91 123 160 205 252 315 377
#     4  10  20  40  62  92 116 159 201 249 309 364
#     4   9  20  39  62  88 116 163 201 244 304 360
#     4  10  25  41  61  90 123 161 207 248 310 366
#     4   9  16  36  67  86 114 150 205 248 290 359
#
# _framework density 18.622557
#
# number of rings (size 3 to 8) (size 9 to 14) (size 15 to 20)
#    0.000    1.636    3.636    0.273    5.091    0.000 
#    3.273    0.000    8.000    0.000    0.000    0.000 
#    0.000    0.000    0.000    0.000    0.000    0.000 
#
# Total GULP energy -122631.572245 kJ/mol
# GULP energy per Si atom -5574.162375 kJ/mol
# Density = 1.858017 g / cm^3
# Si number density = 18.622557 Si / 1000 Ang^3
#
#
#
# Elastic Constant Matrix: (Units=GPa)
#
#
# Indices 1 2 3 4 5 6 
#
# 1 37.7978 5.3997 32.1162 0.0000 0.0000 0.0000
# 2 5.3997 82.3378 28.1143 0.0000 0.0000 0.0000
# 3 32.1162 28.1143 94.2907 0.0000 0.0000 0.0000
# 4 0.0000 0.0000 0.0000 31.9087 0.0000 0.0000
# 5 0.0000 0.0000 0.0000 0.0000 9.7433 0.0000
# 6 0.0000 0.0000 0.0000 0.0000 0.0000 13.5598
#
#
#
# Elastic Compliance Matrix: (Units=1/GPa)
#
#
# Indices 1 2 3 4 5 6 
#
# 1 0.037562 0.002121 -0.013426 0.000000 0.000000 0.000000
# 2 0.002121 0.013642 -0.004790 0.000000 0.000000 0.000000
# 3 -0.013426 -0.004790 0.016607 0.000000 0.000000 0.000000
# 4 0.000000 0.000000 0.000000 0.031339 0.000000 0.000000
# 5 0.000000 0.000000 0.000000 0.000000 0.102634 0.000000
# 6 0.000000 0.000000 0.000000 0.000000 0.000000 0.073747
#
#
# Mechanical properties :
#
#
# Convention : Reuss Voigt Hill
#
# Bulk Modulus (GPa) = 28.07426 38.40963 33.24195
# Shear Modulus (GPa) = 15.64483 20.96211 18.30347
#
# Velocity S-wave (km/s) = 2.90159 3.35868 3.13847
# Velocity P-wave (km/s) = 5.13165 5.97588 5.56978
#
# Compressibility (1/GPa) = 0.03561981
#
# Stress axis : x y z
#
# Youngs Moduli (GPa) = 26.62293 73.30566 60.21639
#
# Poissons Ratio (x) = -0.15549 0.80848
# Poissons Ratio (y) = -0.05647 0.28843
# Poissons Ratio (z) = 0.35745 0.35113
#
# Static dielectric constant tensor:
#      x y z
#    x 1.591470 0.000000 0.000000 
#    y 0.000000 1.673360 0.000000 
#    z 0.000000 0.000000 1.724440 
# 
# From -- ./inp_files/16647.got.cif
#   From: 2010.05.17/outbox.cif.g08.bks.cpg/sg23_9_cif.got.tgz:16647.got - 2010.06.04 12:02:01.
