data_PCOD9330595
_publ_section_title
;
Structure prediction by ZEFSAII (Michael W. Deem and Ramdas Pophale) SiO2 
 PCOD9330595
Probable space group: I 2 2 2
;
_chemical_formula_sum "Si O2"
_cell_formula_units_Z 64
_cell_length_a 12.134537
_cell_length_b 9.355228
_cell_length_c 30.297054
_cell_angle_alpha 90.000000
_cell_angle_beta 90.000000
_cell_angle_gamma 90.000000
_cell_volume 3439.362783
_symmetry_space_group_name_H-M "I 2 2 2"
_symmetry_group_IT_number 23
_symmetry_cell_setting 'orthorhombic'
loop_
_space_group_symop_operation_xyz
x,y,z
-x,-y,z
x,-y,-z
-x,y,-z
1/2+x,1/2+y,1/2+z
1/2-x,1/2-y,1/2+z
1/2+x,1/2-y,1/2-z
1/2-x,1/2+y,1/2-z
loop_
_atom_site_type_symbol
_atom_site_label
_atom_site_fract_x
_atom_site_fract_y
_atom_site_fract_z
Si Si1 0.263188 0.726748 0.152388
Si Si2 0.258254 0.703653 0.355885
Si Si3 0.900019 0.162237 0.573057
Si Si4 0.874058 0.535790 0.190122
Si Si5 0.760295 0.350430 0.515746
Si Si6 0.375820 0.557655 0.593909
Si Si7 0.841270 0.148149 0.439547
Si Si8 0.871139 0.514207 0.295823
O O1 0.368655 0.672775 0.124108
O O2 0.205603 0.588332 0.172353
O O3 0.169008 0.809841 0.123504
O O4 0.311848 0.845032 0.185132
O O5 0.341133 0.811473 0.330908
O O6 0.307691 0.578100 0.387085
O O7 0.192460 0.800910 0.390852
O O8 0.188442 0.621524 0.318454
O O9 0.842808 0.297625 0.552644
O O10 0.026266 0.166449 0.558745
O O11 0.834671 0.022721 0.555557
O O12 0.864178 0.527479 0.243085
O O13 0.000000 0.500000 0.178210
O O14 0.804897 0.500000 0.500000
O O15 0.650498 0.391833 0.543522
O O16 0.771625 0.236938 0.475784
O O17 0.500000 0.500000 0.597759
O O18 0.000000 0.500000 0.307907
#
# Coordination Sequence:
#
# PCOD9330595 Si02
#       8
#     8   8   8   8   8   8   8   8
#     4  10  20  39  60  87 119 159 200 248 301 354
#     4  11  21  39  62  86 121 157 200 247 296 358
#     4  10  22  37  60  81 121 152 188 239 291 365
#     4  11  22  38  62  88 119 160 205 252 302 359
#     4  11  22  38  56  88 114 151 189 243 288 347
#     4  10  22  40  61  84 116 159 201 244 291 349
#     4  11  21  38  57  87 115 155 188 233 304 356
#     4  10  22  38  59  91 124 155 197 252 311 368
#
# _framework density 18.608098999999999
#
# number of rings (size 3 to 8) (size 9 to 14) (size 15 to 20)
#    0.000    1.500    2.500    3.000    0.000    2.250 
#    0.000    0.000    0.000    6.000    3.250    0.000 
#    0.000    0.000    0.000    0.000    0.000    0.000 
#
# Total GULP energy -178190.173863 kJ/mol
# GULP energy per Si atom -5568.442933 kJ/mol
# Density = 1.856575 g / cm^3
# Si number density = 18.608099 Si / 1000 Ang^3
#
#
#
# Elastic Constant Matrix: (Units=GPa)
#
#
# Indices 1 2 3 4 5 6 
#
# 1 48.3685 9.4540 14.8792 0.0000 0.0000 0.0000
# 2 9.4540 59.1412 11.1513 0.0000 0.0000 0.0000
# 3 14.8792 11.1513 65.6108 0.0000 0.0000 0.0000
# 4 0.0000 0.0000 0.0000 32.8411 0.0000 0.0000
# 5 0.0000 0.0000 0.0000 0.0000 13.8380 0.0000
# 6 0.0000 0.0000 0.0000 0.0000 0.0000 24.9709
#
#
#
# Elastic Compliance Matrix: (Units=1/GPa)
#
#
# Indices 1 2 3 4 5 6 
#
# 1 0.022647 -0.002740 -0.004670 0.000000 0.000000 0.000000
# 2 -0.002740 0.017800 -0.002404 0.000000 0.000000 0.000000
# 3 -0.004670 -0.002404 0.016709 0.000000 0.000000 0.000000
# 4 0.000000 0.000000 0.000000 0.030450 0.000000 0.000000
# 5 0.000000 0.000000 0.000000 0.000000 0.072265 0.000000
# 6 0.000000 0.000000 0.000000 0.000000 0.000000 0.040047
#
#
# Mechanical properties :
#
#
# Convention : Reuss Voigt Hill
#
# Bulk Modulus (GPa) = 26.64671 27.12108 26.88390
# Shear Modulus (GPa) = 21.54675 23.50575 22.52625
#
# Velocity S-wave (km/s) = 3.40652 3.55801 3.48309
# Velocity P-wave (km/s) = 5.46109 5.61122 5.53666
#
# Compressibility (1/GPa) = 0.03752808
#
# Stress axis : x y z
#
# Youngs Moduli (GPa) = 44.15647 56.18009 59.84770
#
# Poissons Ratio (x) = 0.15391 0.27950
# Poissons Ratio (y) = 0.12097 0.14387
# Poissons Ratio (z) = 0.20622 0.13506
#
# Static dielectric constant tensor:
#      x y z
#    x 1.663270 0.000000 0.000000 
#    y 0.000000 1.633280 0.000000 
#    z 0.000000 0.000000 1.691030 
# 
# From -- ./inp_files/14995.got.cif
#   From: 2010.05.17/outbox.cif.g08.bks.cpg/sg23_8_cif.got.tgz:14995.got - 2010.06.04 12:02:01.
