data_PCOD9330493
_publ_section_title
;
Structure prediction by ZEFSAII (Michael W. Deem and Ramdas Pophale) SiO2 
 PCOD9330493
Probable space group: I 2 2 2
;
_chemical_formula_sum "Si O2"
_cell_formula_units_Z 56
_cell_length_a 11.409853
_cell_length_b 11.646343
_cell_length_c 20.640555
_cell_angle_alpha 90.000000
_cell_angle_beta 90.000000
_cell_angle_gamma 90.000000
_cell_volume 2742.780142
_symmetry_space_group_name_H-M "I 2 2 2"
_symmetry_group_IT_number 23
_symmetry_cell_setting 'orthorhombic'
loop_
_space_group_symop_operation_xyz
x,y,z
-x,-y,z
x,-y,-z
-x,y,-z
1/2+x,1/2+y,1/2+z
1/2-x,1/2-y,1/2+z
1/2+x,1/2-y,1/2-z
1/2-x,1/2+y,1/2-z
loop_
_atom_site_type_symbol
_atom_site_label
_atom_site_fract_x
_atom_site_fract_y
_atom_site_fract_z
Si Si1 0.461790 0.380549 0.885214
Si Si2 0.179775 0.865771 0.820874
Si Si3 0.677029 0.662164 0.200704
Si Si4 0.673490 0.557094 0.430819
Si Si5 0.274744 0.063154 0.318991
Si Si6 0.447057 0.883428 0.071211
Si Si7 0.574723 0.270042 0.665538
O O1 0.500000 0.500000 0.921806
O O2 0.553469 0.383060 0.825391
O O3 0.326041 0.395548 0.867903
O O4 0.471952 0.247606 0.907009
O O5 0.285775 0.778746 0.834699
O O6 0.218432 0.915209 0.751822
O O7 0.057327 0.798644 0.814639
O O8 0.163794 0.959697 0.875846
O O9 0.778022 0.573340 0.180686
O O10 0.661103 0.681131 0.277513
O O11 0.641925 0.500000 0.500000
O O12 0.808123 0.597226 0.432603
O O13 0.600846 0.664489 0.401812
O O14 0.389734 0.136571 0.333137
O O15 0.500000 0.000000 0.105515
O O16 0.500000 0.886026 0.000000
#
# Coordination Sequence:
#
# PCOD9330493 Si02
#       7
#     8   8   8   8   8   8   8
#     4  10  20  37  64  92 122 162 203 252 330 386
#     4  11  23  38  59  89 124 164 208 259 311 372
#     4  10  21  37  60  91 124 157 201 259 320 375
#     4  12  24  40  62  91 122 170 211 254 310 372
#     4  10  20  38  61  91 122 159 200 258 320 378
#     4  11  22  40  63  91 129 162 206 267 313 367
#     4  11  22  38  61  87 125 163 208 258 308 378
#
# _framework density 20.417238999999999
#
# number of rings (size 3 to 8) (size 9 to 14) (size 15 to 20)
#    0.000    1.286    5.714    1.286    0.000    2.000 
#    0.000    0.000    0.000    0.857    0.000    2.000 
#    0.000    0.000    0.000    0.000    0.000    0.000 
#
# Total GULP energy -155949.199732 kJ/mol
# GULP energy per Si atom -5569.614276 kJ/mol
# Density = 2.037077 g / cm^3
# Si number density = 20.417239 Si / 1000 Ang^3
#
#
#
# Elastic Constant Matrix: (Units=GPa)
#
#
# Indices 1 2 3 4 5 6 
#
# 1 38.2077 3.6832 -3.8350 0.0000 0.0000 0.0000
# 2 3.6832 121.5965 18.5232 0.0000 0.0000 0.0000
# 3 -3.8350 18.5232 54.0774 0.0000 0.0000 0.0000
# 4 0.0000 0.0000 0.0000 23.8196 0.0000 0.0000
# 5 0.0000 0.0000 0.0000 0.0000 17.1292 0.0000
# 6 0.0000 0.0000 0.0000 0.0000 0.0000 34.2310
#
#
#
# Elastic Compliance Matrix: (Units=1/GPa)
#
#
# Indices 1 2 3 4 5 6 
#
# 1 0.026512 -0.001149 0.002274 0.000000 0.000000 0.000000
# 2 -0.001149 0.008726 -0.003071 0.000000 0.000000 0.000000
# 3 0.002274 -0.003071 0.019705 0.000000 0.000000 0.000000
# 4 0.000000 0.000000 0.000000 0.041982 0.000000 0.000000
# 5 0.000000 0.000000 0.000000 0.000000 0.058380 0.000000
# 6 0.000000 0.000000 0.000000 0.000000 0.000000 0.029213
#
#
# Mechanical properties :
#
#
# Convention : Reuss Voigt Hill
#
# Bulk Modulus (GPa) = 19.58829 27.84716 23.71772
# Shear Modulus (GPa) = 24.33942 28.06997 26.20470
#
# Velocity S-wave (km/s) = 3.45643 3.71188 3.58643
# Velocity P-wave (km/s) = 5.05411 5.66033 5.36579
#
# Compressibility (1/GPa) = 0.05105091
#
# Stress axis : x y z
#
# Youngs Moduli (GPa) = 37.71912 114.59359 50.74843
#
# Poissons Ratio (x) = 0.13172 -0.11539
# Poissons Ratio (y) = 0.04336 0.15583
# Poissons Ratio (z) = -0.08577 0.35187
#
# Static dielectric constant tensor:
#      x y z
#    x 1.731180 0.000000 0.000000 
#    y 0.000000 1.845110 0.000000 
#    z 0.000000 0.000000 1.724900 
# 
# From -- ./inp_files/15916.got.cif
#   From: 2010.05.17/outbox.cif.g08.bks.cpg/sg23_8_cif.got.tgz:15916.got - 2010.06.04 12:02:01.
