data_PCOD9330846
_publ_section_title
;
Structure prediction by ZEFSAII (Michael W. Deem and Ramdas Pophale) SiO2 
 PCOD9330846
Probable space group: I 2 2 2
;
_chemical_formula_sum "Si O2"
_cell_formula_units_Z 64
_cell_length_a 8.119213
_cell_length_b 31.216168
_cell_length_c 12.238779
_cell_angle_alpha 90.000000
_cell_angle_beta 90.000000
_cell_angle_gamma 90.000000
_cell_volume 3101.927313
_symmetry_space_group_name_H-M "I 2 2 2"
_symmetry_group_IT_number 23
_symmetry_cell_setting 'orthorhombic'
loop_
_space_group_symop_operation_xyz
x,y,z
-x,-y,z
x,-y,-z
-x,y,-z
1/2+x,1/2+y,1/2+z
1/2-x,1/2-y,1/2+z
1/2+x,1/2-y,1/2-z
1/2-x,1/2+y,1/2-z
loop_
_atom_site_type_symbol
_atom_site_label
_atom_site_fract_x
_atom_site_fract_y
_atom_site_fract_z
Si Si1 0.085816 0.277915 0.266279
Si Si2 0.892055 0.040372 0.708694
Si Si3 0.166231 0.096482 0.817451
Si Si4 0.215290 0.810239 0.791588
Si Si5 0.831239 0.644166 0.123660
Si Si6 0.785688 0.380267 0.119265
Si Si7 0.811229 0.489335 0.616928
Si Si8 0.692256 0.168182 0.031318
O O1 0.096569 0.227965 0.242466
O O2 0.159781 0.307422 0.169245
O O3 0.166829 0.293407 0.380773
O O4 0.896766 0.291288 0.271612
O O5 0.795952 0.072742 0.628223
O O6 0.002651 0.069712 0.790174
O O7 0.763827 0.017190 0.787048
O O8 0.000000 0.000000 0.662432
O O9 0.216006 0.117800 0.703726
O O10 0.292047 0.059970 0.854535
O O11 0.196202 0.133078 0.907065
O O12 0.203185 0.851236 0.713397
O O13 0.216047 0.820695 0.919377
O O14 0.015263 0.623271 0.135391
O O15 0.767663 0.639950 0.000779
O O16 0.730186 0.500000 0.500000
O O17 0.000000 0.500000 0.609694
O O18 0.500000 0.154864 0.000000
#
# Coordination Sequence:
#
# PCOD9330846 Si02
#       8
#     8   8   8   8   8   8   8   8
#     4   9  20  38  57  87 122 154 206 253 308 357
#     4  10  23  41  59  93 128 154 199 265 318 368
#     4  10  21  38  60  87 124 154 200 254 312 361
#     4  10  21  36  60  86 117 159 203 256 303 367
#     4   9  20  40  64  86 118 168 214 254 291 386
#     4  10  21  39  63  87 119 166 212 252 312 368
#     4  10  22  37  62  88 116 163 199 244 302 374
#     4   9  20  37  60  85 117 164 204 247 298 376
#
# _framework density 20.632334
#
# number of rings (size 3 to 8) (size 9 to 14) (size 15 to 20)
#    0.000    2.375    0.000    1.500    5.250    4.750 
#    0.000    5.625    0.000    6.750    0.000    0.000 
#    0.000    0.000    0.000    0.000    0.000    0.000 
#
# Total GULP energy -178515.040641 kJ/mol
# GULP energy per Si atom -5578.595020 kJ/mol
# Density = 2.058537 g / cm^3
# Si number density = 20.632334 Si / 1000 Ang^3
#
#
#
# Elastic Constant Matrix: (Units=GPa)
#
#
# Indices 1 2 3 4 5 6 
#
# 1 27.6007 26.3768 14.6183 0.0010 0.0000 0.0001
# 2 26.3768 84.3632 33.0011 0.0032 0.0001 0.0002
# 3 14.6183 33.0011 111.5611 0.0046 0.0001 0.0002
# 4 0.0010 0.0032 0.0046 170.9257 0.0020 0.0023
# 5 0.0000 0.0001 0.0001 0.0020 12.4001 0.0001
# 6 0.0001 0.0002 0.0002 0.0023 0.0001 35.1446
#
#
#
# Elastic Compliance Matrix: (Units=1/GPa)
#
#
# Indices 1 2 3 4 5 6 
#
# 1 0.052175 -0.015423 -0.002274 0.000000 0.000000 0.000000
# 2 -0.015423 0.017964 -0.003293 0.000000 0.000000 0.000000
# 3 -0.002274 -0.003293 0.010236 0.000000 0.000000 0.000000
# 4 0.000000 0.000000 0.000000 0.005850 -0.000001 0.000000
# 5 0.000000 0.000000 0.000000 -0.000001 0.080644 0.000000
# 6 0.000000 0.000000 0.000000 0.000000 0.000000 0.028454
#
#
# Mechanical properties :
#
#
# Convention : Reuss Voigt Hill
#
# Bulk Modulus (GPa) = 26.04603 41.27970 33.66287
# Shear Modulus (GPa) = 19.99184 53.66269 36.82727
#
# Velocity S-wave (km/s) = 3.11618 5.10544 4.22943
# Velocity P-wave (km/s) = 5.05952 7.40302 6.34048
#
# Compressibility (1/GPa) = 0.03839356
#
# Stress axis : x y z
#
# Youngs Moduli (GPa) = 19.16632 55.66742 97.69631
#
# Poissons Ratio (x) = 0.85857 0.22219
# Poissons Ratio (y) = 0.29561 0.32171
# Poissons Ratio (z) = 0.04359 0.18331
#
# Static dielectric constant tensor:
#      x y z
#    x 1.728700 0.000000 0.000000 
#    y 0.000000 1.753710 0.000000 
#    z 0.000000 0.000000 1.731770 
# 
# From -- ./inp_files/14981.got.cif
#   From: 2010.05.17/outbox.cif.g08.bks.cpg/sg23_8_cif.got.tgz:14981.got - 2010.06.04 12:02:01.
