data_PCOD9330751
_publ_section_title
;
Structure prediction by ZEFSAII (Michael W. Deem and Ramdas Pophale) SiO2 
 PCOD9330751
Probable space group: I 2 2 2
;
_chemical_formula_sum "Si O2"
_cell_formula_units_Z 28
_cell_length_a 29.577898
_cell_length_b 4.970417
_cell_length_c 8.560168
_cell_angle_alpha 90.000000
_cell_angle_beta 90.000000
_cell_angle_gamma 90.000000
_cell_volume 1258.468708
_symmetry_space_group_name_H-M "I 2 2 2"
_symmetry_group_IT_number 23
_symmetry_cell_setting 'orthorhombic'
loop_
_space_group_symop_operation_xyz
x,y,z
-x,-y,z
x,-y,-z
-x,y,-z
1/2+x,1/2+y,1/2+z
1/2-x,1/2-y,1/2+z
1/2+x,1/2-y,1/2-z
1/2-x,1/2+y,1/2-z
loop_
_atom_site_type_symbol
_atom_site_label
_atom_site_fract_x
_atom_site_fract_y
_atom_site_fract_z
Si Si1 0.068132 0.166587 0.743140
Si Si2 0.500000 0.500000 0.500000
Si Si3 0.775274 0.437830 0.814998
Si Si4 0.127923 0.636269 0.673957
Si Si5 0.000000 0.000000 0.500000
O O1 0.101183 0.411469 0.768982
O O2 0.032750 0.186363 0.601464
O O3 0.098995 0.908044 0.697278
O O4 0.034638 0.151551 0.888455
O O5 0.738567 0.208596 0.776575
O O6 0.822343 0.331875 0.744093
O O7 0.777843 0.500000 0.000000
O O8 0.130047 0.500000 0.500000
#
# Coordination Sequence:
#
# PCOD9330751 Si02
#       5
#     8   2   8   8   2
#     4  11  25  41  69  96 139 178 228 279 339 399
#     4  10  28  44  64  96 140 180 232 284 336 404
#     4  12  27  48  76 106 144 183 231 287 354 423
#     4  12  24  44  71 102 136 176 229 281 345 409
#     4  10  20  44  60 100 124 188 220 276 328 404
#
# _framework density 22.249262000000002
#
# number of rings (size 3 to 8) (size 9 to 14) (size 15 to 20)
#    0.000    0.571    2.857    4.286    4.000    6.857 
#    0.000    0.000    0.000    0.000    0.000    0.000 
#    0.000    0.000    0.000    0.000    0.000    0.000 
#
# Total GULP energy -78279.468741 kJ/mol
# GULP energy per Si atom -5591.390624 kJ/mol
# Density = 2.219862 g / cm^3
# Si number density = 22.249262 Si / 1000 Ang^3
#
#
#
# Elastic Constant Matrix: (Units=GPa)
#
#
# Indices 1 2 3 4 5 6 
#
# 1 134.3979 34.3640 52.7346 0.0000 0.0000 0.0000
# 2 34.3640 105.5334 5.9875 0.0000 0.0000 0.0000
# 3 52.7346 5.9875 105.6878 0.0000 0.0000 0.0000
# 4 0.0000 0.0000 0.0000 13.3898 0.0000 0.0000
# 5 0.0000 0.0000 0.0000 0.0000 13.2963 0.0000
# 6 0.0000 0.0000 0.0000 0.0000 0.0000 -174.9886
#
#
#
# Elastic Compliance Matrix: (Units=1/GPa)
#
#
# Indices 1 2 3 4 5 6 
#
# 1 0.010129 -0.003021 -0.004883 0.000000 0.000000 0.000000
# 2 -0.003021 0.010407 0.000918 0.000000 0.000000 0.000000
# 3 -0.004883 0.000918 0.011846 0.000000 0.000000 0.000000
# 4 0.000000 0.000000 0.000000 0.074683 0.000000 0.000000
# 5 0.000000 0.000000 0.000000 0.000000 0.075209 0.000000
# 6 0.000000 0.000000 0.000000 0.000000 0.000000 -0.005715
#
#
# Mechanical properties :
#
#
# Convention : Reuss Voigt Hill
#
# Bulk Modulus (GPa) = 54.31775 59.08792 56.70284
# Shear Modulus (GPa) = 25.42334 -12.82497 6.29919
#
# Velocity S-wave (km/s) = 3.38399 -2.40348 1.68444
# Velocity P-wave (km/s) = 6.30356 4.34886 5.41514
#
# Compressibility (1/GPa) = 0.01841019
#
# Stress axis : x y z
#
# Youngs Moduli (GPa) = 98.72642 96.08582 84.41518
#
# Poissons Ratio (x) = 0.29029 0.41219
# Poissons Ratio (y) = 0.29827 -0.07748
# Poissons Ratio (z) = 0.48207 -0.08819
#
# Static dielectric constant tensor:
#      x y z
#    x 1.540210 0.000000 0.000000 
#    y 0.000000 1.800360 0.000000 
#    z 0.000000 0.000000 2.201520 
# 
# From -- ./inp_files/4712.got.cif
#   From: 2010.05.17/outbox.cif.g08.bks.cpg/sg23_3_cif.got.tgz:4712.got - 2010.06.04 12:02:01.
