data_PCOD9330142
_publ_section_title
;
Structure prediction by ZEFSAII (Michael W. Deem and Ramdas Pophale) SiO2 
 PCOD9330142
Probable space group: I 2 2 2
;
_chemical_formula_sum "Si O2"
_cell_formula_units_Z 40
_cell_length_a 16.257056
_cell_length_b 14.942034
_cell_length_c 7.445920
_cell_angle_alpha 90.000000
_cell_angle_beta 90.000000
_cell_angle_gamma 90.000000
_cell_volume 1808.714365
_symmetry_space_group_name_H-M "I 2 2 2"
_symmetry_group_IT_number 23
_symmetry_cell_setting 'orthorhombic'
loop_
_space_group_symop_operation_xyz
x,y,z
-x,-y,z
x,-y,-z
-x,y,-z
1/2+x,1/2+y,1/2+z
1/2-x,1/2-y,1/2+z
1/2+x,1/2-y,1/2-z
1/2-x,1/2+y,1/2-z
loop_
_atom_site_type_symbol
_atom_site_label
_atom_site_fract_x
_atom_site_fract_y
_atom_site_fract_z
Si Si1 0.581222 0.351966 0.910217
Si Si2 0.747918 0.597856 0.148200
Si Si3 0.489759 0.823431 0.710891
Si Si4 0.326969 0.919138 0.745188
Si Si5 0.339251 0.195102 0.904454
O O1 0.650241 0.418877 0.838314
O O2 0.549490 0.269974 0.784981
O O3 0.500000 0.391229 0.000000
O O4 0.636506 0.296366 0.051349
O O5 0.796005 0.520606 0.257788
O O6 0.769755 0.687224 0.255100
O O7 0.787004 0.603779 0.949632
O O8 0.500000 0.811722 0.500000
O O9 0.424789 0.903586 0.732242
O O10 0.574041 0.839867 0.819127
O O11 0.309315 0.141948 0.081164
#
# Coordination Sequence:
#
# PCOD9330142 Si02
#       5
#     8   8   8   8   8
#     4   9  22  40  61  93 123 164 211 256 314 364
#     4  11  22  38  61  90 127 162 204 258 310 375
#     4  10  19  40  65  91 130 163 205 256 321 377
#     4  10  22  38  58  95 122 165 207 247 317 371
#     4  10  21  37  64  90 127 162 204 262 309 376
#
# _framework density 22.115155000000001
#
# number of rings (size 3 to 8) (size 9 to 14) (size 15 to 20)
#    0.000    2.000    2.000    2.400    5.600    0.800 
#    3.600    8.000    0.000    0.000    0.000    0.000 
#    0.000    0.000    0.000    0.000    0.000    0.000 
#
# Total GULP energy -111468.663013 kJ/mol
# GULP energy per Si atom -5573.433151 kJ/mol
# Density = 2.206482 g / cm^3
# Si number density = 22.115155 Si / 1000 Ang^3
#
#
#
# Elastic Constant Matrix: (Units=GPa)
#
#
# Indices 1 2 3 4 5 6 
#
# 1 123.7818 35.7971 11.3609 0.0000 0.0000 0.0000
# 2 35.7971 59.1937 17.9238 0.0000 0.0000 0.0000
# 3 11.3609 17.9238 69.6718 0.0000 0.0000 0.0000
# 4 0.0000 0.0000 0.0000 6.9941 0.0000 0.0000
# 5 0.0000 0.0000 0.0000 0.0000 16.6329 0.0000
# 6 0.0000 0.0000 0.0000 0.0000 0.0000 26.0064
#
#
#
# Elastic Compliance Matrix: (Units=1/GPa)
#
#
# Indices 1 2 3 4 5 6 
#
# 1 0.009791 -0.005897 -0.000079 0.000000 0.000000 0.000000
# 2 -0.005897 0.021873 -0.004665 0.000000 0.000000 0.000000
# 3 -0.000079 -0.004665 0.015566 0.000000 0.000000 0.000000
# 4 0.000000 0.000000 0.000000 0.142977 0.000000 0.000000
# 5 0.000000 0.000000 0.000000 0.000000 0.060122 0.000000
# 6 0.000000 0.000000 0.000000 0.000000 0.000000 0.038452
#
#
# Mechanical properties :
#
#
# Convention : Reuss Voigt Hill
#
# Bulk Modulus (GPa) = 38.54139 42.53454 40.53797
# Shear Modulus (GPa) = 15.68803 22.43105 19.05954
#
# Velocity S-wave (km/s) = 2.66631 3.18824 2.93888
# Velocity P-wave (km/s) = 5.19079 5.72958 5.46683
#
# Compressibility (1/GPa) = 0.02594613
#
# Stress axis : x y z
#
# Youngs Moduli (GPa) = 102.12949 45.71905 64.24184
#
# Poissons Ratio (x) = 0.26962 0.00511
# Poissons Ratio (y) = 0.60229 0.29971
# Poissons Ratio (z) = 0.00812 0.21330
#
# Static dielectric constant tensor:
#      x y z
#    x 1.852670 0.000000 0.000000 
#    y 0.000000 1.991740 0.000000 
#    z 0.000000 0.000000 1.839620 
# 
# From -- ./inp_files/10040.got.cif
#   From: 2010.05.17/outbox.cif.g08.bks.cpg/sg23_6_cif.got.tgz:10040.got - 2010.06.04 12:02:01.
