data_PCOD9330529
_publ_section_title
;
Structure prediction by ZEFSAII (Michael W. Deem and Ramdas Pophale) SiO2 
 PCOD9330529
Probable space group: I 2 2 2
;
_chemical_formula_sum "Si O2"
_cell_formula_units_Z 56
_cell_length_a 13.815696
_cell_length_b 14.905761
_cell_length_c 10.706613
_cell_angle_alpha 90.000000
_cell_angle_beta 90.000000
_cell_angle_gamma 90.000000
_cell_volume 2204.849888
_symmetry_space_group_name_H-M "I 2 2 2"
_symmetry_group_IT_number 23
_symmetry_cell_setting 'orthorhombic'
loop_
_space_group_symop_operation_xyz
x,y,z
-x,-y,z
x,-y,-z
-x,y,-z
1/2+x,1/2+y,1/2+z
1/2-x,1/2-y,1/2+z
1/2+x,1/2-y,1/2-z
1/2-x,1/2+y,1/2-z
loop_
_atom_site_type_symbol
_atom_site_label
_atom_site_fract_x
_atom_site_fract_y
_atom_site_fract_z
Si Si1 0.681965 0.316630 0.704443
Si Si2 0.375286 0.883464 0.297968
Si Si3 0.414711 0.636365 0.082992
Si Si4 0.466668 0.198774 0.151212
Si Si5 0.390811 0.518431 0.330550
Si Si6 0.817482 0.435300 0.333501
Si Si7 0.198488 0.350569 0.943725
O O1 0.789595 0.314431 0.761093
O O2 0.607406 0.272122 0.799534
O O3 0.648962 0.418811 0.694287
O O4 0.679358 0.255371 0.579584
O O5 0.480902 0.848550 0.267553
O O6 0.362947 0.894878 0.446274
O O7 0.356036 0.967050 0.205764
O O8 0.445321 0.741258 0.096925
O O9 0.409325 0.582556 0.211846
O O10 0.309956 0.631176 0.021947
O O11 0.500000 0.597277 0.000000
O O12 0.398735 0.121125 0.091756
O O13 0.500000 0.500000 0.379129
O O14 0.291731 0.562432 0.389456
O O15 0.810161 0.389876 0.195947
#
# Coordination Sequence:
#
# PCOD9330529 Si02
#       7
#     8   8   8   8   8   8   8
#     4  10  21  37  57  94 128 171 217 269 335 408
#     4  11  21  39  62  89 131 174 214 282 338 397
#     4  11  22  38  63 101 129 167 225 283 338 395
#     4  11  21  38  61  91 130 179 214 273 344 405
#     4  10  20  38  60  92 130 168 216 275 340 388
#     4   9  22  36  60  93 129 165 220 270 338 402
#     4  10  21  38  60  95 130 167 218 274 332 407
#
# _framework density 25.398553
#
# number of rings (size 3 to 8) (size 9 to 14) (size 15 to 20)
#    0.000    1.714    2.857    1.714    2.000    2.571 
#    0.000    2.857    0.000    2.571    3.714    0.000 
#    0.000    0.000    0.000    0.000    0.000    0.000 
#
# Total GULP energy -156321.207787 kJ/mol
# GULP energy per Si atom -5582.900278 kJ/mol
# Density = 2.534075 g / cm^3
# Si number density = 25.398553 Si / 1000 Ang^3
#
#
#
# Elastic Constant Matrix: (Units=GPa)
#
#
# Indices 1 2 3 4 5 6 
#
# 1 134.8308 10.2903 21.7202 0.0000 0.0000 0.0000
# 2 10.2903 69.4770 26.7010 0.0000 0.0000 0.0000
# 3 21.7202 26.7010 78.1941 0.0000 0.0000 0.0000
# 4 0.0000 0.0000 0.0000 20.3283 0.0000 0.0000
# 5 0.0000 0.0000 0.0000 0.0000 -4.9167 0.0000
# 6 0.0000 0.0000 0.0000 0.0000 0.0000 40.9597
#
#
#
# Elastic Compliance Matrix: (Units=1/GPa)
#
#
# Indices 1 2 3 4 5 6 
#
# 1 0.007772 -0.000370 -0.002033 0.000000 0.000000 0.000000
# 2 -0.000370 0.016585 -0.005561 0.000000 0.000000 0.000000
# 3 -0.002033 -0.005561 0.015252 0.000000 0.000000 0.000000
# 4 0.000000 0.000000 0.000000 0.049192 0.000000 0.000000
# 5 0.000000 0.000000 0.000000 0.000000 -0.203387 0.000000
# 6 0.000000 0.000000 0.000000 0.000000 0.000000 0.024414
#
#
# Mechanical properties :
#
#
# Convention : Reuss Voigt Hill
#
# Bulk Modulus (GPa) = 42.22406 44.43609 43.33008
# Shear Modulus (GPa) = -75.35794 26.19361 -24.58217
#
# Velocity S-wave (km/s) = -5.45294 3.21488 -3.11441
# Velocity P-wave (km/s) = 4.79431 5.59590 2.04067
#
# Compressibility (1/GPa) = 0.02368318
#
# Stress axis : x y z
#
# Youngs Moduli (GPa) = 128.66077 60.29525 65.56491
#
# Poissons Ratio (x) = 0.02231 0.13327
# Poissons Ratio (y) = 0.04761 0.36458
# Poissons Ratio (z) = 0.26152 0.33527
#
# Static dielectric constant tensor:
#      x y z
#    x 2.001900 0.000000 0.000000 
#    y 0.000000 2.061100 0.000000 
#    z 0.000000 0.000000 2.184960 
# 
# From -- ./inp_files/16761.got.cif
#   From: 2010.05.17/outbox.cif.g08.bks.cpg/sg23_9_cif.got.tgz:16761.got - 2010.06.04 12:02:01.
