data_PCOD9330607
_publ_section_title
;
Structure prediction by ZEFSAII (Michael W. Deem and Ramdas Pophale) SiO2 
 PCOD9330607
Probable space group: I 2 2 2
;
_chemical_formula_sum "Si O2"
_cell_formula_units_Z 56
_cell_length_a 20.448124
_cell_length_b 8.866819
_cell_length_c 13.760939
_cell_angle_alpha 90.000000
_cell_angle_beta 90.000000
_cell_angle_gamma 90.000000
_cell_volume 2494.993296
_symmetry_space_group_name_H-M "I 2 2 2"
_symmetry_group_IT_number 23
_symmetry_cell_setting 'orthorhombic'
loop_
_space_group_symop_operation_xyz
x,y,z
-x,-y,z
x,-y,-z
-x,y,-z
1/2+x,1/2+y,1/2+z
1/2-x,1/2-y,1/2+z
1/2+x,1/2-y,1/2-z
1/2-x,1/2+y,1/2-z
loop_
_atom_site_type_symbol
_atom_site_label
_atom_site_fract_x
_atom_site_fract_y
_atom_site_fract_z
Si Si1 0.202283 0.500000 0.500000
Si Si2 0.627644 0.886660 0.824884
Si Si3 0.500000 0.000000 0.275896
Si Si4 0.656194 0.556921 0.896266
Si Si5 0.713432 0.210768 0.558370
Si Si6 0.364397 0.420847 0.306392
Si Si7 0.006716 0.786173 0.114733
Si Si8 0.853286 0.751593 0.135449
O O1 0.159402 0.499381 0.401847
O O2 0.243310 0.652267 0.513525
O O3 0.625491 0.719447 0.871359
O O4 0.667847 0.853892 0.725034
O O5 0.557104 0.941830 0.793083
O O6 0.531180 0.875760 0.347316
O O7 0.734156 0.588070 0.907420
O O8 0.640568 0.443908 0.808571
O O9 0.632551 0.500000 0.000000
O O10 0.674433 0.280893 0.648505
O O11 0.664576 0.181733 0.468343
O O12 0.439502 0.400356 0.342454
O O13 0.332057 0.574099 0.350602
O O14 0.931332 0.775248 0.147496
O O15 0.000000 0.806744 0.000000
#
# Coordination Sequence:
#
# PCOD9330607 Si02
#       8
#     4   8   4   8   8   8   8   8
#     4  10  20  39  62  91 130 176 234 280 326 418
#     4   9  22  42  66  93 131 175 228 287 350 418
#     4  10  23  45  64 100 130 174 226 284 356 420
#     4  10  25  45  63  97 138 185 242 289 339 421
#     4  11  21  41  65  96 135 181 229 284 350 421
#     4  11  22  41  66 100 136 184 230 286 358 426
#     4  11  22  38  67 101 139 173 217 286 360 425
#     4  10  20  40  64  99 135 170 228 279 352 425
#
# _framework density 22.444951
#
# number of rings (size 3 to 8) (size 9 to 14) (size 15 to 20)
#    0.000    1.714    2.857    0.643    0.000    6.571 
#   10.286    1.429    0.000   13.714    0.000    0.000 
#    0.000    0.000    0.000    0.000    0.000    0.000 
#
# Total GULP energy -156325.771956 kJ/mol
# GULP energy per Si atom -5583.063284 kJ/mol
# Density = 2.239387 g / cm^3
# Si number density = 22.444951 Si / 1000 Ang^3
#
#
#
# Elastic Constant Matrix: (Units=GPa)
#
#
# Indices 1 2 3 4 5 6 
#
# 1 81.9293 32.0818 60.2841 0.0000 0.0000 0.0000
# 2 32.0818 52.4293 49.2388 0.0000 0.0000 0.0000
# 3 60.2841 49.2388 188.0136 0.0000 0.0000 0.0000
# 4 0.0000 0.0000 0.0000 43.0449 0.0000 0.0000
# 5 0.0000 0.0000 0.0000 0.0000 21.5577 0.0000
# 6 0.0000 0.0000 0.0000 0.0000 0.0000 32.6251
#
#
#
# Elastic Compliance Matrix: (Units=1/GPa)
#
#
# Indices 1 2 3 4 5 6 
#
# 1 0.017894 -0.007375 -0.003806 0.000000 0.000000 0.000000
# 2 -0.007375 0.028334 -0.005056 0.000000 0.000000 0.000000
# 3 -0.003806 -0.005056 0.007863 0.000000 0.000000 0.000000
# 4 0.000000 0.000000 0.000000 0.023232 0.000000 0.000000
# 5 0.000000 0.000000 0.000000 0.000000 0.046387 0.000000
# 6 0.000000 0.000000 0.000000 0.000000 0.000000 0.030651
#
#
# Mechanical properties :
#
#
# Convention : Reuss Voigt Hill
#
# Bulk Modulus (GPa) = 46.25816 67.28684 56.77250
# Shear Modulus (GPa) = 25.76774 31.49670 28.63222
#
# Velocity S-wave (km/s) = 3.39195 3.75011 3.57552
# Velocity P-wave (km/s) = 5.99957 6.98533 6.51113
#
# Compressibility (1/GPa) = 0.02161781
#
# Stress axis : x y z
#
# Youngs Moduli (GPa) = 55.88441 35.29303 127.17525
#
# Poissons Ratio (x) = 0.26029 0.48404
# Poissons Ratio (y) = 0.41215 0.64296
# Poissons Ratio (z) = 0.21270 0.17843
#
# Static dielectric constant tensor:
#      x y z
#    x 1.883400 0.000000 0.000000 
#    y 0.000000 1.934540 0.000000 
#    z 0.000000 0.000000 1.846990 
# 
# From -- ./inp_files/22432.got.cif
#   From: 2010.05.17/outbox.cif.g08.bks.cpg/sg23_12_cif.got.tgz:22432.got - 2010.06.04 12:02:01.
