data_PCOD9330064
_publ_section_title
;
Structure prediction by ZEFSAII (Michael W. Deem and Ramdas Pophale) SiO2 
 PCOD9330064
Probable space group: I 2 2 2
;
_chemical_formula_sum "Si O2"
_cell_formula_units_Z 64
_cell_length_a 25.108244
_cell_length_b 13.126916
_cell_length_c 9.096985
_cell_angle_alpha 90.000000
_cell_angle_beta 90.000000
_cell_angle_gamma 90.000000
_cell_volume 2998.309945
_symmetry_space_group_name_H-M "I 2 2 2"
_symmetry_group_IT_number 23
_symmetry_cell_setting 'orthorhombic'
loop_
_space_group_symop_operation_xyz
x,y,z
-x,-y,z
x,-y,-z
-x,y,-z
1/2+x,1/2+y,1/2+z
1/2-x,1/2-y,1/2+z
1/2+x,1/2-y,1/2-z
1/2-x,1/2+y,1/2-z
loop_
_atom_site_type_symbol
_atom_site_label
_atom_site_fract_x
_atom_site_fract_y
_atom_site_fract_z
Si Si1 0.411933 0.910269 0.887470
Si Si2 0.806534 0.887076 0.925798
Si Si3 0.591152 0.740752 0.497264
Si Si4 0.365944 0.553626 0.857205
Si Si5 0.188200 0.613998 0.562390
Si Si6 0.954470 0.212030 0.332753
Si Si7 0.869823 0.443494 0.858127
Si Si8 0.042628 0.084911 0.220416
O O1 0.456519 0.825997 0.888018
O O2 0.400141 0.967301 0.733804
O O3 0.359006 0.852212 0.952557
O O4 0.423227 0.000000 0.000000
O O5 0.822407 0.906492 0.756361
O O6 0.747270 0.841996 0.943427
O O7 0.849829 0.808020 0.986412
O O8 0.811490 0.000000 0.000000
O O9 0.565190 0.731751 0.336376
O O10 0.595181 0.851543 0.573171
O O11 0.558523 0.663380 0.596783
O O12 0.407562 0.642480 0.898716
O O13 0.405053 0.472577 0.776540
O O14 0.342713 0.500000 0.000000
O O15 0.196171 0.500000 0.500000
O O16 0.167172 0.605148 0.729880
O O17 0.009326 0.151043 0.337157
O O18 0.844314 0.500000 0.000000
O O19 0.000000 0.000000 0.172220
#
# Coordination Sequence:
#
# PCOD9330064 Si02
#       8
#     8   8   8   8   8   8   8   8
#     4   9  19  40  63  84 120 169 207 259 312 360
#     4  10  19  39  60  88 126 160 208 254 309 374
#     4  11  21  35  62  93 120 163 207 256 307 364
#     4  10  22  37  59  91 131 160 195 255 315 376
#     4   8  19  37  62  85 117 167 204 253 316 370
#     4  10  21  36  62  90 120 165 208 253 309 373
#     4  10  19  37  60  85 120 161 209 257 311 349
#     4  10  22  39  63  94 128 165 202 246 324 385
#
# _framework density 21.345358999999998
#
# number of rings (size 3 to 8) (size 9 to 14) (size 15 to 20)
#    0.000    2.500    2.500    0.375    0.000    7.250 
#    4.500    0.625    0.000    3.000    0.000    0.000 
#    0.000    0.000    0.000    0.000    0.000    0.000 
#
# Total GULP energy -178448.800247 kJ/mol
# GULP energy per Si atom -5576.525008 kJ/mol
# Density = 2.129678 g / cm^3
# Si number density = 21.345359 Si / 1000 Ang^3
#
#
#
# Elastic Constant Matrix: (Units=GPa)
#
#
# Indices 1 2 3 4 5 6 
#
# 1 44.8235 43.8263 14.3581 0.0000 0.0000 0.0000
# 2 43.8263 74.2391 34.0273 0.0000 0.0000 0.0000
# 3 14.3581 34.0273 96.0208 0.0000 0.0000 0.0000
# 4 0.0000 0.0000 0.0000 20.0237 0.0000 0.0000
# 5 0.0000 0.0000 0.0000 0.0000 6.3270 0.0000
# 6 0.0000 0.0000 0.0000 0.0000 0.0000 90.7045
#
#
#
# Elastic Compliance Matrix: (Units=1/GPa)
#
#
# Indices 1 2 3 4 5 6 
#
# 1 0.053929 -0.033598 0.003842 0.000000 0.000000 0.000000
# 2 -0.033598 0.037013 -0.008093 0.000000 0.000000 0.000000
# 3 0.003842 -0.008093 0.012708 0.000000 0.000000 0.000000
# 4 0.000000 0.000000 0.000000 0.049941 0.000000 0.000000
# 5 0.000000 0.000000 0.000000 0.000000 0.158052 0.000000
# 6 0.000000 0.000000 0.000000 0.000000 0.000000 0.011025
#
#
# Mechanical properties :
#
#
# Convention : Reuss Voigt Hill
#
# Bulk Modulus (GPa) = 35.77339 44.38964 40.08151
# Shear Modulus (GPa) = 12.26446 31.60249 21.93348
#
# Velocity S-wave (km/s) = 2.39963 3.85194 3.20902
# Velocity P-wave (km/s) = 4.94705 6.37372 5.70516
#
# Compressibility (1/GPa) = 0.02795374
#
# Stress axis : x y z
#
# Youngs Moduli (GPa) = 18.54287 27.01737 78.69219
#
# Poissons Ratio (x) = 0.90772 -0.30234
# Poissons Ratio (y) = 0.62299 0.63683
# Poissons Ratio (z) = -0.07124 0.21864
#
# Static dielectric constant tensor:
#      x y z
#    x 1.799570 0.000000 0.000000 
#    y 0.000000 1.762640 0.000000 
#    z 0.000000 0.000000 1.794380 
# 
# From -- ./inp_files/12728.got.cif
#   From: 2010.05.17/outbox.cif.g08.bks.cpg/sg23_7_cif.got.tgz:12728.got - 2010.06.04 12:02:01.
