data_PCOD9330265
_publ_section_title
;
Structure prediction by ZEFSAII (Michael W. Deem and Ramdas Pophale) SiO2 
 PCOD9330265
Probable space group: I 2 2 2
;
_chemical_formula_sum "Si O2"
_cell_formula_units_Z 42
_cell_length_a 26.163338
_cell_length_b 15.322718
_cell_length_c 5.185347
_cell_angle_alpha 90.000000
_cell_angle_beta 90.000000
_cell_angle_gamma 90.000000
_cell_volume 2078.771649
_symmetry_space_group_name_H-M "I 2 2 2"
_symmetry_group_IT_number 23
_symmetry_cell_setting 'orthorhombic'
loop_
_space_group_symop_operation_xyz
x,y,z
-x,-y,z
x,-y,-z
-x,y,-z
1/2+x,1/2+y,1/2+z
1/2-x,1/2-y,1/2+z
1/2+x,1/2-y,1/2-z
1/2-x,1/2+y,1/2-z
loop_
_atom_site_type_symbol
_atom_site_label
_atom_site_fract_x
_atom_site_fract_y
_atom_site_fract_z
Si Si1 0.558230 0.780936 0.498309
Si Si2 0.431655 0.412103 0.628364
Si Si3 0.738029 0.194290 0.873011
Si Si4 0.171562 0.092292 0.355133
Si Si5 0.127309 0.279965 0.508279
Si Si6 0.000000 0.000000 0.500000
O O1 0.500000 0.816976 0.500000
O O2 0.552879 0.676142 0.496673
O O3 0.590568 0.801995 0.245069
O O4 0.594173 0.796664 0.749736
O O5 0.450027 0.500000 0.500000
O O6 0.371101 0.414814 0.636842
O O7 0.458293 0.427440 0.901461
O O8 0.736765 0.259747 0.624756
O O9 0.774580 0.118422 0.768086
O O10 0.680946 0.169516 0.959532
O O11 0.148398 0.178488 0.503716
O O12 0.173319 0.000000 0.500000
#
# Coordination Sequence:
#
# PCOD9330265 Si02
#       6
#     8   8   8   8   8   2
#     4  11  22  33  53  72 100 136 185 223 263 321
#     4  11  22  32  45  65 101 141 179 224 267 305
#     4  10  20  37  55  74 102 146 184 230 289 334
#     4  10  20  34  55  76 104 136 195 232 271 317
#     4  10  21  36  51  75 105 141 176 226 279 328
#     4  12  22  32  40  62 100 140 178 212 270 292
#
# _framework density 20.204242000000001
#
# number of rings (size 3 to 8) (size 9 to 14) (size 15 to 20)
#    0.000    1.524    0.952    6.571    8.000    1.524 
#    0.000    0.000    0.000    0.000    0.000    0.000 
#    0.000    0.762    0.000   12.571    0.000    7.048 
#
# Total GULP energy -116912.084579 kJ/mol
# GULP energy per Si atom -5567.242123 kJ/mol
# Density = 2.015826 g / cm^3
# Si number density = 20.204242 Si / 1000 Ang^3
#
#
#
# Elastic Constant Matrix: (Units=GPa)
#
#
# Indices 1 2 3 4 5 6 
#
# 1 195.1303 22.2872 53.5699 0.0000 0.0000 0.0000
# 2 22.2872 10.1992 1.2553 0.0000 0.0000 0.0000
# 3 53.5699 1.2553 109.8642 0.0000 0.0000 0.0000
# 4 0.0000 0.0000 0.0000 13.6288 0.0000 0.0000
# 5 0.0000 0.0000 0.0000 0.0000 -11.4830 0.0000
# 6 0.0000 0.0000 0.0000 0.0000 0.0000 9.6611
#
#
#
# Elastic Compliance Matrix: (Units=1/GPa)
#
#
# Indices 1 2 3 4 5 6 
#
# 1 0.008138 -0.017319 -0.003770 0.000000 0.000000 0.000000
# 2 -0.017319 0.135042 0.006902 0.000000 0.000000 0.000000
# 3 -0.003770 0.006902 0.010862 0.000000 0.000000 0.000000
# 4 0.000000 0.000000 0.000000 0.073374 0.000000 0.000000
# 5 0.000000 0.000000 0.000000 0.000000 -0.087086 0.000000
# 6 0.000000 0.000000 0.000000 0.000000 0.000000 0.103508
#
#
# Mechanical properties :
#
#
# Convention : Reuss Voigt Hill
#
# Bulk Modulus (GPa) = 7.95754 52.15760 30.05757
# Shear Modulus (GPa) = 15.91843 18.23348 17.07596
#
# Velocity S-wave (km/s) = 2.80996 3.00735 2.91033
# Velocity P-wave (km/s) = 3.80459 6.15874 5.11884
#
# Compressibility (1/GPa) = 0.12566702
#
# Stress axis : x y z
#
# Youngs Moduli (GPa) = 122.88133 7.40510 92.06714
#
# Poissons Ratio (x) = 0.12825 0.34711
# Poissons Ratio (y) = 2.12816 -0.63543
# Poissons Ratio (z) = 0.46329 -0.05111
#
# Static dielectric constant tensor:
#      x y z
#    x 1.758720 0.000000 0.000000 
#    y 0.000000 1.759100 0.000000 
#    z 0.000000 0.000000 1.604950 
# 
# From -- ./inp_files/3326.got.cif
#   From: 2010.05.17/outbox.cif.g08.bks.cpg/sg23_2_cif.got.tgz:3326.got - 2010.06.04 12:02:01.
