data_PCOD9330045
_publ_section_title
;
Structure prediction by ZEFSAII (Michael W. Deem and Ramdas Pophale) SiO2 
 PCOD9330045
Probable space group: I 2 2 2
;
_chemical_formula_sum "Si O2"
_cell_formula_units_Z 48
_cell_length_a 18.292374
_cell_length_b 13.777101
_cell_length_c 8.982262
_cell_angle_alpha 90.000000
_cell_angle_beta 90.000000
_cell_angle_gamma 90.000000
_cell_volume 2263.672699
_symmetry_space_group_name_H-M "I 2 2 2"
_symmetry_group_IT_number 23
_symmetry_cell_setting 'orthorhombic'
loop_
_space_group_symop_operation_xyz
x,y,z
-x,-y,z
x,-y,-z
-x,y,-z
1/2+x,1/2+y,1/2+z
1/2-x,1/2-y,1/2+z
1/2+x,1/2-y,1/2-z
1/2-x,1/2+y,1/2-z
loop_
_atom_site_type_symbol
_atom_site_label
_atom_site_fract_x
_atom_site_fract_y
_atom_site_fract_z
Si Si1 0.797015 0.287244 0.335256
Si Si2 0.087886 0.230403 0.246545
Si Si3 0.413150 0.110260 0.990823
Si Si4 0.828551 0.810032 0.964421
Si Si5 0.344972 0.395832 0.001246
Si Si6 0.548135 0.595947 0.270277
O O1 0.874920 0.332977 0.375001
O O2 0.794881 0.259701 0.162869
O O3 0.736705 0.347753 0.427811
O O4 0.796577 0.182719 0.414853
O O5 0.101126 0.326767 0.343067
O O6 0.129290 0.146710 0.343464
O O7 0.006211 0.188340 0.229563
O O8 0.121053 0.243648 0.084475
O O9 0.500000 0.110130 0.000000
O O10 0.387028 0.000000 0.000000
O O11 0.883388 0.885192 0.881488
O O12 0.307860 0.500000 0.000000
O O13 0.416389 0.410097 0.106397
O O14 0.500000 0.500000 0.304057
#
# Coordination Sequence:
#
# PCOD9330045 Si02
#       6
#     8   8   8   8   8   8
#     4  10  22  43  61  90 130 177 226 277 334 400
#     4  11  21  37  63  96 134 171 214 281 341 408
#     4  10  21  41  68  95 121 166 225 278 332 397
#     4  11  24  42  64  89 136 179 225 277 335 407
#     4  10  19  36  64  95 133 177 214 270 338 424
#     4  11  22  38  63 104 144 177 219 272 354 429
#
# _framework density 21.20448
#
# number of rings (size 3 to 8) (size 9 to 14) (size 15 to 20)
#    0.000    1.500    1.667    6.000    0.000    1.333 
#    3.000    5.833    0.000    2.000    0.000    0.000 
#    0.000    0.000    0.000    0.000    0.000    0.000 
#
# Total GULP energy -133881.388855 kJ/mol
# GULP energy per Si atom -5578.391202 kJ/mol
# Density = 2.115622 g / cm^3
# Si number density = 21.204480 Si / 1000 Ang^3
#
#
#
# Elastic Constant Matrix: (Units=GPa)
#
#
# Indices 1 2 3 4 5 6 
#
# 1 72.9458 23.0609 48.3525 0.0000 0.0000 0.0000
# 2 23.0609 112.1001 35.1791 0.0000 0.0000 0.0000
# 3 48.3525 35.1791 147.1902 0.0000 0.0000 0.0000
# 4 0.0000 0.0000 0.0000 4.5830 0.0000 0.0000
# 5 0.0000 0.0000 0.0000 0.0000 46.9203 0.0000
# 6 0.0000 0.0000 0.0000 0.0000 0.0000 16.7384
#
#
#
# Elastic Compliance Matrix: (Units=1/GPa)
#
#
# Indices 1 2 3 4 5 6 
#
# 1 0.017926 -0.001989 -0.005413 0.000000 0.000000 0.000000
# 2 -0.001989 0.009865 -0.001704 0.000000 0.000000 0.000000
# 3 -0.005413 -0.001704 0.008980 0.000000 0.000000 0.000000
# 4 0.000000 0.000000 0.000000 0.218197 0.000000 0.000000
# 5 0.000000 0.000000 0.000000 0.000000 0.021313 0.000000
# 6 0.000000 0.000000 0.000000 0.000000 0.000000 0.059743
#
#
# Mechanical properties :
#
#
# Convention : Reuss Voigt Hill
#
# Bulk Modulus (GPa) = 53.88822 60.60234 57.24528
# Shear Modulus (GPa) = 13.87266 28.69126 21.28196
#
# Velocity S-wave (km/s) = 2.56057 3.68241 3.17149
# Velocity P-wave (km/s) = 5.84900 6.83536 6.36133
#
# Compressibility (1/GPa) = 0.01855693
#
# Stress axis : x y z
#
# Youngs Moduli (GPa) = 55.78545 101.37264 111.36381
#
# Poissons Ratio (x) = 0.20161 0.60285
# Poissons Ratio (y) = 0.11095 0.18980
# Poissons Ratio (z) = 0.30199 0.17277
#
# Static dielectric constant tensor:
#      x y z
#    x 1.853410 0.000000 0.000000 
#    y 0.000000 1.810570 0.000000 
#    z 0.000000 0.000000 1.770390 
# 
# From -- ./inp_files/11069.got.cif
#   From: 2010.05.17/outbox.cif.g08.bks.cpg/sg23_6_cif.got.tgz:11069.got - 2010.06.04 12:02:01.
