data_PCOD9330466
_publ_section_title
;
Structure prediction by ZEFSAII (Michael W. Deem and Ramdas Pophale) SiO2 
 PCOD9330466
Probable space group: I 2 2 2
;
_chemical_formula_sum "Si O2"
_cell_formula_units_Z 58
_cell_length_a 17.769360
_cell_length_b 18.714987
_cell_length_c 8.696339
_cell_angle_alpha 90.000000
_cell_angle_beta 90.000000
_cell_angle_gamma 90.000000
_cell_volume 2891.996592
_symmetry_space_group_name_H-M "I 2 2 2"
_symmetry_group_IT_number 23
_symmetry_cell_setting 'orthorhombic'
loop_
_space_group_symop_operation_xyz
x,y,z
-x,-y,z
x,-y,-z
-x,y,-z
1/2+x,1/2+y,1/2+z
1/2-x,1/2-y,1/2+z
1/2+x,1/2-y,1/2-z
1/2-x,1/2+y,1/2-z
loop_
_atom_site_type_symbol
_atom_site_label
_atom_site_fract_x
_atom_site_fract_y
_atom_site_fract_z
Si Si1 0.765359 0.111116 0.692470
Si Si2 0.912662 0.399780 0.765292
Si Si3 0.870985 0.310745 0.047438
Si Si4 0.512554 0.780167 0.201170
Si Si5 0.000000 0.500000 0.000000
Si Si6 0.267853 0.325074 0.462174
Si Si7 0.240529 0.534003 0.667782
Si Si8 0.624796 0.275610 0.061886
O O1 0.682701 0.132232 0.632332
O O2 0.770293 0.145079 0.863868
O O3 0.827120 0.151633 0.586102
O O4 0.768133 0.025428 0.711912
O O5 0.846966 0.444838 0.686803
O O6 0.972214 0.356500 0.661035
O O7 0.878015 0.339033 0.875834
O O8 0.952286 0.451110 0.886908
O O9 0.947687 0.298567 0.139225
O O10 0.828444 0.236154 0.053032
O O11 0.441417 0.726953 0.189568
O O12 0.576539 0.745969 0.090619
O O13 0.280584 0.389229 0.342156
O O14 0.187881 0.286577 0.430394
O O15 0.250153 0.500000 0.500000
#
# Coordination Sequence:
#
# PCOD9330466 Si02
#       8
#     8   8   8   8   2   8   8   8
#     4  10  21  39  58  89 127 164 217 261 323 385
#     4  12  23  37  56  87 129 172 207 259 315 401
#     4  11  22  36  62  87 122 169 215 265 310 385
#     4  11  21  38  58  90 126 162 218 267 327 372
#     4  12  24  36  50  84 136 168 202 244 324 396
#     4  10  20  37  61  87 117 166 218 265 310 382
#     4  10  23  39  61  89 127 167 212 258 324 391
#     4  10  21  35  62  89 123 164 217 275 314 385
#
# _framework density 20.055347999999999
#
# number of rings (size 3 to 8) (size 9 to 14) (size 15 to 20)
#    0.000    1.379    4.138    1.655    1.931    0.000 
#    0.000    0.000    0.000    0.828    0.000    6.759 
#    0.000    0.000    0.000    0.000    0.000    0.000 
#
# Total GULP energy -161688.291781 kJ/mol
# GULP energy per Si atom -5575.458337 kJ/mol
# Density = 2.000970 g / cm^3
# Si number density = 20.055348 Si / 1000 Ang^3
#
#
#
# Elastic Constant Matrix: (Units=GPa)
#
#
# Indices 1 2 3 4 5 6 
#
# 1 76.2554 42.1921 13.2767 0.0000 0.0000 0.0000
# 2 42.1921 133.4903 26.8064 0.0000 0.0000 0.0000
# 3 13.2767 26.8064 48.0577 0.0000 0.0000 0.0000
# 4 0.0000 0.0000 0.0000 46.0797 0.0000 0.0000
# 5 0.0000 0.0000 0.0000 0.0000 31.8920 0.0000
# 6 0.0000 0.0000 0.0000 0.0000 0.0000 25.0923
#
#
#
# Elastic Compliance Matrix: (Units=1/GPa)
#
#
# Indices 1 2 3 4 5 6 
#
# 1 0.016031 -0.004705 -0.001805 0.000000 0.000000 0.000000
# 2 -0.004705 0.009817 -0.004176 0.000000 0.000000 0.000000
# 3 -0.001805 -0.004176 0.023636 0.000000 0.000000 0.000000
# 4 0.000000 0.000000 0.000000 0.021702 0.000000 0.000000
# 5 0.000000 0.000000 0.000000 0.000000 0.031356 0.000000
# 6 0.000000 0.000000 0.000000 0.000000 0.000000 0.039853
#
#
# Mechanical properties :
#
#
# Convention : Reuss Voigt Hill
#
# Bulk Modulus (GPa) = 35.57000 46.92820 41.24910
# Shear Modulus (GPa) = 28.87906 32.31467 30.59687
#
# Velocity S-wave (km/s) = 3.79881 4.01842 3.91016
# Velocity P-wave (km/s) = 6.08405 6.70675 6.40297
#
# Compressibility (1/GPa) = 0.02811357
#
# Stress axis : x y z
#
# Youngs Moduli (GPa) = 62.37898 101.86700 42.30792
#
# Poissons Ratio (x) = 0.47923 0.07635
# Poissons Ratio (y) = 0.29346 0.17668
# Poissons Ratio (z) = 0.11257 0.42540
#
# Static dielectric constant tensor:
#      x y z
#    x 1.722800 0.000000 0.000000 
#    y 0.000000 1.757120 0.000000 
#    z 0.000000 0.000000 1.770920 
# 
# From -- ./inp_files/11287.got.cif
#   From: 2010.05.17/outbox.cif.g08.bks.cpg/sg23_6_cif.got.tgz:11287.got - 2010.06.04 12:02:01.
