data_PCOD9330933
_publ_section_title
;
Structure prediction by ZEFSAII (Michael W. Deem and Ramdas Pophale) SiO2 
 PCOD9330933
Probable space group: I 2 2 2
;
_chemical_formula_sum "Si O2"
_cell_formula_units_Z 24
_cell_length_a 9.161632
_cell_length_b 13.224107
_cell_length_c 8.020560
_cell_angle_alpha 90.000000
_cell_angle_beta 90.000000
_cell_angle_gamma 90.000000
_cell_volume 971.726149
_symmetry_space_group_name_H-M "I 2 2 2"
_symmetry_group_IT_number 23
_symmetry_cell_setting 'orthorhombic'
loop_
_space_group_symop_operation_xyz
x,y,z
-x,-y,z
x,-y,-z
-x,y,-z
1/2+x,1/2+y,1/2+z
1/2-x,1/2-y,1/2+z
1/2+x,1/2-y,1/2-z
1/2-x,1/2+y,1/2-z
loop_
_atom_site_type_symbol
_atom_site_label
_atom_site_fract_x
_atom_site_fract_y
_atom_site_fract_z
Si Si1 0.500000 0.500000 0.725112
Si Si2 0.749999 0.128810 0.593978
Si Si3 0.500000 0.000000 0.225109
Si Si4 0.250000 0.361763 0.306291
O O1 0.391245 0.428609 0.832854
O O2 0.391791 0.577777 0.633623
O O3 0.608755 0.071391 0.667149
O O4 0.750000 0.245304 0.647563
O O5 0.749999 0.128604 0.394544
O O6 0.391790 0.922223 0.133621
#
# Coordination Sequence:
#
# PCOD9330933 Si02
#       4
#     4   8   4   8
#     4  10  21  38  59  78 109 150 183 212 267 336
#     4  11  21  37  58  82 108 143 183 223 266 320
#     4  10  21  38  59  78 109 150 183 212 267 336
#     4  11  21  37  58  82 108 143 183 223 266 320
#
# _framework density 24.698316999999999
#
# number of rings (size 3 to 8) (size 9 to 14) (size 15 to 20)
#    0.000    1.333    0.000   10.000    0.000    0.000 
#    0.000   10.000    0.000    0.000    0.000    0.000 
#    0.000    0.000    0.000    0.000    0.000    0.000 
#
# Total GULP energy -67291.582405 kJ/mol
# GULP energy per Si atom -5607.631867 kJ/mol
# Density = 2.464210 g / cm^3
# Si number density = 24.698317 Si / 1000 Ang^3
#
#
#
# Elastic Constant Matrix: (Units=GPa)
#
#
# Indices 1 2 3 4 5 6 
#
# 1 236.7722 123.7102 50.6378 0.0000 0.0000 0.0000
# 2 123.7102 297.9989 44.2853 0.0000 0.0000 0.0000
# 3 50.6378 44.2853 57.5278 0.0000 0.0000 0.0000
# 4 0.0000 0.0000 0.0000 51.7581 0.0000 0.0000
# 5 0.0000 0.0000 0.0000 0.0000 36.4041 0.0000
# 6 0.0000 0.0000 0.0000 0.0000 0.0000 27.8913
#
#
#
# Elastic Compliance Matrix: (Units=1/GPa)
#
#
# Indices 1 2 3 4 5 6 
#
# 1 0.006061 -0.001946 -0.003837 0.000000 0.000000 0.000000
# 2 -0.001946 0.004414 -0.001685 0.000000 0.000000 0.000000
# 3 -0.003837 -0.001685 0.022058 0.000000 0.000000 0.000000
# 4 0.000000 0.000000 0.000000 0.019321 0.000000 0.000000
# 5 0.000000 0.000000 0.000000 0.000000 0.027469 0.000000
# 6 0.000000 0.000000 0.000000 0.000000 0.000000 0.035854
#
#
# Mechanical properties :
#
#
# Convention : Reuss Voigt Hill
#
# Bulk Modulus (GPa) = 56.82965 114.39616 85.61291
# Shear Modulus (GPa) = 36.77092 48.12172 42.44632
#
# Velocity S-wave (km/s) = 3.86269 4.41884 4.15009
# Velocity P-wave (km/s) = 6.55387 8.51192 7.59625
#
# Compressibility (1/GPa) = 0.01759645
#
# Stress axis : x y z
#
# Youngs Moduli (GPa) = 164.99651 226.55604 45.33602
#
# Poissons Ratio (x) = 0.44084 0.17395
# Poissons Ratio (y) = 0.32105 0.07640
# Poissons Ratio (z) = 0.63308 0.38177
#
# Static dielectric constant tensor:
#      x y z
#    x 1.942830 0.000000 0.000000 
#    y 0.000000 1.888900 0.000000 
#    z 0.000000 0.000000 1.984570 
# 
# From -- ./inp_files/6215.got.cif
#   From: 2010.05.17/outbox.cif.g08.bks.cpg/sg23_4_cif.got.tgz:6215.got - 2010.06.04 12:02:01.
