data_PCOD9330764
_publ_section_title
;
Structure prediction by ZEFSAII (Michael W. Deem and Ramdas Pophale) SiO2 
 PCOD9330764
Probable space group: I 2 2 2
;
_chemical_formula_sum "Si O2"
_cell_formula_units_Z 32
_cell_length_a 5.717013
_cell_length_b 31.101144
_cell_length_c 7.298822
_cell_angle_alpha 90.000000
_cell_angle_beta 90.000000
_cell_angle_gamma 90.000000
_cell_volume 1297.771750
_symmetry_space_group_name_H-M "I 2 2 2"
_symmetry_group_IT_number 23
_symmetry_cell_setting 'orthorhombic'
loop_
_space_group_symop_operation_xyz
x,y,z
-x,-y,z
x,-y,-z
-x,y,-z
1/2+x,1/2+y,1/2+z
1/2-x,1/2-y,1/2+z
1/2+x,1/2-y,1/2-z
1/2-x,1/2+y,1/2-z
loop_
_atom_site_type_symbol
_atom_site_label
_atom_site_fract_x
_atom_site_fract_y
_atom_site_fract_z
Si Si1 0.252691 0.016721 0.707878
Si Si2 0.500000 0.334133 0.500000
Si Si3 0.000000 0.759737 0.500000
Si Si4 0.860558 0.694862 0.788229
Si Si5 0.376016 0.889490 0.193183
O O1 0.289033 0.067973 0.706809
O O2 0.500000 0.000000 0.790566
O O3 0.250179 0.000000 0.500000
O O4 0.000000 0.000000 0.785322
O O5 0.340913 0.307427 0.633568
O O6 0.650745 0.363529 0.631741
O O7 0.981297 0.729182 0.320966
O O8 0.231095 0.789668 0.527206
O O9 0.962510 0.646388 0.791185
O O10 0.500000 0.901790 0.000000
#
# Coordination Sequence:
#
# PCOD9330764 Si02
#       5
#     8   4   4   8   8
#     4  10  24  48  72 106 147 192 248 323 382 467
#     4  10  20  46  69 102 142 196 246 316 391 470
#     4  12  24  46  74 104 158 200 268 316 388 462
#     4  11  24  45  70 109 147 204 253 325 382 467
#     4  10  23  45  74 105 149 196 253 312 402 466
#
# _framework density 24.657651000000001
#
# number of rings (size 3 to 8) (size 9 to 14) (size 15 to 20)
#    0.000    1.500    3.750    1.500    7.000    0.500 
#    9.000    0.000    0.000    0.000    0.000    0.000 
#    0.000    0.000    0.000    0.000    0.000    0.000 
#
# Total GULP energy -89375.900316 kJ/mol
# GULP energy per Si atom -5585.993770 kJ/mol
# Density = 2.460153 g / cm^3
# Si number density = 24.657651 Si / 1000 Ang^3
#
#
#
# Elastic Constant Matrix: (Units=GPa)
#
#
# Indices 1 2 3 4 5 6 
#
# 1 130.1575 49.0946 25.0434 0.0000 0.0000 -0.0004
# 2 49.0946 182.7953 74.3170 -0.0002 0.0001 -0.0017
# 3 25.0434 74.3170 126.8974 0.0003 0.0000 -0.0036
# 4 0.0000 -0.0002 0.0003 43.7888 -0.0001 0.0066
# 5 0.0000 0.0001 0.0000 -0.0001 26.9207 0.0004
# 6 -0.0004 -0.0017 -0.0036 0.0066 0.0004 -83.7685
#
#
#
# Elastic Compliance Matrix: (Units=1/GPa)
#
#
# Indices 1 2 3 4 5 6 
#
# 1 0.008569 -0.002118 -0.000451 0.000000 0.000000 0.000000
# 2 -0.002118 0.007704 -0.004094 0.000000 0.000000 0.000000
# 3 -0.000451 -0.004094 0.010367 0.000000 0.000000 0.000000
# 4 0.000000 0.000000 0.000000 0.022837 0.000000 0.000002
# 5 0.000000 0.000000 0.000000 0.000000 0.037146 0.000000
# 6 0.000000 0.000000 0.000000 0.000002 0.000000 -0.011938
#
#
# Mechanical properties :
#
#
# Convention : Reuss Voigt Hill
#
# Bulk Modulus (GPa) = 75.10652 81.86226 78.48439
# Shear Modulus (GPa) = 54.08470 16.81454 35.44962
#
# Velocity S-wave (km/s) = 4.68848 2.61419 3.79578
# Velocity P-wave (km/s) = 7.73531 6.51027 7.14908
#
# Compressibility (1/GPa) = 0.01331442
#
# Stress axis : x y z
#
# Youngs Moduli (GPa) = 116.70448 129.80574 96.46221
#
# Poissons Ratio (x) = 0.27495 0.04346
# Poissons Ratio (y) = 0.24720 0.39489
# Poissons Ratio (z) = 0.05258 0.53138
#
# Static dielectric constant tensor:
#      x y z
#    x 2.831190 -0.000010 0.000060 
#    y -0.000010 1.921170 0.000000 
#    z 0.000060 0.000000 2.041540 
# 
# From -- ./inp_files/824.got.cif
#   From: 2010.05.17/outbox.cif.g08.bks.cpg/sg23_1_cif.got.tgz:824.got - 2010.06.04 12:02:01.
