data_PCOD9330316
_publ_section_title
;
Structure prediction by ZEFSAII (Michael W. Deem and Ramdas Pophale) SiO2 
 PCOD9330316
Probable space group: I 2 2 2
;
_chemical_formula_sum "Si O2"
_cell_formula_units_Z 64
_cell_length_a 7.886780
_cell_length_b 21.221145
_cell_length_c 18.518215
_cell_angle_alpha 90.000000
_cell_angle_beta 90.000000
_cell_angle_gamma 90.000000
_cell_volume 3099.328867
_symmetry_space_group_name_H-M "I 2 2 2"
_symmetry_group_IT_number 23
_symmetry_cell_setting 'orthorhombic'
loop_
_space_group_symop_operation_xyz
x,y,z
-x,-y,z
x,-y,-z
-x,y,-z
1/2+x,1/2+y,1/2+z
1/2-x,1/2-y,1/2+z
1/2+x,1/2-y,1/2-z
1/2-x,1/2+y,1/2-z
loop_
_atom_site_type_symbol
_atom_site_label
_atom_site_fract_x
_atom_site_fract_y
_atom_site_fract_z
Si Si1 0.798406 0.126692 0.166052
Si Si2 0.707179 0.500000 0.916706
Si Si3 0.702581 0.252289 0.918222
Si Si4 0.797225 0.500000 0.582334
Si Si5 0.797419 0.247711 0.581778
Si Si6 0.708010 0.374744 0.168695
Si Si7 0.201594 0.126691 0.166052
Si Si8 0.708010 0.374744 0.831305
O O1 0.733478 0.187064 0.122676
O O2 0.733598 0.124737 0.248382
O O3 0.000000 0.132771 0.169951
O O4 0.757357 0.062471 0.124467
O O5 0.500000 0.500000 0.917335
O O6 0.760590 0.562758 0.874369
O O7 0.760590 0.437242 0.874369
O O8 0.762585 0.500000 0.000000
O O9 0.500000 0.260402 0.923285
O O10 0.733477 0.187064 0.877324
O O11 0.766331 0.311883 0.872456
O O12 0.770721 0.250863 1.000000
O O13 0.731311 0.500000 0.500000
O O14 0.742643 0.562471 0.624467
O O15 0.000000 0.500000 0.579139
O O16 0.733669 0.188117 0.627544
O O17 0.766402 0.375263 0.251618
O O18 0.500000 0.374781 0.169387
#
# Coordination Sequence:
#
# PCOD9330316 Si02
#       8
#     8   8   8   8   8   8   8   8
#     4  11  22  36  56  81 110 142 177 222 272 322
#     4   9  15  26  48  76 104 135 174 220 266 313
#     4  10  20  35  55  79 109 145 184 224 265 314
#     4  11  24  41  59  79 106 141 180 222 268 321
#     4  10  20  35  55  79 109 145 184 224 265 314
#     4   9  18  32  51  78 110 142 177 218 267 319
#     4  11  22  36  56  81 110 142 177 222 272 322
#     4   9  18  32  51  78 110 142 177 218 267 319
#
# _framework density 20.649629999999998
#
# number of rings (size 3 to 8) (size 9 to 14) (size 15 to 20)
#    0.000    2.000    0.000    4.125    0.000    9.500 
#    0.000    1.250    0.000    0.000    0.000    0.000 
#    0.000    9.000    0.000    0.000    0.000    0.000 
#
# Total GULP energy -178853.384975 kJ/mol
# GULP energy per Si atom -5589.168280 kJ/mol
# Density = 2.060263 g / cm^3
# Si number density = 20.649630 Si / 1000 Ang^3
#
#
#
# Elastic Constant Matrix: (Units=GPa)
#
#
# Indices 1 2 3 4 5 6 
#
# 1 17.9110 -11.6242 2.2564 0.0000 0.0000 0.0000
# 2 -11.6242 214.6987 136.2627 0.0000 0.0000 0.0000
# 3 2.2564 136.2627 251.1684 0.0000 0.0000 0.0000
# 4 0.0000 0.0000 0.0000 45.3602 0.0000 0.0000
# 5 0.0000 0.0000 0.0000 0.0000 16.9443 0.0000
# 6 0.0000 0.0000 0.0000 0.0000 0.0000 -62.6763
#
#
#
# Elastic Compliance Matrix: (Units=1/GPa)
#
#
# Indices 1 2 3 4 5 6 
#
# 1 0.059815 0.005459 -0.003499 0.000000 0.000000 0.000000
# 2 0.005459 0.007602 -0.004173 0.000000 0.000000 0.000000
# 3 -0.003499 -0.004173 0.006277 0.000000 0.000000 0.000000
# 4 0.000000 0.000000 0.000000 0.022046 0.000000 0.000000
# 5 0.000000 0.000000 0.000000 0.000000 0.059017 0.000000
# 6 0.000000 0.000000 0.000000 0.000000 0.000000 -0.015955
#
#
# Mechanical properties :
#
#
# Convention : Reuss Voigt Hill
#
# Bulk Modulus (GPa) = 14.43664 81.95199 48.19431
# Shear Modulus (GPa) = 30.06307 23.71787 26.89047
#
# Velocity S-wave (km/s) = 3.81972 3.39276 3.61255
# Velocity P-wave (km/s) = 5.14394 7.42434 6.38674
#
# Compressibility (1/GPa) = 0.06926822
#
# Stress axis : x y z
#
# Youngs Moduli (GPa) = 16.71808 131.54696 159.31603
#
# Poissons Ratio (x) = -0.71816 0.55747
# Poissons Ratio (y) = -0.09127 0.66485
# Poissons Ratio (z) = 0.05850 0.54897
#
# Static dielectric constant tensor:
#      x y z
#    x 1.767740 0.000000 0.000000 
#    y 0.000000 1.657180 0.000000 
#    z 0.000000 0.000000 1.727800 
# 
# From -- ./inp_files/23988.got.cif
#   From: 2010.05.17/outbox.cif.g08.bks.cpg/sg23_12_cif.got.tgz:23988.got - 2010.06.04 12:02:01.
