data_PCOD9330923
_publ_section_title
;
Structure prediction by ZEFSAII (Michael W. Deem and Ramdas Pophale) SiO2 
 PCOD9330923
Probable space group: I 2 2 2
;
_chemical_formula_sum "Si O2"
_cell_formula_units_Z 64
_cell_length_a 12.864700
_cell_length_b 7.720549
_cell_length_c 29.054651
_cell_angle_alpha 90.000000
_cell_angle_beta 90.000000
_cell_angle_gamma 90.000000
_cell_volume 2885.781931
_symmetry_space_group_name_H-M "I 2 2 2"
_symmetry_group_IT_number 23
_symmetry_cell_setting 'orthorhombic'
loop_
_space_group_symop_operation_xyz
x,y,z
-x,-y,z
x,-y,-z
-x,y,-z
1/2+x,1/2+y,1/2+z
1/2-x,1/2-y,1/2+z
1/2+x,1/2-y,1/2-z
1/2-x,1/2+y,1/2-z
loop_
_atom_site_type_symbol
_atom_site_label
_atom_site_fract_x
_atom_site_fract_y
_atom_site_fract_z
Si Si1 0.254330 0.344480 0.213538
Si Si2 0.803233 0.625194 0.044233
Si Si3 0.029889 0.704940 0.816417
Si Si4 0.697670 0.731670 0.812766
Si Si5 0.766851 0.284110 0.087214
Si Si6 0.475025 0.204471 0.216531
Si Si7 0.493423 0.213128 0.419189
Si Si8 0.116955 0.294913 0.494934
O O1 0.151870 0.267016 0.190739
O O2 0.260683 0.541565 0.198176
O O3 0.232978 0.341977 0.268547
O O4 0.360122 0.248108 0.200203
O O5 0.782162 0.493656 0.086604
O O6 0.900487 0.751114 0.053734
O O7 0.825768 0.500000 0.000000
O O8 0.696673 0.719734 0.032277
O O9 0.999524 0.770774 0.866235
O O10 0.000000 0.500000 0.817414
O O11 0.979214 0.772597 0.769348
O O12 0.742451 0.784156 0.862071
O O13 0.572120 0.720383 0.811632
O O14 0.671714 0.246768 0.053523
O O15 0.878691 0.224647 0.066727
O O16 0.500000 0.000000 0.217512
O O17 0.500000 0.000000 0.421504
O O18 0.112859 0.500000 0.500000
O O19 0.000000 0.225524 0.500000
#
# Coordination Sequence:
#
# PCOD9330923 Si02
#       8
#     8   8   8   8   8   8   8   8
#     4  11  20  36  60  85 125 175 213 261 326 381
#     4   9  19  35  62  93 118 151 196 256 314 382
#     4   9  17  32  56  80 117 159 203 250 307 366
#     4  11  22  38  59  92 125 170 215 266 316 384
#     4  10  21  39  64  93 122 158 214 262 306 392
#     4  10  21  38  55  82 120 169 217 266 320 377
#     4   9  16  31  56  91 118 146 195 247 303 359
#     4  10  23  46  65  84 120 167 205 260 348 389
#
# _framework density 22.177697999999999
#
# number of rings (size 3 to 8) (size 9 to 14) (size 15 to 20)
#    0.000    2.125    0.000    5.625    0.000    8.000 
#    9.000    5.000    0.000    0.000    0.000    0.000 
#    0.000    0.000    0.000    0.000    0.000    0.000 
#
# Total GULP energy -178616.502594 kJ/mol
# GULP energy per Si atom -5581.765706 kJ/mol
# Density = 2.212722 g / cm^3
# Si number density = 22.177698 Si / 1000 Ang^3
#
#
#
# Elastic Constant Matrix: (Units=GPa)
#
#
# Indices 1 2 3 4 5 6 
#
# 1 203.5241 3.7660 40.6871 0.0000 0.0000 0.0000
# 2 3.7660 18.4818 -1.3569 0.0000 0.0000 0.0000
# 3 40.6871 -1.3569 59.7263 0.0000 0.0000 0.0000
# 4 0.0000 0.0000 0.0000 13.9407 0.0000 0.0000
# 5 0.0000 0.0000 0.0000 0.0000 24.3871 0.0000
# 6 0.0000 0.0000 0.0000 0.0000 0.0000 8.6868
#
#
#
# Elastic Compliance Matrix: (Units=1/GPa)
#
#
# Indices 1 2 3 4 5 6 
#
# 1 0.005727 -0.001456 -0.003934 0.000000 0.000000 0.000000
# 2 -0.001456 0.054568 0.002231 0.000000 0.000000 0.000000
# 3 -0.003934 0.002231 0.019474 0.000000 0.000000 0.000000
# 4 0.000000 0.000000 0.000000 0.071732 0.000000 0.000000
# 5 0.000000 0.000000 0.000000 0.000000 0.041005 0.000000
# 6 0.000000 0.000000 0.000000 0.000000 0.000000 0.115117
#
#
# Mechanical properties :
#
#
# Convention : Reuss Voigt Hill
#
# Bulk Modulus (GPa) = 13.61450 40.88052 27.24751
# Shear Modulus (GPa) = 14.77436 25.31199 20.04318
#
# Velocity S-wave (km/s) = 2.58385 3.38202 3.00951
# Velocity P-wave (km/s) = 3.87993 5.80723 4.93851
#
# Compressibility (1/GPa) = 0.07345109
#
# Stress axis : x y z
#
# Youngs Moduli (GPa) = 174.61463 18.32584 51.35067
#
# Poissons Ratio (x) = 0.02668 0.20203
# Poissons Ratio (y) = 0.25421 -0.11459
# Poissons Ratio (z) = 0.68700 -0.04089
#
# Static dielectric constant tensor:
#      x y z
#    x 1.881720 0.000000 0.000000 
#    y 0.000000 1.863400 0.000000 
#    z 0.000000 0.000000 1.846700 
# 
# From -- ./inp_files/30469.got.cif
#   From: 2010.05.17/outbox.cif.g08.bks.cpg/sg23_16_cif.got.tgz:30469.got - 2010.06.04 12:02:01.
