data_PCOD9330870
_publ_section_title
;
Structure prediction by ZEFSAII (Michael W. Deem and Ramdas Pophale) SiO2 
 PCOD9330870
Probable space group: I 2 2 2
;
_chemical_formula_sum "Si O2"
_cell_formula_units_Z 32
_cell_length_a 33.518536
_cell_length_b 8.270089
_cell_length_c 5.370767
_cell_angle_alpha 90.000000
_cell_angle_beta 90.000000
_cell_angle_gamma 90.000000
_cell_volume 1488.783465
_symmetry_space_group_name_H-M "I 2 2 2"
_symmetry_group_IT_number 23
_symmetry_cell_setting 'orthorhombic'
loop_
_space_group_symop_operation_xyz
x,y,z
-x,-y,z
x,-y,-z
-x,y,-z
1/2+x,1/2+y,1/2+z
1/2-x,1/2-y,1/2+z
1/2+x,1/2-y,1/2-z
1/2-x,1/2+y,1/2-z
loop_
_atom_site_type_symbol
_atom_site_label
_atom_site_fract_x
_atom_site_fract_y
_atom_site_fract_z
Si Si1 0.181865 0.191764 0.480255
Si Si2 0.240994 0.394367 0.750202
Si Si3 0.908286 0.801703 0.493564
Si Si4 0.953916 0.802439 0.997243
O O1 0.203876 0.274715 0.712317
O O2 0.216749 0.199259 0.273311
O O3 0.137281 0.257055 0.457760
O O4 0.176354 0.000000 0.500000
O O5 0.241842 0.500000 0.500000
O O6 0.237668 0.500000 0.000000
O O7 0.929336 0.751526 0.751670
O O8 0.908365 0.000000 0.500000
O O9 0.932998 0.750269 0.252164
O O10 0.000000 0.751025 0.000000
O O11 0.953774 0.000000 0.000000
#
# Coordination Sequence:
#
# PCOD9330870 Si02
#       4
#     8   8   8   8
#     4  10  21  37  57  80 110 149 193 233 279 335
#     4  11  24  39  57  82 115 155 195 240 290 338
#     4   9  18  28  45  70  97 134 179 220 262 327
#     4   9  16  27  42  65 100 136 167 210 273 334
#
# _framework density 21.494057999999999
#
# number of rings (size 3 to 8) (size 9 to 14) (size 15 to 20)
#    0.000    2.250    0.000    3.750    0.000   14.000 
#    0.000    0.000    0.000    0.000    0.000    0.000 
#    0.000   15.000    0.000    0.000    0.000    0.000 
#
# Total GULP energy -89201.599240 kJ/mol
# GULP energy per Si atom -5575.099952 kJ/mol
# Density = 2.144514 g / cm^3
# Si number density = 21.494058 Si / 1000 Ang^3
#
#
#
# Elastic Constant Matrix: (Units=GPa)
#
#
# Indices 1 2 3 4 5 6 
#
# 1 234.4965 31.1643 100.9582 0.0000 0.0000 0.0000
# 2 31.1643 21.8595 45.8709 -0.0001 -0.0001 -0.0001
# 3 100.9582 45.8709 200.2225 -0.0001 -0.0001 -0.0001
# 4 0.0000 -0.0001 -0.0001 28.7736 -0.0001 -0.0001
# 5 0.0000 -0.0001 -0.0001 -0.0001 30.8824 -0.0001
# 6 0.0000 -0.0001 -0.0001 -0.0001 -0.0001 7.2012
#
#
#
# Elastic Compliance Matrix: (Units=1/GPa)
#
#
# Indices 1 2 3 4 5 6 
#
# 1 0.005621 -0.003979 -0.001923 0.000000 0.000000 0.000000
# 2 -0.003979 0.090918 -0.018823 0.000000 0.000000 0.000001
# 3 -0.001923 -0.018823 0.010276 0.000000 0.000000 0.000000
# 4 0.000000 0.000000 0.000000 0.034754 0.000000 0.000000
# 5 0.000000 0.000000 0.000000 0.000000 0.032381 0.000000
# 6 0.000000 0.000001 0.000000 0.000000 0.000000 0.138865
#
#
# Mechanical properties :
#
#
# Convention : Reuss Voigt Hill
#
# Bulk Modulus (GPa) = 17.43187 90.28504 53.85845
# Shear Modulus (GPa) = 13.11003 31.94379 22.52691
#
# Velocity S-wave (km/s) = 2.47237 3.85927 3.24088
# Velocity P-wave (km/s) = 4.03458 7.87111 6.25429
#
# Compressibility (1/GPa) = 0.05736621
#
# Stress axis : x y z
#
# Youngs Moduli (GPa) = 177.90264 10.99887 97.31157
#
# Poissons Ratio (x) = 0.04377 0.18710
# Poissons Ratio (y) = 0.70788 1.83170
# Poissons Ratio (z) = 0.34205 0.20703
#
# Static dielectric constant tensor:
#      x y z
#    x 1.768410 0.000000 0.000000 
#    y 0.000000 1.859200 0.000000 
#    z 0.000000 0.000000 1.771670 
# 
# From -- ./inp_files/714.got.cif
#   From: 2010.05.17/outbox.cif.g08.bks.cpg/sg23_1_cif.got.tgz:714.got - 2010.06.04 12:02:01.
