data_PCOD9330240
_publ_section_title
;
Structure prediction by ZEFSAII (Michael W. Deem and Ramdas Pophale) SiO2 
 PCOD9330240
Probable space group: I 2 2 2
;
_chemical_formula_sum "Si O2"
_cell_formula_units_Z 64
_cell_length_a 34.248396
_cell_length_b 7.235181
_cell_length_c 10.964496
_cell_angle_alpha 90.000000
_cell_angle_beta 90.000000
_cell_angle_gamma 90.000000
_cell_volume 2716.929129
_symmetry_space_group_name_H-M "I 2 2 2"
_symmetry_group_IT_number 23
_symmetry_cell_setting 'orthorhombic'
loop_
_space_group_symop_operation_xyz
x,y,z
-x,-y,z
x,-y,-z
-x,y,-z
1/2+x,1/2+y,1/2+z
1/2-x,1/2-y,1/2+z
1/2+x,1/2-y,1/2-z
1/2-x,1/2+y,1/2-z
loop_
_atom_site_type_symbol
_atom_site_label
_atom_site_fract_x
_atom_site_fract_y
_atom_site_fract_z
Si Si1 0.055366 0.709561 0.465131
Si Si2 0.205864 0.978067 0.283864
Si Si3 0.291257 0.857586 0.334643
Si Si4 0.989932 0.280006 0.235030
Si Si5 0.427551 0.708768 0.240063
Si Si6 0.087923 0.406485 0.869098
Si Si7 0.622523 0.587987 0.133266
Si Si8 0.174938 0.275867 0.897761
O O1 0.047432 0.500000 0.500000
O O2 0.023221 0.780670 0.370674
O O3 0.060424 0.795737 0.597367
O O4 0.095138 0.734201 0.385645
O O5 0.245260 0.903384 0.343548
O O6 0.168063 0.893812 0.347515
O O7 0.198785 0.900508 0.147876
O O8 0.204188 0.199127 0.266848
O O9 0.312273 0.805597 0.462271
O O10 0.310082 0.056662 0.311632
O O11 0.950380 0.282427 0.156949
O O12 0.000000 0.500000 0.242681
O O13 0.030249 0.184016 0.194855
O O14 0.395108 0.549123 0.237110
O O15 0.411431 0.909616 0.281231
O O16 0.128214 0.290547 0.879621
O O17 0.082470 0.500000 0.000000
O O18 0.619607 0.500000 0.000000
#
# Coordination Sequence:
#
# PCOD9330240 Si02
#       8
#     8   8   8   8   8   8   8   8
#     4  11  19  38  62  91 125 169 223 274 346 411
#     4  12  24  44  71  99 134 177 224 281 350 415
#     4  11  24  43  69  98 130 173 227 279 342 410
#     4  10  20  33  62  93 125 175 225 281 330 404
#     4  10  22  38  61  92 137 175 221 279 348 398
#     4  11  21  37  65  96 132 184 235 281 332 404
#     4  10  25  40  60  98 138 174 215 285 349 409
#     4  11  24  45  67  97 135 179 229 277 343 413
#
# _framework density 23.556007000000001
#
# number of rings (size 3 to 8) (size 9 to 14) (size 15 to 20)
#    0.000    1.250    5.000    2.250    1.750    2.750 
#    0.000    3.125    0.000    0.000    0.000    3.500 
#    0.000    0.000    0.000    0.000    0.000    0.000 
#
# Total GULP energy -178496.785011 kJ/mol
# GULP energy per Si atom -5578.024532 kJ/mol
# Density = 2.350239 g / cm^3
# Si number density = 23.556007 Si / 1000 Ang^3
#
#
#
# Elastic Constant Matrix: (Units=GPa)
#
#
# Indices 1 2 3 4 5 6 
#
# 1 190.2347 24.7864 36.9358 0.0000 0.0000 0.0000
# 2 24.7864 66.9485 14.9261 0.0000 0.0000 0.0000
# 3 36.9358 14.9261 43.2362 0.0000 0.0000 0.0000
# 4 0.0000 0.0000 0.0000 14.6911 0.0000 0.0000
# 5 0.0000 0.0000 0.0000 0.0000 17.6771 0.0000
# 6 0.0000 0.0000 0.0000 0.0000 0.0000 27.5328
#
#
#
# Elastic Compliance Matrix: (Units=1/GPa)
#
#
# Indices 1 2 3 4 5 6 
#
# 1 0.006396 -0.001246 -0.005034 0.000000 0.000000 0.000000
# 2 -0.001246 0.016425 -0.004606 0.000000 0.000000 0.000000
# 3 -0.005034 -0.004606 0.029020 0.000000 0.000000 0.000000
# 4 0.000000 0.000000 0.000000 0.068068 0.000000 0.000000
# 5 0.000000 0.000000 0.000000 0.000000 0.056570 0.000000
# 6 0.000000 0.000000 0.000000 0.000000 0.000000 0.036320
#
#
# Mechanical properties :
#
#
# Convention : Reuss Voigt Hill
#
# Bulk Modulus (GPa) = 33.25704 50.41289 41.83496
# Shear Modulus (GPa) = 20.44195 26.89827 23.67011
#
# Velocity S-wave (km/s) = 2.94904 3.38285 3.17337
# Velocity P-wave (km/s) = 5.07393 6.05854 5.58796
#
# Compressibility (1/GPa) = 0.03006882
#
# Stress axis : x y z
#
# Youngs Moduli (GPa) = 156.33715 60.88286 34.45954
#
# Poissons Ratio (x) = 0.07585 0.17348
# Poissons Ratio (y) = 0.19476 0.15872
# Poissons Ratio (z) = 0.78704 0.28043
#
# Static dielectric constant tensor:
#      x y z
#    x 1.937110 0.000000 0.000000 
#    y 0.000000 2.078330 0.000000 
#    z 0.000000 0.000000 1.965660 
# 
# From -- ./inp_files/18831.got.cif
#   From: 2010.05.17/outbox.cif.g08.bks.cpg/sg23_10_cif.got.tgz:18831.got - 2010.06.04 12:02:01.
