data_PCOD9330513
_publ_section_title
;
Structure prediction by ZEFSAII (Michael W. Deem and Ramdas Pophale) SiO2 
 PCOD9330513
Probable space group: I 2 2 2
;
_chemical_formula_sum "Si O2"
_cell_formula_units_Z 64
_cell_length_a 17.301443
_cell_length_b 8.770755
_cell_length_c 19.268170
_cell_angle_alpha 90.000000
_cell_angle_beta 90.000000
_cell_angle_gamma 90.000000
_cell_volume 2923.881554
_symmetry_space_group_name_H-M "I 2 2 2"
_symmetry_group_IT_number 23
_symmetry_cell_setting 'orthorhombic'
loop_
_space_group_symop_operation_xyz
x,y,z
-x,-y,z
x,-y,-z
-x,y,-z
1/2+x,1/2+y,1/2+z
1/2-x,1/2-y,1/2+z
1/2+x,1/2-y,1/2-z
1/2-x,1/2+y,1/2-z
loop_
_atom_site_type_symbol
_atom_site_label
_atom_site_fract_x
_atom_site_fract_y
_atom_site_fract_z
Si Si1 0.957656 0.652573 0.689622
Si Si2 0.166904 0.045507 0.158513
Si Si3 0.755108 0.321482 0.720595
Si Si4 0.671249 0.648357 0.132788
Si Si5 0.602343 0.645961 0.457284
Si Si6 0.109549 0.356010 0.842922
Si Si7 0.403886 0.382778 0.793771
Si Si8 0.169019 0.347136 0.078579
O O1 0.888488 0.712048 0.640180
O O2 0.929965 0.617853 0.768786
O O3 0.000000 0.500000 0.663957
O O4 0.016980 0.794619 0.696059
O O5 0.105223 0.022149 0.221110
O O6 0.153507 0.213244 0.133080
O O7 0.247782 0.993583 0.191622
O O8 0.163632 0.946284 0.088965
O O9 0.723976 0.340296 0.797969
O O10 0.691415 0.221185 0.679356
O O11 0.837061 0.244822 0.713168
O O12 0.621413 0.495256 0.144492
O O13 0.737258 0.639083 0.074060
O O14 0.571377 0.500000 0.500000
O O15 0.561831 0.740873 0.394388
O O16 0.633521 0.776665 0.508327
O O17 0.129849 0.503872 0.888646
#
# Coordination Sequence:
#
# PCOD9330513 Si02
#       8
#     8   8   8   8   8   8   8   8
#     4  11  25  36  56  87 130 162 195 235 311 373
#     4   9  19  31  54  83 118 146 198 244 300 341
#     4   9  18  31  55  84 111 146 194 244 300 350
#     4  10  21  33  53  87 116 153 199 242 299 367
#     4   9  20  36  56  85 111 150 199 263 300 338
#     4  10  20  38  56  87 116 152 205 257 294 353
#     4  11  19  35  56  81 123 162 188 238 303 373
#     4  11  18  32  59  81 116 147 199 262 292 335
#
# _framework density 21.888711000000001
#
# number of rings (size 3 to 8) (size 9 to 14) (size 15 to 20)
#    0.000    2.000    2.500    2.250    1.750    0.000 
#    0.000    0.000    0.000   14.250    0.000    3.500 
#    0.000    0.000    0.000    0.000    0.000    0.000 
#
# Total GULP energy -178214.148884 kJ/mol
# GULP energy per Si atom -5569.192153 kJ/mol
# Density = 2.183889 g / cm^3
# Si number density = 21.888711 Si / 1000 Ang^3
#
#
#
# Elastic Constant Matrix: (Units=GPa)
#
#
# Indices 1 2 3 4 5 6 
#
# 1 68.7730 6.0399 -3.7163 0.0000 0.0000 0.0000
# 2 6.0399 81.3459 6.6057 0.0000 0.0000 0.0000
# 3 -3.7163 6.6057 31.8945 0.0000 0.0000 0.0000
# 4 0.0000 0.0000 0.0000 41.3428 0.0000 0.0000
# 5 0.0000 0.0000 0.0000 0.0000-1057.6631 0.0000
# 6 0.0000 0.0000 0.0000 0.0000 0.0000 7.7031
#
#
#
# Elastic Compliance Matrix: (Units=1/GPa)
#
#
# Indices 1 2 3 4 5 6 
#
# 1 0.014758 -0.001257 0.001980 0.000000 0.000000 0.000000
# 2 -0.001257 0.012610 -0.002758 0.000000 0.000000 0.000000
# 3 0.001980 -0.002758 0.032155 0.000000 0.000000 0.000000
# 4 0.000000 0.000000 0.000000 0.024188 0.000000 0.000000
# 5 0.000000 0.000000 0.000000 0.000000 -0.000945 0.000000
# 6 0.000000 0.000000 0.000000 0.000000 0.000000 0.129817
#
#
# Mechanical properties :
#
#
# Convention : Reuss Voigt Hill
#
# Bulk Modulus (GPa) = 18.03303 22.20802 20.12052
# Shear Modulus (GPa) = 21.26414 -190.18449 -84.46018
#
# Velocity S-wave (km/s) = 3.12022 -9.33143 -6.21852
# Velocity P-wave (km/s) = 4.60840 10.29237 6.50752
#
# Compressibility (1/GPa) = 0.05545381
#
# Stress axis : x y z
#
# Youngs Moduli (GPa) = 67.76018 79.29927 31.09912
#
# Poissons Ratio (x) = 0.09964 -0.06157
# Poissons Ratio (y) = 0.08514 0.08578
# Poissons Ratio (z) = -0.13415 0.21872
#
# Static dielectric constant tensor:
#      x y z
#    x 1.850130 0.000000 0.000000 
#    y 0.000000 1.934770 0.000000 
#    z 0.000000 0.000000 1.824950 
# 
# From -- ./inp_files/27192.got.cif
#   From: 2010.05.17/outbox.cif.g08.bks.cpg/sg23_14_cif.got.tgz:27192.got - 2010.06.04 12:02:01.
