data_PCOD9330654
_publ_section_title
;
Structure prediction by ZEFSAII (Michael W. Deem and Ramdas Pophale) SiO2 
 PCOD9330654
Probable space group: I 2 2 2
;
_chemical_formula_sum "Si O2"
_cell_formula_units_Z 46
_cell_length_a 17.516618
_cell_length_b 10.714769
_cell_length_c 12.201257
_cell_angle_alpha 90.000000
_cell_angle_beta 90.000000
_cell_angle_gamma 90.000000
_cell_volume 2290.011411
_symmetry_space_group_name_H-M "I 2 2 2"
_symmetry_group_IT_number 23
_symmetry_cell_setting 'orthorhombic'
loop_
_space_group_symop_operation_xyz
x,y,z
-x,-y,z
x,-y,-z
-x,y,-z
1/2+x,1/2+y,1/2+z
1/2-x,1/2-y,1/2+z
1/2+x,1/2-y,1/2-z
1/2-x,1/2+y,1/2-z
loop_
_atom_site_type_symbol
_atom_site_label
_atom_site_fract_x
_atom_site_fract_y
_atom_site_fract_z
Si Si1 0.065824 0.170773 0.207707
Si Si2 0.372378 0.835945 0.104983
Si Si3 0.893372 0.123043 0.224407
Si Si4 0.000000 0.500000 0.500000
Si Si5 0.153667 0.227311 0.010353
Si Si6 0.302625 0.632450 0.945914
Si Si7 0.754866 0.500000 0.500000
O O1 0.117550 0.255874 0.286315
O O2 0.079161 0.224421 0.085889
O O3 0.978267 0.176649 0.247789
O O4 0.090410 0.025180 0.208674
O O5 0.306080 0.939316 0.095309
O O6 0.447874 0.911242 0.074130
O O7 0.349685 0.738257 0.010513
O O8 0.832409 0.136826 0.321642
O O9 0.864830 0.193760 0.115150
O O10 0.212881 0.338915 0.032831
O O11 0.203361 0.108044 0.048742
O O12 0.321531 0.500000 0.000000
#
# Coordination Sequence:
#
# PCOD9330654 Si02
#       7
#     8   8   8   2   8   8   4
#     4  11  22  39  67  94 130 171 214 276 330 396
#     4  10  21  39  62  93 125 169 213 274 328 395
#     4  11  23  40  63  97 131 172 219 269 333 392
#     4  10  20  40  62  92 132 168 222 258 354 406
#     4  11  23  40  65  92 132 173 223 270 322 400
#     4  11  24  41  64  97 133 171 223 276 331 390
#     4   9  20  37  59  88 123 166 216 262 317 388
#
# _framework density 20.087236999999998
#
# number of rings (size 3 to 8) (size 9 to 14) (size 15 to 20)
#    0.000    1.391    3.478    1.565    4.870    1.391 
#    0.000    1.739    0.000    1.043    0.000    0.000 
#    0.000    0.000    0.000    0.000    0.000    0.000 
#
# Total GULP energy -128303.952824 kJ/mol
# GULP energy per Si atom -5578.432731 kJ/mol
# Density = 2.004152 g / cm^3
# Si number density = 20.087237 Si / 1000 Ang^3
#
#
#
# Elastic Constant Matrix: (Units=GPa)
#
#
# Indices 1 2 3 4 5 6 
#
# 1 55.2048 10.5697 11.3444 0.0000 0.0000 0.0000
# 2 10.5697 49.9430 13.6737 0.0000 0.0000 0.0000
# 3 11.3444 13.6737 114.8628 0.0000 0.0000 0.0000
# 4 0.0000 0.0000 0.0000 18.2225 0.0000 0.0000
# 5 0.0000 0.0000 0.0000 0.0000 22.6962 0.0000
# 6 0.0000 0.0000 0.0000 0.0000 0.0000 31.4269
#
#
#
# Elastic Compliance Matrix: (Units=1/GPa)
#
#
# Indices 1 2 3 4 5 6 
#
# 1 0.019111 -0.003647 -0.001453 0.000000 0.000000 0.000000
# 2 -0.003647 0.021393 -0.002187 0.000000 0.000000 0.000000
# 3 -0.001453 -0.002187 0.009110 0.000000 0.000000 0.000000
# 4 0.000000 0.000000 0.000000 0.054877 0.000000 0.000000
# 5 0.000000 0.000000 0.000000 0.000000 0.044060 0.000000
# 6 0.000000 0.000000 0.000000 0.000000 0.000000 0.031820
#
#
# Mechanical properties :
#
#
# Convention : Reuss Voigt Hill
#
# Bulk Modulus (GPa) = 28.53795 32.35401 30.44598
# Shear Modulus (GPa) = 24.19839 26.76398 25.48119
#
# Velocity S-wave (km/s) = 3.47459 3.65415 3.56550
# Velocity P-wave (km/s) = 5.50771 5.82627 5.66923
#
# Compressibility (1/GPa) = 0.03504106
#
# Stress axis : x y z
#
# Youngs Moduli (GPa) = 52.32520 46.74377 109.77089
#
# Poissons Ratio (x) = 0.17046 0.15954
# Poissons Ratio (y) = 0.19081 0.24002
# Poissons Ratio (z) = 0.07605 0.10221
#
# Static dielectric constant tensor:
#      x y z
#    x 1.752380 0.000000 0.000000 
#    y 0.000000 1.699300 0.000000 
#    z 0.000000 0.000000 1.732860 
# 
# From -- ./inp_files/17423.got.cif
#   From: 2010.05.17/outbox.cif.g08.bks.cpg/sg23_9_cif.got.tgz:17423.got - 2010.06.04 12:02:01.
