data_PCOD9330035
_publ_section_title
;
Structure prediction by ZEFSAII (Michael W. Deem and Ramdas Pophale) SiO2 
 PCOD9330035
Probable space group: I 2 2 2
;
_chemical_formula_sum "Si O2"
_cell_formula_units_Z 58
_cell_length_a 13.152333
_cell_length_b 8.579862
_cell_length_c 25.424018
_cell_angle_alpha 90.000000
_cell_angle_beta 90.000000
_cell_angle_gamma 90.000000
_cell_volume 2868.978450
_symmetry_space_group_name_H-M "I 2 2 2"
_symmetry_group_IT_number 23
_symmetry_cell_setting 'orthorhombic'
loop_
_space_group_symop_operation_xyz
x,y,z
-x,-y,z
x,-y,-z
-x,y,-z
1/2+x,1/2+y,1/2+z
1/2-x,1/2-y,1/2+z
1/2+x,1/2-y,1/2-z
1/2-x,1/2+y,1/2-z
loop_
_atom_site_type_symbol
_atom_site_label
_atom_site_fract_x
_atom_site_fract_y
_atom_site_fract_z
Si Si1 0.356672 0.558946 0.942158
Si Si2 0.620551 0.022598 0.194857
Si Si3 0.500000 0.000000 0.500000
Si Si4 0.639151 0.193513 0.419167
Si Si5 0.122188 0.505861 0.813563
Si Si6 0.093232 0.377767 0.593843
Si Si7 0.201198 0.988891 0.058516
Si Si8 0.769986 0.215595 0.627763
O O1 0.246793 0.643265 0.944584
O O2 0.428586 0.700046 0.922213
O O3 0.335415 0.416807 0.902036
O O4 0.383734 0.500000 0.000000
O O5 0.661535 0.030861 0.254013
O O6 0.642009 0.883808 0.152962
O O7 0.500000 0.000000 0.201086
O O8 0.657410 0.173466 0.162443
O O9 0.439480 0.887777 0.459125
O O10 0.635177 0.379227 0.413074
O O11 0.640191 0.128207 0.360203
O O12 0.183259 0.357552 0.835489
O O13 0.000000 0.500000 0.811338
O O14 0.181974 0.451089 0.558703
O O15 0.000000 0.500000 0.591277
O O16 0.210393 0.821449 0.085074
O O17 0.161813 0.000000 0.000000
#
# Coordination Sequence:
#
# PCOD9330035 Si02
#       8
#     8   8   2   8   8   8   8   8
#     4  10  19  36  61  89 120 162 200 245 308 372
#     4   9  20  40  60  83 117 158 200 256 310 355
#     4  12  20  36  62  88 120 158 206 244 298 380
#     4  10  21  35  60  86 120 159 200 243 305 367
#     4  10  21  38  62  87 118 155 203 255 303 367
#     4   9  19  37  60  85 117 156 203 252 307 361
#     4  10  21  36  56  83 121 161 191 246 308 364
#     4  10  21  36  61  89 119 160 205 248 309 380
#
# _framework density 20.216255
#
# number of rings (size 3 to 8) (size 9 to 14) (size 15 to 20)
#    0.000    2.207    1.379    1.655    1.931    4.690 
#    0.000   12.069    0.000   22.345    0.000    0.000 
#    0.000    0.000    0.000    0.000    0.000    0.000 
#
# Total GULP energy -161452.605351 kJ/mol
# GULP energy per Si atom -5567.331219 kJ/mol
# Density = 2.017024 g / cm^3
# Si number density = 20.216255 Si / 1000 Ang^3
#
#
#
# Elastic Constant Matrix: (Units=GPa)
#
#
# Indices 1 2 3 4 5 6 
#
# 1 56.5228 25.0739 14.5352 0.0000 0.0000 0.0000
# 2 25.0739 129.5820 71.1571 0.0000 0.0000 0.0000
# 3 14.5352 71.1571 155.6333 0.0000 0.0000 0.0000
# 4 0.0000 0.0000 0.0000 11.6068 0.0000 0.0000
# 5 0.0000 0.0000 0.0000 0.0000 20.9721 0.0000
# 6 0.0000 0.0000 0.0000 0.0000 0.0000 23.5642
#
#
#
# Elastic Compliance Matrix: (Units=1/GPa)
#
#
# Indices 1 2 3 4 5 6 
#
# 1 0.019355 -0.003675 -0.000127 0.000000 0.000000 0.000000
# 2 -0.003675 0.011002 -0.004687 0.000000 0.000000 0.000000
# 3 -0.000127 -0.004687 0.008580 0.000000 0.000000 0.000000
# 4 0.000000 0.000000 0.000000 0.086157 0.000000 0.000000
# 5 0.000000 0.000000 0.000000 0.000000 0.047682 0.000000
# 6 0.000000 0.000000 0.000000 0.000000 0.000000 0.042437
#
#
# Mechanical properties :
#
#
# Convention : Reuss Voigt Hill
#
# Bulk Modulus (GPa) = 45.54103 62.58560 54.06332
# Shear Modulus (GPa) = 20.87578 26.62675 23.75126
#
# Velocity S-wave (km/s) = 3.21693 3.63312 3.43134
# Velocity P-wave (km/s) = 6.03109 6.97314 6.51915
#
# Compressibility (1/GPa) = 0.02195822
#
# Stress axis : x y z
#
# Youngs Moduli (GPa) = 51.66601 90.89216 116.54755
#
# Poissons Ratio (x) = 0.33405 0.01483
# Poissons Ratio (y) = 0.18989 0.54626
# Poissons Ratio (z) = 0.00658 0.42601
#
# Static dielectric constant tensor:
#      x y z
#    x 1.754770 0.000000 0.000000 
#    y 0.000000 1.798510 0.000000 
#    z 0.000000 0.000000 1.765740 
# 
# From -- ./inp_files/29626.got.cif
#   From: 2010.05.17/outbox.cif.g08.bks.cpg/sg23_15_cif.got.tgz:29626.got - 2010.06.04 12:02:01.
