data_PCOD9330479
_publ_section_title
;
Structure prediction by ZEFSAII (Michael W. Deem and Ramdas Pophale) SiO2 
 PCOD9330479
Probable space group: I 2 2 2
;
_chemical_formula_sum "Si O2"
_cell_formula_units_Z 64
_cell_length_a 12.170498
_cell_length_b 30.913011
_cell_length_c 8.580859
_cell_angle_alpha 90.000000
_cell_angle_beta 90.000000
_cell_angle_gamma 90.000000
_cell_volume 3228.348596
_symmetry_space_group_name_H-M "I 2 2 2"
_symmetry_group_IT_number 23
_symmetry_cell_setting 'orthorhombic'
loop_
_space_group_symop_operation_xyz
x,y,z
-x,-y,z
x,-y,-z
-x,y,-z
1/2+x,1/2+y,1/2+z
1/2-x,1/2-y,1/2+z
1/2+x,1/2-y,1/2-z
1/2-x,1/2+y,1/2-z
loop_
_atom_site_type_symbol
_atom_site_label
_atom_site_fract_x
_atom_site_fract_y
_atom_site_fract_z
Si Si1 0.275528 0.897816 0.143908
Si Si2 0.265056 0.801023 0.180335
Si Si3 0.650301 0.043252 0.890826
Si Si4 0.103635 0.053692 0.683973
Si Si5 0.359186 0.451013 0.835743
Si Si6 0.993818 0.318237 0.180599
Si Si7 0.484268 0.917347 0.325142
Si Si8 0.884080 0.748197 0.588233
O O1 0.235408 0.849177 0.124540
O O2 0.174049 0.928868 0.174700
O O3 0.357863 0.907410 0.287059
O O4 0.345234 0.914947 0.000740
O O5 0.383275 0.809707 0.258915
O O6 0.175706 0.783408 0.302467
O O7 0.295801 0.768619 0.039453
O O8 0.752360 0.051005 0.772219
O O9 0.540168 0.048638 0.790506
O O10 0.657846 0.000000 0.000000
O O11 0.150135 0.066927 0.512747
O O12 0.978048 0.067697 0.712141
O O13 0.115971 0.002309 0.669479
O O14 0.963659 0.369103 0.188598
O O15 0.916411 0.290628 0.293689
O O16 0.000000 0.305174 0.000000
O O17 0.500000 0.933008 0.500000
O O18 0.000000 0.760249 0.500000
#
# Coordination Sequence:
#
# PCOD9330479 Si02
#       8
#     8   8   8   8   8   8   8   8
#     4  11  22  38  58  89 122 155 194 254 300 351
#     4  10  21  37  61  87 123 158 200 248 306 364
#     4  12  23  38  58  87 123 157 198 250 302 349
#     4   9  18  38  62  81 110 152 207 243 280 348
#     4   9  19  37  60  83 107 158 206 238 284 349
#     4   9  18  36  64  90 115 156 203 248 303 373
#     4  10  22  39  60  86 119 158 201 243 301 366
#     4  10  20  37  62  91 120 164 201 249 305 372
#
# _framework density 19.824376999999998
#
# number of rings (size 3 to 8) (size 9 to 14) (size 15 to 20)
#    0.000    2.000    1.250    3.375    0.000    3.500 
#    2.250    1.875   13.750    0.000    0.000    0.000 
#    0.000    0.000    0.000    0.000    0.000    0.000 
#
# Total GULP energy -178215.118690 kJ/mol
# GULP energy per Si atom -5569.222459 kJ/mol
# Density = 1.977926 g / cm^3
# Si number density = 19.824377 Si / 1000 Ang^3
#
#
#
# Elastic Constant Matrix: (Units=GPa)
#
#
# Indices 1 2 3 4 5 6 
#
# 1 67.0796 25.5510 27.7724 -0.0002 0.0012 0.0000
# 2 25.5510 68.8175 35.6405 -0.0004 0.0005 -0.0002
# 3 27.7724 35.6405 70.4886 -0.0012 0.0043 -0.0027
# 4 -0.0002 -0.0004 -0.0012 22.0939 0.0003 -0.0005
# 5 0.0012 0.0005 0.0043 0.0003 34.6592 0.0004
# 6 0.0000 -0.0002 -0.0027 -0.0005 0.0004 16.8839
#
#
#
# Elastic Compliance Matrix: (Units=1/GPa)
#
#
# Indices 1 2 3 4 5 6 
#
# 1 0.018681 -0.004232 -0.005220 0.000000 0.000000 -0.000001
# 2 -0.004232 0.020645 -0.008771 0.000000 0.000001 -0.000001
# 3 -0.005220 -0.008771 0.020678 0.000001 -0.000002 0.000003
# 4 0.000000 0.000000 0.000001 0.045261 0.000000 0.000001
# 5 0.000000 0.000001 -0.000002 0.000000 0.028852 -0.000001
# 6 -0.000001 -0.000001 0.000003 0.000001 -0.000001 0.059228
#
#
# Mechanical properties :
#
#
# Convention : Reuss Voigt Hill
#
# Bulk Modulus (GPa) = 42.45027 42.70150 42.57589
# Shear Modulus (GPa) = 21.03968 22.55554 21.79761
#
# Velocity S-wave (km/s) = 3.26130 3.37674 3.31952
# Velocity P-wave (km/s) = 5.97002 6.06546 6.01793
#
# Compressibility (1/GPa) = 0.02355697
#
# Stress axis : x y z
#
# Youngs Moduli (GPa) = 53.52989 48.43754 48.35989
#
# Poissons Ratio (x) = 0.20501 0.25245
# Poissons Ratio (y) = 0.22656 0.42417
# Poissons Ratio (z) = 0.27944 0.42485
#
# Static dielectric constant tensor:
#      x y z
#    x 1.720630 0.000000 0.000000 
#    y 0.000000 1.717960 0.000000 
#    z 0.000000 0.000000 1.748050 
# 
# From -- ./inp_files/8971.got.cif
#   From: 2010.05.17/outbox.cif.g08.bks.cpg/sg23_5_cif.got.tgz:8971.got - 2010.06.04 12:02:01.
