data_PCOD9330135
_publ_section_title
;
Structure prediction by ZEFSAII (Michael W. Deem and Ramdas Pophale) SiO2 
 PCOD9330135
Probable space group: I 2 2 2
;
_chemical_formula_sum "Si O2"
_cell_formula_units_Z 56
_cell_length_a 20.644290
_cell_length_b 8.847446
_cell_length_c 14.957545
_cell_angle_alpha 90.000000
_cell_angle_beta 90.000000
_cell_angle_gamma 90.000000
_cell_volume 2731.984241
_symmetry_space_group_name_H-M "I 2 2 2"
_symmetry_group_IT_number 23
_symmetry_cell_setting 'orthorhombic'
loop_
_space_group_symop_operation_xyz
x,y,z
-x,-y,z
x,-y,-z
-x,y,-z
1/2+x,1/2+y,1/2+z
1/2-x,1/2-y,1/2+z
1/2+x,1/2-y,1/2-z
1/2-x,1/2+y,1/2-z
loop_
_atom_site_type_symbol
_atom_site_label
_atom_site_fract_x
_atom_site_fract_y
_atom_site_fract_z
Si Si1 0.000000 0.500000 0.326934
Si Si2 0.420443 0.267568 0.248663
Si Si3 0.000000 0.000000 0.375611
Si Si4 0.591273 0.248328 0.109600
Si Si5 0.283078 0.338896 0.170534
Si Si6 0.772545 0.680114 0.482157
Si Si7 0.359057 0.416788 0.408793
Si Si8 0.176155 0.142861 0.248775
O O1 0.042176 0.612674 0.266645
O O2 0.047913 0.400217 0.387499
O O3 0.457671 0.390528 0.187963
O O4 0.348422 0.260215 0.206927
O O5 0.410950 0.324675 0.350077
O O6 0.950832 0.887744 0.426250
O O7 0.660743 0.224670 0.065588
O O8 0.609635 0.295002 0.211153
O O9 0.224276 0.279700 0.230675
O O10 0.294589 0.516947 0.183810
O O11 0.270251 0.280916 0.071128
O O12 0.778013 0.500000 0.500000
O O13 0.703717 0.687055 0.430966
O O14 0.380316 0.500000 0.500000
O O15 0.335142 0.548709 0.341546
#
# Coordination Sequence:
#
# PCOD9330135 Si02
#       8
#     4   8   4   8   8   8   8   8
#     4  10  24  38  69  87 124 176 218 252 300 377
#     4  10  21  40  62  94 119 165 214 253 303 374
#     4  10  20  42  62  86 118 170 224 240 297 375
#     4  11  22  42  65  89 124 172 209 262 306 369
#     4  11  22  39  66  98 125 160 209 255 320 384
#     4  11  22  39  63  98 132 156 201 263 327 377
#     4  10  19  39  66  96 122 159 201 261 322 379
#     4  11  22  39  68  92 125 164 205 258 324 375
#
# _framework density 20.497921999999999
#
# number of rings (size 3 to 8) (size 9 to 14) (size 15 to 20)
#    0.000    1.429    5.714    2.571    2.000    0.571 
#    0.000    7.857    0.000    1.714    0.000    0.000 
#    0.000    0.000    0.000    0.000    0.000    0.000 
#
# Total GULP energy -156389.934010 kJ/mol
# GULP energy per Si atom -5585.354786 kJ/mol
# Density = 2.045127 g / cm^3
# Si number density = 20.497922 Si / 1000 Ang^3
#
#
#
# Elastic Constant Matrix: (Units=GPa)
#
#
# Indices 1 2 3 4 5 6 
#
# 1 56.5326 22.4008 -9.1665 0.0000 0.0000 0.0000
# 2 22.4008 99.3260 8.7786 0.0000 0.0000 0.0000
# 3 -9.1665 8.7786 57.7883 0.0000 0.0000 0.0000
# 4 0.0000 0.0000 0.0000 32.5359 0.0000 0.0000
# 5 0.0000 0.0000 0.0000 0.0000 32.1872 0.0000
# 6 0.0000 0.0000 0.0000 0.0000 0.0000 53.7376
#
#
#
# Elastic Compliance Matrix: (Units=1/GPa)
#
#
# Indices 1 2 3 4 5 6 
#
# 1 0.020283 -0.004925 0.003966 0.000000 0.000000 0.000000
# 2 -0.004925 0.011401 -0.002513 0.000000 0.000000 0.000000
# 3 0.003966 -0.002513 0.018315 0.000000 0.000000 0.000000
# 4 0.000000 0.000000 0.000000 0.030735 0.000000 0.000000
# 5 0.000000 0.000000 0.000000 0.000000 0.031068 0.000000
# 6 0.000000 0.000000 0.000000 0.000000 0.000000 0.018609
#
#
# Mechanical properties :
#
#
# Convention : Reuss Voigt Hill
#
# Bulk Modulus (GPa) = 23.22641 28.63029 25.92835
# Shear Modulus (GPa) = 32.95798 36.46774 34.71286
#
# Velocity S-wave (km/s) = 4.01417 4.22251 4.11966
# Velocity P-wave (km/s) = 5.73066 6.14577 5.94184
#
# Compressibility (1/GPa) = 0.04305444
#
# Stress axis : x y z
#
# Youngs Moduli (GPa) = 49.30136 87.71398 54.59909
#
# Poissons Ratio (x) = 0.43199 -0.21652
# Poissons Ratio (y) = 0.24281 0.13721
# Poissons Ratio (z) = -0.19551 0.22043
#
# Static dielectric constant tensor:
#      x y z
#    x 1.732710 0.000000 0.000000 
#    y 0.000000 1.726120 0.000000 
#    z 0.000000 0.000000 1.798500 
# 
# From -- ./inp_files/10259.got.cif
#   From: 2010.05.17/outbox.cif.g08.bks.cpg/sg23_6_cif.got.tgz:10259.got - 2010.06.04 12:02:01.
