data_PCOD9330375
_publ_section_title
;
Structure prediction by ZEFSAII (Michael W. Deem and Ramdas Pophale) SiO2 
 PCOD9330375
Probable space group: I 2 2 2
;
_chemical_formula_sum "Si O2"
_cell_formula_units_Z 56
_cell_length_a 18.499515
_cell_length_b 9.116295
_cell_length_c 19.385949
_cell_angle_alpha 90.000000
_cell_angle_beta 90.000000
_cell_angle_gamma 90.000000
_cell_volume 3269.382841
_symmetry_space_group_name_H-M "I 2 2 2"
_symmetry_group_IT_number 23
_symmetry_cell_setting 'orthorhombic'
loop_
_space_group_symop_operation_xyz
x,y,z
-x,-y,z
x,-y,-z
-x,y,-z
1/2+x,1/2+y,1/2+z
1/2-x,1/2-y,1/2+z
1/2+x,1/2-y,1/2-z
1/2-x,1/2+y,1/2-z
loop_
_atom_site_type_symbol
_atom_site_label
_atom_site_fract_x
_atom_site_fract_y
_atom_site_fract_z
Si Si1 0.713638 0.632254 0.341042
Si Si2 0.977953 0.159602 0.693952
Si Si3 0.145350 0.360112 0.245301
Si Si4 0.268354 0.708742 0.364858
Si Si5 0.928260 0.841812 0.463734
Si Si6 0.626637 0.801706 0.228576
Si Si7 0.778745 0.326468 0.514771
O O1 0.788194 0.659346 0.298988
O O2 0.704231 0.456749 0.348575
O O3 0.651608 0.708466 0.295644
O O4 0.728866 0.691193 0.417797
O O5 0.917756 0.247406 0.736186
O O6 0.947016 0.140156 0.616724
O O7 0.051981 0.250076 0.695938
O O8 0.000000 0.000000 0.721646
O O9 0.178743 0.322626 0.171366
O O10 0.121631 0.527784 0.251883
O O11 0.190433 0.718230 0.327428
O O12 0.257555 0.733588 0.445466
O O13 0.856474 0.746750 0.472829
O O14 0.000000 0.776097 0.500000
O O15 0.917201 0.000000 0.500000
O O16 0.789237 0.500000 0.500000
#
# Coordination Sequence:
#
# PCOD9330375 Si02
#       7
#     8   8   8   8   8   8   8
#     4   9  18  36  55  79 109 145 187 230 276 330
#     4  12  22  36  55  76 114 151 185 227 274 329
#     4  10  20  36  55  80 108 145 191 233 273 328
#     4   9  19  34  56  80 110 143 186 230 279 328
#     4  11  22  36  48  78 117 151 183 216 272 334
#     4  10  21  35  56  79 109 147 190 233 276 325
#     4  10  20  36  57  82 111 148 184 227 276 332
#
# _framework density 17.128615
#
# number of rings (size 3 to 8) (size 9 to 14) (size 15 to 20)
#    0.000    1.857    2.857    2.143    0.000    2.571 
#    2.571    0.000    0.000    0.857    0.000    6.000 
#    0.000    0.000    0.000    0.000    0.000    0.000 
#
# Total GULP energy -156254.527687 kJ/mol
# GULP energy per Si atom -5580.518846 kJ/mol
# Density = 1.708963 g / cm^3
# Si number density = 17.128615 Si / 1000 Ang^3
#
#
#
# Elastic Constant Matrix: (Units=GPa)
#
#
# Indices 1 2 3 4 5 6 
#
# 1 47.0897 33.1569 23.4961 0.0000 0.0000 0.0000
# 2 33.1569 53.6542 28.7150 0.0000 0.0000 0.0000
# 3 23.4961 28.7150 110.3986 0.0000 0.0000 0.0000
# 4 0.0000 0.0000 0.0000 18.6344 0.0000 0.0000
# 5 0.0000 0.0000 0.0000 0.0000 20.6825 0.0000
# 6 0.0000 0.0000 0.0000 0.0000 0.0000 31.7082
#
#
#
# Elastic Compliance Matrix: (Units=1/GPa)
#
#
# Indices 1 2 3 4 5 6 
#
# 1 0.038093 -0.022307 -0.002305 0.000000 0.000000 0.000000
# 2 -0.022307 0.034714 -0.004282 0.000000 0.000000 0.000000
# 3 -0.002305 -0.004282 0.010662 0.000000 0.000000 0.000000
# 4 0.000000 0.000000 0.000000 0.053664 0.000000 0.000000
# 5 0.000000 0.000000 0.000000 0.000000 0.048350 0.000000
# 6 0.000000 0.000000 0.000000 0.000000 0.000000 0.031538
#
#
# Mechanical properties :
#
#
# Convention : Reuss Voigt Hill
#
# Bulk Modulus (GPa) = 38.93743 42.43096 40.68419
# Shear Modulus (GPa) = 17.64479 22.59000 20.11739
#
# Velocity S-wave (km/s) = 3.21305 3.63553 3.43080
# Velocity P-wave (km/s) = 6.04539 6.51525 6.28471
#
# Compressibility (1/GPa) = 0.02568223
#
# Stress axis : x y z
#
# Youngs Moduli (GPa) = 26.25157 28.80646 93.78734
#
# Poissons Ratio (x) = 0.64258 0.21620
# Poissons Ratio (y) = 0.58559 0.40158
# Poissons Ratio (z) = 0.06052 0.12334
#
# Static dielectric constant tensor:
#      x y z
#    x 1.551660 0.000000 0.000000 
#    y 0.000000 1.592240 0.000000 
#    z 0.000000 0.000000 1.580520 
# 
# From -- ./inp_files/23962.got.cif
#   From: 2010.05.17/outbox.cif.g08.bks.cpg/sg23_12_cif.got.tgz:23962.got - 2010.06.04 12:02:01.
