data_PCOD9330047
_publ_section_title
;
Structure prediction by ZEFSAII (Michael W. Deem and Ramdas Pophale) SiO2 
 PCOD9330047
Probable space group: I 2 2 2
;
_chemical_formula_sum "Si O2"
_cell_formula_units_Z 56
_cell_length_a 7.506163
_cell_length_b 17.353724
_cell_length_c 22.076639
_cell_angle_alpha 90.000000
_cell_angle_beta 90.000000
_cell_angle_gamma 90.000000
_cell_volume 2875.700369
_symmetry_space_group_name_H-M "I 2 2 2"
_symmetry_group_IT_number 23
_symmetry_cell_setting 'orthorhombic'
loop_
_space_group_symop_operation_xyz
x,y,z
-x,-y,z
x,-y,-z
-x,y,-z
1/2+x,1/2+y,1/2+z
1/2-x,1/2-y,1/2+z
1/2+x,1/2-y,1/2-z
1/2-x,1/2+y,1/2-z
loop_
_atom_site_type_symbol
_atom_site_label
_atom_site_fract_x
_atom_site_fract_y
_atom_site_fract_z
Si Si1 0.783717 1.000000 0.930719
Si Si2 0.000000 0.089568 0.363207
Si Si3 1.000000 0.240148 0.429108
Si Si4 0.290122 0.342001 0.365616
Si Si5 0.208812 0.410101 0.238562
Si Si6 0.290122 0.342001 0.634384
Si Si7 0.791188 0.410101 0.238562
O O1 0.730325 0.922411 0.896713
O O2 0.730325 0.077589 0.896713
O O3 0.000000 0.000000 0.930738
O O4 0.722856 0.000000 0.000000
O O5 0.830354 0.104041 0.319599
O O6 1.000000 0.149163 0.417554
O O7 0.169646 0.104041 0.319599
O O8 0.000000 0.000000 0.380965
O O9 0.170489 0.276667 0.395410
O O10 0.000000 0.259445 0.500000
O O11 0.829510 0.276667 0.395411
O O12 0.259129 0.355147 0.294275
O O13 0.500000 0.330288 0.376655
O O14 0.243452 0.500000 0.256825
O O15 1.000000 0.402343 0.225442
O O16 0.259129 0.355147 0.705725
#
# Coordination Sequence:
#
# PCOD9330047 Si02
#       7
#     8   8   8   8   8   8   8
#     4   9  18  31  53  83 122 177 211 223 275 360
#     4  10  24  45  69  89 116 160 208 270 329 368
#     4  12  28  44  60  90 125 165 217 261 307 367
#     4  11  21  37  61  91 132 167 202 249 301 361
#     4  10  19  36  64  97 127 157 201 251 307 371
#     4  11  21  37  61  91 132 167 202 249 301 361
#     4  10  19  36  64  97 127 157 201 251 307 371
#
# _framework density 19.473517999999999
#
# number of rings (size 3 to 8) (size 9 to 14) (size 15 to 20)
#    0.000    1.571    4.286    0.857    0.000    4.857 
#    0.000    1.429    0.000    0.000    0.000    6.000 
#    0.000    0.000    0.000    0.000    0.000    0.000 
#
# Total GULP energy -156523.068715 kJ/mol
# GULP energy per Si atom -5590.109597 kJ/mol
# Density = 1.942920 g / cm^3
# Si number density = 19.473518 Si / 1000 Ang^3
#
#
#
# Elastic Constant Matrix: (Units=GPa)
#
#
# Indices 1 2 3 4 5 6 
#
# 1 111.8987 31.5600 16.8299 0.0000 0.0000 0.0000
# 2 31.5600 78.6937 21.4773 0.0000 0.0000 0.0000
# 3 16.8299 21.4773 21.6326 0.0000 0.0000 0.0000
# 4 0.0000 0.0000 0.0000 27.4006 0.0000 0.0000
# 5 0.0000 0.0000 0.0000 0.0000 6.4154 0.0000
# 6 0.0000 0.0000 0.0000 0.0000 0.0000 6.3849
#
#
#
# Elastic Compliance Matrix: (Units=1/GPa)
#
#
# Indices 1 2 3 4 5 6 
#
# 1 0.010531 -0.002726 -0.005486 0.000000 0.000000 0.000000
# 2 -0.002726 0.018136 -0.015885 0.000000 0.000000 0.000000
# 3 -0.005486 -0.015885 0.066266 0.000000 0.000000 0.000000
# 4 0.000000 0.000000 0.000000 0.036495 0.000000 0.000000
# 5 0.000000 0.000000 0.000000 0.000000 0.155875 0.000000
# 6 0.000000 0.000000 0.000000 0.000000 0.000000 0.156618
#
#
# Mechanical properties :
#
#
# Convention : Reuss Voigt Hill
#
# Bulk Modulus (GPa) = 21.39598 39.10661 30.25130
# Shear Modulus (GPa) = 9.84842 17.53072 13.68957
#
# Velocity S-wave (km/s) = 2.25129 3.00364 2.65426
# Velocity P-wave (km/s) = 4.21531 5.67051 4.99618
#
# Compressibility (1/GPa) = 0.04673776
#
# Stress axis : x y z
#
# Youngs Moduli (GPa) = 94.96097 55.13832 15.09069
#
# Poissons Ratio (x) = 0.15030 0.08279
# Poissons Ratio (y) = 0.25886 0.23972
# Poissons Ratio (z) = 0.52099 0.87589
#
# Static dielectric constant tensor:
#      x y z
#    x 1.670840 0.000000 0.000000 
#    y 0.000000 1.691790 0.000000 
#    z 0.000000 0.000000 1.641130 
# 
# From -- ./inp_files/26260.got.cif
#   From: 2010.05.17/outbox.cif.g08.bks.cpg/sg23_14_cif.got.tgz:26260.got - 2010.06.04 12:02:01.
