data_PCOD9330781
_publ_section_title
;
Structure prediction by ZEFSAII (Michael W. Deem and Ramdas Pophale) SiO2 
 PCOD9330781
Probable space group: I 2 2 2
;
_chemical_formula_sum "Si O2"
_cell_formula_units_Z 46
_cell_length_a 23.444198
_cell_length_b 18.618983
_cell_length_c 5.201000
_cell_angle_alpha 90.000000
_cell_angle_beta 90.000000
_cell_angle_gamma 90.000000
_cell_volume 2270.273552
_symmetry_space_group_name_H-M "I 2 2 2"
_symmetry_group_IT_number 23
_symmetry_cell_setting 'orthorhombic'
loop_
_space_group_symop_operation_xyz
x,y,z
-x,-y,z
x,-y,-z
-x,y,-z
1/2+x,1/2+y,1/2+z
1/2-x,1/2-y,1/2+z
1/2+x,1/2-y,1/2-z
1/2-x,1/2+y,1/2-z
loop_
_atom_site_type_symbol
_atom_site_label
_atom_site_fract_x
_atom_site_fract_y
_atom_site_fract_z
Si Si1 0.062592 0.305597 0.452187
Si Si2 0.000000 0.500000 0.000000
Si Si3 0.686022 0.700036 0.607297
Si Si4 0.247019 0.654329 0.889503
Si Si5 0.697474 0.000000 0.500000
Si Si6 0.904519 0.559067 0.685249
Si Si7 0.563074 0.286183 0.545060
O O1 0.105302 0.367164 0.537247
O O2 0.063984 0.278792 0.162591
O O3 0.000000 0.337506 0.500000
O O4 0.067761 0.241397 0.661589
O O5 0.047959 0.558474 0.095205
O O6 0.726689 0.667409 0.390095
O O7 0.695668 0.786891 0.584159
O O8 0.621799 0.676170 0.537827
O O9 0.707829 0.676441 0.887519
O O10 0.230973 0.571324 0.920174
O O11 0.654654 0.972163 0.281422
O O12 0.931522 0.500000 0.500000
O O13 0.500000 0.319962 0.500000
#
# Coordination Sequence:
#
# PCOD9330781 Si02
#       7
#     8   2   8   8   4   8   8
#     4  10  21  33  53  78 118 154 194 237 281 342
#     4  10  22  36  44  70 108 160 216 224 284 338
#     4  10  21  40  62  85 117 156 196 244 305 364
#     4  10  23  39  61  85 117 158 201 246 298 359
#     4  11  26  39  58  88 115 154 209 262 300 346
#     4  11  24  34  52  74 114 162 202 247 287 338
#     4  10  21  36  59  89 112 147 195 249 299 357
#
# _framework density 20.261875
#
# number of rings (size 3 to 8) (size 9 to 14) (size 15 to 20)
#    0.000    1.739    0.000    3.391   13.391    1.391 
#    0.000    0.000    0.000    0.000    0.000    3.652 
#    0.000    0.000    0.000    0.000    0.000    0.000 
#
# Total GULP energy -128218.390457 kJ/mol
# GULP energy per Si atom -5574.712629 kJ/mol
# Density = 2.021576 g / cm^3
# Si number density = 20.261875 Si / 1000 Ang^3
#
#
#
# Elastic Constant Matrix: (Units=GPa)
#
#
# Indices 1 2 3 4 5 6 
#
# 1 81.0503 10.0018 -13.7630 0.0000 0.0000 0.0000
# 2 10.0018 67.7210 -2.3743 0.0000 0.0000 0.0000
# 3 -13.7630 -2.3743 48.0865 0.0000 0.0000 0.0000
# 4 0.0000 0.0000 0.0000 15.8221 0.0000 0.0000
# 5 0.0000 0.0000 0.0000 0.0000 1268.6642 0.0000
# 6 0.0000 0.0000 0.0000 0.0000 0.0000 17.7217
#
#
#
# Elastic Compliance Matrix: (Units=1/GPa)
#
#
# Indices 1 2 3 4 5 6 
#
# 1 0.013188 -0.001819 0.003685 0.000000 0.000000 0.000000
# 2 -0.001819 0.015043 0.000222 0.000000 0.000000 0.000000
# 3 0.003685 0.000222 0.021862 0.000000 0.000000 0.000000
# 4 0.000000 0.000000 0.000000 0.063203 0.000000 0.000000
# 5 0.000000 0.000000 0.000000 0.000000 0.000788 0.000000
# 6 0.000000 0.000000 0.000000 0.000000 0.000000 0.056428
#
#
# Mechanical properties :
#
#
# Convention : Reuss Voigt Hill
#
# Bulk Modulus (GPa) = 18.42656 20.50965 19.46810
# Shear Modulus (GPa) = 27.11138 273.97447 150.54293
#
# Velocity S-wave (km/s) = 3.66190 11.64089 8.62902
# Velocity P-wave (km/s) = 5.19551 13.81393 10.43595
#
# Compressibility (1/GPa) = 0.05426949
#
# Stress axis : x y z
#
# Youngs Moduli (GPa) = 75.82559 66.47679 45.74251
#
# Poissons Ratio (x) = 0.12089 -0.16855
# Poissons Ratio (y) = 0.13790 -0.01017
# Poissons Ratio (z) = -0.27940 -0.01477
#
# Static dielectric constant tensor:
#      x y z
#    x 1.784900 0.000000 0.000000 
#    y 0.000000 1.446620 0.000000 
#    z 0.000000 0.000000 1.726500 
# 
# From -- ./inp_files/4474.got.cif
#   From: 2010.05.17/outbox.cif.g08.bks.cpg/sg23_3_cif.got.tgz:4474.got - 2010.06.04 12:02:01.
