data_PCOD9330673
_publ_section_title
;
Structure prediction by ZEFSAII (Michael W. Deem and Ramdas Pophale) SiO2 
 PCOD9330673
Probable space group: I 2 2 2
;
_chemical_formula_sum "Si O2"
_cell_formula_units_Z 46
_cell_length_a 5.343656
_cell_length_b 22.260477
_cell_length_c 18.179714
_cell_angle_alpha 90.000000
_cell_angle_beta 90.000000
_cell_angle_gamma 90.000000
_cell_volume 2162.519366
_symmetry_space_group_name_H-M "I 2 2 2"
_symmetry_group_IT_number 23
_symmetry_cell_setting 'orthorhombic'
loop_
_space_group_symop_operation_xyz
x,y,z
-x,-y,z
x,-y,-z
-x,y,-z
1/2+x,1/2+y,1/2+z
1/2-x,1/2-y,1/2+z
1/2+x,1/2-y,1/2-z
1/2-x,1/2+y,1/2-z
loop_
_atom_site_type_symbol
_atom_site_label
_atom_site_fract_x
_atom_site_fract_y
_atom_site_fract_z
Si Si1 0.263614 0.269174 0.707864
Si Si2 0.500000 0.000000 0.000000
Si Si3 0.000000 0.903355 0.500000
Si Si4 0.011891 0.111617 0.248380
Si Si5 0.811016 0.556024 0.865180
Si Si6 0.740034 0.035816 0.140178
Si Si7 0.309916 0.837824 0.382591
O O1 0.483669 0.242996 0.761851
O O2 0.312026 0.340202 0.708508
O O3 0.322379 0.233129 0.632418
O O4 0.661888 0.958579 0.945287
O O5 0.134835 0.941958 0.563175
O O6 0.198087 0.860516 0.459031
O O7 0.160190 0.057943 0.288814
O O8 0.801976 0.091574 0.191144
O O9 0.879264 0.141952 0.318160
O O10 0.000000 0.500000 0.868993
O O11 0.949483 0.620777 0.868390
O O12 0.500000 0.000000 0.170472
O O13 0.000000 0.000000 0.140104
#
# Coordination Sequence:
#
# PCOD9330673 Si02
#       7
#     8   2   4   8   8   8   8
#     4  10  20  40  67  97 133 168 224 293 351 400
#     4   8  22  44  62  94 134 190 200 264 342 446
#     4  10  24  43  60  93 140 199 237 286 362 434
#     4  10  23  38  65 106 129 172 233 300 351 409
#     4  11  24  40  65  94 144 185 244 293 357 431
#     4  10  23  38  67  95 134 175 218 268 346 420
#     4  10  22  39  64  95 133 181 232 289 352 420
#
# _framework density 21.271484000000001
#
# number of rings (size 3 to 8) (size 9 to 14) (size 15 to 20)
#    0.522    1.391    1.739    0.783    4.870    4.174 
#    0.000    2.609    0.000    6.261    0.000    0.000 
#    0.000    0.000    0.000    0.000    0.000    0.000 
#
# Total GULP energy -128288.863415 kJ/mol
# GULP energy per Si atom -5577.776670 kJ/mol
# Density = 2.122307 g / cm^3
# Si number density = 21.271484 Si / 1000 Ang^3
#
#
#
# Elastic Constant Matrix: (Units=GPa)
#
#
# Indices 1 2 3 4 5 6 
#
# 1 90.8016 26.2276 33.0574 0.0000 0.0000 0.0000
# 2 26.2276 81.7467 53.2398 0.0000 0.0000 0.0000
# 3 33.0574 53.2398 119.7121 0.0000 0.0000 0.0000
# 4 0.0000 0.0000 0.0000 11.7352 0.0000 0.0000
# 5 0.0000 0.0000 0.0000 0.0000 20.2409 0.0000
# 6 0.0000 0.0000 0.0000 0.0000 0.0000 34.0189
#
#
#
# Elastic Compliance Matrix: (Units=1/GPa)
#
#
# Indices 1 2 3 4 5 6 
#
# 1 0.012597 -0.002500 -0.002367 0.000000 0.000000 0.000000
# 2 -0.002500 0.017717 -0.007189 0.000000 0.000000 0.000000
# 3 -0.002367 -0.007189 0.012204 0.000000 0.000000 0.000000
# 4 0.000000 0.000000 0.000000 0.085214 0.000000 0.000000
# 5 0.000000 0.000000 0.000000 0.000000 0.049405 0.000000
# 6 0.000000 0.000000 0.000000 0.000000 0.000000 0.029395
#
#
# Mechanical properties :
#
#
# Convention : Reuss Voigt Hill
#
# Bulk Modulus (GPa) = 54.32888 57.47887 55.90387
# Shear Modulus (GPa) = 21.11677 25.18139 23.14908
#
# Velocity S-wave (km/s) = 3.15417 3.44439 3.30247
# Velocity P-wave (km/s) = 6.23388 6.54970 6.39374
#
# Compressibility (1/GPa) = 0.01840642
#
# Stress axis : x y z
#
# Youngs Moduli (GPa) = 79.38540 56.44267 81.94026
#
# Poissons Ratio (x) = 0.14112 0.19391
# Poissons Ratio (y) = 0.19849 0.58906
# Poissons Ratio (z) = 0.18787 0.40576
#
# Static dielectric constant tensor:
#      x y z
#    x 1.830400 0.000000 0.000000 
#    y 0.000000 1.886310 0.000000 
#    z 0.000000 0.000000 1.771950 
# 
# From -- ./inp_files/23200.got.cif
#   From: 2010.05.17/outbox.cif.g08.bks.cpg/sg23_12_cif.got.tgz:23200.got - 2010.06.04 12:02:01.
