data_PCOD9330823
_publ_section_title
;
Structure prediction by ZEFSAII (Michael W. Deem and Ramdas Pophale) SiO2 
 PCOD9330823
Probable space group: I 2 2 2
;
_chemical_formula_sum "Si O2"
_cell_formula_units_Z 58
_cell_length_a 11.770598
_cell_length_b 26.632821
_cell_length_c 9.458167
_cell_angle_alpha 90.000000
_cell_angle_beta 90.000000
_cell_angle_gamma 90.000000
_cell_volume 2964.986195
_symmetry_space_group_name_H-M "I 2 2 2"
_symmetry_group_IT_number 23
_symmetry_cell_setting 'orthorhombic'
loop_
_space_group_symop_operation_xyz
x,y,z
-x,-y,z
x,-y,-z
-x,y,-z
1/2+x,1/2+y,1/2+z
1/2-x,1/2-y,1/2+z
1/2+x,1/2-y,1/2-z
1/2-x,1/2+y,1/2-z
loop_
_atom_site_type_symbol
_atom_site_label
_atom_site_fract_x
_atom_site_fract_y
_atom_site_fract_z
Si Si1 0.903273 0.801746 0.417457
Si Si2 0.831126 0.614909 0.303944
Si Si3 0.837351 0.697246 0.525511
Si Si4 0.596327 0.734354 0.605729
Si Si5 0.000000 0.000000 0.000000
Si Si6 0.085773 0.389162 0.723638
Si Si7 0.671151 0.845385 0.503454
Si Si8 0.228021 0.052643 0.047368
O O1 0.882135 0.753145 0.515298
O O2 0.934624 0.779713 0.265256
O O3 0.784917 0.830847 0.417982
O O4 0.000000 0.831951 0.500000
O O5 0.839380 0.670030 0.374647
O O6 0.800845 0.621349 0.140542
O O7 0.743670 0.586876 0.407422
O O8 0.958654 0.591506 0.310022
O O9 0.709221 0.703231 0.575006
O O10 0.902922 0.662286 0.634316
O O11 0.500000 0.716915 0.500000
O O12 0.620409 0.792800 0.564611
O O13 0.905018 0.036903 0.924372
O O14 0.192048 0.422435 0.667381
O O15 0.095380 0.374000 0.887611
O O16 0.282006 0.000000 0.000000
#
# Coordination Sequence:
#
# PCOD9330823 Si02
#       8
#     8   8   8   8   2   8   8   8
#     4  11  23  37  54  79 121 169 225 264 300 358
#     4  11  21  37  63  92 118 158 203 254 305 362
#     4  10  21  36  53  80 116 161 213 255 306 351
#     4  11  23  36  55  78 119 173 218 264 306 352
#     4   8  20  48  70  98 116 156 184 232 300 384
#     4  11  21  39  61  90 122 156 204 254 304 360
#     4  11  24  39  53  89 127 165 208 258 318 348
#     4   9  21  43  70  94 117 151 192 235 307 380
#
# _framework density 19.561641999999999
#
# number of rings (size 3 to 8) (size 9 to 14) (size 15 to 20)
#    0.414    1.103    2.759    3.724    3.862    1.103 
#    7.448    0.690    0.000    2.483    0.000    0.000 
#    0.000    0.000    0.000    0.000    0.000    0.000 
#
# Total GULP energy -161534.708031 kJ/mol
# GULP energy per Si atom -5570.162346 kJ/mol
# Density = 1.951712 g / cm^3
# Si number density = 19.561642 Si / 1000 Ang^3
#
#
#
# Elastic Constant Matrix: (Units=GPa)
#
#
# Indices 1 2 3 4 5 6 
#
# 1 96.0531 13.3019 31.4675 0.0001 0.0000 0.0000
# 2 13.3019 39.8557 8.4433 -0.0001 0.0000 -0.0001
# 3 31.4675 8.4433 132.4304 0.0000 -0.0004 -0.0002
# 4 0.0001 -0.0001 0.0000 7.0412 -0.0001 -0.0001
# 5 0.0000 0.0000 -0.0004 -0.0001 27.0185 0.0000
# 6 0.0000 -0.0001 -0.0002 -0.0001 0.0000 -5.2376
#
#
#
# Elastic Compliance Matrix: (Units=1/GPa)
#
#
# Indices 1 2 3 4 5 6 
#
# 1 0.011719 -0.003367 -0.002570 0.000000 0.000000 0.000000
# 2 -0.003367 0.026401 -0.000883 0.000000 0.000000 0.000000
# 3 -0.002570 -0.000883 0.008218 0.000000 0.000000 0.000000
# 4 0.000000 0.000000 0.000000 0.142021 0.000000 -0.000003
# 5 0.000000 0.000000 0.000000 0.000000 0.037012 0.000000
# 6 0.000000 0.000000 0.000000 -0.000003 0.000000 -0.190927
#
#
# Mechanical properties :
#
#
# Convention : Reuss Voigt Hill
#
# Bulk Modulus (GPa) = 30.58250 41.64050 36.11150
# Shear Modulus (GPa) = 84.76805 20.10618 52.43711
#
# Velocity S-wave (km/s) = 6.58998 3.20947 5.18308
# Velocity P-wave (km/s) = 8.57739 5.92176 7.37018
#
# Compressibility (1/GPa) = 0.03269844
#
# Stress axis : x y z
#
# Youngs Moduli (GPa) = 85.33078 37.87690 121.68237
#
# Poissons Ratio (x) = 0.12752 0.31272
# Poissons Ratio (y) = 0.28729 0.10748
# Poissons Ratio (z) = 0.21930 0.03345
#
# Static dielectric constant tensor:
#      x y z
#    x 1.805050 0.000000 0.000000 
#    y 0.000000 1.717870 0.000000 
#    z 0.000000 0.000000 1.783570 
# 
# From -- ./inp_files/8929.got.cif
#   From: 2010.05.17/outbox.cif.g08.bks.cpg/sg23_5_cif.got.tgz:8929.got - 2010.06.04 12:02:01.
