data_PCOD9330814
_publ_section_title
;
Structure prediction by ZEFSAII (Michael W. Deem and Ramdas Pophale) SiO2 
 PCOD9330814
Probable space group: I 2 2 2
;
_chemical_formula_sum "Si O2"
_cell_formula_units_Z 48
_cell_length_a 12.163118
_cell_length_b 12.330888
_cell_length_c 14.098751
_cell_angle_alpha 90.000000
_cell_angle_beta 90.000000
_cell_angle_gamma 90.000000
_cell_volume 2114.559518
_symmetry_space_group_name_H-M "I 2 2 2"
_symmetry_group_IT_number 23
_symmetry_cell_setting 'orthorhombic'
loop_
_space_group_symop_operation_xyz
x,y,z
-x,-y,z
x,-y,-z
-x,y,-z
1/2+x,1/2+y,1/2+z
1/2-x,1/2-y,1/2+z
1/2+x,1/2-y,1/2-z
1/2-x,1/2+y,1/2-z
loop_
_atom_site_type_symbol
_atom_site_label
_atom_site_fract_x
_atom_site_fract_y
_atom_site_fract_z
Si Si1 0.844793 0.174687 0.961958
Si Si2 0.352559 0.449248 0.354953
Si Si3 0.621106 0.009927 0.791595
Si Si4 0.591700 0.180860 0.925970
Si Si5 0.159091 0.579012 0.914474
Si Si6 0.913855 0.911231 0.638795
O O1 0.711495 0.181459 0.975058
O O2 0.877075 0.295766 0.929423
O O3 0.871697 0.073140 0.891800
O O4 0.887890 0.134597 0.064024
O O5 0.220065 0.446385 0.340565
O O6 0.400959 0.423122 0.252484
O O7 0.634382 0.133761 0.822859
O O8 0.500000 0.000000 0.833964
O O9 0.618885 0.972384 0.684087
O O10 0.544061 0.295714 0.894793
O O11 0.500000 0.136376 0.000000
O O12 0.291853 0.577042 0.903916
O O13 0.127692 0.500000 0.000000
O O14 0.000000 0.000000 0.607403
#
# Coordination Sequence:
#
# PCOD9330814 Si02
#       6
#     8   8   8   8   8   8
#     4   9  19  37  62  86 119 159 208 248 307 371
#     4   9  19  39  62  88 117 160 205 256 304 372
#     4  10  21  38  58  88 122 156 203 251 310 366
#     4  10  21  35  59  94 120 158 202 259 313 367
#     4  10  23  38  59  87 120 166 200 256 313 373
#     4  10  23  37  58  88 123 156 207 257 318 363
#
# _framework density 22.699763000000001
#
# number of rings (size 3 to 8) (size 9 to 14) (size 15 to 20)
#    0.000    2.333    0.000    1.000    7.000    3.333 
#    3.000    1.667    3.667    0.000    0.000    0.000 
#    0.000    0.000    0.000    0.000    0.000    0.000 
#
# Total GULP energy -133738.252706 kJ/mol
# GULP energy per Si atom -5572.427196 kJ/mol
# Density = 2.264810 g / cm^3
# Si number density = 22.699763 Si / 1000 Ang^3
#
#
#
# Elastic Constant Matrix: (Units=GPa)
#
#
# Indices 1 2 3 4 5 6 
#
# 1 70.6689 5.8374 21.6837 0.0000 0.0000 0.0000
# 2 5.8374 146.9855 114.9368 0.0000 0.0000 0.0000
# 3 21.6837 114.9368 179.7041 0.0000 0.0000 0.0000
# 4 0.0000 0.0000 0.0000 20.0837 0.0000 0.0000
# 5 0.0000 0.0000 0.0000 0.0000 30.8339 0.0000
# 6 0.0000 0.0000 0.0000 0.0000 0.0000 21.5328
#
#
#
# Elastic Compliance Matrix: (Units=1/GPa)
#
#
# Indices 1 2 3 4 5 6 
#
# 1 0.014887 0.001627 -0.002837 0.000000 0.000000 0.000000
# 2 0.001627 0.013788 -0.009015 0.000000 0.000000 0.000000
# 3 -0.002837 -0.009015 0.011673 0.000000 0.000000 0.000000
# 4 0.000000 0.000000 0.000000 0.049792 0.000000 0.000000
# 5 0.000000 0.000000 0.000000 0.000000 0.032432 0.000000
# 6 0.000000 0.000000 0.000000 0.000000 0.000000 0.046441
#
#
# Mechanical properties :
#
#
# Convention : Reuss Voigt Hill
#
# Bulk Modulus (GPa) = 50.25642 75.80826 63.03234
# Shear Modulus (GPa) = 25.49789 31.48346 28.49067
#
# Velocity S-wave (km/s) = 3.35515 3.72822 3.54659
# Velocity P-wave (km/s) = 6.09894 7.21120 6.67827
#
# Compressibility (1/GPa) = 0.01989795
#
# Stress axis : x y z
#
# Youngs Moduli (GPa) = 67.17458 72.52538 85.66748
#
# Poissons Ratio (x) = -0.11802 0.24304
# Poissons Ratio (y) = -0.10931 0.77231
# Poissons Ratio (z) = 0.19058 0.65383
#
# Static dielectric constant tensor:
#      x y z
#    x 1.865200 0.000000 0.000000 
#    y 0.000000 1.097090 0.000000 
#    z 0.000000 0.000000 1.802890 
# 
# From -- ./inp_files/21543.got.cif
#   From: 2010.05.17/outbox.cif.g08.bks.cpg/sg23_11_cif.got.tgz:21543.got - 2010.06.04 12:02:01.
