data_PCOD9330722
_publ_section_title
;
Structure prediction by ZEFSAII (Michael W. Deem and Ramdas Pophale) SiO2 
 PCOD9330722
Probable space group: I 2 2 2
;
_chemical_formula_sum "Si O2"
_cell_formula_units_Z 38
_cell_length_a 8.662902
_cell_length_b 19.978043
_cell_length_c 10.738575
_cell_angle_alpha 90.000000
_cell_angle_beta 90.000000
_cell_angle_gamma 90.000000
_cell_volume 1858.501858
_symmetry_space_group_name_H-M "I 2 2 2"
_symmetry_group_IT_number 23
_symmetry_cell_setting 'orthorhombic'
loop_
_space_group_symop_operation_xyz
x,y,z
-x,-y,z
x,-y,-z
-x,y,-z
1/2+x,1/2+y,1/2+z
1/2-x,1/2-y,1/2+z
1/2+x,1/2-y,1/2-z
1/2-x,1/2+y,1/2-z
loop_
_atom_site_type_symbol
_atom_site_label
_atom_site_fract_x
_atom_site_fract_y
_atom_site_fract_z
Si Si1 0.500000 0.177952 0.000000
Si Si2 0.554133 0.276140 0.209912
Si Si3 0.500000 0.500000 0.000000
Si Si4 0.491594 0.075461 0.201427
Si Si5 0.214229 0.666618 0.838411
Si Si6 0.735741 0.396296 0.108740
O O1 0.409677 0.229057 0.910639
O O2 0.575623 0.126710 0.901747
O O3 0.378764 0.301656 0.199932
O O4 0.591424 0.227128 0.323895
O O5 0.662166 0.339854 0.196764
O O6 0.609108 0.452913 0.082336
O O7 0.653430 0.107881 0.246761
O O8 0.384634 0.075369 0.323132
O O9 0.500000 0.000000 0.154376
O O10 0.226417 0.636759 0.975814
#
# Coordination Sequence:
#
# PCOD9330722 Si02
#       6
#     4   8   2   8   8   8
#     4  10  20  42  64  90 120 168 206 270 314 394
#     4  11  21  40  65  93 127 168 218 268 341 382
#     4  12  22  40  70  94 146 172 228 276 328 396
#     4  11  25  40  65  93 130 171 220 260 332 401
#     4  11  22  40  63  98 128 167 215 279 327 400
#     4  12  23  40  66  96 131 178 214 279 331 393
#
# _framework density 20.446577000000001
#
# number of rings (size 3 to 8) (size 9 to 14) (size 15 to 20)
#    0.000    0.842    4.211    4.737    0.000    0.842 
#    0.000    0.000    0.000    0.000    0.000    0.000 
#    0.000    0.000    0.000    0.000    0.000    0.000 
#
# Total GULP energy -106064.045848 kJ/mol
# GULP energy per Si atom -5582.318203 kJ/mol
# Density = 2.040004 g / cm^3
# Si number density = 20.446577 Si / 1000 Ang^3
#
#
#
# Elastic Constant Matrix: (Units=GPa)
#
#
# Indices 1 2 3 4 5 6 
#
# 1 73.2789 31.9345 37.2479 0.0000 0.0000 0.0000
# 2 31.9345 135.5088 32.7020 0.0000 0.0000 0.0000
# 3 37.2479 32.7020 68.6466 0.0001 0.0000 0.0000
# 4 0.0000 0.0000 0.0001 16.3468 0.0000 0.0000
# 5 0.0000 0.0000 0.0000 0.0000 22.8581 0.0000
# 6 0.0000 0.0000 0.0000 0.0000 0.0000 34.7747
#
#
#
# Elastic Compliance Matrix: (Units=1/GPa)
#
#
# Indices 1 2 3 4 5 6 
#
# 1 0.019459 -0.002302 -0.009462 0.000000 0.000000 0.000000
# 2 -0.002302 0.008611 -0.002853 0.000000 0.000000 0.000000
# 3 -0.009462 -0.002853 0.021060 0.000000 0.000000 0.000000
# 4 0.000000 0.000000 0.000000 0.061174 0.000000 0.000000
# 5 0.000000 0.000000 0.000000 0.000000 0.043748 0.000000
# 6 0.000000 0.000000 0.000000 0.000000 0.000000 0.028757
#
#
# Mechanical properties :
#
#
# Convention : Reuss Voigt Hill
#
# Bulk Modulus (GPa) = 50.26027 53.46701 51.86364
# Shear Modulus (GPa) = 22.86495 26.49923 24.68209
#
# Velocity S-wave (km/s) = 3.34769 3.60394 3.47818
# Velocity P-wave (km/s) = 6.29105 6.59729 6.44599
#
# Compressibility (1/GPa) = 0.01989643
#
# Stress axis : x y z
#
# Youngs Moduli (GPa) = 51.38903 116.13567 47.48257
#
# Poissons Ratio (x) = 0.26740 0.44927
# Poissons Ratio (y) = 0.11832 0.13545
# Poissons Ratio (z) = 0.48624 0.33129
#
# Static dielectric constant tensor:
#      x y z
#    x 1.726100 0.000000 0.000000 
#    y 0.000000 1.734100 0.000000 
#    z 0.000000 0.000000 1.744690 
# 
# From -- ./inp_files/8265.got.cif
#   From: 2010.05.17/outbox.cif.g08.bks.cpg/sg23_5_cif.got.tgz:8265.got - 2010.06.04 12:02:01.
