data_PCOD9330206
_publ_section_title
;
Structure prediction by ZEFSAII (Michael W. Deem and Ramdas Pophale) SiO2 
 PCOD9330206
Probable space group: I 2 2 2
;
_chemical_formula_sum "Si O2"
_cell_formula_units_Z 30
_cell_length_a 5.102548
_cell_length_b 13.122567
_cell_length_c 21.176720
_cell_angle_alpha 90.000000
_cell_angle_beta 90.000000
_cell_angle_gamma 90.000000
_cell_volume 1417.961999
_symmetry_space_group_name_H-M "I 2 2 2"
_symmetry_group_IT_number 23
_symmetry_cell_setting 'orthorhombic'
loop_
_space_group_symop_operation_xyz
x,y,z
-x,-y,z
x,-y,-z
-x,y,-z
1/2+x,1/2+y,1/2+z
1/2-x,1/2-y,1/2+z
1/2+x,1/2-y,1/2-z
1/2-x,1/2+y,1/2-z
loop_
_atom_site_type_symbol
_atom_site_label
_atom_site_fract_x
_atom_site_fract_y
_atom_site_fract_z
Si Si1 0.000000 0.000000 0.000000
Si Si2 0.616822 0.873647 0.713094
Si Si3 0.606860 0.273669 0.164194
Si Si4 0.500000 0.500000 0.709848
Si Si5 0.175508 0.401707 0.608545
O O1 0.823513 0.927899 0.044189
O O2 0.601157 0.797364 0.773020
O O3 0.361622 0.844405 0.671574
O O4 0.855507 0.844409 0.668016
O O5 0.751165 0.972641 0.746824
O O6 0.523672 0.192717 0.110278
O O7 0.398553 0.407850 0.664240
O O8 0.000000 0.500000 0.622392
#
# Coordination Sequence:
#
# PCOD9330206 Si02
#       5
#     2   8   8   4   8
#     4  10  26  36  56  86 116 176 240 274 298 354
#     4  10  20  32  51  81 110 156 203 257 300 380
#     4  10  20  33  51  76 115 153 210 251 311 360
#     4  11  20  33  58  84 118 162 227 253 320 380
#     4  11  21  37  56  81 118 172 224 270 307 370
#
# _framework density 21.157126000000002
#
# number of rings (size 3 to 8) (size 9 to 14) (size 15 to 20)
#    0.000    1.600    2.667    5.200    3.733    0.000 
#    0.000    0.000    0.000    0.000    0.000    0.000 
#    0.000    0.000    0.000   16.800   36.800   16.000 
#
# Total GULP energy -83504.069909 kJ/mol
# GULP energy per Si atom -5566.937994 kJ/mol
# Density = 2.110897 g / cm^3
# Si number density = 21.157126 Si / 1000 Ang^3
#
#
#
# Elastic Constant Matrix: (Units=GPa)
#
#
# Indices 1 2 3 4 5 6 
#
# 1 203.9269 40.2738 60.5696 0.0000 0.0000 0.0000
# 2 40.2738 53.8583 47.7042 0.0000 0.0000 0.0000
# 3 60.5696 47.7042 74.0691 0.0000 0.0000 0.0000
# 4 0.0000 0.0000 0.0000 11.7649 0.0000 0.0000
# 5 0.0000 0.0000 0.0000 0.0000 23.7465 0.0000
# 6 0.0000 0.0000 0.0000 0.0000 0.0000 35.7851
#
#
#
# Elastic Compliance Matrix: (Units=1/GPa)
#
#
# Indices 1 2 3 4 5 6 
#
# 1 0.006480 -0.000354 -0.005071 0.000000 0.000000 0.000000
# 2 -0.000354 0.043245 -0.027562 0.000000 0.000000 0.000000
# 3 -0.005071 -0.027562 0.035399 0.000000 0.000000 0.000000
# 4 0.000000 0.000000 0.000000 0.084998 0.000000 0.000000
# 5 0.000000 0.000000 0.000000 0.000000 0.042111 0.000000
# 6 0.000000 0.000000 0.000000 0.000000 0.000000 0.027945
#
#
# Mechanical properties :
#
#
# Convention : Reuss Voigt Hill
#
# Bulk Modulus (GPa) = 52.22104 69.88328 61.05216
# Shear Modulus (GPa) = 15.99818 26.47976 21.23897
#
# Velocity S-wave (km/s) = 2.75282 3.54160 3.17183
# Velocity P-wave (km/s) = 5.90255 7.05877 6.50639
#
# Compressibility (1/GPa) = 0.01914937
#
# Stress axis : x y z
#
# Youngs Moduli (GPa) = 154.32731 23.12411 28.24935
#
# Poissons Ratio (x) = 0.00819 0.14325
# Poissons Ratio (y) = 0.05464 0.77862
# Poissons Ratio (z) = 0.78256 0.63736
#
# Static dielectric constant tensor:
#      x y z
#    x 1.938270 0.000000 0.000000 
#    y 0.000000 2.087200 0.000000 
#    z 0.000000 0.000000 1.760600 
# 
# From -- ./inp_files/2958.got.cif
#   From: 2010.05.17/outbox.cif.g08.bks.cpg/sg23_2_cif.got.tgz:2958.got - 2010.06.04 12:02:01.
