data_PCOD9330907
_publ_section_title
;
Structure prediction by ZEFSAII (Michael W. Deem and Ramdas Pophale) SiO2 
 PCOD9330907
Probable space group: I 2 2 2
;
_chemical_formula_sum "Si O2"
_cell_formula_units_Z 32
_cell_length_a 16.425541
_cell_length_b 8.932487
_cell_length_c 9.288318
_cell_angle_alpha 90.000000
_cell_angle_beta 90.000000
_cell_angle_gamma 90.000000
_cell_volume 1362.790669
_symmetry_space_group_name_H-M "I 2 2 2"
_symmetry_group_IT_number 23
_symmetry_cell_setting 'orthorhombic'
loop_
_space_group_symop_operation_xyz
x,y,z
-x,-y,z
x,-y,-z
-x,y,-z
1/2+x,1/2+y,1/2+z
1/2-x,1/2-y,1/2+z
1/2+x,1/2-y,1/2-z
1/2-x,1/2+y,1/2-z
loop_
_atom_site_type_symbol
_atom_site_label
_atom_site_fract_x
_atom_site_fract_y
_atom_site_fract_z
Si Si1 0.789806 0.333178 0.950374
Si Si2 0.386588 0.781758 0.910650
Si Si3 0.588153 0.882199 0.789592
Si Si4 0.552358 0.725849 0.373216
O O1 0.709352 0.235611 0.938518
O O2 0.829793 0.342776 0.793276
O O3 0.766868 0.500000 0.000000
O O4 0.862440 0.278693 0.055934
O O5 0.417973 0.669823 0.784972
O O6 0.403748 0.948755 0.847779
O O7 0.423664 0.779786 0.070160
O O8 0.517178 0.845781 0.675455
O O9 0.500000 0.648013 0.500000
#
# Coordination Sequence:
#
# PCOD9330907 Si02
#       4
#     8   8   8   8
#     4  11  22  37  59  92 129 167 203 263 330 395
#     4  11  21  36  58  96 128 158 208 274 321 377
#     4  10  22  35  61  92 122 162 217 271 316 375
#     4  10  21  37  62  92 124 158 212 268 320 374
#
# _framework density 23.481228999999999
#
# number of rings (size 3 to 8) (size 9 to 14) (size 15 to 20)
#    0.000    1.500    2.500    3.000    3.500    2.000 
#    0.000    0.000    0.000    3.000   19.500    0.000 
#    0.000    0.000    0.000    0.000    0.000    0.000 
#
# Total GULP energy -89117.037375 kJ/mol
# GULP energy per Si atom -5569.814836 kJ/mol
# Density = 2.342778 g / cm^3
# Si number density = 23.481229 Si / 1000 Ang^3
#
#
#
# Elastic Constant Matrix: (Units=GPa)
#
#
# Indices 1 2 3 4 5 6 
#
# 1 132.5622 37.9658 42.2780 0.0000 0.0000 0.0000
# 2 37.9658 49.9778 30.5088 0.0000 0.0000 0.0000
# 3 42.2780 30.5088 187.1596 0.0000 0.0000 0.0000
# 4 0.0000 0.0000 0.0000 -9.3420 0.0000 0.0000
# 5 0.0000 0.0000 0.0000 0.0000 40.5069 0.0000
# 6 0.0000 0.0000 0.0000 0.0000 0.0000 7.1049
#
#
#
# Elastic Compliance Matrix: (Units=1/GPa)
#
#
# Indices 1 2 3 4 5 6 
#
# 1 0.009847 -0.006799 -0.001116 0.000000 0.000000 0.000000
# 2 -0.006799 0.026914 -0.002851 0.000000 0.000000 0.000000
# 3 -0.001116 -0.002851 0.006060 0.000000 0.000000 0.000000
# 4 0.000000 0.000000 0.000000 -0.107043 0.000000 0.000000
# 5 0.000000 0.000000 0.000000 0.000000 0.024687 0.000000
# 6 0.000000 0.000000 0.000000 0.000000 0.000000 0.140748
#
#
# Mechanical properties :
#
#
# Convention : Reuss Voigt Hill
#
# Bulk Modulus (GPa) = 46.97412 65.68941 56.33176
# Shear Modulus (GPa) = 38.50841 24.91709 31.71275
#
# Velocity S-wave (km/s) = 4.05404 3.26106 3.67898
# Velocity P-wave (km/s) = 6.47781 6.49734 6.48758
#
# Compressibility (1/GPa) = 0.02128832
#
# Stress axis : x y z
#
# Youngs Moduli (GPa) = 101.55634 37.15495 165.01762
#
# Poissons Ratio (x) = 0.25261 0.18417
# Poissons Ratio (y) = 0.69046 0.47055
# Poissons Ratio (z) = 0.11334 0.10595
#
# Static dielectric constant tensor:
#      x y z
#    x 1.886120 0.000000 0.000000 
#    y 0.000000 1.918170 0.000000 
#    z 0.000000 0.000000 1.983930 
# 
# From -- ./inp_files/9229.got.cif
#   From: 2010.05.17/outbox.cif.g08.bks.cpg/sg23_5_cif.got.tgz:9229.got - 2010.06.04 12:02:01.
