data_PCOD9330917
_publ_section_title
;
Structure prediction by ZEFSAII (Michael W. Deem and Ramdas Pophale) SiO2 
 PCOD9330917
Probable space group: I 2 2 2
;
_chemical_formula_sum "Si O2"
_cell_formula_units_Z 28
_cell_length_a 7.340972
_cell_length_b 5.638115
_cell_length_c 29.214336
_cell_angle_alpha 90.000000
_cell_angle_beta 90.000000
_cell_angle_gamma 90.000000
_cell_volume 1209.159291
_symmetry_space_group_name_H-M "I 2 2 2"
_symmetry_group_IT_number 23
_symmetry_cell_setting 'orthorhombic'
loop_
_space_group_symop_operation_xyz
x,y,z
-x,-y,z
x,-y,-z
-x,y,-z
1/2+x,1/2+y,1/2+z
1/2-x,1/2-y,1/2+z
1/2+x,1/2-y,1/2-z
1/2-x,1/2+y,1/2-z
loop_
_atom_site_type_symbol
_atom_site_label
_atom_site_fract_x
_atom_site_fract_y
_atom_site_fract_z
Si Si1 0.195238 0.899992 0.301370
Si Si2 0.500000 0.000000 0.226912
Si Si3 0.221975 0.006612 0.053565
Si Si4 0.717435 0.990482 0.403158
O O1 0.245569 0.015851 0.348895
O O2 0.136752 0.630773 0.307480
O O3 0.350900 0.906035 0.263626
O O4 0.000000 0.000000 0.283934
O O5 0.285190 0.757102 0.075548
O O6 0.283320 0.257424 0.075859
O O7 0.000000 0.000000 0.057355
O O8 0.268023 0.000000 0.000000
O O9 0.500000 0.000000 0.410043
#
# Coordination Sequence:
#
# PCOD9330917 Si02
#       4
#     8   4   8   8
#     4  12  26  44  68  98 138 181 235 290 356 414
#     4  12  26  46  68  98 134 192 236 294 352 430
#     4   9  18  35  62  97 134 176 223 277 346 420
#     4  10  21  37  64  97 135 176 226 286 344 417
#
# _framework density 23.156583000000001
#
# number of rings (size 3 to 8) (size 9 to 14) (size 15 to 20)
#    0.000    1.429    4.286    0.857    4.000    3.429 
#    5.143    0.000    0.000    5.143    0.000    0.000 
#    0.000    0.000    0.000    0.000    0.000    0.000 
#
# Total GULP energy -77993.660515 kJ/mol
# GULP energy per Si atom -5570.975751 kJ/mol
# Density = 2.310388 g / cm^3
# Si number density = 23.156583 Si / 1000 Ang^3
#
#
#
# Elastic Constant Matrix: (Units=GPa)
#
#
# Indices 1 2 3 4 5 6 
#
# 1 82.7928 29.3259 -10.9325 0.0000 0.0000 0.0000
# 2 29.3259 163.3678 80.6699 0.0000 0.0000 0.0000
# 3 -10.9325 80.6699 83.0445 0.0000 0.0000 0.0000
# 4 0.0000 0.0000 0.0000 40.5374 0.0000 0.0000
# 5 0.0000 0.0000 0.0000 0.0000 134.6615 0.0000
# 6 0.0000 0.0000 0.0000 0.0000 0.0000 -14.5966
#
#
#
# Elastic Compliance Matrix: (Units=1/GPa)
#
#
# Indices 1 2 3 4 5 6 
#
# 1 0.015979 -0.007509 0.009398 0.000000 0.000000 0.000000
# 2 -0.007509 0.015293 -0.015844 0.000000 0.000000 0.000000
# 3 0.009398 -0.015844 0.028670 0.000000 0.000000 0.000000
# 4 0.000000 0.000000 0.000000 0.024669 0.000000 0.000000
# 5 0.000000 0.000000 0.000000 0.000000 0.007426 0.000000
# 6 0.000000 0.000000 0.000000 0.000000 0.000000 -0.068509
#
#
# Mechanical properties :
#
#
# Convention : Reuss Voigt Hill
#
# Bulk Modulus (GPa) = 31.21933 58.59242 44.90588
# Shear Modulus (GPa) = 80.49639 47.46324 63.97982
#
# Velocity S-wave (km/s) = 5.90231 4.53223 5.26205
# Velocity P-wave (km/s) = 7.74343 7.26263 7.50688
#
# Compressibility (1/GPa) = 0.03203143
#
# Stress axis : x y z
#
# Youngs Moduli (GPa) = 62.58201 65.39052 34.87979
#
# Poissons Ratio (x) = 0.49101 -0.32779
# Poissons Ratio (y) = 0.46993 0.55264
# Poissons Ratio (z) = -0.58814 1.03605
#
# Static dielectric constant tensor:
#      x y z
#    x 1.872130 0.000000 0.000000 
#    y 0.000000 1.941110 0.000000 
#    z 0.000000 0.000000 1.785860 
# 
# From -- ./inp_files/613.got.cif
#   From: 2010.05.17/outbox.cif.g08.bks.cpg/sg23_1_cif.got.tgz:613.got - 2010.06.04 12:02:01.
