data_PCOD9330795
_publ_section_title
;
Structure prediction by ZEFSAII (Michael W. Deem and Ramdas Pophale) SiO2 
 PCOD9330795
Probable space group: I 2 2 2
;
_chemical_formula_sum "Si O2"
_cell_formula_units_Z 56
_cell_length_a 5.209571
_cell_length_b 16.309581
_cell_length_c 32.237434
_cell_angle_alpha 90.000000
_cell_angle_beta 90.000000
_cell_angle_gamma 90.000000
_cell_volume 2739.083245
_symmetry_space_group_name_H-M "I 2 2 2"
_symmetry_group_IT_number 23
_symmetry_cell_setting 'orthorhombic'
loop_
_space_group_symop_operation_xyz
x,y,z
-x,-y,z
x,-y,-z
-x,y,-z
1/2+x,1/2+y,1/2+z
1/2-x,1/2-y,1/2+z
1/2+x,1/2-y,1/2-z
1/2-x,1/2+y,1/2-z
loop_
_atom_site_type_symbol
_atom_site_label
_atom_site_fract_x
_atom_site_fract_y
_atom_site_fract_z
Si Si1 0.942467 0.700884 0.245147
Si Si2 0.398236 0.216657 0.127855
Si Si3 0.104380 0.314012 0.844766
Si Si4 0.583901 0.906773 0.427843
Si Si5 0.074294 0.811607 0.454694
Si Si6 0.756337 0.528313 0.620642
Si Si7 0.248745 0.455449 0.287294
O O1 0.708272 0.764250 0.235544
O O2 0.794477 0.637428 0.274805
O O3 0.045635 0.661671 0.202379
O O4 0.645266 0.255174 0.151472
O O5 0.453912 0.241460 0.080156
O O6 0.312910 0.122118 0.132259
O O7 0.145755 0.264548 0.141406
O O8 0.118804 0.385737 0.878840
O O9 0.357173 0.850603 0.447781
O O10 0.858836 0.881572 0.446409
O O11 0.500000 0.000000 0.433990
O O12 0.000000 0.780173 0.500000
O O13 0.500000 0.500000 0.598735
O O14 0.748359 0.473294 0.663255
O O15 0.000000 0.500000 0.595216
O O16 0.500000 0.500000 0.270501
O O17 0.000000 0.500000 0.270224
#
# Coordination Sequence:
#
# PCOD9330795 Si02
#       7
#     8   8   8   8   8   8   8
#     4  12  26  39  60  88 121 161 206 262 324 368
#     4  10  21  39  61  88 119 161 199 241 308 362
#     4  10  23  38  59  82 118 163 205 248 295 379
#     4  10  21  38  59  88 123 166 208 247 302 361
#     4  10  21  37  60  94 126 159 203 250 302 365
#     4  10  21  34  60  86 114 146 194 250 294 355
#     4  10  23  39  56  83 115 151 195 259 310 356
#
# _framework density 20.444797999999999
#
# number of rings (size 3 to 8) (size 9 to 14) (size 15 to 20)
#    0.000    1.714    0.000    3.429   12.000    2.286 
#    0.000    2.857    0.000    0.429    0.000    1.000 
#    0.000    0.000    0.000    0.000    0.000    0.000 
#
# Total GULP energy -156074.621131 kJ/mol
# GULP energy per Si atom -5574.093612 kJ/mol
# Density = 2.039826 g / cm^3
# Si number density = 20.444798 Si / 1000 Ang^3
#
#
#
# Elastic Constant Matrix: (Units=GPa)
#
#
# Indices 1 2 3 4 5 6 
#
# 1 161.1162 9.9731 -5.3908 0.0000 0.0000 0.0000
# 2 9.9731 53.4845 15.9403 -0.0001 0.0000 0.0000
# 3 -5.3908 15.9403 40.1982 -0.0001 0.0000 0.0000
# 4 0.0000 -0.0001 -0.0001 128.6566 0.0000 0.0000
# 5 0.0000 0.0000 0.0000 0.0000 1.1560 0.0000
# 6 0.0000 0.0000 0.0000 0.0000 0.0000 27.6502
#
#
#
# Elastic Compliance Matrix: (Units=1/GPa)
#
#
# Indices 1 2 3 4 5 6 
#
# 1 0.006358 -0.001633 0.001500 0.000000 0.000000 0.000000
# 2 -0.001633 0.021622 -0.008793 0.000000 0.000000 0.000000
# 3 0.001500 -0.008793 0.028565 0.000000 0.000000 0.000000
# 4 0.000000 0.000000 0.000000 0.007773 0.000000 0.000000
# 5 0.000000 0.000000 0.000000 0.000000 0.865052 0.000000
# 6 0.000000 0.000000 0.000000 0.000000 0.000000 0.036166
#
#
# Mechanical properties :
#
#
# Convention : Reuss Voigt Hill
#
# Bulk Modulus (GPa) = 25.84410 32.87156 29.35783
# Shear Modulus (GPa) = 5.01865 47.11098 26.06481
#
# Velocity S-wave (km/s) = 1.56846 4.80552 3.57443
# Velocity P-wave (km/s) = 3.99355 6.84864 5.60590
#
# Compressibility (1/GPa) = 0.03869355
#
# Stress axis : x y z
#
# Youngs Moduli (GPa) = 157.28340 46.24905 35.00826
#
# Poissons Ratio (x) = 0.07551 -0.05251
# Poissons Ratio (y) = 0.25678 0.30783
# Poissons Ratio (z) = -0.23593 0.40667
#
# Static dielectric constant tensor:
#      x y z
#    x 1.532840 0.000000 0.000000 
#    y 0.000000 1.731590 0.000000 
#    z 0.000000 0.000000 1.776330 
# 
# From -- ./inp_files/19333.got.cif
#   From: 2010.05.17/outbox.cif.g08.bks.cpg/sg23_10_cif.got.tgz:19333.got - 2010.06.04 12:02:01.
