data_PCOD9330099
_publ_section_title
;
Structure prediction by ZEFSAII (Michael W. Deem and Ramdas Pophale) SiO2 
 PCOD9330099
Probable space group: I 2 2 2
;
_chemical_formula_sum "Si O2"
_cell_formula_units_Z 40
_cell_length_a 6.191752
_cell_length_b 12.013899
_cell_length_c 24.270101
_cell_angle_alpha 90.000000
_cell_angle_beta 90.000000
_cell_angle_gamma 90.000000
_cell_volume 1805.382021
_symmetry_space_group_name_H-M "I 2 2 2"
_symmetry_group_IT_number 23
_symmetry_cell_setting 'orthorhombic'
loop_
_space_group_symop_operation_xyz
x,y,z
-x,-y,z
x,-y,-z
-x,y,-z
1/2+x,1/2+y,1/2+z
1/2-x,1/2-y,1/2+z
1/2+x,1/2-y,1/2-z
1/2-x,1/2+y,1/2-z
loop_
_atom_site_type_symbol
_atom_site_label
_atom_site_fract_x
_atom_site_fract_y
_atom_site_fract_z
Si Si1 0.000000 0.187784 0.000000
Si Si2 0.541523 0.116670 0.411236
Si Si3 0.301216 0.181056 0.305478
Si Si4 0.874703 0.886236 0.194702
Si Si5 0.500000 0.165486 0.000000
Si Si6 0.918761 0.249652 0.380233
O O1 0.004044 0.274656 0.948440
O O2 0.761760 0.126817 0.997637
O O3 0.396227 0.114991 0.356969
O O4 0.782121 0.137941 0.389625
O O5 0.500000 0.000000 0.440146
O O6 0.263668 0.110171 0.250771
O O7 0.460990 0.284144 0.294971
O O8 0.084533 0.231428 0.331235
O O9 0.734433 0.848598 0.142252
O O10 0.000000 0.000000 0.185005
O O11 0.510236 0.222961 0.059718
#
# Coordination Sequence:
#
# PCOD9330099 Si02
#       6
#     4   8   8   8   4   8
#     4  10  19  38  58  98 135 182 227 274 348 414
#     4  10  22  35  58  92 133 174 220 275 334 420
#     4  11  22  41  61  91 131 172 221 273 348 423
#     4  11  25  41  67  96 135 177 228 291 353 423
#     4  10  20  40  71  91 134 186 222 296 348 412
#     4  10  22  42  62  95 130 176 228 279 352 421
#
# _framework density 22.155975999999999
#
# number of rings (size 3 to 8) (size 9 to 14) (size 15 to 20)
#    0.000    1.600    4.000    0.300    2.800    0.800 
#    0.000    1.000    0.000    3.600    0.000    0.000 
#    0.000    0.000    0.000    0.000    0.000    0.000 
#
# Total GULP energy -111339.396488 kJ/mol
# GULP energy per Si atom -5566.969824 kJ/mol
# Density = 2.210555 g / cm^3
# Si number density = 22.155976 Si / 1000 Ang^3
#
#
#
# Elastic Constant Matrix: (Units=GPa)
#
#
# Indices 1 2 3 4 5 6 
#
# 1 108.3426 16.0565 20.8402 0.0000 0.0000 0.0000
# 2 16.0565 81.6929 29.3553 0.0000 0.0000 0.0000
# 3 20.8402 29.3553 149.2805 0.0000 0.0000 0.0000
# 4 0.0000 0.0000 0.0000 -10.5163 0.0000 0.0000
# 5 0.0000 0.0000 0.0000 0.0000 47.5593 0.0000
# 6 0.0000 0.0000 0.0000 0.0000 0.0000 -14.9000
#
#
#
# Elastic Compliance Matrix: (Units=1/GPa)
#
#
# Indices 1 2 3 4 5 6 
#
# 1 0.009657 -0.001521 -0.001049 0.000000 0.000000 0.000000
# 2 -0.001521 0.013411 -0.002425 0.000000 0.000000 0.000000
# 3 -0.001049 -0.002425 0.007322 0.000000 0.000000 0.000000
# 4 0.000000 0.000000 0.000000 -0.095091 0.000000 0.000000
# 5 0.000000 0.000000 0.000000 0.000000 0.021026 0.000000
# 6 0.000000 0.000000 0.000000 0.000000 0.000000 -0.067114
#
#
# Mechanical properties :
#
#
# Convention : Reuss Voigt Hill
#
# Bulk Modulus (GPa) = 49.01864 52.42443 50.72154
# Shear Modulus (GPa) = -53.19290 22.63288 -15.28001
#
# Velocity S-wave (km/s) = -4.90515 3.19960 -2.62898
# Velocity P-wave (km/s) = 3.14774 6.11251 3.70503
#
# Compressibility (1/GPa) = 0.02040040
#
# Stress axis : x y z
#
# Youngs Moduli (GPa) = 103.54965 74.56401 136.57285
#
# Poissons Ratio (x) = 0.11342 0.14327
# Poissons Ratio (y) = 0.15751 0.33118
# Poissons Ratio (z) = 0.10863 0.18081
#
# Static dielectric constant tensor:
#      x y z
#    x 1.960810 0.000000 0.000000 
#    y 0.000000 1.797320 0.000000 
#    z 0.000000 0.000000 1.804720 
# 
# From -- ./inp_files/28870.got.cif
#   From: 2010.05.17/outbox.cif.g08.bks.cpg/sg23_15_cif.got.tgz:28870.got - 2010.06.04 12:02:01.
