data_PCOD9330660
_publ_section_title
;
Structure prediction by ZEFSAII (Michael W. Deem and Ramdas Pophale) SiO2 
 PCOD9330660
Probable space group: I 2 2 2
;
_chemical_formula_sum "Si O2"
_cell_formula_units_Z 40
_cell_length_a 14.878428
_cell_length_b 8.638618
_cell_length_c 12.142819
_cell_angle_alpha 90.000000
_cell_angle_beta 90.000000
_cell_angle_gamma 90.000000
_cell_volume 1560.705062
_symmetry_space_group_name_H-M "I 2 2 2"
_symmetry_group_IT_number 23
_symmetry_cell_setting 'orthorhombic'
loop_
_space_group_symop_operation_xyz
x,y,z
-x,-y,z
x,-y,-z
-x,y,-z
1/2+x,1/2+y,1/2+z
1/2-x,1/2-y,1/2+z
1/2+x,1/2-y,1/2-z
1/2-x,1/2+y,1/2-z
loop_
_atom_site_type_symbol
_atom_site_label
_atom_site_fract_x
_atom_site_fract_y
_atom_site_fract_z
Si Si1 0.603642 0.334657 0.466920
Si Si2 0.488790 0.177975 0.841708
Si Si3 0.139361 0.357757 0.832872
Si Si4 0.217416 0.702181 0.814535
Si Si5 0.362646 0.316842 0.006800
O O1 0.644408 0.500000 0.500000
O O2 0.500000 0.346672 0.500000
O O3 0.630657 0.186566 0.540566
O O4 0.629740 0.305974 0.340194
O O5 0.542198 0.167893 0.724620
O O6 0.555599 0.287116 0.909846
O O7 0.500000 0.000000 0.879125
O O8 0.392313 0.235986 0.891453
O O9 0.179201 0.528152 0.810654
O O10 0.213522 0.242971 0.781091
O O11 0.277910 0.742698 0.923386
O O12 0.349108 0.500000 0.000000
#
# Coordination Sequence:
#
# PCOD9330660 Si02
#       5
#     8   8   8   8   8
#     4  11  26  49  70 100 142 190 239 298 361 434
#     4  10  22  37  62 101 138 178 228 292 356 428
#     4  11  25  45  70 109 135 192 241 296 369 435
#     4  11  25  45  74 102 144 186 245 298 360 447
#     4  10  20  40  63  99 138 183 225 293 360 420
#
# _framework density 25.629442999999998
#
# number of rings (size 3 to 8) (size 9 to 14) (size 15 to 20)
#    0.000    1.400    0.000    5.400    2.800    7.200 
#   14.400    0.000    0.000    0.000    0.000    0.000 
#    0.000    0.000    0.000    0.000    0.000    0.000 
#
# Total GULP energy -111567.046883 kJ/mol
# GULP energy per Si atom -5578.352344 kJ/mol
# Density = 2.557111 g / cm^3
# Si number density = 25.629443 Si / 1000 Ang^3
#
#
#
# Elastic Constant Matrix: (Units=GPa)
#
#
# Indices 1 2 3 4 5 6 
#
# 1 115.3358 -9.4099 1.5950 0.0000 0.0000 0.0000
# 2 -9.4099 94.6295 -23.8575 0.0000 0.0000 0.0000
# 3 1.5950 -23.8575 64.8158 0.0000 0.0000 0.0000
# 4 0.0000 0.0000 0.0000 27.3721 0.0000 0.0000
# 5 0.0000 0.0000 0.0000 0.0000 25.9357 0.0000
# 6 0.0000 0.0000 0.0000 0.0000 0.0000 23.0441
#
#
#
# Elastic Compliance Matrix: (Units=1/GPa)
#
#
# Indices 1 2 3 4 5 6 
#
# 1 0.008742 0.000898 0.000116 0.000000 0.000000 0.000000
# 2 0.000898 0.011741 0.004299 0.000000 0.000000 0.000000
# 3 0.000116 0.004299 0.017008 0.000000 0.000000 0.000000
# 4 0.000000 0.000000 0.000000 0.036534 0.000000 0.000000
# 5 0.000000 0.000000 0.000000 0.000000 0.038557 0.000000
# 6 0.000000 0.000000 0.000000 0.000000 0.000000 0.043395
#
#
# Mechanical properties :
#
#
# Convention : Reuss Voigt Hill
#
# Bulk Modulus (GPa) = 20.78230 23.49293 22.13762
# Shear Modulus (GPa) = 30.98111 35.70061 33.34086
#
# Velocity S-wave (km/s) = 3.48057 3.73628 3.61069
# Velocity P-wave (km/s) = 4.92735 5.27251 5.10285
#
# Compressibility (1/GPa) = 0.04811787
#
# Stress axis : x y z
#
# Youngs Moduli (GPa) = 114.38980 85.17289 58.79566
#
# Poissons Ratio (x) = -0.07652 -0.00680
# Poissons Ratio (y) = -0.10277 -0.25279
# Poissons Ratio (z) = -0.01322 -0.36620
#
# Static dielectric constant tensor:
#      x y z
#    x 2.205600 0.000000 0.000000 
#    y 0.000000 2.180680 0.000000 
#    z 0.000000 0.000000 2.060290 
# 
# From -- ./inp_files/17256.got.cif
#   From: 2010.05.17/outbox.cif.g08.bks.cpg/sg23_9_cif.got.tgz:17256.got - 2010.06.04 12:02:01.
