data_PCOD9330031
_publ_section_title
;
Structure prediction by ZEFSAII (Michael W. Deem and Ramdas Pophale) SiO2 
 PCOD9330031
Probable space group: I 2 2 2
;
_chemical_formula_sum "Si O2"
_cell_formula_units_Z 64
_cell_length_a 5.097406
_cell_length_b 28.027477
_cell_length_c 20.900790
_cell_angle_alpha 90.000000
_cell_angle_beta 90.000000
_cell_angle_gamma 90.000000
_cell_volume 2986.042140
_symmetry_space_group_name_H-M "I 2 2 2"
_symmetry_group_IT_number 23
_symmetry_cell_setting 'orthorhombic'
loop_
_space_group_symop_operation_xyz
x,y,z
-x,-y,z
x,-y,-z
-x,y,-z
1/2+x,1/2+y,1/2+z
1/2-x,1/2-y,1/2+z
1/2+x,1/2-y,1/2-z
1/2-x,1/2+y,1/2-z
loop_
_atom_site_type_symbol
_atom_site_label
_atom_site_fract_x
_atom_site_fract_y
_atom_site_fract_z
Si Si1 0.764897 0.155571 0.959181
Si Si2 0.750530 0.527299 0.175850
Si Si3 0.085813 0.826076 0.566614
Si Si4 0.629144 0.230962 0.281961
Si Si5 0.584335 0.367382 0.806351
Si Si6 0.177679 0.898418 0.826852
Si Si7 0.179482 0.460248 0.322708
Si Si8 0.080348 0.739417 0.921099
O O1 0.776101 0.135165 0.887703
O O2 0.829952 0.211495 0.952262
O O3 0.500000 0.149243 0.000000
O O4 0.000000 0.132951 0.000000
O O5 0.500000 0.500000 0.149528
O O6 0.729779 0.584240 0.171234
O O7 0.754851 0.519180 0.252749
O O8 0.000000 0.500000 0.149017
O O9 0.337325 0.792524 0.554813
O O10 0.000000 0.851716 0.500000
O O11 0.104941 0.854512 0.633425
O O12 0.839510 0.792247 0.580303
O O13 0.395891 0.239908 0.232177
O O14 0.719209 0.176261 0.290791
O O15 0.507006 0.250088 0.347768
O O16 0.431944 0.377239 0.739888
O O17 0.464638 0.919167 0.812704
O O18 0.953143 0.937781 0.846486
O O19 0.000000 0.500000 0.358620
#
# Coordination Sequence:
#
# PCOD9330031 Si02
#       8
#     8   8   8   8   8   8   8   8
#     4  12  25  41  60  83 119 161 203 252 305 363
#     4  10  20  35  58  91 124 155 200 251 303 365
#     4  11  23  40  62  88 120 161 211 252 298 367
#     4  11  23  37  57  90 130 161 197 249 311 370
#     4  10  23  39  63  94 127 164 204 262 321 370
#     4  11  23  37  60  90 119 150 197 250 308 369
#     4  10  19  36  60  88 117 149 192 246 303 367
#     4  11  23  39  60  84 116 166 213 249 293 362
#
# _framework density 21.433052
#
# number of rings (size 3 to 8) (size 9 to 14) (size 15 to 20)
#    0.000    1.250    0.000    8.625    0.000   12.000 
#    0.000    0.000    0.000    6.000    0.000    3.500 
#    0.000    0.000    0.000    0.000    0.000    0.000 
#
# Total GULP energy -178510.955111 kJ/mol
# GULP energy per Si atom -5578.467347 kJ/mol
# Density = 2.138427 g / cm^3
# Si number density = 21.433052 Si / 1000 Ang^3
#
#
#
# Elastic Constant Matrix: (Units=GPa)
#
#
# Indices 1 2 3 4 5 6 
#
# 1 146.1864 34.5212 29.6218 0.0000 0.0000 0.0000
# 2 34.5212 69.8427 23.4379 0.0000 0.0000 0.0000
# 3 29.6218 23.4379 106.4427 0.0000 0.0000 0.0000
# 4 0.0000 0.0000 0.0000 9.1596 0.0000 0.0000
# 5 0.0000 0.0000 0.0000 0.0000 23.9297 0.0000
# 6 0.0000 0.0000 0.0000 0.0000 0.0000 20.0626
#
#
#
# Elastic Compliance Matrix: (Units=1/GPa)
#
#
# Indices 1 2 3 4 5 6 
#
# 1 0.007948 -0.003440 -0.001454 0.000000 0.000000 0.000000
# 2 -0.003440 0.016949 -0.002775 0.000000 0.000000 0.000000
# 3 -0.001454 -0.002775 0.010410 0.000000 0.000000 0.000000
# 4 0.000000 0.000000 0.000000 0.109175 0.000000 0.000000
# 5 0.000000 0.000000 0.000000 0.000000 0.041789 0.000000
# 6 0.000000 0.000000 0.000000 0.000000 0.000000 0.049844
#
#
# Mechanical properties :
#
#
# Convention : Reuss Voigt Hill
#
# Bulk Modulus (GPa) = 50.07759 55.29262 52.68511
# Shear Modulus (GPa) = 19.37159 26.28979 22.83069
#
# Velocity S-wave (km/s) = 3.00962 3.50608 3.26730
# Velocity P-wave (km/s) = 5.95755 6.49954 6.23444
#
# Compressibility (1/GPa) = 0.01996901
#
# Stress axis : x y z
#
# Youngs Moduli (GPa) = 125.82325 58.99889 96.05782
#
# Poissons Ratio (x) = 0.20297 0.13969
# Poissons Ratio (y) = 0.43287 0.26654
# Poissons Ratio (z) = 0.18297 0.16371
#
# Static dielectric constant tensor:
#      x y z
#    x 1.753490 0.000000 0.000000 
#    y 0.000000 1.834230 0.000000 
#    z 0.000000 0.000000 2.031490 
# 
# From -- ./inp_files/25846.got.cif
#   From: 2010.05.17/outbox.cif.g08.bks.cpg/sg23_13_cif.got.tgz:25846.got - 2010.06.04 12:02:01.
