data_PCOD9330909
_publ_section_title
;
Structure prediction by ZEFSAII (Michael W. Deem and Ramdas Pophale) SiO2 
 PCOD9330909
Probable space group: I 2 2 2
;
_chemical_formula_sum "Si O2"
_cell_formula_units_Z 64
_cell_length_a 24.984581
_cell_length_b 9.579105
_cell_length_c 14.153943
_cell_angle_alpha 90.000000
_cell_angle_beta 90.000000
_cell_angle_gamma 90.000000
_cell_volume 3387.462114
_symmetry_space_group_name_H-M "I 2 2 2"
_symmetry_group_IT_number 23
_symmetry_cell_setting 'orthorhombic'
loop_
_space_group_symop_operation_xyz
x,y,z
-x,-y,z
x,-y,-z
-x,y,-z
1/2+x,1/2+y,1/2+z
1/2-x,1/2-y,1/2+z
1/2+x,1/2-y,1/2-z
1/2-x,1/2+y,1/2-z
loop_
_atom_site_type_symbol
_atom_site_label
_atom_site_fract_x
_atom_site_fract_y
_atom_site_fract_z
Si Si1 0.086838 0.776297 0.244058
Si Si2 0.750681 0.920098 0.599407
Si Si3 0.245303 0.084862 0.097200
Si Si4 0.334011 0.960857 0.746219
Si Si5 0.591099 0.213282 0.241934
Si Si6 0.340000 0.525339 0.245067
Si Si7 0.005337 0.332914 0.111031
Si Si8 0.994706 0.667522 0.610218
O O1 0.140481 0.688295 0.223838
O O2 0.042859 0.742115 0.165412
O O3 0.059195 0.725322 0.341496
O O4 0.106590 0.933817 0.246334
O O5 0.745270 0.753226 0.585279
O O6 0.753401 0.000000 0.500000
O O7 0.700368 0.976492 0.660273
O O8 0.802240 0.961102 0.663434
O O9 0.296122 0.050087 0.163131
O O10 0.194512 0.035114 0.159210
O O11 0.247514 0.000000 0.000000
O O12 0.383769 0.060750 0.766323
O O13 0.639371 0.319169 0.225846
O O14 0.560917 0.219078 0.343039
O O15 0.544335 0.233553 0.166264
O O16 0.000000 0.500000 0.129568
O O17 0.000000 0.310618 0.000000
O O18 0.000000 0.500000 0.623620
O O19 0.000000 0.697306 0.500000
#
# Coordination Sequence:
#
# PCOD9330909 Si02
#       8
#     8   8   8   8   8   8   8   8
#     4  11  21  41  62  89 121 166 204 253 308 367
#     4  11  26  42  63  95 126 162 211 262 312 371
#     4  11  26  42  63  95 126 162 211 262 312 371
#     4  11  22  41  66  86 126 167 208 251 310 374
#     4  11  21  41  62  89 121 166 204 253 308 367
#     4  11  26  43  62  90 132 163 206 259 316 372
#     4  10  21  37  62  94 123 156 209 259 303 368
#     4  10  21  37  62  94 123 156 209 259 303 368
#
# _framework density 18.8932
#
# number of rings (size 3 to 8) (size 9 to 14) (size 15 to 20)
#    0.000    1.250    5.000    0.750    3.500    6.000 
#    0.000    1.250    0.000    0.000    0.000    0.000 
#    0.000    0.000    0.000    0.000    0.000    0.000 
#
# Total GULP energy -178691.402421 kJ/mol
# GULP energy per Si atom -5584.106326 kJ/mol
# Density = 1.885020 g / cm^3
# Si number density = 18.893200 Si / 1000 Ang^3
#
#
#
# Elastic Constant Matrix: (Units=GPa)
#
#
# Indices 1 2 3 4 5 6 
#
# 1 67.6635 -2.3709 35.8439 0.0000 0.0000 0.0000
# 2 -2.3709 48.0510 44.7897 0.0000 0.0000 0.0000
# 3 35.8439 44.7897 133.1926 0.0000 0.0000 0.0000
# 4 0.0000 0.0000 0.0000 11.6111 0.0000 0.0000
# 5 0.0000 0.0000 0.0000 0.0000 8.2132 0.0000
# 6 0.0000 0.0000 0.0000 0.0000 0.0000 37.0890
#
#
#
# Elastic Compliance Matrix: (Units=1/GPa)
#
#
# Indices 1 2 3 4 5 6 
#
# 1 0.019338 0.008456 -0.008048 0.000000 0.000000 0.000000
# 2 0.008456 0.034010 -0.013712 0.000000 0.000000 0.000000
# 3 -0.008048 -0.013712 0.014285 0.000000 0.000000 0.000000
# 4 0.000000 0.000000 0.000000 0.086124 0.000000 0.000000
# 5 0.000000 0.000000 0.000000 0.000000 0.121756 0.000000
# 6 0.000000 0.000000 0.000000 0.000000 0.000000 0.026962
#
#
# Mechanical properties :
#
#
# Convention : Reuss Voigt Hill
#
# Bulk Modulus (GPa) = 24.37562 45.04805 34.71183
# Shear Modulus (GPa) = 14.58750 22.75894 18.67322
#
# Velocity S-wave (km/s) = 2.78169 3.47452 3.14722
# Velocity P-wave (km/s) = 4.82150 6.32389 5.62310
#
# Compressibility (1/GPa) = 0.04102459
#
# Stress axis : x y z
#
# Youngs Moduli (GPa) = 51.71041 29.40303 70.00435
#
# Poissons Ratio (x) = -0.24862 0.56337
# Poissons Ratio (y) = -0.43725 0.95992
# Poissons Ratio (z) = 0.41615 0.40319
#
# Static dielectric constant tensor:
#      x y z
#    x 1.646190 0.000000 0.000000 
#    y 0.000000 1.633920 0.000000 
#    z 0.000000 0.000000 1.625490 
# 
# From -- ./inp_files/20340.got.cif
#   From: 2010.05.17/outbox.cif.g08.bks.cpg/sg23_11_cif.got.tgz:20340.got - 2010.06.04 12:02:01.
