data_PCOD9330132
_publ_section_title
;
Structure prediction by ZEFSAII (Michael W. Deem and Ramdas Pophale) SiO2 
 PCOD9330132
Probable space group: I 2 2 2
;
_chemical_formula_sum "Si O2"
_cell_formula_units_Z 48
_cell_length_a 12.847007
_cell_length_b 11.543079
_cell_length_c 15.171977
_cell_angle_alpha 90.000000
_cell_angle_beta 90.000000
_cell_angle_gamma 90.000000
_cell_volume 2249.913411
_symmetry_space_group_name_H-M "I 2 2 2"
_symmetry_group_IT_number 23
_symmetry_cell_setting 'orthorhombic'
loop_
_space_group_symop_operation_xyz
x,y,z
-x,-y,z
x,-y,-z
-x,y,-z
1/2+x,1/2+y,1/2+z
1/2-x,1/2-y,1/2+z
1/2+x,1/2-y,1/2-z
1/2-x,1/2+y,1/2-z
loop_
_atom_site_type_symbol
_atom_site_label
_atom_site_fract_x
_atom_site_fract_y
_atom_site_fract_z
Si Si1 0.098353 0.123170 0.948573
Si Si2 0.814170 0.000000 0.500000
Si Si3 0.569067 0.643555 0.854714
Si Si4 0.770248 0.336458 0.672247
Si Si5 0.674451 0.308766 0.866393
Si Si6 0.500000 0.500000 0.710422
Si Si7 0.880840 0.458340 0.399524
O O1 0.198999 0.191405 0.914816
O O2 0.052838 0.090232 0.853658
O O3 0.000000 0.178197 0.000000
O O4 0.120097 0.000000 0.000000
O O5 0.882332 0.917702 0.438145
O O6 0.767624 0.902580 0.569007
O O7 0.624535 0.764080 0.839667
O O8 0.445692 0.650982 0.862565
O O9 0.415327 0.435602 0.769121
O O10 0.722578 0.310099 0.768026
O O11 0.802231 0.469669 0.661454
O O12 0.656262 0.175252 0.896014
O O13 0.869238 0.500000 0.500000
O O14 0.000000 0.500000 0.376061
#
# Coordination Sequence:
#
# PCOD9330132 Si02
#       7
#     8   4   8   8   8   4   8
#     4   9  20  39  65  90 128 175 226 281 333 408
#     4  12  25  42  66  96 131 174 239 290 352 404
#     4  12  22  40  66  96 134 174 229 293 341 418
#     4  12  25  42  68 103 137 185 234 280 368 427
#     4  12  25  42  69  98 137 185 228 298 352 422
#     4  10  19  39  62  90 130 174 220 285 339 394
#     4  11  25  46  69 100 143 179 236 300 365 421
#
# _framework density 21.334154999999999
#
# number of rings (size 3 to 8) (size 9 to 14) (size 15 to 20)
#    0.000    1.000    5.000    2.500    7.000    0.000 
#    3.000    0.000    0.000    0.000    0.000    0.583 
#    0.000    0.000    0.000    0.000    0.000    0.000 
#
# Total GULP energy -133736.269595 kJ/mol
# GULP energy per Si atom -5572.344566 kJ/mol
# Density = 2.128560 g / cm^3
# Si number density = 21.334155 Si / 1000 Ang^3
#
#
#
# Elastic Constant Matrix: (Units=GPa)
#
#
# Indices 1 2 3 4 5 6 
#
# 1 47.2016 11.7728 18.4099 0.0000 0.0000 0.0000
# 2 11.7728 123.5099 35.3305 0.0000 0.0000 0.0000
# 3 18.4099 35.3305 118.4500 0.0000 0.0000 0.0000
# 4 0.0000 0.0000 0.0000 27.1577 0.0000 0.0000
# 5 0.0000 0.0000 0.0000 0.0000 18.1562 0.0000
# 6 0.0000 0.0000 0.0000 0.0000 0.0000 24.1408
#
#
#
# Elastic Compliance Matrix: (Units=1/GPa)
#
#
# Indices 1 2 3 4 5 6 
#
# 1 0.022732 -0.001264 -0.003156 0.000000 0.000000 0.000000
# 2 -0.001264 0.008922 -0.002465 0.000000 0.000000 0.000000
# 3 -0.003156 -0.002465 0.009668 0.000000 0.000000 0.000000
# 4 0.000000 0.000000 0.000000 0.036822 0.000000 0.000000
# 5 0.000000 0.000000 0.000000 0.000000 0.055078 0.000000
# 6 0.000000 0.000000 0.000000 0.000000 0.000000 0.041424
#
#
# Mechanical properties :
#
#
# Convention : Reuss Voigt Hill
#
# Bulk Modulus (GPa) = 36.29440 46.68754 41.49097
# Shear Modulus (GPa) = 25.30377 28.80082 27.05230
#
# Velocity S-wave (km/s) = 3.44767 3.67820 3.56480
# Velocity P-wave (km/s) = 5.73567 6.32221 6.03607
#
# Compressibility (1/GPa) = 0.02755246
#
# Stress axis : x y z
#
# Youngs Moduli (GPa) = 43.99099 112.08179 103.43311
#
# Poissons Ratio (x) = 0.14167 0.32644
# Poissons Ratio (y) = 0.05560 0.25494
# Poissons Ratio (z) = 0.13884 0.27626
#
# Static dielectric constant tensor:
#      x y z
#    x 1.904130 0.000000 0.000000 
#    y 0.000000 1.894610 0.000000 
#    z 0.000000 0.000000 1.804500 
# 
# From -- ./inp_files/21562.got.cif
#   From: 2010.05.17/outbox.cif.g08.bks.cpg/sg23_11_cif.got.tgz:21562.got - 2010.06.04 12:02:01.
