data_PCOD9330683
_publ_section_title
;
Structure prediction by ZEFSAII (Michael W. Deem and Ramdas Pophale) SiO2 
 PCOD9330683
Probable space group: I 2 2 2
;
_chemical_formula_sum "Si O2"
_cell_formula_units_Z 40
_cell_length_a 8.573031
_cell_length_b 23.714084
_cell_length_c 8.531048
_cell_angle_alpha 90.000000
_cell_angle_beta 90.000000
_cell_angle_gamma 90.000000
_cell_volume 1734.375514
_symmetry_space_group_name_H-M "I 2 2 2"
_symmetry_group_IT_number 23
_symmetry_cell_setting 'orthorhombic'
loop_
_space_group_symop_operation_xyz
x,y,z
-x,-y,z
x,-y,-z
-x,y,-z
1/2+x,1/2+y,1/2+z
1/2-x,1/2-y,1/2+z
1/2+x,1/2-y,1/2-z
1/2-x,1/2+y,1/2-z
loop_
_atom_site_type_symbol
_atom_site_label
_atom_site_fract_x
_atom_site_fract_y
_atom_site_fract_z
Si Si1 0.820643 0.489972 0.183610
Si Si2 0.671273 0.443955 0.574213
Si Si3 0.897045 0.369615 0.153904
Si Si4 0.820693 0.326921 0.640040
Si Si5 0.674605 0.288993 0.968071
O O1 0.693971 0.534105 0.248869
O O2 0.797641 0.423251 0.211268
O O3 0.000000 0.500000 0.238995
O O4 0.819742 0.500000 0.000000
O O5 0.752125 0.500000 0.500000
O O6 0.500000 0.441197 0.500000
O O7 0.746675 0.383087 0.568030
O O8 0.789514 0.320788 0.086389
O O9 0.014833 0.346549 0.284946
O O10 0.000000 0.387853 0.000000
O O11 0.821469 0.276694 0.515019
O O12 0.725699 0.303724 0.791738
O O13 0.500000 0.309221 0.000000
#
# Coordination Sequence:
#
# PCOD9330683 Si02
#       5
#     8   8   8   8   8
#     4  11  19  42  78 109 135 187 250 301 356 437
#     4  11  27  46  67 106 153 189 234 307 375 433
#     4  10  20  40  71 106 138 183 245 297 359 435
#     4  11  24  46  69  98 141 193 244 291 360 443
#     4  11  25  42  69 105 143 188 238 304 363 423
#
# _framework density 23.063058000000002
#
# number of rings (size 3 to 8) (size 9 to 14) (size 15 to 20)
#    0.000    1.200    4.000    2.400    0.000   10.800 
#    0.000    2.000    0.000    0.000    0.000    0.000 
#    0.000    0.000    0.000    0.000    0.000    0.000 
#
# Total GULP energy -111788.971708 kJ/mol
# GULP energy per Si atom -5589.448585 kJ/mol
# Density = 2.301057 g / cm^3
# Si number density = 23.063058 Si / 1000 Ang^3
#
#
#
# Elastic Constant Matrix: (Units=GPa)
#
#
# Indices 1 2 3 4 5 6 
#
# 1 113.4701 47.6816 56.8975 0.0003 0.0002 0.0001
# 2 47.6816 172.1785 48.3958 0.0004 0.0002 0.0001
# 3 56.8975 48.3958 75.6976 0.0011 0.0003 0.0007
# 4 0.0003 0.0004 0.0011 33.2426 0.0000 0.0002
# 5 0.0002 0.0002 0.0003 0.0000 40.1759 0.0002
# 6 0.0001 0.0001 0.0007 0.0002 0.0002 29.2521
#
#
#
# Elastic Compliance Matrix: (Units=1/GPa)
#
#
# Indices 1 2 3 4 5 6 
#
# 1 0.014327 -0.001147 -0.010036 0.000000 0.000000 0.000000
# 2 -0.001147 0.007172 -0.003723 0.000000 0.000000 0.000000
# 3 -0.010036 -0.003723 0.023134 -0.000001 0.000000 0.000000
# 4 0.000000 0.000000 -0.000001 0.030082 0.000000 0.000000
# 5 0.000000 0.000000 0.000000 0.000000 0.024891 0.000000
# 6 0.000000 0.000000 0.000000 0.000000 0.000000 0.034186
#
#
# Mechanical properties :
#
#
# Convention : Reuss Voigt Hill
#
# Bulk Modulus (GPa) = 67.46874 74.14400 70.80637
# Shear Modulus (GPa) = 29.66603 34.42555 32.04579
#
# Velocity S-wave (km/s) = 3.59039 3.86770 3.73162
# Velocity P-wave (km/s) = 6.81949 7.22244 7.02386
#
# Compressibility (1/GPa) = 0.01482168
#
# Stress axis : x y z
#
# Youngs Moduli (GPa) = 69.79856 139.42998 43.22633
#
# Poissons Ratio (x) = 0.15990 0.43380
# Poissons Ratio (y) = 0.08004 0.16095
# Poissons Ratio (z) = 0.70047 0.51914
#
# Static dielectric constant tensor:
#      x y z
#    x 1.865470 0.000000 0.000000 
#    y 0.000000 1.871020 0.000000 
#    z 0.000000 0.000000 2.112320 
# 
# From -- ./inp_files/6887.got.cif
#   From: 2010.05.17/outbox.cif.g08.bks.cpg/sg23_4_cif.got.tgz:6887.got - 2010.06.04 12:02:01.
