data_PCOD9330100
_publ_section_title
;
Structure prediction by ZEFSAII (Michael W. Deem and Ramdas Pophale) SiO2 
 PCOD9330100
Probable space group: I 2 2 2
;
_chemical_formula_sum "Si O2"
_cell_formula_units_Z 58
_cell_length_a 8.841546
_cell_length_b 18.520062
_cell_length_c 16.201619
_cell_angle_alpha 90.000000
_cell_angle_beta 90.000000
_cell_angle_gamma 90.000000
_cell_volume 2652.949982
_symmetry_space_group_name_H-M "I 2 2 2"
_symmetry_group_IT_number 23
_symmetry_cell_setting 'orthorhombic'
loop_
_space_group_symop_operation_xyz
x,y,z
-x,-y,z
x,-y,-z
-x,y,-z
1/2+x,1/2+y,1/2+z
1/2-x,1/2-y,1/2+z
1/2+x,1/2-y,1/2-z
1/2-x,1/2+y,1/2-z
loop_
_atom_site_type_symbol
_atom_site_label
_atom_site_fract_x
_atom_site_fract_y
_atom_site_fract_z
Si Si1 0.257675 0.446038 0.885823
Si Si2 0.918588 0.814186 0.233933
Si Si3 0.672244 0.604328 0.160473
Si Si4 0.335207 0.317411 0.995380
Si Si5 0.189443 0.422784 0.693453
Si Si6 0.697030 0.730885 0.360478
Si Si7 0.500000 0.000000 0.500000
Si Si8 0.159206 0.587111 0.677126
O O1 0.336250 0.523813 0.876198
O O2 0.354878 0.388188 0.936756
O O3 0.205485 0.424526 0.793838
O O4 0.108581 0.454518 0.941361
O O5 0.812565 0.861986 0.174215
O O6 0.816537 0.767744 0.296601
O O7 0.028015 0.868206 0.286792
O O8 0.034369 0.766089 0.181908
O O9 0.806903 0.601044 0.226338
O O10 0.706293 0.658231 0.086453
O O11 0.214514 0.270598 0.946785
O O12 0.500000 0.280724 0.000000
O O13 0.214514 0.504916 0.663086
O O14 0.019825 0.405268 0.665602
O O15 0.747408 0.647846 0.369848
#
# Coordination Sequence:
#
# PCOD9330100 Si02
#       8
#     8   8   8   8   8   8   2   8
#     4  11  21  32  53  83 119 162 205 239 292 356
#     4  11  22  39  60  82 123 167 207 259 303 365
#     4  10  20  37  55  85 119 171 210 249 291 363
#     4  12  22  37  55  84 126 170 202 251 300 374
#     4  10  19  38  59  87 115 159 204 254 303 370
#     4  11  23  37  56  85 122 168 203 254 307 357
#     4  12  20  32  46  76 120 160 192 252 270 344
#     4   9  21  36  62  87 121 158 205 254 309 362
#
# _framework density 21.862456000000002
#
# number of rings (size 3 to 8) (size 9 to 14) (size 15 to 20)
#    0.000    1.379    4.138    2.483    0.000    8.276 
#    0.000    0.000    0.000    0.000    0.000    1.931 
#    0.000    0.000   69.241    0.000    0.000    0.000 
#
# Total GULP energy -162089.013121 kJ/mol
# GULP energy per Si atom -5589.276315 kJ/mol
# Density = 2.181270 g / cm^3
# Si number density = 21.862456 Si / 1000 Ang^3
#
#
#
# Elastic Constant Matrix: (Units=GPa)
#
#
# Indices 1 2 3 4 5 6 
#
# 1 86.7440 21.7820 2.2863 0.0000 0.0000 0.0000
# 2 21.7820 56.3185 0.6369 0.0000 0.0000 0.0000
# 3 2.2863 0.6369 19.5914 0.0000 0.0000 0.0000
# 4 0.0000 0.0000 0.0000 21.2854 0.0000 0.0000
# 5 0.0000 0.0000 0.0000 0.0000 22.4953 0.0000
# 6 0.0000 0.0000 0.0000 0.0000 0.0000 39.9579
#
#
#
# Elastic Compliance Matrix: (Units=1/GPa)
#
#
# Indices 1 2 3 4 5 6 
#
# 1 0.012803 -0.004937 -0.001334 0.000000 0.000000 0.000000
# 2 -0.004937 0.019666 -0.000063 0.000000 0.000000 0.000000
# 3 -0.001334 -0.000063 0.051200 0.000000 0.000000 0.000000
# 4 0.000000 0.000000 0.000000 0.046980 0.000000 0.000000
# 5 0.000000 0.000000 0.000000 0.000000 0.044454 0.000000
# 6 0.000000 0.000000 0.000000 0.000000 0.000000 0.025026
#
#
# Mechanical properties :
#
#
# Convention : Reuss Voigt Hill
#
# Bulk Modulus (GPa) = 14.08398 23.56269 18.82334
# Shear Modulus (GPa) = 21.14483 25.94432 23.54457
#
# Velocity S-wave (km/s) = 3.11332 3.44860 3.28524
# Velocity P-wave (km/s) = 4.40224 5.16316 4.79781
#
# Compressibility (1/GPa) = 0.07100263
#
# Stress axis : x y z
#
# Youngs Moduli (GPa) = 78.10697 50.84868 19.53110
#
# Poissons Ratio (x) = 0.25102 0.02605
# Poissons Ratio (y) = 0.38559 0.00123
# Poissons Ratio (z) = 0.10417 0.00321
#
# Static dielectric constant tensor:
#      x y z
#    x 1.847630 0.000000 0.000000 
#    y 0.000000 1.864990 0.000000 
#    z 0.000000 0.000000 1.781660 
# 
# From -- ./inp_files/23908.got.cif
#   From: 2010.05.17/outbox.cif.g08.bks.cpg/sg23_12_cif.got.tgz:23908.got - 2010.06.04 12:02:01.
