data_PCOD9330893
_publ_section_title
;
Structure prediction by ZEFSAII (Michael W. Deem and Ramdas Pophale) SiO2 
 PCOD9330893
Probable space group: I 2 2 2
;
_chemical_formula_sum "Si O2"
_cell_formula_units_Z 40
_cell_length_a 18.306878
_cell_length_b 5.045066
_cell_length_c 20.507606
_cell_angle_alpha 90.000000
_cell_angle_beta 90.000000
_cell_angle_gamma 90.000000
_cell_volume 1894.070345
_symmetry_space_group_name_H-M "I 2 2 2"
_symmetry_group_IT_number 23
_symmetry_cell_setting 'orthorhombic'
loop_
_space_group_symop_operation_xyz
x,y,z
-x,-y,z
x,-y,-z
-x,y,-z
1/2+x,1/2+y,1/2+z
1/2-x,1/2-y,1/2+z
1/2+x,1/2-y,1/2-z
1/2-x,1/2+y,1/2-z
loop_
_atom_site_type_symbol
_atom_site_label
_atom_site_fract_x
_atom_site_fract_y
_atom_site_fract_z
Si Si1 0.415201 0.027601 0.870618
Si Si2 0.289583 0.387038 0.845370
Si Si3 0.915215 0.549473 0.782881
Si Si4 0.796373 0.743736 0.544165
Si Si5 0.821313 0.968976 0.196264
O O1 0.372579 0.309286 0.865732
O O2 0.500000 0.000000 0.886195
O O3 0.407689 0.928452 0.795884
O O4 0.369459 0.872935 0.924340
O O5 0.258291 0.607618 0.894162
O O6 0.242896 0.114582 0.845120
O O7 0.291838 0.485406 0.771148
O O8 0.887057 0.822438 0.811640
O O9 0.000000 0.500000 0.796982
O O10 0.861632 0.314517 0.806243
O O11 0.764716 0.500000 0.500000
O O12 0.810004 0.000000 0.500000
#
# Coordination Sequence:
#
# PCOD9330893 Si02
#       5
#     8   8   8   8   8
#     4  10  22  40  58  80 117 165 219 268 308 355
#     4  11  23  40  60  89 118 160 224 261 327 374
#     4  10  21  37  59  90 121 156 199 253 324 389
#     4  12  25  42  57  80 120 169 219 276 307 358
#     4  11  22  35  64  85 117 160 201 267 316 389
#
# _framework density 21.118538999999998
#
# number of rings (size 3 to 8) (size 9 to 14) (size 15 to 20)
#    0.000    1.200    4.000    3.000    2.800    1.200 
#    3.600    0.000    0.000    0.000    0.000    0.000 
#    0.000    0.800    8.000    0.200    0.400    0.400 
#
# Total GULP energy -111520.480609 kJ/mol
# GULP energy per Si atom -5576.024030 kJ/mol
# Density = 2.107047 g / cm^3
# Si number density = 21.118539 Si / 1000 Ang^3
#
#
#
# Elastic Constant Matrix: (Units=GPa)
#
#
# Indices 1 2 3 4 5 6 
#
# 1 104.9115 28.5482 26.7344 0.0000 0.0000 0.0000
# 2 28.5482 135.8474 42.8589 0.0000 0.0000 0.0000
# 3 26.7344 42.8589 58.5717 0.0000 0.0000 0.0000
# 4 0.0000 0.0000 0.0000 47.0666 0.0000 0.0000
# 5 0.0000 0.0000 0.0000 0.0000 15.5674 0.0000
# 6 0.0000 0.0000 0.0000 0.0000 0.0000 27.7957
#
#
#
# Elastic Compliance Matrix: (Units=1/GPa)
#
#
# Indices 1 2 3 4 5 6 
#
# 1 0.010877 -0.000935 -0.004280 0.000000 0.000000 0.000000
# 2 -0.000935 0.009651 -0.006635 0.000000 0.000000 0.000000
# 3 -0.004280 -0.006635 0.023882 0.000000 0.000000 0.000000
# 4 0.000000 0.000000 0.000000 0.021246 0.000000 0.000000
# 5 0.000000 0.000000 0.000000 0.000000 0.064237 0.000000
# 6 0.000000 0.000000 0.000000 0.000000 0.000000 0.035977
#
#
# Mechanical properties :
#
#
# Convention : Reuss Voigt Hill
#
# Bulk Modulus (GPa) = 48.28915 55.06819 51.67867
# Shear Modulus (GPa) = 25.44856 31.49852 28.47354
#
# Velocity S-wave (km/s) = 3.47513 3.86620 3.67587
# Velocity P-wave (km/s) = 6.24639 6.78692 6.52226
#
# Compressibility (1/GPa) = 0.02070859
#
# Stress axis : x y z
#
# Youngs Moduli (GPa) = 91.93605 103.61514 41.87271
#
# Poissons Ratio (x) = 0.09692 0.17923
# Poissons Ratio (y) = 0.08600 0.27783
# Poissons Ratio (z) = 0.39351 0.68749
#
# Static dielectric constant tensor:
#      x y z
#    x 1.785250 0.000000 0.000000 
#    y 0.000000 1.870310 0.000000 
#    z 0.000000 0.000000 1.907500 
# 
# From -- ./inp_files/27114.got.cif
#   From: 2010.05.17/outbox.cif.g08.bks.cpg/sg23_14_cif.got.tgz:27114.got - 2010.06.04 12:02:01.
