data_PCOD9330734
_publ_section_title
;
Structure prediction by ZEFSAII (Michael W. Deem and Ramdas Pophale) SiO2 
 PCOD9330734
Probable space group: I 2 2 2
;
_chemical_formula_sum "Si O2"
_cell_formula_units_Z 60
_cell_length_a 11.180595
_cell_length_b 12.744153
_cell_length_c 21.199716
_cell_angle_alpha 90.000000
_cell_angle_beta 90.000000
_cell_angle_gamma 90.000000
_cell_volume 3020.688456
_symmetry_space_group_name_H-M "I 2 2 2"
_symmetry_group_IT_number 23
_symmetry_cell_setting 'orthorhombic'
loop_
_space_group_symop_operation_xyz
x,y,z
-x,-y,z
x,-y,-z
-x,y,-z
1/2+x,1/2+y,1/2+z
1/2-x,1/2-y,1/2+z
1/2+x,1/2-y,1/2-z
1/2-x,1/2+y,1/2-z
loop_
_atom_site_type_symbol
_atom_site_label
_atom_site_fract_x
_atom_site_fract_y
_atom_site_fract_z
Si Si1 0.821291 0.614498 0.505532
Si Si2 0.788910 0.108157 0.702508
Si Si3 0.617171 0.057797 0.245518
Si Si4 0.671779 0.190718 0.134886
Si Si5 0.062786 0.888925 0.935822
Si Si6 0.500000 0.500000 0.125956
Si Si7 0.587234 0.275381 0.894213
Si Si8 0.157233 0.759068 0.824904
O O1 0.878417 0.500000 0.500000
O O2 0.799210 0.657714 0.435588
O O3 0.699584 0.593173 0.543814
O O4 0.890312 0.702503 0.545199
O O5 0.758336 0.207209 0.658559
O O6 0.824276 0.155034 0.770326
O O7 0.684136 0.027523 0.713218
O O8 0.896516 0.046277 0.669970
O O9 0.690548 0.098196 0.184956
O O10 0.600965 0.159038 0.289757
O O11 0.500000 0.000000 0.221121
O O12 0.530544 0.224789 0.138734
O O13 0.072950 0.807148 0.878977
O O14 0.000000 0.000000 0.919586
O O15 0.000000 0.849094 0.000000
O O16 0.553319 0.603142 0.091053
O O17 0.710210 0.269411 0.853244
#
# Coordination Sequence:
#
# PCOD9330734 Si02
#       8
#     8   8   8   8   8   4   8   8
#     4  11  23  39  63  95 128 161 205 265 325 380
#     4  10  22  40  60  91 122 166 212 258 319 373
#     4  11  23  39  62  90 124 165 204 262 318 376
#     4  10  24  39  60  92 124 160 204 263 316 384
#     4  10  21  39  60  90 124 165 207 250 305 369
#     4  10  20  42  67  86 129 164 222 268 310 398
#     4  10  21  41  64  91 126 163 212 262 325 383
#     4  10  22  39  62  91 124 163 213 259 311 380
#
# _framework density 19.863022000000001
#
# number of rings (size 3 to 8) (size 9 to 14) (size 15 to 20)
#    0.000    1.733    2.667    1.200    6.533    1.600 
#    0.000    5.333    0.000    2.000    0.000    0.000 
#    0.000    0.000    0.000    0.000    0.000    0.000 
#
# Total GULP energy -167446.907294 kJ/mol
# GULP energy per Si atom -5581.563576 kJ/mol
# Density = 1.981781 g / cm^3
# Si number density = 19.863022 Si / 1000 Ang^3
#
#
#
# Elastic Constant Matrix: (Units=GPa)
#
#
# Indices 1 2 3 4 5 6 
#
# 1 37.4425 23.6138 -8.7362 0.0000 0.0000 0.0000
# 2 23.6138 132.7428 56.9610 0.0000 0.0000 0.0000
# 3 -8.7362 56.9610 93.7418 0.0000 0.0000 0.0000
# 4 0.0000 0.0000 0.0000 16.4083 0.0000 0.0000
# 5 0.0000 0.0000 0.0000 0.0000 22.9286 0.0000
# 6 0.0000 0.0000 0.0000 0.0000 0.0000 -29.7406
#
#
#
# Elastic Compliance Matrix: (Units=1/GPa)
#
#
# Indices 1 2 3 4 5 6 
#
# 1 0.035582 -0.010487 0.009688 0.000000 0.000000 0.000000
# 2 -0.010487 0.013281 -0.009048 0.000000 0.000000 0.000000
# 3 0.009688 -0.009048 0.017068 0.000000 0.000000 0.000000
# 4 0.000000 0.000000 0.000000 0.060945 0.000000 0.000000
# 5 0.000000 0.000000 0.000000 0.000000 0.043614 0.000000
# 6 0.000000 0.000000 0.000000 0.000000 0.000000 -0.033624
#
#
# Mechanical properties :
#
#
# Convention : Reuss Voigt Hill
#
# Bulk Modulus (GPa) = 21.62678 45.28937 33.45807
# Shear Modulus (GPa) = 29.07458 14.72515 21.89987
#
# Velocity S-wave (km/s) = 3.83005 2.72570 3.32406
# Velocity P-wave (km/s) = 5.52003 5.72331 5.62259
#
# Compressibility (1/GPa) = 0.04623897
#
# Stress axis : x y z
#
# Youngs Moduli (GPa) = 28.10406 75.29374 58.58870
#
# Poissons Ratio (x) = 0.78961 -0.56763
# Poissons Ratio (y) = 0.29473 0.53008
# Poissons Ratio (z) = -0.27228 0.68122
#
# Static dielectric constant tensor:
#      x y z
#    x 1.761970 0.000000 0.000000 
#    y 0.000000 1.702000 0.000000 
#    z 0.000000 0.000000 1.672600 
# 
# From -- ./inp_files/26755.got.cif
#   From: 2010.05.17/outbox.cif.g08.bks.cpg/sg23_14_cif.got.tgz:26755.got - 2010.06.04 12:02:01.
