data_PCOD9330130
_publ_section_title
;
Structure prediction by ZEFSAII (Michael W. Deem and Ramdas Pophale) SiO2 
 PCOD9330130
Probable space group: I 2 2 2
;
_chemical_formula_sum "Si O2"
_cell_formula_units_Z 46
_cell_length_a 9.220626
_cell_length_b 20.253425
_cell_length_c 13.054861
_cell_angle_alpha 90.000000
_cell_angle_beta 90.000000
_cell_angle_gamma 90.000000
_cell_volume 2437.985594
_symmetry_space_group_name_H-M "I 2 2 2"
_symmetry_group_IT_number 23
_symmetry_cell_setting 'orthorhombic'
loop_
_space_group_symop_operation_xyz
x,y,z
-x,-y,z
x,-y,-z
-x,y,-z
1/2+x,1/2+y,1/2+z
1/2-x,1/2-y,1/2+z
1/2+x,1/2-y,1/2-z
1/2-x,1/2+y,1/2-z
loop_
_atom_site_type_symbol
_atom_site_label
_atom_site_fract_x
_atom_site_fract_y
_atom_site_fract_z
Si Si1 0.660160 0.904224 0.161496
Si Si2 0.500000 0.500000 0.000000
Si Si3 0.980013 0.720100 0.756692
Si Si4 0.858528 0.791454 0.065780
Si Si5 0.293931 0.274762 0.882097
Si Si6 0.500000 0.000000 0.000000
Si Si7 0.500000 0.000000 0.500000
Si Si8 0.750138 0.929768 0.375935
O O1 0.542592 0.854819 0.216537
O O2 0.781373 0.853518 0.118818
O O3 0.731315 0.943879 0.255476
O O4 0.593119 0.951553 0.074863
O O5 0.392111 0.540083 0.072983
O O6 0.083189 0.736451 0.853848
O O7 0.049263 0.759352 0.662497
O O8 0.825330 0.746578 0.796517
O O9 0.743656 0.761064 0.986866
O O10 0.000000 0.811539 0.000000
O O11 0.264139 0.351774 0.891554
O O12 0.606835 0.956137 0.431610
#
# Coordination Sequence:
#
# PCOD9330130 Si02
#       8
#     8   2   8   8   8   2   2   8
#     4  11  23  43  64  93 133 170 220 258 321 402
#     4  10  24  46  58  88 124 162 224 268 312 380
#     4  10  19  39  61  91 128 155 205 267 312 376
#     4  10  21  39  62  95 126 157 211 267 330 381
#     4  10  21  36  63  92 123 158 203 262 325 374
#     4  12  26  44  64  98 136 184 226 260 316 414
#     4  10  22  38  64  84 120 174 206 260 308 376
#     4  10  22  42  62  89 123 165 217 261 317 381
#
# _framework density 18.868036
#
# number of rings (size 3 to 8) (size 9 to 14) (size 15 to 20)
#    0.000    1.739    3.478    1.565    6.087    1.391 
#    3.130    0.000    0.000    0.000    0.000    0.000 
#    0.000    0.000    0.000    0.000    0.000    0.000 
#
# Total GULP energy -128232.600711 kJ/mol
# GULP energy per Si atom -5575.330466 kJ/mol
# Density = 1.882509 g / cm^3
# Si number density = 18.868036 Si / 1000 Ang^3
#
#
#
# Elastic Constant Matrix: (Units=GPa)
#
#
# Indices 1 2 3 4 5 6 
#
# 1 109.5273 53.3356 72.0500 0.0000 0.0000 0.0000
# 2 53.3356 72.5058 57.3639 0.0000 0.0000 0.0000
# 3 72.0500 57.3639 143.3630 0.0000 0.0000 0.0000
# 4 0.0000 0.0000 0.0000 50.0826 0.0000 0.0000
# 5 0.0000 0.0000 0.0000 0.0000 21.5038 0.0000
# 6 0.0000 0.0000 0.0000 0.0000 0.0000 3.5014
#
#
#
# Elastic Compliance Matrix: (Units=1/GPa)
#
#
# Indices 1 2 3 4 5 6 
#
# 1 0.016340 -0.008081 -0.004979 0.000000 0.000000 0.000000
# 2 -0.008081 0.024177 -0.005613 0.000000 0.000000 0.000000
# 3 -0.004979 -0.005613 0.011723 0.000000 0.000000 0.000000
# 4 0.000000 0.000000 0.000000 0.019967 0.000000 0.000000
# 5 0.000000 0.000000 0.000000 0.000000 0.046503 0.000000
# 6 0.000000 0.000000 0.000000 0.000000 0.000000 0.285598
#
#
# Mechanical properties :
#
#
# Convention : Reuss Voigt Hill
#
# Bulk Modulus (GPa) = 67.13322 76.76612 71.94967
# Shear Modulus (GPa) = 11.19521 24.52733 17.86127
#
# Velocity S-wave (km/s) = 2.43851 3.60938 3.08009
# Velocity P-wave (km/s) = 6.60197 7.62524 7.13198
#
# Compressibility (1/GPa) = 0.01489575
#
# Stress axis : x y z
#
# Youngs Moduli (GPa) = 61.19765 41.36161 85.30063
#
# Poissons Ratio (x) = 0.33425 0.42469
# Poissons Ratio (y) = 0.49455 0.47876
# Poissons Ratio (z) = 0.30469 0.23215
#
# Static dielectric constant tensor:
#      x y z
#    x 1.660980 0.000000 0.000000 
#    y 0.000000 1.629720 0.000000 
#    z 0.000000 0.000000 1.714890 
# 
# From -- ./inp_files/12637.got.cif
#   From: 2010.05.17/outbox.cif.g08.bks.cpg/sg23_7_cif.got.tgz:12637.got - 2010.06.04 12:02:01.
