data_PCOD9330439
_publ_section_title
;
Structure prediction by ZEFSAII (Michael W. Deem and Ramdas Pophale) SiO2 
 PCOD9330439
Probable space group: I 2 2 2
;
_chemical_formula_sum "Si O2"
_cell_formula_units_Z 38
_cell_length_a 15.728126
_cell_length_b 8.370294
_cell_length_c 12.100869
_cell_angle_alpha 90.000000
_cell_angle_beta 90.000000
_cell_angle_gamma 90.000000
_cell_volume 1593.067771
_symmetry_space_group_name_H-M "I 2 2 2"
_symmetry_group_IT_number 23
_symmetry_cell_setting 'orthorhombic'
loop_
_space_group_symop_operation_xyz
x,y,z
-x,-y,z
x,-y,-z
-x,y,-z
1/2+x,1/2+y,1/2+z
1/2-x,1/2-y,1/2+z
1/2+x,1/2-y,1/2-z
1/2-x,1/2+y,1/2-z
loop_
_atom_site_type_symbol
_atom_site_label
_atom_site_fract_x
_atom_site_fract_y
_atom_site_fract_z
Si Si1 0.598645 0.554303 0.381101
Si Si2 0.102160 0.484250 0.378282
Si Si3 0.359285 0.365827 0.839947
Si Si4 0.779716 0.500000 0.000000
Si Si5 0.000000 0.000000 0.500000
Si Si6 0.906028 0.576397 0.839241
O O1 0.500000 0.500000 0.373375
O O2 0.634549 0.500000 0.500000
O O3 0.641054 0.474616 0.270761
O O4 0.596817 0.746370 0.387567
O O5 0.138597 0.500000 0.500000
O O6 0.129777 0.320868 0.320394
O O7 0.125795 0.610962 0.285894
O O8 0.000000 0.500000 0.388626
O O9 0.281928 0.392375 0.925250
O O10 0.440979 0.402375 0.917112
O O11 0.846747 0.453108 0.905302
O O12 0.000000 0.500000 0.839989
#
# Coordination Sequence:
#
# PCOD9330439 Si02
#       6
#     8   8   8   4   2   8
#     4  11  25  44  76 112 139 192 256 307 367 447
#     4  10  22  41  77 112 139 185 247 303 368 442
#     4  11  24  45  71 108 149 191 245 304 373 442
#     4  11  29  45  73 102 152 202 243 305 383 425
#     4  10  20  36  74  92 146 184 240 290 352 438
#     4  11  26  47  77 102 149 195 258 306 372 446
#
# _framework density 23.853348
#
# number of rings (size 3 to 8) (size 9 to 14) (size 15 to 20)
#    0.000    1.263    1.053    4.105   14.737    1.684 
#    0.000    2.105    0.000    0.000    0.000    0.000 
#    0.000    0.000    0.000    0.000    0.000    0.000 
#
# Total GULP energy -105939.672758 kJ/mol
# GULP energy per Si atom -5575.772250 kJ/mol
# Density = 2.379906 g / cm^3
# Si number density = 23.853348 Si / 1000 Ang^3
#
#
#
# Elastic Constant Matrix: (Units=GPa)
#
#
# Indices 1 2 3 4 5 6 
#
# 1 98.3403 9.3754 41.2616 0.0000 0.0000 0.0000
# 2 9.3754 113.3127 59.8147 0.0000 0.0000 0.0000
# 3 41.2616 59.8147 208.4728 0.0000 0.0000 0.0000
# 4 0.0000 0.0000 0.0000 35.9397 0.0000 0.0000
# 5 0.0000 0.0000 0.0000 0.0000 -370.0498 0.0000
# 6 0.0000 0.0000 0.0000 0.0000 0.0000 -3.9791
#
#
#
# Elastic Compliance Matrix: (Units=1/GPa)
#
#
# Indices 1 2 3 4 5 6 
#
# 1 0.011097 0.000284 -0.002278 0.000000 0.000000 0.000000
# 2 0.000284 0.010408 -0.003042 0.000000 0.000000 0.000000
# 3 -0.002278 -0.003042 0.006121 0.000000 0.000000 0.000000
# 4 0.000000 0.000000 0.000000 0.027824 0.000000 0.000000
# 5 0.000000 0.000000 0.000000 0.000000 -0.002702 0.000000
# 6 0.000000 0.000000 0.000000 0.000000 0.000000 -0.251315
#
#
# Mechanical properties :
#
#
# Convention : Reuss Voigt Hill
#
# Bulk Modulus (GPa) = 56.96889 71.22547 64.09718
# Shear Modulus (GPa) = -27.37575 -46.97289 -37.17432
#
# Velocity S-wave (km/s) = -3.39140 -4.44242 -3.95201
# Velocity P-wave (km/s) = 2.93246 1.90028 2.47087
#
# Compressibility (1/GPa) = 0.01755344
#
# Stress axis : x y z
#
# Youngs Moduli (GPa) = 90.11059 96.08343 163.38308
#
# Poissons Ratio (x) = -0.02732 0.37219
# Poissons Ratio (y) = -0.02562 0.49708
# Poissons Ratio (z) = 0.20527 0.29233
#
# Static dielectric constant tensor:
#      x y z
#    x 1.952140 0.000000 0.000000 
#    y 0.000000 2.658960 0.000000 
#    z 0.000000 0.000000 1.969390 
# 
# From -- ./inp_files/17284.got.cif
#   From: 2010.05.17/outbox.cif.g08.bks.cpg/sg23_9_cif.got.tgz:17284.got - 2010.06.04 12:02:01.
