data_PCOD9330953
_publ_section_title
;
Structure prediction by ZEFSAII (Michael W. Deem and Ramdas Pophale) SiO2 
 PCOD9330953
Probable space group: I 2 2 2
;
_chemical_formula_sum "Si O2"
_cell_formula_units_Z 48
_cell_length_a 9.225646
_cell_length_b 21.625956
_cell_length_c 10.196800
_cell_angle_alpha 90.000000
_cell_angle_beta 90.000000
_cell_angle_gamma 90.000000
_cell_volume 2034.398385
_symmetry_space_group_name_H-M "I 2 2 2"
_symmetry_group_IT_number 23
_symmetry_cell_setting 'orthorhombic'
loop_
_space_group_symop_operation_xyz
x,y,z
-x,-y,z
x,-y,-z
-x,y,-z
1/2+x,1/2+y,1/2+z
1/2-x,1/2-y,1/2+z
1/2+x,1/2-y,1/2-z
1/2-x,1/2+y,1/2-z
loop_
_atom_site_type_symbol
_atom_site_label
_atom_site_fract_x
_atom_site_fract_y
_atom_site_fract_z
Si Si1 0.891298 0.904936 0.893552
Si Si2 0.608677 0.060788 0.596854
Si Si3 0.943366 0.071493 0.635217
Si Si4 0.572575 0.763733 0.860334
Si Si5 0.606658 0.264684 0.608509
Si Si6 0.069075 0.412471 0.357016
O O1 0.859938 0.834783 0.939955
O O2 0.736029 0.935503 0.863966
O O3 0.981014 0.900566 0.760791
O O4 0.000000 0.933178 0.000000
O O5 0.500000 0.097948 0.500000
O O6 0.771106 0.078355 0.633505
O O7 0.522445 0.061242 0.735096
O O8 0.634529 0.000000 0.500000
O O9 0.000000 0.099403 0.500000
O O10 0.000000 0.000000 0.637830
O O11 0.479208 0.735979 0.743791
O O12 0.735155 0.737125 0.866662
O O13 0.574031 0.838123 0.835917
O O14 0.500000 0.753964 0.000000
O O15 0.500000 0.237063 0.500000
O O16 0.000000 0.424249 0.500000
#
# Coordination Sequence:
#
# PCOD9330953 Si02
#       6
#     8   8   8   8   8   8
#     4  10  22  40  63  91 126 165 208 259 313 372
#     4  11  23  40  64  90 120 159 202 256 310 366
#     4  11  22  40  62  87 121 159 205 258 312 368
#     4  10  21  38  62  92 127 165 210 256 309 374
#     4  10  21  38  61  91 127 167 208 256 312 370
#     4  10  22  41  65  93 125 165 208 258 316 374
#
# _framework density 23.594200000000001
#
# number of rings (size 3 to 8) (size 9 to 14) (size 15 to 20)
#    0.000    1.667    1.667    3.000    2.333    5.667 
#    0.000    1.667    0.000    0.000    0.000    0.000 
#    0.000    0.000    0.000    0.000    0.000    0.000 
#
# Total GULP energy -134001.379069 kJ/mol
# GULP energy per Si atom -5583.390795 kJ/mol
# Density = 2.354050 g / cm^3
# Si number density = 23.594200 Si / 1000 Ang^3
#
#
#
# Elastic Constant Matrix: (Units=GPa)
#
#
# Indices 1 2 3 4 5 6 
#
# 1 277.3632 8.4560 110.1927 -0.0001 0.0000 0.0001
# 2 8.4560 82.0145 6.5341 0.0000 0.0000 0.0001
# 3 110.1927 6.5341 199.5126 -0.0008 0.0002 0.0009
# 4 -0.0001 0.0000 -0.0008 21.4317 0.0001 0.0003
# 5 0.0000 0.0000 0.0002 0.0001 50.7984 -0.0001
# 6 0.0001 0.0001 0.0009 0.0003 -0.0001 23.4024
#
#
#
# Elastic Compliance Matrix: (Units=1/GPa)
#
#
# Indices 1 2 3 4 5 6 
#
# 1 0.004625 -0.000274 -0.002545 0.000000 0.000000 0.000000
# 2 -0.000274 0.012241 -0.000250 0.000000 0.000000 0.000000
# 3 -0.002545 -0.000250 0.006426 0.000000 0.000000 0.000000
# 4 0.000000 0.000000 0.000000 0.046660 0.000000 -0.000001
# 5 0.000000 0.000000 0.000000 0.000000 0.019686 0.000000
# 6 0.000000 0.000000 0.000000 -0.000001 0.000000 0.042731
#
#
# Mechanical properties :
#
#
# Convention : Reuss Voigt Hill
#
# Bulk Modulus (GPa) = 58.29449 89.91730 74.10590
# Shear Modulus (GPa) = 34.66806 48.04030 41.35418
#
# Velocity S-wave (km/s) = 3.83736 4.51722 4.19110
# Velocity P-wave (km/s) = 6.66293 8.08701 7.40926
#
# Compressibility (1/GPa) = 0.01715428
#
# Stress axis : x y z
#
# Youngs Moduli (GPa) = 216.21546 81.69196 155.61121
#
# Poissons Ratio (x) = 0.02239 0.39610
# Poissons Ratio (y) = 0.05926 0.03883
# Poissons Ratio (z) = 0.55037 0.02038
#
# Static dielectric constant tensor:
#      x y z
#    x 1.896070 0.000000 0.000000 
#    y 0.000000 2.020210 0.000000 
#    z 0.000000 0.000000 1.816980 
# 
# From -- ./inp_files/7364.got.cif
#   From: 2010.05.17/outbox.cif.g08.bks.cpg/sg23_4_cif.got.tgz:7364.got - 2010.06.04 12:02:01.
