data_PCOD9330514
_publ_section_title
;
Structure prediction by ZEFSAII (Michael W. Deem and Ramdas Pophale) SiO2 
 PCOD9330514
Probable space group: I 2 2 2
;
_chemical_formula_sum "Si O2"
_cell_formula_units_Z 42
_cell_length_a 21.501450
_cell_length_b 21.502909
_cell_length_c 5.108387
_cell_angle_alpha 90.000000
_cell_angle_beta 90.000000
_cell_angle_gamma 90.000000
_cell_volume 2361.830663
_symmetry_space_group_name_H-M "I 2 2 2"
_symmetry_group_IT_number 23
_symmetry_cell_setting 'orthorhombic'
loop_
_space_group_symop_operation_xyz
x,y,z
-x,-y,z
x,-y,-z
-x,y,-z
1/2+x,1/2+y,1/2+z
1/2-x,1/2-y,1/2+z
1/2+x,1/2-y,1/2-z
1/2-x,1/2+y,1/2-z
loop_
_atom_site_type_symbol
_atom_site_label
_atom_site_fract_x
_atom_site_fract_y
_atom_site_fract_z
Si Si1 0.333628 0.261934 0.880825
Si Si2 0.735553 0.042130 0.257272
Si Si3 0.409078 0.936351 0.342907
Si Si4 0.000000 0.500000 0.500000
Si Si5 0.285910 0.326116 0.379892
Si Si6 0.039661 0.694639 0.768122
O O1 0.312661 0.312942 0.666868
O O2 0.281557 0.207534 0.866183
O O3 0.399955 0.233627 0.813747
O O4 0.328448 0.291488 0.167241
O O5 0.664821 0.063447 0.322600
O O6 0.776010 0.102564 0.196277
O O7 0.757248 0.000000 0.500000
O O8 0.731652 0.000000 0.000000
O O9 0.434230 0.868503 0.412528
O O10 0.427342 0.000000 0.500000
O O11 0.447422 0.949620 0.082974
O O12 0.000000 0.685265 0.500000
O O13 0.000000 0.725966 0.000000
#
# Coordination Sequence:
#
# PCOD9330514 Si02
#       6
#     8   8   8   2   8   8
#     4  10  21  37  58  80 106 152 188 231 289 330
#     4  11  22  36  56  83 112 144 188 238 274 320
#     4  11  23  34  48  72 111 156 198 228 263 301
#     4  12  18  36  44  66 104 164 194 216 262 284
#     4  10  20  38  58  78 111 144 191 233 284 341
#     4  12  24  38  56  81 114 149 199 238 270 328
#
# _framework density 17.782817000000001
#
# number of rings (size 3 to 8) (size 9 to 14) (size 15 to 20)
#    0.000    1.143    3.810    3.714    0.000    0.000 
#    0.000    0.000    0.000    0.000    0.000    0.000 
#    0.000   53.333    0.000    0.000    0.000    0.000 
#
# Total GULP energy -116979.150576 kJ/mol
# GULP energy per Si atom -5570.435742 kJ/mol
# Density = 1.774234 g / cm^3
# Si number density = 17.782817 Si / 1000 Ang^3
#
#
#
# Elastic Constant Matrix: (Units=GPa)
#
#
# Indices 1 2 3 4 5 6 
#
# 1 61.4127 12.4686 -5.3247 0.0000 0.0000 0.0000
# 2 12.4686 51.5516 -12.4961 0.0000 0.0000 0.0000
# 3 -5.3247 -12.4961 48.0981 0.0000 0.0000 0.0000
# 4 0.0000 0.0000 0.0000 57.6906 0.0000 0.0000
# 5 0.0000 0.0000 0.0000 0.0000 14.7862 0.0000
# 6 0.0000 0.0000 0.0000 0.0000 0.0000 37.5357
#
#
#
# Elastic Compliance Matrix: (Units=1/GPa)
#
#
# Indices 1 2 3 4 5 6 
#
# 1 0.017159 -0.003938 0.000877 0.000000 0.000000 0.000000
# 2 -0.003938 0.021605 0.005177 0.000000 0.000000 0.000000
# 3 0.000877 0.005177 0.022233 0.000000 0.000000 0.000000
# 4 0.000000 0.000000 0.000000 0.017334 0.000000 0.000000
# 5 0.000000 0.000000 0.000000 0.000000 0.067631 0.000000
# 6 0.000000 0.000000 0.000000 0.000000 0.000000 0.026641
#
#
# Mechanical properties :
#
#
# Convention : Reuss Voigt Hill
#
# Bulk Modulus (GPa) = 15.33050 16.70643 16.01846
# Shear Modulus (GPa) = 26.30007 33.09680 29.69844
#
# Velocity S-wave (km/s) = 3.84990 4.31881 4.09107
# Velocity P-wave (km/s) = 5.32935 5.85530 5.59850
#
# Compressibility (1/GPa) = 0.06522945
#
# Stress axis : x y z
#
# Youngs Moduli (GPa) = 58.27934 46.28479 44.97826
#
# Poissons Ratio (x) = 0.18225 -0.03943
# Poissons Ratio (y) = 0.22948 -0.23286
# Poissons Ratio (z) = -0.05108 -0.23963
#
# Static dielectric constant tensor:
#      x y z
#    x 1.549410 0.000000 0.000000 
#    y 0.000000 1.625430 0.000000 
#    z 0.000000 0.000000 1.709490 
# 
# From -- ./inp_files/3848.got.cif
#   From: 2010.05.17/outbox.cif.g08.bks.cpg/sg23_2_cif.got.tgz:3848.got - 2010.06.04 12:02:01.
