data_PCOD9330070
_publ_section_title
;
Structure prediction by ZEFSAII (Michael W. Deem and Ramdas Pophale) SiO2 
 PCOD9330070
Probable space group: I 2 2 2
;
_chemical_formula_sum "Si O2"
_cell_formula_units_Z 58
_cell_length_a 11.170768
_cell_length_b 8.897101
_cell_length_c 29.360251
_cell_angle_alpha 90.000000
_cell_angle_beta 90.000000
_cell_angle_gamma 90.000000
_cell_volume 2918.040512
_symmetry_space_group_name_H-M "I 2 2 2"
_symmetry_group_IT_number 23
_symmetry_cell_setting 'orthorhombic'
loop_
_space_group_symop_operation_xyz
x,y,z
-x,-y,z
x,-y,-z
-x,y,-z
1/2+x,1/2+y,1/2+z
1/2-x,1/2-y,1/2+z
1/2+x,1/2-y,1/2-z
1/2-x,1/2+y,1/2-z
loop_
_atom_site_type_symbol
_atom_site_label
_atom_site_fract_x
_atom_site_fract_y
_atom_site_fract_z
Si Si1 0.079464 0.750396 0.254661
Si Si2 0.144871 0.673358 0.003644
Si Si3 0.812943 0.347174 0.569852
Si Si4 0.241696 0.507159 0.724140
Si Si5 0.571966 0.657351 0.671017
Si Si6 0.564057 0.161007 0.160418
Si Si7 0.500000 0.000000 0.000000
Si Si8 0.619604 0.599198 0.575153
O O1 0.149605 0.593789 0.248499
O O2 0.990394 0.753784 0.211570
O O3 0.020909 0.749361 0.304749
O O4 0.159603 0.899949 0.251043
O O5 0.215197 0.737721 0.047111
O O6 0.182168 0.500000 0.000000
O O7 0.170822 0.794328 0.964057
O O8 0.000000 0.673519 0.000000
O O9 0.886497 0.281087 0.612573
O O10 0.910423 0.404458 0.532743
O O11 0.727902 0.485069 0.586810
O O12 0.300121 0.385409 0.690696
O O13 0.176595 0.627205 0.692675
O O14 0.500000 0.500000 0.667646
O O15 0.416952 0.298158 0.618524
O O16 0.500000 0.000000 0.151136
O O17 0.500000 0.500000 0.562086
#
# Coordination Sequence:
#
# PCOD9330070 Si02
#       8
#     8   8   8   8   8   8   2   8
#     4  10  21  36  62  90 129 171 214 266 322 382
#     4  11  24  41  68  97 139 169 204 274 359 408
#     4  12  22  40  71  99 128 171 229 280 325 396
#     4  10  19  37  61  85 121 171 212 260 324 371
#     4   9  19  34  60  91 122 156 218 269 308 374
#     4  10  21  37  63  97 127 164 225 276 318 377
#     4  12  24  36  68 108 120 160 230 282 316 384
#     4  11  20  38  71 101 118 168 230 280 320 383
#
# _framework density 19.876353000000002
#
# number of rings (size 3 to 8) (size 9 to 14) (size 15 to 20)
#    0.000    1.517    4.828    0.828    0.000    0.000 
#    0.000    0.345   39.448    1.655    0.000    0.000 
#    0.000    0.000    0.000    0.000    0.000    0.000 
#
# Total GULP energy -161555.305606 kJ/mol
# GULP energy per Si atom -5570.872607 kJ/mol
# Density = 1.983111 g / cm^3
# Si number density = 19.876353 Si / 1000 Ang^3
#
#
#
# Elastic Constant Matrix: (Units=GPa)
#
#
# Indices 1 2 3 4 5 6 
#
# 1 78.0400 16.2085 33.2072 0.0000 0.0000 0.0000
# 2 16.2085 53.8185 45.5774 0.0000 0.0000 0.0000
# 3 33.2072 45.5774 113.2550 0.0000 0.0000 0.0000
# 4 0.0000 0.0000 0.0000 20.6565 0.0000 0.0000
# 5 0.0000 0.0000 0.0000 0.0000 -10.9329 0.0000
# 6 0.0000 0.0000 0.0000 0.0000 0.0000 29.5703
#
#
#
# Elastic Compliance Matrix: (Units=1/GPa)
#
#
# Indices 1 2 3 4 5 6 
#
# 1 0.014690 -0.001178 -0.003833 0.000000 0.000000 0.000000
# 2 -0.001178 0.028282 -0.011036 0.000000 0.000000 0.000000
# 3 -0.003833 -0.011036 0.014395 0.000000 0.000000 0.000000
# 4 0.000000 0.000000 0.000000 0.048411 0.000000 0.000000
# 5 0.000000 0.000000 0.000000 0.000000 -0.091467 0.000000
# 6 0.000000 0.000000 0.000000 0.000000 0.000000 0.033818
#
#
# Mechanical properties :
#
#
# Convention : Reuss Voigt Hill
#
# Bulk Modulus (GPa) = 39.56948 48.34443 43.95695
# Shear Modulus (GPa) = 56.40421 17.86683 37.13552
#
# Velocity S-wave (km/s) = 5.33284 3.00142 4.32710
# Velocity P-wave (km/s) = 7.60723 6.03214 6.86501
#
# Compressibility (1/GPa) = 0.02527200
#
# Stress axis : x y z
#
# Youngs Moduli (GPa) = 68.07530 35.35827 69.46951
#
# Poissons Ratio (x) = 0.04165 0.26628
# Poissons Ratio (y) = 0.08019 0.76668
# Poissons Ratio (z) = 0.26094 0.39022
#
# Static dielectric constant tensor:
#      x y z
#    x 1.806870 0.000000 0.000000 
#    y 0.000000 1.723440 0.000000 
#    z 0.000000 0.000000 1.735200 
# 
# From -- ./inp_files/29465.got.cif
#   From: 2010.05.17/outbox.cif.g08.bks.cpg/sg23_15_cif.got.tgz:29465.got - 2010.06.04 12:02:01.
