data_PCOD9330636
_publ_section_title
;
Structure prediction by ZEFSAII (Michael W. Deem and Ramdas Pophale) SiO2 
 PCOD9330636
Probable space group: I 2 2 2
;
_chemical_formula_sum "Si O2"
_cell_formula_units_Z 34
_cell_length_a 5.163587
_cell_length_b 22.033475
_cell_length_c 12.342464
_cell_angle_alpha 90.000000
_cell_angle_beta 90.000000
_cell_angle_gamma 90.000000
_cell_volume 1404.223915
_symmetry_space_group_name_H-M "I 2 2 2"
_symmetry_group_IT_number 23
_symmetry_cell_setting 'orthorhombic'
loop_
_space_group_symop_operation_xyz
x,y,z
-x,-y,z
x,-y,-z
-x,y,-z
1/2+x,1/2+y,1/2+z
1/2-x,1/2-y,1/2+z
1/2+x,1/2-y,1/2-z
1/2-x,1/2+y,1/2-z
loop_
_atom_site_type_symbol
_atom_site_label
_atom_site_fract_x
_atom_site_fract_y
_atom_site_fract_z
Si Si1 0.757221 0.578195 0.071030
Si Si2 0.118411 0.210911 0.605620
Si Si3 0.500000 0.000000 0.000000
Si Si4 0.777646 0.413622 0.681746
Si Si5 0.710221 0.667614 0.706644
O O1 0.780484 0.651212 0.082202
O O2 0.748429 0.556618 0.197126
O O3 0.500000 0.566275 0.000000
O O4 0.000000 0.559172 0.000000
O O5 0.270700 0.264445 0.661881
O O6 0.000000 0.240123 0.500000
O O7 0.881218 0.181250 0.671817
O O8 0.667821 0.040792 0.083326
O O9 0.522444 0.373482 0.660508
O O10 0.024264 0.368491 0.691432
#
# Coordination Sequence:
#
# PCOD9330636 Si02
#       5
#     8   8   2   8   8
#     4  10  20  39  70 106 140 181 227 303 376 449
#     4  10  21  39  67 101 150 185 221 284 369 448
#     4  12  32  58  74 102 148 222 264 344 356 436
#     4  11  26  48  71  99 145 197 264 307 380 422
#     4  11  24  43  67 108 144 192 247 300 355 472
#
# _framework density 24.212664
#
# number of rings (size 3 to 8) (size 9 to 14) (size 15 to 20)
#    0.000    1.412    0.000    7.059    1.647    6.588 
#    4.235    0.588    0.000    5.647    0.000    0.000 
#    0.000    0.000    0.000    0.000    0.000    0.000 
#
# Total GULP energy -95111.785523 kJ/mol
# GULP energy per Si atom -5594.810913 kJ/mol
# Density = 2.415756 g / cm^3
# Si number density = 24.212664 Si / 1000 Ang^3
#
#
#
# Elastic Constant Matrix: (Units=GPa)
#
#
# Indices 1 2 3 4 5 6 
#
# 1 153.0659 50.1722 41.4297 0.0001 0.0000 0.0000
# 2 50.1722 110.4068 54.8997 0.0001 0.0000 0.0000
# 3 41.4297 54.8997 155.0413 0.0007 0.0000 0.0000
# 4 0.0001 0.0001 0.0007 43.8102 0.0001 0.0001
# 5 0.0000 0.0000 0.0000 0.0001 32.6649 0.0000
# 6 0.0000 0.0000 0.0000 0.0001 0.0000 54.3076
#
#
#
# Elastic Compliance Matrix: (Units=1/GPa)
#
#
# Indices 1 2 3 4 5 6 
#
# 1 0.007804 -0.003046 -0.001007 0.000000 0.000000 0.000000
# 2 -0.003046 0.012182 -0.003500 0.000000 0.000000 0.000000
# 3 -0.001007 -0.003500 0.007958 0.000000 0.000000 0.000000
# 4 0.000000 0.000000 0.000000 0.022826 0.000000 0.000000
# 5 0.000000 0.000000 0.000000 0.000000 0.030614 0.000000
# 6 0.000000 0.000000 0.000000 0.000000 0.000000 0.018414
#
#
# Mechanical properties :
#
#
# Convention : Reuss Voigt Hill
#
# Bulk Modulus (GPa) = 77.88537 79.05747 78.47142
# Shear Modulus (GPa) = 41.95290 44.29070 43.12180
#
# Velocity S-wave (km/s) = 4.16707 4.28160 4.22472
# Velocity P-wave (km/s) = 7.44242 7.56075 7.50182
#
# Compressibility (1/GPa) = 0.01283938
#
# Stress axis : x y z
#
# Youngs Moduli (GPa) = 128.13961 82.09060 125.65715
#
# Poissons Ratio (x) = 0.25002 0.12652
# Poissons Ratio (y) = 0.39027 0.43975
# Poissons Ratio (z) = 0.12902 0.28729
#
# Static dielectric constant tensor:
#      x y z
#    x -8.435840 0.000000 0.000000 
#    y 0.000000 1.892480 0.000000 
#    z 0.000000 0.000000 2.090810 
# 
# From -- ./inp_files/13845.got.cif
#   From: 2010.05.17/outbox.cif.g08.bks.cpg/sg23_7_cif.got.tgz:13845.got - 2010.06.04 12:02:01.
