data_PCOD9330179
_publ_section_title
;
Structure prediction by ZEFSAII (Michael W. Deem and Ramdas Pophale) SiO2 
 PCOD9330179
Probable space group: I 2 2 2
;
_chemical_formula_sum "Si O2"
_cell_formula_units_Z 40
_cell_length_a 27.432516
_cell_length_b 7.328496
_cell_length_c 8.993830
_cell_angle_alpha 90.000000
_cell_angle_beta 90.000000
_cell_angle_gamma 90.000000
_cell_volume 1808.111343
_symmetry_space_group_name_H-M "I 2 2 2"
_symmetry_group_IT_number 23
_symmetry_cell_setting 'orthorhombic'
loop_
_space_group_symop_operation_xyz
x,y,z
-x,-y,z
x,-y,-z
-x,y,-z
1/2+x,1/2+y,1/2+z
1/2-x,1/2-y,1/2+z
1/2+x,1/2-y,1/2-z
1/2-x,1/2+y,1/2-z
loop_
_atom_site_type_symbol
_atom_site_label
_atom_site_fract_x
_atom_site_fract_y
_atom_site_fract_z
Si Si1 0.640481 0.333218 0.891200
Si Si2 0.807547 0.767292 0.121150
Si Si3 0.088802 0.910005 0.848107
Si Si4 0.050000 0.211047 0.441630
Si Si5 0.275279 0.318456 0.310354
O O1 0.611422 0.425844 0.752701
O O2 0.688896 0.249004 0.820813
O O3 0.655910 0.500000 0.000000
O O4 0.600664 0.220338 0.985807
O O5 0.865780 0.775479 0.117125
O O6 0.779784 0.670538 0.254719
O O7 0.792474 0.976892 0.154437
O O8 0.785674 0.712175 0.962139
O O9 0.052977 0.805300 0.736145
O O10 0.070198 0.000000 0.000000
O O11 0.000000 0.294181 0.500000
O O12 0.049638 0.000000 0.500000
#
# Coordination Sequence:
#
# PCOD9330179 Si02
#       5
#     8   8   8   8   8
#     4   8  15  26  42  57  89 120 153 186 240 274
#     4  10  20  31  46  68  96 127 171 195 240 285
#     4   9  14  28  42  59  90 121 150 199 234 283
#     4   8  15  25  40  61  85 118 161 183 234 294
#     4  10  20  31  45  68  94 129 169 197 235 291
#
# _framework density 22.122529
#
# number of rings (size 3 to 8) (size 9 to 14) (size 15 to 20)
#    0.000    3.400    4.000    0.000    8.400    0.000 
#    0.000    8.000    0.000    0.000    0.000    0.000 
#    0.000    3.200    0.000    3.600    0.000    0.000 
#
# Total GULP energy -111394.098166 kJ/mol
# GULP energy per Si atom -5569.704908 kJ/mol
# Density = 2.207218 g / cm^3
# Si number density = 22.122529 Si / 1000 Ang^3
#
#
#
# Elastic Constant Matrix: (Units=GPa)
#
#
# Indices 1 2 3 4 5 6 
#
# 1 96.0997 13.2134 52.1386 0.0000 0.0000 0.0000
# 2 13.2134 37.3167 10.7331 0.0000 0.0000 0.0000
# 3 52.1386 10.7331 167.3284 0.0000 0.0000 0.0000
# 4 0.0000 0.0000 0.0000 6.7009 0.0000 0.0000
# 5 0.0000 0.0000 0.0000 0.0000 25.0556 0.0000
# 6 0.0000 0.0000 0.0000 0.0000 0.0000 -3.5098
#
#
#
# Elastic Compliance Matrix: (Units=1/GPa)
#
#
# Indices 1 2 3 4 5 6 
#
# 1 0.012954 -0.003490 -0.003813 0.000000 0.000000 0.000000
# 2 -0.003490 0.028242 -0.000724 0.000000 0.000000 0.000000
# 3 -0.003813 -0.000724 0.007211 0.000000 0.000000 0.000000
# 4 0.000000 0.000000 0.000000 0.149233 0.000000 0.000000
# 5 0.000000 0.000000 0.000000 0.000000 0.039911 0.000000
# 6 0.000000 0.000000 0.000000 0.000000 0.000000 -0.284917
#
#
# Mechanical properties :
#
#
# Convention : Reuss Voigt Hill
#
# Bulk Modulus (GPa) = 30.90912 50.32387 40.61649
# Shear Modulus (GPa) = -243.56614 20.62666 -111.46974
#
# Velocity S-wave (km/s) = -10.50418 3.05681 -7.10611
# Velocity P-wave (km/s) = 11.53754 5.93767 6.99496
#
# Compressibility (1/GPa) = 0.03235291
#
# Stress axis : x y z
#
# Youngs Moduli (GPa) = 77.19453 35.40856 138.68296
#
# Poissons Ratio (x) = 0.12359 0.52874
# Poissons Ratio (y) = 0.26944 0.10040
# Poissons Ratio (z) = 0.29431 0.02563
#
# Static dielectric constant tensor:
#      x y z
#    x 1.929860 0.000000 0.000000 
#    y 0.000000 1.937830 0.000000 
#    z 0.000000 0.000000 1.943990 
# 
# From -- ./inp_files/12956.got.cif
#   From: 2010.05.17/outbox.cif.g08.bks.cpg/sg23_7_cif.got.tgz:12956.got - 2010.06.04 12:02:01.
