data_PCOD9330625
_publ_section_title
;
Structure prediction by ZEFSAII (Michael W. Deem and Ramdas Pophale) SiO2 
 PCOD9330625
Probable space group: I 2 2 2
;
_chemical_formula_sum "Si O2"
_cell_formula_units_Z 52
_cell_length_a 8.170871
_cell_length_b 16.588884
_cell_length_c 17.219467
_cell_angle_alpha 90.000000
_cell_angle_beta 90.000000
_cell_angle_gamma 90.000000
_cell_volume 2334.023523
_symmetry_space_group_name_H-M "I 2 2 2"
_symmetry_group_IT_number 23
_symmetry_cell_setting 'orthorhombic'
loop_
_space_group_symop_operation_xyz
x,y,z
-x,-y,z
x,-y,-z
-x,y,-z
1/2+x,1/2+y,1/2+z
1/2-x,1/2-y,1/2+z
1/2+x,1/2-y,1/2-z
1/2-x,1/2+y,1/2-z
loop_
_atom_site_type_symbol
_atom_site_label
_atom_site_fract_x
_atom_site_fract_y
_atom_site_fract_z
Si Si1 0.545098 0.129898 0.112909
Si Si2 0.463102 0.847642 0.399908
Si Si3 0.500000 0.706394 0.500000
Si Si4 0.262150 0.819714 0.248102
Si Si5 0.556723 0.305913 0.157328
Si Si6 0.750848 0.583059 0.535932
Si Si7 0.761858 0.087143 0.532653
O O1 0.672933 0.119143 0.182416
O O2 0.486863 0.222729 0.120445
O O3 0.383585 0.075535 0.104159
O O4 0.648679 0.121112 0.035390
O O5 0.557111 0.768776 0.433906
O O6 0.392689 0.830125 0.316817
O O7 0.307453 0.865914 0.456299
O O8 0.597402 0.916833 0.413541
O O9 0.612384 0.647226 0.549604
O O10 0.292416 0.731263 0.208696
O O11 0.084104 0.834925 0.283717
O O12 0.610055 0.366613 0.088718
O O13 0.690896 0.500000 0.500000
O O14 0.811241 0.000000 0.500000
#
# Coordination Sequence:
#
# PCOD9330625 Si02
#       7
#     8   8   4   8   8   8   8
#     4   9  21  37  60  89 125 170 219 275 332 413
#     4  10  20  39  67 100 130 184 223 285 342 415
#     4  10  21  34  65  96 130 160 224 272 321 404
#     4  10  22  38  65  96 133 168 234 288 348 402
#     4  10  21  38  66  97 130 176 230 298 340 405
#     4  11  21  39  61  93 129 170 214 269 337 407
#     4  10  21  40  64  97 139 180 234 288 348 422
#
# _framework density 22.279123999999999
#
# number of rings (size 3 to 8) (size 9 to 14) (size 15 to 20)
#    0.923    1.231    0.000    5.769    2.154    1.846 
#    0.000    5.385    0.000    0.000    0.000    0.000 
#    0.000    0.000    0.000    0.000    0.000    0.000 
#
# Total GULP energy -144735.755371 kJ/mol
# GULP energy per Si atom -5566.759822 kJ/mol
# Density = 2.222842 g / cm^3
# Si number density = 22.279124 Si / 1000 Ang^3
#
#
#
# Elastic Constant Matrix: (Units=GPa)
#
#
# Indices 1 2 3 4 5 6 
#
# 1 88.7403 31.8034 30.7097 0.0000 0.0000 0.0000
# 2 31.8034 87.7543 26.5934 0.0000 0.0000 0.0000
# 3 30.7097 26.5934 99.5453 0.0000 0.0000 0.0000
# 4 0.0000 0.0000 0.0000 20.4139 0.0000 0.0000
# 5 0.0000 0.0000 0.0000 0.0000 37.9318 0.0000
# 6 0.0000 0.0000 0.0000 0.0000 0.0000 246.3324
#
#
#
# Elastic Compliance Matrix: (Units=1/GPa)
#
#
# Indices 1 2 3 4 5 6 
#
# 1 0.013820 -0.004044 -0.003183 0.000000 0.000000 0.000000
# 2 -0.004044 0.013583 -0.002381 0.000000 0.000000 0.000000
# 3 -0.003183 -0.002381 0.011664 0.000000 0.000000 0.000000
# 4 0.000000 0.000000 0.000000 0.048986 0.000000 0.000000
# 5 0.000000 0.000000 0.000000 0.000000 0.026363 0.000000
# 6 0.000000 0.000000 0.000000 0.000000 0.000000 0.004060
#
#
# Mechanical properties :
#
#
# Convention : Reuss Voigt Hill
#
# Bulk Modulus (GPa) = 50.37762 50.47255 50.42508
# Shear Modulus (GPa) = 34.64826 73.39784 54.02305
#
# Velocity S-wave (km/s) = 3.94787 5.74597 4.92960
# Velocity P-wave (km/s) = 6.59105 8.16856 7.42184
#
# Compressibility (1/GPa) = 0.01985008
#
# Stress axis : x y z
#
# Youngs Moduli (GPa) = 72.36086 73.62389 85.73575
#
# Poissons Ratio (x) = 0.29772 0.27290
# Poissons Ratio (y) = 0.29261 0.20414
# Poissons Ratio (z) = 0.23033 0.17530
#
# Static dielectric constant tensor:
#      x y z
#    x 1.994990 0.000000 0.000000 
#    y 0.000000 1.918550 0.000000 
#    z 0.000000 0.000000 1.793810 
# 
# From -- ./inp_files/23856.got.cif
#   From: 2010.05.17/outbox.cif.g08.bks.cpg/sg23_12_cif.got.tgz:23856.got - 2010.06.04 12:02:01.
