data_PCOD9330251
_publ_section_title
;
Structure prediction by ZEFSAII (Michael W. Deem and Ramdas Pophale) SiO2 
 PCOD9330251
Probable space group: I 2 2 2
;
_chemical_formula_sum "Si O2"
_cell_formula_units_Z 64
_cell_length_a 11.299090
_cell_length_b 13.279390
_cell_length_c 19.668622
_cell_angle_alpha 90.000000
_cell_angle_beta 90.000000
_cell_angle_gamma 90.000000
_cell_volume 2951.178836
_symmetry_space_group_name_H-M "I 2 2 2"
_symmetry_group_IT_number 23
_symmetry_cell_setting 'orthorhombic'
loop_
_space_group_symop_operation_xyz
x,y,z
-x,-y,z
x,-y,-z
-x,y,-z
1/2+x,1/2+y,1/2+z
1/2-x,1/2-y,1/2+z
1/2+x,1/2-y,1/2-z
1/2-x,1/2+y,1/2-z
loop_
_atom_site_type_symbol
_atom_site_label
_atom_site_fract_x
_atom_site_fract_y
_atom_site_fract_z
Si Si1 0.192553 0.805601 0.793922
Si Si2 0.213905 0.891168 0.032652
Si Si3 0.142368 0.205579 0.500742
Si Si4 0.543942 0.385786 0.645052
Si Si5 0.909692 0.188456 0.646903
Si Si6 0.248373 0.026838 0.763678
Si Si7 0.338124 0.381046 0.142757
Si Si8 0.422040 0.908212 0.141265
O O1 0.169985 0.796901 0.712973
O O2 0.270879 0.716910 0.825308
O O3 0.063351 0.817540 0.828837
O O4 0.247446 0.917645 0.798663
O O5 0.277951 0.805677 0.987847
O O6 0.100934 0.851043 0.074151
O O7 0.309915 0.909001 0.091845
O O8 0.190120 0.000000 0.000000
O O9 0.160590 0.169294 0.422924
O O10 0.169623 0.128769 0.561471
O O11 0.000000 0.225676 0.500000
O O12 0.500000 0.500000 0.633112
O O13 0.645001 0.404224 0.702355
O O14 0.973633 0.297664 0.637004
O O15 0.021262 0.117036 0.657864
O O16 0.220354 0.027213 0.683967
O O17 0.374067 0.073030 0.783004
O O18 0.500000 0.000000 0.118770
#
# Coordination Sequence:
#
# PCOD9330251 Si02
#       8
#     8   8   8   8   8   8   8   8
#     4  11  21  36  62  83 113 154 188 247 291 329
#     4  10  22  32  51  78 116 156 187 224 285 359
#     4   9  22  36  52  80 118 150 187 233 286 342
#     4   9  20  36  51  78 112 144 190 231 280 340
#     4  10  20  36  56  82 114 151 190 238 286 344
#     4  10  20  35  56  85 113 144 193 240 285 346
#     4  11  21  37  58  83 116 153 189 235 294 344
#     4  10  20  34  52  82 117 148 191 235 281 344
#
# _framework density 21.686250000000001
#
# number of rings (size 3 to 8) (size 9 to 14) (size 15 to 20)
#    0.000    2.000    2.500    0.750   10.500    0.250 
#    0.000    0.625    0.000    2.250    0.000    0.000 
#    0.000    0.000    0.000    0.000    0.000    0.000 
#
# Total GULP energy -178495.473651 kJ/mol
# GULP energy per Si atom -5577.983552 kJ/mol
# Density = 2.163689 g / cm^3
# Si number density = 21.686250 Si / 1000 Ang^3
#
#
#
# Elastic Constant Matrix: (Units=GPa)
#
#
# Indices 1 2 3 4 5 6 
#
# 1 41.8038 10.3929 21.4168 0.0000 0.0000 0.0000
# 2 10.3929 49.3311 -3.4860 0.0000 0.0000 0.0000
# 3 21.4168 -3.4860 75.6076 0.0000 0.0000 0.0000
# 4 0.0000 0.0000 0.0000 26.1123 0.0000 0.0000
# 5 0.0000 0.0000 0.0000 0.0000 21.3870 0.0000
# 6 0.0000 0.0000 0.0000 0.0000 0.0000 18.8486
#
#
#
# Elastic Compliance Matrix: (Units=1/GPa)
#
#
# Indices 1 2 3 4 5 6 
#
# 1 0.030208 -0.006992 -0.008879 0.000000 0.000000 0.000000
# 2 -0.006992 0.021956 0.002993 0.000000 0.000000 0.000000
# 3 -0.008879 0.002993 0.015879 0.000000 0.000000 0.000000
# 4 0.000000 0.000000 0.000000 0.038296 0.000000 0.000000
# 5 0.000000 0.000000 0.000000 0.000000 0.046757 0.000000
# 6 0.000000 0.000000 0.000000 0.000000 0.000000 0.053054
#
#
# Mechanical properties :
#
#
# Convention : Reuss Voigt Hill
#
# Bulk Modulus (GPa) = 23.64785 24.82108 24.23447
# Shear Modulus (GPa) = 20.32492 22.49749 21.41120
#
# Velocity S-wave (km/s) = 3.06474 3.22438 3.14557
# Velocity P-wave (km/s) = 4.84269 5.03314 4.93884
#
# Compressibility (1/GPa) = 0.04228714
#
# Stress axis : x y z
#
# Youngs Moduli (GPa) = 33.10331 45.54639 62.97500
#
# Poissons Ratio (x) = 0.31844 0.55917
# Poissons Ratio (y) = 0.23145 -0.18847
# Poissons Ratio (z) = 0.29393 -0.13631
#
# Static dielectric constant tensor:
#      x y z
#    x 1.803590 0.000000 0.000000 
#    y 0.000000 1.849020 0.000000 
#    z 0.000000 0.000000 1.880120 
# 
# From -- ./inp_files/24431.got.cif
#   From: 2010.05.17/outbox.cif.g08.bks.cpg/sg23_13_cif.got.tgz:24431.got - 2010.06.04 12:02:01.
