data_PCOD9330133
_publ_section_title
;
Structure prediction by ZEFSAII (Michael W. Deem and Ramdas Pophale) SiO2 
 PCOD9330133
Probable space group: I 2 2 2
;
_chemical_formula_sum "Si O2"
_cell_formula_units_Z 48
_cell_length_a 18.005631
_cell_length_b 14.530387
_cell_length_c 9.092758
_cell_angle_alpha 90.000000
_cell_angle_beta 90.000000
_cell_angle_gamma 90.000000
_cell_volume 2378.927242
_symmetry_space_group_name_H-M "I 2 2 2"
_symmetry_group_IT_number 23
_symmetry_cell_setting 'orthorhombic'
loop_
_space_group_symop_operation_xyz
x,y,z
-x,-y,z
x,-y,-z
-x,y,-z
1/2+x,1/2+y,1/2+z
1/2-x,1/2-y,1/2+z
1/2+x,1/2-y,1/2-z
1/2-x,1/2+y,1/2-z
loop_
_atom_site_type_symbol
_atom_site_label
_atom_site_fract_x
_atom_site_fract_y
_atom_site_fract_z
Si Si1 0.500000 0.000000 0.261881
Si Si2 0.458895 0.804361 0.141390
Si Si3 0.830283 0.480802 0.164451
Si Si4 0.712602 0.148979 0.140528
Si Si5 0.500000 0.500000 0.000000
Si Si6 0.743330 0.671762 0.691667
Si Si7 0.000000 0.000000 0.000000
Si Si8 0.423103 0.618179 0.253331
O O1 0.504007 0.097895 0.178822
O O2 0.419167 0.002915 0.337436
O O3 0.373018 0.824752 0.109165
O O4 0.457861 0.721400 0.257766
O O5 0.500000 0.766584 0.000000
O O6 0.792603 0.550380 0.281164
O O7 0.809197 0.380883 0.224363
O O8 0.802471 0.500000 0.000000
O O9 0.743760 0.222258 0.257817
O O10 0.751997 0.156493 0.983322
O O11 0.451061 0.563653 0.109016
O O12 0.665319 0.630309 0.747130
O O13 0.949694 0.062041 0.894254
#
# Coordination Sequence:
#
# PCOD9330133 Si02
#       8
#     4   8   8   8   2   8   2   8
#     4  10  22  40  64  96 137 165 214 266 323 387
#     4  10  19  39  64  96 122 172 210 263 322 396
#     4  11  23  41  65  95 129 173 215 265 328 385
#     4  10  23  41  61  93 134 162 220 264 325 388
#     4  10  20  46  68  92 124 168 212 290 312 412
#     4  11  23  42  63  95 126 176 210 274 322 399
#     4  10  24  46  56 100 120 172 212 282 320 392
#     4  10  23  41  67  92 129 163 224 264 343 382
#
# _framework density 20.177161000000002
#
# number of rings (size 3 to 8) (size 9 to 14) (size 15 to 20)
#    0.000    1.667    0.833    3.000    3.500    2.667 
#   15.000    0.000    0.000    0.000    0.000    0.000 
#    0.000    0.000    0.000    0.000    0.000    0.000 
#
# Total GULP energy -133910.926840 kJ/mol
# GULP energy per Si atom -5579.621952 kJ/mol
# Density = 2.013124 g / cm^3
# Si number density = 20.177161 Si / 1000 Ang^3
#
#
#
# Elastic Constant Matrix: (Units=GPa)
#
#
# Indices 1 2 3 4 5 6 
#
# 1 24.2207 26.8068 23.7792 0.0000 0.0000 0.0000
# 2 26.8068 98.3800 24.7545 0.0000 0.0000 0.0000
# 3 23.7792 24.7545 107.9379 0.0000 0.0000 0.0000
# 4 0.0000 0.0000 0.0000 -1.0107 0.0000 0.0000
# 5 0.0000 0.0000 0.0000 0.0000 19.6690 0.0000
# 6 0.0000 0.0000 0.0000 0.0000 0.0000 32.0736
#
#
#
# Elastic Compliance Matrix: (Units=1/GPa)
#
#
# Indices 1 2 3 4 5 6 
#
# 1 0.071106 -0.016379 -0.011909 0.000000 0.000000 0.000000
# 2 -0.016379 0.014560 0.000269 0.000000 0.000000 0.000000
# 3 -0.011909 0.000269 0.011826 0.000000 0.000000 0.000000
# 4 0.000000 0.000000 0.000000 -0.989379 0.000000 0.000000
# 5 0.000000 0.000000 0.000000 0.000000 0.050841 0.000000
# 6 0.000000 0.000000 0.000000 0.000000 0.000000 0.031178
#
#
# Mechanical properties :
#
#
# Convention : Reuss Voigt Hill
#
# Bulk Modulus (GPa) = 24.12204 42.35775 33.23989
# Shear Modulus (GPa) = -6.75665 20.49289 6.86812
#
# Velocity S-wave (km/s) = -1.83192 3.19038 1.84697
# Velocity P-wave (km/s) = 2.73980 5.88301 4.58892
#
# Compressibility (1/GPa) = 0.04145586
#
# Stress axis : x y z
#
# Youngs Moduli (GPa) = 14.06348 68.68194 84.55650
#
# Poissons Ratio (x) = 1.12492 1.00696
# Poissons Ratio (y) = 0.23034 -0.02276
# Poissons Ratio (z) = 0.16748 -0.01848
#
# Static dielectric constant tensor:
#      x y z
#    x 1.701000 0.000000 0.000000 
#    y 0.000000 1.732740 0.000000 
#    z 0.000000 0.000000 1.698880 
# 
# From -- ./inp_files/11105.got.cif
#   From: 2010.05.17/outbox.cif.g08.bks.cpg/sg23_6_cif.got.tgz:11105.got - 2010.06.04 12:02:01.
