data_PCOD9330687
_publ_section_title
;
Structure prediction by ZEFSAII (Michael W. Deem and Ramdas Pophale) SiO2 
 PCOD9330687
Probable space group: I 2 2 2
;
_chemical_formula_sum "Si O2"
_cell_formula_units_Z 32
_cell_length_a 12.748768
_cell_length_b 5.182383
_cell_length_c 19.864117
_cell_angle_alpha 90.000000
_cell_angle_beta 90.000000
_cell_angle_gamma 90.000000
_cell_volume 1312.402317
_symmetry_space_group_name_H-M "I 2 2 2"
_symmetry_group_IT_number 23
_symmetry_cell_setting 'orthorhombic'
loop_
_space_group_symop_operation_xyz
x,y,z
-x,-y,z
x,-y,-z
-x,y,-z
1/2+x,1/2+y,1/2+z
1/2-x,1/2-y,1/2+z
1/2+x,1/2-y,1/2-z
1/2-x,1/2+y,1/2-z
loop_
_atom_site_type_symbol
_atom_site_label
_atom_site_fract_x
_atom_site_fract_y
_atom_site_fract_z
Si Si1 0.890000 0.617089 0.393554
Si Si2 0.950218 0.245604 0.925378
Si Si3 0.237588 0.000000 0.000000
Si Si4 0.000000 0.000000 0.708008
Si Si5 0.689971 0.804188 0.227954
O O1 0.812206 0.678351 0.454124
O O2 0.831869 0.406204 0.347050
O O3 0.000000 0.500000 0.418619
O O4 0.924107 0.838946 0.341741
O O5 0.000000 0.500000 0.892868
O O6 0.832777 0.171834 0.948571
O O7 0.000000 0.000000 0.889457
O O8 0.000000 0.252563 0.000000
O O9 0.923438 0.810137 0.748338
O O10 0.769107 0.561033 0.233909
#
# Coordination Sequence:
#
# PCOD9330687 Si02
#       5
#     8   8   4   4   8
#     4  10  22  42  66 108 141 186 227 291 350 423
#     4   8  16  35  56  79 114 173 218 267 312 363
#     4  10  20  40  72  98 146 190 230 266 354 436
#     4  10  22  44  71 100 148 179 226 308 356 408
#     4  11  22  43  75  95 133 184 233 287 359 411
#
# _framework density 24.382766
#
# number of rings (size 3 to 8) (size 9 to 14) (size 15 to 20)
#    0.000    2.500    2.500    0.375    0.000    0.000 
#   36.000    5.000   16.500    4.500    0.000    0.000 
#    0.000    0.000    0.000    0.000    0.000    0.000 
#
# Total GULP energy -89131.170976 kJ/mol
# GULP energy per Si atom -5570.698186 kJ/mol
# Density = 2.432727 g / cm^3
# Si number density = 24.382766 Si / 1000 Ang^3
#
#
#
# Elastic Constant Matrix: (Units=GPa)
#
#
# Indices 1 2 3 4 5 6 
#
# 1 161.6257 75.3903 71.0868 0.0000 0.0000 0.0000
# 2 75.3903 201.2041 38.4034 0.0000 0.0000 0.0000
# 3 71.0868 38.4034 70.5172 0.0000 0.0000 0.0000
# 4 0.0000 0.0000 0.0000 -24.9367 0.0000 0.0000
# 5 0.0000 0.0000 0.0000 0.0000 -462.7660 0.0000
# 6 0.0000 0.0000 0.0000 0.0000 0.0000 180.4655
#
#
#
# Elastic Compliance Matrix: (Units=1/GPa)
#
#
# Indices 1 2 3 4 5 6 
#
# 1 0.012121 -0.002466 -0.010876 0.000000 0.000000 0.000000
# 2 -0.002466 0.006048 -0.000808 0.000000 0.000000 0.000000
# 3 -0.010876 -0.000808 0.025585 0.000000 0.000000 0.000000
# 4 0.000000 0.000000 0.000000 -0.040101 0.000000 0.000000
# 5 0.000000 0.000000 0.000000 0.000000 -0.002161 0.000000
# 6 0.000000 0.000000 0.000000 0.000000 0.000000 0.005541
#
#
# Mechanical properties :
#
#
# Convention : Reuss Voigt Hill
#
# Bulk Modulus (GPa) = 64.70722 89.23424 76.97073
# Shear Modulus (GPa) = 123.50762 -44.88303 39.31230
#
# Velocity S-wave (km/s) = 7.12486 -4.29507 4.01970
# Velocity P-wave (km/s) = 9.70982 3.47561 7.29247
#
# Compressibility (1/GPa) = 0.01545423
#
# Stress axis : x y z
#
# Youngs Moduli (GPa) = 82.50342 165.33739 39.08585
#
# Poissons Ratio (x) = 0.40768 0.42509
# Poissons Ratio (y) = 0.20343 0.03159
# Poissons Ratio (z) = 0.89729 0.13362
#
# Static dielectric constant tensor:
#      x y z
#    x 2.039680 0.000000 0.000000 
#    y 0.000000 46.189830 0.000000 
#    z 0.000000 0.000000 1.672830 
# 
# From -- ./inp_files/28185.got.cif
#   From: 2010.05.17/outbox.cif.g08.bks.cpg/sg23_15_cif.got.tgz:28185.got - 2010.06.04 12:02:01.
