data_PCOD9330672
_publ_section_title
;
Structure prediction by ZEFSAII (Michael W. Deem and Ramdas Pophale) SiO2 
 PCOD9330672
Probable space group: I 2 2 2
;
_chemical_formula_sum "Si O2"
_cell_formula_units_Z 54
_cell_length_a 26.338993
_cell_length_b 9.124811
_cell_length_c 10.763579
_cell_angle_alpha 90.000000
_cell_angle_beta 90.000000
_cell_angle_gamma 90.000000
_cell_volume 2586.900635
_symmetry_space_group_name_H-M "I 2 2 2"
_symmetry_group_IT_number 23
_symmetry_cell_setting 'orthorhombic'
loop_
_space_group_symop_operation_xyz
x,y,z
-x,-y,z
x,-y,-z
-x,y,-z
1/2+x,1/2+y,1/2+z
1/2-x,1/2-y,1/2+z
1/2+x,1/2-y,1/2-z
1/2-x,1/2+y,1/2-z
loop_
_atom_site_type_symbol
_atom_site_label
_atom_site_fract_x
_atom_site_fract_y
_atom_site_fract_z
Si Si1 0.326961 0.000000 0.000000
Si Si2 0.337579 0.364801 0.415002
Si Si3 0.605805 0.141984 0.190571
Si Si4 0.248403 0.040606 0.225134
Si Si5 0.992987 0.174060 0.641469
Si Si6 0.500000 0.000000 0.500000
Si Si7 0.927250 0.662366 0.808256
Si Si8 0.198963 0.311331 0.140639
O O1 0.362735 0.875552 0.061885
O O2 0.290264 0.042029 0.114478
O O3 0.358843 0.500000 0.500000
O O4 0.300284 0.445287 0.318157
O O5 0.379766 0.258430 0.356483
O O6 0.303888 0.266148 0.508626
O O7 0.560741 0.258347 0.183075
O O8 0.642801 0.181289 0.303946
O O9 0.587656 0.978477 0.225612
O O10 0.229072 0.205009 0.235079
O O11 0.274726 0.967664 0.343544
O O12 0.036908 0.238223 0.725632
O O13 0.000000 0.223730 0.500000
O O14 0.000000 0.000000 0.645709
O O15 0.462376 0.099398 0.418338
#
# Coordination Sequence:
#
# PCOD9330672 Si02
#       8
#     4   8   8   8   8   2   8   8
#     4  10  20  40  67  92 126 169 224 272 338 400
#     4  10  23  40  65  95 136 177 225 275 354 419
#     4  11  23  42  68  95 127 175 225 278 336 416
#     4  10  21  41  63  91 130 172 216 280 333 417
#     4  11  26  47  70 101 138 174 233 296 360 421
#     4  12  24  44  60 104 132 160 246 274 328 416
#     4  12  25  42  71  95 135 182 224 287 341 417
#     4  10  22  40  61  92 131 167 223 270 336 407
#
# _framework density 20.874400000000001
#
# number of rings (size 3 to 8) (size 9 to 14) (size 15 to 20)
#    0.000    1.333    3.704    1.778    8.296    0.593 
#    0.000    0.000    0.000    0.000    0.000    0.000 
#    0.000    0.000    0.000    0.000    0.000    0.000 
#
# Total GULP energy -150845.038205 kJ/mol
# GULP energy per Si atom -5586.853267 kJ/mol
# Density = 2.082689 g / cm^3
# Si number density = 20.874400 Si / 1000 Ang^3
#
#
#
# Elastic Constant Matrix: (Units=GPa)
#
#
# Indices 1 2 3 4 5 6 
#
# 1 100.5441 39.0986 11.0546 0.0000 0.0000 0.0000
# 2 39.0986 62.0329 16.8141 0.0000 0.0000 0.0000
# 3 11.0546 16.8141 52.7544 0.0000 0.0000 0.0000
# 4 0.0000 0.0000 0.0000 32.4171 0.0000 0.0000
# 5 0.0000 0.0000 0.0000 0.0000 10.2330 0.0000
# 6 0.0000 0.0000 0.0000 0.0000 0.0000 71.9401
#
#
#
# Elastic Compliance Matrix: (Units=1/GPa)
#
#
# Indices 1 2 3 4 5 6 
#
# 1 0.013176 -0.008271 -0.000125 0.000000 0.000000 0.000000
# 2 -0.008271 0.022837 -0.005545 0.000000 0.000000 0.000000
# 3 -0.000125 -0.005545 0.020749 0.000000 0.000000 0.000000
# 4 0.000000 0.000000 0.000000 0.030848 0.000000 0.000000
# 5 0.000000 0.000000 0.000000 0.000000 0.097723 0.000000
# 6 0.000000 0.000000 0.000000 0.000000 0.000000 0.013900
#
#
# Mechanical properties :
#
#
# Convention : Reuss Voigt Hill
#
# Bulk Modulus (GPa) = 34.62644 38.80732 36.71688
# Shear Modulus (GPa) = 21.12008 32.80897 26.96452
#
# Velocity S-wave (km/s) = 3.18428 3.96881 3.59799
# Velocity P-wave (km/s) = 5.49031 6.29549 5.90664
#
# Compressibility (1/GPa) = 0.02887967
#
# Stress axis : x y z
#
# Youngs Moduli (GPa) = 75.89637 43.78951 48.19412
#
# Poissons Ratio (x) = 0.36217 0.00602
# Poissons Ratio (y) = 0.62772 0.26726
# Poissons Ratio (z) = 0.00948 0.24283
#
# Static dielectric constant tensor:
#      x y z
#    x 1.745320 0.000000 0.000000 
#    y 0.000000 1.764370 0.000000 
#    z 0.000000 0.000000 1.782200 
# 
# From -- ./inp_files/18599.got.cif
#   From: 2010.05.17/outbox.cif.g08.bks.cpg/sg23_10_cif.got.tgz:18599.got - 2010.06.04 12:02:01.
