data_PCOD9330962
_publ_section_title
;
Structure prediction by ZEFSAII (Michael W. Deem and Ramdas Pophale) SiO2 
 PCOD9330962
Probable space group: I 2 2 2
;
_chemical_formula_sum "Si O2"
_cell_formula_units_Z 58
_cell_length_a 8.361810
_cell_length_b 11.556895
_cell_length_c 28.303402
_cell_angle_alpha 90.000000
_cell_angle_beta 90.000000
_cell_angle_gamma 90.000000
_cell_volume 2735.143411
_symmetry_space_group_name_H-M "I 2 2 2"
_symmetry_group_IT_number 23
_symmetry_cell_setting 'orthorhombic'
loop_
_space_group_symop_operation_xyz
x,y,z
-x,-y,z
x,-y,-z
-x,y,-z
1/2+x,1/2+y,1/2+z
1/2-x,1/2-y,1/2+z
1/2+x,1/2-y,1/2-z
1/2-x,1/2+y,1/2-z
loop_
_atom_site_type_symbol
_atom_site_label
_atom_site_fract_x
_atom_site_fract_y
_atom_site_fract_z
Si Si1 0.410627 0.120616 0.107194
Si Si2 0.956903 0.872594 0.222433
Si Si3 0.341938 0.857258 0.583821
Si Si4 0.516584 0.676301 0.053060
Si Si5 0.470455 0.628999 0.385360
Si Si6 0.000000 0.500000 0.000000
Si Si7 0.178630 0.954466 0.363726
Si Si8 0.135247 0.258960 0.697776
O O1 0.434797 0.191120 0.059156
O O2 0.468149 0.187551 0.154737
O O3 0.221018 0.128078 0.114603
O O4 0.500000 0.000000 0.105440
O O5 0.769281 0.846810 0.216453
O O6 0.027090 0.867126 0.169286
O O7 0.029805 0.782245 0.258782
O O8 0.000000 0.000000 0.240076
O O9 0.157923 0.825429 0.575768
O O10 0.449742 0.743325 0.592250
O O11 0.401306 0.920231 0.536292
O O12 0.316067 0.950755 0.626521
O O13 0.640207 0.603258 0.084801
O O14 0.500000 0.636137 0.000000
O O15 0.500000 0.500000 0.405846
O O16 0.219416 0.853387 0.326796
O O17 0.000000 0.000000 0.350085
#
# Coordination Sequence:
#
# PCOD9330962 Si02
#       8
#     8   8   8   8   8   2   8   8
#     4  10  22  41  64  87 123 169 219 264 323 396
#     4  10  23  40  60  91 124 164 213 263 318 392
#     4  11  24  40  65  96 132 171 211 275 334 386
#     4  10  21  38  63  89 126 166 218 259 323 392
#     4  10  23  43  65  91 131 173 212 267 333 388
#     4  12  28  36  68 100 136 164 214 274 336 396
#     4   9  20  39  63  92 126 169 212 265 328 395
#     4  10  22  39  64  91 127 166 213 272 327 390
#
# _framework density 21.205469000000001
#
# number of rings (size 3 to 8) (size 9 to 14) (size 15 to 20)
#    0.000    1.931    0.000    2.069    7.724    9.931 
#    0.000    3.103    0.000    0.000    0.000    0.000 
#    0.000    0.000    0.000    0.000    0.000    0.000 
#
# Total GULP energy -161693.040191 kJ/mol
# GULP energy per Si atom -5575.622076 kJ/mol
# Density = 2.115720 g / cm^3
# Si number density = 21.205469 Si / 1000 Ang^3
#
#
#
# Elastic Constant Matrix: (Units=GPa)
#
#
# Indices 1 2 3 4 5 6 
#
# 1 64.2882 35.2402 13.4279 0.0000 0.0000 0.0000
# 2 35.2402 118.7307 24.8029 0.0000 0.0000 0.0000
# 3 13.4279 24.8029 69.0856 0.0000 0.0000 0.0000
# 4 0.0000 0.0000 0.0000 9.2026 0.0000 0.0000
# 5 0.0000 0.0000 0.0000 0.0000 22.0978 0.0000
# 6 0.0000 0.0000 0.0000 0.0000 0.0000 37.9584
#
#
#
# Elastic Compliance Matrix: (Units=1/GPa)
#
#
# Indices 1 2 3 4 5 6 
#
# 1 0.018778 -0.005201 -0.001783 0.000000 0.000000 0.000000
# 2 -0.005201 0.010546 -0.002775 0.000000 0.000000 0.000000
# 3 -0.001783 -0.002775 0.015818 0.000000 0.000000 0.000000
# 4 0.000000 0.000000 0.000000 0.108665 0.000000 0.000000
# 5 0.000000 0.000000 0.000000 0.000000 0.045253 0.000000
# 6 0.000000 0.000000 0.000000 0.000000 0.000000 0.026345
#
#
# Mechanical properties :
#
#
# Convention : Reuss Voigt Hill
#
# Bulk Modulus (GPa) = 39.02602 44.33852 41.68227
# Shear Modulus (GPa) = 19.72662 25.76063 22.74363
#
# Velocity S-wave (km/s) = 3.05333 3.48919 3.27851
# Velocity P-wave (km/s) = 5.55645 6.09812 5.83357
#
# Compressibility (1/GPa) = 0.02562393
#
# Stress axis : x y z
#
# Youngs Moduli (GPa) = 53.25278 94.82336 63.22062
#
# Poissons Ratio (x) = 0.49319 0.11270
# Poissons Ratio (y) = 0.27698 0.17545
# Poissons Ratio (z) = 0.09493 0.26316
#
# Static dielectric constant tensor:
#      x y z
#    x 1.938740 0.000000 0.000000 
#    y 0.000000 1.869320 0.000000 
#    z 0.000000 0.000000 1.767410 
# 
# From -- ./inp_files/29290.got.cif
#   From: 2010.05.17/outbox.cif.g08.bks.cpg/sg23_15_cif.got.tgz:29290.got - 2010.06.04 12:02:01.
