data_PCOD9330648
_publ_section_title
;
Structure prediction by ZEFSAII (Michael W. Deem and Ramdas Pophale) SiO2 
 PCOD9330648
Probable space group: I 2 2 2
;
_chemical_formula_sum "Si O2"
_cell_formula_units_Z 40
_cell_length_a 12.896718
_cell_length_b 10.727226
_cell_length_c 12.319444
_cell_angle_alpha 90.000000
_cell_angle_beta 90.000000
_cell_angle_gamma 90.000000
_cell_volume 1704.345906
_symmetry_space_group_name_H-M "I 2 2 2"
_symmetry_group_IT_number 23
_symmetry_cell_setting 'orthorhombic'
loop_
_space_group_symop_operation_xyz
x,y,z
-x,-y,z
x,-y,-z
-x,y,-z
1/2+x,1/2+y,1/2+z
1/2-x,1/2-y,1/2+z
1/2+x,1/2-y,1/2-z
1/2-x,1/2+y,1/2-z
loop_
_atom_site_type_symbol
_atom_site_label
_atom_site_fract_x
_atom_site_fract_y
_atom_site_fract_z
Si Si1 0.944833 0.136900 0.396961
Si Si2 0.622796 0.984524 0.878084
Si Si3 0.801527 0.671522 0.062644
Si Si4 0.306164 0.907746 0.663273
Si Si5 0.613330 0.720130 0.766440
O O1 0.823105 0.155235 0.417854
O O2 0.000000 0.203261 0.500000
O O3 0.992932 0.196882 0.289041
O O4 0.000000 0.000000 0.396224
O O5 0.645715 0.848519 0.827212
O O6 0.500000 0.000000 0.885657
O O7 0.655502 0.084749 0.786566
O O8 0.666533 0.000000 0.000000
O O9 0.839203 0.538599 0.110403
O O10 0.854027 0.769629 0.141973
O O11 0.830145 0.685374 0.936320
O O12 0.183110 0.887580 0.679541
#
# Coordination Sequence:
#
# PCOD9330648 Si02
#       5
#     8   8   8   8   8
#     4  11  19  36  65  97 123 163 227 273 312 398
#     4  10  25  41  62  99 131 166 217 273 323 397
#     4  10  21  38  59  93 131 164 217 271 324 384
#     4  10  20  40  61  89 130 165 219 264 320 400
#     4  11  23  35  63  95 125 179 204 269 341 371
#
# _framework density 23.469415000000001
#
# number of rings (size 3 to 8) (size 9 to 14) (size 15 to 20)
#    0.000    1.600    4.000    1.200    8.400    0.000 
#    0.000    8.000    0.000    0.000    0.000    2.800 
#    0.000    0.000    0.000    0.000    0.000    0.000 
#
# Total GULP energy -111422.140284 kJ/mol
# GULP energy per Si atom -5571.107014 kJ/mol
# Density = 2.341600 g / cm^3
# Si number density = 23.469415 Si / 1000 Ang^3
#
#
#
# Elastic Constant Matrix: (Units=GPa)
#
#
# Indices 1 2 3 4 5 6 
#
# 1 51.9871 4.1448 55.0258 0.0000 0.0000 0.0000
# 2 4.1448 37.4328 17.3959 0.0000 0.0000 0.0000
# 3 55.0258 17.3959 224.7820 0.0000 0.0000 0.0000
# 4 0.0000 0.0000 0.0000 28.9753 0.0000 0.0000
# 5 0.0000 0.0000 0.0000 0.0000 25.9228 0.0000
# 6 0.0000 0.0000 0.0000 0.0000 0.0000 21.1357
#
#
#
# Elastic Compliance Matrix: (Units=1/GPa)
#
#
# Indices 1 2 3 4 5 6 
#
# 1 0.025963 0.000082 -0.006362 0.000000 0.000000 0.000000
# 2 0.000082 0.027711 -0.002165 0.000000 0.000000 0.000000
# 3 -0.006362 -0.002165 0.006174 0.000000 0.000000 0.000000
# 4 0.000000 0.000000 0.000000 0.034512 0.000000 0.000000
# 5 0.000000 0.000000 0.000000 0.000000 0.038576 0.000000
# 6 0.000000 0.000000 0.000000 0.000000 0.000000 0.047313
#
#
# Mechanical properties :
#
#
# Convention : Reuss Voigt Hill
#
# Bulk Modulus (GPa) = 23.27836 51.92609 37.60223
# Shear Modulus (GPa) = 23.64530 31.04912 27.34721
#
# Velocity S-wave (km/s) = 3.17755 3.64120 3.41725
# Velocity P-wave (km/s) = 4.83762 6.31275 5.62376
#
# Compressibility (1/GPa) = 0.04295835
#
# Stress axis : x y z
#
# Youngs Moduli (GPa) = 38.51660 36.08617 161.97873
#
# Poissons Ratio (x) = -0.00295 1.03050
# Poissons Ratio (y) = -0.00315 0.35062
# Poissons Ratio (z) = 0.24504 0.07811
#
# Static dielectric constant tensor:
#      x y z
#    x 1.859060 0.000000 0.000000 
#    y 0.000000 2.054580 0.000000 
#    z 0.000000 0.000000 1.975950 
# 
# From -- ./inp_files/16495.got.cif
#   From: 2010.05.17/outbox.cif.g08.bks.cpg/sg23_9_cif.got.tgz:16495.got - 2010.06.04 12:02:01.
