data_PCOD9330983
_publ_section_title
;
Structure prediction by ZEFSAII (Michael W. Deem and Ramdas Pophale) SiO2 
 PCOD9330983
Probable space group: I 2 2 2
;
_chemical_formula_sum "Si O2"
_cell_formula_units_Z 64
_cell_length_a 10.683562
_cell_length_b 12.461933
_cell_length_c 25.644232
_cell_angle_alpha 90.000000
_cell_angle_beta 90.000000
_cell_angle_gamma 90.000000
_cell_volume 3414.217499
_symmetry_space_group_name_H-M "I 2 2 2"
_symmetry_group_IT_number 23
_symmetry_cell_setting 'orthorhombic'
loop_
_space_group_symop_operation_xyz
x,y,z
-x,-y,z
x,-y,-z
-x,y,-z
1/2+x,1/2+y,1/2+z
1/2-x,1/2-y,1/2+z
1/2+x,1/2-y,1/2-z
1/2-x,1/2+y,1/2-z
loop_
_atom_site_type_symbol
_atom_site_label
_atom_site_fract_x
_atom_site_fract_y
_atom_site_fract_z
Si Si1 0.776679 0.745512 0.325011
Si Si2 0.179382 0.619374 0.015932
Si Si3 0.054476 0.295969 0.079974
Si Si4 0.286928 0.109838 0.663028
Si Si5 0.771965 0.826475 0.209579
Si Si6 0.138224 0.462452 0.276827
Si Si7 0.130690 0.934987 0.600353
Si Si8 0.512546 0.372025 0.653520
O O1 0.745658 0.802972 0.270015
O O2 0.863743 0.645025 0.310608
O O3 0.846420 0.830577 0.362416
O O4 0.647618 0.686177 0.342868
O O5 0.310473 0.603989 0.045381
O O6 0.075827 0.666615 0.055155
O O7 0.140263 0.500000 0.000000
O O8 0.162855 0.686548 0.962879
O O9 0.086102 0.365689 0.131222
O O10 0.045841 0.175382 0.100447
O O11 0.226796 0.227534 0.673597
O O12 0.301549 0.064557 0.720950
O O13 0.215761 0.026021 0.627370
O O14 0.921578 0.832327 0.200183
O O15 0.714067 0.941231 0.196472
O O16 0.000000 0.500000 0.266222
O O17 0.000000 0.000000 0.595333
O O18 0.500000 0.500000 0.654274
#
# Coordination Sequence:
#
# PCOD9330983 Si02
#       8
#     8   8   8   8   8   8   8   8
#     4  11  24  40  59  91 127 171 222 270 322 384
#     4  11  22  38  64  94 122 153 202 260 337 403
#     4  10  21  38  66  91 120 157 207 267 327 391
#     4  10  23  38  58  88 120 167 215 259 319 381
#     4  10  23  37  57  88 126 175 218 262 316 383
#     4  11  24  37  60  85 127 176 220 261 314 383
#     4  12  26  40  62  90 130 166 205 266 332 401
#     4  11  22  42  65  90 129 170 223 282 329 381
#
# _framework density 18.745145000000001
#
# number of rings (size 3 to 8) (size 9 to 14) (size 15 to 20)
#    0.000    1.250    5.000    0.750    8.750    1.750 
#    0.000    1.250    0.000    0.000    0.000    0.000 
#    0.000    0.000    0.000    0.000    0.000    0.000 
#
# Total GULP energy -178286.697427 kJ/mol
# GULP energy per Si atom -5571.459295 kJ/mol
# Density = 1.870248 g / cm^3
# Si number density = 18.745145 Si / 1000 Ang^3
#
#
#
# Elastic Constant Matrix: (Units=GPa)
#
#
# Indices 1 2 3 4 5 6 
#
# 1 55.3775 26.6261 12.0586 0.0000 0.0000 0.0000
# 2 26.6261 121.8666 36.1218 0.0000 0.0000 0.0000
# 3 12.0586 36.1218 68.1548 0.0000 0.0000 0.0000
# 4 0.0000 0.0000 0.0000 24.0804 0.0000 0.0000
# 5 0.0000 0.0000 0.0000 0.0000 23.7503 0.0000
# 6 0.0000 0.0000 0.0000 0.0000 0.0000 21.6670
#
#
#
# Elastic Compliance Matrix: (Units=1/GPa)
#
#
# Indices 1 2 3 4 5 6 
#
# 1 0.020301 -0.003999 -0.001472 0.000000 0.000000 0.000000
# 2 -0.003999 0.010523 -0.004869 0.000000 0.000000 0.000000
# 3 -0.001472 -0.004869 0.017514 0.000000 0.000000 0.000000
# 4 0.000000 0.000000 0.000000 0.041528 0.000000 0.000000
# 5 0.000000 0.000000 0.000000 0.000000 0.042105 0.000000
# 6 0.000000 0.000000 0.000000 0.000000 0.000000 0.046153
#
#
# Mechanical properties :
#
#
# Convention : Reuss Voigt Hill
#
# Bulk Modulus (GPa) = 36.15863 43.89022 40.02442
# Shear Modulus (GPa) = 24.03569 25.27236 24.65403
#
# Velocity S-wave (km/s) = 3.58472 3.67578 3.63053
# Velocity P-wave (km/s) = 6.03863 6.44051 6.24280
#
# Compressibility (1/GPa) = 0.02765592
#
# Stress axis : x y z
#
# Youngs Moduli (GPa) = 49.25791 95.03190 57.09784
#
# Poissons Ratio (x) = 0.38004 0.08407
# Poissons Ratio (y) = 0.19699 0.27804
# Poissons Ratio (z) = 0.07253 0.46276
#
# Static dielectric constant tensor:
#      x y z
#    x 1.702610 0.000000 0.000000 
#    y 0.000000 1.670630 0.000000 
#    z 0.000000 0.000000 1.665750 
# 
# From -- ./inp_files/28410.got.cif
#   From: 2010.05.17/outbox.cif.g08.bks.cpg/sg23_15_cif.got.tgz:28410.got - 2010.06.04 12:02:01.
