data_PCOD9330270
_publ_section_title
;
Structure prediction by ZEFSAII (Michael W. Deem and Ramdas Pophale) SiO2 
 PCOD9330270
Probable space group: I 2 2 2
;
_chemical_formula_sum "Si O2"
_cell_formula_units_Z 56
_cell_length_a 14.357910
_cell_length_b 9.050820
_cell_length_c 22.704253
_cell_angle_alpha 90.000000
_cell_angle_beta 90.000000
_cell_angle_gamma 90.000000
_cell_volume 2950.437180
_symmetry_space_group_name_H-M "I 2 2 2"
_symmetry_group_IT_number 23
_symmetry_cell_setting 'orthorhombic'
loop_
_space_group_symop_operation_xyz
x,y,z
-x,-y,z
x,-y,-z
-x,y,-z
1/2+x,1/2+y,1/2+z
1/2-x,1/2-y,1/2+z
1/2+x,1/2-y,1/2-z
1/2-x,1/2+y,1/2-z
loop_
_atom_site_type_symbol
_atom_site_label
_atom_site_fract_x
_atom_site_fract_y
_atom_site_fract_z
Si Si1 0.980898 0.323870 0.567966
Si Si2 0.736765 0.352654 0.334880
Si Si3 0.103911 0.180173 0.931836
Si Si4 0.711119 0.177846 0.129415
Si Si5 0.081071 0.180394 0.679244
Si Si6 0.604038 0.319610 0.431519
Si Si7 0.389092 0.642253 0.224634
O O1 0.873071 0.296229 0.583996
O O2 0.000000 0.500000 0.575822
O O3 0.000000 0.286621 0.500000
O O4 0.042768 0.233709 0.615454
O O5 0.777861 0.503631 0.360515
O O6 0.823628 0.265397 0.308322
O O7 0.684939 0.268146 0.388083
O O8 0.656187 0.387574 0.287584
O O9 0.189939 0.234987 0.893563
O O10 0.000220 0.227229 0.913502
O O11 0.105037 0.999982 0.929340
O O12 0.117836 0.220518 0.000343
O O13 0.678373 0.248584 0.190084
O O14 0.994013 0.206801 0.723583
O O15 0.103249 0.007624 0.686620
#
# Coordination Sequence:
#
# PCOD9330270 Si02
#       7
#     8   8   8   8   8   8   8
#     4  10  20  34  59  88 112 143 188 245 296 335
#     4  11  20  34  60  81 107 149 193 234 289 333
#     4   8  15  29  48  78 114 130 169 237 284 346
#     4  10  20  34  56  83 109 148 191 231 290 345
#     4  10  22  40  54  81 119 144 193 240 275 348
#     4   8  16  27  49  82 107 133 175 232 292 327
#     4  10  23  38  53  78 116 154 188 233 283 341
#
# _framework density 18.980238
#
# number of rings (size 3 to 8) (size 9 to 14) (size 15 to 20)
#    0.000    2.429    1.429    1.714    2.000    6.857 
#    0.000    5.714    0.000    2.571    0.000    2.000 
#    0.000    0.000    0.000    0.000    0.000    0.000 
#
# Total GULP energy -156051.097619 kJ/mol
# GULP energy per Si atom -5573.253486 kJ/mol
# Density = 1.893704 g / cm^3
# Si number density = 18.980238 Si / 1000 Ang^3
#
#
#
# Elastic Constant Matrix: (Units=GPa)
#
#
# Indices 1 2 3 4 5 6 
#
# 1 124.5900 18.8039 36.1749 0.0000 0.0000 0.0000
# 2 18.8039 16.5927 7.3315 0.0000 0.0000 0.0000
# 3 36.1749 7.3315 54.7263 0.0000 0.0000 0.0000
# 4 0.0000 0.0000 0.0000 1.7536 0.0000 0.0000
# 5 0.0000 0.0000 0.0000 0.0000 23.5420 0.0000
# 6 0.0000 0.0000 0.0000 0.0000 0.0000 -4.4497
#
#
#
# Elastic Compliance Matrix: (Units=1/GPa)
#
#
# Indices 1 2 3 4 5 6 
#
# 1 0.011338 -0.010138 -0.006137 0.000000 0.000000 0.000000
# 2 -0.010138 0.073123 -0.003095 0.000000 0.000000 0.000000
# 3 -0.006137 -0.003095 0.022744 0.000000 0.000000 0.000000
# 4 0.000000 0.000000 0.000000 0.570268 0.000000 0.000000
# 5 0.000000 0.000000 0.000000 0.000000 0.042477 0.000000
# 6 0.000000 0.000000 0.000000 0.000000 0.000000 -0.224732
#
#
# Mechanical properties :
#
#
# Convention : Reuss Voigt Hill
#
# Bulk Modulus (GPa) = 14.60560 35.61442 25.11001
# Shear Modulus (GPa) = 8.98023 13.07575 11.02799
#
# Velocity S-wave (km/s) = 2.17753 2.62756 2.41306
# Velocity P-wave (km/s) = 3.74620 5.29246 4.58499
#
# Compressibility (1/GPa) = 0.06846687
#
# Stress axis : x y z
#
# Youngs Moduli (GPa) = 88.19817 13.67550 43.96818
#
# Poissons Ratio (x) = 0.13864 0.26981
# Poissons Ratio (y) = 0.89412 0.13608
# Poissons Ratio (z) = 0.54123 0.04233
#
# Static dielectric constant tensor:
#      x y z
#    x 1.706650 0.000000 0.000000 
#    y 0.000000 1.646700 0.000000 
#    z 0.000000 0.000000 1.657420 
# 
# From -- ./inp_files/26992.got.cif
#   From: 2010.05.17/outbox.cif.g08.bks.cpg/sg23_14_cif.got.tgz:26992.got - 2010.06.04 12:02:01.
