data_PCOD9330173
_publ_section_title
;
Structure prediction by ZEFSAII (Michael W. Deem and Ramdas Pophale) SiO2 
 PCOD9330173
Probable space group: I 2 2 2
;
_chemical_formula_sum "Si O2"
_cell_formula_units_Z 52
_cell_length_a 14.936967
_cell_length_b 19.451485
_cell_length_c 10.114020
_cell_angle_alpha 90.000000
_cell_angle_beta 90.000000
_cell_angle_gamma 90.000000
_cell_volume 2938.589972
_symmetry_space_group_name_H-M "I 2 2 2"
_symmetry_group_IT_number 23
_symmetry_cell_setting 'orthorhombic'
loop_
_space_group_symop_operation_xyz
x,y,z
-x,-y,z
x,-y,-z
-x,y,-z
1/2+x,1/2+y,1/2+z
1/2-x,1/2-y,1/2+z
1/2+x,1/2-y,1/2-z
1/2-x,1/2+y,1/2-z
loop_
_atom_site_type_symbol
_atom_site_label
_atom_site_fract_x
_atom_site_fract_y
_atom_site_fract_z
Si Si1 0.000000 0.812689 0.000000
Si Si2 0.807099 0.304779 0.442655
Si Si3 0.360907 0.648458 0.302976
Si Si4 0.600348 0.420099 0.034948
Si Si5 0.414511 0.803159 0.680080
Si Si6 0.722738 0.840880 0.530474
Si Si7 0.611236 0.809734 0.778601
O O1 0.060763 0.761903 0.088609
O O2 0.938057 0.857583 0.090810
O O3 0.733396 0.355295 0.378865
O O4 0.865303 0.283706 0.315515
O O5 0.753081 0.237921 0.489952
O O6 0.864521 0.327069 0.570028
O O7 0.378285 0.595393 0.187338
O O8 0.373589 0.726769 0.243524
O O9 0.600407 0.500000 0.000000
O O10 0.500000 0.392627 0.000000
O O11 0.686164 0.384036 0.968494
O O12 0.350238 0.850957 0.588095
O O13 0.511435 0.828978 0.730413
O O14 0.676107 0.844913 0.672392
#
# Coordination Sequence:
#
# PCOD9330173 Si02
#       7
#     4   8   8   8   8   8   8
#     4  10  20  30  52  85 125 152 180 238 304 356
#     4  11  19  29  52  88 122 150 185 229 309 361
#     4  10  20  33  53  83 117 160 192 242 291 349
#     4  11  25  41  58  80 111 161 216 246 274 340
#     4  11  18  32  50  86 125 147 179 230 302 376
#     4  11  19  35  55  78 118 155 193 239 289 351
#     4  10  20  30  53  91 122 149 180 233 313 363
#
# _framework density 17.695561000000001
#
# number of rings (size 3 to 8) (size 9 to 14) (size 15 to 20)
#    0.000    1.385    7.692    1.385    4.308    0.000 
#    0.000    0.000    0.000    8.308    0.000    0.000 
#    4.615    0.000    0.000    0.000    0.000    0.000 
#
# Total GULP energy -144799.775330 kJ/mol
# GULP energy per Si atom -5569.222128 kJ/mol
# Density = 1.765529 g / cm^3
# Si number density = 17.695561 Si / 1000 Ang^3
#
#
#
# Elastic Constant Matrix: (Units=GPa)
#
#
# Indices 1 2 3 4 5 6 
#
# 1 129.8943 35.3442 57.4841 0.0000 0.0000 0.0000
# 2 35.3442 25.1009 33.4787 0.0000 0.0000 0.0000
# 3 57.4841 33.4787 128.3783 0.0000 0.0000 0.0000
# 4 0.0000 0.0000 0.0000 5.2809 0.0000 0.0000
# 5 0.0000 0.0000 0.0000 0.0000 43.0774 0.0000
# 6 0.0000 0.0000 0.0000 0.0000 0.0000 10.3245
#
#
#
# Elastic Compliance Matrix: (Units=1/GPa)
#
#
# Indices 1 2 3 4 5 6 
#
# 1 0.012683 -0.015768 -0.001567 0.000000 0.000000 0.000000
# 2 -0.015768 0.080692 -0.013982 0.000000 0.000000 0.000000
# 3 -0.001567 -0.013982 0.012137 0.000000 0.000000 0.000000
# 4 0.000000 0.000000 0.000000 0.189361 0.000000 0.000000
# 5 0.000000 0.000000 0.000000 0.000000 0.023214 0.000000
# 6 0.000000 0.000000 0.000000 0.000000 0.000000 0.096857
#
#
# Mechanical properties :
#
#
# Convention : Reuss Voigt Hill
#
# Bulk Modulus (GPa) = 23.32270 59.55418 41.43844
# Shear Modulus (GPa) = 10.16528 22.20764 16.18646
#
# Velocity S-wave (km/s) = 2.39938 3.54642 3.02771
# Velocity P-wave (km/s) = 4.56997 7.10615 5.97419
#
# Compressibility (1/GPa) = 0.04287668
#
# Stress axis : x y z
#
# Youngs Moduli (GPa) = 78.84877 12.39285 82.39027
#
# Poissons Ratio (x) = 0.19542 0.12909
# Poissons Ratio (y) = 1.24332 1.15201
# Poissons Ratio (z) = 0.12354 0.17328
#
# Static dielectric constant tensor:
#      x y z
#    x 1.680630 0.000000 0.000000 
#    y 0.000000 1.570380 0.000000 
#    z 0.000000 0.000000 1.644610 
# 
# From -- ./inp_files/10149.got.cif
#   From: 2010.05.17/outbox.cif.g08.bks.cpg/sg23_6_cif.got.tgz:10149.got - 2010.06.04 12:02:01.
