data_PCOD9330865
_publ_section_title
;
Structure prediction by ZEFSAII (Michael W. Deem and Ramdas Pophale) SiO2 
 PCOD9330865
Probable space group: I 2 2 2
;
_chemical_formula_sum "Si O2"
_cell_formula_units_Z 56
_cell_length_a 11.065717
_cell_length_b 20.252989
_cell_length_c 10.334819
_cell_angle_alpha 90.000000
_cell_angle_beta 90.000000
_cell_angle_gamma 90.000000
_cell_volume 2316.176020
_symmetry_space_group_name_H-M "I 2 2 2"
_symmetry_group_IT_number 23
_symmetry_cell_setting 'orthorhombic'
loop_
_space_group_symop_operation_xyz
x,y,z
-x,-y,z
x,-y,-z
-x,y,-z
1/2+x,1/2+y,1/2+z
1/2-x,1/2-y,1/2+z
1/2+x,1/2-y,1/2-z
1/2-x,1/2+y,1/2-z
loop_
_atom_site_type_symbol
_atom_site_label
_atom_site_fract_x
_atom_site_fract_y
_atom_site_fract_z
Si Si1 0.971233 0.403010 0.707784
Si Si2 0.030355 0.245399 0.288710
Si Si3 0.229901 0.451101 0.768693
Si Si4 0.132749 0.607175 0.968416
Si Si5 0.772689 0.939840 0.901343
Si Si6 0.811022 0.772693 0.528202
Si Si7 0.359714 0.655051 0.404398
O O1 0.989042 0.324119 0.723907
O O2 0.907227 0.430214 0.838691
O O3 0.864043 0.411452 0.604566
O O4 0.099740 0.439005 0.695160
O O5 0.148653 0.233378 0.378617
O O6 0.042006 0.204656 0.156719
O O7 0.923554 0.218101 0.377265
O O8 0.293322 0.520891 0.733022
O O9 0.318916 0.395867 0.707934
O O10 0.193218 0.434094 0.915840
O O11 0.220769 0.667758 0.945591
O O12 0.000000 0.635204 0.000000
O O13 0.865417 0.887514 0.962467
O O14 0.774432 0.000000 0.000000
O O15 0.749833 0.704646 0.567406
#
# Coordination Sequence:
#
# PCOD9330865 Si02
#       7
#     8   8   8   8   8   8   8
#     4  11  20  35  57  92 131 181 231 283 361 436
#     4  11  22  34  60  94 139 178 231 295 354 441
#     4  10  21  37  55  89 135 181 230 290 351 442
#     4  10  22  38  61  89 137 185 227 294 363 430
#     4  10  23  36  58  88 129 180 228 284 352 434
#     4  11  21  36  59  93 138 180 228 282 362 433
#     4  11  20  36  59  91 134 173 228 285 353 426
#
# _framework density 24.177783000000002
#
# number of rings (size 3 to 8) (size 9 to 14) (size 15 to 20)
#    0.000    1.429    5.714    0.429    0.000    4.571 
#    0.000    2.143    0.000    0.000    0.000    7.000 
#    0.000    0.000    0.000    0.000    0.000    0.857 
#
# Total GULP energy -156314.244217 kJ/mol
# GULP energy per Si atom -5582.651579 kJ/mol
# Density = 2.412275 g / cm^3
# Si number density = 24.177783 Si / 1000 Ang^3
#
#
#
# Elastic Constant Matrix: (Units=GPa)
#
#
# Indices 1 2 3 4 5 6 
#
# 1 29.8031 34.3392 14.0069 0.0000 0.0000 0.0000
# 2 34.3392 126.2363 30.2255 0.0003 0.0000 0.0000
# 3 14.0069 30.2255 88.7350 0.0002 0.0000 0.0000
# 4 0.0000 0.0003 0.0002 42.2522 0.0000 0.0000
# 5 0.0000 0.0000 0.0000 0.0000 36.0964 0.0000
# 6 0.0000 0.0000 0.0000 0.0000 0.0000 37.2453
#
#
#
# Elastic Compliance Matrix: (Units=1/GPa)
#
#
# Indices 1 2 3 4 5 6 
#
# 1 0.049872 -0.012719 -0.003540 0.000000 0.000000 0.000000
# 2 -0.012719 0.011869 -0.002035 0.000000 0.000000 0.000000
# 3 -0.003540 -0.002035 0.012522 0.000000 0.000000 0.000000
# 4 0.000000 0.000000 0.000000 0.023667 0.000000 0.000000
# 5 0.000000 0.000000 0.000000 0.000000 0.027704 0.000000
# 6 0.000000 0.000000 0.000000 0.000000 0.000000 0.026849
#
#
# Mechanical properties :
#
#
# Convention : Reuss Voigt Hill
#
# Bulk Modulus (GPa) = 26.54326 44.65753 35.60039
# Shear Modulus (GPa) = 24.79817 34.19897 29.49857
#
# Velocity S-wave (km/s) = 3.20607 3.76504 3.49674
# Velocity P-wave (km/s) = 4.97065 6.11647 5.57309
#
# Compressibility (1/GPa) = 0.03767435
#
# Stress axis : x y z
#
# Youngs Moduli (GPa) = 20.05143 84.25505 79.86243
#
# Poissons Ratio (x) = 1.07161 0.28271
# Poissons Ratio (y) = 0.25503 0.16253
# Poissons Ratio (z) = 0.07098 0.17147
#
# Static dielectric constant tensor:
#      x y z
#    x 1.959850 0.000000 0.000000 
#    y 0.000000 1.934640 0.000000 
#    z 0.000000 0.000000 2.079220 
# 
# From -- ./inp_files/15920.got.cif
#   From: 2010.05.17/outbox.cif.g08.bks.cpg/sg23_8_cif.got.tgz:15920.got - 2010.06.04 12:02:01.
