data_PCOD9330279
_publ_section_title
;
Structure prediction by ZEFSAII (Michael W. Deem and Ramdas Pophale) SiO2 
 PCOD9330279
Probable space group: I 2 2 2
;
_chemical_formula_sum "Si O2"
_cell_formula_units_Z 44
_cell_length_a 7.921345
_cell_length_b 24.460270
_cell_length_c 11.391710
_cell_angle_alpha 90.000000
_cell_angle_beta 90.000000
_cell_angle_gamma 90.000000
_cell_volume 2207.237651
_symmetry_space_group_name_H-M "I 2 2 2"
_symmetry_group_IT_number 23
_symmetry_cell_setting 'orthorhombic'
loop_
_space_group_symop_operation_xyz
x,y,z
-x,-y,z
x,-y,-z
-x,y,-z
1/2+x,1/2+y,1/2+z
1/2-x,1/2-y,1/2+z
1/2+x,1/2-y,1/2-z
1/2-x,1/2+y,1/2-z
loop_
_atom_site_type_symbol
_atom_site_label
_atom_site_fract_x
_atom_site_fract_y
_atom_site_fract_z
Si Si1 0.222500 0.781003 0.176931
Si Si2 0.550234 0.317507 0.134803
Si Si3 0.823799 0.090019 0.785100
Si Si4 0.500000 0.652098 0.500000
Si Si5 0.042050 0.625929 0.639238
Si Si6 0.698992 0.984423 0.866407
O O1 0.284780 0.719596 0.159773
O O2 0.390447 0.817522 0.187927
O O3 0.099088 0.792651 0.284992
O O4 0.132223 0.807671 0.063494
O O5 0.589048 0.378828 0.178286
O O6 0.500000 0.314373 0.000000
O O7 0.628794 0.108482 0.797034
O O8 0.913772 0.114366 0.901471
O O9 0.810903 0.024365 0.787531
O O10 0.190144 0.580251 0.653687
O O11 0.000000 0.628236 0.500000
O O12 0.500000 0.000000 0.855681
O O13 0.745102 0.000000 0.000000
#
# Coordination Sequence:
#
# PCOD9330279 Si02
#       6
#     8   8   8   4   8   8
#     4  11  23  38  62  86 119 165 212 260 316 369
#     4  11  26  42  58  86 127 172 213 261 315 381
#     4  10  20  36  57  91 128 162 201 257 316 384
#     4  10  20  34  57  88 124 158 211 248 320 382
#     4  11  17  33  62  93 126 157 198 263 316 372
#     4   9  14  28  55  89 123 149 185 247 316 366
#
# _framework density 19.934418000000001
#
# number of rings (size 3 to 8) (size 9 to 14) (size 15 to 20)
#    0.000    1.636    5.455    1.636    5.091    0.000 
#    0.000    8.636    0.000    2.182    0.000    3.818 
#    0.000    0.000    0.000    0.000    0.000    0.000 
#
# Total GULP energy -122844.285807 kJ/mol
# GULP energy per Si atom -5583.831173 kJ/mol
# Density = 1.988905 g / cm^3
# Si number density = 19.934418 Si / 1000 Ang^3
#
#
#
# Elastic Constant Matrix: (Units=GPa)
#
#
# Indices 1 2 3 4 5 6 
#
# 1 73.6617 23.4397 26.1137 0.0000 0.0000 0.0000
# 2 23.4397 99.2387 22.4169 0.0000 0.0000 0.0000
# 3 26.1137 22.4169 75.0024 0.0004 -0.0001 0.0000
# 4 0.0000 0.0000 0.0004 9.2275 0.0000 0.0000
# 5 0.0000 0.0000 -0.0001 0.0000 11.8870 0.0000
# 6 0.0000 0.0000 0.0000 0.0000 0.0000 43.3797
#
#
#
# Elastic Compliance Matrix: (Units=1/GPa)
#
#
# Indices 1 2 3 4 5 6 
#
# 1 0.016148 -0.002728 -0.004807 0.000000 0.000000 0.000000
# 2 -0.002728 0.011267 -0.002418 0.000000 0.000000 0.000000
# 3 -0.004807 -0.002418 0.015729 -0.000001 0.000000 0.000000
# 4 0.000000 0.000000 -0.000001 0.108372 0.000000 0.000000
# 5 0.000000 0.000000 0.000000 0.000000 0.084126 0.000000
# 6 0.000000 0.000000 0.000000 0.000000 0.000000 0.023052
#
#
# Mechanical properties :
#
#
# Convention : Reuss Voigt Hill
#
# Bulk Modulus (GPa) = 43.03162 43.53814 43.28488
# Shear Modulus (GPa) = 17.46139 24.62766 21.04452
#
# Velocity S-wave (km/s) = 2.96284 3.51869 3.25266
# Velocity P-wave (km/s) = 5.77391 6.19648 5.98892
#
# Compressibility (1/GPa) = 0.02323872
#
# Stress axis : x y z
#
# Youngs Moduli (GPa) = 61.92815 88.75288 63.57646
#
# Poissons Ratio (x) = 0.24214 0.30560
# Poissons Ratio (y) = 0.16895 0.15371
# Poissons Ratio (z) = 0.29767 0.21458
#
# Static dielectric constant tensor:
#      x y z
#    x 1.749100 0.000000 0.000000 
#    y 0.000000 1.754770 0.000000 
#    z 0.000000 0.000000 1.653280 
# 
# From -- ./inp_files/14721.got.cif
#   From: 2010.05.17/outbox.cif.g08.bks.cpg/sg23_8_cif.got.tgz:14721.got - 2010.06.04 12:02:01.
