data_PCOD9330085
_publ_section_title
;
Structure prediction by ZEFSAII (Michael W. Deem and Ramdas Pophale) SiO2 
 PCOD9330085
Probable space group: I 2 2 2
;
_chemical_formula_sum "Si O2"
_cell_formula_units_Z 48
_cell_length_a 30.804833
_cell_length_b 8.867603
_cell_length_c 8.034365
_cell_angle_alpha 90.000000
_cell_angle_beta 90.000000
_cell_angle_gamma 90.000000
_cell_volume 2194.707552
_symmetry_space_group_name_H-M "I 2 2 2"
_symmetry_group_IT_number 23
_symmetry_cell_setting 'orthorhombic'
loop_
_space_group_symop_operation_xyz
x,y,z
-x,-y,z
x,-y,-z
-x,y,-z
1/2+x,1/2+y,1/2+z
1/2-x,1/2-y,1/2+z
1/2+x,1/2-y,1/2-z
1/2-x,1/2+y,1/2-z
loop_
_atom_site_type_symbol
_atom_site_label
_atom_site_fract_x
_atom_site_fract_y
_atom_site_fract_z
Si Si1 0.547663 0.732755 0.003002
Si Si2 0.798547 0.659544 0.969624
Si Si3 0.791020 0.158535 0.332270
Si Si4 0.143111 0.666368 0.541779
Si Si5 0.564297 0.499303 0.701070
Si Si6 0.838107 0.115348 0.817486
O O1 0.547020 0.624662 0.835959
O O2 0.500000 0.805441 0.000000
O O3 0.591440 0.826919 0.980461
O O4 0.554399 0.647293 0.182824
O O5 0.754149 0.652462 0.072011
O O6 0.824813 0.813807 0.007475
O O7 0.821600 0.500000 0.000000
O O8 0.785783 0.694986 0.782826
O O9 0.833872 0.203927 0.434376
O O10 0.802064 0.995213 0.256591
O O11 0.159020 0.500000 0.500000
O O12 0.156798 0.725523 0.721170
O O13 0.550624 0.500000 0.500000
O O14 0.615588 0.534523 0.691974
#
# Coordination Sequence:
#
# PCOD9330085 Si02
#       6
#     8   8   8   8   8   8
#     4  10  22  38  62  98 129 165 213 271 331 403
#     4  12  25  38  60  92 126 165 218 276 321 390
#     4  12  23  41  62  86 124 170 214 269 323 384
#     4  11  23  41  64  87 123 166 208 269 334 395
#     4  10  19  37  65  95 129 167 212 270 323 394
#     4  11  23  41  62  91 123 168 221 263 330 391
#
# _framework density 21.870797
#
# number of rings (size 3 to 8) (size 9 to 14) (size 15 to 20)
#    0.000    1.000    1.667    7.000    0.000    3.000 
#    0.000    0.000    0.000    0.000    0.000    2.333 
#    0.000    0.000    0.000    0.000    0.000    0.000 
#
# Total GULP energy -133638.069338 kJ/mol
# GULP energy per Si atom -5568.252889 kJ/mol
# Density = 2.182102 g / cm^3
# Si number density = 21.870797 Si / 1000 Ang^3
#
#
#
# Elastic Constant Matrix: (Units=GPa)
#
#
# Indices 1 2 3 4 5 6 
#
# 1 87.3982 9.5022 -2.6620 0.0000 0.0000 0.0000
# 2 9.5022 71.5216 23.9120 0.0000 0.0000 0.0000
# 3 -2.6620 23.9120 102.7053 0.0000 0.0000 0.0000
# 4 0.0000 0.0000 0.0000 29.5363 0.0000 0.0000
# 5 0.0000 0.0000 0.0000 0.0000 14.4120 0.0000
# 6 0.0000 0.0000 0.0000 0.0000 0.0000 8.0030
#
#
#
# Elastic Compliance Matrix: (Units=1/GPa)
#
#
# Indices 1 2 3 4 5 6 
#
# 1 0.011658 -0.001789 0.000719 0.000000 0.000000 0.000000
# 2 -0.001789 0.015437 -0.003640 0.000000 0.000000 0.000000
# 3 0.000719 -0.003640 0.010603 0.000000 0.000000 0.000000
# 4 0.000000 0.000000 0.000000 0.033857 0.000000 0.000000
# 5 0.000000 0.000000 0.000000 0.000000 0.069386 0.000000
# 6 0.000000 0.000000 0.000000 0.000000 0.000000 0.124953
#
#
# Mechanical properties :
#
#
# Convention : Reuss Voigt Hill
#
# Bulk Modulus (GPa) = 35.36563 35.90330 35.63446
# Shear Modulus (GPa) = 17.55981 25.78178 21.67080
#
# Velocity S-wave (km/s) = 2.83660 3.43712 3.15120
# Velocity P-wave (km/s) = 5.18978 5.67481 5.43770
#
# Compressibility (1/GPa) = 0.02827604
#
# Stress axis : x y z
#
# Youngs Moduli (GPa) = 85.77578 64.78118 94.31490
#
# Poissons Ratio (x) = 0.11591 -0.06779
# Poissons Ratio (y) = 0.15347 0.34334
# Poissons Ratio (z) = -0.06165 0.23583
#
# Static dielectric constant tensor:
#      x y z
#    x 1.772700 0.000000 0.000000 
#    y 0.000000 1.805320 0.000000 
#    z 0.000000 0.000000 2.010160 
# 
# From -- ./inp_files/13333.got.cif
#   From: 2010.05.17/outbox.cif.g08.bks.cpg/sg23_7_cif.got.tgz:13333.got - 2010.06.04 12:02:01.
