data_PCOD9330285
_publ_section_title
;
Structure prediction by ZEFSAII (Michael W. Deem and Ramdas Pophale) SiO2 
 PCOD9330285
Probable space group: I 2 2 2
;
_chemical_formula_sum "Si O2"
_cell_formula_units_Z 42
_cell_length_a 9.361987
_cell_length_b 9.268215
_cell_length_c 21.793674
_cell_angle_alpha 90.000000
_cell_angle_beta 90.000000
_cell_angle_gamma 90.000000
_cell_volume 1891.013302
_symmetry_space_group_name_H-M "I 2 2 2"
_symmetry_group_IT_number 23
_symmetry_cell_setting 'orthorhombic'
loop_
_space_group_symop_operation_xyz
x,y,z
-x,-y,z
x,-y,-z
-x,y,-z
1/2+x,1/2+y,1/2+z
1/2-x,1/2-y,1/2+z
1/2+x,1/2-y,1/2-z
1/2-x,1/2+y,1/2-z
loop_
_atom_site_type_symbol
_atom_site_label
_atom_site_fract_x
_atom_site_fract_y
_atom_site_fract_z
Si Si1 0.819229 0.902575 0.111041
Si Si2 0.046244 0.734261 0.437160
Si Si3 0.438063 0.314154 0.317237
Si Si4 0.500000 0.500000 0.796254
Si Si5 0.777584 0.000000 0.500000
Si Si6 0.500000 0.500000 0.500000
Si Si7 0.225136 0.117407 0.377424
O O1 0.657286 0.858718 0.101756
O O2 0.912355 0.787869 0.148610
O O3 0.856632 0.051556 0.147298
O O4 0.895262 0.912798 0.044751
O O5 0.000000 0.657760 0.500000
O O6 0.904828 0.777951 0.399839
O O7 0.127881 0.877078 0.465106
O O8 0.478199 0.365598 0.249560
O O9 0.333297 0.184526 0.329340
O O10 0.636820 0.500047 0.839767
O O11 0.701715 0.927767 0.441652
#
# Coordination Sequence:
#
# PCOD9330285 Si02
#       7
#     8   8   8   4   4   2   8
#     4   9  20  38  53  83 124 159 207 253 308 380
#     4  10  20  34  60  88 121 154 204 257 319 378
#     4   9  23  41  60  85 120 172 207 249 322 377
#     4  10  21  41  64  87 125 168 210 262 320 374
#     4  10  21  38  59  94 117 160 199 256 341 366
#     4   8  18  32  54  70 114 172 186 234 322 376
#     4  11  20  41  66  88 121 160 209 265 317 391
#
# _framework density 22.210315000000001
#
# number of rings (size 3 to 8) (size 9 to 14) (size 15 to 20)
#    0.000    2.667    1.905    2.000   10.667    3.810 
#    0.000    1.905    0.000    0.000    0.000    0.000 
#    0.000    0.000    0.000    0.000    0.000    0.000 
#
# Total GULP energy -117042.828400 kJ/mol
# GULP energy per Si atom -5573.468019 kJ/mol
# Density = 2.215976 g / cm^3
# Si number density = 22.210315 Si / 1000 Ang^3
#
#
#
# Elastic Constant Matrix: (Units=GPa)
#
#
# Indices 1 2 3 4 5 6 
#
# 1 54.1906 -1.0851 18.2324 0.0000 0.0000 0.0000
# 2 -1.0851 22.2785 3.8563 0.0000 0.0000 0.0000
# 3 18.2324 3.8563 130.4143 0.0000 0.0000 0.0000
# 4 0.0000 0.0000 0.0000 -8.4198 0.0000 0.0000
# 5 0.0000 0.0000 0.0000 0.0000 10.2124 0.0000
# 6 0.0000 0.0000 0.0000 0.0000 0.0000 30.5997
#
#
#
# Elastic Compliance Matrix: (Units=1/GPa)
#
#
# Indices 1 2 3 4 5 6 
#
# 1 0.019409 0.001422 -0.002755 0.000000 0.000000 0.000000
# 2 0.001422 0.045221 -0.001536 0.000000 0.000000 0.000000
# 3 -0.002755 -0.001536 0.008099 0.000000 0.000000 0.000000
# 4 0.000000 0.000000 0.000000 -0.118768 0.000000 0.000000
# 5 0.000000 0.000000 0.000000 0.000000 0.097921 0.000000
# 6 0.000000 0.000000 0.000000 0.000000 0.000000 0.032680
#
#
# Mechanical properties :
#
#
# Convention : Reuss Voigt Hill
#
# Bulk Modulus (GPa) = 14.92750 27.65451 21.29101
# Shear Modulus (GPa) = 44.39307 18.87045 31.63176
#
# Velocity S-wave (km/s) = 4.47560 2.91800 3.77794
# Velocity P-wave (km/s) = 5.78304 4.88172 5.35139
#
# Compressibility (1/GPa) = 0.06699044
#
# Stress axis : x y z
#
# Youngs Moduli (GPa) = 51.52267 22.11340 123.47936
#
# Poissons Ratio (x) = -0.03145 0.34025
# Poissons Ratio (y) = -0.07328 0.18966
# Poissons Ratio (z) = 0.14197 0.03397
#
# Static dielectric constant tensor:
#      x y z
#    x 1.826450 0.000000 0.000000 
#    y 0.000000 1.949720 0.000000 
#    z 0.000000 0.000000 1.823860 
# 
# From -- ./inp_files/12544.got.cif
#   From: 2010.05.17/outbox.cif.g08.bks.cpg/sg23_7_cif.got.tgz:12544.got - 2010.06.04 12:02:01.
