data_PCOD9330013
_publ_section_title
;
Structure prediction by ZEFSAII (Michael W. Deem and Ramdas Pophale) SiO2 
 PCOD9330013
Probable space group: I 2 2 2
;
_chemical_formula_sum "Si O2"
_cell_formula_units_Z 46
_cell_length_a 12.945843
_cell_length_b 19.489644
_cell_length_c 9.572270
_cell_angle_alpha 90.000000
_cell_angle_beta 90.000000
_cell_angle_gamma 90.000000
_cell_volume 2415.178212
_symmetry_space_group_name_H-M "I 2 2 2"
_symmetry_group_IT_number 23
_symmetry_cell_setting 'orthorhombic'
loop_
_space_group_symop_operation_xyz
x,y,z
-x,-y,z
x,-y,-z
-x,y,-z
1/2+x,1/2+y,1/2+z
1/2-x,1/2-y,1/2+z
1/2+x,1/2-y,1/2-z
1/2-x,1/2+y,1/2-z
loop_
_atom_site_type_symbol
_atom_site_label
_atom_site_fract_x
_atom_site_fract_y
_atom_site_fract_z
Si Si1 0.008943 0.273284 0.299128
Si Si2 0.800279 0.422060 0.955079
Si Si3 0.286356 0.193178 0.080824
Si Si4 0.000000 0.675431 0.000000
Si Si5 0.680611 0.316235 0.118175
Si Si6 0.339742 0.899675 0.145021
Si Si7 0.000000 0.500000 0.500000
O O1 0.988232 0.276535 0.134810
O O2 0.061242 0.204859 0.358809
O O3 0.095957 0.331075 0.320349
O O4 0.906459 0.297579 0.376679
O O5 0.783506 0.419641 0.787746
O O6 0.818801 0.500000 0.000000
O O7 0.708734 0.387450 0.044547
O O8 0.901512 0.375349 0.986973
O O9 0.226784 0.189806 0.226185
O O10 0.265887 0.259541 0.984374
O O11 0.272775 0.125021 0.987316
O O12 0.424175 0.954827 0.095962
#
# Coordination Sequence:
#
# PCOD9330013 Si02
#       7
#     8   8   8   4   8   8   2
#     4  10  20  37  57  83 121 154 199 244 302 356
#     4  11  24  37  55  85 125 159 199 242 307 376
#     4  11  20  39  57  86 118 153 200 257 296 359
#     4  10  19  36  56  92 114 163 190 252 304 367
#     4  11  22  36  58  84 117 160 200 246 300 363
#     4  10  22  33  53  81 117 162 188 229 298 371
#     4  12  20  32  54  84 120 160 190 224 304 400
#
# _framework density 19.046213000000002
#
# number of rings (size 3 to 8) (size 9 to 14) (size 15 to 20)
#    0.000    1.391    3.478    4.957    7.304    0.000 
#    0.000    0.000    0.000    2.087    0.000    0.000 
#    0.000    0.000    0.000    0.000    0.000    0.000 
#
# Total GULP energy -128318.396486 kJ/mol
# GULP energy per Si atom -5579.060717 kJ/mol
# Density = 1.900286 g / cm^3
# Si number density = 19.046213 Si / 1000 Ang^3
#
#
#
# Elastic Constant Matrix: (Units=GPa)
#
#
# Indices 1 2 3 4 5 6 
#
# 1 31.1215 21.9080 23.4238 0.0000 0.0000 0.0000
# 2 21.9080 64.6835 38.8490 0.0000 0.0000 0.0000
# 3 23.4238 38.8490 182.2755 0.0000 0.0000 0.0000
# 4 0.0000 0.0000 0.0000 20.8300 0.0000 0.0000
# 5 0.0000 0.0000 0.0000 0.0000 27.5497 0.0000
# 6 0.0000 0.0000 0.0000 0.0000 0.0000 25.0177
#
#
#
# Elastic Compliance Matrix: (Units=1/GPa)
#
#
# Indices 1 2 3 4 5 6 
#
# 1 0.043406 -0.013018 -0.002804 0.000000 0.000000 0.000000
# 2 -0.013018 0.021633 -0.002938 0.000000 0.000000 0.000000
# 3 -0.002804 -0.002938 0.006473 0.000000 0.000000 0.000000
# 4 0.000000 0.000000 0.000000 0.048008 0.000000 0.000000
# 5 0.000000 0.000000 0.000000 0.000000 0.036298 0.000000
# 6 0.000000 0.000000 0.000000 0.000000 0.000000 0.039972
#
#
# Mechanical properties :
#
#
# Convention : Reuss Voigt Hill
#
# Bulk Modulus (GPa) = 29.41702 49.60467 39.51084
# Shear Modulus (GPa) = 20.43827 27.60611 24.02219
#
# Velocity S-wave (km/s) = 3.27936 3.81127 3.55527
# Velocity P-wave (km/s) = 5.46054 6.74304 6.13539
#
# Compressibility (1/GPa) = 0.03399393
#
# Stress axis : x y z
#
# Youngs Moduli (GPa) = 23.03828 46.22470 154.49623
#
# Poissons Ratio (x) = 0.60174 0.43313
# Poissons Ratio (y) = 0.29990 0.45390
# Poissons Ratio (z) = 0.06459 0.13581
#
# Static dielectric constant tensor:
#      x y z
#    x 1.688460 0.000000 0.000000 
#    y 0.000000 1.672880 0.000000 
#    z 0.000000 0.000000 1.753040 
# 
# From -- ./inp_files/10112.got.cif
#   From: 2010.05.17/outbox.cif.g08.bks.cpg/sg23_6_cif.got.tgz:10112.got - 2010.06.04 12:02:01.
