data_PCOD9330367
_publ_section_title
;
Structure prediction by ZEFSAII (Michael W. Deem and Ramdas Pophale) SiO2 
 PCOD9330367
Probable space group: I 2 2 2
;
_chemical_formula_sum "Si O2"
_cell_formula_units_Z 28
_cell_length_a 5.105953
_cell_length_b 10.715110
_cell_length_c 24.995485
_cell_angle_alpha 90.000000
_cell_angle_beta 90.000000
_cell_angle_gamma 90.000000
_cell_volume 1367.524182
_symmetry_space_group_name_H-M "I 2 2 2"
_symmetry_group_IT_number 23
_symmetry_cell_setting 'orthorhombic'
loop_
_space_group_symop_operation_xyz
x,y,z
-x,-y,z
x,-y,-z
-x,y,-z
1/2+x,1/2+y,1/2+z
1/2-x,1/2-y,1/2+z
1/2+x,1/2-y,1/2-z
1/2-x,1/2+y,1/2-z
loop_
_atom_site_type_symbol
_atom_site_label
_atom_site_fract_x
_atom_site_fract_y
_atom_site_fract_z
Si Si1 0.849353 0.671729 0.231138
Si Si2 0.000000 0.000000 0.794267
Si Si3 0.515026 0.268479 0.373720
Si Si4 0.503242 0.850945 0.935902
O O1 0.587931 0.761254 0.236911
O O2 0.737668 0.545855 0.257313
O O3 0.943815 0.659884 0.169831
O O4 0.952864 0.113923 0.833901
O O5 0.246346 0.287139 0.405532
O O6 0.746920 0.281484 0.415356
O O7 0.500000 0.000000 0.922284
O O8 0.500000 0.843610 0.000000
#
# Coordination Sequence:
#
# PCOD9330367 Si02
#       4
#     8   4   8   8
#     4  10  22  34  53  80 112 156 203 225 278 347
#     4  10  20  36  53  78 117 152 186 236 272 334
#     4  11  20  34  54  78 112 153 189 231 281 333
#     4  11  21  34  52  78 109 150 193 227 285 342
#
# _framework density 20.474958999999998
#
# number of rings (size 3 to 8) (size 9 to 14) (size 15 to 20)
#    0.000    1.429    2.857    4.286    0.000    5.714 
#    0.000    0.000    0.000    0.000    0.000    1.000 
#    0.000   13.714    0.000    1.143    0.000    0.000 
#
# Total GULP energy -78120.904702 kJ/mol
# GULP energy per Si atom -5580.064622 kJ/mol
# Density = 2.042836 g / cm^3
# Si number density = 20.474959 Si / 1000 Ang^3
#
#
#
# Elastic Constant Matrix: (Units=GPa)
#
#
# Indices 1 2 3 4 5 6 
#
# 1 141.2492 7.9055 32.4494 0.0000 0.0000 0.0000
# 2 7.9055 34.5764 8.8477 0.0000 0.0000 0.0000
# 3 32.4494 8.8477 109.2711 0.0000 0.0000 0.0000
# 4 0.0000 0.0000 0.0000 26.5959 0.0000 0.0000
# 5 0.0000 0.0000 0.0000 0.0000 14.2376 0.0000
# 6 0.0000 0.0000 0.0000 0.0000 0.0000 24.6948
#
#
#
# Elastic Compliance Matrix: (Units=1/GPa)
#
#
# Indices 1 2 3 4 5 6 
#
# 1 0.007646 -0.001192 -0.002174 0.000000 0.000000 0.000000
# 2 -0.001192 0.029719 -0.002052 0.000000 0.000000 0.000000
# 3 -0.002174 -0.002052 0.009963 0.000000 0.000000 0.000000
# 4 0.000000 0.000000 0.000000 0.037600 0.000000 0.000000
# 5 0.000000 0.000000 0.000000 0.000000 0.070237 0.000000
# 6 0.000000 0.000000 0.000000 0.000000 0.000000 0.040494
#
#
# Mechanical properties :
#
#
# Convention : Reuss Voigt Hill
#
# Bulk Modulus (GPa) = 27.40345 42.61133 35.00739
# Shear Modulus (GPa) = 22.86659 28.83193 25.84926
#
# Velocity S-wave (km/s) = 3.34549 3.75661 3.55700
# Velocity P-wave (km/s) = 5.32316 6.29863 5.83133
#
# Compressibility (1/GPa) = 0.03649176
#
# Stress axis : x y z
#
# Youngs Moduli (GPa) = 130.79022 33.64835 100.36799
#
# Poissons Ratio (x) = 0.04010 0.21820
# Poissons Ratio (y) = 0.15588 0.20600
# Poissons Ratio (z) = 0.28434 0.06906
#
# Static dielectric constant tensor:
#      x y z
#    x 1.752250 0.000000 0.000000 
#    y 0.000000 1.900160 0.000000 
#    z 0.000000 0.000000 1.754560 
# 
# From -- ./inp_files/1464.got.cif
#   From: 2010.05.17/outbox.cif.g08.bks.cpg/sg23_1_cif.got.tgz:1464.got - 2010.06.04 12:02:01.
