data_PCOD9330730
_publ_section_title
;
Structure prediction by ZEFSAII (Michael W. Deem and Ramdas Pophale) SiO2 
 PCOD9330730
Probable space group: I 2 2 2
;
_chemical_formula_sum "Si O2"
_cell_formula_units_Z 64
_cell_length_a 9.535269
_cell_length_b 30.677891
_cell_length_c 11.297759
_cell_angle_alpha 90.000000
_cell_angle_beta 90.000000
_cell_angle_gamma 90.000000
_cell_volume 3304.842415
_symmetry_space_group_name_H-M "I 2 2 2"
_symmetry_group_IT_number 23
_symmetry_cell_setting 'orthorhombic'
loop_
_space_group_symop_operation_xyz
x,y,z
-x,-y,z
x,-y,-z
-x,y,-z
1/2+x,1/2+y,1/2+z
1/2-x,1/2-y,1/2+z
1/2+x,1/2-y,1/2-z
1/2-x,1/2+y,1/2-z
loop_
_atom_site_type_symbol
_atom_site_label
_atom_site_fract_x
_atom_site_fract_y
_atom_site_fract_z
Si Si1 0.838594 0.994418 0.360164
Si Si2 0.020035 0.263037 0.862246
Si Si3 0.779907 0.661640 0.858901
Si Si4 0.843951 0.567885 0.266862
Si Si5 0.664045 0.552710 0.497893
Si Si6 0.010765 0.199940 0.635371
Si Si7 0.688326 0.843622 0.624961
Si Si8 0.331173 0.923072 0.769557
O O1 0.736513 0.031252 0.308223
O O2 0.845636 0.000000 0.500000
O O3 0.763095 0.949183 0.326131
O O4 0.000000 0.000000 0.313264
O O5 0.913061 0.303266 0.848325
O O6 0.167990 0.288325 0.850763
O O7 0.002389 0.230828 0.751282
O O8 0.000000 0.246674 0.000000
O O9 0.613396 0.664915 0.855727
O O10 0.835962 0.627817 0.763774
O O11 0.830053 0.645182 0.986760
O O12 0.754485 0.568846 0.386997
O O13 0.834727 0.614236 0.202725
O O14 0.010272 0.558907 0.280907
O O15 0.668061 0.500000 0.500000
O O16 0.500000 0.565713 0.500000
O O17 0.745171 0.569790 0.611619
O O18 0.156876 0.175090 0.640178
O O19 0.000000 0.219737 0.500000
#
# Coordination Sequence:
#
# PCOD9330730 Si02
#       8
#     8   8   8   8   8   8   8   8
#     4  11  25  40  63  96 129 165 211 265 314 377
#     4  10  20  42  66  91 128 167 211 266 331 390
#     4  10  22  40  64  93 130 167 208 265 319 376
#     4  12  24  42  66  93 127 167 216 261 319 379
#     4  11  25  45  67  89 128 174 210 260 322 384
#     4  10  22  40  64  93 128 171 215 262 325 390
#     4  10  22  40  64  93 130 167 208 265 319 376
#     4  12  24  42  66  93 127 167 216 261 319 379
#
# _framework density 19.365523
#
# number of rings (size 3 to 8) (size 9 to 14) (size 15 to 20)
#    0.000    1.250    2.500    3.000    3.500    2.500 
#    4.500    0.000    0.000    0.000    0.000    0.000 
#    0.000    0.000    0.000    0.000    0.000    0.000 
#
# Total GULP energy -178589.413789 kJ/mol
# GULP energy per Si atom -5580.919181 kJ/mol
# Density = 1.932145 g / cm^3
# Si number density = 19.365523 Si / 1000 Ang^3
#
#
#
# Elastic Constant Matrix: (Units=GPa)
#
#
# Indices 1 2 3 4 5 6 
#
# 1 128.1950 16.9995 33.9071 0.0003 0.0002 -0.0001
# 2 16.9995 52.4549 45.9112 0.0000 0.0005 -0.0002
# 3 33.9071 45.9112 126.1415 -0.0008 0.0000 0.0026
# 4 0.0003 0.0000 -0.0008 37.2291 0.0003 -0.0001
# 5 0.0002 0.0005 0.0000 0.0003 20.5564 0.0003
# 6 -0.0001 -0.0002 0.0026 -0.0001 0.0003 -37.6684
#
#
#
# Elastic Compliance Matrix: (Units=1/GPa)
#
#
# Indices 1 2 3 4 5 6 
#
# 1 0.008441 -0.001100 -0.001868 0.000000 0.000000 0.000000
# 2 -0.001100 0.028119 -0.009939 0.000000 -0.000001 -0.000001
# 3 -0.001868 -0.009939 0.012047 0.000000 0.000000 0.000001
# 4 0.000000 0.000000 0.000000 0.026861 0.000000 0.000000
# 5 0.000000 -0.000001 0.000000 0.000000 0.048647 0.000000
# 6 0.000000 -0.000001 0.000001 0.000000 0.000000 -0.026547
#
#
# Mechanical properties :
#
#
# Convention : Reuss Voigt Hill
#
# Bulk Modulus (GPa) = 43.87377 55.60302 49.73839
# Shear Modulus (GPa) = 38.17389 18.02166 28.09778
#
# Velocity S-wave (km/s) = 4.44467 3.05389 3.81322
# Velocity P-wave (km/s) = 7.00321 6.41948 6.71769
#
# Compressibility (1/GPa) = 0.02279266
#
# Stress axis : x y z
#
# Youngs Moduli (GPa) = 118.47358 35.56258 83.00651
#
# Poissons Ratio (x) = 0.03912 0.15510
# Poissons Ratio (y) = 0.13033 0.82499
# Poissons Ratio (z) = 0.22137 0.35345
#
# Static dielectric constant tensor:
#      x y z
#    x 1.715330 0.000000 0.000000 
#    y 0.000000 1.652490 0.000000 
#    z 0.000000 0.000000 1.695210 
# 
# From -- ./inp_files/14989.got.cif
#   From: 2010.05.17/outbox.cif.g08.bks.cpg/sg23_8_cif.got.tgz:14989.got - 2010.06.04 12:02:01.
