data_PCOD9330215
_publ_section_title
;
Structure prediction by ZEFSAII (Michael W. Deem and Ramdas Pophale) SiO2 
 PCOD9330215
Probable space group: I 2 2 2
;
_chemical_formula_sum "Si O2"
_cell_formula_units_Z 40
_cell_length_a 7.332262
_cell_length_b 15.360032
_cell_length_c 19.014416
_cell_angle_alpha 90.000000
_cell_angle_beta 90.000000
_cell_angle_gamma 90.000000
_cell_volume 2141.475384
_symmetry_space_group_name_H-M "I 2 2 2"
_symmetry_group_IT_number 23
_symmetry_cell_setting 'orthorhombic'
loop_
_space_group_symop_operation_xyz
x,y,z
-x,-y,z
x,-y,-z
-x,y,-z
1/2+x,1/2+y,1/2+z
1/2-x,1/2-y,1/2+z
1/2+x,1/2-y,1/2-z
1/2-x,1/2+y,1/2-z
loop_
_atom_site_type_symbol
_atom_site_label
_atom_site_fract_x
_atom_site_fract_y
_atom_site_fract_z
Si Si1 0.964729 0.654661 0.217961
Si Si2 0.711940 0.789343 0.521652
Si Si3 0.305761 0.964986 0.390987
Si Si4 0.327559 0.349033 0.875690
Si Si5 0.650259 0.232740 0.838546
O O1 0.853880 0.572373 0.186911
O O2 0.827084 0.734531 0.204127
O O3 0.139881 0.665315 0.166967
O O4 0.045964 0.656893 0.296269
O O5 0.500000 0.778262 0.500000
O O6 0.738439 0.882831 0.560449
O O7 0.817031 0.796520 0.448667
O O8 0.781782 0.722401 0.581103
O O9 0.500000 0.000000 0.418261
O O10 0.174648 0.047675 0.389838
O O11 0.503741 0.311783 0.837639
#
# Coordination Sequence:
#
# PCOD9330215 Si02
#       5
#     8   8   8   8   8
#     4  10  20  33  50  70 103 148 183 221 263 320
#     4  11  19  31  50  77 109 143 178 224 270 325
#     4   9  18  31  53  74 108 145 179 220 264 324
#     4  11  20  33  54  76 104 143 187 220 274 332
#     4  11  21  34  50  72 105 150 188 226 265 326
#
# _framework density 18.678712999999998
#
# number of rings (size 3 to 8) (size 9 to 14) (size 15 to 20)
#    0.000    1.600    8.000    1.200    0.000    3.200 
#    0.000    4.000    0.000    0.000    0.000    0.000 
#    0.000   28.800    0.000   82.800    0.000    0.000 
#
# Total GULP energy -111420.547826 kJ/mol
# GULP energy per Si atom -5571.027391 kJ/mol
# Density = 1.863620 g / cm^3
# Si number density = 18.678713 Si / 1000 Ang^3
#
#
#
# Elastic Constant Matrix: (Units=GPa)
#
#
# Indices 1 2 3 4 5 6 
#
# 1 88.7072 5.0742 30.4212 0.0000 0.0000 0.0000
# 2 5.0742 10.6947 25.4142 0.0000 0.0000 0.0000
# 3 30.4212 25.4142 118.2688 0.0000 0.0000 0.0000
# 4 0.0000 0.0000 0.0000 26.8289 0.0000 0.0000
# 5 0.0000 0.0000 0.0000 0.0000 37.1202 0.0000
# 6 0.0000 0.0000 0.0000 0.0000 0.0000 28.4097
#
#
#
# Elastic Compliance Matrix: (Units=1/GPa)
#
#
# Indices 1 2 3 4 5 6 
#
# 1 0.012426 0.003473 -0.003943 0.000000 0.000000 0.000000
# 2 0.003473 0.192043 -0.042161 0.000000 0.000000 0.000000
# 3 -0.003943 -0.042161 0.018529 0.000000 0.000000 0.000000
# 4 0.000000 0.000000 0.000000 0.037273 0.000000 0.000000
# 5 0.000000 0.000000 0.000000 0.000000 0.026940 0.000000
# 6 0.000000 0.000000 0.000000 0.000000 0.000000 0.035199
#
#
# Mechanical properties :
#
#
# Convention : Reuss Voigt Hill
#
# Bulk Modulus (GPa) = 7.26011 37.72110 22.49060
# Shear Modulus (GPa) = 11.02332 28.92249 19.97291
#
# Velocity S-wave (km/s) = 2.43194 3.93927 3.27354
# Velocity P-wave (km/s) = 3.43236 6.39757 5.13371
#
# Compressibility (1/GPa) = 0.13773899
#
# Stress axis : x y z
#
# Youngs Moduli (GPa) = 80.47330 5.20716 53.96907
#
# Poissons Ratio (x) = -0.01809 0.21278
# Poissons Ratio (y) = -0.27951 2.27537
# Poissons Ratio (z) = 0.31728 0.21954
#
# Static dielectric constant tensor:
#      x y z
#    x 1.709820 0.000000 0.000000 
#    y 0.000000 1.667930 0.000000 
#    z 0.000000 0.000000 1.709520 
# 
# From -- ./inp_files/23803.got.cif
#   From: 2010.05.17/outbox.cif.g08.bks.cpg/sg23_12_cif.got.tgz:23803.got - 2010.06.04 12:02:01.
