data_PCOD9330561
_publ_section_title
;
Structure prediction by ZEFSAII (Michael W. Deem and Ramdas Pophale) SiO2 
 PCOD9330561
Probable space group: I 2 2 2
;
_chemical_formula_sum "Si O2"
_cell_formula_units_Z 34
_cell_length_a 6.294020
_cell_length_b 12.953352
_cell_length_c 18.321325
_cell_angle_alpha 90.000000
_cell_angle_beta 90.000000
_cell_angle_gamma 90.000000
_cell_volume 1493.713014
_symmetry_space_group_name_H-M "I 2 2 2"
_symmetry_group_IT_number 23
_symmetry_cell_setting 'orthorhombic'
loop_
_space_group_symop_operation_xyz
x,y,z
-x,-y,z
x,-y,-z
-x,y,-z
1/2+x,1/2+y,1/2+z
1/2-x,1/2-y,1/2+z
1/2+x,1/2-y,1/2-z
1/2-x,1/2+y,1/2-z
loop_
_atom_site_type_symbol
_atom_site_label
_atom_site_fract_x
_atom_site_fract_y
_atom_site_fract_z
Si Si1 0.742016 0.338164 0.000858
Si Si2 0.677644 0.713805 0.641469
Si Si3 0.976641 0.381408 0.746143
Si Si4 0.724871 0.355584 0.602383
Si Si5 0.500000 0.000000 0.000000
O O1 0.723350 0.273345 0.926283
O O2 0.500000 0.390247 0.000000
O O3 0.745530 0.259500 0.069172
O O4 0.000000 0.378498 0.000000
O O5 0.825108 0.655146 0.697971
O O6 0.561130 0.802369 0.688578
O O7 0.526196 0.630850 0.603137
O O8 0.000000 0.500000 0.770140
O O9 0.790980 0.369949 0.686319
O O10 0.858409 0.429870 0.552189
#
# Coordination Sequence:
#
# PCOD9330561 Si02
#       5
#     8   8   8   8   2
#     4  10  20  38  64  93 126 181 222 282 352 413
#     4  11  24  44  64  97 142 188 227 291 357 425
#     4  12  24  43  67 100 142 184 237 281 357 439
#     4  11  22  40  64  96 142 175 225 296 355 428
#     4  12  20  40  62 104 138 174 240 292 370 436
#
# _framework density 22.762072
#
# number of rings (size 3 to 8) (size 9 to 14) (size 15 to 20)
#    0.000    0.941    7.059    0.000    0.000    0.941 
#    8.471    0.000    0.000    6.353    3.059    0.000 
#    0.000    0.000    0.000    0.000    0.000    0.000 
#
# Total GULP energy -94702.158897 kJ/mol
# GULP energy per Si atom -5570.715229 kJ/mol
# Density = 2.271026 g / cm^3
# Si number density = 22.762072 Si / 1000 Ang^3
#
#
#
# Elastic Constant Matrix: (Units=GPa)
#
#
# Indices 1 2 3 4 5 6 
#
# 1 146.2340 34.0206 12.7905 0.0000 0.0000 0.0000
# 2 34.0206 90.5894 1.6984 0.0000 0.0000 0.0000
# 3 12.7905 1.6984 71.0594 0.0000 0.0000 0.0000
# 4 0.0000 0.0000 0.0000 -12.3327 0.0000 0.0000
# 5 0.0000 0.0000 0.0000 0.0000 47.4794 0.0000
# 6 0.0000 0.0000 0.0000 0.0000 0.0000 -21.1307
#
#
#
# Elastic Compliance Matrix: (Units=1/GPa)
#
#
# Indices 1 2 3 4 5 6 
#
# 1 0.007612 -0.002834 -0.001302 0.000000 0.000000 0.000000
# 2 -0.002834 0.012099 0.000221 0.000000 0.000000 0.000000
# 3 -0.001302 0.000221 0.014302 0.000000 0.000000 0.000000
# 4 0.000000 0.000000 0.000000 -0.081085 0.000000 0.000000
# 5 0.000000 0.000000 0.000000 0.000000 0.021062 0.000000
# 6 0.000000 0.000000 0.000000 0.000000 0.000000 -0.047324
#
#
# Mechanical properties :
#
#
# Convention : Reuss Voigt Hill
#
# Bulk Modulus (GPa) = 38.19488 44.98910 41.59199
# Shear Modulus (GPa) = -88.06370 20.09475 -33.98447
#
# Velocity S-wave (km/s) = -6.22678 2.97445 -3.86817
# Velocity P-wave (km/s) = 5.90598 5.62177 1.27989
#
# Compressibility (1/GPa) = 0.02618152
#
# Stress axis : x y z
#
# Youngs Moduli (GPa) = 131.37838 82.65142 69.92095
#
# Poissons Ratio (x) = 0.23424 0.09106
# Poissons Ratio (y) = 0.37234 -0.01545
# Poissons Ratio (z) = 0.17110 -0.01826
#
# Static dielectric constant tensor:
#      x y z
#    x 2.042950 0.000000 0.000000 
#    y 0.000000 1.818720 0.000000 
#    z 0.000000 0.000000 1.764500 
# 
# From -- ./inp_files/3731.got.cif
#   From: 2010.05.17/outbox.cif.g08.bks.cpg/sg23_2_cif.got.tgz:3731.got - 2010.06.04 12:02:01.
