data_PCOD9330712
_publ_section_title
;
Structure prediction by ZEFSAII (Michael W. Deem and Ramdas Pophale) SiO2 
 PCOD9330712
Probable space group: I 2 2 2
;
_chemical_formula_sum "Si O2"
_cell_formula_units_Z 36
_cell_length_a 10.216436
_cell_length_b 17.656577
_cell_length_c 7.687580
_cell_angle_alpha 90.000000
_cell_angle_beta 90.000000
_cell_angle_gamma 90.000000
_cell_volume 1386.741714
_symmetry_space_group_name_H-M "I 2 2 2"
_symmetry_group_IT_number 23
_symmetry_cell_setting 'orthorhombic'
loop_
_space_group_symop_operation_xyz
x,y,z
-x,-y,z
x,-y,-z
-x,y,-z
1/2+x,1/2+y,1/2+z
1/2-x,1/2-y,1/2+z
1/2+x,1/2-y,1/2-z
1/2-x,1/2+y,1/2-z
loop_
_atom_site_type_symbol
_atom_site_label
_atom_site_fract_x
_atom_site_fract_y
_atom_site_fract_z
Si Si1 0.785576 0.576632 0.412082
Si Si2 0.378742 0.819132 0.781272
Si Si3 0.733281 0.088826 0.480135
Si Si4 0.888225 0.795490 0.315938
Si Si5 0.000000 0.893467 0.000000
O O1 0.837216 0.500000 0.500000
O O2 0.836096 0.640146 0.542704
O O3 0.821575 0.592463 0.214012
O O4 0.626801 0.568615 0.412292
O O5 0.369341 0.881622 0.626946
O O6 0.504750 0.769350 0.811446
O O7 0.257112 0.764678 0.727942
O O8 0.854049 0.146569 0.524872
O O9 0.769034 0.000000 0.500000
O O10 0.933813 0.846689 0.154693
#
# Coordination Sequence:
#
# PCOD9330712 Si02
#       5
#     8   8   8   8   4
#     4  11  20  40  69 108 151 197 260 336 394 474
#     4   9  21  43  69 110 156 201 260 331 399 493
#     4  10  20  41  72 110 149 206 264 327 405 475
#     4   9  21  44  69 109 158 199 264 328 411 485
#     4  10  21  40  64 102 151 190 246 324 381 464
#
# _framework density 25.960131000000001
#
# number of rings (size 3 to 8) (size 9 to 14) (size 15 to 20)
#    1.333    0.889    2.222    0.333    0.000    0.889 
#   16.000    1.111    0.000    1.333    0.000   10.111 
#    0.000    0.000    0.000    0.000    0.000    0.000 
#
# Total GULP energy -100594.423634 kJ/mol
# GULP energy per Si atom -5588.579091 kJ/mol
# Density = 2.590105 g / cm^3
# Si number density = 25.960131 Si / 1000 Ang^3
#
#
#
# Elastic Constant Matrix: (Units=GPa)
#
#
# Indices 1 2 3 4 5 6 
#
# 1 167.0305 90.2292 42.0585 0.0000 0.0000 0.0000
# 2 90.2292 149.8617 73.1240 -0.0001 0.0000 0.0000
# 3 42.0585 73.1240 244.0421 -0.0001 -0.0001 0.0006
# 4 0.0000 -0.0001 -0.0001 41.1740 0.0000 0.0001
# 5 0.0000 0.0000 -0.0001 0.0000 30.5828 0.0000
# 6 0.0000 0.0000 0.0006 0.0001 0.0000 -13.7776
#
#
#
# Elastic Compliance Matrix: (Units=1/GPa)
#
#
# Indices 1 2 3 4 5 6 
#
# 1 0.008874 -0.005384 0.000084 0.000000 0.000000 0.000000
# 2 -0.005384 0.011082 -0.002393 0.000000 0.000000 0.000000
# 3 0.000084 -0.002393 0.004800 0.000000 0.000000 0.000000
# 4 0.000000 0.000000 0.000000 0.024287 0.000000 0.000000
# 5 0.000000 0.000000 0.000000 0.000000 0.032698 0.000000
# 6 0.000000 0.000000 0.000000 0.000000 0.000000 -0.072581
#
#
# Mechanical properties :
#
#
# Convention : Reuss Voigt Hill
#
# Bulk Modulus (GPa) = 106.71556 107.97308 107.34432
# Shear Modulus (GPa) = 180.70735 35.29734 108.00234
#
# Velocity S-wave (km/s) = 8.35229 3.69138 6.45705
# Velocity P-wave (km/s) = 11.58495 7.73631 9.85042
#
# Compressibility (1/GPa) = 0.00937070
#
# Stress axis : x y z
#
# Youngs Moduli (GPa) = 112.68639 90.23754 208.32744
#
# Poissons Ratio (x) = 0.48583 -0.01746
# Poissons Ratio (y) = 0.60669 0.49846
# Poissons Ratio (z) = -0.00945 0.21591
#
# Static dielectric constant tensor:
#      x y z
#    x 2.110990 0.000000 0.000000 
#    y 0.000000 2.093130 0.000000 
#    z 0.000000 0.000000 2.100490 
# 
# From -- ./inp_files/8374.got.cif
#   From: 2010.05.17/outbox.cif.g08.bks.cpg/sg23_5_cif.got.tgz:8374.got - 2010.06.04 12:02:01.
