data_PCOD9330304
_publ_section_title
;
Structure prediction by ZEFSAII (Michael W. Deem and Ramdas Pophale) SiO2 
 PCOD9330304
Probable space group: I 2 2 2
;
_chemical_formula_sum "Si O2"
_cell_formula_units_Z 30
_cell_length_a 5.968037
_cell_length_b 12.106558
_cell_length_c 22.200184
_cell_angle_alpha 90.000000
_cell_angle_beta 90.000000
_cell_angle_gamma 90.000000
_cell_volume 1604.016266
_symmetry_space_group_name_H-M "I 2 2 2"
_symmetry_group_IT_number 23
_symmetry_cell_setting 'orthorhombic'
loop_
_space_group_symop_operation_xyz
x,y,z
-x,-y,z
x,-y,-z
-x,y,-z
1/2+x,1/2+y,1/2+z
1/2-x,1/2-y,1/2+z
1/2+x,1/2-y,1/2-z
1/2-x,1/2+y,1/2-z
loop_
_atom_site_type_symbol
_atom_site_label
_atom_site_fract_x
_atom_site_fract_y
_atom_site_fract_z
Si Si1 0.500000 0.500000 0.000000
Si Si2 0.000000 0.000000 0.301586
Si Si3 0.836492 0.314297 0.830946
Si Si4 0.877826 0.390595 0.281206
Si Si5 0.610843 0.879366 0.440360
O O1 0.358729 0.415978 0.958312
O O2 0.167421 0.069011 0.258928
O O3 0.840897 0.084957 0.337642
O O4 0.705865 0.199271 0.828466
O O5 0.950181 0.334461 0.765863
O O6 0.032910 0.317828 0.880541
O O7 0.000000 0.500000 0.305800
O O8 0.500000 0.826569 0.500000
O O9 0.500000 0.000000 0.433630
#
# Coordination Sequence:
#
# PCOD9330304 Si02
#       5
#     2   4   8   8   8
#     4   8  18  38  48  78 116 156 186 232 282 358
#     4  10  20  35  52  79 115 154 189 236 278 350
#     4  11  20  35  54  82 118 154 191 235 288 342
#     4  10  21  34  52  81 117 156 192 230 286 336
#     4   9  19  33  53  83 115 150 189 233 289 342
#
# _framework density 18.703052
#
# number of rings (size 3 to 8) (size 9 to 14) (size 15 to 20)
#    0.000    2.400    2.667    2.400    0.000    9.600 
#    0.000    0.000    0.000    0.000    0.000    0.933 
#    8.000    2.667    0.000    0.000    0.000    0.000 
#
# Total GULP energy -83618.350455 kJ/mol
# GULP energy per Si atom -5574.556697 kJ/mol
# Density = 1.866048 g / cm^3
# Si number density = 18.703052 Si / 1000 Ang^3
#
#
#
# Elastic Constant Matrix: (Units=GPa)
#
#
# Indices 1 2 3 4 5 6 
#
# 1 103.5368 39.0563 30.5623 0.0000 0.0000 0.0000
# 2 39.0563 96.9266 41.3377 0.0000 0.0000 0.0000
# 3 30.5623 41.3377 71.2815 0.0000 0.0000 0.0000
# 4 0.0000 0.0000 0.0000 11.5414 0.0000 0.0000
# 5 0.0000 0.0000 0.0000 0.0000 18.2077 0.0000
# 6 0.0000 0.0000 0.0000 0.0000 0.0000 29.1442
#
#
#
# Elastic Compliance Matrix: (Units=1/GPa)
#
#
# Indices 1 2 3 4 5 6 
#
# 1 0.011877 -0.003473 -0.003078 0.000000 0.000000 0.000000
# 2 -0.003473 0.014723 -0.007049 0.000000 0.000000 0.000000
# 3 -0.003078 -0.007049 0.019437 0.000000 0.000000 0.000000
# 4 0.000000 0.000000 0.000000 0.086645 0.000000 0.000000
# 5 0.000000 0.000000 0.000000 0.000000 0.054922 0.000000
# 6 0.000000 0.000000 0.000000 0.000000 0.000000 0.034312
#
#
# Mechanical properties :
#
#
# Convention : Reuss Voigt Hill
#
# Bulk Modulus (GPa) = 53.09011 54.85084 53.97047
# Shear Modulus (GPa) = 19.57757 22.49791 21.03774
#
# Velocity S-wave (km/s) = 3.23887 3.47205 3.35749
# Velocity P-wave (km/s) = 6.51418 6.74273 6.62944
#
# Compressibility (1/GPa) = 0.01883590
#
# Stress axis : x y z
#
# Youngs Moduli (GPa) = 84.19515 67.92182 51.44935
#
# Poissons Ratio (x) = 0.23589 0.15838
# Poissons Ratio (y) = 0.29241 0.36267
# Poissons Ratio (z) = 0.25918 0.47878
#
# Static dielectric constant tensor:
#      x y z
#    x 1.747850 0.000000 0.000000 
#    y 0.000000 1.650090 0.000000 
#    z 0.000000 0.000000 1.704560 
# 
# From -- ./inp_files/1283.got.cif
#   From: 2010.05.17/outbox.cif.g08.bks.cpg/sg23_1_cif.got.tgz:1283.got - 2010.06.04 12:02:01.
