data_PCOD9330476
_publ_section_title
;
Structure prediction by ZEFSAII (Michael W. Deem and Ramdas Pophale) SiO2 
 PCOD9330476
Probable space group: I 2 2 2
;
_chemical_formula_sum "Si O2"
_cell_formula_units_Z 40
_cell_length_a 24.616871
_cell_length_b 9.661175
_cell_length_c 8.056278
_cell_angle_alpha 90.000000
_cell_angle_beta 90.000000
_cell_angle_gamma 90.000000
_cell_volume 1916.007668
_symmetry_space_group_name_H-M "I 2 2 2"
_symmetry_group_IT_number 23
_symmetry_cell_setting 'orthorhombic'
loop_
_space_group_symop_operation_xyz
x,y,z
-x,-y,z
x,-y,-z
-x,y,-z
1/2+x,1/2+y,1/2+z
1/2-x,1/2-y,1/2+z
1/2+x,1/2-y,1/2-z
1/2-x,1/2+y,1/2-z
loop_
_atom_site_type_symbol
_atom_site_label
_atom_site_fract_x
_atom_site_fract_y
_atom_site_fract_z
Si Si1 0.597154 0.798399 0.452260
Si Si2 0.115167 0.000000 0.000000
Si Si3 0.560989 0.969651 0.767632
Si Si4 0.310371 0.499428 0.181949
Si Si5 0.650186 0.000000 0.000000
Si Si6 0.793059 0.315014 0.220382
O O1 0.583392 0.638308 0.456669
O O2 0.568720 0.875031 0.605187
O O3 0.662778 0.815940 0.431042
O O4 0.578689 0.876906 0.288289
O O5 0.151498 0.033947 0.161966
O O6 0.500000 0.000000 0.821433
O O7 0.606495 0.913189 0.892255
O O8 0.262368 0.611360 0.170100
O O9 0.288455 0.344720 0.224207
O O10 0.337648 0.500000 0.000000
O O11 0.685275 0.906561 0.123840
#
# Coordination Sequence:
#
# PCOD9330476 Si02
#       6
#     8   4   8   8   4   8
#     4   9  20  37  59  81 117 148 196 240 297 356
#     4  10  23  42  55  89 120 163 199 242 291 354
#     4  10  20  37  62  89 111 146 193 250 305 366
#     4  11  26  38  61  84 128 161 212 241 290 348
#     4  10  22  36  62  83 122 149 200 244 306 354
#     4  10  24  38  55  89 114 166 199 245 293 344
#
# _framework density 20.876743999999999
#
# number of rings (size 3 to 8) (size 9 to 14) (size 15 to 20)
#    0.000    2.000    0.000    2.100   16.800    0.000 
#    0.000    2.000    0.000    0.000    0.000    2.800 
#    0.000    0.000    0.000    0.000    0.000    0.000 
#
# Total GULP energy -111498.847967 kJ/mol
# GULP energy per Si atom -5574.942398 kJ/mol
# Density = 2.082923 g / cm^3
# Si number density = 20.876744 Si / 1000 Ang^3
#
#
#
# Elastic Constant Matrix: (Units=GPa)
#
#
# Indices 1 2 3 4 5 6 
#
# 1 19.7651 3.6740 8.9135 0.0000 0.0000 0.0000
# 2 3.6740 100.5497 -1.9194 0.0000 0.0000 0.0000
# 3 8.9135 -1.9194 98.1324 0.0000 0.0000 0.0000
# 4 0.0000 0.0000 0.0000 16.2302 0.0000 0.0000
# 5 0.0000 0.0000 0.0000 0.0000 34.8246 0.0000
# 6 0.0000 0.0000 0.0000 0.0000 0.0000 10.8032
#
#
#
# Elastic Compliance Matrix: (Units=1/GPa)
#
#
# Indices 1 2 3 4 5 6 
#
# 1 0.053168 -0.002036 -0.004869 0.000000 0.000000 0.000000
# 2 -0.002036 0.010027 0.000381 0.000000 0.000000 0.000000
# 3 -0.004869 0.000381 0.010640 0.000000 0.000000 0.000000
# 4 0.000000 0.000000 0.000000 0.061614 0.000000 0.000000
# 5 0.000000 0.000000 0.000000 0.000000 0.028715 0.000000
# 6 0.000000 0.000000 0.000000 0.000000 0.000000 0.092565
#
#
# Mechanical properties :
#
#
# Convention : Reuss Voigt Hill
#
# Bulk Modulus (GPa) = 16.45068 26.64260 21.54664
# Shear Modulus (GPa) = 17.23902 26.22354 21.73128
#
# Velocity S-wave (km/s) = 2.87671 3.54801 3.22985
# Velocity P-wave (km/s) = 4.35097 5.43821 4.92468
#
# Compressibility (1/GPa) = 0.06078777
#
# Stress axis : x y z
#
# Youngs Moduli (GPa) = 18.80816 99.73081 93.98462
#
# Poissons Ratio (x) = 0.20302 0.45763
# Poissons Ratio (y) = 0.03829 -0.03581
# Poissons Ratio (z) = 0.09158 -0.03800
#
# Static dielectric constant tensor:
#      x y z
#    x 1.812650 0.000000 0.000000 
#    y 0.000000 1.714610 0.000000 
#    z 0.000000 0.000000 1.859260 
# 
# From -- ./inp_files/7127.got.cif
#   From: 2010.05.17/outbox.cif.g08.bks.cpg/sg23_4_cif.got.tgz:7127.got - 2010.06.04 12:02:01.
