data_PCOD9330275
_publ_section_title
;
Structure prediction by ZEFSAII (Michael W. Deem and Ramdas Pophale) SiO2 
 PCOD9330275
Probable space group: I 2 2 2
;
_chemical_formula_sum "Si O2"
_cell_formula_units_Z 48
_cell_length_a 10.000852
_cell_length_b 7.884733
_cell_length_c 24.566371
_cell_angle_alpha 90.000000
_cell_angle_beta 90.000000
_cell_angle_gamma 90.000000
_cell_volume 1937.157793
_symmetry_space_group_name_H-M "I 2 2 2"
_symmetry_group_IT_number 23
_symmetry_cell_setting 'orthorhombic'
loop_
_space_group_symop_operation_xyz
x,y,z
-x,-y,z
x,-y,-z
-x,y,-z
1/2+x,1/2+y,1/2+z
1/2-x,1/2-y,1/2+z
1/2+x,1/2-y,1/2-z
1/2-x,1/2+y,1/2-z
loop_
_atom_site_type_symbol
_atom_site_label
_atom_site_fract_x
_atom_site_fract_y
_atom_site_fract_z
Si Si1 0.172994 0.109584 0.947416
Si Si2 0.233165 0.982390 0.663500
Si Si3 0.653030 0.157105 0.880992
Si Si4 0.700636 0.450614 0.291062
Si Si5 0.537562 0.745262 0.346411
Si Si6 0.418820 0.672489 0.071203
O O1 0.053406 0.186915 0.909981
O O2 0.286020 0.257187 0.959309
O O3 0.247550 0.971564 0.909876
O O4 0.138727 0.000000 0.000000
O O5 0.202193 0.974360 0.726939
O O6 0.384135 0.921784 0.655775
O O7 0.135145 0.854348 0.632429
O O8 0.204334 0.151944 0.629344
O O9 0.655926 0.087927 0.818667
O O10 0.527503 0.181715 0.920173
O O11 0.640468 0.622970 0.314280
O O12 0.598681 0.304279 0.314474
O O13 0.500000 0.500000 0.055281
#
# Coordination Sequence:
#
# PCOD9330275 Si02
#       6
#     8   8   8   8   8   8
#     4  10  21  42  64  82 118 161 203 261 314 371
#     4  10  20  34  57  83 126 163 198 262 315 372
#     4  10  21  35  54  90 119 156 208 254 306 385
#     4  10  20  34  59  80 120 166 204 253 315 377
#     4   9  21  37  53  87 114 156 216 250 298 392
#     4   9  20  36  58  89 122 148 202 258 308 384
#
# _framework density 24.778568
#
# number of rings (size 3 to 8) (size 9 to 14) (size 15 to 20)
#    0.000    2.333    0.000    1.500    9.333    2.000 
#    0.000   16.667    0.000    0.000    0.000   21.000 
#    0.000    0.000    0.000    0.000    0.000    0.000 
#
# Total GULP energy -133784.548361 kJ/mol
# GULP energy per Si atom -5574.356182 kJ/mol
# Density = 2.472217 g / cm^3
# Si number density = 24.778568 Si / 1000 Ang^3
#
#
#
# Elastic Constant Matrix: (Units=GPa)
#
#
# Indices 1 2 3 4 5 6 
#
# 1 105.9334 28.6540 22.6065 0.0000 0.0000 0.0000
# 2 28.6540 67.0882 3.4500 0.0000 0.0000 0.0000
# 3 22.6065 3.4500 134.5430 0.0000 0.0000 0.0000
# 4 0.0000 0.0000 0.0000 47.8405 0.0000 0.0000
# 5 0.0000 0.0000 0.0000 0.0000 5.2908 0.0000
# 6 0.0000 0.0000 0.0000 0.0000 0.0000 31.3255
#
#
#
# Elastic Compliance Matrix: (Units=1/GPa)
#
#
# Indices 1 2 3 4 5 6 
#
# 1 0.011065 -0.004637 -0.001740 0.000000 0.000000 0.000000
# 2 -0.004637 0.016868 0.000347 0.000000 0.000000 0.000000
# 3 -0.001740 0.000347 0.007716 0.000000 0.000000 0.000000
# 4 0.000000 0.000000 0.000000 0.020903 0.000000 0.000000
# 5 0.000000 0.000000 0.000000 0.000000 0.189009 0.000000
# 6 0.000000 0.000000 0.000000 0.000000 0.000000 0.031923
#
#
# Mechanical properties :
#
#
# Convention : Reuss Voigt Hill
#
# Bulk Modulus (GPa) = 42.39291 46.33172 44.36232
# Shear Modulus (GPa) = 16.81192 33.74829 25.28011
#
# Velocity S-wave (km/s) = 2.60760 3.69453 3.19759
# Velocity P-wave (km/s) = 5.11976 6.07769 5.61917
#
# Compressibility (1/GPa) = 0.02358885
#
# Stress axis : x y z
#
# Youngs Moduli (GPa) = 90.37123 59.28283 129.59901
#
# Poissons Ratio (x) = 0.27487 0.22555
# Poissons Ratio (y) = 0.41902 -0.04491
# Poissons Ratio (z) = 0.15728 -0.02054
#
# Static dielectric constant tensor:
#      x y z
#    x 2.105710 0.000000 0.000000 
#    y 0.000000 2.096210 0.000000 
#    z 0.000000 0.000000 1.976930 
# 
# From -- ./inp_files/18304.got.cif
#   From: 2010.05.17/outbox.cif.g08.bks.cpg/sg23_10_cif.got.tgz:18304.got - 2010.06.04 12:02:01.
