data_PCOD9330695
_publ_section_title
;
Structure prediction by ZEFSAII (Michael W. Deem and Ramdas Pophale) SiO2 
 PCOD9330695
Probable space group: I 2 2 2
;
_chemical_formula_sum "Si O2"
_cell_formula_units_Z 38
_cell_length_a 8.406338
_cell_length_b 10.916674
_cell_length_c 22.259062
_cell_angle_alpha 90.000000
_cell_angle_beta 90.000000
_cell_angle_gamma 90.000000
_cell_volume 2042.697458
_symmetry_space_group_name_H-M "I 2 2 2"
_symmetry_group_IT_number 23
_symmetry_cell_setting 'orthorhombic'
loop_
_space_group_symop_operation_xyz
x,y,z
-x,-y,z
x,-y,-z
-x,y,-z
1/2+x,1/2+y,1/2+z
1/2-x,1/2-y,1/2+z
1/2+x,1/2-y,1/2-z
1/2-x,1/2+y,1/2-z
loop_
_atom_site_type_symbol
_atom_site_label
_atom_site_fract_x
_atom_site_fract_y
_atom_site_fract_z
Si Si1 0.332460 0.270336 0.176980
Si Si2 0.522291 0.854804 0.929632
Si Si3 0.276052 0.839300 0.587483
Si Si4 0.500000 0.500000 0.132484
Si Si5 0.018943 0.354565 0.793391
Si Si6 0.500000 0.000000 0.500000
O O1 0.393567 0.208604 0.114832
O O2 0.404892 0.405841 0.173412
O O3 0.145476 0.288111 0.187888
O O4 0.411307 0.199871 0.232281
O O5 0.697128 0.795284 0.919269
O O6 0.500000 0.000000 0.920123
O O7 0.500000 0.829088 0.000000
O O8 0.361715 0.837953 0.651460
O O9 0.393277 0.906980 0.540497
O O10 0.123691 0.927358 0.591859
O O11 0.000000 0.500000 0.785472
#
# Coordination Sequence:
#
# PCOD9330695 Si02
#       6
#     8   8   8   4   8   2
#     4  11  23  40  67  90 130 171 212 271 333 386
#     4  10  24  45  67  94 130 174 222 263 326 402
#     4  11  24  40  67  99 132 169 220 273 330 392
#     4  10  20  41  62 100 122 169 216 268 328 394
#     4  12  24  43  62  96 133 164 221 269 324 404
#     4  12  24  38  68 106 136 174 214 282 336 386
#
# _framework density 18.602853
#
# number of rings (size 3 to 8) (size 9 to 14) (size 15 to 20)
#    0.000    1.053    3.158    3.158    8.842    0.000 
#    0.000    0.000    0.000    0.000    0.000    0.000 
#    0.000    0.000    0.000    0.000    0.000    0.000 
#
# Total GULP energy -105975.115574 kJ/mol
# GULP energy per Si atom -5577.637662 kJ/mol
# Density = 1.856051 g / cm^3
# Si number density = 18.602853 Si / 1000 Ang^3
#
#
#
# Elastic Constant Matrix: (Units=GPa)
#
#
# Indices 1 2 3 4 5 6 
#
# 1 99.9742 29.0842 33.4638 0.0000 0.0000 0.0000
# 2 29.0842 88.1888 40.5861 0.0000 0.0000 0.0000
# 3 33.4638 40.5861 90.4745 0.0000 0.0000 0.0000
# 4 0.0000 0.0000 0.0000 0.7451 0.0000 0.0000
# 5 0.0000 0.0000 0.0000 0.0000 27.2970 0.0000
# 6 0.0000 0.0000 0.0000 0.0000 0.0000 23.4522
#
#
#
# Elastic Compliance Matrix: (Units=1/GPa)
#
#
# Indices 1 2 3 4 5 6 
#
# 1 0.011797 -0.002372 -0.003299 0.000000 0.000000 0.000000
# 2 -0.002372 0.014766 -0.005747 0.000000 0.000000 0.000000
# 3 -0.003299 -0.005747 0.014851 0.000000 0.000000 0.000000
# 4 0.000000 0.000000 0.000000 1.342101 0.000000 0.000000
# 5 0.000000 0.000000 0.000000 0.000000 0.036634 0.000000
# 6 0.000000 0.000000 0.000000 0.000000 0.000000 0.042640
#
#
# Mechanical properties :
#
#
# Convention : Reuss Voigt Hill
#
# Bulk Modulus (GPa) = 53.82645 53.87842 53.85244
# Shear Modulus (GPa) = 3.35161 21.99907 12.67534
#
# Velocity S-wave (km/s) = 1.34372 3.44257 2.61313
# Velocity P-wave (km/s) = 5.60400 6.69530 6.17381
#
# Compressibility (1/GPa) = 0.01857823
#
# Stress axis : x y z
#
# Youngs Moduli (GPa) = 84.76707 67.72142 67.33544
#
# Poissons Ratio (x) = 0.16065 0.22215
# Poissons Ratio (y) = 0.20109 0.38695
# Poissons Ratio (z) = 0.27966 0.38917
#
# Static dielectric constant tensor:
#      x y z
#    x 1.691600 0.000000 0.000000 
#    y 0.000000 1.687300 0.000000 
#    z 0.000000 0.000000 1.632350 
# 
# From -- ./inp_files/6934.got.cif
#   From: 2010.05.17/outbox.cif.g08.bks.cpg/sg23_4_cif.got.tgz:6934.got - 2010.06.04 12:02:01.
