data_PCOD9330194
_publ_section_title
;
Structure prediction by ZEFSAII (Michael W. Deem and Ramdas Pophale) SiO2 
 PCOD9330194
Probable space group: I 2 2 2
;
_chemical_formula_sum "Si O2"
_cell_formula_units_Z 48
_cell_length_a 10.921146
_cell_length_b 23.819486
_cell_length_c 7.041140
_cell_angle_alpha 90.000000
_cell_angle_beta 90.000000
_cell_angle_gamma 90.000000
_cell_volume 1831.654588
_symmetry_space_group_name_H-M "I 2 2 2"
_symmetry_group_IT_number 23
_symmetry_cell_setting 'orthorhombic'
loop_
_space_group_symop_operation_xyz
x,y,z
-x,-y,z
x,-y,-z
-x,y,-z
1/2+x,1/2+y,1/2+z
1/2-x,1/2-y,1/2+z
1/2+x,1/2-y,1/2-z
1/2-x,1/2+y,1/2-z
loop_
_atom_site_type_symbol
_atom_site_label
_atom_site_fract_x
_atom_site_fract_y
_atom_site_fract_z
Si Si1 0.752492 0.805740 0.364718
Si Si2 0.136876 0.926303 0.226961
Si Si3 0.157888 0.484684 0.776377
Si Si4 0.617522 0.407734 0.184221
Si Si5 0.220194 0.324703 0.308662
Si Si6 0.973337 0.621352 0.770693
O O1 0.872470 0.840467 0.299758
O O2 0.765934 0.739301 0.367318
O O3 0.732196 0.822614 0.581247
O O4 0.636155 0.832381 0.254989
O O5 0.123812 0.921691 0.458524
O O6 0.173523 0.867428 0.132222
O O7 0.992205 0.936067 0.200788
O O8 0.255817 0.965461 0.193670
O O9 0.256201 0.434375 0.752643
O O10 0.041797 0.445310 0.718263
O O11 0.143270 0.500000 0.000000
O O12 0.089558 0.353549 0.337515
O O13 0.000000 0.618934 0.000000
#
# Coordination Sequence:
#
# PCOD9330194 Si02
#       6
#     8   8   8   8   8   8
#     4   9  19  33  48  68  98 135 172 207 245 293
#     4   9  16  25  43  70  97 125 163 204 249 295
#     4   9  15  25  44  68  99 131 156 198 258 312
#     4   8  15  27  42  66  97 129 160 201 248 295
#     4  10  20  32  48  70  99 135 169 208 247 298
#     4   9  18  31  45  68 100 132 166 203 255 306
#
# _framework density 26.205815000000001
#
# number of rings (size 3 to 8) (size 9 to 14) (size 15 to 20)
#    0.000    3.000    0.000    3.500    2.333    4.333 
#    0.000    0.000    0.000    0.000    0.000    4.667 
#    0.000   42.667    0.000    0.667    0.000    0.000 
#
# Total GULP energy -133789.959003 kJ/mol
# GULP energy per Si atom -5574.581625 kJ/mol
# Density = 2.614617 g / cm^3
# Si number density = 26.205815 Si / 1000 Ang^3
#
#
#
# Elastic Constant Matrix: (Units=GPa)
#
#
# Indices 1 2 3 4 5 6 
#
# 1 40.1644 21.2493 -5.3550 -0.0005 -0.0002 -0.0001
# 2 21.2493 184.7367 -11.8895 -0.0003 -0.0004 -0.0001
# 3 -5.3550 -11.8895 95.3712 -0.0025 -0.0004 0.0006
# 4 -0.0005 -0.0003 -0.0025 24.3865 -0.0002 0.0003
# 5 -0.0002 -0.0004 -0.0004 -0.0002 -0.4647 -0.0003
# 6 -0.0001 -0.0001 0.0006 0.0003 -0.0003 31.8972
#
#
#
# Elastic Compliance Matrix: (Units=1/GPa)
#
#
# Indices 1 2 3 4 5 6 
#
# 1 0.026630 -0.002991 0.001122 0.000001 -0.000011 0.000000
# 2 -0.002991 0.005793 0.000554 0.000000 -0.000004 0.000000
# 3 0.001122 0.000554 0.010617 0.000001 -0.000011 0.000000
# 4 0.000001 0.000000 0.000001 0.041006 -0.000017 0.000000
# 5 -0.000011 -0.000004 -0.000011 -0.000017 -2.152098 -0.000020
# 6 0.000000 0.000000 0.000000 0.000000 -0.000020 0.031351
#
#
# Mechanical properties :
#
#
# Convention : Reuss Voigt Hill
#
# Bulk Modulus (GPa) = 24.74545 36.47576 30.61060
# Shear Modulus (GPa) = -2.47451 32.24832 14.88690
#
# Velocity S-wave (km/s) = -0.97278 3.51177 2.38602
# Velocity P-wave (km/s) = 2.86382 5.51294 4.39283
#
# Compressibility (1/GPa) = 0.04041147
#
# Stress axis : x y z
#
# Youngs Moduli (GPa) = 37.55212 172.62815 94.18450
#
# Poissons Ratio (x) = 0.51630 -0.10571
# Poissons Ratio (y) = 0.11231 -0.05220
# Poissons Ratio (z) = -0.04215 -0.09568
#
# Static dielectric constant tensor:
#      x y z
#    x 2.192670 0.000000 0.000000 
#    y 0.000000 2.073820 0.000000 
#    z 0.000000 0.000000 2.231770 
# 
# From -- ./inp_files/12583.got.cif
#   From: 2010.05.17/outbox.cif.g08.bks.cpg/sg23_7_cif.got.tgz:12583.got - 2010.06.04 12:02:01.
