data_PCOD9330744
_publ_section_title
;
Structure prediction by ZEFSAII (Michael W. Deem and Ramdas Pophale) SiO2 
 PCOD9330744
Probable space group: I 2 2 2
;
_chemical_formula_sum "Si O2"
_cell_formula_units_Z 38
_cell_length_a 8.046578
_cell_length_b 8.506006
_cell_length_c 30.837729
_cell_angle_alpha 90.000000
_cell_angle_beta 90.000000
_cell_angle_gamma 90.000000
_cell_volume 2110.664948
_symmetry_space_group_name_H-M "I 2 2 2"
_symmetry_group_IT_number 23
_symmetry_cell_setting 'orthorhombic'
loop_
_space_group_symop_operation_xyz
x,y,z
-x,-y,z
x,-y,-z
-x,y,-z
1/2+x,1/2+y,1/2+z
1/2-x,1/2-y,1/2+z
1/2+x,1/2-y,1/2-z
1/2-x,1/2+y,1/2-z
loop_
_atom_site_type_symbol
_atom_site_label
_atom_site_fract_x
_atom_site_fract_y
_atom_site_fract_z
Si Si1 0.662482 0.107706 0.770300
Si Si2 0.500000 0.500000 0.620441
Si Si3 0.848688 0.388342 0.416634
Si Si4 0.968069 0.183933 0.344376
Si Si5 0.687055 0.318810 0.687160
Si Si6 0.500000 0.000000 0.000000
O O1 0.644614 0.245301 0.805726
O O2 0.671338 0.185275 0.723389
O O3 0.500000 0.000000 0.771138
O O4 0.798489 0.983711 0.786485
O O5 0.666997 0.544223 0.594301
O O6 0.548877 0.352414 0.651139
O O7 0.882258 0.230231 0.389796
O O8 0.887390 0.394425 0.467889
O O9 0.000000 0.500000 0.399707
O O10 0.143784 0.273093 0.337786
O O11 0.000000 0.000000 0.340193
#
# Coordination Sequence:
#
# PCOD9330744 Si02
#       6
#     8   4   8   8   8   2
#     4  10  22  35  52  82 122 169 221 256 304 359
#     4  12  22  35  70  86 128 156 214 259 304 360
#     4  10  20  43  62  95 118 155 199 255 319 382
#     4  11  21  38  58  81 127 165 201 260 311 366
#     4  11  22  35  54  86 120 172 218 258 303 354
#     4   8  20  42  74  88 130 144 202 258 324 396
#
# _framework density 18.003803000000001
#
# number of rings (size 3 to 8) (size 9 to 14) (size 15 to 20)
#    0.632    0.842    4.211    1.895    7.368    2.105 
#    0.000    0.526    0.000    0.000    0.000    2.947 
#    0.000    0.000    0.000    0.000    0.000    0.000 
#
# Total GULP energy -105811.738564 kJ/mol
# GULP energy per Si atom -5569.038872 kJ/mol
# Density = 1.796283 g / cm^3
# Si number density = 18.003803 Si / 1000 Ang^3
#
#
#
# Elastic Constant Matrix: (Units=GPa)
#
#
# Indices 1 2 3 4 5 6 
#
# 1 101.2565 23.8649 45.2947 0.0000 0.0000 0.0000
# 2 23.8649 91.4101 41.3067 0.0000 0.0000 0.0000
# 3 45.2947 41.3067 128.8145 0.0000 0.0000 0.0000
# 4 0.0000 0.0000 0.0000 19.5786 0.0000 0.0000
# 5 0.0000 0.0000 0.0000 0.0000 17.4016 0.0000
# 6 0.0000 0.0000 0.0000 0.0000 0.0000 13.0521
#
#
#
# Elastic Compliance Matrix: (Units=1/GPa)
#
#
# Indices 1 2 3 4 5 6 
#
# 1 0.011875 -0.001419 -0.003720 0.000000 0.000000 0.000000
# 2 -0.001419 0.012963 -0.003658 0.000000 0.000000 0.000000
# 3 -0.003720 -0.003658 0.010244 0.000000 0.000000 0.000000
# 4 0.000000 0.000000 0.000000 0.051076 0.000000 0.000000
# 5 0.000000 0.000000 0.000000 0.000000 0.057466 0.000000
# 6 0.000000 0.000000 0.000000 0.000000 0.000000 0.076616
#
#
# Mechanical properties :
#
#
# Convention : Reuss Voigt Hill
#
# Bulk Modulus (GPa) = 57.18404 60.26819 58.72611
# Shear Modulus (GPa) = 20.52007 24.07410 22.29709
#
# Velocity S-wave (km/s) = 3.37970 3.66070 3.52300
# Velocity P-wave (km/s) = 6.86010 7.17046 7.01700
#
# Compressibility (1/GPa) = 0.01748740
#
# Stress axis : x y z
#
# Youngs Moduli (GPa) = 84.21346 77.14195 97.61546
#
# Poissons Ratio (x) = 0.10946 0.36317
# Poissons Ratio (y) = 0.11950 0.35707
# Poissons Ratio (z) = 0.31331 0.28218
#
# Static dielectric constant tensor:
#      x y z
#    x 1.683900 0.000000 0.000000 
#    y 0.000000 1.625980 0.000000 
#    z 0.000000 0.000000 1.645500 
# 
# From -- ./inp_files/7215.got.cif
#   From: 2010.05.17/outbox.cif.g08.bks.cpg/sg23_4_cif.got.tgz:7215.got - 2010.06.04 12:02:01.
