data_PCOD9330124
_publ_section_title
;
Structure prediction by ZEFSAII (Michael W. Deem and Ramdas Pophale) SiO2 
 PCOD9330124
Probable space group: I 2 2 2
;
_chemical_formula_sum "Si O2"
_cell_formula_units_Z 64
_cell_length_a 9.010115
_cell_length_b 16.807917
_cell_length_c 19.194965
_cell_angle_alpha 90.000000
_cell_angle_beta 90.000000
_cell_angle_gamma 90.000000
_cell_volume 2906.909783
_symmetry_space_group_name_H-M "I 2 2 2"
_symmetry_group_IT_number 23
_symmetry_cell_setting 'orthorhombic'
loop_
_space_group_symop_operation_xyz
x,y,z
-x,-y,z
x,-y,-z
-x,y,-z
1/2+x,1/2+y,1/2+z
1/2-x,1/2-y,1/2+z
1/2+x,1/2-y,1/2-z
1/2-x,1/2+y,1/2-z
loop_
_atom_site_type_symbol
_atom_site_label
_atom_site_fract_x
_atom_site_fract_y
_atom_site_fract_z
Si Si1 0.356904 0.441813 0.225735
Si Si2 0.102532 0.926230 0.895681
Si Si3 0.257799 0.199010 0.177503
Si Si4 0.537868 0.266112 0.729094
Si Si5 0.664968 0.965772 0.867650
Si Si6 0.338317 0.543044 0.932490
Si Si7 0.839858 0.771222 0.529788
Si Si8 0.665798 0.684737 0.415022
O O1 0.500000 0.500000 0.229115
O O2 0.419533 0.350075 0.232455
O O3 0.246711 0.457546 0.291422
O O4 0.285695 0.456297 0.148598
O O5 0.164997 0.880685 0.829501
O O6 0.986706 0.864888 0.929200
O O7 0.251188 0.970257 0.919468
O O8 0.000000 0.000000 0.880201
O O9 0.401025 0.196130 0.223445
O O10 0.299089 0.226638 0.100903
O O11 0.133680 0.251710 0.214944
O O12 0.624096 0.270436 0.656097
O O13 0.703880 0.879959 0.901326
O O14 0.500000 0.000000 0.860467
O O15 0.500000 0.500000 0.928260
O O16 0.346669 0.635313 0.954018
O O17 0.262898 0.500000 0.000000
O O18 0.717534 0.744859 0.473779
O O19 0.000000 0.747604 0.500000
#
# Coordination Sequence:
#
# PCOD9330124 Si02
#       8
#     8   8   8   8   8   8   8   8
#     4  10  19  38  69  97 135 180 235 286 353 441
#     4   9  20  44  66  95 135 189 235 283 355 443
#     4  11  24  40  69 100 145 181 235 303 359 425
#     4  10  22  40  65 103 135 181 235 293 362 421
#     4  10  20  37  68 104 139 174 231 302 358 421
#     4  10  20  41  67  95 133 186 237 283 355 435
#     4  12  25  42  67 104 145 182 242 306 354 432
#     4   9  22  42  66  92 140 187 234 288 355 426
#
# _framework density 22.016507000000001
#
# number of rings (size 3 to 8) (size 9 to 14) (size 15 to 20)
#    0.000    1.875    2.500    3.375    3.500    3.000 
#    2.250    4.375    0.000    0.375    0.000    0.000 
#    0.000    0.000    0.000    0.000    0.000    0.000 
#
# Total GULP energy -178239.954151 kJ/mol
# GULP energy per Si atom -5569.998567 kJ/mol
# Density = 2.196640 g / cm^3
# Si number density = 22.016507 Si / 1000 Ang^3
#
#
#
# Elastic Constant Matrix: (Units=GPa)
#
#
# Indices 1 2 3 4 5 6 
#
# 1 86.2292 27.1874 19.9407 0.0000 0.0000 0.0000
# 2 27.1874 70.2061 26.9458 0.0000 0.0000 0.0000
# 3 19.9407 26.9458 126.8668 0.0000 0.0000 0.0000
# 4 0.0000 0.0000 0.0000 -7.0083 0.0000 0.0000
# 5 0.0000 0.0000 0.0000 0.0000 22.2173 0.0000
# 6 0.0000 0.0000 0.0000 0.0000 0.0000 17.0817
#
#
#
# Elastic Compliance Matrix: (Units=1/GPa)
#
#
# Indices 1 2 3 4 5 6 
#
# 1 0.013347 -0.004751 -0.001089 0.000000 0.000000 0.000000
# 2 -0.004751 0.017199 -0.002906 0.000000 0.000000 0.000000
# 3 -0.001089 -0.002906 0.008671 0.000000 0.000000 0.000000
# 4 0.000000 0.000000 0.000000 -0.142687 0.000000 0.000000
# 5 0.000000 0.000000 0.000000 0.000000 0.045010 0.000000
# 6 0.000000 0.000000 0.000000 0.000000 0.000000 0.058542
#
#
# Mechanical properties :
#
#
# Convention : Reuss Voigt Hill
#
# Bulk Modulus (GPa) = 46.03012 47.93885 46.98449
# Shear Modulus (GPa) = 201.49784 20.40669 110.95226
#
# Velocity S-wave (km/s) = 9.57705 3.04778 7.10665
# Velocity P-wave (km/s) = 11.96853 5.84864 9.41946
#
# Compressibility (1/GPa) = 0.02172490
#
# Stress axis : x y z
#
# Youngs Moduli (GPa) = 74.92538 58.14330 115.33109
#
# Poissons Ratio (x) = 0.27622 0.12557
# Poissons Ratio (y) = 0.35594 0.33518
# Poissons Ratio (z) = 0.08158 0.16898
#
# Static dielectric constant tensor:
#      x y z
#    x 1.875560 0.000000 0.000000 
#    y 0.000000 1.954170 0.000000 
#    z 0.000000 0.000000 1.877620 
# 
# From -- ./inp_files/26365.got.cif
#   From: 2010.05.17/outbox.cif.g08.bks.cpg/sg23_14_cif.got.tgz:26365.got - 2010.06.04 12:02:01.
