data_PCOD9330574
_publ_section_title
;
Structure prediction by ZEFSAII (Michael W. Deem and Ramdas Pophale) SiO2 
 PCOD9330574
Probable space group: I 2 2 2
;
_chemical_formula_sum "Si O2"
_cell_formula_units_Z 34
_cell_length_a 5.523648
_cell_length_b 7.262155
_cell_length_c 35.874928
_cell_angle_alpha 90.000000
_cell_angle_beta 90.000000
_cell_angle_gamma 90.000000
_cell_volume 1439.072079
_symmetry_space_group_name_H-M "I 2 2 2"
_symmetry_group_IT_number 23
_symmetry_cell_setting 'orthorhombic'
loop_
_space_group_symop_operation_xyz
x,y,z
-x,-y,z
x,-y,-z
-x,y,-z
1/2+x,1/2+y,1/2+z
1/2-x,1/2-y,1/2+z
1/2+x,1/2-y,1/2-z
1/2-x,1/2+y,1/2-z
loop_
_atom_site_type_symbol
_atom_site_label
_atom_site_fract_x
_atom_site_fract_y
_atom_site_fract_z
Si Si1 0.092931 0.206862 0.769875
Si Si2 0.385481 0.296622 0.039186
Si Si3 0.280717 0.730300 0.646644
Si Si4 0.500000 0.000000 0.500000
Si Si5 0.717285 0.809992 0.118782
O O1 0.352269 0.201661 0.748344
O O2 0.153060 0.277563 0.811108
O O3 0.000000 0.000000 0.774384
O O4 0.500000 0.500000 0.047040
O O5 0.365710 0.176878 0.075832
O O6 0.500000 0.227696 0.000000
O O7 0.121957 0.357234 0.027605
O O8 0.250120 0.509059 0.638479
O O9 0.518073 0.781663 0.622581
O O10 0.008703 0.793749 0.637593
#
# Coordination Sequence:
#
# PCOD9330574 Si02
#       5
#     8   8   8   2   8
#     4  12  25  45  75 102 138 184 229 290 361 430
#     4   9  20  36  58  93 125 174 216 273 327 400
#     4  10  22  41  65  89 122 169 214 271 338 401
#     4   8  18  36  60  80 132 160 222 252 348 376
#     4  10  20  38  68  85 126 171 214 264 337 388
#
# _framework density 23.626335999999998
#
# number of rings (size 3 to 8) (size 9 to 14) (size 15 to 20)
#    0.000    2.118    2.353    2.118    9.882    0.000 
#    0.000    9.412    0.000    0.000    0.000    0.000 
#    0.000    0.000    0.000    0.000    0.000    0.000 
#
# Total GULP energy -94658.484176 kJ/mol
# GULP energy per Si atom -5568.146128 kJ/mol
# Density = 2.357256 g / cm^3
# Si number density = 23.626336 Si / 1000 Ang^3
#
#
#
# Elastic Constant Matrix: (Units=GPa)
#
#
# Indices 1 2 3 4 5 6 
#
# 1 198.5316 15.8284 73.1678 0.0000 0.0000 0.0000
# 2 15.8284 52.1811 9.0393 0.0000 0.0000 0.0000
# 3 73.1678 9.0393 182.3624 0.0000 0.0000 0.0000
# 4 0.0000 0.0000 0.0000 21.0151 0.0000 0.0000
# 5 0.0000 0.0000 0.0000 0.0000 88.8926 0.0000
# 6 0.0000 0.0000 0.0000 0.0000 0.0000 75.0150
#
#
#
# Elastic Compliance Matrix: (Units=1/GPa)
#
#
# Indices 1 2 3 4 5 6 
#
# 1 0.006013 -0.001418 -0.002342 0.000000 0.000000 0.000000
# 2 -0.001418 0.019665 -0.000406 0.000000 0.000000 0.000000
# 3 -0.002342 -0.000406 0.006444 0.000000 0.000000 0.000000
# 4 0.000000 0.000000 0.000000 0.047585 0.000000 0.000000
# 5 0.000000 0.000000 0.000000 0.000000 0.011250 0.000000
# 6 0.000000 0.000000 0.000000 0.000000 0.000000 0.013331
#
#
# Mechanical properties :
#
#
# Convention : Reuss Voigt Hill
#
# Bulk Modulus (GPa) = 42.03683 69.90514 55.97099
# Shear Modulus (GPa) = 41.47700 59.32050 50.39875
#
# Velocity S-wave (km/s) = 4.19446 5.01620 4.62362
# Velocity P-wave (km/s) = 6.42565 7.94995 7.22810
#
# Compressibility (1/GPa) = 0.02378866
#
# Stress axis : x y z
#
# Youngs Moduli (GPa) = 166.29725 50.85299 155.19498
#
# Poissons Ratio (x) = 0.07212 0.36353
# Poissons Ratio (y) = 0.23586 0.06296
# Poissons Ratio (z) = 0.38953 0.02063
#
# Static dielectric constant tensor:
#      x y z
#    x 2.030350 0.000000 0.000000 
#    y 0.000000 1.996070 0.000000 
#    z 0.000000 0.000000 1.743490 
# 
# From -- ./inp_files/29835.got.cif
#   From: 2010.05.17/outbox.cif.g08.bks.cpg/sg23_15_cif.got.tgz:29835.got - 2010.06.04 12:02:01.
