data_PCOD9330166
_publ_section_title
;
Structure prediction by ZEFSAII (Michael W. Deem and Ramdas Pophale) SiO2 
 PCOD9330166
Probable space group: I 2 2 2
;
_chemical_formula_sum "Si O2"
_cell_formula_units_Z 46
_cell_length_a 8.913570
_cell_length_b 14.886352
_cell_length_c 16.380727
_cell_angle_alpha 90.000000
_cell_angle_beta 90.000000
_cell_angle_gamma 90.000000
_cell_volume 2173.567521
_symmetry_space_group_name_H-M "I 2 2 2"
_symmetry_group_IT_number 23
_symmetry_cell_setting 'orthorhombic'
loop_
_space_group_symop_operation_xyz
x,y,z
-x,-y,z
x,-y,-z
-x,y,-z
1/2+x,1/2+y,1/2+z
1/2-x,1/2-y,1/2+z
1/2+x,1/2-y,1/2-z
1/2-x,1/2+y,1/2-z
loop_
_atom_site_type_symbol
_atom_site_label
_atom_site_fract_x
_atom_site_fract_y
_atom_site_fract_z
Si Si1 0.660593 0.135565 0.114579
Si Si2 0.000000 0.778917 0.500000
Si Si3 0.500000 0.000000 0.000000
Si Si4 0.793907 0.161720 0.776830
Si Si5 0.154012 0.528525 0.772620
Si Si6 0.898826 0.166659 0.329235
Si Si7 0.505968 0.602901 0.403592
O O1 0.598649 0.217426 0.061397
O O2 0.604384 0.100273 0.202102
O O3 0.837475 0.143886 0.123499
O O4 0.612019 0.054569 0.056480
O O5 0.909326 0.828841 0.571597
O O6 0.684129 0.246845 0.787371
O O7 0.869748 0.155415 0.865506
O O8 0.934323 0.166034 0.712618
O O9 0.715444 0.066112 0.761407
O O10 0.294317 0.580049 0.812386
O O11 0.000000 0.500000 0.818530
O O12 0.500000 0.500000 0.373830
O O13 0.500000 0.602477 0.500000
#
# Coordination Sequence:
#
# PCOD9330166 Si02
#       7
#     8   4   2   8   8   8   8
#     4  11  20  36  59 100 135 181 215 282 355 424
#     4  11  26  43  65 100 145 188 232 285 356 412
#     4  10  20  28  58  92 146 176 218 266 360 436
#     4  12  24  44  69 104 140 184 229 287 352 416
#     4  12  24  45  72 102 137 184 235 295 351 417
#     4  12  26  45  69 104 144 188 238 286 351 428
#     4  11  20  32  57  94 138 172 218 271 349 414
#
# _framework density 21.163364000000001
#
# number of rings (size 3 to 8) (size 9 to 14) (size 15 to 20)
#    0.000    0.522    4.348    5.739    2.435    0.000 
#    0.000    1.739    0.000    1.043    0.000    0.000 
#    0.000    0.000    0.000    0.000    0.000    0.000 
#
# Total GULP energy -128245.512280 kJ/mol
# GULP energy per Si atom -5575.891838 kJ/mol
# Density = 2.111520 g / cm^3
# Si number density = 21.163364 Si / 1000 Ang^3
#
#
#
# Elastic Constant Matrix: (Units=GPa)
#
#
# Indices 1 2 3 4 5 6 
#
# 1 121.4219 49.2008 31.6958 0.0000 0.0000 0.0000
# 2 49.2008 73.9295 38.2295 0.0000 0.0000 0.0000
# 3 31.6958 38.2295 99.5729 0.0000 0.0000 0.0000
# 4 0.0000 0.0000 0.0000 27.2428 0.0000 0.0000
# 5 0.0000 0.0000 0.0000 0.0000 24.7065 0.0000
# 6 0.0000 0.0000 0.0000 0.0000 0.0000 18.2174
#
#
#
# Elastic Compliance Matrix: (Units=1/GPa)
#
#
# Indices 1 2 3 4 5 6 
#
# 1 0.011339 -0.007087 -0.000889 0.000000 0.000000 0.000000
# 2 -0.007087 0.021306 -0.005924 0.000000 0.000000 0.000000
# 3 -0.000889 -0.005924 0.012600 0.000000 0.000000 0.000000
# 4 0.000000 0.000000 0.000000 0.036707 0.000000 0.000000
# 5 0.000000 0.000000 0.000000 0.000000 0.040475 0.000000
# 6 0.000000 0.000000 0.000000 0.000000 0.000000 0.054893
#
#
# Mechanical properties :
#
#
# Convention : Reuss Voigt Hill
#
# Bulk Modulus (GPa) = 57.31894 59.24184 58.28039
# Shear Modulus (GPa) = 23.70386 25.75322 24.72854
#
# Velocity S-wave (km/s) = 3.35033 3.49216 3.42198
# Velocity P-wave (km/s) = 6.48916 6.65685 6.57354
#
# Compressibility (1/GPa) = 0.01744624
#
# Stress axis : x y z
#
# Youngs Moduli (GPa) = 88.18821 46.93425 79.36311
#
# Poissons Ratio (x) = 0.33262 0.07052
# Poissons Ratio (y) = 0.62499 0.47018
# Poissons Ratio (z) = 0.07836 0.27806
#
# Static dielectric constant tensor:
#      x y z
#    x 1.808890 0.000000 0.000000 
#    y 0.000000 1.853560 0.000000 
#    z 0.000000 0.000000 1.722920 
# 
# From -- ./inp_files/23711.got.cif
#   From: 2010.05.17/outbox.cif.g08.bks.cpg/sg23_12_cif.got.tgz:23711.got - 2010.06.04 12:02:01.
