data_PCOD9330531
_publ_section_title
;
Structure prediction by ZEFSAII (Michael W. Deem and Ramdas Pophale) SiO2 
 PCOD9330531
Probable space group: I 2 2 2
;
_chemical_formula_sum "Si O2"
_cell_formula_units_Z 48
_cell_length_a 10.604459
_cell_length_b 28.384346
_cell_length_c 8.224637
_cell_angle_alpha 90.000000
_cell_angle_beta 90.000000
_cell_angle_gamma 90.000000
_cell_volume 2475.620946
_symmetry_space_group_name_H-M "I 2 2 2"
_symmetry_group_IT_number 23
_symmetry_cell_setting 'orthorhombic'
loop_
_space_group_symop_operation_xyz
x,y,z
-x,-y,z
x,-y,-z
-x,y,-z
1/2+x,1/2+y,1/2+z
1/2-x,1/2-y,1/2+z
1/2+x,1/2-y,1/2-z
1/2-x,1/2+y,1/2-z
loop_
_atom_site_type_symbol
_atom_site_label
_atom_site_fract_x
_atom_site_fract_y
_atom_site_fract_z
Si Si1 0.323496 0.131786 0.727756
Si Si2 0.281708 0.000000 0.000000
Si Si3 0.150196 0.901868 0.995861
Si Si4 0.000000 0.577450 0.000000
Si Si5 0.754057 0.309085 0.331277
Si Si6 0.000000 0.500000 0.745606
Si Si7 0.149258 0.717513 0.978399
Si Si8 0.000000 0.335556 0.500000
O O1 0.206471 0.110675 0.825126
O O2 0.382691 0.106346 0.571150
O O3 0.299712 0.184745 0.667435
O O4 0.435047 0.133420 0.861249
O O5 0.200630 0.045827 0.045009
O O6 0.379573 0.014680 0.859067
O O7 0.204206 0.861568 0.873955
O O8 0.000000 0.900572 0.000000
O O9 0.042536 0.543233 0.143857
O O10 0.667776 0.271042 0.422146
O O11 0.891115 0.305756 0.415913
O O12 0.776961 0.296396 0.143114
O O13 0.000000 0.707844 0.000000
#
# Coordination Sequence:
#
# PCOD9330531 Si02
#       8
#     8   4   8   4   8   4   8   4
#     4  11  22  39  68  94 131 168 215 272 335 376
#     4  11  23  40  70  94 129 173 220 270 328 389
#     4  11  25  45  64  94 129 179 222 267 318 402
#     4  11  20  38  62 102 136 160 208 281 334 378
#     4  11  24  40  66  91 132 167 219 265 326 389
#     4  10  24  36  66 106 128 162 222 276 330 384
#     4  12  24  42  64  98 129 172 209 269 325 398
#     4  10  20  38  60  97 120 174 212 265 326 382
#
# _framework density 19.389074999999998
#
# number of rings (size 3 to 8) (size 9 to 14) (size 15 to 20)
#    0.000    1.000    4.167    2.750    7.000    0.000 
#    0.000    0.000    0.000    0.000    0.000    0.000 
#    0.000    0.000    0.000    0.000    0.000    0.000 
#
# Total GULP energy -134003.546131 kJ/mol
# GULP energy per Si atom -5583.481089 kJ/mol
# Density = 1.934495 g / cm^3
# Si number density = 19.389075 Si / 1000 Ang^3
#
#
#
# Elastic Constant Matrix: (Units=GPa)
#
#
# Indices 1 2 3 4 5 6 
#
# 1 95.5984 26.3242 38.7532 0.0006 -0.0002 -0.0002
# 2 26.3242 121.2416 41.7797 0.0011 -0.0004 -0.0004
# 3 38.7532 41.7797 98.7541 0.0046 -0.0009 -0.0016
# 4 0.0006 0.0011 0.0046 22.9326 -0.0004 -0.0007
# 5 -0.0002 -0.0004 -0.0009 -0.0004 21.6196 0.0003
# 6 -0.0002 -0.0004 -0.0016 -0.0007 0.0003 26.3367
#
#
#
# Elastic Compliance Matrix: (Units=1/GPa)
#
#
# Indices 1 2 3 4 5 6 
#
# 1 0.012588 -0.001207 -0.004429 0.000001 0.000000 0.000000
# 2 -0.001207 0.009771 -0.003660 0.000000 0.000000 0.000000
# 3 -0.004429 -0.003660 0.013413 -0.000002 0.000000 0.000001
# 4 0.000001 0.000000 -0.000002 0.043606 0.000001 0.000001
# 5 0.000000 0.000000 0.000000 0.000001 0.046254 -0.000001
# 6 0.000000 0.000000 0.000001 0.000001 -0.000001 0.037970
#
#
# Mechanical properties :
#
#
# Convention : Reuss Voigt Hill
#
# Bulk Modulus (GPa) = 58.20897 58.81204 58.51051
# Shear Modulus (GPa) = 26.60675 28.09360 27.35018
#
# Velocity S-wave (km/s) = 3.70841 3.81062 3.75987
# Velocity P-wave (km/s) = 6.95867 7.05405 7.00652
#
# Compressibility (1/GPa) = 0.01717948
#
# Stress axis : x y z
#
# Youngs Moduli (GPa) = 79.43896 102.33968 74.55514
#
# Poissons Ratio (x) = 0.12351 0.33023
# Poissons Ratio (y) = 0.09587 0.27290
# Poissons Ratio (z) = 0.35186 0.37460
#
# Static dielectric constant tensor:
#      x y z
#    x 1.651600 0.000000 0.000000 
#    y 0.000000 1.738280 0.000000 
#    z 0.000000 0.000000 1.709990 
# 
# From -- ./inp_files/7424.got.cif
#   From: 2010.05.17/outbox.cif.g08.bks.cpg/sg23_4_cif.got.tgz:7424.got - 2010.06.04 12:02:01.
