data_PCOD9330395
_publ_section_title
;
Structure prediction by ZEFSAII (Michael W. Deem and Ramdas Pophale) SiO2 
 PCOD9330395
Probable space group: I 2 2 2
;
_chemical_formula_sum "Si O2"
_cell_formula_units_Z 64
_cell_length_a 5.157842
_cell_length_b 26.823385
_cell_length_c 23.494226
_cell_angle_alpha 90.000000
_cell_angle_beta 90.000000
_cell_angle_gamma 90.000000
_cell_volume 3250.444533
_symmetry_space_group_name_H-M "I 2 2 2"
_symmetry_group_IT_number 23
_symmetry_cell_setting 'orthorhombic'
loop_
_space_group_symop_operation_xyz
x,y,z
-x,-y,z
x,-y,-z
-x,y,-z
1/2+x,1/2+y,1/2+z
1/2-x,1/2-y,1/2+z
1/2+x,1/2-y,1/2-z
1/2-x,1/2+y,1/2-z
loop_
_atom_site_type_symbol
_atom_site_label
_atom_site_fract_x
_atom_site_fract_y
_atom_site_fract_z
Si Si1 0.005295 0.944118 0.232544
Si Si2 0.751388 0.795051 0.538793
Si Si3 0.442146 0.556493 0.136020
Si Si4 0.257299 0.818776 0.960969
Si Si5 0.881324 0.364868 0.756858
Si Si6 0.961939 0.379738 0.877625
Si Si7 0.968287 0.218913 0.236791
Si Si8 0.775393 0.853100 0.161584
O O1 0.879104 0.945987 0.295851
O O2 0.885325 0.903956 0.189233
O O3 0.289558 0.920939 0.244423
O O4 0.000000 0.000000 0.210067
O O5 0.500000 0.789528 0.500000
O O6 0.804744 0.738667 0.559834
O O7 0.651302 0.834861 0.584760
O O8 0.000000 0.810595 0.500000
O O9 0.500000 0.500000 0.116772
O O10 0.712936 0.585017 0.129769
O O11 0.210709 0.586827 0.104889
O O12 0.252201 0.853222 0.905415
O O13 0.500000 0.831888 0.000000
O O14 0.000000 0.821616 0.000000
O O15 0.038461 0.360111 0.814754
O O16 0.630219 0.330562 0.769169
O O17 0.020003 0.345393 0.700281
O O18 0.722522 0.255301 0.237792
O O19 0.046347 0.194762 0.176664
#
# Coordination Sequence:
#
# PCOD9330395 Si02
#       8
#     8   8   8   8   8   8   8   8
#     4   9  20  37  59  92 133 165 202 250 316 395
#     4  10  22  42  60  85 116 165 216 252 303 359
#     4  10  20  36  58  91 129 161 196 246 313 382
#     4  10  25  43  63  88 118 166 216 263 315 374
#     4  10  22  36  58  97 126 160 209 248 324 380
#     4  11  21  36  61  88 122 161 205 258 300 372
#     4  11  23  36  53  87 131 167 192 243 324 379
#     4  11  22  40  63  92 127 163 219 259 320 386
#
# _framework density 19.689613999999999
#
# number of rings (size 3 to 8) (size 9 to 14) (size 15 to 20)
#    0.000    1.750    2.500    1.125    5.250    0.500 
#    4.500    0.000    0.000    6.000    0.000    0.000 
#    0.000    0.000    0.000    0.000    0.000    0.000 
#
# Total GULP energy -178286.132600 kJ/mol
# GULP energy per Si atom -5571.441644 kJ/mol
# Density = 1.964480 g / cm^3
# Si number density = 19.689614 Si / 1000 Ang^3
#
#
#
# Elastic Constant Matrix: (Units=GPa)
#
#
# Indices 1 2 3 4 5 6 
#
# 1 116.2431 25.7878 16.0868 0.0000 0.0000 0.0000
# 2 25.7878 90.3612 26.2521 0.0000 0.0000 0.0000
# 3 16.0868 26.2521 38.4362 0.0000 0.0000 0.0000
# 4 0.0000 0.0000 0.0000 30.0604 0.0000 0.0000
# 5 0.0000 0.0000 0.0000 0.0000 21.6307 0.0000
# 6 0.0000 0.0000 0.0000 0.0000 0.0000 7.9915
#
#
#
# Elastic Compliance Matrix: (Units=1/GPa)
#
#
# Indices 1 2 3 4 5 6 
#
# 1 0.009391 -0.001919 -0.002620 0.000000 0.000000 0.000000
# 2 -0.001919 0.014198 -0.008894 0.000000 0.000000 0.000000
# 3 -0.002620 -0.008894 0.033188 0.000000 0.000000 0.000000
# 4 0.000000 0.000000 0.000000 0.033266 0.000000 0.000000
# 5 0.000000 0.000000 0.000000 0.000000 0.046231 0.000000
# 6 0.000000 0.000000 0.000000 0.000000 0.000000 0.125133
#
#
# Mechanical properties :
#
#
# Convention : Reuss Voigt Hill
#
# Bulk Modulus (GPa) = 33.43186 42.36598 37.89892
# Shear Modulus (GPa) = 16.76475 23.73076 20.24775
#
# Velocity S-wave (km/s) = 2.92113 3.47543 3.21026
# Velocity P-wave (km/s) = 5.32857 6.13746 5.74726
#
# Compressibility (1/GPa) = 0.02991159
#
# Stress axis : x y z
#
# Youngs Moduli (GPa) = 106.48597 70.43065 30.13093
#
# Poissons Ratio (x) = 0.13515 0.07894
# Poissons Ratio (y) = 0.20434 0.26800
# Poissons Ratio (z) = 0.27897 0.62644
#
# Static dielectric constant tensor:
#      x y z
#    x 1.772990 0.000000 0.000000 
#    y 0.000000 1.757380 0.000000 
#    z 0.000000 0.000000 1.705110 
# 
# From -- ./inp_files/25842.got.cif
#   From: 2010.05.17/outbox.cif.g08.bks.cpg/sg23_13_cif.got.tgz:25842.got - 2010.06.04 12:02:01.
