data_PCOD9330392
_publ_section_title
;
Structure prediction by ZEFSAII (Michael W. Deem and Ramdas Pophale) SiO2 
 PCOD9330392
Probable space group: I 2 2 2
;
_chemical_formula_sum "Si O2"
_cell_formula_units_Z 64
_cell_length_a 11.541565
_cell_length_b 17.759217
_cell_length_c 15.137067
_cell_angle_alpha 90.000000
_cell_angle_beta 90.000000
_cell_angle_gamma 90.000000
_cell_volume 3102.631868
_symmetry_space_group_name_H-M "I 2 2 2"
_symmetry_group_IT_number 23
_symmetry_cell_setting 'orthorhombic'
loop_
_space_group_symop_operation_xyz
x,y,z
-x,-y,z
x,-y,-z
-x,y,-z
1/2+x,1/2+y,1/2+z
1/2-x,1/2-y,1/2+z
1/2+x,1/2-y,1/2-z
1/2-x,1/2+y,1/2-z
loop_
_atom_site_type_symbol
_atom_site_label
_atom_site_fract_x
_atom_site_fract_y
_atom_site_fract_z
Si Si1 0.271519 0.429542 0.056644
Si Si2 0.074922 0.765867 0.088015
Si Si3 0.877623 0.543831 0.228942
Si Si4 0.226295 0.598350 0.295410
Si Si5 0.021558 0.914382 0.837495
Si Si6 0.993888 0.311271 0.270797
Si Si7 0.736625 0.659498 0.903486
Si Si8 0.010871 0.853450 0.354707
O O1 0.188793 0.453330 0.136338
O O2 0.370173 0.377871 0.100734
O O3 0.319519 0.500000 0.000000
O O4 0.200731 0.384654 0.982050
O O5 0.028818 0.713321 0.168758
O O6 0.210258 0.742312 0.086562
O O7 0.056643 0.852374 0.115209
O O8 0.000000 0.752492 0.000000
O O9 0.802474 0.490022 0.292091
O O10 0.000000 0.500000 0.218246
O O11 0.903873 0.627264 0.265447
O O12 0.343953 0.610180 0.348589
O O13 0.112995 0.645962 0.318295
O O14 0.244733 0.626393 0.194067
O O15 0.000688 0.906193 0.731966
O O16 0.000000 0.000000 0.864755
O O17 0.002331 0.231676 0.318943
O O18 0.601023 0.643304 0.917037
#
# Coordination Sequence:
#
# PCOD9330392 Si02
#       8
#     8   8   8   8   8   8   8   8
#     4  12  23  36  57  88 123 169 195 254 307 383
#     4  10  21  38  57  81 111 149 196 251 305 356
#     4  10  20  36  58  87 119 159 202 252 306 363
#     4   9  18  35  54  84 115 143 200 243 299 357
#     4  10  21  36  58  81 108 150 193 253 295 363
#     4   9  20  37  58  81 115 157 197 251 292 367
#     4  10  21  36  52  83 118 153 194 242 297 374
#     4  10  23  37  56  83 118 158 207 236 302 369
#
# _framework density 20.627648000000001
#
# number of rings (size 3 to 8) (size 9 to 14) (size 15 to 20)
#    0.000    2.000    1.250    1.875    1.750    8.000 
#    0.000    0.000    0.000    0.000    0.000    0.000 
#    0.000    7.000    0.000    0.000    0.000    0.000 
#
# Total GULP energy -178326.471740 kJ/mol
# GULP energy per Si atom -5572.702242 kJ/mol
# Density = 2.058070 g / cm^3
# Si number density = 20.627648 Si / 1000 Ang^3
#
#
#
# Elastic Constant Matrix: (Units=GPa)
#
#
# Indices 1 2 3 4 5 6 
#
# 1 50.4258 24.2882 7.1550 0.0000 0.0000 0.0000
# 2 24.2882 132.5482 12.0523 0.0000 0.0000 0.0000
# 3 7.1550 12.0523 27.1873 0.0000 0.0000 0.0000
# 4 0.0000 0.0000 0.0000 13.9992 0.0000 0.0000
# 5 0.0000 0.0000 0.0000 0.0000 10.7839 0.0000
# 6 0.0000 0.0000 0.0000 0.0000 0.0000 20.7852
#
#
#
# Elastic Compliance Matrix: (Units=1/GPa)
#
#
# Indices 1 2 3 4 5 6 
#
# 1 0.022204 -0.003686 -0.004209 0.000000 0.000000 0.000000
# 2 -0.003686 0.008473 -0.002786 0.000000 0.000000 0.000000
# 3 -0.004209 -0.002786 0.039125 0.000000 0.000000 0.000000
# 4 0.000000 0.000000 0.000000 0.071433 0.000000 0.000000
# 5 0.000000 0.000000 0.000000 0.000000 0.092731 0.000000
# 6 0.000000 0.000000 0.000000 0.000000 0.000000 0.048111
#
#
# Mechanical properties :
#
#
# Convention : Reuss Voigt Hill
#
# Bulk Modulus (GPa) = 20.64463 33.01692 26.83078
# Shear Modulus (GPa) = 15.64524 20.22471 17.93497
#
# Velocity S-wave (km/s) = 2.75700 3.13464 2.95186
# Velocity P-wave (km/s) = 4.49051 5.39835 4.96522
#
# Compressibility (1/GPa) = 0.04843875
#
# Stress axis : x y z
#
# Youngs Moduli (GPa) = 45.03748 118.01957 25.55918
#
# Poissons Ratio (x) = 0.43501 0.10759
# Poissons Ratio (y) = 0.16600 0.07121
# Poissons Ratio (z) = 0.18958 0.32883
#
# Static dielectric constant tensor:
#      x y z
#    x 1.794320 0.000000 0.000000 
#    y 0.000000 1.779170 0.000000 
#    z 0.000000 0.000000 1.733750 
# 
# From -- ./inp_files/21064.got.cif
#   From: 2010.05.17/outbox.cif.g08.bks.cpg/sg23_11_cif.got.tgz:21064.got - 2010.06.04 12:02:01.
