data_PCOD9330000
_publ_section_title
;
Structure prediction by ZEFSAII (Michael W. Deem and Ramdas Pophale) SiO2 
 PCOD9330000
Probable space group: I 2 2 2
;
_chemical_formula_sum "Si O2"
_cell_formula_units_Z 56
_cell_length_a 11.754708
_cell_length_b 13.142253
_cell_length_c 13.148176
_cell_angle_alpha 90.000000
_cell_angle_beta 90.000000
_cell_angle_gamma 90.000000
_cell_volume 2031.174229
_symmetry_space_group_name_H-M "I 2 2 2"
_symmetry_group_IT_number 23
_symmetry_cell_setting 'orthorhombic'
loop_
_space_group_symop_operation_xyz
x,y,z
-x,-y,z
x,-y,-z
-x,y,-z
1/2+x,1/2+y,1/2+z
1/2-x,1/2-y,1/2+z
1/2+x,1/2-y,1/2-z
1/2-x,1/2+y,1/2-z
loop_
_atom_site_type_symbol
_atom_site_label
_atom_site_fract_x
_atom_site_fract_y
_atom_site_fract_z
Si Si1 0.348226 0.094059 0.073382
Si Si2 0.418965 0.624060 0.195332
Si Si3 0.671868 0.029523 0.712370
Si Si4 0.260503 0.809962 0.210967
Si Si5 0.082826 0.853788 0.915383
Si Si6 0.341619 0.173081 0.461967
Si Si7 0.626216 0.316023 0.918251
O O1 0.385778 0.082674 0.190153
O O2 0.210137 0.102099 0.080029
O O3 0.388620 0.203566 0.034697
O O4 0.375558 0.000000 0.000000
O O5 0.305482 0.556846 0.192099
O O6 0.367370 0.736355 0.201210
O O7 0.469533 0.614877 0.307741
O O8 0.513674 0.621788 0.109314
O O9 0.616160 0.080135 0.610376
O O10 0.686669 0.918420 0.761498
O O11 0.186844 0.768700 0.114383
O O12 0.183115 0.791395 0.309291
O O13 0.096693 0.731850 0.943654
O O14 0.000000 0.893325 0.000000
O O15 0.224234 0.134359 0.513623
#
# Coordination Sequence:
#
# PCOD9330000 Si02
#       7
#     8   8   8   8   8   8   8
#     4  10  20  39  61  94 133 180 225 281 344 405
#     4  10  22  40  63  94 134 173 226 279 345 419
#     4  10  21  37  63  93 131 176 225 277 348 415
#     4  11  21  41  64  94 135 177 223 291 347 410
#     4  10  19  35  64  96 128 172 223 283 349 400
#     4  10  20  39  64  98 135 183 219 292 354 415
#     4  11  21  40  66  94 139 181 223 289 352 409
#
# _framework density 27.570257000000002
#
# number of rings (size 3 to 8) (size 9 to 14) (size 15 to 20)
#    0.000    1.714    5.714    2.571    0.000    3.714 
#    0.000    3.571    0.000   12.000    0.000    0.000 
#    0.000    0.000    0.000    0.000    0.000    0.000 
#
# Total GULP energy -156359.549269 kJ/mol
# GULP energy per Si atom -5584.269617 kJ/mol
# Density = 2.750751 g / cm^3
# Si number density = 27.570257 Si / 1000 Ang^3
#
#
#
# Elastic Constant Matrix: (Units=GPa)
#
#
# Indices 1 2 3 4 5 6 
#
# 1 87.6709 -0.6597 18.9609 0.0000 0.0000 0.0000
# 2 -0.6597 115.1998 -22.8015 0.0000 0.0000 0.0000
# 3 18.9609 -22.8015 129.7459 0.0000 0.0000 0.0000
# 4 0.0000 0.0000 0.0000 19.7799 0.0000 0.0000
# 5 0.0000 0.0000 0.0000 0.0000 25.9568 0.0000
# 6 0.0000 0.0000 0.0000 0.0000 0.0000 19.4971
#
#
#
# Elastic Compliance Matrix: (Units=1/GPa)
#
#
# Indices 1 2 3 4 5 6 
#
# 1 0.011787 -0.000283 -0.001772 0.000000 0.000000 0.000000
# 2 -0.000283 0.009000 0.001623 0.000000 0.000000 0.000000
# 3 -0.001772 0.001623 0.008252 0.000000 0.000000 0.000000
# 4 0.000000 0.000000 0.000000 0.050556 0.000000 0.000000
# 5 0.000000 0.000000 0.000000 0.000000 0.038526 0.000000
# 6 0.000000 0.000000 0.000000 0.000000 0.000000 0.051290
#
#
# Mechanical properties :
#
#
# Convention : Reuss Voigt Hill
#
# Bulk Modulus (GPa) = 35.49357 35.95732 35.72544
# Shear Modulus (GPa) = 27.82919 35.52123 31.67521
#
# Velocity S-wave (km/s) = 3.18054 3.59331 3.39321
# Velocity P-wave (km/s) = 5.13708 5.50329 5.32333
#
# Compressibility (1/GPa) = 0.02817412
#
# Stress axis : x y z
#
# Youngs Moduli (GPa) = 84.83576 111.10853 121.18824
#
# Poissons Ratio (x) = 0.03148 0.21479
# Poissons Ratio (y) = 0.02403 -0.19670
# Poissons Ratio (z) = 0.15036 -0.18034
#
# Static dielectric constant tensor:
#      x y z
#    x 2.233580 0.000000 0.000000 
#    y 0.000000 2.279090 0.000000 
#    z 0.000000 0.000000 2.195610 
# 
# From -- ./inp_files/21691.got.cif
#   From: 2010.05.17/outbox.cif.g08.bks.cpg/sg23_11_cif.got.tgz:21691.got - 2010.06.04 12:02:01.
