data_PCOD9330271
_publ_section_title
;
Structure prediction by ZEFSAII (Michael W. Deem and Ramdas Pophale) SiO2 
 PCOD9330271
Probable space group: I 2 2 2
;
_chemical_formula_sum "Si O2"
_cell_formula_units_Z 64
_cell_length_a 7.235238
_cell_length_b 24.832533
_cell_length_c 15.451407
_cell_angle_alpha 90.000000
_cell_angle_beta 90.000000
_cell_angle_gamma 90.000000
_cell_volume 2776.143270
_symmetry_space_group_name_H-M "I 2 2 2"
_symmetry_group_IT_number 23
_symmetry_cell_setting 'orthorhombic'
loop_
_space_group_symop_operation_xyz
x,y,z
-x,-y,z
x,-y,-z
-x,y,-z
1/2+x,1/2+y,1/2+z
1/2-x,1/2-y,1/2+z
1/2+x,1/2-y,1/2-z
1/2-x,1/2+y,1/2-z
loop_
_atom_site_type_symbol
_atom_site_label
_atom_site_fract_x
_atom_site_fract_y
_atom_site_fract_z
Si Si1 0.823131 0.429873 0.884726
Si Si2 0.620772 0.271038 0.205156
Si Si3 0.716709 0.710102 0.971873
Si Si4 0.101719 0.553843 0.700759
Si Si5 0.275235 0.611821 0.256125
Si Si6 0.789338 0.303251 0.848661
Si Si7 0.539248 0.564140 0.401259
Si Si8 0.240320 0.415328 0.930716
O O1 0.794769 0.458675 0.792798
O O2 0.805850 0.366619 0.862173
O O3 0.037460 0.438335 0.910191
O O4 0.708310 0.438524 0.973818
O O5 0.725281 0.256390 0.115981
O O6 0.711327 0.324070 0.246389
O O7 0.419531 0.290943 0.178025
O O8 0.599892 0.222934 0.271540
O O9 0.773542 0.648978 0.948056
O O10 0.500000 0.707742 0.000000
O O11 0.824733 0.724594 0.058715
O O12 0.251876 0.573312 0.632178
O O13 0.000000 0.500000 0.669591
O O14 0.934362 0.594085 0.723208
O O15 0.404879 0.592472 0.333100
O O16 0.338197 0.584925 0.163284
O O17 0.500000 0.500000 0.396510
O O18 0.500000 0.581083 0.500000
#
# Coordination Sequence:
#
# PCOD9330271 Si02
#       8
#     8   8   8   8   8   8   8   8
#     4   9  18  34  59  93 121 161 203 245 299 374
#     4  10  21  35  58  86 119 162 203 254 308 365
#     4   8  16  32  50  76 112 153 203 239 281 356
#     4  11  22  40  68  95 123 164 203 261 318 368
#     4  10  21  41  63  93 126 160 207 260 314 371
#     4  10  20  34  56  84 119 164 208 248 301 363
#     4  11  24  44  68  92 122 158 215 266 313 382
#     4   8  16  32  60  87 120 163 199 235 296 370
#
# _framework density 23.053564000000001
#
# number of rings (size 3 to 8) (size 9 to 14) (size 15 to 20)
#    0.000    2.375    1.250    0.750    5.250    1.500 
#    0.000    7.500    2.750    0.750    0.000    0.000 
#    0.000    0.000    0.000    0.000    0.000    0.000 
#
# Total GULP energy -178670.520841 kJ/mol
# GULP energy per Si atom -5583.453776 kJ/mol
# Density = 2.300109 g / cm^3
# Si number density = 23.053564 Si / 1000 Ang^3
#
#
#
# Elastic Constant Matrix: (Units=GPa)
#
#
# Indices 1 2 3 4 5 6 
#
# 1 90.8345 16.6131 62.9642 0.0000 0.0000 0.0000
# 2 16.6131 56.0948 42.8675 0.0000 0.0000 -0.0001
# 3 62.9642 42.8675 203.4511 0.0001 0.0000 0.0001
# 4 0.0000 0.0000 0.0001 12.5848 0.0000 0.0002
# 5 0.0000 0.0000 0.0000 0.0000 35.9833 0.0000
# 6 0.0000 -0.0001 0.0001 0.0002 0.0000 -579.3812
#
#
#
# Elastic Compliance Matrix: (Units=1/GPa)
#
#
# Indices 1 2 3 4 5 6 
#
# 1 0.014063 -0.001000 -0.004141 0.000000 0.000000 0.000000
# 2 -0.001000 0.021319 -0.004183 0.000000 0.000000 0.000000
# 3 -0.004141 -0.004183 0.007078 0.000000 0.000000 0.000000
# 4 0.000000 0.000000 0.000000 0.079461 0.000000 0.000000
# 5 0.000000 0.000000 0.000000 0.000000 0.027791 0.000000
# 6 0.000000 0.000000 0.000000 0.000000 0.000000 -0.001726
#
#
# Mechanical properties :
#
#
# Convention : Reuss Voigt Hill
#
# Bulk Modulus (GPa) = 41.99503 66.14112 54.06808
# Shear Modulus (GPa) = 28.64166 -90.96690 -31.16262
#
# Velocity S-wave (km/s) = 3.52859 -6.28845 -3.68060
# Velocity P-wave (km/s) = 5.90399 4.89629 2.33275
#
# Compressibility (1/GPa) = 0.02381234
#
# Stress axis : x y z
#
# Youngs Moduli (GPa) = 71.11038 46.90555 141.27973
#
# Poissons Ratio (x) = 0.04690 0.58510
# Poissons Ratio (y) = 0.07111 0.59091
# Poissons Ratio (z) = 0.29450 0.19619
#
# Static dielectric constant tensor:
#      x y z
#    x 2.017520 0.000000 0.000000 
#    y 0.000000 1.849670 0.000000 
#    z 0.000000 0.000000 2.354920 
# 
# From -- ./inp_files/20413.got.cif
#   From: 2010.05.17/outbox.cif.g08.bks.cpg/sg23_11_cif.got.tgz:20413.got - 2010.06.04 12:02:01.
