data_PCOD9330487
_publ_section_title
;
Structure prediction by ZEFSAII (Michael W. Deem and Ramdas Pophale) SiO2 
 PCOD9330487
Probable space group: I 2 2 2
;
_chemical_formula_sum "Si O2"
_cell_formula_units_Z 48
_cell_length_a 8.396521
_cell_length_b 8.176534
_cell_length_c 31.155221
_cell_angle_alpha 90.000000
_cell_angle_beta 90.000000
_cell_angle_gamma 90.000000
_cell_volume 2138.944233
_symmetry_space_group_name_H-M "I 2 2 2"
_symmetry_group_IT_number 23
_symmetry_cell_setting 'orthorhombic'
loop_
_space_group_symop_operation_xyz
x,y,z
-x,-y,z
x,-y,-z
-x,y,-z
1/2+x,1/2+y,1/2+z
1/2-x,1/2-y,1/2+z
1/2+x,1/2-y,1/2-z
1/2-x,1/2+y,1/2-z
loop_
_atom_site_type_symbol
_atom_site_label
_atom_site_fract_x
_atom_site_fract_y
_atom_site_fract_z
Si Si1 0.565856 0.772600 0.291316
Si Si2 0.183759 0.068391 0.545561
Si Si3 0.252769 0.925452 0.785802
Si Si4 0.402736 0.350256 0.564562
Si Si5 0.166233 0.347085 0.885289
Si Si6 0.335804 0.979881 0.124360
O O1 0.636482 0.887885 0.254503
O O2 0.665865 0.602088 0.286842
O O3 0.384808 0.712379 0.286522
O O4 0.592638 0.853161 0.337829
O O5 0.253716 0.253953 0.543518
O O6 0.245730 0.000000 0.500000
O O7 0.258883 0.998911 0.589734
O O8 0.000000 0.000000 0.547017
O O9 0.349964 0.929657 0.830060
O O10 0.500000 0.500000 0.543349
O O11 0.534996 0.224501 0.581796
O O12 0.319488 0.438487 0.604649
O O13 0.302099 0.211884 0.877168
O O14 0.500000 0.000000 0.099432
#
# Coordination Sequence:
#
# PCOD9330487 Si02
#       6
#     8   8   8   8   8   8
#     4  10  22  40  56  90 130 172 229 281 343 410
#     4  11  25  46  71 104 143 179 228 297 367 443
#     4  10  22  38  59  85 129 176 224 286 337 410
#     4  10  21  42  70  98 134 178 227 288 353 434
#     4  10  21  41  64  91 131 177 225 286 350 420
#     4  10  20  37  63  90 128 177 231 281 351 424
#
# _framework density 22.440977
#
# number of rings (size 3 to 8) (size 9 to 14) (size 15 to 20)
#    0.000    1.833    1.667    1.500    4.667    2.667 
#    6.000    5.833    0.000    9.000    0.000    0.000 
#    0.000    0.000    0.000    0.000    0.000    0.000 
#
# Total GULP energy -133727.096005 kJ/mol
# GULP energy per Si atom -5571.962334 kJ/mol
# Density = 2.238990 g / cm^3
# Si number density = 22.440977 Si / 1000 Ang^3
#
#
#
# Elastic Constant Matrix: (Units=GPa)
#
#
# Indices 1 2 3 4 5 6 
#
# 1 120.7330 40.8460 23.1579 0.0000 0.0000 0.0000
# 2 40.8460 93.4706 30.3083 0.0000 0.0000 0.0000
# 3 23.1579 30.3083 112.9520 0.0000 0.0000 0.0000
# 4 0.0000 0.0000 0.0000 -12.2928 0.0000 0.0000
# 5 0.0000 0.0000 0.0000 0.0000 157.7925 0.0000
# 6 0.0000 0.0000 0.0000 0.0000 0.0000 48.1399
#
#
#
# Elastic Compliance Matrix: (Units=1/GPa)
#
#
# Indices 1 2 3 4 5 6 
#
# 1 0.009811 -0.003981 -0.000943 0.000000 0.000000 0.000000
# 2 -0.003981 0.013334 -0.002762 0.000000 0.000000 0.000000
# 3 -0.000943 -0.002762 0.009788 0.000000 0.000000 0.000000
# 4 0.000000 0.000000 0.000000 -0.081348 0.000000 0.000000
# 5 0.000000 0.000000 0.000000 0.000000 0.006337 0.000000
# 6 0.000000 0.000000 0.000000 0.000000 0.000000 0.020773
#
#
# Mechanical properties :
#
#
# Convention : Reuss Voigt Hill
#
# Bulk Modulus (GPa) = 56.94744 57.30888 57.12816
# Shear Modulus (GPa) = -62005.95008 54.25083 -30975.84962
#
# Velocity S-wave (km/s) = -166.40512 4.92213 -117.61471
# Velocity P-wave (km/s) = 192.08190 7.60896 135.71581
#
# Compressibility (1/GPa) = 0.01756005
#
# Stress axis : x y z
#
# Youngs Moduli (GPa) = 101.93067 74.99720 102.16920
#
# Poissons Ratio (x) = 0.29859 0.09636
# Poissons Ratio (y) = 0.40582 0.28215
# Poissons Ratio (z) = 0.09613 0.20711
#
# Static dielectric constant tensor:
#      x y z
#    x 1.870830 0.000000 0.000000 
#    y 0.000000 1.297710 0.000000 
#    z 0.000000 0.000000 1.813320 
# 
# From -- ./inp_files/30223.got.cif
#   From: 2010.05.17/outbox.cif.g08.bks.cpg/sg23_16_cif.got.tgz:30223.got - 2010.06.04 12:02:01.
