data_PCOD9330785
_publ_section_title
;
Structure prediction by ZEFSAII (Michael W. Deem and Ramdas Pophale) SiO2 
 PCOD9330785
Probable space group: I 2 2 2
;
_chemical_formula_sum "Si O2"
_cell_formula_units_Z 38
_cell_length_a 7.484353
_cell_length_b 14.347299
_cell_length_c 16.505404
_cell_angle_alpha 90.000000
_cell_angle_beta 90.000000
_cell_angle_gamma 90.000000
_cell_volume 1772.354413
_symmetry_space_group_name_H-M "I 2 2 2"
_symmetry_group_IT_number 23
_symmetry_cell_setting 'orthorhombic'
loop_
_space_group_symop_operation_xyz
x,y,z
-x,-y,z
x,-y,-z
-x,y,-z
1/2+x,1/2+y,1/2+z
1/2-x,1/2-y,1/2+z
1/2+x,1/2-y,1/2-z
1/2-x,1/2+y,1/2-z
loop_
_atom_site_type_symbol
_atom_site_label
_atom_site_fract_x
_atom_site_fract_y
_atom_site_fract_z
Si Si1 0.037858 0.206208 0.869866
Si Si2 0.318304 0.344348 0.893450
Si Si3 0.794401 0.490761 0.234008
Si Si4 0.000000 0.000000 0.870063
Si Si5 0.500000 0.500000 0.000000
Si Si6 0.817973 0.189594 0.314748
O O1 0.166515 0.273248 0.921849
O O2 0.135921 0.201184 0.780842
O O3 0.024748 0.102592 0.906751
O O4 0.845403 0.250263 0.848825
O O5 0.238610 0.397467 0.815691
O O6 0.501271 0.294608 0.865392
O O7 0.374530 0.428158 0.951726
O O8 0.670525 0.487571 0.311842
O O9 0.734477 0.580126 0.181000
O O10 0.000000 0.500000 0.255251
#
# Coordination Sequence:
#
# PCOD9330785 Si02
#       6
#     8   8   8   4   2   8
#     4  11  21  33  57  88 122 164 213 260 327 374
#     4  12  22  39  57  87 128 170 211 254 311 388
#     4  11  18  31  53  83 120 162 201 248 322 381
#     4  10  21  34  50  85 129 153 198 272 318 378
#     4  12  26  44  62  88 142 180 212 250 314 402
#     4  11  19  32  56  87 120 161 208 262 325 379
#
# _framework density 21.440408000000001
#
# number of rings (size 3 to 8) (size 9 to 14) (size 15 to 20)
#    0.000    0.842   10.526    0.000    0.000    0.000 
#    0.000    4.737    0.000    0.000    0.000    4.421 
#    0.000    0.000    0.000    0.000    0.000    0.000 
#
# Total GULP energy -106142.798790 kJ/mol
# GULP energy per Si atom -5586.463094 kJ/mol
# Density = 2.139161 g / cm^3
# Si number density = 21.440408 Si / 1000 Ang^3
#
#
#
# Elastic Constant Matrix: (Units=GPa)
#
#
# Indices 1 2 3 4 5 6 
#
# 1 172.4803 54.9263 23.5998 0.0000 0.0000 0.0000
# 2 54.9263 172.7741 23.4110 0.0000 0.0000 0.0000
# 3 23.5998 23.4110 42.8415 0.0000 0.0000 0.0000
# 4 0.0000 0.0000 0.0000 7.9375 0.0000 0.0000
# 5 0.0000 0.0000 0.0000 0.0000 13.8101 0.0000
# 6 0.0000 0.0000 0.0000 0.0000 0.0000 41.4985
#
#
#
# Elastic Compliance Matrix: (Units=1/GPa)
#
#
# Indices 1 2 3 4 5 6 
#
# 1 0.006737 -0.001770 -0.002744 0.000000 0.000000 0.000000
# 2 -0.001770 0.006716 -0.002695 0.000000 0.000000 0.000000
# 3 -0.002744 -0.002695 0.026326 0.000000 0.000000 0.000000
# 4 0.000000 0.000000 0.000000 0.125984 0.000000 0.000000
# 5 0.000000 0.000000 0.000000 0.000000 0.072411 0.000000
# 6 0.000000 0.000000 0.000000 0.000000 0.000000 0.024097
#
#
# Mechanical properties :
#
#
# Convention : Reuss Voigt Hill
#
# Bulk Modulus (GPa) = 39.43028 65.77448 52.60238
# Shear Modulus (GPa) = 17.53514 31.72646 24.63080
#
# Velocity S-wave (km/s) = 2.86292 3.85093 3.39308
# Velocity P-wave (km/s) = 5.41839 7.10755 6.31966
#
# Compressibility (1/GPa) = 0.02536122
#
# Stress axis : x y z
#
# Youngs Moduli (GPa) = 148.43789 148.90424 37.98520
#
# Poissons Ratio (x) = 0.26354 0.10423
# Poissons Ratio (y) = 0.26272 0.10237
# Poissons Ratio (z) = 0.40730 0.40128
#
# Static dielectric constant tensor:
#      x y z
#    x 1.756490 0.000000 0.000000 
#    y 0.000000 1.812760 0.000000 
#    z 0.000000 0.000000 1.794260 
# 
# From -- ./inp_files/23647.got.cif
#   From: 2010.05.17/outbox.cif.g08.bks.cpg/sg23_12_cif.got.tgz:23647.got - 2010.06.04 12:02:01.
