data_PCOD9330125
_publ_section_title
;
Structure prediction by ZEFSAII (Michael W. Deem and Ramdas Pophale) SiO2 
 PCOD9330125
Probable space group: I 2 2 2
;
_chemical_formula_sum "Si O2"
_cell_formula_units_Z 56
_cell_length_a 11.699538
_cell_length_b 13.994752
_cell_length_c 15.086004
_cell_angle_alpha 90.000000
_cell_angle_beta 90.000000
_cell_angle_gamma 90.000000
_cell_volume 2470.063611
_symmetry_space_group_name_H-M "I 2 2 2"
_symmetry_group_IT_number 23
_symmetry_cell_setting 'orthorhombic'
loop_
_space_group_symop_operation_xyz
x,y,z
-x,-y,z
x,-y,-z
-x,y,-z
1/2+x,1/2+y,1/2+z
1/2-x,1/2-y,1/2+z
1/2+x,1/2-y,1/2-z
1/2-x,1/2+y,1/2-z
loop_
_atom_site_type_symbol
_atom_site_label
_atom_site_fract_x
_atom_site_fract_y
_atom_site_fract_z
Si Si1 0.307315 0.550260 0.689643
Si Si2 0.007121 0.348006 0.163619
Si Si3 0.543031 0.635496 0.709812
Si Si4 0.772369 0.572200 0.113935
Si Si5 0.035421 0.801636 0.595263
Si Si6 0.448186 0.904752 0.137558
Si Si7 0.269057 0.854894 0.566192
O O1 0.425614 0.601635 0.662189
O O2 0.352564 0.439254 0.695950
O O3 0.273287 0.586253 0.788164
O O4 0.189594 0.575126 0.638845
O O5 0.064660 0.243602 0.178121
O O6 0.091048 0.419121 0.113293
O O7 0.001999 0.392260 0.261671
O O8 0.891029 0.335837 0.109093
O O9 0.508319 0.640700 0.814928
O O10 0.739944 0.465018 0.088501
O O11 0.745989 0.649572 0.038968
O O12 0.000445 0.691699 0.596401
O O13 0.172055 0.791313 0.607795
O O14 0.000000 0.845312 0.500000
O O15 0.500000 0.000000 0.098909
#
# Coordination Sequence:
#
# PCOD9330125 Si02
#       7
#     8   8   8   8   8   8   8
#     4  10  19  39  58  88 116 156 201 243 308 355
#     4  10  20  35  57  90 116 151 204 249 301 356
#     4  10  21  36  60  86 121 156 196 254 299 365
#     4  10  20  34  57  85 121 156 189 239 304 366
#     4  11  23  39  56  88 121 157 200 243 306 366
#     4  10  22  39  62  83 114 159 205 257 284 352
#     4  11  20  35  58  87 121 158 187 245 304 374
#
# _framework density 22.671482000000001
#
# number of rings (size 3 to 8) (size 9 to 14) (size 15 to 20)
#    0.000    1.714    1.429    4.286    0.000    1.429 
#    7.714    0.000    0.000    0.000    0.000    2.000 
#    0.000    0.000    0.000    0.000    0.000    0.000 
#
# Total GULP energy -155901.014870 kJ/mol
# GULP energy per Si atom -5567.893388 kJ/mol
# Density = 2.261988 g / cm^3
# Si number density = 22.671482 Si / 1000 Ang^3
#
#
#
# Elastic Constant Matrix: (Units=GPa)
#
#
# Indices 1 2 3 4 5 6 
#
# 1 94.9929 -1.2708 1.5554 0.0000 0.0000 0.0000
# 2 -1.2708 77.7039 -0.9867 0.0000 0.0000 0.0000
# 3 1.5554 -0.9867 21.0642 0.0000 0.0000 0.0000
# 4 0.0000 0.0000 0.0000 15.2789 0.0000 0.0000
# 5 0.0000 0.0000 0.0000 0.0000 1.3724 0.0000
# 6 0.0000 0.0000 0.0000 0.0000 0.0000 8.9250
#
#
#
# Elastic Compliance Matrix: (Units=1/GPa)
#
#
# Indices 1 2 3 4 5 6 
#
# 1 0.010542 0.000163 -0.000771 0.000000 0.000000 0.000000
# 2 0.000163 0.012880 0.000591 0.000000 0.000000 0.000000
# 3 -0.000771 0.000591 0.047559 0.000000 0.000000 0.000000
# 4 0.000000 0.000000 0.000000 0.065450 0.000000 0.000000
# 5 0.000000 0.000000 0.000000 0.000000 0.728632 0.000000
# 6 0.000000 0.000000 0.000000 0.000000 0.000000 0.112045
#
#
# Mechanical properties :
#
#
# Convention : Reuss Voigt Hill
#
# Bulk Modulus (GPa) = 14.09518 21.37298 17.73408
# Shear Modulus (GPa) = 4.99606 18.07948 11.53777
#
# Velocity S-wave (km/s) = 1.48609 2.82699 2.25835
# Velocity P-wave (km/s) = 3.02907 4.48370 3.82615
#
# Compressibility (1/GPa) = 0.07094625
#
# Stress axis : x y z
#
# Youngs Moduli (GPa) = 94.85957 77.64256 21.02671
#
# Poissons Ratio (x) = -0.01263 0.01621
# Poissons Ratio (y) = -0.01543 -0.01243
# Poissons Ratio (z) = 0.07312 -0.04591
#
# Static dielectric constant tensor:
#      x y z
#    x 1.899580 0.000000 0.000000 
#    y 0.000000 1.867630 0.000000 
#    z 0.000000 0.000000 1.932170 
# 
# From -- ./inp_files/16792.got.cif
#   From: 2010.05.17/outbox.cif.g08.bks.cpg/sg23_9_cif.got.tgz:16792.got - 2010.06.04 12:02:01.
