data_PCOD9330137
_publ_section_title
;
Structure prediction by ZEFSAII (Michael W. Deem and Ramdas Pophale) SiO2 
 PCOD9330137
Probable space group: I 2 2 2
;
_chemical_formula_sum "Si O2"
_cell_formula_units_Z 48
_cell_length_a 8.821248
_cell_length_b 15.078469
_cell_length_c 15.839937
_cell_angle_alpha 90.000000
_cell_angle_beta 90.000000
_cell_angle_gamma 90.000000
_cell_volume 2106.884506
_symmetry_space_group_name_H-M "I 2 2 2"
_symmetry_group_IT_number 23
_symmetry_cell_setting 'orthorhombic'
loop_
_space_group_symop_operation_xyz
x,y,z
-x,-y,z
x,-y,-z
-x,y,-z
1/2+x,1/2+y,1/2+z
1/2-x,1/2-y,1/2+z
1/2+x,1/2-y,1/2-z
1/2-x,1/2+y,1/2-z
loop_
_atom_site_type_symbol
_atom_site_label
_atom_site_fract_x
_atom_site_fract_y
_atom_site_fract_z
Si Si1 0.087521 0.404545 0.201351
Si Si2 0.819656 0.179963 0.005357
Si Si3 0.669664 0.496836 0.900006
Si Si4 0.197729 0.928996 0.154535
Si Si5 0.794376 0.684801 0.846959
Si Si6 0.858041 0.863086 0.178927
O O1 0.226851 0.418480 0.136399
O O2 0.163253 0.391146 0.292110
O O3 0.000000 0.500000 0.203566
O O4 0.972832 0.327803 0.173618
O O5 0.787525 0.088318 0.054947
O O6 0.761523 0.251392 0.073822
O O7 0.781763 0.175317 0.906780
O O8 0.000000 0.193285 0.000000
O O9 0.500000 0.500000 0.863890
O O10 0.747417 0.587843 0.876785
O O11 0.661535 0.500000 0.000000
O O12 0.041641 0.875838 0.176887
O O13 0.188650 0.032153 0.179418
O O14 0.704241 0.690841 0.758737
#
# Coordination Sequence:
#
# PCOD9330137 Si02
#       6
#     8   8   8   8   8   8
#     4  10  20  35  64  97 126 162 213 268 333 381
#     4  10  24  40  63  97 131 175 219 269 325 392
#     4  10  21  38  63  94 123 172 224 266 320 398
#     4  10  19  39  69  94 124 170 229 267 316 390
#     4  11  23  39  65  98 137 168 213 269 344 380
#     4  10  20  41  69  93 126 178 228 263 315 399
#
# _framework density 22.782454999999999
#
# number of rings (size 3 to 8) (size 9 to 14) (size 15 to 20)
#    0.000    1.833    3.333    1.500    2.333    7.000 
#    0.000    0.833    3.667    2.000    0.000    0.000 
#    0.000    0.000    0.000    0.000    0.000    0.000 
#
# Total GULP energy -133934.204956 kJ/mol
# GULP energy per Si atom -5580.591873 kJ/mol
# Density = 2.273060 g / cm^3
# Si number density = 22.782455 Si / 1000 Ang^3
#
#
#
# Elastic Constant Matrix: (Units=GPa)
#
#
# Indices 1 2 3 4 5 6 
#
# 1 86.3278 17.2376 37.7899 0.0000 0.0000 0.0000
# 2 17.2376 94.9194 37.7231 0.0000 0.0000 0.0000
# 3 37.7899 37.7231 170.2771 0.0000 0.0000 0.0000
# 4 0.0000 0.0000 0.0000 41.2609 0.0000 0.0000
# 5 0.0000 0.0000 0.0000 0.0000 20.0685 0.0000
# 6 0.0000 0.0000 0.0000 0.0000 0.0000 4.3281
#
#
#
# Elastic Compliance Matrix: (Units=1/GPa)
#
#
# Indices 1 2 3 4 5 6 
#
# 1 0.012981 -0.001330 -0.002586 0.000000 0.000000 0.000000
# 2 -0.001330 0.011689 -0.002294 0.000000 0.000000 0.000000
# 3 -0.002586 -0.002294 0.006955 0.000000 0.000000 0.000000
# 4 0.000000 0.000000 0.000000 0.024236 0.000000 0.000000
# 5 0.000000 0.000000 0.000000 0.000000 0.049829 0.000000
# 6 0.000000 0.000000 0.000000 0.000000 0.000000 0.231049
#
#
# Mechanical properties :
#
#
# Convention : Reuss Voigt Hill
#
# Bulk Modulus (GPa) = 52.07170 59.66949 55.87060
# Shear Modulus (GPa) = 14.06224 30.38308 22.22266
#
# Velocity S-wave (km/s) = 2.48713 3.65583 3.12657
# Velocity P-wave (km/s) = 5.58152 6.63837 6.13276
#
# Compressibility (1/GPa) = 0.01920429
#
# Stress axis : x y z
#
# Youngs Moduli (GPa) = 77.03307 85.55380 143.77955
#
# Poissons Ratio (x) = 0.11375 0.37188
# Poissons Ratio (y) = 0.10242 0.32989
# Poissons Ratio (z) = 0.19924 0.19629
#
# Static dielectric constant tensor:
#      x y z
#    x 1.915640 0.000000 0.000000 
#    y 0.000000 1.895780 0.000000 
#    z 0.000000 0.000000 1.881090 
# 
# From -- ./inp_files/19992.got.cif
#   From: 2010.05.17/outbox.cif.g08.bks.cpg/sg23_10_cif.got.tgz:19992.got - 2010.06.04 12:02:01.
