data_PCOD9330190
_publ_section_title
;
Structure prediction by ZEFSAII (Michael W. Deem and Ramdas Pophale) SiO2 
 PCOD9330190
Probable space group: I 2 2 2
;
_chemical_formula_sum "Si O2"
_cell_formula_units_Z 64
_cell_length_a 9.505603
_cell_length_b 14.879716
_cell_length_c 27.655170
_cell_angle_alpha 90.000000
_cell_angle_beta 90.000000
_cell_angle_gamma 90.000000
_cell_volume 3911.565858
_symmetry_space_group_name_H-M "I 2 2 2"
_symmetry_group_IT_number 23
_symmetry_cell_setting 'orthorhombic'
loop_
_space_group_symop_operation_xyz
x,y,z
-x,-y,z
x,-y,-z
-x,y,-z
1/2+x,1/2+y,1/2+z
1/2-x,1/2-y,1/2+z
1/2+x,1/2-y,1/2-z
1/2-x,1/2+y,1/2-z
loop_
_atom_site_type_symbol
_atom_site_label
_atom_site_fract_x
_atom_site_fract_y
_atom_site_fract_z
Si Si1 0.873029 0.336134 0.203407
Si Si2 0.812248 0.908882 0.383859
Si Si3 0.136940 0.140504 0.754900
Si Si4 0.897414 0.281797 0.869969
Si Si5 0.580161 0.415432 0.338103
Si Si6 0.619305 0.386092 0.857670
Si Si7 0.947849 0.402753 0.054979
Si Si8 0.345431 0.012881 0.215623
O O1 0.767520 0.356028 0.159089
O O2 0.837093 0.244795 0.232312
O O3 0.865869 0.420159 0.239127
O O4 0.024630 0.321076 0.178033
O O5 0.717493 0.899220 0.431923
O O6 0.972510 0.875908 0.385680
O O7 0.822442 0.014042 0.369016
O O8 0.093461 0.123676 0.699731
O O9 0.011990 0.107153 0.790100
O O10 0.272378 0.079400 0.766959
O O11 0.914740 0.175290 0.868333
O O12 0.737641 0.314129 0.870422
O O13 0.976792 0.325825 0.914721
O O14 0.500000 0.500000 0.361420
O O15 0.734599 0.443360 0.321005
O O16 0.000000 0.500000 0.074059
O O17 0.000000 0.397546 0.000000
O O18 0.500000 0.000000 0.194211
#
# Coordination Sequence:
#
# PCOD9330190 Si02
#       8
#     8   8   8   8   8   8   8   8
#     4  10  20  32  47  70 100 144 190 221 248 300
#     4  10  21  32  50  75 105 140 176 225 264 312
#     4  10  20  32  46  67 104 149 184 217 256 291
#     4  10  20  34  54  75 101 137 173 218 271 321
#     4   9  20  35  49  70 104 142 182 219 262 302
#     4  11  19  30  48  74 109 141 179 217 263 308
#     4  10  20  38  60  79 103 131 170 213 272 332
#     4  11  20  29  44  68  98 138 185 219 247 296
#
# _framework density 16.361733999999998
#
# number of rings (size 3 to 8) (size 9 to 14) (size 15 to 20)
#    0.000    1.875    2.500    2.250    3.500    4.000 
#    0.000    0.625    0.000    0.375    0.000    0.000 
#    0.000    0.000    0.000    0.000    0.000    0.000 
#
# Total GULP energy -178557.460899 kJ/mol
# GULP energy per Si atom -5579.920653 kJ/mol
# Density = 1.632449 g / cm^3
# Si number density = 16.361734 Si / 1000 Ang^3
#
#
#
# Elastic Constant Matrix: (Units=GPa)
#
#
# Indices 1 2 3 4 5 6 
#
# 1 133.7492 58.7871 34.8589 0.0000 0.0000 0.0000
# 2 58.7871 94.2074 38.1659 0.0000 0.0000 0.0000
# 3 34.8589 38.1659 54.7493 0.0000 0.0000 0.0000
# 4 0.0000 0.0000 0.0000 15.4323 0.0000 0.0000
# 5 0.0000 0.0000 0.0000 0.0000 13.5314 0.0000
# 6 0.0000 0.0000 0.0000 0.0000 0.0000 17.4779
#
#
#
# Elastic Compliance Matrix: (Units=1/GPa)
#
#
# Indices 1 2 3 4 5 6 
#
# 1 0.010643 -0.005429 -0.002991 0.000000 0.000000 0.000000
# 2 -0.005429 0.017562 -0.008786 0.000000 0.000000 0.000000
# 3 -0.002991 -0.008786 0.026294 0.000000 0.000000 0.000000
# 4 0.000000 0.000000 0.000000 0.064799 0.000000 0.000000
# 5 0.000000 0.000000 0.000000 0.000000 0.073902 0.000000
# 6 0.000000 0.000000 0.000000 0.000000 0.000000 0.057215
#
#
# Mechanical properties :
#
#
# Convention : Reuss Voigt Hill
#
# Bulk Modulus (GPa) = 49.78559 60.70329 55.24444
# Shear Modulus (GPa) = 17.15125 19.34794 18.24960
#
# Velocity S-wave (km/s) = 3.24119 3.44250 3.34336
# Velocity P-wave (km/s) = 6.67092 7.27890 6.98153
#
# Compressibility (1/GPa) = 0.02008613
#
# Stress axis : x y z
#
# Youngs Moduli (GPa) = 93.96117 56.94032 38.03106
#
# Poissons Ratio (x) = 0.30915 0.11377
# Poissons Ratio (y) = 0.51015 0.33413
# Poissons Ratio (z) = 0.28108 0.50027
#
# Static dielectric constant tensor:
#      x y z
#    x 1.579500 0.000000 0.000000 
#    y 0.000000 1.556640 0.000000 
#    z 0.000000 0.000000 1.524780 
# 
# From -- ./inp_files/22816.got.cif
#   From: 2010.05.17/outbox.cif.g08.bks.cpg/sg23_12_cif.got.tgz:22816.got - 2010.06.04 12:02:01.
