data_PCOD9330931
_publ_section_title
;
Structure prediction by ZEFSAII (Michael W. Deem and Ramdas Pophale) SiO2 
 PCOD9330931
Probable space group: I 2 2 2
;
_chemical_formula_sum "Si O2"
_cell_formula_units_Z 32
_cell_length_a 8.625012
_cell_length_b 11.935885
_cell_length_c 11.538590
_cell_angle_alpha 90.000000
_cell_angle_beta 90.000000
_cell_angle_gamma 90.000000
_cell_volume 1187.864971
_symmetry_space_group_name_H-M "I 2 2 2"
_symmetry_group_IT_number 23
_symmetry_cell_setting 'orthorhombic'
loop_
_space_group_symop_operation_xyz
x,y,z
-x,-y,z
x,-y,-z
-x,y,-z
1/2+x,1/2+y,1/2+z
1/2-x,1/2-y,1/2+z
1/2+x,1/2-y,1/2-z
1/2-x,1/2+y,1/2-z
loop_
_atom_site_type_symbol
_atom_site_label
_atom_site_fract_x
_atom_site_fract_y
_atom_site_fract_z
Si Si1 0.276325 0.913070 0.897277
Si Si2 0.829081 0.830475 0.489216
Si Si3 0.465114 0.685748 0.251951
Si Si4 0.687404 0.907256 0.703125
O O1 0.337363 0.794074 0.950906
O O2 0.102969 0.878192 0.861771
O O3 0.331167 0.985857 0.785250
O O4 0.291619 0.000000 0.000000
O O5 0.833952 0.827239 0.350439
O O6 0.706193 0.900188 0.563505
O O7 0.000000 0.881403 0.500000
O O8 0.446763 0.817499 0.271487
O O9 0.637862 0.640639 0.233028
#
# Coordination Sequence:
#
# PCOD9330931 Si02
#       4
#     8   8   8   8
#     4  11  21  37  62  93 122 160 212 254 318 370
#     4   9  20  40  61  87 123 166 207 254 307 376
#     4  10  21  39  58  88 125 162 205 261 307 372
#     4  10  21  38  58  90 122 162 205 259 311 370
#
# _framework density 26.939091000000001
#
# number of rings (size 3 to 8) (size 9 to 14) (size 15 to 20)
#    0.000    2.000    2.500    0.750    0.000    3.500 
#    4.500    3.750    0.000    0.000    0.000    3.500 
#    0.000    0.000    0.000    0.000    0.000    0.000 
#
# Total GULP energy -89128.041756 kJ/mol
# GULP energy per Si atom -5570.502610 kJ/mol
# Density = 2.687778 g / cm^3
# Si number density = 26.939091 Si / 1000 Ang^3
#
#
#
# Elastic Constant Matrix: (Units=GPa)
#
#
# Indices 1 2 3 4 5 6 
#
# 1 104.3939 54.2664 32.4007 0.0000 0.0000 0.0000
# 2 54.2664 215.6463 87.6625 0.0000 0.0000 0.0000
# 3 32.4007 87.6625 124.2440 0.0000 0.0000 0.0000
# 4 0.0000 0.0000 0.0000 54.1483 0.0000 0.0000
# 5 0.0000 0.0000 0.0000 0.0000 -0.5751 0.0000
# 6 0.0000 0.0000 0.0000 0.0000 0.0000 16.0075
#
#
#
# Elastic Compliance Matrix: (Units=1/GPa)
#
#
# Indices 1 2 3 4 5 6 
#
# 1 0.011169 -0.002281 -0.001303 0.000000 0.000000 0.000000
# 2 -0.002281 0.006968 -0.004322 0.000000 0.000000 0.000000
# 3 -0.001303 -0.004322 0.011438 0.000000 0.000000 0.000000
# 4 0.000000 0.000000 0.000000 0.018468 0.000000 0.000000
# 5 0.000000 0.000000 0.000000 0.000000 -1.738770 0.000000
# 6 0.000000 0.000000 0.000000 0.000000 0.000000 0.062471
#
#
# Mechanical properties :
#
#
# Convention : Reuss Voigt Hill
#
# Bulk Modulus (GPa) = 72.65720 88.10483 80.38101
# Shear Modulus (GPa) = -3.10973 31.91311 14.40169
#
# Velocity S-wave (km/s) = -1.07557 3.44559 2.31465
# Velocity P-wave (km/s) = 5.04846 6.97178 6.08657
#
# Compressibility (1/GPa) = 0.01376326
#
# Stress axis : x y z
#
# Youngs Moduli (GPa) = 89.53118 143.51449 87.42983
#
# Poissons Ratio (x) = 0.32733 0.11396
# Poissons Ratio (y) = 0.20420 0.37783
# Poissons Ratio (z) = 0.11670 0.62020
#
# Static dielectric constant tensor:
#      x y z
#    x 2.057530 0.000000 0.000000 
#    y 0.000000 2.148810 0.000000 
#    z 0.000000 0.000000 2.450540 
# 
# From -- ./inp_files/15263.got.cif
#   From: 2010.05.17/outbox.cif.g08.bks.cpg/sg23_8_cif.got.tgz:15263.got - 2010.06.04 12:02:01.
