data_PCOD9330840
_publ_section_title
;
Structure prediction by ZEFSAII (Michael W. Deem and Ramdas Pophale) SiO2 
 PCOD9330840
Probable space group: I 2 2 2
;
_chemical_formula_sum "Si O2"
_cell_formula_units_Z 44
_cell_length_a 26.127632
_cell_length_b 5.055927
_cell_length_c 15.835927
_cell_angle_alpha 90.000000
_cell_angle_beta 90.000000
_cell_angle_gamma 90.000000
_cell_volume 2091.916456
_symmetry_space_group_name_H-M "I 2 2 2"
_symmetry_group_IT_number 23
_symmetry_cell_setting 'orthorhombic'
loop_
_space_group_symop_operation_xyz
x,y,z
-x,-y,z
x,-y,-z
-x,y,-z
1/2+x,1/2+y,1/2+z
1/2-x,1/2-y,1/2+z
1/2+x,1/2-y,1/2-z
1/2-x,1/2+y,1/2-z
loop_
_atom_site_type_symbol
_atom_site_label
_atom_site_fract_x
_atom_site_fract_y
_atom_site_fract_z
Si Si1 0.848842 0.749889 0.560522
Si Si2 0.905193 0.526644 0.900915
Si Si3 0.781574 0.780706 0.726039
Si Si4 0.000000 0.500000 0.201360
Si Si5 0.378769 0.553619 0.309577
Si Si6 0.552515 0.604730 0.166555
O O1 0.847739 0.500000 0.500000
O O2 0.805299 0.737043 0.632691
O O3 0.841488 0.000000 0.500000
O O4 0.904807 0.774960 0.605311
O O5 0.902250 0.831748 0.872580
O O6 0.957255 0.398351 0.863457
O O7 0.866111 0.328541 0.854689
O O8 0.901748 0.500000 0.000000
O O9 0.761453 0.507215 0.765014
O O10 0.828581 0.907552 0.776813
O O11 0.970426 0.304911 0.264066
O O12 0.414932 0.595303 0.226512
O O13 0.500000 0.500000 0.124360
#
# Coordination Sequence:
#
# PCOD9330840 Si02
#       6
#     8   8   8   4   8   8
#     4  11  26  45  67 102 142 169 215 289 340 385
#     4  11  21  36  57  88 128 167 208 275 325 364
#     4  11  23  45  75  95 121 175 225 264 339 420
#     4  10  21  36  59  86 124 174 238 250 301 392
#     4  10  22  39  61  90 127 163 220 267 319 395
#     4  10  21  39  64  89 130 184 219 259 316 403
#
# _framework density 21.033344
#
# number of rings (size 3 to 8) (size 9 to 14) (size 15 to 20)
#    0.000    1.455    1.818    3.000    2.545    3.273 
#    0.000   10.909    0.000    0.000    0.000    0.000 
#    0.000    0.000    0.000    0.000    0.000    0.000 
#
# Total GULP energy -122729.183045 kJ/mol
# GULP energy per Si atom -5578.599229 kJ/mol
# Density = 2.098547 g / cm^3
# Si number density = 21.033344 Si / 1000 Ang^3
#
#
#
# Elastic Constant Matrix: (Units=GPa)
#
#
# Indices 1 2 3 4 5 6 
#
# 1 111.2413 34.1397 70.8827 0.0000 0.0000 0.0000
# 2 34.1397 115.2619 47.4007 0.0000 0.0000 0.0000
# 3 70.8827 47.4007 111.1481 0.0000 0.0000 0.0000
# 4 0.0000 0.0000 0.0000 40.0431 0.0000 0.0000
# 5 0.0000 0.0000 0.0000 0.0000 32.4743 0.0000
# 6 0.0000 0.0000 0.0000 0.0000 0.0000 29.0776
#
#
#
# Elastic Compliance Matrix: (Units=1/GPa)
#
#
# Indices 1 2 3 4 5 6 
#
# 1 0.015180 -0.000625 -0.009414 0.000000 0.000000 0.000000
# 2 -0.000625 0.010547 -0.004100 0.000000 0.000000 0.000000
# 3 -0.009414 -0.004100 0.016749 0.000000 0.000000 0.000000
# 4 0.000000 0.000000 0.000000 0.024973 0.000000 0.000000
# 5 0.000000 0.000000 0.000000 0.000000 0.030794 0.000000
# 6 0.000000 0.000000 0.000000 0.000000 0.000000 0.034391
#
#
# Mechanical properties :
#
#
# Convention : Reuss Voigt Hill
#
# Bulk Modulus (GPa) = 70.42777 71.38861 70.90819
# Shear Modulus (GPa) = 30.18536 32.66756 31.42646
#
# Velocity S-wave (km/s) = 3.79241 3.94526 3.86959
# Velocity P-wave (km/s) = 7.26175 7.40052 7.33147
#
# Compressibility (1/GPa) = 0.01419894
#
# Stress axis : x y z
#
# Youngs Moduli (GPa) = 65.87631 94.81563 59.70454
#
# Poissons Ratio (x) = 0.05922 0.56208
# Poissons Ratio (y) = 0.04115 0.24476
# Poissons Ratio (z) = 0.62018 0.38870
#
# Static dielectric constant tensor:
#      x y z
#    x 1.862200 0.000000 0.000000 
#    y 0.000000 1.818230 0.000000 
#    z 0.000000 0.000000 1.726760 
# 
# From -- ./inp_files/22679.got.cif
#   From: 2010.05.17/outbox.cif.g08.bks.cpg/sg23_12_cif.got.tgz:22679.got - 2010.06.04 12:02:01.
