data_PCOD9330779
_publ_section_title
;
Structure prediction by ZEFSAII (Michael W. Deem and Ramdas Pophale) SiO2 
 PCOD9330779
Probable space group: I 2 2 2
;
_chemical_formula_sum "Si O2"
_cell_formula_units_Z 32
_cell_length_a 6.993905
_cell_length_b 12.266873
_cell_length_c 15.442342
_cell_angle_alpha 90.000000
_cell_angle_beta 90.000000
_cell_angle_gamma 90.000000
_cell_volume 1324.850166
_symmetry_space_group_name_H-M "I 2 2 2"
_symmetry_group_IT_number 23
_symmetry_cell_setting 'orthorhombic'
loop_
_space_group_symop_operation_xyz
x,y,z
-x,-y,z
x,-y,-z
-x,y,-z
1/2+x,1/2+y,1/2+z
1/2-x,1/2-y,1/2+z
1/2+x,1/2-y,1/2-z
1/2-x,1/2+y,1/2-z
loop_
_atom_site_type_symbol
_atom_site_label
_atom_site_fract_x
_atom_site_fract_y
_atom_site_fract_z
Si Si1 0.800415 0.780517 0.099892
Si Si2 0.774994 0.971162 0.595451
Si Si3 0.212366 0.109044 0.937925
Si Si4 0.769922 0.971790 0.219996
O O1 0.769382 0.654625 0.114133
O O2 0.728720 0.855602 0.177335
O O3 0.018252 0.826202 0.088842
O O4 0.701701 0.809386 0.008090
O O5 0.701577 0.000000 0.500000
O O6 0.702604 0.030879 0.681618
O O7 0.000000 0.000000 0.592604
O O8 0.301541 0.062842 0.849502
O O9 0.191448 0.000000 0.000000
O O10 0.000000 0.000000 0.221242
#
# Coordination Sequence:
#
# PCOD9330779 Si02
#       4
#     8   8   8   8
#     4   9  15  28  52  74  96 126 154 207 259 274
#     4  10  21  33  44  68 103 138 169 189 232 307
#     4   8  14  29  55  83  95 110 162 218 253 285
#     4   8  15  30  50  73  96 122 163 202 239 292
#
# _framework density 24.153673999999999
#
# number of rings (size 3 to 8) (size 9 to 14) (size 15 to 20)
#    0.000    3.250    0.000    6.000    0.000    2.000 
#    0.000    2.500    0.000    0.000    0.000  140.000 
#    0.000    0.000    0.000    0.000    0.000    0.000 
#
# Total GULP energy -89109.716732 kJ/mol
# GULP energy per Si atom -5569.357296 kJ/mol
# Density = 2.409870 g / cm^3
# Si number density = 24.153674 Si / 1000 Ang^3
#
#
#
# Elastic Constant Matrix: (Units=GPa)
#
#
# Indices 1 2 3 4 5 6 
#
# 1 116.6967 22.1986 8.6624 0.0000 0.0000 0.0000
# 2 22.1986 134.8289 65.2785 0.0000 0.0000 0.0000
# 3 8.6624 65.2785 261.6104 0.0000 0.0000 0.0000
# 4 0.0000 0.0000 0.0000 23.2718 0.0000 0.0000
# 5 0.0000 0.0000 0.0000 0.0000 -51.5493 0.0000
# 6 0.0000 0.0000 0.0000 0.0000 0.0000 13.8022
#
#
#
# Elastic Compliance Matrix: (Units=1/GPa)
#
#
# Indices 1 2 3 4 5 6 
#
# 1 0.008848 -0.001496 0.000080 0.000000 0.000000 0.000000
# 2 -0.001496 0.008689 -0.002119 0.000000 0.000000 0.000000
# 3 0.000080 -0.002119 0.004348 0.000000 0.000000 0.000000
# 4 0.000000 0.000000 0.000000 0.042971 0.000000 0.000000
# 5 0.000000 0.000000 0.000000 0.000000 -0.019399 0.000000
# 6 0.000000 0.000000 0.000000 0.000000 0.000000 0.072452
#
#
# Mechanical properties :
#
#
# Convention : Reuss Voigt Hill
#
# Bulk Modulus (GPa) = 67.48917 78.37944 72.93430
# Shear Modulus (GPa) = 38.48648 24.90471 31.69560
#
# Velocity S-wave (km/s) = 3.99607 3.21455 3.62643
# Velocity P-wave (km/s) = 7.02095 6.80430 6.91347
#
# Compressibility (1/GPa) = 0.01481719
#
# Stress axis : x y z
#
# Youngs Moduli (GPa) = 113.02297 115.09134 229.96681
#
# Poissons Ratio (x) = 0.17213 -0.01845
# Poissons Ratio (y) = 0.16903 0.48720
# Poissons Ratio (z) = -0.00907 0.24383
#
# Static dielectric constant tensor:
#      x y z
#    x 1.958060 0.000000 0.000000 
#    y 0.000000 1.907840 0.000000 
#    z 0.000000 0.000000 1.970210 
# 
# From -- ./inp_files/16294.got.cif
#   From: 2010.05.17/outbox.cif.g08.bks.cpg/sg23_9_cif.got.tgz:16294.got - 2010.06.04 12:02:01.
