data_PCOD9330227
_publ_section_title
;
Structure prediction by ZEFSAII (Michael W. Deem and Ramdas Pophale) SiO2 
 PCOD9330227
Probable space group: I 2 2 2
;
_chemical_formula_sum "Si O2"
_cell_formula_units_Z 56
_cell_length_a 21.784137
_cell_length_b 10.615904
_cell_length_c 11.618507
_cell_angle_alpha 90.000000
_cell_angle_beta 90.000000
_cell_angle_gamma 90.000000
_cell_volume 2686.876260
_symmetry_space_group_name_H-M "I 2 2 2"
_symmetry_group_IT_number 23
_symmetry_cell_setting 'orthorhombic'
loop_
_space_group_symop_operation_xyz
x,y,z
-x,-y,z
x,-y,-z
-x,y,-z
1/2+x,1/2+y,1/2+z
1/2-x,1/2-y,1/2+z
1/2+x,1/2-y,1/2-z
1/2-x,1/2+y,1/2-z
loop_
_atom_site_type_symbol
_atom_site_label
_atom_site_fract_x
_atom_site_fract_y
_atom_site_fract_z
Si Si1 0.408654 0.889415 0.196409
Si Si2 0.761757 0.086076 0.677843
Si Si3 0.791591 0.881889 0.064856
Si Si4 0.166053 0.263281 0.498256
Si Si5 0.488533 0.848087 0.630487
Si Si6 0.127342 0.669650 0.268727
Si Si7 0.178474 0.392887 0.086783
O O1 0.386111 0.822256 0.082304
O O2 0.466897 0.826063 0.259344
O O3 0.358810 0.878036 0.297551
O O4 0.404028 0.040952 0.178516
O O5 0.795168 0.090569 0.799617
O O6 0.799956 0.160608 0.582171
O O7 0.694116 0.143377 0.710994
O O8 0.743711 0.949021 0.628853
O O9 0.818653 0.745638 0.036645
O O10 0.720247 0.863534 0.027688
O O11 0.818775 0.000000 0.000000
O O12 0.138044 0.236457 0.624466
O O13 0.500000 0.800814 0.500000
O O14 0.421882 0.801904 0.670275
O O15 0.500000 0.000000 0.621392
O O16 0.153372 0.500000 0.000000
#
# Coordination Sequence:
#
# PCOD9330227 Si02
#       7
#     8   8   8   8   8   8   8
#     4  10  20  33  55  83 119 168 206 265 326 378
#     4  10  21  34  55  82 123 169 205 251 324 382
#     4  11  22  36  55  82 125 167 207 257 318 387
#     4  11  19  35  53  82 120 167 207 254 323 383
#     4   9  19  33  53  81 117 167 214 261 328 392
#     4   9  20  34  52  80 122 168 208 269 320 380
#     4  11  21  33  55  85 121 169 205 259 312 381
#
# _framework density 20.842047000000001
#
# number of rings (size 3 to 8) (size 9 to 14) (size 15 to 20)
#    0.000    1.857    2.857    3.000    6.000    0.571 
#    0.000    2.143    0.000    0.000    0.000    0.000 
#    0.000   40.571    0.571    0.286    0.000    0.000 
#
# Total GULP energy -155962.129980 kJ/mol
# GULP energy per Si atom -5570.076071 kJ/mol
# Density = 2.079461 g / cm^3
# Si number density = 20.842047 Si / 1000 Ang^3
#
#
#
# Elastic Constant Matrix: (Units=GPa)
#
#
# Indices 1 2 3 4 5 6 
#
# 1 63.3216 14.3325 56.3014 0.0000 0.0000 0.0000
# 2 14.3325 81.9935 45.6547 0.0000 0.0000 0.0000
# 3 56.3014 45.6547 163.2397 0.0000 0.0000 0.0000
# 4 0.0000 0.0000 0.0000 24.7515 0.0000 0.0000
# 5 0.0000 0.0000 0.0000 0.0000 39.2853 0.0000
# 6 0.0000 0.0000 0.0000 0.0000 0.0000 13.5905
#
#
#
# Elastic Compliance Matrix: (Units=1/GPa)
#
#
# Indices 1 2 3 4 5 6 
#
# 1 0.022792 0.000466 -0.007991 0.000000 0.000000 0.000000
# 2 0.000466 0.014455 -0.004203 0.000000 0.000000 0.000000
# 3 -0.007991 -0.004203 0.010058 0.000000 0.000000 0.000000
# 4 0.000000 0.000000 0.000000 0.040402 0.000000 0.000000
# 5 0.000000 0.000000 0.000000 0.000000 0.025455 0.000000
# 6 0.000000 0.000000 0.000000 0.000000 0.000000 0.073581
#
#
# Mechanical properties :
#
#
# Convention : Reuss Voigt Hill
#
# Bulk Modulus (GPa) = 41.93395 60.12577 51.02986
# Shear Modulus (GPa) = 22.92003 28.34319 25.63161
#
# Velocity S-wave (km/s) = 3.31977 3.69169 3.51066
# Velocity P-wave (km/s) = 5.90407 6.86166 6.40080
#
# Compressibility (1/GPa) = 0.02384703
#
# Stress axis : x y z
#
# Youngs Moduli (GPa) = 43.87436 69.17924 99.42575
#
# Poissons Ratio (x) = -0.03220 0.79454
# Poissons Ratio (y) = -0.02042 0.41792
# Poissons Ratio (z) = 0.35061 0.29079
#
# Static dielectric constant tensor:
#      x y z
#    x 1.833830 0.000000 0.000000 
#    y 0.000000 1.800600 0.000000 
#    z 0.000000 0.000000 1.789630 
# 
# From -- ./inp_files/18380.got.cif
#   From: 2010.05.17/outbox.cif.g08.bks.cpg/sg23_10_cif.got.tgz:18380.got - 2010.06.04 12:02:01.
