data_PCOD9330626
_publ_section_title
;
Structure prediction by ZEFSAII (Michael W. Deem and Ramdas Pophale) SiO2 
 PCOD9330626
Probable space group: I 2 2 2
;
_chemical_formula_sum "Si O2"
_cell_formula_units_Z 58
_cell_length_a 11.544747
_cell_length_b 8.512338
_cell_length_c 26.263420
_cell_angle_alpha 90.000000
_cell_angle_beta 90.000000
_cell_angle_gamma 90.000000
_cell_volume 2580.979521
_symmetry_space_group_name_H-M "I 2 2 2"
_symmetry_group_IT_number 23
_symmetry_cell_setting 'orthorhombic'
loop_
_space_group_symop_operation_xyz
x,y,z
-x,-y,z
x,-y,-z
-x,y,-z
1/2+x,1/2+y,1/2+z
1/2-x,1/2-y,1/2+z
1/2+x,1/2-y,1/2-z
1/2-x,1/2+y,1/2-z
loop_
_atom_site_type_symbol
_atom_site_label
_atom_site_fract_x
_atom_site_fract_y
_atom_site_fract_z
Si Si1 0.330583 0.552510 0.577109
Si Si2 0.831021 0.419787 0.841604
Si Si3 0.433218 0.261376 0.326823
Si Si4 0.500000 0.500000 0.500000
Si Si5 0.914653 0.141922 0.288406
Si Si6 0.248585 0.287986 0.064501
Si Si7 0.480614 0.815817 0.879308
Si Si8 0.118189 0.726933 0.532159
O O1 0.372741 0.627607 0.630165
O O2 0.421956 0.608133 0.535594
O O3 0.333012 0.364277 0.571159
O O4 0.205381 0.596037 0.554131
O O5 0.872220 0.591937 0.826550
O O6 0.715329 0.381303 0.809567
O O7 0.806114 0.425735 0.902457
O O8 0.931344 0.288055 0.833712
O O9 0.415672 0.337153 0.271772
O O10 0.973495 0.284548 0.319571
O O11 0.000000 0.000000 0.302094
O O12 0.358551 0.234082 0.097879
O O13 0.301290 0.316147 0.008638
O O14 0.569317 0.712192 0.913685
O O15 0.500000 0.000000 0.888608
O O16 0.000000 0.685272 0.500000
#
# Coordination Sequence:
#
# PCOD9330626 Si02
#       8
#     8   8   8   2   8   8   8   8
#     4  12  23  38  69  99 138 181 240 286 342 423
#     4  10  26  50  67  96 146 181 236 290 366 443
#     4  11  28  47  72  97 138 196 230 291 366 439
#     4  12  24  36  58 102 132 172 236 292 334 400
#     4  11  28  45  74 105 136 179 247 312 368 433
#     4  10  20  39  67 101 139 179 225 294 346 428
#     4  10  21  37  67 104 142 179 228 292 376 427
#     4  10  21  37  70 105 144 183 239 303 370 419
#
# _framework density 22.472090000000001
#
# number of rings (size 3 to 8) (size 9 to 14) (size 15 to 20)
#    0.000    1.379    2.759    0.828   10.621    1.103 
#    0.000    0.690    3.034    0.000    0.000    0.000 
#    0.000    0.000    0.000    0.000    0.000    0.000 
#
# Total GULP energy -161577.900128 kJ/mol
# GULP energy per Si atom -5571.651729 kJ/mol
# Density = 2.242094 g / cm^3
# Si number density = 22.472090 Si / 1000 Ang^3
#
#
#
# Elastic Constant Matrix: (Units=GPa)
#
#
# Indices 1 2 3 4 5 6 
#
# 1 133.5122 27.5587 52.2918 0.0000 0.0000 0.0000
# 2 27.5587 44.3653 19.7147 0.0000 0.0000 0.0000
# 3 52.2918 19.7147 171.1475 0.0000 0.0000 0.0000
# 4 0.0000 0.0000 0.0000 23.7181 0.0000 0.0000
# 5 0.0000 0.0000 0.0000 0.0000 11.9647 0.0000
# 6 0.0000 0.0000 0.0000 0.0000 0.0000 9.9493
#
#
#
# Elastic Compliance Matrix: (Units=1/GPa)
#
#
# Indices 1 2 3 4 5 6 
#
# 1 0.009388 -0.004803 -0.002315 0.000000 0.000000 0.000000
# 2 -0.004803 0.026213 -0.001552 0.000000 0.000000 0.000000
# 3 -0.002315 -0.001552 0.006729 0.000000 0.000000 0.000000
# 4 0.000000 0.000000 0.000000 0.042162 0.000000 0.000000
# 5 0.000000 0.000000 0.000000 0.000000 0.083579 0.000000
# 6 0.000000 0.000000 0.000000 0.000000 0.000000 0.100509
#
#
# Mechanical properties :
#
#
# Convention : Reuss Voigt Hill
#
# Bulk Modulus (GPa) = 40.01569 60.90616 50.46092
# Shear Modulus (GPa) = 16.99230 25.75708 21.37469
#
# Velocity S-wave (km/s) = 2.75280 3.38920 3.08744
# Velocity P-wave (km/s) = 5.28672 6.51747 5.93409
#
# Compressibility (1/GPa) = 0.02499020
#
# Stress axis : x y z
#
# Youngs Moduli (GPa) = 106.51786 38.14857 148.60908
#
# Poissons Ratio (x) = 0.18322 0.34405
# Poissons Ratio (y) = 0.51159 0.23065
# Poissons Ratio (z) = 0.24661 0.05921
#
# Static dielectric constant tensor:
#      x y z
#    x 2.010430 0.000000 0.000000 
#    y 0.000000 1.912040 0.000000 
#    z 0.000000 0.000000 1.863500 
# 
# From -- ./inp_files/29479.got.cif
#   From: 2010.05.17/outbox.cif.g08.bks.cpg/sg23_15_cif.got.tgz:29479.got - 2010.06.04 12:02:01.
