data_PCOD9330370
_publ_section_title
;
Structure prediction by ZEFSAII (Michael W. Deem and Ramdas Pophale) SiO2 
 PCOD9330370
Probable space group: I 2 2 2
;
_chemical_formula_sum "Si O2"
_cell_formula_units_Z 60
_cell_length_a 5.692678
_cell_length_b 19.557584
_cell_length_c 23.746710
_cell_angle_alpha 90.000000
_cell_angle_beta 90.000000
_cell_angle_gamma 90.000000
_cell_volume 2643.840627
_symmetry_space_group_name_H-M "I 2 2 2"
_symmetry_group_IT_number 23
_symmetry_cell_setting 'orthorhombic'
loop_
_space_group_symop_operation_xyz
x,y,z
-x,-y,z
x,-y,-z
-x,y,-z
1/2+x,1/2+y,1/2+z
1/2-x,1/2-y,1/2+z
1/2+x,1/2-y,1/2-z
1/2-x,1/2+y,1/2-z
loop_
_atom_site_type_symbol
_atom_site_label
_atom_site_fract_x
_atom_site_fract_y
_atom_site_fract_z
Si Si1 0.773246 0.825418 0.390350
Si Si2 0.500000 0.628782 0.000000
Si Si3 0.756650 0.819258 0.937268
Si Si4 0.625685 0.928250 0.570481
Si Si5 0.711868 0.835718 0.766210
Si Si6 0.714625 0.299055 0.311152
Si Si7 0.068474 0.924969 0.321030
Si Si8 0.252788 0.823004 0.934469
O O1 0.953831 0.832242 0.442468
O O2 0.736302 0.744009 0.393099
O O3 0.541474 0.866586 0.409074
O O4 0.875822 0.864654 0.335346
O O5 0.734593 0.586931 0.013317
O O6 0.508825 0.857355 0.931515
O O7 0.999924 0.860177 0.931827
O O8 0.754642 0.791141 0.002482
O O9 0.821189 0.937557 0.618261
O O10 0.500000 0.000000 0.568863
O O11 0.709818 0.766316 0.729331
O O12 0.458901 0.838453 0.796718
O O13 0.740055 0.895276 0.720948
O O14 0.962981 0.835994 0.799750
O O15 0.744219 0.279295 0.376992
O O16 0.000000 0.000000 0.299888
#
# Coordination Sequence:
#
# PCOD9330370 Si02
#       8
#     8   4   8   8   8   8   8   8
#     4  11  23  35  53  71 107 146 193 244 292 347
#     4  10  24  35  48  68  94 138 196 246 296 338
#     4  10  22  32  55  85 108 154 183 227 283 357
#     4  11  24  39  51  70 101 148 196 251 302 343
#     4  10  23  37  62  84 108 145 199 247 311 357
#     4  10  21  39  58  85 111 147 190 253 300 357
#     4  11  24  42  57  81 110 150 202 254 303 353
#     4  10  20  36  54  80 117 143 191 234 293 348
#
# _framework density 22.694257
#
# number of rings (size 3 to 8) (size 9 to 14) (size 15 to 20)
#    0.000    1.600    1.333    2.800   11.200    2.667 
#    0.000    0.000    0.000    0.000    0.000    0.000 
#    0.000    0.000    0.000   36.000    0.000    0.533 
#
# Total GULP energy -167160.022149 kJ/mol
# GULP energy per Si atom -5572.000738 kJ/mol
# Density = 2.264260 g / cm^3
# Si number density = 22.694257 Si / 1000 Ang^3
#
#
#
# Elastic Constant Matrix: (Units=GPa)
#
#
# Indices 1 2 3 4 5 6 
#
# 1 173.1476 5.0107 14.4020 0.0000 0.0000 0.0000
# 2 5.0107 19.8956 3.2090 0.0000 0.0000 0.0000
# 3 14.4020 3.2090 82.6433 0.0000 0.0000 0.0000
# 4 0.0000 0.0000 0.0000 9.1577 0.0000 0.0000
# 5 0.0000 0.0000 0.0000 0.0000 37.0496 0.0000
# 6 0.0000 0.0000 0.0000 0.0000 0.0000 17.8885
#
#
#
# Elastic Compliance Matrix: (Units=1/GPa)
#
#
# Indices 1 2 3 4 5 6 
#
# 1 0.005895 -0.001327 -0.000976 0.000000 0.000000 0.000000
# 2 -0.001327 0.050878 -0.001744 0.000000 0.000000 0.000000
# 3 -0.000976 -0.001744 0.012338 0.000000 0.000000 0.000000
# 4 0.000000 0.000000 0.000000 0.109198 0.000000 0.000000
# 5 0.000000 0.000000 0.000000 0.000000 0.026991 0.000000
# 6 0.000000 0.000000 0.000000 0.000000 0.000000 0.055902
#
#
# Mechanical properties :
#
#
# Convention : Reuss Voigt Hill
#
# Bulk Modulus (GPa) = 16.38903 35.65888 26.02396
# Shear Modulus (GPa) = 17.26309 29.69014 23.47661
#
# Velocity S-wave (km/s) = 2.76104 3.62092 3.21981
# Velocity P-wave (km/s) = 4.17154 5.76440 5.03140
#
# Compressibility (1/GPa) = 0.06101641
#
# Stress axis : x y z
#
# Youngs Moduli (GPa) = 169.63554 19.65482 81.05067
#
# Poissons Ratio (x) = 0.02609 0.07909
# Poissons Ratio (y) = 0.22515 0.14138
# Poissons Ratio (z) = 0.16552 0.03428
#
# Static dielectric constant tensor:
#      x y z
#    x 1.971590 0.000000 0.000000 
#    y 0.000000 1.828880 0.000000 
#    z 0.000000 0.000000 1.896820 
# 
# From -- ./inp_files/27710.got.cif
#   From: 2010.05.17/outbox.cif.g08.bks.cpg/sg23_14_cif.got.tgz:27710.got - 2010.06.04 12:02:01.
