data_PCOD9330974
_publ_section_title
;
Structure prediction by ZEFSAII (Michael W. Deem and Ramdas Pophale) SiO2 
 PCOD9330974
Probable space group: I 2 2 2
;
_chemical_formula_sum "Si O2"
_cell_formula_units_Z 58
_cell_length_a 7.098362
_cell_length_b 12.193639
_cell_length_c 31.623783
_cell_angle_alpha 90.000000
_cell_angle_beta 90.000000
_cell_angle_gamma 90.000000
_cell_volume 2737.192228
_symmetry_space_group_name_H-M "I 2 2 2"
_symmetry_group_IT_number 23
_symmetry_cell_setting 'orthorhombic'
loop_
_space_group_symop_operation_xyz
x,y,z
-x,-y,z
x,-y,-z
-x,y,-z
1/2+x,1/2+y,1/2+z
1/2-x,1/2-y,1/2+z
1/2+x,1/2-y,1/2-z
1/2-x,1/2+y,1/2-z
loop_
_atom_site_type_symbol
_atom_site_label
_atom_site_fract_x
_atom_site_fract_y
_atom_site_fract_z
Si Si1 0.726331 0.695987 0.469311
Si Si2 0.970018 0.814711 0.304182
Si Si3 0.367079 0.230134 0.064599
Si Si4 0.361453 0.733587 0.291457
Si Si5 0.882513 0.395971 0.164748
Si Si6 0.500000 0.500000 0.500000
Si Si7 0.891161 0.386547 0.350896
Si Si8 0.966546 0.620899 0.069972
O O1 0.795477 0.702378 0.517767
O O2 0.627112 0.577438 0.469809
O O3 0.907508 0.721442 0.440298
O O4 0.574707 0.787066 0.456552
O O5 0.893826 0.792776 0.257157
O O6 0.838613 0.903958 0.326047
O O7 0.964949 0.707709 0.334522
O O8 0.194763 0.823772 0.298202
O O9 0.220412 0.129683 0.182557
O O10 0.318733 0.148117 0.102784
O O11 0.252553 0.342504 0.074528
O O12 0.544410 0.787312 0.311624
O O13 0.937420 0.382140 0.116004
O O14 0.000000 0.500000 0.180770
O O15 0.000000 0.500000 0.350763
O O16 0.000000 0.500000 0.051666
#
# Coordination Sequence:
#
# PCOD9330974 Si02
#       8
#     8   8   8   8   8   2   8   8
#     4  11  26  42  67 102 135 183 239 281 354 423
#     4  10  21  39  64  91 131 168 218 279 332 406
#     4  11  23  44  67  98 138 179 225 289 350 413
#     4  10  21  38  64  91 130 167 222 274 333 410
#     4  11  22  40  65  94 129 175 218 280 346 405
#     4  12  24  46  66 104 138 184 244 288 344 432
#     4  10  23  41  64  95 134 172 222 280 343 416
#     4  11  23  44  70  98 138 177 236 295 347 419
#
# _framework density 21.189596000000002
#
# number of rings (size 3 to 8) (size 9 to 14) (size 15 to 20)
#    0.828    0.552    4.138    0.828    1.931    4.966 
#    0.000    4.828    0.000    0.000    0.000    0.000 
#    0.000    0.000    0.000    0.000    0.000    0.000 
#
# Total GULP energy -161588.901825 kJ/mol
# GULP energy per Si atom -5572.031097 kJ/mol
# Density = 2.114137 g / cm^3
# Si number density = 21.189596 Si / 1000 Ang^3
#
#
#
# Elastic Constant Matrix: (Units=GPa)
#
#
# Indices 1 2 3 4 5 6 
#
# 1 108.2497 28.5604 8.8773 0.0000 0.0000 0.0000
# 2 28.5604 97.3832 13.7189 0.0000 0.0000 0.0000
# 3 8.8773 13.7189 99.8097 0.0000 0.0000 0.0000
# 4 0.0000 0.0000 0.0000 -22.4635 0.0000 0.0000
# 5 0.0000 0.0000 0.0000 0.0000 12.4877 0.0000
# 6 0.0000 0.0000 0.0000 0.0000 0.0000 36.0673
#
#
#
# Elastic Compliance Matrix: (Units=1/GPa)
#
#
# Indices 1 2 3 4 5 6 
#
# 1 0.010037 -0.002873 -0.000498 0.000000 0.000000 0.000000
# 2 -0.002873 0.011294 -0.001297 0.000000 0.000000 0.000000
# 3 -0.000498 -0.001297 0.010242 0.000000 0.000000 0.000000
# 4 0.000000 0.000000 0.000000 -0.044517 0.000000 0.000000
# 5 0.000000 0.000000 0.000000 0.000000 0.080079 0.000000
# 6 0.000000 0.000000 0.000000 0.000000 0.000000 0.027726
#
#
# Mechanical properties :
#
#
# Convention : Reuss Voigt Hill
#
# Bulk Modulus (GPa) = 44.97108 45.30621 45.13864
# Shear Modulus (GPa) = 44.79924 22.17069 33.48497
#
# Velocity S-wave (km/s) = 4.60304 3.23817 3.97955
# Velocity P-wave (km/s) = 7.03704 5.95052 6.51647
#
# Compressibility (1/GPa) = 0.02223651
#
# Stress axis : x y z
#
# Youngs Moduli (GPa) = 99.63286 88.54155 97.64112
#
# Poissons Ratio (x) = 0.25442 0.04860
# Poissons Ratio (y) = 0.28629 0.12662
# Poissons Ratio (z) = 0.04959 0.11482
#
# Static dielectric constant tensor:
#      x y z
#    x 1.848430 0.000000 0.000000 
#    y 0.000000 1.766310 0.000000 
#    z 0.000000 0.000000 1.754790 
# 
# From -- ./inp_files/29273.got.cif
#   From: 2010.05.17/outbox.cif.g08.bks.cpg/sg23_15_cif.got.tgz:29273.got - 2010.06.04 12:02:01.
