data_PCOD9330214
_publ_section_title
;
Structure prediction by ZEFSAII (Michael W. Deem and Ramdas Pophale) SiO2 
 PCOD9330214
Probable space group: I 2 2 2
;
_chemical_formula_sum "Si O2"
_cell_formula_units_Z 64
_cell_length_a 9.185133
_cell_length_b 22.254124
_cell_length_c 18.492113
_cell_angle_alpha 90.000000
_cell_angle_beta 90.000000
_cell_angle_gamma 90.000000
_cell_volume 3779.918983
_symmetry_space_group_name_H-M "I 2 2 2"
_symmetry_group_IT_number 23
_symmetry_cell_setting 'orthorhombic'
loop_
_space_group_symop_operation_xyz
x,y,z
-x,-y,z
x,-y,-z
-x,y,-z
1/2+x,1/2+y,1/2+z
1/2-x,1/2-y,1/2+z
1/2+x,1/2-y,1/2-z
1/2-x,1/2+y,1/2-z
loop_
_atom_site_type_symbol
_atom_site_label
_atom_site_fract_x
_atom_site_fract_y
_atom_site_fract_z
Si Si1 0.202959 0.634535 0.857916
Si Si2 0.821431 0.764730 0.917193
Si Si3 0.170949 0.690240 0.714500
Si Si4 0.319810 0.189516 0.219891
Si Si5 0.713202 0.364162 0.139646
Si Si6 0.461520 0.431490 0.084403
Si Si7 0.454172 0.065440 0.416822
Si Si8 0.168873 0.766573 0.913229
O O1 0.220709 0.639961 0.771834
O O2 0.295072 0.583938 0.898343
O O3 0.226757 0.699724 0.893605
O O4 0.037066 0.616974 0.873320
O O5 0.734216 0.810894 0.866130
O O6 0.757531 0.698247 0.899241
O O7 0.994291 0.766045 0.899395
O O8 0.806483 0.777158 0.002124
O O9 0.245097 0.750593 0.746661
O O10 0.995086 0.694324 0.716642
O O11 0.267293 0.139913 0.277721
O O12 0.250711 0.187517 0.140039
O O13 0.545159 0.380774 0.131318
O O14 0.787766 0.418896 0.096191
O O15 0.500000 0.500000 0.103897
O O16 0.500000 0.423073 0.000000
O O17 0.500000 0.070528 0.500000
O O18 0.500000 0.000000 0.390883
#
# Coordination Sequence:
#
# PCOD9330214 Si02
#       8
#     8   8   8   8   8   8   8   8
#     4  11  20  34  50  69  99 136 168 204 247 290
#     4  10  20  33  52  77 103 131 166 203 246 302
#     4  10  20  33  49  73  99 131 168 204 246 298
#     4  10  20  33  49  73  99 131 168 204 246 298
#     4  11  20  34  50  69  99 136 168 204 247 290
#     4  11  24  36  47  70 101 133 174 215 246 282
#     4  11  20  32  51  70  93 129 172 211 244 282
#     4  10  20  33  52  77 103 131 166 203 246 302
#
# _framework density 16.931581000000001
#
# number of rings (size 3 to 8) (size 9 to 14) (size 15 to 20)
#    0.000    1.500    2.500    5.250    8.750    2.500 
#    0.000    0.000    0.000    0.000    0.000    0.000 
#    0.000    6.000    0.000    0.000    0.000    0.000 
#
# Total GULP energy -178382.027800 kJ/mol
# GULP energy per Si atom -5574.438369 kJ/mol
# Density = 1.689304 g / cm^3
# Si number density = 16.931581 Si / 1000 Ang^3
#
#
#
# Elastic Constant Matrix: (Units=GPa)
#
#
# Indices 1 2 3 4 5 6 
#
# 1 68.5155 9.1403 37.0724 0.0000 0.0000 0.0000
# 2 9.1403 32.7677 26.2155 0.0000 0.0000 0.0000
# 3 37.0724 26.2155 111.6465 0.0000 0.0000 0.0000
# 4 0.0000 0.0000 0.0000 17.1274 0.0000 0.0000
# 5 0.0000 0.0000 0.0000 0.0000 32.2014 0.0000
# 6 0.0000 0.0000 0.0000 0.0000 0.0000 21.9482
#
#
#
# Elastic Compliance Matrix: (Units=1/GPa)
#
#
# Indices 1 2 3 4 5 6 
#
# 1 0.017794 -0.000291 -0.005840 0.000000 0.000000 0.000000
# 2 -0.000291 0.037582 -0.008728 0.000000 0.000000 0.000000
# 3 -0.005840 -0.008728 0.012945 0.000000 0.000000 0.000000
# 4 0.000000 0.000000 0.000000 0.058386 0.000000 0.000000
# 5 0.000000 0.000000 0.000000 0.000000 0.031055 0.000000
# 6 0.000000 0.000000 0.000000 0.000000 0.000000 0.045562
#
#
# Mechanical properties :
#
#
# Convention : Reuss Voigt Hill
#
# Bulk Modulus (GPa) = 25.90478 39.75402 32.82940
# Shear Modulus (GPa) = 20.33270 23.62219 21.97745
#
# Velocity S-wave (km/s) = 3.46912 3.73923 3.60671
# Velocity P-wave (km/s) = 5.60172 6.49405 6.06432
#
# Compressibility (1/GPa) = 0.03860291
#
# Stress axis : x y z
#
# Youngs Moduli (GPa) = 56.19846 26.60872 77.24727
#
# Poissons Ratio (x) = 0.00775 0.45114
# Poissons Ratio (y) = 0.01636 0.67420
# Poissons Ratio (z) = 0.32821 0.23224
#
# Static dielectric constant tensor:
#      x y z
#    x 1.574810 0.000000 0.000000 
#    y 0.000000 1.553440 0.000000 
#    z 0.000000 0.000000 1.612920 
# 
# From -- ./inp_files/11476.got.cif
#   From: 2010.05.17/outbox.cif.g08.bks.cpg/sg23_6_cif.got.tgz:11476.got - 2010.06.04 12:02:01.
