data_PCOD9330554
_publ_section_title
;
Structure prediction by ZEFSAII (Michael W. Deem and Ramdas Pophale) SiO2 
 PCOD9330554
Probable space group: I 2 2 2
;
_chemical_formula_sum "Si O2"
_cell_formula_units_Z 58
_cell_length_a 8.449075
_cell_length_b 19.358227
_cell_length_c 17.385256
_cell_angle_alpha 90.000000
_cell_angle_beta 90.000000
_cell_angle_gamma 90.000000
_cell_volume 2843.517030
_symmetry_space_group_name_H-M "I 2 2 2"
_symmetry_group_IT_number 23
_symmetry_cell_setting 'orthorhombic'
loop_
_space_group_symop_operation_xyz
x,y,z
-x,-y,z
x,-y,-z
-x,y,-z
1/2+x,1/2+y,1/2+z
1/2-x,1/2-y,1/2+z
1/2+x,1/2-y,1/2-z
1/2-x,1/2+y,1/2-z
loop_
_atom_site_type_symbol
_atom_site_label
_atom_site_fract_x
_atom_site_fract_y
_atom_site_fract_z
Si Si1 0.872793 0.197698 0.332891
Si Si2 0.039619 0.305246 0.232119
Si Si3 0.364023 0.399976 0.881757
Si Si4 0.500000 0.500000 0.000000
Si Si5 0.881783 0.285852 0.067275
Si Si6 0.358461 0.946455 0.755512
Si Si7 0.674748 0.963729 0.074499
Si Si8 0.675068 0.197357 0.969005
O O1 0.724782 0.181196 0.278533
O O2 0.807077 0.247493 0.400183
O O3 0.004530 0.242437 0.288654
O O4 0.963799 0.130431 0.361205
O O5 0.969608 0.284082 0.148861
O O6 0.947357 0.372315 0.263408
O O7 0.388709 0.455276 0.946676
O O8 0.261155 0.338204 0.917553
O O9 0.270600 0.433084 0.810238
O O10 0.804189 0.215787 0.033998
O O11 0.000000 0.310728 0.000000
O O12 0.277314 0.969174 0.835938
O O13 0.500000 0.000000 0.735266
O O14 0.677661 0.882108 0.056684
O O15 0.500000 0.000000 0.077031
O O16 0.754578 0.000000 0.000000
O O17 0.500000 0.210450 0.000000
#
# Coordination Sequence:
#
# PCOD9330554 Si02
#       8
#     8   8   8   2   8   8   8   8
#     4  12  24  42  68  98 133 174 217 284 335 399
#     4  11  24  41  67 100 135 170 222 273 338 403
#     4  11  26  43  66  94 137 172 232 271 340 401
#     4  12  28  44  66  96 126 184 228 276 324 416
#     4  11  23  40  64 100 131 171 218 278 338 400
#     4  10  23  42  66  99 136 176 223 272 334 409
#     4  10  20  38  63  97 126 172 223 265 317 404
#     4  12  21  38  68  96 132 171 217 276 333 392
#
# _framework density 20.397276000000002
#
# number of rings (size 3 to 8) (size 9 to 14) (size 15 to 20)
#    0.000    0.966    5.517    2.483    1.931    1.103 
#    0.000    0.000    0.000    0.414    0.000    0.000 
#    0.000    0.000    0.000    0.000    0.000    0.000 
#
# Total GULP energy -161897.627952 kJ/mol
# GULP energy per Si atom -5582.676826 kJ/mol
# Density = 2.035085 g / cm^3
# Si number density = 20.397276 Si / 1000 Ang^3
#
#
#
# Elastic Constant Matrix: (Units=GPa)
#
#
# Indices 1 2 3 4 5 6 
#
# 1 72.4692 24.1746 16.1248 0.0000 0.0000 0.0000
# 2 24.1746 81.7384 53.6027 0.0000 0.0000 0.0000
# 3 16.1248 53.6027 93.2460 0.0000 0.0000 0.0000
# 4 0.0000 0.0000 0.0000 25.2072 0.0000 0.0000
# 5 0.0000 0.0000 0.0000 0.0000 20.7073 0.0000
# 6 0.0000 0.0000 0.0000 0.0000 0.0000 -30.1658
#
#
#
# Elastic Compliance Matrix: (Units=1/GPa)
#
#
# Indices 1 2 3 4 5 6 
#
# 1 0.015310 -0.004481 -0.000072 0.000000 0.000000 0.000000
# 2 -0.004481 0.020948 -0.011267 0.000000 0.000000 0.000000
# 3 -0.000072 -0.011267 0.017214 0.000000 0.000000 0.000000
# 4 0.000000 0.000000 0.000000 0.039671 0.000000 0.000000
# 5 0.000000 0.000000 0.000000 0.000000 0.048292 0.000000
# 6 0.000000 0.000000 0.000000 0.000000 0.000000 -0.033150
#
#
# Mechanical properties :
#
#
# Convention : Reuss Voigt Hill
#
# Bulk Modulus (GPa) = 45.80428 48.36199 47.08314
# Shear Modulus (GPa) = 33.96692 13.38651 23.67671
#
# Velocity S-wave (km/s) = 4.08520 2.56459 3.41072
# Velocity P-wave (km/s) = 6.69004 5.70360 6.21641
#
# Compressibility (1/GPa) = 0.02183202
#
# Stress axis : x y z
#
# Youngs Moduli (GPa) = 65.31812 47.73650 58.09319
#
# Poissons Ratio (x) = 0.21391 0.00416
# Poissons Ratio (y) = 0.29269 0.65455
# Poissons Ratio (z) = 0.00467 0.53786
#
# Static dielectric constant tensor:
#      x y z
#    x 1.725780 0.000000 0.000000 
#    y 0.000000 1.753920 0.000000 
#    z 0.000000 0.000000 1.756880 
# 
# From -- ./inp_files/23905.got.cif
#   From: 2010.05.17/outbox.cif.g08.bks.cpg/sg23_12_cif.got.tgz:23905.got - 2010.06.04 12:02:01.
