data_PCOD9330569
_publ_section_title
;
Structure prediction by ZEFSAII (Michael W. Deem and Ramdas Pophale) SiO2 
 PCOD9330569
Probable space group: I 2 2 2
;
_chemical_formula_sum "Si O2"
_cell_formula_units_Z 64
_cell_length_a 11.658162
_cell_length_b 11.714587
_cell_length_c 23.067023
_cell_angle_alpha 90.000000
_cell_angle_beta 90.000000
_cell_angle_gamma 90.000000
_cell_volume 3150.276087
_symmetry_space_group_name_H-M "I 2 2 2"
_symmetry_group_IT_number 23
_symmetry_cell_setting 'orthorhombic'
loop_
_space_group_symop_operation_xyz
x,y,z
-x,-y,z
x,-y,-z
-x,y,-z
1/2+x,1/2+y,1/2+z
1/2-x,1/2-y,1/2+z
1/2+x,1/2-y,1/2-z
1/2-x,1/2+y,1/2-z
loop_
_atom_site_type_symbol
_atom_site_label
_atom_site_fract_x
_atom_site_fract_y
_atom_site_fract_z
Si Si1 0.890771 0.569460 0.288080
Si Si2 0.749242 0.390977 0.423302
Si Si3 0.748189 0.983417 0.304583
Si Si4 0.745725 0.846762 0.945635
Si Si5 0.992394 0.869825 0.891737
Si Si6 0.941542 0.310313 0.206237
Si Si7 0.888913 0.207383 0.640520
Si Si8 0.852513 0.777616 0.668931
O O1 0.782521 0.500982 0.263603
O O2 0.856881 0.678746 0.323717
O O3 0.000000 0.500000 0.314174
O O4 0.949384 0.622158 0.230382
O O5 0.780766 0.525724 0.419500
O O6 0.787940 0.352287 0.487041
O O7 0.613390 0.363955 0.424095
O O8 0.796336 0.322471 0.368542
O O9 0.641377 0.903261 0.323528
O O10 0.851822 0.902042 0.322786
O O11 0.777281 0.107528 0.329790
O O12 0.680353 0.739018 0.917415
O O13 0.882500 0.844449 0.932406
O O14 0.978445 0.786202 0.837754
O O15 0.000000 0.000000 0.869680
O O16 0.881122 0.258726 0.264398
O O17 0.025443 0.202515 0.637564
#
# Coordination Sequence:
#
# PCOD9330569 Si02
#       8
#     8   8   8   8   8   8   8   8
#     4   9  21  36  57  87 126 170 202 258 319 380
#     4  10  23  42  66  92 127 164 220 271 328 379
#     4  11  21  38  59  87 130 168 213 255 317 391
#     4  10  22  41  67  95 121 166 215 281 326 379
#     4  10  20  38  66  98 126 158 209 273 331 377
#     4  10  21  37  60  94 129 169 207 260 323 392
#     4  11  23  39  60  89 130 165 219 262 317 392
#     4  11  25  39  60  94 130 177 212 258 323 393
#
# _framework density 20.31568
#
# number of rings (size 3 to 8) (size 9 to 14) (size 15 to 20)
#    0.000    1.750    1.250    2.250    5.250    6.000 
#    0.000    1.875    0.000    1.500    0.000    0.000 
#    0.000    0.000    0.000    0.000    0.000    0.000 
#
# Total GULP energy -178361.882383 kJ/mol
# GULP energy per Si atom -5573.808824 kJ/mol
# Density = 2.026944 g / cm^3
# Si number density = 20.315680 Si / 1000 Ang^3
#
#
#
# Elastic Constant Matrix: (Units=GPa)
#
#
# Indices 1 2 3 4 5 6 
#
# 1 56.3987 18.8954 8.2628 0.0000 0.0000 0.0000
# 2 18.8954 89.5069 46.9088 0.0000 0.0000 0.0000
# 3 8.2628 46.9088 56.7424 0.0000 0.0000 0.0000
# 4 0.0000 0.0000 0.0000 21.9014 0.0000 0.0000
# 5 0.0000 0.0000 0.0000 0.0000 16.0252 0.0000
# 6 0.0000 0.0000 0.0000 0.0000 0.0000 36.2956
#
#
#
# Elastic Compliance Matrix: (Units=1/GPa)
#
#
# Indices 1 2 3 4 5 6 
#
# 1 0.019111 -0.004545 0.000975 0.000000 0.000000 0.000000
# 2 -0.004545 0.020794 -0.016529 0.000000 0.000000 0.000000
# 3 0.000975 -0.016529 0.031146 0.000000 0.000000 0.000000
# 4 0.000000 0.000000 0.000000 0.045659 0.000000 0.000000
# 5 0.000000 0.000000 0.000000 0.000000 0.062402 0.000000
# 6 0.000000 0.000000 0.000000 0.000000 0.000000 0.027552
#
#
# Mechanical properties :
#
#
# Convention : Reuss Voigt Hill
#
# Bulk Modulus (GPa) = 32.41242 38.97579 35.69410
# Shear Modulus (GPa) = 19.44421 23.41650 21.43036
#
# Velocity S-wave (km/s) = 3.09707 3.39873 3.25140
# Velocity P-wave (km/s) = 5.36452 5.88460 5.63057
#
# Compressibility (1/GPa) = 0.03085237
#
# Stress axis : x y z
#
# Youngs Moduli (GPa) = 52.32614 48.09046 32.10711
#
# Poissons Ratio (x) = 0.21858 -0.03129
# Poissons Ratio (y) = 0.23783 0.53069
# Poissons Ratio (z) = -0.05099 0.79487
#
# Static dielectric constant tensor:
#      x y z
#    x 1.785880 0.000000 0.000000 
#    y 0.000000 1.749300 0.000000 
#    z 0.000000 0.000000 1.740310 
# 
# From -- ./inp_files/28421.got.cif
#   From: 2010.05.17/outbox.cif.g08.bks.cpg/sg23_15_cif.got.tgz:28421.got - 2010.06.04 12:02:01.
