data_PCOD9330183
_publ_section_title
;
Structure prediction by ZEFSAII (Michael W. Deem and Ramdas Pophale) SiO2 
 PCOD9330183
Probable space group: I 2 2 2
;
_chemical_formula_sum "Si O2"
_cell_formula_units_Z 58
_cell_length_a 25.139321
_cell_length_b 14.588766
_cell_length_c 8.298344
_cell_angle_alpha 90.000000
_cell_angle_beta 90.000000
_cell_angle_gamma 90.000000
_cell_volume 3043.431532
_symmetry_space_group_name_H-M "I 2 2 2"
_symmetry_group_IT_number 23
_symmetry_cell_setting 'orthorhombic'
loop_
_space_group_symop_operation_xyz
x,y,z
-x,-y,z
x,-y,-z
-x,y,-z
1/2+x,1/2+y,1/2+z
1/2-x,1/2-y,1/2+z
1/2+x,1/2-y,1/2-z
1/2-x,1/2+y,1/2-z
loop_
_atom_site_type_symbol
_atom_site_label
_atom_site_fract_x
_atom_site_fract_y
_atom_site_fract_z
Si Si1 0.051026 0.673656 0.090537
Si Si2 0.341203 0.641230 0.151701
Si Si3 0.205329 0.537643 0.681277
Si Si4 0.000000 0.500000 0.000000
Si Si5 0.370452 0.721488 0.809116
Si Si6 0.214145 0.347692 0.842502
Si Si7 0.829449 0.043273 0.176154
Si Si8 0.647566 0.191061 0.355410
O O1 0.078055 0.723366 0.243284
O O2 0.031980 0.569335 0.115387
O O3 0.096659 0.663148 0.956982
O O4 0.000000 0.719128 0.000000
O O5 0.277467 0.657890 0.160574
O O6 0.347064 0.534667 0.196628
O O7 0.362659 0.708491 0.288434
O O8 0.366497 0.676951 0.985697
O O9 0.199763 0.500000 0.500000
O O10 0.198135 0.452655 0.803977
O O11 0.267058 0.567138 0.702985
O O12 0.165269 0.619809 0.718350
O O13 0.318983 0.786720 0.783939
O O14 0.362759 0.634989 0.691610
O O15 0.195186 0.313724 0.016038
O O16 0.833065 0.000000 0.000000
#
# Coordination Sequence:
#
# PCOD9330183 Si02
#       8
#     8   8   8   2   8   8   8   8
#     4   9  22  40  64  82 105 144 193 247 295 362
#     4  11  21  34  52  87 125 155 192 242 283 339
#     4  10  20  31  49  83 123 156 192 239 283 341
#     4   8  20  44  68  82 110 136 204 242 308 356
#     4  11  21  35  59  84 114 156 201 241 293 345
#     4  10  20  31  52  78 120 164 196 229 282 352
#     4  10  20  35  54  82 124 163 195 228 279 346
#     4  11  21  34  55  80 112 155 198 231 287 355
#
# _framework density 19.057435000000002
#
# number of rings (size 3 to 8) (size 9 to 14) (size 15 to 20)
#    0.414    1.379    0.000    5.793    3.862    4.414 
#    0.000    0.690    0.000    4.552    0.000    3.862 
#    0.000    0.000    0.000    0.000    0.000    0.000 
#
# Total GULP energy -161722.182831 kJ/mol
# GULP energy per Si atom -5576.626994 kJ/mol
# Density = 1.901406 g / cm^3
# Si number density = 19.057435 Si / 1000 Ang^3
#
#
#
# Elastic Constant Matrix: (Units=GPa)
#
#
# Indices 1 2 3 4 5 6 
#
# 1 54.5660 32.2762 16.2732 0.0000 0.0000 0.0000
# 2 32.2762 74.2403 7.2187 0.0000 0.0000 0.0000
# 3 16.2732 7.2187 56.6149 0.0000 0.0000 0.0000
# 4 0.0000 0.0000 0.0000 28.4491 0.0000 0.0000
# 5 0.0000 0.0000 0.0000 0.0000 -16.3292 0.0000
# 6 0.0000 0.0000 0.0000 0.0000 0.0000 34.5308
#
#
#
# Elastic Compliance Matrix: (Units=1/GPa)
#
#
# Indices 1 2 3 4 5 6 
#
# 1 0.026704 -0.010999 -0.006273 0.000000 0.000000 0.000000
# 2 -0.010999 0.018170 0.000845 0.000000 0.000000 0.000000
# 3 -0.006273 0.000845 0.019359 0.000000 0.000000 0.000000
# 4 0.000000 0.000000 0.000000 0.035151 0.000000 0.000000
# 5 0.000000 0.000000 0.000000 0.000000 -0.061240 0.000000
# 6 0.000000 0.000000 0.000000 0.000000 0.000000 0.028960
#
#
# Mechanical properties :
#
#
# Convention : Reuss Voigt Hill
#
# Bulk Modulus (GPa) = 31.87098 32.99525 32.43312
# Shear Modulus (GPa) = 45.28329 17.97368 31.62849
#
# Velocity S-wave (km/s) = 4.87986 3.07438 4.07829
# Velocity P-wave (km/s) = 6.96496 5.47299 6.26356
#
# Compressibility (1/GPa) = 0.03137651
#
# Stress axis : x y z
#
# Youngs Moduli (GPa) = 37.44826 55.03680 51.65673
#
# Poissons Ratio (x) = 0.60538 0.32405
# Poissons Ratio (y) = 0.41191 -0.04365
# Poissons Ratio (z) = 0.23492 -0.04650
#
# Static dielectric constant tensor:
#      x y z
#    x 1.701130 0.000000 0.000000 
#    y 0.000000 1.712910 0.000000 
#    z 0.000000 0.000000 1.709590 
# 
# From -- ./inp_files/13108.got.cif
#   From: 2010.05.17/outbox.cif.g08.bks.cpg/sg23_7_cif.got.tgz:13108.got - 2010.06.04 12:02:01.
