data_PCOD9330010
_publ_section_title
;
Structure prediction by ZEFSAII (Michael W. Deem and Ramdas Pophale) SiO2 
 PCOD9330010
Probable space group: I 2 2 2
;
_chemical_formula_sum "Si O2"
_cell_formula_units_Z 58
_cell_length_a 11.743407
_cell_length_b 28.958409
_cell_length_c 8.696631
_cell_angle_alpha 90.000000
_cell_angle_beta 90.000000
_cell_angle_gamma 90.000000
_cell_volume 2957.466635
_symmetry_space_group_name_H-M "I 2 2 2"
_symmetry_group_IT_number 23
_symmetry_cell_setting 'orthorhombic'
loop_
_space_group_symop_operation_xyz
x,y,z
-x,-y,z
x,-y,-z
-x,y,-z
1/2+x,1/2+y,1/2+z
1/2-x,1/2-y,1/2+z
1/2+x,1/2-y,1/2-z
1/2-x,1/2+y,1/2-z
loop_
_atom_site_type_symbol
_atom_site_label
_atom_site_fract_x
_atom_site_fract_y
_atom_site_fract_z
Si Si1 0.368423 0.225090 0.457472
Si Si2 0.198926 0.446624 0.334908
Si Si3 0.222538 0.823222 0.002368
Si Si4 0.381426 0.589325 0.416495
Si Si5 0.165074 0.350229 0.197875
Si Si6 0.500000 0.000000 0.000000
Si Si7 0.558237 0.806989 0.147165
Si Si8 0.873319 0.015054 0.678460
O O1 0.500000 0.232752 0.500000
O O2 0.299296 0.269090 0.515036
O O3 0.327957 0.177445 0.537734
O O4 0.374977 0.221849 0.274311
O O5 0.277666 0.427828 0.474749
O O6 0.176175 0.405270 0.213337
O O7 0.274644 0.486602 0.260834
O O8 0.082555 0.467737 0.398851
O O9 0.129209 0.855311 0.923551
O O10 0.343448 0.837697 0.928385
O O11 0.238652 0.832130 0.183860
O O12 0.500000 0.576129 0.500000
O O13 0.367916 0.566904 0.247857
O O14 0.042127 0.334509 0.266816
O O15 0.500000 0.782238 0.000000
O O16 0.865291 0.000000 0.500000
O O17 0.000000 0.000000 0.727457
#
# Coordination Sequence:
#
# PCOD9330010 Si02
#       8
#     8   8   8   8   8   2   8   8
#     4  10  19  36  56  83 122 163 204 256 314 368
#     4  11  23  39  64  93 125 160 214 262 312 392
#     4  10  20  33  58  88 117 156 211 257 305 381
#     4  11  21  38  64  91 119 164 213 261 315 387
#     4   9  21  35  55  85 120 158 203 256 313 375
#     4  12  24  36  68  96 120 160 214 262 300 388
#     4   9  19  35  56  81 117 165 206 249 314 384
#     4  11  23  41  64  91 126 166 209 264 336 392
#
# _framework density 19.611381000000002
#
# number of rings (size 3 to 8) (size 9 to 14) (size 15 to 20)
#    0.000    1.793    2.759    1.241    4.828    1.103 
#    0.000    3.103    0.000    3.310    0.000    0.000 
#    0.000    0.000    0.000    0.000    0.000    0.000 
#
# Total GULP energy -161463.557768 kJ/mol
# GULP energy per Si atom -5567.708889 kJ/mol
# Density = 1.956674 g / cm^3
# Si number density = 19.611381 Si / 1000 Ang^3
#
#
#
# Elastic Constant Matrix: (Units=GPa)
#
#
# Indices 1 2 3 4 5 6 
#
# 1 80.4219 36.7747 28.6679 0.0004 -0.0002 -0.0001
# 2 36.7747 104.5329 43.8746 0.0001 0.0002 0.0000
# 3 28.6679 43.8746 99.2554 0.0022 0.0023 0.0000
# 4 0.0004 0.0001 0.0022 19.7309 -0.0004 -0.0001
# 5 -0.0002 0.0002 0.0023 -0.0004 26.2978 0.0001
# 6 -0.0001 0.0000 0.0000 -0.0001 0.0001 22.6175
#
#
#
# Elastic Compliance Matrix: (Units=1/GPa)
#
#
# Indices 1 2 3 4 5 6 
#
# 1 0.015310 -0.004334 -0.002506 0.000000 0.000000 0.000000
# 2 -0.004334 0.012973 -0.004483 0.000001 0.000000 0.000000
# 3 -0.002506 -0.004483 0.012780 -0.000001 -0.000001 0.000000
# 4 0.000000 0.000001 -0.000001 0.050682 0.000001 0.000000
# 5 0.000000 0.000000 -0.000001 0.000001 0.038026 0.000000
# 6 0.000000 0.000000 0.000000 0.000000 0.000000 0.044214
#
#
# Mechanical properties :
#
#
# Convention : Reuss Voigt Hill
#
# Bulk Modulus (GPa) = 54.29740 55.87165 55.08453
# Shear Modulus (GPa) = 24.65870 25.38877 25.02374
#
# Velocity S-wave (km/s) = 3.54978 3.60195 3.57596
# Velocity P-wave (km/s) = 6.67443 6.77126 6.72302
#
# Compressibility (1/GPa) = 0.01841709
#
# Stress axis : x y z
#
# Youngs Moduli (GPa) = 65.31846 77.08612 78.24557
#
# Poissons Ratio (x) = 0.33410 0.19609
# Poissons Ratio (y) = 0.28310 0.35074
# Poissons Ratio (z) = 0.16369 0.34554
#
# Static dielectric constant tensor:
#      x y z
#    x 1.693630 0.000000 0.000000 
#    y 0.000000 1.719860 0.000000 
#    z 0.000000 0.000000 1.789150 
# 
# From -- ./inp_files/8851.got.cif
#   From: 2010.05.17/outbox.cif.g08.bks.cpg/sg23_5_cif.got.tgz:8851.got - 2010.06.04 12:02:01.
