data_PCOD9330082
_publ_section_title
;
Structure prediction by ZEFSAII (Michael W. Deem and Ramdas Pophale) SiO2 
 PCOD9330082
Probable space group: I 2 2 2
;
_chemical_formula_sum "Si O2"
_cell_formula_units_Z 56
_cell_length_a 19.483978
_cell_length_b 14.292163
_cell_length_c 8.775866
_cell_angle_alpha 90.000000
_cell_angle_beta 90.000000
_cell_angle_gamma 90.000000
_cell_volume 2443.799516
_symmetry_space_group_name_H-M "I 2 2 2"
_symmetry_group_IT_number 23
_symmetry_cell_setting 'orthorhombic'
loop_
_space_group_symop_operation_xyz
x,y,z
-x,-y,z
x,-y,-z
-x,y,-z
1/2+x,1/2+y,1/2+z
1/2-x,1/2-y,1/2+z
1/2+x,1/2-y,1/2-z
1/2-x,1/2+y,1/2-z
loop_
_atom_site_type_symbol
_atom_site_label
_atom_site_fract_x
_atom_site_fract_y
_atom_site_fract_z
Si Si1 0.990990 0.729030 0.333599
Si Si2 0.371959 0.658676 0.280802
Si Si3 0.580187 0.523381 0.180379
Si Si4 0.828348 0.821819 0.570824
Si Si5 0.072997 0.452719 0.254846
Si Si6 0.865528 0.357398 0.282470
Si Si7 0.677710 0.162383 0.445112
O O1 0.949021 0.798948 0.229522
O O2 0.946405 0.634443 0.362492
O O3 0.000000 0.773700 0.500000
O O4 0.059817 0.690544 0.260944
O O5 0.378543 0.547106 0.291356
O O6 0.335286 0.729752 0.395210
O O7 0.343005 0.671042 0.109031
O O8 0.500000 0.500000 0.209115
O O9 0.614534 0.625969 0.175792
O O10 0.590096 0.500000 0.000000
O O11 0.828448 0.711294 0.602340
O O12 0.753980 0.863812 0.608426
O O13 0.118243 0.535964 0.322948
O O14 0.117915 0.402703 0.124725
O O15 0.000000 0.500000 0.206897
O O16 0.825804 0.351534 0.124604
#
# Coordination Sequence:
#
# PCOD9330082 Si02
#       7
#     8   8   8   8   8   8   8
#     4  10  19  37  63  92 120 150 204 258 309 362
#     4  10  21  38  60  87 119 156 201 256 305 364
#     4   9  19  35  62  90 114 148 207 261 303 353
#     4  11  22  39  61  88 119 162 209 254 306 373
#     4   9  22  38  60  90 122 157 203 250 310 371
#     4  11  22  37  62  84 120 161 200 251 304 363
#     4  11  24  39  57  88 126 163 203 247 317 380
#
# _framework density 22.915137000000001
#
# number of rings (size 3 to 8) (size 9 to 14) (size 15 to 20)
#    0.000    1.857    1.429    2.143    2.000   14.000 
#    0.000    0.714    0.000    4.286    0.000    0.000 
#    0.000    0.000    0.000    0.000    0.000    0.000 
#
# Total GULP energy -156186.580861 kJ/mol
# GULP energy per Si atom -5578.092174 kJ/mol
# Density = 2.286298 g / cm^3
# Si number density = 22.915137 Si / 1000 Ang^3
#
#
#
# Elastic Constant Matrix: (Units=GPa)
#
#
# Indices 1 2 3 4 5 6 
#
# 1 83.4116 9.2040 4.1523 0.0000 0.0000 0.0000
# 2 9.2040 121.2348 8.9897 0.0000 0.0000 0.0000
# 3 4.1523 8.9897 18.5224 0.0000 0.0000 0.0000
# 4 0.0000 0.0000 0.0000 22.3771 0.0000 0.0000
# 5 0.0000 0.0000 0.0000 0.0000 15.2676 0.0000
# 6 0.0000 0.0000 0.0000 0.0000 0.0000 19.1833
#
#
#
# Elastic Compliance Matrix: (Units=1/GPa)
#
#
# Indices 1 2 3 4 5 6 
#
# 1 0.012189 -0.000750 -0.002369 0.000000 0.000000 0.000000
# 2 -0.000750 0.008603 -0.004007 0.000000 0.000000 0.000000
# 3 -0.002369 -0.004007 0.056464 0.000000 0.000000 0.000000
# 4 0.000000 0.000000 0.000000 0.044688 0.000000 0.000000
# 5 0.000000 0.000000 0.000000 0.000000 0.065498 0.000000
# 6 0.000000 0.000000 0.000000 0.000000 0.000000 0.052129
#
#
# Mechanical properties :
#
#
# Convention : Reuss Voigt Hill
#
# Bulk Modulus (GPa) = 15.87170 29.76231 22.81700
# Shear Modulus (GPa) = 18.19342 24.75378 21.47360
#
# Velocity S-wave (km/s) = 2.82076 3.29026 3.06452
# Velocity P-wave (km/s) = 4.18931 5.23934 4.74347
#
# Compressibility (1/GPa) = 0.06300521
#
# Stress axis : x y z
#
# Youngs Moduli (GPa) = 82.03856 116.24517 17.71028
#
# Poissons Ratio (x) = 0.08716 0.04195
# Poissons Ratio (y) = 0.06151 0.07097
# Poissons Ratio (z) = 0.19433 0.46580
#
# Static dielectric constant tensor:
#      x y z
#    x 1.944240 0.000000 0.000000 
#    y 0.000000 1.906180 0.000000 
#    z 0.000000 0.000000 1.821850 
# 
# From -- ./inp_files/12072.got.cif
#   From: 2010.05.17/outbox.cif.g08.bks.cpg/sg23_7_cif.got.tgz:12072.got - 2010.06.04 12:02:01.
