data_PCOD9330406
_publ_section_title
;
Structure prediction by ZEFSAII (Michael W. Deem and Ramdas Pophale) SiO2 
 PCOD9330406
Probable space group: I 2 2 2
;
_chemical_formula_sum "Si O2"
_cell_formula_units_Z 48
_cell_length_a 11.875458
_cell_length_b 17.681979
_cell_length_c 12.348763
_cell_angle_alpha 90.000000
_cell_angle_beta 90.000000
_cell_angle_gamma 90.000000
_cell_volume 2593.013000
_symmetry_space_group_name_H-M "I 2 2 2"
_symmetry_group_IT_number 23
_symmetry_cell_setting 'orthorhombic'
loop_
_space_group_symop_operation_xyz
x,y,z
-x,-y,z
x,-y,-z
-x,y,-z
1/2+x,1/2+y,1/2+z
1/2-x,1/2-y,1/2+z
1/2+x,1/2-y,1/2-z
1/2-x,1/2+y,1/2-z
loop_
_atom_site_type_symbol
_atom_site_label
_atom_site_fract_x
_atom_site_fract_y
_atom_site_fract_z
Si Si1 0.130095 0.471628 0.117968
Si Si2 0.166253 0.133121 0.902921
Si Si3 0.043398 0.586373 0.383788
Si Si4 0.273100 0.530331 0.319763
Si Si5 0.371443 0.174610 0.745263
Si Si6 0.915296 0.836467 0.148928
O O1 0.207413 0.505920 0.211934
O O2 0.142121 0.382301 0.142687
O O3 0.000000 0.500000 0.129174
O O4 0.165900 0.500000 0.000000
O O5 0.274080 0.165168 0.836913
O O6 0.050050 0.159697 0.848554
O O7 0.183676 0.042680 0.885397
O O8 0.137358 0.156076 0.027086
O O9 0.176424 0.576740 0.383269
O O10 0.000000 0.500000 0.367918
O O11 0.000000 0.611379 0.500000
O O12 0.986794 0.642156 0.298247
O O13 0.371312 0.588024 0.293740
O O14 0.376811 0.259575 0.704597
#
# Coordination Sequence:
#
# PCOD9330406 Si02
#       6
#     8   8   8   8   8   8
#     4  10  20  36  60  86 118 159 206 254 303 371
#     4  10  23  43  57  90 122 162 211 246 307 387
#     4  11  20  35  62  93 118 158 206 270 310 356
#     4  11  20  39  63  86 119 162 212 246 310 369
#     4  11  22  40  59  92 127 155 212 265 312 371
#     4  11  25  37  64  87 125 164 195 262 317 372
#
# _framework density 18.511284
#
# number of rings (size 3 to 8) (size 9 to 14) (size 15 to 20)
#    0.000    1.333    5.000    2.000    4.667    5.333 
#    0.000    0.000    0.000    4.000    0.000    0.000 
#    0.000    0.000    0.000    0.000    0.000    0.000 
#
# Total GULP energy -133775.993806 kJ/mol
# GULP energy per Si atom -5573.999742 kJ/mol
# Density = 1.846915 g / cm^3
# Si number density = 18.511284 Si / 1000 Ang^3
#
#
#
# Elastic Constant Matrix: (Units=GPa)
#
#
# Indices 1 2 3 4 5 6 
#
# 1 66.1370 31.3810 -0.5769 0.0000 0.0000 0.0000
# 2 31.3810 122.6055 37.9032 -0.0001 0.0000 0.0000
# 3 -0.5769 37.9032 76.5430 -0.0001 0.0000 0.0000
# 4 0.0000 -0.0001 -0.0001 27.5600 0.0000 0.0000
# 5 0.0000 0.0000 0.0000 0.0000 22.7188 0.0000
# 6 0.0000 0.0000 0.0000 0.0000 0.0000 23.2392
#
#
#
# Elastic Compliance Matrix: (Units=1/GPa)
#
#
# Indices 1 2 3 4 5 6 
#
# 1 0.017707 -0.005400 0.002807 0.000000 0.000000 0.000000
# 2 -0.005400 0.011277 -0.005625 0.000000 0.000000 0.000000
# 3 0.002807 -0.005625 0.015871 0.000000 0.000000 0.000000
# 4 0.000000 0.000000 0.000000 0.036285 0.000000 0.000000
# 5 0.000000 0.000000 0.000000 0.000000 0.044016 0.000000
# 6 0.000000 0.000000 0.000000 0.000000 0.000000 0.043031
#
#
# Mechanical properties :
#
#
# Convention : Reuss Voigt Hill
#
# Bulk Modulus (GPa) = 35.18632 44.74443 39.96538
# Shear Modulus (GPa) = 25.76047 27.80881 26.78464
#
# Velocity S-wave (km/s) = 3.73448 3.88011 3.80799
# Velocity P-wave (km/s) = 6.13550 6.65564 6.40086
#
# Compressibility (1/GPa) = 0.02842013
#
# Stress axis : x y z
#
# Youngs Moduli (GPa) = 56.47535 88.67319 63.00716
#
# Poissons Ratio (x) = 0.47884 -0.17689
# Poissons Ratio (y) = 0.30497 0.35442
# Poissons Ratio (z) = -0.15855 0.49880
#
# Static dielectric constant tensor:
#      x y z
#    x 1.776180 0.000000 0.000000 
#    y 0.000000 1.637830 0.000000 
#    z 0.000000 0.000000 1.676750 
# 
# From -- ./inp_files/15769.got.cif
#   From: 2010.05.17/outbox.cif.g08.bks.cpg/sg23_8_cif.got.tgz:15769.got - 2010.06.04 12:02:01.
