data_PCOD9330831
_publ_section_title
;
Structure prediction by ZEFSAII (Michael W. Deem and Ramdas Pophale) SiO2 
 PCOD9330831
Probable space group: I 2 2 2
;
_chemical_formula_sum "Si O2"
_cell_formula_units_Z 64
_cell_length_a 13.086668
_cell_length_b 9.534413
_cell_length_c 26.466394
_cell_angle_alpha 90.000000
_cell_angle_beta 90.000000
_cell_angle_gamma 90.000000
_cell_volume 3302.309839
_symmetry_space_group_name_H-M "I 2 2 2"
_symmetry_group_IT_number 23
_symmetry_cell_setting 'orthorhombic'
loop_
_space_group_symop_operation_xyz
x,y,z
-x,-y,z
x,-y,-z
-x,y,-z
1/2+x,1/2+y,1/2+z
1/2-x,1/2-y,1/2+z
1/2+x,1/2-y,1/2-z
1/2-x,1/2+y,1/2-z
loop_
_atom_site_type_symbol
_atom_site_label
_atom_site_fract_x
_atom_site_fract_y
_atom_site_fract_z
Si Si1 0.442339 0.140988 0.140243
Si Si2 0.238504 0.280388 0.144685
Si Si3 0.572866 0.124140 0.739724
Si Si4 0.556453 0.627989 0.700576
Si Si5 0.199934 0.952829 0.706041
Si Si6 0.122079 0.657602 0.510348
Si Si7 0.713030 0.418909 0.952047
Si Si8 0.887529 0.833272 0.395551
O O1 0.323142 0.164012 0.130003
O O2 0.447680 0.134315 0.200649
O O3 0.501003 0.278704 0.120432
O O4 0.500000 0.000000 0.120842
O O5 0.140670 0.207564 0.167934
O O6 0.288557 0.387554 0.185789
O O7 0.217797 0.375062 0.095333
O O8 0.532068 0.265333 0.715763
O O9 0.690292 0.091302 0.728189
O O10 0.500000 0.000000 0.719874
O O11 0.500000 0.500000 0.673923
O O12 0.615068 0.571460 0.750942
O O13 0.171380 0.859938 0.656859
O O14 0.157531 0.500000 0.500000
O O15 0.166688 0.776880 0.474196
O O16 0.148589 0.710244 0.566780
O O17 0.000000 0.660277 0.500000
O O18 0.628354 0.525831 0.928546
O O19 0.760333 0.500000 0.000000
#
# Coordination Sequence:
#
# PCOD9330831 Si02
#       8
#     8   8   8   8   8   8   8   8
#     4  11  23  34  56  90 129 172 219 255 314 380
#     4  11  23  40  62  89 129 175 213 266 323 381
#     4  11  22  41  60  84 130 175 217 265 308 367
#     4  12  25  39  61  94 130 172 212 268 315 378
#     4  11  23  40  63  89 125 174 226 253 310 379
#     4  10  21  36  56  86 128 160 202 263 330 385
#     4   9  21  40  61  88 124 167 217 268 319 389
#     4  10  22  37  61  90 122 172 213 257 313 394
#
# _framework density 19.380375000000001
#
# number of rings (size 3 to 8) (size 9 to 14) (size 15 to 20)
#    0.000    1.375    3.750    1.500    3.500    7.750 
#    0.000    0.000    0.000    0.000    0.000   14.875 
#    0.000    0.000    0.000    0.000    0.000    0.000 
#
# Total GULP energy -178621.057931 kJ/mol
# GULP energy per Si atom -5581.908060 kJ/mol
# Density = 1.933626 g / cm^3
# Si number density = 19.380375 Si / 1000 Ang^3
#
#
#
# Elastic Constant Matrix: (Units=GPa)
#
#
# Indices 1 2 3 4 5 6 
#
# 1 48.0177 27.7730 7.8305 0.0000 0.0000 0.0000
# 2 27.7730 124.7903 39.8665 0.0000 0.0000 0.0000
# 3 7.8305 39.8665 84.5559 0.0000 0.0000 0.0000
# 4 0.0000 0.0000 0.0000 21.6316 0.0000 0.0000
# 5 0.0000 0.0000 0.0000 0.0000 14.2482 0.0000
# 6 0.0000 0.0000 0.0000 0.0000 0.0000 27.4478
#
#
#
# Elastic Compliance Matrix: (Units=1/GPa)
#
#
# Indices 1 2 3 4 5 6 
#
# 1 0.023911 -0.005432 0.000347 0.000000 0.000000 0.000000
# 2 -0.005432 0.010669 -0.004527 0.000000 0.000000 0.000000
# 3 0.000347 -0.004527 0.013929 0.000000 0.000000 0.000000
# 4 0.000000 0.000000 0.000000 0.046229 0.000000 0.000000
# 5 0.000000 0.000000 0.000000 0.000000 0.070185 0.000000
# 6 0.000000 0.000000 0.000000 0.000000 0.000000 0.036433
#
#
# Mechanical properties :
#
#
# Convention : Reuss Voigt Hill
#
# Bulk Modulus (GPa) = 34.14877 45.36710 39.75793
# Shear Modulus (GPa) = 21.70695 24.79175 23.24935
#
# Velocity S-wave (km/s) = 3.35034 3.58050 3.46733
# Velocity P-wave (km/s) = 5.71182 6.36811 6.04888
#
# Compressibility (1/GPa) = 0.02928363
#
# Stress axis : x y z
#
# Youngs Moduli (GPa) = 41.82143 93.73197 71.79388
#
# Poissons Ratio (x) = 0.50920 -0.02491
# Poissons Ratio (y) = 0.22719 0.32501
# Poissons Ratio (z) = -0.01451 0.42433
#
# Static dielectric constant tensor:
#      x y z
#    x 1.640170 0.000000 0.000000 
#    y 0.000000 1.723670 0.000000 
#    z 0.000000 0.000000 1.720230 
# 
# From -- ./inp_files/30492.got.cif
#   From: 2010.05.17/outbox.cif.g08.bks.cpg/sg23_16_cif.got.tgz:30492.got - 2010.06.04 12:02:01.
