data_PCOD9330976
_publ_section_title
;
Structure prediction by ZEFSAII (Michael W. Deem and Ramdas Pophale) SiO2 
 PCOD9330976
Probable space group: I 2 2 2
;
_chemical_formula_sum "Si O2"
_cell_formula_units_Z 46
_cell_length_a 9.453997
_cell_length_b 25.152952
_cell_length_c 9.639875
_cell_angle_alpha 90.000000
_cell_angle_beta 90.000000
_cell_angle_gamma 90.000000
_cell_volume 2292.323067
_symmetry_space_group_name_H-M "I 2 2 2"
_symmetry_group_IT_number 23
_symmetry_cell_setting 'orthorhombic'
loop_
_space_group_symop_operation_xyz
x,y,z
-x,-y,z
x,-y,-z
-x,y,-z
1/2+x,1/2+y,1/2+z
1/2-x,1/2-y,1/2+z
1/2+x,1/2-y,1/2-z
1/2-x,1/2+y,1/2-z
loop_
_atom_site_type_symbol
_atom_site_label
_atom_site_fract_x
_atom_site_fract_y
_atom_site_fract_z
Si Si1 0.273458 0.790510 0.184252
Si Si2 0.872445 0.626599 0.086917
Si Si3 0.524653 0.306168 0.170560
Si Si4 0.040733 0.558862 0.284018
Si Si5 0.000000 0.000000 0.500000
Si Si6 0.500000 0.846797 0.000000
Si Si7 0.828173 0.912619 0.348977
O O1 0.324791 0.831994 0.299747
O O2 0.343969 0.732952 0.200032
O O3 0.106408 0.789002 0.227841
O O4 0.358995 0.813001 0.045295
O O5 0.937023 0.573191 0.155501
O O6 0.748036 0.613245 0.982607
O O7 0.000000 0.651445 0.000000
O O8 0.571702 0.366133 0.208104
O O9 0.500000 0.303865 0.000000
O O10 0.203524 0.563517 0.243078
O O11 0.000000 0.500000 0.335581
O O12 0.025048 0.611065 0.378056
O O13 0.086396 0.961980 0.598166
#
# Coordination Sequence:
#
# PCOD9330976 Si02
#       7
#     8   8   8   8   2   4   8
#     4  11  24  41  66  95 135 180 224 279 350 414
#     4   9  19  36  61  91 127 163 217 274 333 399
#     4  12  25  42  66  97 140 177 228 285 351 417
#     4  10  21  38  64  93 127 173 226 276 333 400
#     4  12  20  34  62  88 128 164 204 282 336 392
#     4  10  23  43  64  90 131 177 226 272 328 420
#     4  11  22  39  63  97 130 168 221 280 347 404
#
# _framework density 20.066980000000001
#
# number of rings (size 3 to 8) (size 9 to 14) (size 15 to 20)
#    0.000    1.391    3.478    1.304    7.304    3.826 
#    0.000    2.609    0.000    0.000    0.000    0.000 
#    0.000    0.000    0.000    0.000    0.000    0.000 
#
# Total GULP energy -128039.780565 kJ/mol
# GULP energy per Si atom -5566.946981 kJ/mol
# Density = 2.002131 g / cm^3
# Si number density = 20.066980 Si / 1000 Ang^3
#
#
#
# Elastic Constant Matrix: (Units=GPa)
#
#
# Indices 1 2 3 4 5 6 
#
# 1 124.2783 59.7586 26.8137 0.0072 0.0008 0.0068
# 2 59.7586 115.7421 1.5002 0.0012 0.0002 -0.0071
# 3 26.8137 1.5002 32.4833 0.0089 0.0020 -0.0937
# 4 0.0072 0.0012 0.0089 -34.3583 -0.0027 -0.0597
# 5 0.0008 0.0002 0.0020 -0.0027 29.8924 -0.0373
# 6 0.0068 -0.0071 -0.0937 -0.0597 -0.0373 -666.5140
#
#
#
# Elastic Compliance Matrix: (Units=1/GPa)
#
#
# Indices 1 2 3 4 5 6 
#
# 1 0.013786 -0.006974 -0.011058 0.000000 0.000000 0.000002
# 2 -0.006974 0.012174 0.005195 0.000000 0.000000 -0.000001
# 3 -0.011058 0.005195 0.039673 0.000008 -0.000002 -0.000006
# 4 0.000000 0.000000 0.000008 -0.029105 -0.000003 0.000003
# 5 0.000000 0.000000 -0.000002 -0.000003 0.033453 -0.000002
# 6 0.000002 -0.000001 -0.000006 0.000003 -0.000002 -0.001500
#
#
# Mechanical properties :
#
#
# Convention : Reuss Voigt Hill
#
# Bulk Modulus (GPa) = 25.02636 49.84986 37.43811
# Shear Modulus (GPa) = 46.52323 -121.90055 -37.68866
#
# Velocity S-wave (km/s) = 4.82020 -7.80248 -4.33846
# Velocity P-wave (km/s) = 6.59375 7.50173 2.52966
#
# Compressibility (1/GPa) = 0.03995787
#
# Stress axis : x y z
#
# Youngs Moduli (GPa) = 72.53849 82.14562 25.20628
#
# Poissons Ratio (x) = 0.57292 0.27872
# Poissons Ratio (y) = 0.50591 -0.13094
# Poissons Ratio (z) = 0.80210 -0.42674
#
# Static dielectric constant tensor:
#      x y z
#    x 1.761030 0.000000 0.000060 
#    y 0.000000 1.490340 0.000000 
#    z 0.000060 0.000000 2.311380 
# 
# From -- ./inp_files/14788.got.cif
#   From: 2010.05.17/outbox.cif.g08.bks.cpg/sg23_8_cif.got.tgz:14788.got - 2010.06.04 12:02:01.
