data_PCOD9330698
_publ_section_title
;
Structure prediction by ZEFSAII (Michael W. Deem and Ramdas Pophale) SiO2 
 PCOD9330698
Probable space group: I 2 2 2
;
_chemical_formula_sum "Si O2"
_cell_formula_units_Z 52
_cell_length_a 18.058883
_cell_length_b 5.452615
_cell_length_c 23.427125
_cell_angle_alpha 90.000000
_cell_angle_beta 90.000000
_cell_angle_gamma 90.000000
_cell_volume 2306.825338
_symmetry_space_group_name_H-M "I 2 2 2"
_symmetry_group_IT_number 23
_symmetry_cell_setting 'orthorhombic'
loop_
_space_group_symop_operation_xyz
x,y,z
-x,-y,z
x,-y,-z
-x,y,-z
1/2+x,1/2+y,1/2+z
1/2-x,1/2-y,1/2+z
1/2+x,1/2-y,1/2-z
1/2-x,1/2+y,1/2-z
loop_
_atom_site_type_symbol
_atom_site_label
_atom_site_fract_x
_atom_site_fract_y
_atom_site_fract_z
Si Si1 0.793963 0.482065 0.819860
Si Si2 0.657397 0.513845 0.270601
Si Si3 0.915590 0.022595 0.662670
Si Si4 0.530912 0.255223 0.565643
Si Si5 0.677748 0.000000 0.000000
Si Si6 0.700928 0.162121 0.556067
Si Si7 0.589191 0.969768 0.107883
O O1 0.723923 0.490585 0.776891
O O2 0.829211 0.214489 0.812075
O O3 0.777614 0.520421 0.886469
O O4 0.841535 0.720689 0.800108
O O5 0.588457 0.451497 0.230481
O O6 0.884207 0.266218 0.632281
O O7 0.885483 0.751678 0.648533
O O8 0.000000 0.000000 0.642853
O O9 0.500000 0.500000 0.594142
O O10 0.500000 0.254413 0.500000
O O11 0.619409 0.272893 0.565604
O O12 0.500000 0.000000 0.590642
O O13 0.733254 0.160231 0.037860
O O14 0.622556 0.891311 0.047106
O O15 0.690408 0.000000 0.500000
O O16 0.500000 0.000000 0.104909
#
# Coordination Sequence:
#
# PCOD9330698 Si02
#       7
#     8   8   8   8   4   8   8
#     4  10  24  40  65  92 131 165 212 268 334 387
#     4  10  21  43  65  91 125 173 211 266 330 395
#     4  10  21  41  70  94 126 169 229 274 330 393
#     4  10  20  41  64  83 120 174 208 247 329 397
#     4  12  27  38  65  98 144 176 226 280 315 410
#     4  12  27  42  66 102 133 169 225 280 327 399
#     4  10  23  41  64  99 137 186 215 267 339 403
#
# _framework density 22.541803999999999
#
# number of rings (size 3 to 8) (size 9 to 14) (size 15 to 20)
#    0.000    1.538    1.538    3.000    6.462    1.231 
#    0.000    4.615    0.000    0.000    0.000    0.000 
#    0.000    0.000    0.000    0.000    0.000    0.000 
#
# Total GULP energy -145081.905046 kJ/mol
# GULP energy per Si atom -5580.073271 kJ/mol
# Density = 2.249050 g / cm^3
# Si number density = 22.541804 Si / 1000 Ang^3
#
#
#
# Elastic Constant Matrix: (Units=GPa)
#
#
# Indices 1 2 3 4 5 6 
#
# 1 63.6777 35.5737 7.5016 0.0000 0.0000 0.0000
# 2 35.5737 138.4696 19.0295 0.0000 0.0000 0.0000
# 3 7.5016 19.0295 86.7801 0.0000 0.0000 0.0000
# 4 0.0000 0.0000 0.0000 56.2657 0.0000 0.0000
# 5 0.0000 0.0000 0.0000 0.0000 31.6686 0.0000
# 6 0.0000 0.0000 0.0000 0.0000 0.0000 2.4223
#
#
#
# Elastic Compliance Matrix: (Units=1/GPa)
#
#
# Indices 1 2 3 4 5 6 
#
# 1 0.018363 -0.004639 -0.000570 0.000000 0.000000 0.000000
# 2 -0.004639 0.008618 -0.001489 0.000000 0.000000 0.000000
# 3 -0.000570 -0.001489 0.011899 0.000000 0.000000 0.000000
# 4 0.000000 0.000000 0.000000 0.017773 0.000000 0.000000
# 5 0.000000 0.000000 0.000000 0.000000 0.031577 0.000000
# 6 0.000000 0.000000 0.000000 0.000000 0.000000 0.412827
#
#
# Mechanical properties :
#
#
# Convention : Reuss Voigt Hill
#
# Bulk Modulus (GPa) = 39.24005 45.90410 42.57208
# Shear Modulus (GPa) = 9.56118 33.19284 21.37701
#
# Velocity S-wave (km/s) = 2.06173 3.84148 3.08283
# Velocity P-wave (km/s) = 4.80761 6.33121 5.62127
#
# Compressibility (1/GPa) = 0.02548417
#
# Stress axis : x y z
#
# Youngs Moduli (GPa) = 54.45751 116.03294 84.03974
#
# Poissons Ratio (x) = 0.53830 0.04791
# Poissons Ratio (y) = 0.25264 0.12512
# Poissons Ratio (z) = 0.03104 0.17275
#
# Static dielectric constant tensor:
#      x y z
#    x 1.777950 0.000000 0.000000 
#    y 0.000000 1.892440 0.000000 
#    z 0.000000 0.000000 1.826280 
# 
# From -- ./inp_files/29663.got.cif
#   From: 2010.05.17/outbox.cif.g08.bks.cpg/sg23_15_cif.got.tgz:29663.got - 2010.06.04 12:02:01.
