data_PCOD9330546
_publ_section_title
;
Structure prediction by ZEFSAII (Michael W. Deem and Ramdas Pophale) SiO2 
 PCOD9330546
Probable space group: I 2 2 2
;
_chemical_formula_sum "Si O2"
_cell_formula_units_Z 44
_cell_length_a 10.226981
_cell_length_b 18.681373
_cell_length_c 12.845042
_cell_angle_alpha 90.000000
_cell_angle_beta 90.000000
_cell_angle_gamma 90.000000
_cell_volume 2454.097254
_symmetry_space_group_name_H-M "I 2 2 2"
_symmetry_group_IT_number 23
_symmetry_cell_setting 'orthorhombic'
loop_
_space_group_symop_operation_xyz
x,y,z
-x,-y,z
x,-y,-z
-x,y,-z
1/2+x,1/2+y,1/2+z
1/2-x,1/2-y,1/2+z
1/2+x,1/2-y,1/2-z
1/2-x,1/2+y,1/2-z
loop_
_atom_site_type_symbol
_atom_site_label
_atom_site_fract_x
_atom_site_fract_y
_atom_site_fract_z
Si Si1 0.374762 0.304890 0.870496
Si Si2 0.848537 0.410496 0.195240
Si Si3 0.651610 0.357851 0.904731
Si Si4 0.656725 0.012288 0.115390
Si Si5 0.373031 0.847586 0.235539
Si Si6 0.735087 0.000000 0.500000
O O1 0.253026 0.346398 0.821111
O O2 0.508610 0.349392 0.855673
O O3 0.393636 0.226792 0.823271
O O4 0.348329 0.306123 0.994553
O O5 0.802577 0.457907 0.293567
O O6 0.844929 0.460554 0.092070
O O7 0.992263 0.379138 0.217242
O O8 0.766389 0.339084 0.825759
O O9 0.678711 0.437587 0.947615
O O10 0.678106 0.092344 0.155564
O O11 0.500000 0.000000 0.109266
O O12 0.711143 0.000000 0.000000
#
# Coordination Sequence:
#
# PCOD9330546 Si02
#       6
#     8   8   8   8   8   4
#     4  10  23  37  57  86 121 163 191 241 305 368
#     4  10  21  37  61  91 116 155 199 257 299 345
#     4  10  22  38  59  86 117 162 196 247 303 354
#     4   9  19  35  57  85 111 154 199 248 290 344
#     4  11  21  38  58  88 121 152 205 250 301 351
#     4  10  20  38  62  92 120 150 208 256 300 356
#
# _framework density 17.929200000000002
#
# number of rings (size 3 to 8) (size 9 to 14) (size 15 to 20)
#    0.000    2.000    1.818    1.091    0.000   16.727 
#    0.000    0.000    0.000    4.364    0.000    0.000 
#    0.000    0.000    0.000    0.000    0.000    0.000 
#
# Total GULP energy -122755.970950 kJ/mol
# GULP energy per Si atom -5579.816861 kJ/mol
# Density = 1.788839 g / cm^3
# Si number density = 17.929200 Si / 1000 Ang^3
#
#
#
# Elastic Constant Matrix: (Units=GPa)
#
#
# Indices 1 2 3 4 5 6 
#
# 1 90.0502 42.7897 53.9675 0.0000 0.0000 0.0000
# 2 42.7897 105.9431 63.7996 0.0000 0.0000 0.0000
# 3 53.9675 63.7996 115.1704 0.0000 0.0000 0.0000
# 4 0.0000 0.0000 0.0000 35.6887 0.0000 0.0000
# 5 0.0000 0.0000 0.0000 0.0000 -9.8349 0.0000
# 6 0.0000 0.0000 0.0000 0.0000 0.0000 17.1046
#
#
#
# Elastic Compliance Matrix: (Units=1/GPa)
#
#
# Indices 1 2 3 4 5 6 
#
# 1 0.016024 -0.002926 -0.005887 0.000000 0.000000 0.000000
# 2 -0.002926 0.014699 -0.006771 0.000000 0.000000 0.000000
# 3 -0.005887 -0.006771 0.015192 0.000000 0.000000 0.000000
# 4 0.000000 0.000000 0.000000 0.028020 0.000000 0.000000
# 5 0.000000 0.000000 0.000000 0.000000 -0.101679 0.000000
# 6 0.000000 0.000000 0.000000 0.000000 0.000000 0.058464
#
#
# Mechanical properties :
#
#
# Convention : Reuss Voigt Hill
#
# Bulk Modulus (GPa) = 67.82003 70.25305 69.03654
# Shear Modulus (GPa) = 74.84441 18.63214 46.73827
#
# Velocity S-wave (km/s) = 6.46800 3.22717 5.11125
# Velocity P-wave (km/s) = 9.67930 7.29074 8.56865
#
# Compressibility (1/GPa) = 0.01474491
#
# Stress axis : x y z
#
# Youngs Moduli (GPa) = 62.40676 68.03364 65.82201
#
# Poissons Ratio (x) = 0.19910 0.38752
# Poissons Ratio (y) = 0.18263 0.44569
# Poissons Ratio (z) = 0.36742 0.46066
#
# Static dielectric constant tensor:
#      x y z
#    x 1.600990 0.000000 0.000000 
#    y 0.000000 1.598950 0.000000 
#    z 0.000000 0.000000 1.633470 
# 
# From -- ./inp_files/19957.got.cif
#   From: 2010.05.17/outbox.cif.g08.bks.cpg/sg23_10_cif.got.tgz:19957.got - 2010.06.04 12:02:01.
