data_PCOD9330788
_publ_section_title
;
Structure prediction by ZEFSAII (Michael W. Deem and Ramdas Pophale) SiO2 
 PCOD9330788
Probable space group: I 2 2 2
;
_chemical_formula_sum "Si O2"
_cell_formula_units_Z 48
_cell_length_a 15.293448
_cell_length_b 24.149915
_cell_length_c 5.426316
_cell_angle_alpha 90.000000
_cell_angle_beta 90.000000
_cell_angle_gamma 90.000000
_cell_volume 2004.130966
_symmetry_space_group_name_H-M "I 2 2 2"
_symmetry_group_IT_number 23
_symmetry_cell_setting 'orthorhombic'
loop_
_space_group_symop_operation_xyz
x,y,z
-x,-y,z
x,-y,-z
-x,y,-z
1/2+x,1/2+y,1/2+z
1/2-x,1/2-y,1/2+z
1/2+x,1/2-y,1/2-z
1/2-x,1/2+y,1/2-z
loop_
_atom_site_type_symbol
_atom_site_label
_atom_site_fract_x
_atom_site_fract_y
_atom_site_fract_z
Si Si1 0.769792 0.678300 0.665162
Si Si2 0.906801 0.590302 0.090231
Si Si3 0.549883 0.241038 0.753214
Si Si4 0.726688 0.344050 0.837090
Si Si5 0.048932 0.124448 0.747015
Si Si6 0.340535 0.055798 0.089480
O O1 0.859282 0.708753 0.725205
O O2 0.733810 0.695743 0.398975
O O3 0.785740 0.612471 0.615808
O O4 0.705100 0.682547 0.896670
O O5 0.824085 0.631933 0.116224
O O6 0.908651 0.565466 0.364800
O O7 0.881508 0.551085 0.860132
O O8 0.000000 0.612805 0.000000
O O9 0.500000 0.228646 0.500000
O O10 0.553498 0.308106 0.757772
O O11 0.500000 0.222942 0.000000
O O12 0.651943 0.388931 0.777175
O O13 0.000000 0.105724 0.500000
O O14 0.000000 0.108357 0.000000
O O15 0.292805 0.000000 0.000000
#
# Coordination Sequence:
#
# PCOD9330788 Si02
#       6
#     8   8   8   8   8   8
#     4  10  21  34  53  77 109 145 185 229 273 326
#     4  10  21  35  51  76 112 148 183 226 272 326
#     4  10  21  36  53  77 110 148 189 233 280 328
#     4  10  21  36  55  80 109 143 187 229 277 335
#     4  10  21  38  59  81 108 142 185 237 289 338
#     4  10  21  35  51  74 107 149 191 225 263 320
#
# _framework density 23.950531999999999
#
# number of rings (size 3 to 8) (size 9 to 14) (size 15 to 20)
#    0.000    2.000    0.000    3.000    0.000   11.333 
#    0.000    0.000    0.000    0.000    0.000    0.000 
#    0.000  160.000    0.000    0.000    0.000    0.000 
#
# Total GULP energy -133916.624478 kJ/mol
# GULP energy per Si atom -5579.859353 kJ/mol
# Density = 2.389602 g / cm^3
# Si number density = 23.950532 Si / 1000 Ang^3
#
#
#
# Elastic Constant Matrix: (Units=GPa)
#
#
# Indices 1 2 3 4 5 6 
#
# 1 117.5891 -0.8605 51.7218 0.0003 0.0002 0.0001
# 2 -0.8605 71.9499 3.1272 -0.0002 0.0000 0.0000
# 3 51.7218 3.1272 251.4727 0.0025 0.0016 0.0004
# 4 0.0003 -0.0002 0.0025 21.3668 0.0012 0.0000
# 5 0.0002 0.0000 0.0016 0.0012 43.5733 0.0003
# 6 0.0001 0.0000 0.0004 0.0000 0.0003 -2.5746
#
#
#
# Elastic Compliance Matrix: (Units=1/GPa)
#
#
# Indices 1 2 3 4 5 6 
#
# 1 0.009353 0.000196 -0.001926 0.000000 0.000000 0.000000
# 2 0.000196 0.013910 -0.000213 0.000000 0.000000 0.000000
# 3 -0.001926 -0.000213 0.004375 0.000000 0.000000 0.000001
# 4 0.000000 0.000000 0.000000 0.046802 -0.000001 0.000000
# 5 0.000000 0.000000 0.000000 -0.000001 0.022950 0.000002
# 6 0.000000 0.000000 0.000001 0.000000 0.000002 -0.388403
#
#
# Mechanical properties :
#
#
# Convention : Reuss Voigt Hill
#
# Bulk Modulus (GPa) = 42.10361 60.99875 51.55118
# Shear Modulus (GPa) = -17.90776 38.27464 10.18344
#
# Velocity S-wave (km/s) = -2.73737 4.00192 2.06424
# Velocity P-wave (km/s) = 2.76163 6.84674 5.22037
#
# Compressibility (1/GPa) = 0.02375093
#
# Stress axis : x y z
#
# Youngs Moduli (GPa) = 106.91976 71.88985 228.55190
#
# Poissons Ratio (x) = -0.01406 0.44021
# Poissons Ratio (y) = -0.02091 0.04873
# Poissons Ratio (z) = 0.20594 0.01533
#
# Static dielectric constant tensor:
#      x y z
#    x 1.974410 0.000000 0.000000 
#    y 0.000000 1.976020 0.000000 
#    z 0.000000 0.000000 2.012100 
# 
# From -- ./inp_files/2559.got.cif
#   From: 2010.05.17/outbox.cif.g08.bks.cpg/sg23_2_cif.got.tgz:2559.got - 2010.06.04 12:02:01.
