data_PCOD9330971
_publ_section_title
;
Structure prediction by ZEFSAII (Michael W. Deem and Ramdas Pophale) SiO2 
 PCOD9330971
Probable space group: I 2 2 2
;
_chemical_formula_sum "Si O2"
_cell_formula_units_Z 46
_cell_length_a 8.490041
_cell_length_b 18.396539
_cell_length_c 12.805617
_cell_angle_alpha 90.000000
_cell_angle_beta 90.000000
_cell_angle_gamma 90.000000
_cell_volume 2000.075645
_symmetry_space_group_name_H-M "I 2 2 2"
_symmetry_group_IT_number 23
_symmetry_cell_setting 'orthorhombic'
loop_
_space_group_symop_operation_xyz
x,y,z
-x,-y,z
x,-y,-z
-x,y,-z
1/2+x,1/2+y,1/2+z
1/2-x,1/2-y,1/2+z
1/2+x,1/2-y,1/2-z
1/2-x,1/2+y,1/2-z
loop_
_atom_site_type_symbol
_atom_site_label
_atom_site_fract_x
_atom_site_fract_y
_atom_site_fract_z
Si Si1 0.630268 0.563687 0.702268
Si Si2 0.809149 0.748962 0.889122
Si Si3 0.000000 0.875073 0.000000
Si Si4 0.500000 0.878751 0.500000
Si Si5 0.500000 0.500000 0.000000
Si Si6 0.101538 0.173235 0.707122
Si Si7 0.500000 0.730219 0.000000
Si Si8 0.224359 0.543659 0.841111
O O1 0.500000 0.500000 0.712463
O O2 0.617341 0.582071 0.578711
O O3 0.564030 0.635276 0.761449
O O4 0.775198 0.527661 0.766290
O O5 0.850087 0.753902 0.767000
O O6 0.631008 0.763884 0.924526
O O7 0.879922 0.676304 0.940785
O O8 0.901840 0.819916 0.929202
O O9 0.415110 0.929713 0.415299
O O10 0.374394 0.534597 0.919519
O O11 0.233764 0.112970 0.730359
O O12 0.100979 0.187018 0.584503
#
# Coordination Sequence:
#
# PCOD9330971 Si02
#       8
#     8   8   4   4   2   8   4   8
#     4   9  18  35  65  96 124 172 225 276 333 409
#     4  10  24  39  65  95 133 178 223 278 347 414
#     4   9  19  40  63  97 134 166 228 286 330 407
#     4  11  24  41  59 101 139 167 224 298 342 405
#     4  12  22  42  64  86 124 178 230 264 346 408
#     4  10  21  38  63  96 127 172 231 267 336 413
#     4  12  23  40  69  98 133 188 217 284 352 420
#     4  11  22  38  65  94 129 174 222 283 340 411
#
# _framework density 22.999130000000001
#
# number of rings (size 3 to 8) (size 9 to 14) (size 15 to 20)
#    0.000    1.739    4.348    0.783    2.435    1.739 
#    0.000    0.000    3.826    0.000    0.000   10.957 
#    0.000    0.000    0.000    0.000    0.000    0.000 
#
# Total GULP energy -128091.756143 kJ/mol
# GULP energy per Si atom -5569.206789 kJ/mol
# Density = 2.294678 g / cm^3
# Si number density = 22.999130 Si / 1000 Ang^3
#
#
#
# Elastic Constant Matrix: (Units=GPa)
#
#
# Indices 1 2 3 4 5 6 
#
# 1 82.4152 40.1423 26.7950 0.0000 0.0000 0.0000
# 2 40.1423 80.9683 48.1975 0.0000 0.0000 0.0000
# 3 26.7950 48.1975 134.0459 0.0001 0.0000 0.0000
# 4 0.0000 0.0000 0.0001 53.1514 0.0000 0.0000
# 5 0.0000 0.0000 0.0000 0.0000 40.6739 0.0000
# 6 0.0000 0.0000 0.0000 0.0000 0.0000 21.8380
#
#
#
# Elastic Compliance Matrix: (Units=1/GPa)
#
#
# Indices 1 2 3 4 5 6 
#
# 1 0.016017 -0.007678 -0.000441 0.000000 0.000000 0.000000
# 2 -0.007678 0.019395 -0.005439 0.000000 0.000000 0.000000
# 3 -0.000441 -0.005439 0.009504 0.000000 0.000000 0.000000
# 4 0.000000 0.000000 0.000000 0.018814 0.000000 0.000000
# 5 0.000000 0.000000 0.000000 0.000000 0.024586 0.000000
# 6 0.000000 0.000000 0.000000 0.000000 0.000000 0.045792
#
#
# Mechanical properties :
#
#
# Convention : Reuss Voigt Hill
#
# Bulk Modulus (GPa) = 56.18116 58.63323 57.40720
# Shear Modulus (GPa) = 29.91211 35.28564 32.59888
#
# Velocity S-wave (km/s) = 3.61026 3.92116 3.76892
# Velocity P-wave (km/s) = 6.46987 6.78599 6.62981
#
# Compressibility (1/GPa) = 0.01779956
#
# Stress axis : x y z
#
# Youngs Moduli (GPa) = 62.43375 51.56024 105.22113
#
# Poissons Ratio (x) = 0.39590 0.04638
# Poissons Ratio (y) = 0.47939 0.57227
# Poissons Ratio (z) = 0.02752 0.28042
#
# Static dielectric constant tensor:
#      x y z
#    x 1.866260 0.000000 0.000000 
#    y 0.000000 1.911410 0.000000 
#    z 0.000000 0.000000 2.044570 
# 
# From -- ./inp_files/20134.got.cif
#   From: 2010.05.17/outbox.cif.g08.bks.cpg/sg23_11_cif.got.tgz:20134.got - 2010.06.04 12:02:01.
