data_PCOD9330740
_publ_section_title
;
Structure prediction by ZEFSAII (Michael W. Deem and Ramdas Pophale) SiO2 
 PCOD9330740
Probable space group: I 2 2 2
;
_chemical_formula_sum "Si O2"
_cell_formula_units_Z 28
_cell_length_a 8.563934
_cell_length_b 7.284109
_cell_length_c 22.042679
_cell_angle_alpha 90.000000
_cell_angle_beta 90.000000
_cell_angle_gamma 90.000000
_cell_volume 1375.036175
_symmetry_space_group_name_H-M "I 2 2 2"
_symmetry_group_IT_number 23
_symmetry_cell_setting 'orthorhombic'
loop_
_space_group_symop_operation_xyz
x,y,z
-x,-y,z
x,-y,-z
-x,y,-z
1/2+x,1/2+y,1/2+z
1/2-x,1/2-y,1/2+z
1/2+x,1/2-y,1/2-z
1/2-x,1/2+y,1/2-z
loop_
_atom_site_type_symbol
_atom_site_label
_atom_site_fract_x
_atom_site_fract_y
_atom_site_fract_z
Si Si1 0.249481 0.543907 0.908354
Si Si2 0.000000 0.500000 0.000000
Si Si3 0.234576 0.845810 0.819509
Si Si4 0.000000 0.000000 0.500000
Si Si5 0.867568 0.749361 0.811795
O O1 0.309529 0.723129 0.872786
O O2 0.373390 0.433951 0.949820
O O3 0.182793 0.408256 0.857889
O O4 0.113060 0.607879 0.954445
O O5 0.319726 0.804681 0.756312
O O6 0.053148 0.782435 0.814369
O O7 0.222192 0.063097 0.828945
#
# Coordination Sequence:
#
# PCOD9330740 Si02
#       5
#     8   2   8   2   8
#     4  11  22  46  62  94 126 167 212 258 312 370
#     4  10  20  42  70  74 124 180 204 240 314 366
#     4  11  23  38  64  97 127 161 205 261 320 373
#     4  10  28  42  70  86 128 180 208 260 298 382
#     4  11  23  38  64  97 127 161 205 261 320 373
#
# _framework density 20.363102000000001
#
# number of rings (size 3 to 8) (size 9 to 14) (size 15 to 20)
#    0.000    1.143    5.714    0.000    4.000    0.000 
#    0.000    8.571    0.000    0.000    0.000    0.000 
#    0.000    0.000    0.000    0.000    0.000    0.000 
#
# Total GULP energy -77980.011385 kJ/mol
# GULP energy per Si atom -5570.000813 kJ/mol
# Density = 2.031675 g / cm^3
# Si number density = 20.363102 Si / 1000 Ang^3
#
#
#
# Elastic Constant Matrix: (Units=GPa)
#
#
# Indices 1 2 3 4 5 6 
#
# 1 31.5725 -0.3286 21.1735 0.0000 0.0000 0.0000
# 2 -0.3286 103.3154 30.0565 0.0000 0.0000 0.0000
# 3 21.1735 30.0565 134.0056 0.0000 0.0000 0.0000
# 4 0.0000 0.0000 0.0000 3.6419 0.0000 0.0000
# 5 0.0000 0.0000 0.0000 0.0000 33.2709 0.0000
# 6 0.0000 0.0000 0.0000 0.0000 0.0000 11.7456
#
#
#
# Elastic Compliance Matrix: (Units=1/GPa)
#
#
# Indices 1 2 3 4 5 6 
#
# 1 0.035765 0.001880 -0.006073 0.000000 0.000000 0.000000
# 2 0.001880 0.010454 -0.002642 0.000000 0.000000 0.000000
# 3 -0.006073 -0.002642 0.009014 0.000000 0.000000 0.000000
# 4 0.000000 0.000000 0.000000 0.274586 0.000000 0.000000
# 5 0.000000 0.000000 0.000000 0.000000 0.030056 0.000000
# 6 0.000000 0.000000 0.000000 0.000000 0.000000 0.085138
#
#
# Mechanical properties :
#
#
# Convention : Reuss Voigt Hill
#
# Bulk Modulus (GPa) = 24.05866 41.18848 32.62357
# Shear Modulus (GPa) = 10.58118 24.26447 17.42282
#
# Velocity S-wave (km/s) = 2.28200 3.45569 2.92825
# Velocity P-wave (km/s) = 4.33403 6.01609 5.24295
#
# Compressibility (1/GPa) = 0.04156507
#
# Stress axis : x y z
#
# Youngs Moduli (GPa) = 27.95998 95.66058 110.93298
#
# Poissons Ratio (x) = -0.17989 0.67368
# Poissons Ratio (y) = -0.05258 0.29306
# Poissons Ratio (z) = 0.16980 0.25272
#
# Static dielectric constant tensor:
#      x y z
#    x 1.785190 0.000000 0.000000 
#    y 0.000000 1.714860 0.000000 
#    z 0.000000 0.000000 1.697450 
# 
# From -- ./inp_files/6464.got.cif
#   From: 2010.05.17/outbox.cif.g08.bks.cpg/sg23_4_cif.got.tgz:6464.got - 2010.06.04 12:02:01.
