data_PCOD9330926
_publ_section_title
;
Structure prediction by ZEFSAII (Michael W. Deem and Ramdas Pophale) SiO2 
 PCOD9330926
Probable space group: I 2 2 2
;
_chemical_formula_sum "Si O2"
_cell_formula_units_Z 54
_cell_length_a 14.315879
_cell_length_b 13.224880
_cell_length_c 14.192138
_cell_angle_alpha 90.000000
_cell_angle_beta 90.000000
_cell_angle_gamma 90.000000
_cell_volume 2686.937623
_symmetry_space_group_name_H-M "I 2 2 2"
_symmetry_group_IT_number 23
_symmetry_cell_setting 'orthorhombic'
loop_
_space_group_symop_operation_xyz
x,y,z
-x,-y,z
x,-y,-z
-x,y,-z
1/2+x,1/2+y,1/2+z
1/2-x,1/2-y,1/2+z
1/2+x,1/2-y,1/2-z
1/2-x,1/2+y,1/2-z
loop_
_atom_site_type_symbol
_atom_site_label
_atom_site_fract_x
_atom_site_fract_y
_atom_site_fract_z
Si Si1 0.215002 0.459819 0.753955
Si Si2 0.500000 0.000000 0.500000
Si Si3 0.000000 0.761739 0.500000
Si Si4 0.797838 0.245370 0.004230
Si Si5 0.071232 0.333152 0.864799
Si Si6 0.847550 0.597468 0.549289
Si Si7 0.360725 0.182886 0.700914
Si Si8 0.846822 0.842949 0.367087
O O1 0.147604 0.370217 0.791768
O O2 0.201666 0.442086 0.643698
O O3 0.175864 0.569416 0.782304
O O4 0.314944 0.438385 0.803552
O O5 0.560329 0.927424 0.435690
O O6 0.924954 0.686902 0.551564
O O7 0.943853 0.828680 0.423243
O O8 0.737013 0.144923 0.010468
O O9 0.817953 0.272420 0.895871
O O10 0.889903 0.244650 0.068742
O O11 0.731480 0.330086 0.051708
O O12 0.971990 0.317071 0.817009
O O13 0.890532 0.500000 0.500000
O O14 0.340445 0.250831 0.792080
#
# Coordination Sequence:
#
# PCOD9330926 Si02
#       8
#     8   2   4   8   8   8   8   8
#     4  11  21  35  60  96 125 162 210 266 321 387
#     4  12  16  32  48  92 116 142 192 252 308 356
#     4  10  21  40  60  91 134 172 216 271 319 384
#     4  10  21  38  57  91 128 166 197 262 324 383
#     4  11  20  32  58  92 125 152 204 261 320 366
#     4  11  22  39  63  94 129 170 215 260 325 386
#     4  12  20  37  61  91 124 160 210 262 322 380
#     4  10  23  37  59  92 127 171 207 261 330 378
#
# _framework density 20.097228999999999
#
# number of rings (size 3 to 8) (size 9 to 14) (size 15 to 20)
#    0.000    1.185    4.444    2.889    0.000    2.963 
#    0.000    0.000    0.000    8.889    0.000    0.000 
#    0.000    0.000    0.000    0.000    0.000    0.000 
#
# Total GULP energy -150526.532773 kJ/mol
# GULP energy per Si atom -5575.056769 kJ/mol
# Density = 2.005149 g / cm^3
# Si number density = 20.097229 Si / 1000 Ang^3
#
#
#
# Elastic Constant Matrix: (Units=GPa)
#
#
# Indices 1 2 3 4 5 6 
#
# 1 99.8632 47.6300 27.2044 0.0000 0.0000 0.0000
# 2 47.6300 38.7281 19.8148 0.0000 0.0000 0.0000
# 3 27.2044 19.8148 82.4646 0.0000 0.0000 0.0000
# 4 0.0000 0.0000 0.0000 -43.3125 0.0000 0.0000
# 5 0.0000 0.0000 0.0000 0.0000 -39.4023 0.0000
# 6 0.0000 0.0000 0.0000 0.0000 0.0000 -9.9545
#
#
#
# Elastic Compliance Matrix: (Units=1/GPa)
#
#
# Indices 1 2 3 4 5 6 
#
# 1 0.024287 -0.029383 -0.000952 0.000000 0.000000 0.000000
# 2 -0.029383 0.064987 -0.005922 0.000000 0.000000 0.000000
# 3 -0.000952 -0.005922 0.013863 0.000000 0.000000 0.000000
# 4 0.000000 0.000000 0.000000 -0.023088 0.000000 0.000000
# 5 0.000000 0.000000 0.000000 0.000000 -0.025379 0.000000
# 6 0.000000 0.000000 0.000000 0.000000 0.000000 -0.100457
#
#
# Mechanical properties :
#
#
# Convention : Reuss Voigt Hill
#
# Bulk Modulus (GPa) = 32.65376 45.59491 39.12434
# Shear Modulus (GPa) = 135.36952 -10.10675 62.63138
#
# Velocity S-wave (km/s) = 8.21605 -2.24496 5.58855
# Velocity P-wave (km/s) = 10.30960 4.00208 7.81999
#
# Compressibility (1/GPa) = 0.03062435
#
# Stress axis : x y z
#
# Youngs Moduli (GPa) = 41.17403 15.38758 72.13187
#
# Poissons Ratio (x) = 0.45213 0.06867
# Poissons Ratio (y) = 1.20980 0.42719
# Poissons Ratio (z) = 0.03920 0.09113
#
# Static dielectric constant tensor:
#      x y z
#    x 1.758400 0.000000 0.000000 
#    y 0.000000 1.750610 0.000000 
#    z 0.000000 0.000000 1.788470 
# 
# From -- ./inp_files/16812.got.cif
#   From: 2010.05.17/outbox.cif.g08.bks.cpg/sg23_9_cif.got.tgz:16812.got - 2010.06.04 12:02:01.
