data_PCOD9330939
_publ_section_title
;
Structure prediction by ZEFSAII (Michael W. Deem and Ramdas Pophale) SiO2 
 PCOD9330939
Probable space group: I 2 2 2
;
_chemical_formula_sum "Si O2"
_cell_formula_units_Z 52
_cell_length_a 8.936887
_cell_length_b 15.037616
_cell_length_c 14.904669
_cell_angle_alpha 90.000000
_cell_angle_beta 90.000000
_cell_angle_gamma 90.000000
_cell_volume 2003.030641
_symmetry_space_group_name_H-M "I 2 2 2"
_symmetry_group_IT_number 23
_symmetry_cell_setting 'orthorhombic'
loop_
_space_group_symop_operation_xyz
x,y,z
-x,-y,z
x,-y,-z
-x,y,-z
1/2+x,1/2+y,1/2+z
1/2-x,1/2-y,1/2+z
1/2+x,1/2-y,1/2-z
1/2-x,1/2+y,1/2-z
loop_
_atom_site_type_symbol
_atom_site_label
_atom_site_fract_x
_atom_site_fract_y
_atom_site_fract_z
Si Si1 0.861338 0.830525 0.063199
Si Si2 0.500000 0.500000 0.259917
Si Si3 0.710211 0.910906 0.826362
Si Si4 0.762823 0.736864 0.733817
Si Si5 0.805431 0.555799 0.813719
Si Si6 0.857675 0.818713 0.558486
Si Si7 0.722739 0.000000 0.500000
Si Si8 0.810623 0.500000 0.500000
O O1 0.866267 0.801227 0.166998
O O2 0.769696 0.747663 0.022740
O O3 0.773966 0.923498 0.056472
O O4 0.000000 0.841835 0.000000
O O5 0.387525 0.441003 0.322301
O O6 0.621907 0.449336 0.197454
O O7 0.705317 0.807385 0.805226
O O8 0.648196 0.970206 0.744553
O O9 0.628746 0.939327 0.918219
O O10 0.844513 0.651195 0.773356
O O11 0.864364 0.791844 0.662905
O O12 0.855171 0.546814 0.915820
O O13 0.814590 0.920755 0.546238
O O14 0.000000 0.799915 0.500000
#
# Coordination Sequence:
#
# PCOD9330939 Si02
#       8
#     8   4   8   8   8   8   4   4
#     4  10  23  41  69 106 145 192 247 298 364 438
#     4   8  20  38  60  96 132 186 228 306 352 410
#     4  10  21  38  59  98 140 178 235 300 363 422
#     4  10  22  42  60 104 154 180 234 304 380 418
#     4  10  21  38  59  98 140 178 235 300 363 422
#     4  10  23  41  69 106 145 192 247 298 364 438
#     4  12  23  38  71 104 137 188 253 306 351 426
#     4  12  23  38  71 104 137 188 253 306 351 426
#
# _framework density 25.960661999999999
#
# number of rings (size 3 to 8) (size 9 to 14) (size 15 to 20)
#    1.846    0.000    3.077    0.462   10.769    0.000 
#    0.000    0.769    0.000    0.000    0.000    0.000 
#    0.000    0.000    0.000    0.000    0.000    0.000 
#
# Total GULP energy -145224.768126 kJ/mol
# GULP energy per Si atom -5585.568005 kJ/mol
# Density = 2.590157 g / cm^3
# Si number density = 25.960662 Si / 1000 Ang^3
#
#
#
# Elastic Constant Matrix: (Units=GPa)
#
#
# Indices 1 2 3 4 5 6 
#
# 1 54.0899 2.3028 -7.2094 0.0000 0.0000 0.0000
# 2 2.3028 165.8963 61.7733 0.0000 0.0000 0.0000
# 3 -7.2094 61.7733 179.9551 0.0000 0.0000 0.0000
# 4 0.0000 0.0000 0.0000 72.5425 0.0000 0.0000
# 5 0.0000 0.0000 0.0000 0.0000 -0.4705 0.0000
# 6 0.0000 0.0000 0.0000 0.0000 0.0000 7.8788
#
#
#
# Elastic Compliance Matrix: (Units=1/GPa)
#
#
# Indices 1 2 3 4 5 6 
#
# 1 0.018642 -0.000616 0.000958 0.000000 0.000000 0.000000
# 2 -0.000616 0.006932 -0.002404 0.000000 0.000000 0.000000
# 3 0.000958 -0.002404 0.006421 0.000000 0.000000 0.000000
# 4 0.000000 0.000000 0.000000 0.013785 0.000000 0.000000
# 5 0.000000 0.000000 0.000000 0.000000 -2.125336 0.000000
# 6 0.000000 0.000000 0.000000 0.000000 0.000000 0.126922
#
#
# Mechanical properties :
#
#
# Convention : Reuss Voigt Hill
#
# Bulk Modulus (GPa) = 35.87977 57.07495 46.47736
# Shear Modulus (GPa) = -2.57835 38.86180 18.14172
#
# Velocity S-wave (km/s) = -0.99766 3.87324 2.64638
# Velocity P-wave (km/s) = 3.53889 6.48348 5.22299
#
# Compressibility (1/GPa) = 0.02787086
#
# Stress axis : x y z
#
# Youngs Moduli (GPa) = 53.64332 144.26710 155.74929
#
# Poissons Ratio (x) = 0.08880 -0.14923
# Poissons Ratio (y) = 0.03302 0.37443
# Poissons Ratio (z) = -0.05140 0.34683
#
# Static dielectric constant tensor:
#      x y z
#    x 2.031780 0.000000 0.000000 
#    y 0.000000 2.024740 0.000000 
#    z 0.000000 0.000000 2.020780 
# 
# From -- ./inp_files/24400.got.cif
#   From: 2010.05.17/outbox.cif.g08.bks.cpg/sg23_13_cif.got.tgz:24400.got - 2010.06.04 12:02:01.
