data_PCOD9330659
_publ_section_title
;
Structure prediction by ZEFSAII (Michael W. Deem and Ramdas Pophale) SiO2 
 PCOD9330659
Probable space group: I 2 2 2
;
_chemical_formula_sum "Si O2"
_cell_formula_units_Z 54
_cell_length_a 5.143053
_cell_length_b 21.360173
_cell_length_c 18.937127
_cell_angle_alpha 90.000000
_cell_angle_beta 90.000000
_cell_angle_gamma 90.000000
_cell_volume 2080.366527
_symmetry_space_group_name_H-M "I 2 2 2"
_symmetry_group_IT_number 23
_symmetry_cell_setting 'orthorhombic'
loop_
_space_group_symop_operation_xyz
x,y,z
-x,-y,z
x,-y,-z
-x,y,-z
1/2+x,1/2+y,1/2+z
1/2-x,1/2-y,1/2+z
1/2+x,1/2-y,1/2-z
1/2-x,1/2+y,1/2-z
loop_
_atom_site_type_symbol
_atom_site_label
_atom_site_fract_x
_atom_site_fract_y
_atom_site_fract_z
Si Si1 0.869180 0.440843 0.233153
Si Si2 0.717184 0.392940 0.089175
Si Si3 0.500000 0.000000 0.500000
Si Si4 0.233384 0.686225 0.895747
Si Si5 0.431921 0.196549 0.908541
Si Si6 0.217768 0.833070 0.232234
Si Si7 0.819589 0.092568 0.860985
Si Si8 0.000000 0.129837 0.000000
O O1 0.085297 0.390983 0.256138
O O2 0.000000 0.500000 0.198024
O O3 0.696689 0.412182 0.171715
O O4 0.748661 0.462351 0.307707
O O5 0.430691 0.366638 0.074848
O O6 0.820766 0.452555 0.045989
O O7 0.942157 0.338213 0.086608
O O8 0.358756 0.749850 0.924456
O O9 0.271487 0.693915 0.810867
O O10 0.307340 0.212218 0.831522
O O11 0.582619 0.132115 0.893036
O O12 0.215979 0.176747 0.965458
O O13 0.960199 0.861301 0.195830
O O14 0.972853 0.083967 0.932483
#
# Coordination Sequence:
#
# PCOD9330659 Si02
#       8
#     8   8   2   8   8   8   8   4
#     4  10  20  41  67  98 130 176 235 295 341 423
#     4  11  26  46  71 102 140 187 241 293 364 417
#     4  12  28  56  72 102 152 204 230 322 370 422
#     4  11  25  43  67 108 139 181 245 292 342 440
#     4  10  23  38  68  94 145 183 225 290 357 429
#     4   9  21  36  64  99 133 178 226 290 360 406
#     4  10  20  40  63  95 129 180 226 278 360 417
#     4  10  22  41  62  95 134 192 218 278 358 446
#
# _framework density 25.956962999999998
#
# number of rings (size 3 to 8) (size 9 to 14) (size 15 to 20)
#    0.000    1.778    2.222    0.444    6.222    2.963 
#    2.667    0.000    0.000   25.778    0.000    0.000 
#    0.000    0.000    0.000    0.000    0.000    0.000 
#
# Total GULP energy -150661.935078 kJ/mol
# GULP energy per Si atom -5580.071670 kJ/mol
# Density = 2.589788 g / cm^3
# Si number density = 25.956963 Si / 1000 Ang^3
#
#
#
# Elastic Constant Matrix: (Units=GPa)
#
#
# Indices 1 2 3 4 5 6 
#
# 1 76.1681 -0.9132 -2.0229 0.0000 0.0000 0.0000
# 2 -0.9132 36.2505 10.2165 0.0000 0.0000 0.0000
# 3 -2.0229 10.2165 146.4436 0.0000 0.0000 0.0000
# 4 0.0000 0.0000 0.0000 33.7605 0.0000 0.0000
# 5 0.0000 0.0000 0.0000 0.0000 41.5231 0.0000
# 6 0.0000 0.0000 0.0000 0.0000 0.0000 22.1145
#
#
#
# Elastic Compliance Matrix: (Units=1/GPa)
#
#
# Indices 1 2 3 4 5 6 
#
# 1 0.013137 0.000285 0.000162 0.000000 0.000000 0.000000
# 2 0.000285 0.028145 -0.001960 0.000000 0.000000 0.000000
# 3 0.000162 -0.001960 0.006968 0.000000 0.000000 0.000000
# 4 0.000000 0.000000 0.000000 0.029620 0.000000 0.000000
# 5 0.000000 0.000000 0.000000 0.000000 0.024083 0.000000
# 6 0.000000 0.000000 0.000000 0.000000 0.000000 0.045219
#
#
# Mechanical properties :
#
#
# Convention : Reuss Voigt Hill
#
# Bulk Modulus (GPa) = 22.11213 30.38033 26.24623
# Shear Modulus (GPa) = 30.25318 36.25173 33.25245
#
# Velocity S-wave (km/s) = 3.41766 3.74118 3.58307
# Velocity P-wave (km/s) = 4.91031 5.51284 5.22028
#
# Compressibility (1/GPa) = 0.04522405
#
# Stress axis : x y z
#
# Youngs Moduli (GPa) = 76.12340 35.52998 143.52331
#
# Poissons Ratio (x) = -0.01014 -0.02319
# Poissons Ratio (y) = -0.02173 0.28125
# Poissons Ratio (z) = -0.01230 0.06962
#
# Static dielectric constant tensor:
#      x y z
#    x 2.261870 0.000000 0.000000 
#    y 0.000000 2.051260 0.000000 
#    z 0.000000 0.000000 2.205660 
# 
# From -- ./inp_files/23259.got.cif
#   From: 2010.05.17/outbox.cif.g08.bks.cpg/sg23_12_cif.got.tgz:23259.got - 2010.06.04 12:02:01.
