data_PCOD9330748
_publ_section_title
;
Structure prediction by ZEFSAII (Michael W. Deem and Ramdas Pophale) SiO2 
 PCOD9330748
Probable space group: I 2 2 2
;
_chemical_formula_sum "Si O2"
_cell_formula_units_Z 38
_cell_length_a 24.582481
_cell_length_b 11.608395
_cell_length_c 5.728291
_cell_angle_alpha 90.000000
_cell_angle_beta 90.000000
_cell_angle_gamma 90.000000
_cell_volume 1634.643161
_symmetry_space_group_name_H-M "I 2 2 2"
_symmetry_group_IT_number 23
_symmetry_cell_setting 'orthorhombic'
loop_
_space_group_symop_operation_xyz
x,y,z
-x,-y,z
x,-y,-z
-x,y,-z
1/2+x,1/2+y,1/2+z
1/2-x,1/2-y,1/2+z
1/2+x,1/2-y,1/2-z
1/2-x,1/2+y,1/2-z
loop_
_atom_site_type_symbol
_atom_site_label
_atom_site_fract_x
_atom_site_fract_y
_atom_site_fract_z
Si Si1 0.938083 0.954734 0.253464
Si Si2 0.169241 0.677352 0.841073
Si Si3 0.500000 0.000000 0.000000
Si Si4 0.775418 0.120335 0.628424
Si Si5 0.448545 0.811819 0.332338
Si Si6 0.289360 0.000000 0.000000
O O1 0.943270 0.816924 0.268809
O O2 0.913876 0.000000 0.500000
O O3 0.000000 0.000000 0.248047
O O4 0.914000 0.000000 0.000000
O O5 0.177447 0.787631 0.671269
O O6 0.110193 0.673874 0.956078
O O7 0.174438 0.562952 0.688246
O O8 0.222867 0.673020 0.998913
O O9 0.537908 0.914079 0.847873
O O10 0.789284 0.000000 0.500000
O O11 0.751257 0.087841 0.878452
O O12 0.500000 0.811139 0.500000
#
# Coordination Sequence:
#
# PCOD9330748 Si02
#       6
#     8   8   2   8   8   4
#     4  10  20  43  72  99 140 193 242 311 367 441
#     4  11  23  44  72 102 139 186 231 298 362 432
#     4  12  28  48  70 102 148 200 252 278 368 472
#     4  10  22  42  69 102 137 173 234 296 360 429
#     4  12  27  46  69 106 147 193 247 303 366 452
#     4  10  21  42  68  99 135 180 227 294 352 430
#
# _framework density 23.246665
#
# number of rings (size 3 to 8) (size 9 to 14) (size 15 to 20)
#    0.000    1.263    4.211    2.211    0.000    7.579 
#    1.895    0.000    0.000    0.000    0.000    0.000 
#    0.000    0.000    0.000    0.000    0.000    0.000 
#
# Total GULP energy -106068.371117 kJ/mol
# GULP energy per Si atom -5582.545848 kJ/mol
# Density = 2.319375 g / cm^3
# Si number density = 23.246665 Si / 1000 Ang^3
#
#
#
# Elastic Constant Matrix: (Units=GPa)
#
#
# Indices 1 2 3 4 5 6 
#
# 1 158.3786 37.1007 25.2256 0.0000 0.0000 0.0000
# 2 37.1007 161.0700 42.7709 0.0000 0.0000 0.0000
# 3 25.2256 42.7709 104.1997 0.0000 0.0000 0.0000
# 4 0.0000 0.0000 0.0000 37.7786 0.0000 0.0000
# 5 0.0000 0.0000 0.0000 0.0000 18.7321 0.0000
# 6 0.0000 0.0000 0.0000 0.0000 0.0000 -9.9531
#
#
#
# Elastic Compliance Matrix: (Units=1/GPa)
#
#
# Indices 1 2 3 4 5 6 
#
# 1 0.006789 -0.001265 -0.001124 0.000000 0.000000 0.000000
# 2 -0.001265 0.007204 -0.002651 0.000000 0.000000 0.000000
# 3 -0.001124 -0.002651 0.010957 0.000000 0.000000 0.000000
# 4 0.000000 0.000000 0.000000 0.026470 0.000000 0.000000
# 5 0.000000 0.000000 0.000000 0.000000 0.053384 0.000000
# 6 0.000000 0.000000 0.000000 0.000000 0.000000 -0.100471
#
#
# Mechanical properties :
#
#
# Convention : Reuss Voigt Hill
#
# Bulk Modulus (GPa) = 67.24980 70.42694 68.83837
# Shear Modulus (GPa) = 258.12761 30.54828 144.33795
#
# Velocity S-wave (km/s) = 10.54892 3.62897 7.88825
# Velocity P-wave (km/s) = 13.31782 6.92247 10.61332
#
# Compressibility (1/GPa) = 0.01486993
#
# Stress axis : x y z
#
# Youngs Moduli (GPa) = 147.28714 138.81586 91.26482
#
# Poissons Ratio (x) = 0.17565 0.10261
# Poissons Ratio (y) = 0.18637 0.24191
# Poissons Ratio (z) = 0.16559 0.36795
#
# Static dielectric constant tensor:
#      x y z
#    x 1.880650 0.000000 0.000000 
#    y 0.000000 2.094840 0.000000 
#    z 0.000000 0.000000 1.923780 
# 
# From -- ./inp_files/4798.got.cif
#   From: 2010.05.17/outbox.cif.g08.bks.cpg/sg23_3_cif.got.tgz:4798.got - 2010.06.04 12:02:01.
