data_PCOD9330667
_publ_section_title
;
Structure prediction by ZEFSAII (Michael W. Deem and Ramdas Pophale) SiO2 
 PCOD9330667
Probable space group: I 2 2 2
;
_chemical_formula_sum "Si O2"
_cell_formula_units_Z 58
_cell_length_a 15.193334
_cell_length_b 17.344342
_cell_length_c 9.075406
_cell_angle_alpha 90.000000
_cell_angle_beta 90.000000
_cell_angle_gamma 90.000000
_cell_volume 2391.536296
_symmetry_space_group_name_H-M "I 2 2 2"
_symmetry_group_IT_number 23
_symmetry_cell_setting 'orthorhombic'
loop_
_space_group_symop_operation_xyz
x,y,z
-x,-y,z
x,-y,-z
-x,y,-z
1/2+x,1/2+y,1/2+z
1/2-x,1/2-y,1/2+z
1/2+x,1/2-y,1/2-z
1/2-x,1/2+y,1/2-z
loop_
_atom_site_type_symbol
_atom_site_label
_atom_site_fract_x
_atom_site_fract_y
_atom_site_fract_z
Si Si1 0.726901 0.381949 0.466150
Si Si2 0.294379 0.790302 0.456957
Si Si3 0.844932 0.584383 0.802361
Si Si4 0.500000 0.500000 0.000000
Si Si5 0.219190 0.574887 0.766063
Si Si6 0.017920 0.609375 0.670193
Si Si7 0.473127 0.257573 0.668318
Si Si8 0.447546 0.425746 0.715143
O O1 0.739433 0.291773 0.513008
O O2 0.808580 0.396810 0.359672
O O3 0.727239 0.429915 0.615760
O O4 0.641188 0.405326 0.371677
O O5 0.329444 0.843849 0.589716
O O6 0.243419 0.854804 0.362705
O O7 0.368819 0.757705 0.345212
O O8 0.791788 0.507357 0.843073
O O9 0.947838 0.569353 0.778980
O O10 0.441456 0.551765 0.111531
O O11 0.118259 0.593361 0.715788
O O12 0.996393 0.698983 0.707109
O O13 0.000000 0.590967 0.500000
O O14 0.500000 0.238631 0.500000
O O15 0.499590 0.345114 0.699695
O O16 0.500000 0.500000 0.656853
#
# Coordination Sequence:
#
# PCOD9330667 Si02
#       8
#     8   8   8   2   8   8   8   8
#     4  11  23  44  70  96 142 180 230 287 362 427
#     4  10  23  44  66  96 137 185 231 288 348 425
#     4  12  23  43  68  98 134 182 233 289 355 421
#     4   8  20  48  70 104 132 168 238 296 356 412
#     4  11  24  42  67 102 136 178 232 292 351 424
#     4  11  23  39  67  97 136 181 233 287 349 426
#     4  10  20  40  66 100 132 178 240 286 350 427
#     4   9  22  45  72  97 139 177 233 297 357 418
#
# _framework density 24.252193999999999
#
# number of rings (size 3 to 8) (size 9 to 14) (size 15 to 20)
#    0.414    1.103    2.759    2.069    0.966    0.828 
#   12.414    1.379    0.000    0.000    0.000    0.000 
#    0.000    0.000    0.000    0.000    0.000    0.000 
#
# Total GULP energy -161802.932829 kJ/mol
# GULP energy per Si atom -5579.411477 kJ/mol
# Density = 2.419699 g / cm^3
# Si number density = 24.252194 Si / 1000 Ang^3
#
#
#
# Elastic Constant Matrix: (Units=GPa)
#
#
# Indices 1 2 3 4 5 6 
#
# 1 47.4743 12.1988 8.1917 0.0000 0.0000 0.0000
# 2 12.1988 183.9179 31.9905 0.0000 0.0000 0.0000
# 3 8.1917 31.9905 116.0456 0.0000 0.0000 0.0000
# 4 0.0000 0.0000 0.0000 29.7905 0.0000 0.0000
# 5 0.0000 0.0000 0.0000 0.0000 17.5472 0.0000
# 6 0.0000 0.0000 0.0000 0.0000 0.0000 22.4716
#
#
#
# Elastic Compliance Matrix: (Units=1/GPa)
#
#
# Indices 1 2 3 4 5 6 
#
# 1 0.021583 -0.001225 -0.001186 0.000000 0.000000 0.000000
# 2 -0.001225 0.005781 -0.001507 0.000000 0.000000 0.000000
# 3 -0.001186 -0.001507 0.009116 0.000000 0.000000 0.000000
# 4 0.000000 0.000000 0.000000 0.033568 0.000000 0.000000
# 5 0.000000 0.000000 0.000000 0.000000 0.056989 0.000000
# 6 0.000000 0.000000 0.000000 0.000000 0.000000 0.044501
#
#
# Mechanical properties :
#
#
# Convention : Reuss Voigt Hill
#
# Bulk Modulus (GPa) = 34.91105 50.24442 42.57774
# Shear Modulus (GPa) = 26.46591 33.63233 30.04912
#
# Velocity S-wave (km/s) = 3.30703 3.72798 3.52380
# Velocity P-wave (km/s) = 5.38593 6.26841 5.84385
#
# Compressibility (1/GPa) = 0.02864422
#
# Stress axis : x y z
#
# Youngs Moduli (GPa) = 46.33169 172.99194 109.69165
#
# Poissons Ratio (x) = 0.21197 0.13007
# Poissons Ratio (y) = 0.05677 0.16531
# Poissons Ratio (z) = 0.05494 0.26071
#
# Static dielectric constant tensor:
#      x y z
#    x 2.000580 0.000000 0.000000 
#    y 0.000000 2.082330 0.000000 
#    z 0.000000 0.000000 1.914990 
# 
# From -- ./inp_files/11276.got.cif
#   From: 2010.05.17/outbox.cif.g08.bks.cpg/sg23_6_cif.got.tgz:11276.got - 2010.06.04 12:02:01.
