data_PCOD9330710
_publ_section_title
;
Structure prediction by ZEFSAII (Michael W. Deem and Ramdas Pophale) SiO2 
 PCOD9330710
Probable space group: I 2 2 2
;
_chemical_formula_sum "Si O2"
_cell_formula_units_Z 64
_cell_length_a 20.173719
_cell_length_b 17.463626
_cell_length_c 8.823431
_cell_angle_alpha 90.000000
_cell_angle_beta 90.000000
_cell_angle_gamma 90.000000
_cell_volume 3108.550185
_symmetry_space_group_name_H-M "I 2 2 2"
_symmetry_group_IT_number 23
_symmetry_cell_setting 'orthorhombic'
loop_
_space_group_symop_operation_xyz
x,y,z
-x,-y,z
x,-y,-z
-x,y,-z
1/2+x,1/2+y,1/2+z
1/2-x,1/2-y,1/2+z
1/2+x,1/2-y,1/2-z
1/2-x,1/2+y,1/2-z
loop_
_atom_site_type_symbol
_atom_site_label
_atom_site_fract_x
_atom_site_fract_y
_atom_site_fract_z
Si Si1 0.926733 0.518515 0.179272
Si Si2 0.683682 0.727171 0.524803
Si Si3 0.215193 0.519410 0.174447
Si Si4 0.559982 0.315330 0.121410
Si Si5 0.422720 0.515657 0.173312
Si Si6 0.795330 0.823943 0.365854
Si Si7 0.558074 0.809779 0.620134
Si Si8 0.186012 0.062875 0.869568
O O1 0.860420 0.474591 0.237463
O O2 0.917374 0.609925 0.189140
O O3 0.000000 0.500000 0.244870
O O4 0.930968 0.500000 0.000000
O O5 0.739569 0.781028 0.458422
O O6 0.696143 0.713312 0.701657
O O7 0.614243 0.770270 0.519187
O O8 0.682202 0.646712 0.438039
O O9 0.266139 0.591245 0.171579
O O10 0.252838 0.450150 0.256585
O O11 0.206379 0.500000 0.000000
O O12 0.577277 0.394277 0.210688
O O13 0.633928 0.308262 0.049973
O O14 0.542909 0.248672 0.241087
O O15 0.500000 0.325404 0.000000
O O16 0.500000 0.500000 0.178946
O O17 0.380254 0.462835 0.282114
O O18 0.399906 0.500000 0.000000
O O19 0.500000 0.825859 0.500000
O O20 0.196354 0.000000 0.000000
#
# Coordination Sequence:
#
# PCOD9330710 Si02
#       8
#     8   8   8   8   8   8   8   8
#     4  10  20  41  71  98 120 162 223 280 325 392
#     4  11  26  42  66  97 136 176 222 286 340 410
#     4  11  23  40  72  95 129 176 222 278 332 403
#     4  11  24  44  62  96 140 174 214 277 336 402
#     4  11  23  42  66  93 130 178 232 270 321 414
#     4  11  25  45  64 101 134 174 232 276 345 411
#     4  11  24  43  66  99 131 167 223 274 336 401
#     4  12  24  44  63  96 136 176 222 283 340 397
#
# _framework density 20.588376
#
# number of rings (size 3 to 8) (size 9 to 14) (size 15 to 20)
#    0.000    1.000    5.000    2.625    7.000    1.250 
#    0.000    0.000    0.000    0.000    0.000    0.000 
#    0.000    0.000    0.000    0.000    0.000    0.000 
#
# Total GULP energy -178530.852130 kJ/mol
# GULP energy per Si atom -5579.089129 kJ/mol
# Density = 2.054152 g / cm^3
# Si number density = 20.588376 Si / 1000 Ang^3
#
#
#
# Elastic Constant Matrix: (Units=GPa)
#
#
# Indices 1 2 3 4 5 6 
#
# 1 142.1376 17.4622 35.8308 0.0000 0.0000 0.0000
# 2 17.4622 81.7249 -0.0417 0.0000 0.0000 0.0000
# 3 35.8308 -0.0417 31.9576 0.0000 0.0000 0.0000
# 4 0.0000 0.0000 0.0000 38.9738 0.0000 0.0000
# 5 0.0000 0.0000 0.0000 0.0000 109.6081 0.0000
# 6 0.0000 0.0000 0.0000 0.0000 0.0000 57.8252
#
#
#
# Elastic Compliance Matrix: (Units=1/GPa)
#
#
# Indices 1 2 3 4 5 6 
#
# 1 0.010182 -0.002181 -0.011419 0.000000 0.000000 0.000000
# 2 -0.002181 0.012704 0.002462 0.000000 0.000000 0.000000
# 3 -0.011419 0.002462 0.044097 0.000000 0.000000 0.000000
# 4 0.000000 0.000000 0.000000 0.025658 0.000000 0.000000
# 5 0.000000 0.000000 0.000000 0.000000 0.009123 0.000000
# 6 0.000000 0.000000 0.000000 0.000000 0.000000 0.017293
#
#
# Mechanical properties :
#
#
# Convention : Reuss Voigt Hill
#
# Bulk Modulus (GPa) = 22.36778 40.25807 31.31293
# Shear Modulus (GPa) = 32.00282 54.78600 43.39441
#
# Velocity S-wave (km/s) = 3.94688 5.16410 4.59597
# Velocity P-wave (km/s) = 5.62658 7.42654 6.58832
#
# Compressibility (1/GPa) = 0.04470716
#
# Stress axis : x y z
#
# Youngs Moduli (GPa) = 98.21295 78.71824 22.67707
#
# Poissons Ratio (x) = 0.17172 0.25895
# Poissons Ratio (y) = 0.21424 -0.05584
# Poissons Ratio (z) = 1.12148 -0.19383
#
# Static dielectric constant tensor:
#      x y z
#    x 1.837110 0.000000 0.000000 
#    y 0.000000 1.541480 0.000000 
#    z 0.000000 0.000000 1.686440 
# 
# From -- ./inp_files/12211.got.cif
#   From: 2010.05.17/outbox.cif.g08.bks.cpg/sg23_7_cif.got.tgz:12211.got - 2010.06.04 12:02:01.
