data_PCOD9330629
_publ_section_title
;
Structure prediction by ZEFSAII (Michael W. Deem and Ramdas Pophale) SiO2 
 PCOD9330629
Probable space group: I 2 2 2
;
_chemical_formula_sum "Si O2"
_cell_formula_units_Z 36
_cell_length_a 10.920826
_cell_length_b 18.770384
_cell_length_c 9.106756
_cell_angle_alpha 90.000000
_cell_angle_beta 90.000000
_cell_angle_gamma 90.000000
_cell_volume 1866.776588
_symmetry_space_group_name_H-M "I 2 2 2"
_symmetry_group_IT_number 23
_symmetry_cell_setting 'orthorhombic'
loop_
_space_group_symop_operation_xyz
x,y,z
-x,-y,z
x,-y,-z
-x,y,-z
1/2+x,1/2+y,1/2+z
1/2-x,1/2-y,1/2+z
1/2+x,1/2-y,1/2-z
1/2-x,1/2+y,1/2-z
loop_
_atom_site_type_symbol
_atom_site_label
_atom_site_fract_x
_atom_site_fract_y
_atom_site_fract_z
Si Si1 0.000000 0.500000 0.000000
Si Si2 0.093644 0.378563 0.796053
Si Si3 0.169857 0.335477 0.318531
Si Si4 0.813171 0.112520 0.931415
Si Si5 0.000000 0.000000 0.000000
Si Si6 0.297746 0.233752 0.517583
O O1 0.923119 0.552102 0.896260
O O2 0.203371 0.389524 0.683523
O O3 0.126366 0.313138 0.903531
O O4 0.966837 0.361270 0.713087
O O5 0.251081 0.393123 0.406338
O O6 0.182635 0.267619 0.429103
O O7 0.226548 0.312080 0.162651
O O8 0.913476 0.052896 0.909073
O O9 0.864021 0.193510 0.929646
#
# Coordination Sequence:
#
# PCOD9330629 Si02
#       6
#     2   8   8   8   2   8
#     4  12  28  34  74  94 144 174 226 284 334 394
#     4  12  23  43  67 100 131 176 226 283 332 396
#     4  10  21  40  67 104 124 167 223 283 335 395
#     4  10  25  42  64  94 130 174 221 267 341 396
#     4  12  28  42  62  90 140 182 212 268 328 418
#     4  10  20  39  68 100 127 166 218 279 343 383
#
# _framework density 19.284578
#
# number of rings (size 3 to 8) (size 9 to 14) (size 15 to 20)
#    1.333    0.000    4.444    0.667    6.222    0.000 
#    0.000    0.000    0.000    4.667    0.000    0.000 
#    0.000    0.000    0.000    0.000    0.000    0.000 
#
# Total GULP energy -100302.709814 kJ/mol
# GULP energy per Si atom -5572.372767 kJ/mol
# Density = 1.924069 g / cm^3
# Si number density = 19.284578 Si / 1000 Ang^3
#
#
#
# Elastic Constant Matrix: (Units=GPa)
#
#
# Indices 1 2 3 4 5 6 
#
# 1 93.4188 57.5370 55.4950 0.0000 0.0000 0.0000
# 2 57.5370 110.7812 30.6400 -0.0001 0.0000 0.0000
# 3 55.4950 30.6400 99.1887 -0.0001 0.0000 0.0000
# 4 0.0000 -0.0001 -0.0001 20.7460 0.0000 0.0000
# 5 0.0000 0.0000 0.0000 0.0000 31.6301 0.0000
# 6 0.0000 0.0000 0.0000 0.0000 0.0000 32.9880
#
#
#
# Elastic Compliance Matrix: (Units=1/GPa)
#
#
# Indices 1 2 3 4 5 6 
#
# 1 0.021615 -0.008618 -0.009431 0.000000 0.000000 0.000000
# 2 -0.008618 0.013306 0.000711 0.000000 0.000000 0.000000
# 3 -0.009431 0.000711 0.015139 0.000000 0.000000 0.000000
# 4 0.000000 0.000000 0.000000 0.048202 0.000000 0.000000
# 5 0.000000 0.000000 0.000000 0.000000 0.031615 0.000000
# 6 0.000000 0.000000 0.000000 0.000000 0.000000 0.030314
#
#
# Mechanical properties :
#
#
# Convention : Reuss Voigt Hill
#
# Bulk Modulus (GPa) = 65.00206 65.63699 65.31952
# Shear Modulus (GPa) = 25.00076 27.72061 26.36069
#
# Velocity S-wave (km/s) = 3.60448 3.79548 3.70121
# Velocity P-wave (km/s) = 7.14863 7.30188 7.22566
#
# Compressibility (1/GPa) = 0.01538413
#
# Stress axis : x y z
#
# Youngs Moduli (GPa) = 46.26494 75.15475 66.05582
#
# Poissons Ratio (x) = 0.64766 0.62298
# Poissons Ratio (y) = 0.39869 -0.04698
# Poissons Ratio (z) = 0.43633 -0.05345
#
# Static dielectric constant tensor:
#      x y z
#    x 1.663410 0.000000 0.000000 
#    y 0.000000 1.710920 0.000000 
#    z 0.000000 0.000000 1.685020 
# 
# From -- ./inp_files/8405.got.cif
#   From: 2010.05.17/outbox.cif.g08.bks.cpg/sg23_5_cif.got.tgz:8405.got - 2010.06.04 12:02:01.
