data_PCOD9330167
_publ_section_title
;
Structure prediction by ZEFSAII (Michael W. Deem and Ramdas Pophale) SiO2 
 PCOD9330167
Probable space group: I 2 2 2
;
_chemical_formula_sum "Si O2"
_cell_formula_units_Z 56
_cell_length_a 6.256210
_cell_length_b 23.105902
_cell_length_c 22.239629
_cell_angle_alpha 90.000000
_cell_angle_beta 90.000000
_cell_angle_gamma 90.000000
_cell_volume 3214.857913
_symmetry_space_group_name_H-M "I 2 2 2"
_symmetry_group_IT_number 23
_symmetry_cell_setting 'orthorhombic'
loop_
_space_group_symop_operation_xyz
x,y,z
-x,-y,z
x,-y,-z
-x,y,-z
1/2+x,1/2+y,1/2+z
1/2-x,1/2-y,1/2+z
1/2+x,1/2-y,1/2-z
1/2-x,1/2+y,1/2-z
loop_
_atom_site_type_symbol
_atom_site_label
_atom_site_fract_x
_atom_site_fract_y
_atom_site_fract_z
Si Si1 0.616519 0.439053 0.253849
Si Si2 0.593227 0.319995 0.314047
Si Si3 0.374379 0.444968 0.132800
Si Si4 0.679783 0.249711 0.598388
Si Si5 0.056549 0.234017 0.690573
Si Si6 0.000000 0.500000 0.788849
Si Si7 0.294218 0.170681 0.590719
Si Si8 0.500000 0.742389 0.000000
O O1 0.500000 0.500000 0.268312
O O2 0.572771 0.387232 0.299012
O O3 0.532574 0.422309 0.186359
O O4 0.866619 0.453802 0.249266
O O5 0.478924 0.297645 0.374271
O O6 0.486998 0.286297 0.257669
O O7 0.837408 0.297418 0.313367
O O8 0.500000 0.500000 0.105003
O O9 0.173045 0.469222 0.169513
O O10 0.278969 0.395804 0.090235
O O11 0.842453 0.231763 0.651264
O O12 0.534956 0.193757 0.580656
O O13 0.826419 0.272118 0.543560
O O14 0.229406 0.193094 0.657439
O O15 0.142972 0.204085 0.544520
#
# Coordination Sequence:
#
# PCOD9330167 Si02
#       8
#     8   8   8   8   8   4   8   4
#     4   9  19  32  47  74 113 153 188 221 269 344
#     4  11  19  31  51  79 115 144 184 231 285 341
#     4   9  18  31  49  75 103 143 190 231 267 321
#     4  10  22  35  52  80 110 145 183 232 292 345
#     4  10  20  29  48  81 107 137 174 225 280 339
#     4   8  18  28  44  70 103 148 184 217 272 330
#     4  10  20  35  56  71 103 142 183 235 275 333
#     4  10  22  40  55  74 104 147 194 226 286 338
#
# _framework density 17.419121000000001
#
# number of rings (size 3 to 8) (size 9 to 14) (size 15 to 20)
#    0.000    2.571    2.857    0.429    2.000    3.429 
#    0.000    0.357    0.000    0.000    0.000    0.000 
#    0.000   33.143    0.000    0.000    0.000    0.000 
#
# Total GULP energy -155901.703525 kJ/mol
# GULP energy per Si atom -5567.917983 kJ/mol
# Density = 1.737947 g / cm^3
# Si number density = 17.419121 Si / 1000 Ang^3
#
#
#
# Elastic Constant Matrix: (Units=GPa)
#
#
# Indices 1 2 3 4 5 6 
#
# 1 94.3876 24.2087 23.5263 0.0000 0.0000 0.0000
# 2 24.2087 64.1798 14.6593 0.0000 0.0000 0.0000
# 3 23.5263 14.6593 56.5051 0.0000 0.0000 0.0000
# 4 0.0000 0.0000 0.0000 14.6983 0.0000 0.0000
# 5 0.0000 0.0000 0.0000 0.0000 30.0999 0.0000
# 6 0.0000 0.0000 0.0000 0.0000 0.0000 15.1924
#
#
#
# Elastic Compliance Matrix: (Units=1/GPa)
#
#
# Indices 1 2 3 4 5 6 
#
# 1 0.012632 -0.003788 -0.004277 0.000000 0.000000 0.000000
# 2 -0.003788 0.017699 -0.003014 0.000000 0.000000 0.000000
# 3 -0.004277 -0.003014 0.020260 0.000000 0.000000 0.000000
# 4 0.000000 0.000000 0.000000 0.068035 0.000000 0.000000
# 5 0.000000 0.000000 0.000000 0.000000 0.033223 0.000000
# 6 0.000000 0.000000 0.000000 0.000000 0.000000 0.065822
#
#
# Mechanical properties :
#
#
# Convention : Reuss Voigt Hill
#
# Bulk Modulus (GPa) = 35.17094 37.76235 36.46664
# Shear Modulus (GPa) = 20.05558 22.17665 21.11612
#
# Velocity S-wave (km/s) = 3.39684 3.57195 3.48550
# Velocity P-wave (km/s) = 5.96821 6.22395 6.09742
#
# Compressibility (1/GPa) = 0.02843257
#
# Stress axis : x y z
#
# Youngs Moduli (GPa) = 79.16306 56.50160 49.35777
#
# Poissons Ratio (x) = 0.21403 0.21109
# Poissons Ratio (y) = 0.29987 0.14879
# Poissons Ratio (z) = 0.33856 0.17032
#
# Static dielectric constant tensor:
#      x y z
#    x 1.653680 0.000000 0.000000 
#    y 0.000000 1.624460 0.000000 
#    z 0.000000 0.000000 1.601680 
# 
# From -- ./inp_files/27742.got.cif
#   From: 2010.05.17/outbox.cif.g08.bks.cpg/sg23_14_cif.got.tgz:27742.got - 2010.06.04 12:02:01.
