data_PCOD9330383
_publ_section_title
;
Structure prediction by ZEFSAII (Michael W. Deem and Ramdas Pophale) SiO2 
 PCOD9330383
Probable space group: I 2 2 2
;
_chemical_formula_sum "Si O2"
_cell_formula_units_Z 64
_cell_length_a 7.621721
_cell_length_b 17.262087
_cell_length_c 22.809348
_cell_angle_alpha 90.000000
_cell_angle_beta 90.000000
_cell_angle_gamma 90.000000
_cell_volume 3000.953177
_symmetry_space_group_name_H-M "I 2 2 2"
_symmetry_group_IT_number 23
_symmetry_cell_setting 'orthorhombic'
loop_
_space_group_symop_operation_xyz
x,y,z
-x,-y,z
x,-y,-z
-x,y,-z
1/2+x,1/2+y,1/2+z
1/2-x,1/2-y,1/2+z
1/2+x,1/2-y,1/2-z
1/2-x,1/2+y,1/2-z
loop_
_atom_site_type_symbol
_atom_site_label
_atom_site_fract_x
_atom_site_fract_y
_atom_site_fract_z
Si Si1 0.209620 1.000000 0.433394
Si Si2 0.207907 0.815665 0.112512
Si Si3 0.284495 0.410659 0.500000
Si Si4 0.709109 0.148198 0.354582
Si Si5 0.787513 0.410814 0.270987
Si Si6 0.792094 0.815666 0.112512
Si Si7 0.290891 0.148198 0.354582
Si Si8 0.287514 0.089186 0.770987
O O1 0.263939 0.076304 0.397824
O O2 0.278145 0.000000 0.500000
O O3 0.263938 0.923695 0.397824
O O4 0.000000 0.000000 0.435809
O O5 0.276445 0.865060 0.057819
O O6 0.281003 0.729030 0.120621
O O7 0.232549 0.862117 0.172722
O O8 0.000000 0.807796 0.101581
O O9 0.228087 0.500000 0.500000
O O10 0.500000 0.412006 0.500000
O O11 0.223555 0.365061 0.557819
O O12 0.781003 0.229030 0.379379
O O13 0.500000 0.158422 0.347741
O O14 0.777019 0.126498 0.289895
O O15 0.732548 0.362117 0.327277
O O16 0.722981 0.373502 0.210105
O O17 0.728420 0.500000 0.274978
O O18 1.000000 0.411682 0.269441
#
# Coordination Sequence:
#
# PCOD9330383 Si02
#       8
#     8   8   8   8   8   8   8   8
#     4  11  25  41  59  87 121 154 191 236 291 345
#     4  10  21  35  58  87 111 149 198 240 288 340
#     4   9  18  34  53  80 117 146 184 239 279 327
#     4  10  21  39  61  85 114 151 195 239 286 345
#     4  10  20  36  56  82 117 152 188 237 292 342
#     4  10  21  35  58  87 111 149 198 240 288 340
#     4  10  21  39  61  85 114 151 195 239 286 345
#     4  10  20  36  56  82 117 152 188 237 292 342
#
# _framework density 21.326557000000001
#
# number of rings (size 3 to 8) (size 9 to 14) (size 15 to 20)
#    0.000    2.000    1.250    1.875    1.750    4.500 
#    0.000    0.625    0.000    2.250    0.000    0.000 
#    0.000    0.000    0.000    0.000    0.000    0.000 
#
# Total GULP energy -178848.802820 kJ/mol
# GULP energy per Si atom -5589.025088 kJ/mol
# Density = 2.127802 g / cm^3
# Si number density = 21.326557 Si / 1000 Ang^3
#
#
#
# Elastic Constant Matrix: (Units=GPa)
#
#
# Indices 1 2 3 4 5 6 
#
# 1 34.4392 -4.0642 -15.8161 0.0000 0.0000 0.0000
# 2 -4.0642 242.7005 129.6043 0.0000 0.0000 0.0000
# 3 -15.8161 129.6043 210.2567 0.0000 0.0000 0.0000
# 4 0.0000 0.0000 0.0000 10.9931 0.0000 0.0000
# 5 0.0000 0.0000 0.0000 0.0000 19.4895 0.0000
# 6 0.0000 0.0000 0.0000 0.0000 0.0000 11.4990
#
#
#
# Elastic Compliance Matrix: (Units=1/GPa)
#
#
# Indices 1 2 3 4 5 6 
#
# 1 0.030256 -0.001056 0.002927 0.000000 0.000000 0.000000
# 2 -0.001056 0.006179 -0.003888 0.000000 0.000000 0.000000
# 3 0.002927 -0.003888 0.007373 0.000000 0.000000 0.000000
# 4 0.000000 0.000000 0.000000 0.090966 0.000000 0.000000
# 5 0.000000 0.000000 0.000000 0.000000 0.051310 0.000000
# 6 0.000000 0.000000 0.000000 0.000000 0.000000 0.086964
#
#
# Mechanical properties :
#
#
# Convention : Reuss Voigt Hill
#
# Bulk Modulus (GPa) = 25.14255 78.53826 51.84040
# Shear Modulus (GPa) = 17.22110 33.57448 25.39779
#
# Velocity S-wave (km/s) = 2.84473 3.97205 3.45469
# Velocity P-wave (km/s) = 4.75446 7.61201 6.34617
#
# Compressibility (1/GPa) = 0.03977322
#
# Stress axis : x y z
#
# Youngs Moduli (GPa) = 33.05097 161.83913 135.62933
#
# Poissons Ratio (x) = 0.17098 -0.39701
# Poissons Ratio (y) = 0.03492 0.52736
# Poissons Ratio (z) = -0.09675 0.62927
#
# Static dielectric constant tensor:
#      x y z
#    x 1.793630 0.000000 0.000000 
#    y 0.000000 1.807710 0.000000 
#    z 0.000000 0.000000 1.728550 
# 
# From -- ./inp_files/28100.got.cif
#   From: 2010.05.17/outbox.cif.g08.bks.cpg/sg23_15_cif.got.tgz:28100.got - 2010.06.04 12:02:01.
