data_PCOD9330482
_publ_section_title
;
Structure prediction by ZEFSAII (Michael W. Deem and Ramdas Pophale) SiO2 
 PCOD9330482
Probable space group: I 2 2 2
;
_chemical_formula_sum "Si O2"
_cell_formula_units_Z 32
_cell_length_a 9.414431
_cell_length_b 8.108135
_cell_length_c 18.573524
_cell_angle_alpha 90.000000
_cell_angle_beta 90.000000
_cell_angle_gamma 90.000000
_cell_volume 1417.781676
_symmetry_space_group_name_H-M "I 2 2 2"
_symmetry_group_IT_number 23
_symmetry_cell_setting 'orthorhombic'
loop_
_space_group_symop_operation_xyz
x,y,z
-x,-y,z
x,-y,-z
-x,y,-z
1/2+x,1/2+y,1/2+z
1/2-x,1/2-y,1/2+z
1/2+x,1/2-y,1/2-z
1/2-x,1/2+y,1/2-z
loop_
_atom_site_type_symbol
_atom_site_label
_atom_site_fract_x
_atom_site_fract_y
_atom_site_fract_z
Si Si1 0.177775 0.825238 0.646351
Si Si2 0.839396 0.518687 0.250881
Si Si3 0.160758 0.198552 0.992327
Si Si4 0.096144 0.666092 0.395026
O O1 0.182277 0.691990 0.710917
O O2 0.231243 0.986269 0.686808
O O3 0.281374 0.762983 0.583609
O O4 0.020493 0.806674 0.615941
O O5 0.836267 0.394556 0.319768
O O6 0.000000 0.500000 0.222124
O O7 0.283167 0.229714 0.051401
O O8 0.000000 0.262860 0.000000
O O9 0.151796 0.000000 0.000000
O O10 0.000000 0.500000 0.417371
#
# Coordination Sequence:
#
# PCOD9330482 Si02
#       4
#     8   8   8   8
#     4  10  20  37  63  87 122 166 206 263 320 372
#     4   9  20  37  57  91 125 160 203 265 317 369
#     4  11  20  32  58  94 120 156 219 270 300 363
#     4   9  18  35  57  84 122 159 206 261 304 364
#
# _framework density 22.570471999999999
#
# number of rings (size 3 to 8) (size 9 to 14) (size 15 to 20)
#    0.000    2.750    5.000    0.750    0.000    4.000 
#    0.000    0.000    0.000    5.250    0.000   24.500 
#    0.000    0.000    0.000    0.000    0.000    0.000 
#
# Total GULP energy -89276.470919 kJ/mol
# GULP energy per Si atom -5579.779432 kJ/mol
# Density = 2.251910 g / cm^3
# Si number density = 22.570472 Si / 1000 Ang^3
#
#
#
# Elastic Constant Matrix: (Units=GPa)
#
#
# Indices 1 2 3 4 5 6 
#
# 1 178.5241 29.8337 92.3670 0.0000 0.0000 0.0000
# 2 29.8337 38.0546 19.0247 0.0000 0.0000 0.0000
# 3 92.3670 19.0247 68.9983 0.0000 0.0000 0.0000
# 4 0.0000 0.0000 0.0000 34.9060 0.0000 0.0000
# 5 0.0000 0.0000 0.0000 0.0000 51.5016 0.0000
# 6 0.0000 0.0000 0.0000 0.0000 0.0000 20.7429
#
#
#
# Elastic Compliance Matrix: (Units=1/GPa)
#
#
# Indices 1 2 3 4 5 6 
#
# 1 0.018419 -0.002451 -0.023981 0.000000 0.000000 0.000000
# 2 -0.002451 0.030806 -0.005213 0.000000 0.000000 0.000000
# 3 -0.023981 -0.005213 0.048034 0.000000 0.000000 0.000000
# 4 0.000000 0.000000 0.000000 0.028648 0.000000 0.000000
# 5 0.000000 0.000000 0.000000 0.000000 0.019417 0.000000
# 6 0.000000 0.000000 0.000000 0.000000 0.000000 0.048209
#
#
# Mechanical properties :
#
#
# Convention : Reuss Voigt Hill
#
# Bulk Modulus (GPa) = 29.43950 63.11420 46.27685
# Shear Modulus (GPa) = 18.64663 31.05353 24.85008
#
# Velocity S-wave (km/s) = 2.87740 3.71327 3.32173
# Velocity P-wave (km/s) = 4.91029 6.81237 5.93798
#
# Compressibility (1/GPa) = 0.03396797
#
# Stress axis : x y z
#
# Youngs Moduli (GPa) = 54.29280 32.46161 20.81877
#
# Poissons Ratio (x) = 0.07956 0.49926
# Poissons Ratio (y) = 0.13306 0.10853
# Poissons Ratio (z) = 1.30200 0.16923
#
# Static dielectric constant tensor:
#      x y z
#    x 1.862050 0.000000 0.000000 
#    y 0.000000 1.973690 0.000000 
#    z 0.000000 0.000000 1.815040 
# 
# From -- ./inp_files/23510.got.cif
#   From: 2010.05.17/outbox.cif.g08.bks.cpg/sg23_12_cif.got.tgz:23510.got - 2010.06.04 12:02:01.
