data_PCOD9330291
_publ_section_title
;
Structure prediction by ZEFSAII (Michael W. Deem and Ramdas Pophale) SiO2 
 PCOD9330291
Probable space group: I 2 2 2
;
_chemical_formula_sum "Si O2"
_cell_formula_units_Z 42
_cell_length_a 8.431064
_cell_length_b 14.165270
_cell_length_c 13.644325
_cell_angle_alpha 90.000000
_cell_angle_beta 90.000000
_cell_angle_gamma 90.000000
_cell_volume 1629.518511
_symmetry_space_group_name_H-M "I 2 2 2"
_symmetry_group_IT_number 23
_symmetry_cell_setting 'orthorhombic'
loop_
_space_group_symop_operation_xyz
x,y,z
-x,-y,z
x,-y,-z
-x,y,-z
1/2+x,1/2+y,1/2+z
1/2-x,1/2-y,1/2+z
1/2+x,1/2-y,1/2-z
1/2-x,1/2+y,1/2-z
loop_
_atom_site_type_symbol
_atom_site_label
_atom_site_fract_x
_atom_site_fract_y
_atom_site_fract_z
Si Si1 0.000000 0.500000 0.500000
Si Si2 0.500000 0.305116 0.000000
Si Si3 0.136857 0.876455 0.302997
Si Si4 0.243508 0.356231 0.469994
Si Si5 0.500000 0.500000 0.500000
Si Si6 0.344467 0.948419 0.689581
Si Si7 0.169423 0.197839 0.193818
Si Si8 0.000000 0.500000 0.000000
O O1 0.108005 0.429979 0.440910
O O2 0.430786 0.364962 0.087968
O O3 0.355892 0.240912 0.953506
O O4 0.292617 0.808837 0.299799
O O5 0.001996 0.833470 0.232598
O O6 0.196739 0.982329 0.290769
O O7 0.390418 0.425312 0.440465
O O8 0.289848 0.338716 0.584424
O O9 0.300221 0.851358 0.737902
O O10 0.389190 0.941215 0.574064
O O11 0.500000 0.000000 0.730548
#
# Coordination Sequence:
#
# PCOD9330291 Si02
#       8
#     2   4   8   8   2   8   8   2
#     4   8  16  36  60  82 118 164 206 248 336 376
#     4   9  22  41  61  88 131 172 226 259 341 403
#     4  11  24  42  67  97 134 180 221 282 340 400
#     4   9  20  37  58  91 122 167 211 275 315 404
#     4  10  20  34  62  90 124 168 226 266 350 378
#     4  10  23  43  67  97 130 175 222 283 335 409
#     4  11  24  41  62  98 131 174 227 274 345 396
#     4   8  24  42  68  96 132 172 230 268 342 386
#
# _framework density 25.774481999999999
#
# number of rings (size 3 to 8) (size 9 to 14) (size 15 to 20)
#    0.571    1.524    0.000    1.714    6.667    1.524 
#    3.429    3.810    0.000    0.000    0.000    0.000 
#    0.000    0.000    0.000    0.000    0.000    0.000 
#
# Total GULP energy -117129.731432 kJ/mol
# GULP energy per Si atom -5577.606259 kJ/mol
# Density = 2.571582 g / cm^3
# Si number density = 25.774482 Si / 1000 Ang^3
#
#
#
# Elastic Constant Matrix: (Units=GPa)
#
#
# Indices 1 2 3 4 5 6 
#
# 1 128.6426 12.7283 10.1849 0.0000 0.0000 0.0000
# 2 12.7283 79.1338 16.0190 0.0000 0.0000 0.0000
# 3 10.1849 16.0190 87.4876 0.0000 0.0000 0.0000
# 4 0.0000 0.0000 0.0000 0.0015 0.0000 0.0000
# 5 0.0000 0.0000 0.0000 0.0000 33.7638 0.0000
# 6 0.0000 0.0000 0.0000 0.0000 0.0000 42.1392
#
#
#
# Elastic Compliance Matrix: (Units=1/GPa)
#
#
# Indices 1 2 3 4 5 6 
#
# 1 0.007942 -0.001132 -0.000717 0.000000 0.000000 0.000000
# 2 -0.001132 0.013285 -0.002301 -0.000024 0.000000 0.000000
# 3 -0.000717 -0.002301 0.011935 -0.000052 0.000000 0.000000
# 4 0.000000 -0.000024 -0.000052662.115866 -0.000012 0.000004
# 5 0.000000 0.000000 0.000000 -0.000012 0.029617 0.000000
# 6 0.000000 0.000000 0.000000 0.000004 0.000000 0.023731
#
#
# Mechanical properties :
#
#
# Convention : Reuss Voigt Hill
#
# Bulk Modulus (GPa) = 40.22275 41.45869 40.84072
# Shear Modulus (GPa) = 0.00755 32.26970 16.13862
#
# Velocity S-wave (km/s) = 0.05418 3.54220 2.50501
# Velocity P-wave (km/s) = 3.95518 5.73146 4.92408
#
# Compressibility (1/GPa) = 0.02486155
#
# Stress axis : x y z
#
# Youngs Moduli (GPa) = 125.90823 75.27476 83.78765
#
# Poissons Ratio (x) = 0.08523 0.06010
# Poissons Ratio (y) = 0.14256 0.19276
# Poissons Ratio (z) = 0.09031 0.17318
#
# Static dielectric constant tensor:
#      x y z
#    x 2.131040 0.000000 0.000000 
#    y 0.000000 1.936760 0.000000 
#    z 0.000000 0.000000 2.049280 
# 
# From -- ./inp_files/19819.got.cif
#   From: 2010.05.17/outbox.cif.g08.bks.cpg/sg23_10_cif.got.tgz:19819.got - 2010.06.04 12:02:01.
