data_PCOD9330127
_publ_section_title
;
Structure prediction by ZEFSAII (Michael W. Deem and Ramdas Pophale) SiO2 
 PCOD9330127
Probable space group: I 2 2 2
;
_chemical_formula_sum "Si O2"
_cell_formula_units_Z 54
_cell_length_a 18.684731
_cell_length_b 5.293446
_cell_length_c 29.382910
_cell_angle_alpha 90.000000
_cell_angle_beta 90.000000
_cell_angle_gamma 90.000000
_cell_volume 2906.164154
_symmetry_space_group_name_H-M "I 2 2 2"
_symmetry_group_IT_number 23
_symmetry_cell_setting 'orthorhombic'
loop_
_space_group_symop_operation_xyz
x,y,z
-x,-y,z
x,-y,-z
-x,y,-z
1/2+x,1/2+y,1/2+z
1/2-x,1/2-y,1/2+z
1/2+x,1/2-y,1/2-z
1/2-x,1/2+y,1/2-z
loop_
_atom_site_type_symbol
_atom_site_label
_atom_site_fract_x
_atom_site_fract_y
_atom_site_fract_z
Si Si1 0.125076 0.697596 0.041206
Si Si2 0.709194 0.208267 0.731595
Si Si3 0.500000 0.500000 0.500000
Si Si4 0.456322 0.749104 0.761306
Si Si5 0.200979 0.701198 0.408042
Si Si6 0.715125 0.803295 0.377036
Si Si7 0.958038 0.250533 0.371225
Si Si8 0.244482 0.500000 0.500000
O O1 0.141045 0.655726 0.094453
O O2 0.199900 0.825787 0.027113
O O3 0.116443 0.500000 0.000000
O O4 0.054169 0.857921 0.033583
O O5 0.754286 0.457959 0.746376
O O6 0.626400 0.241261 0.746387
O O7 0.708933 0.177392 0.677104
O O8 0.500000 0.500000 0.745891
O O9 0.455420 0.743254 0.816332
O O10 0.500000 0.000000 0.747283
O O11 0.245753 0.466133 0.386709
O O12 0.121655 0.721257 0.389259
O O13 0.201462 0.652695 0.462278
O O14 0.238050 0.964201 0.395565
O O15 0.000000 0.500000 0.385351
O O16 0.000000 0.000000 0.386574
#
# Coordination Sequence:
#
# PCOD9330127 Si02
#       8
#     8   8   2   8   8   8   8   4
#     4  10  19  39  59  88 121 157 206 253 307 377
#     4  12  24  41  64  94 127 164 215 271 319 373
#     4  10  22  36  60  90 122 172 200 264 320 372
#     4  10  21  38  58  82 119 163 200 246 310 372
#     4  11  21  38  62  90 119 158 203 254 312 359
#     4  11  23  38  64  93 121 160 210 263 312 372
#     4  10  20  35  56  84 115 152 200 242 291 366
#     4   9  20  35  61  84 119 150 194 248 305 356
#
# _framework density 18.581192000000001
#
# number of rings (size 3 to 8) (size 9 to 14) (size 15 to 20)
#    0.000    1.481    1.481    4.667    0.000    2.370 
#    1.333    1.852    0.000    0.889    0.000    0.000 
#    0.000    0.000    0.000    0.000    0.000    0.000 
#
# Total GULP energy -150474.232451 kJ/mol
# GULP energy per Si atom -5573.119720 kJ/mol
# Density = 1.853890 g / cm^3
# Si number density = 18.581192 Si / 1000 Ang^3
#
#
#
# Elastic Constant Matrix: (Units=GPa)
#
#
# Indices 1 2 3 4 5 6 
#
# 1 133.9554 56.1503 31.9306 0.0000 0.0000 0.0000
# 2 56.1503 113.1969 29.3947 0.0000 0.0000 0.0000
# 3 31.9306 29.3947 96.3720 0.0000 0.0000 0.0000
# 4 0.0000 0.0000 0.0000 20.6806 0.0000 0.0000
# 5 0.0000 0.0000 0.0000 0.0000 36.8968 0.0000
# 6 0.0000 0.0000 0.0000 0.0000 0.0000 28.0279
#
#
#
# Elastic Compliance Matrix: (Units=1/GPa)
#
#
# Indices 1 2 3 4 5 6 
#
# 1 0.009736 -0.004335 -0.001904 0.000000 0.000000 0.000000
# 2 -0.004335 0.011524 -0.002079 0.000000 0.000000 0.000000
# 3 -0.001904 -0.002079 0.011641 0.000000 0.000000 0.000000
# 4 0.000000 0.000000 0.000000 0.048354 0.000000 0.000000
# 5 0.000000 0.000000 0.000000 0.000000 0.027103 0.000000
# 6 0.000000 0.000000 0.000000 0.000000 0.000000 0.035679
#
#
# Mechanical properties :
#
#
# Convention : Reuss Voigt Hill
#
# Bulk Modulus (GPa) = 61.47502 64.27505 62.87503
# Shear Modulus (GPa) = 30.10330 32.19097 31.14713
#
# Velocity S-wave (km/s) = 4.02941 4.16679 4.09867
# Velocity P-wave (km/s) = 7.40301 7.60368 7.50402
#
# Compressibility (1/GPa) = 0.01626677
#
# Stress axis : x y z
#
# Youngs Moduli (GPa) = 102.71044 86.77238 85.90190
#
# Poissons Ratio (x) = 0.37618 0.16352
# Poissons Ratio (y) = 0.44527 0.17857
# Poissons Ratio (z) = 0.19551 0.18038
#
# Static dielectric constant tensor:
#      x y z
#    x 1.608880 0.000000 0.000000 
#    y 0.000000 1.676680 0.000000 
#    z 0.000000 0.000000 1.733900 
# 
# From -- ./inp_files/30577.got.cif
#   From: 2010.05.17/outbox.cif.g08.bks.cpg/sg23_16_cif.got.tgz:30577.got - 2010.06.04 12:02:01.
