data_PCOD9330547
_publ_section_title
;
Structure prediction by ZEFSAII (Michael W. Deem and Ramdas Pophale) SiO2 
 PCOD9330547
Probable space group: I 2 2 2
;
_chemical_formula_sum "Si O2"
_cell_formula_units_Z 40
_cell_length_a 12.083789
_cell_length_b 12.064051
_cell_length_c 12.690767
_cell_angle_alpha 90.000000
_cell_angle_beta 90.000000
_cell_angle_gamma 90.000000
_cell_volume 1850.052992
_symmetry_space_group_name_H-M "I 2 2 2"
_symmetry_group_IT_number 23
_symmetry_cell_setting 'orthorhombic'
loop_
_space_group_symop_operation_xyz
x,y,z
-x,-y,z
x,-y,-z
-x,y,-z
1/2+x,1/2+y,1/2+z
1/2-x,1/2-y,1/2+z
1/2+x,1/2-y,1/2-z
1/2-x,1/2+y,1/2-z
loop_
_atom_site_type_symbol
_atom_site_label
_atom_site_fract_x
_atom_site_fract_y
_atom_site_fract_z
Si Si1 0.586304 0.658162 0.352183
Si Si2 0.208358 0.220302 0.065369
Si Si3 0.350720 0.435572 0.718694
Si Si4 0.518702 0.124470 0.373156
Si Si5 0.373628 0.383067 0.960878
O O1 0.637328 0.666590 0.468927
O O2 0.463391 0.606006 0.340368
O O3 0.655346 0.568677 0.285462
O O4 0.566987 0.786855 0.323549
O O5 0.239735 0.125312 0.148076
O O6 0.137951 0.315095 0.128335
O O7 0.308579 0.281941 0.010039
O O8 0.362846 0.389896 0.835562
O O9 0.500000 0.120796 0.500000
O O10 0.500000 0.000000 0.333740
O O11 0.324060 0.500000 0.000000
O O12 0.500000 0.379781 0.000000
#
# Coordination Sequence:
#
# PCOD9330547 Si02
#       5
#     8   8   8   8   8
#     4   9  17  33  62  91 122 154 205 265 313 376
#     4  10  21  35  62  92 118 159 215 268 311 377
#     4  10  20  38  62  93 123 159 210 258 329 377
#     4   8  15  27  52  90 121 146 187 261 323 352
#     4  11  25  41  58  86 128 170 206 259 319 399
#
# _framework density 21.621003000000002
#
# number of rings (size 3 to 8) (size 9 to 14) (size 15 to 20)
#    0.000    2.400    0.000    4.800    5.600    8.000 
#    0.000    0.000    0.000    2.400    0.000    0.000 
#    0.000    0.000    0.000    0.000    0.000    0.000 
#
# Total GULP energy -111425.950846 kJ/mol
# GULP energy per Si atom -5571.297542 kJ/mol
# Density = 2.157179 g / cm^3
# Si number density = 21.621003 Si / 1000 Ang^3
#
#
#
# Elastic Constant Matrix: (Units=GPa)
#
#
# Indices 1 2 3 4 5 6 
#
# 1 35.9553 33.9130 46.0957 0.0000 0.0000 0.0000
# 2 33.9130 175.7778 55.8068 0.0000 0.0000 0.0000
# 3 46.0957 55.8068 107.2778 0.0000 0.0000 0.0000
# 4 0.0000 0.0000 0.0000 17.0218 0.0000 0.0000
# 5 0.0000 0.0000 0.0000 0.0000 -30.0116 0.0000
# 6 0.0000 0.0000 0.0000 0.0000 0.0000 25.6528
#
#
#
# Elastic Compliance Matrix: (Units=1/GPa)
#
#
# Indices 1 2 3 4 5 6 
#
# 1 0.064616 -0.004374 -0.025489 0.000000 0.000000 0.000000
# 2 -0.004374 0.007111 -0.001820 0.000000 0.000000 0.000000
# 3 -0.025489 -0.001820 0.021220 0.000000 0.000000 0.000000
# 4 0.000000 0.000000 0.000000 0.058748 0.000000 0.000000
# 5 0.000000 0.000000 0.000000 0.000000 -0.033320 0.000000
# 6 0.000000 0.000000 0.000000 0.000000 0.000000 0.038982
#
#
# Mechanical properties :
#
#
# Convention : Reuss Voigt Hill
#
# Bulk Modulus (GPa) = 33.80494 65.62687 49.71590
# Shear Modulus (GPa) = 21.68428 14.74562 18.21495
#
# Velocity S-wave (km/s) = 3.17034 2.61435 2.90567
# Velocity P-wave (km/s) = 5.39171 6.28747 5.85674
#
# Compressibility (1/GPa) = 0.02958148
#
# Stress axis : x y z
#
# Youngs Moduli (GPa) = 15.47615 140.63613 47.12451
#
# Poissons Ratio (x) = 0.61514 1.20116
# Poissons Ratio (y) = 0.06769 0.08574
# Poissons Ratio (z) = 0.39447 0.25589
#
# Static dielectric constant tensor:
#      x y z
#    x 1.893910 0.000000 0.000000 
#    y 0.000000 1.871520 0.000000 
#    z 0.000000 0.000000 1.769610 
# 
# From -- ./inp_files/16499.got.cif
#   From: 2010.05.17/outbox.cif.g08.bks.cpg/sg23_9_cif.got.tgz:16499.got - 2010.06.04 12:02:01.
