data_PCOD9330146
_publ_section_title
;
Structure prediction by ZEFSAII (Michael W. Deem and Ramdas Pophale) SiO2 
 PCOD9330146
Probable space group: I 2 2 2
;
_chemical_formula_sum "Si O2"
_cell_formula_units_Z 48
_cell_length_a 29.818012
_cell_length_b 7.600393
_cell_length_c 9.436699
_cell_angle_alpha 90.000000
_cell_angle_beta 90.000000
_cell_angle_gamma 90.000000
_cell_volume 2138.625974
_symmetry_space_group_name_H-M "I 2 2 2"
_symmetry_group_IT_number 23
_symmetry_cell_setting 'orthorhombic'
loop_
_space_group_symop_operation_xyz
x,y,z
-x,-y,z
x,-y,-z
-x,y,-z
1/2+x,1/2+y,1/2+z
1/2-x,1/2-y,1/2+z
1/2+x,1/2-y,1/2-z
1/2-x,1/2+y,1/2-z
loop_
_atom_site_type_symbol
_atom_site_label
_atom_site_fract_x
_atom_site_fract_y
_atom_site_fract_z
Si Si1 0.617093 0.821147 0.286659
Si Si2 0.017947 0.808648 0.841956
Si Si3 0.884129 0.270549 0.890398
Si Si4 0.295193 0.102022 0.132816
Si Si5 0.713948 0.150861 0.381729
Si Si6 0.035265 0.325104 0.597664
O O1 0.611218 0.735666 0.440588
O O2 0.666524 0.800793 0.222556
O O3 0.582487 0.768462 0.163703
O O4 0.611247 0.027406 0.332360
O O5 0.071536 0.815493 0.827407
O O6 0.994443 0.671762 0.739585
O O7 0.000000 0.000000 0.805685
O O8 0.000000 0.768851 0.000000
O O9 0.831709 0.237171 0.859614
O O10 0.255851 0.228641 0.081091
O O11 0.275701 0.955148 0.238689
O O12 0.316298 0.000000 0.000000
O O13 0.704831 0.000000 0.500000
O O14 0.043959 0.500000 0.500000
O O15 0.000000 0.217839 0.500000
#
# Coordination Sequence:
#
# PCOD9330146 Si02
#       6
#     8   8   8   8   8   8
#     4  10  20  39  65  94 125 170 229 274 324 403
#     4  11  24  43  64  97 137 176 223 285 345 404
#     4  10  19  40  68  90 126 173 226 282 319 400
#     4  11  23  39  67  94 135 172 222 286 338 408
#     4  11  22  44  64 101 132 174 229 280 345 407
#     4  11  22  39  63  98 129 168 223 271 335 408
#
# _framework density 22.444319
#
# number of rings (size 3 to 8) (size 9 to 14) (size 15 to 20)
#    0.000    1.333    5.000    3.500    0.000    1.667 
#    6.000    0.000    0.000    0.000    0.000    0.000 
#    0.000    0.000    0.000    0.000    0.000    0.000 
#
# Total GULP energy -133738.872002 kJ/mol
# GULP energy per Si atom -5572.453000 kJ/mol
# Density = 2.239323 g / cm^3
# Si number density = 22.444319 Si / 1000 Ang^3
#
#
#
# Elastic Constant Matrix: (Units=GPa)
#
#
# Indices 1 2 3 4 5 6 
#
# 1 166.3891 28.1729 -5.1055 0.0000 0.0000 0.0000
# 2 28.1729 33.0957 15.2562 0.0000 0.0000 0.0000
# 3 -5.1055 15.2562 56.9542 0.0000 0.0000 0.0000
# 4 0.0000 0.0000 0.0000 13.0315 0.0000 0.0000
# 5 0.0000 0.0000 0.0000 0.0000 38.2473 0.0000
# 6 0.0000 0.0000 0.0000 0.0000 0.0000 34.4228
#
#
#
# Elastic Compliance Matrix: (Units=1/GPa)
#
#
# Indices 1 2 3 4 5 6 
#
# 1 0.007361 -0.007496 0.002668 0.000000 0.000000 0.000000
# 2 -0.007496 0.042105 -0.011951 0.000000 0.000000 0.000000
# 3 0.002668 -0.011951 0.020998 0.000000 0.000000 0.000000
# 4 0.000000 0.000000 0.000000 0.076737 0.000000 0.000000
# 5 0.000000 0.000000 0.000000 0.000000 0.026146 0.000000
# 6 0.000000 0.000000 0.000000 0.000000 0.000000 0.029051
#
#
# Mechanical properties :
#
#
# Convention : Reuss Voigt Hill
#
# Bulk Modulus (GPa) = 27.09503 37.00958 32.05230
# Shear Modulus (GPa) = 20.14036 31.68135 25.91085
#
# Velocity S-wave (km/s) = 2.99883 3.76114 3.40141
# Velocity P-wave (km/s) = 4.90805 5.94869 5.45325
#
# Compressibility (1/GPa) = 0.03690714
#
# Stress axis : x y z
#
# Youngs Moduli (GPa) = 135.84975 23.75000 47.62292
#
# Poissons Ratio (x) = 0.17803 -0.12705
# Poissons Ratio (y) = 1.01832 0.56912
# Poissons Ratio (z) = -0.36242 0.28383
#
# Static dielectric constant tensor:
#      x y z
#    x 1.778340 0.000000 0.000000 
#    y 0.000000 1.990440 0.000000 
#    z 0.000000 0.000000 1.763220 
# 
# From -- ./inp_files/13325.got.cif
#   From: 2010.05.17/outbox.cif.g08.bks.cpg/sg23_7_cif.got.tgz:13325.got - 2010.06.04 12:02:01.
