data_PCOD9330208
_publ_section_title
;
Structure prediction by ZEFSAII (Michael W. Deem and Ramdas Pophale) SiO2 
 PCOD9330208
Probable space group: I 2 2 2
;
_chemical_formula_sum "Si O2"
_cell_formula_units_Z 64
_cell_length_a 9.598364
_cell_length_b 18.968354
_cell_length_c 18.985319
_cell_angle_alpha 90.000000
_cell_angle_beta 90.000000
_cell_angle_gamma 90.000000
_cell_volume 3456.565259
_symmetry_space_group_name_H-M "I 2 2 2"
_symmetry_group_IT_number 23
_symmetry_cell_setting 'orthorhombic'
loop_
_space_group_symop_operation_xyz
x,y,z
-x,-y,z
x,-y,-z
-x,y,-z
1/2+x,1/2+y,1/2+z
1/2-x,1/2-y,1/2+z
1/2+x,1/2-y,1/2-z
1/2-x,1/2+y,1/2-z
loop_
_atom_site_type_symbol
_atom_site_label
_atom_site_fract_x
_atom_site_fract_y
_atom_site_fract_z
Si Si1 0.915880 0.566934 0.288960
Si Si2 0.564099 0.927613 0.622866
Si Si3 0.374934 0.720849 0.672414
Si Si4 0.666355 0.575807 0.039453
Si Si5 0.952952 0.872802 0.350709
Si Si6 0.814737 0.341007 0.080004
Si Si7 0.934805 0.278671 0.709784
Si Si8 0.916351 0.932293 0.792741
O O1 0.952236 0.575398 0.206378
O O2 0.959260 0.643036 0.320439
O O3 0.749606 0.554141 0.291351
O O4 0.000000 0.500000 0.317124
O O5 0.724301 0.928564 0.603301
O O6 0.469899 0.869820 0.585357
O O7 0.500000 0.000000 0.595540
O O8 0.328272 0.759613 0.601196
O O9 0.232852 0.721419 0.718804
O O10 0.487449 0.765137 0.716559
O O11 0.428734 0.641466 0.665256
O O12 0.524611 0.598652 0.078159
O O13 0.663030 0.500000 0.000000
O O14 0.735895 0.635261 0.989886
O O15 0.016651 0.913524 0.284008
O O16 0.785528 0.877426 0.360225
O O17 0.977054 0.789054 0.337376
O O18 0.000000 0.000000 0.819690
#
# Coordination Sequence:
#
# PCOD9330208 Si02
#       8
#     8   8   8   8   8   8   8   8
#     4  10  20  32  53  76 102 137 176 218 271 319
#     4  11  21  35  46  70 104 143 179 215 252 300
#     4   9  19  35  50  75  97 139 178 218 275 319
#     4  12  24  37  48  74 112 151 189 223 250 311
#     4  10  23  36  50  74 105 145 185 220 268 315
#     4  11  22  34  53  68 103 146 184 217 261 309
#     4   9  18  35  53  70 103 138 175 228 268 320
#     4  10  21  34  52  75 106 132 174 227 275 324
#
# _framework density 18.51549
#
# number of rings (size 3 to 8) (size 9 to 14) (size 15 to 20)
#    0.000    1.750    3.750    0.750    5.250    1.500 
#    0.000    0.000    0.000    0.000    0.000    0.000 
#    0.000   32.000    0.000    0.000    0.000    0.000 
#
# Total GULP energy -178306.944785 kJ/mol
# GULP energy per Si atom -5572.092025 kJ/mol
# Density = 1.847335 g / cm^3
# Si number density = 18.515490 Si / 1000 Ang^3
#
#
#
# Elastic Constant Matrix: (Units=GPa)
#
#
# Indices 1 2 3 4 5 6 
#
# 1 66.4431 42.4679 -5.6401 0.0000 0.0000 0.0000
# 2 42.4679 137.8296 21.0306 0.0000 0.0000 0.0000
# 3 -5.6401 21.0306 31.4580 0.0000 0.0000 0.0000
# 4 0.0000 0.0000 0.0000 13.2769 0.0000 0.0000
# 5 0.0000 0.0000 0.0000 0.0000 8.2707 0.0000
# 6 0.0000 0.0000 0.0000 0.0000 0.0000 31.2109
#
#
#
# Elastic Compliance Matrix: (Units=1/GPa)
#
#
# Indices 1 2 3 4 5 6 
#
# 1 0.020765 -0.007757 0.008909 0.000000 0.000000 0.000000
# 2 -0.007757 0.010978 -0.008730 0.000000 0.000000 0.000000
# 3 0.008909 -0.008730 0.039222 0.000000 0.000000 0.000000
# 4 0.000000 0.000000 0.000000 0.075319 0.000000 0.000000
# 5 0.000000 0.000000 0.000000 0.000000 0.120909 0.000000
# 6 0.000000 0.000000 0.000000 0.000000 0.000000 0.032040
#
#
# Mechanical properties :
#
#
# Convention : Reuss Voigt Hill
#
# Bulk Modulus (GPa) = 17.91854 39.04973 28.48414
# Shear Modulus (GPa) = 15.01541 22.40984 18.71262
#
# Velocity S-wave (km/s) = 2.85083 3.48275 3.18252
# Velocity P-wave (km/s) = 4.53155 6.10810 5.37791
#
# Compressibility (1/GPa) = 0.05580812
#
# Stress axis : x y z
#
# Youngs Moduli (GPa) = 48.15791 91.09486 25.49607
#
# Poissons Ratio (x) = 0.70667 -0.22715
# Poissons Ratio (y) = 0.37358 0.22257
# Poissons Ratio (z) = -0.42904 0.79523
#
# Static dielectric constant tensor:
#      x y z
#    x 1.707290 0.000000 0.000000 
#    y 0.000000 1.716620 0.000000 
#    z 0.000000 0.000000 1.653240 
# 
# From -- ./inp_files/26346.got.cif
#   From: 2010.05.17/outbox.cif.g08.bks.cpg/sg23_14_cif.got.tgz:26346.got - 2010.06.04 12:02:01.
