data_PCOD9330199
_publ_section_title
;
Structure prediction by ZEFSAII (Michael W. Deem and Ramdas Pophale) SiO2 
 PCOD9330199
Probable space group: I 2 2 2
;
_chemical_formula_sum "Si O2"
_cell_formula_units_Z 48
_cell_length_a 16.511289
_cell_length_b 5.049168
_cell_length_c 30.676403
_cell_angle_alpha 90.000000
_cell_angle_beta 90.000000
_cell_angle_gamma 90.000000
_cell_volume 2557.438711
_symmetry_space_group_name_H-M "I 2 2 2"
_symmetry_group_IT_number 23
_symmetry_cell_setting 'orthorhombic'
loop_
_space_group_symop_operation_xyz
x,y,z
-x,-y,z
x,-y,-z
-x,y,-z
1/2+x,1/2+y,1/2+z
1/2-x,1/2-y,1/2+z
1/2+x,1/2-y,1/2-z
1/2-x,1/2+y,1/2-z
loop_
_atom_site_type_symbol
_atom_site_label
_atom_site_fract_x
_atom_site_fract_y
_atom_site_fract_z
Si Si1 0.555684 0.740238 0.265732
Si Si2 0.055026 0.239800 0.665301
Si Si3 0.818649 0.101207 0.954364
Si Si4 0.272714 0.086804 0.136177
Si Si5 0.909509 0.606518 0.926843
Si Si6 0.317144 0.907530 0.664183
O O1 0.500000 0.500000 0.283357
O O2 0.577472 0.673905 0.215697
O O3 0.633927 0.810818 0.293946
O O4 0.500000 0.000000 0.265916
O O5 0.136658 0.308906 0.640128
O O6 0.000000 0.500000 0.666036
O O7 0.000000 0.000000 0.648168
O O8 0.757968 0.078629 0.913622
O O9 0.852789 0.397361 0.952202
O O10 0.892849 0.898399 0.945014
O O11 0.783424 0.000000 0.000000
O O12 0.216318 0.294709 0.162654
O O13 0.256409 0.795584 0.155285
O O14 0.878692 0.611413 0.876861
O O15 0.000000 0.500000 0.929667
#
# Coordination Sequence:
#
# PCOD9330199 Si02
#       6
#     8   8   8   8   8   8
#     4  10  20  33  51  76 108 145 179 213 254 299
#     4  10  21  37  56  78 103 133 172 218 269 321
#     4  10  21  35  51  74 102 135 172 213 263 310
#     4  10  21  36  54  77 102 134 174 215 265 317
#     4  10  20  32  49  74 105 141 177 210 245 295
#     4  10  20  33  51  76 107 141 176 211 250 300
#
# _framework density 18.768778999999999
#
# number of rings (size 3 to 8) (size 9 to 14) (size 15 to 20)
#    0.000    2.000    0.000    3.500    0.000    6.000 
#    0.000    0.000    0.000    0.500    0.000    1.167 
#    0.000    0.000    0.000    0.000    0.000    0.000 
#
# Total GULP energy -133992.289009 kJ/mol
# GULP energy per Si atom -5583.012042 kJ/mol
# Density = 1.872606 g / cm^3
# Si number density = 18.768779 Si / 1000 Ang^3
#
#
#
# Elastic Constant Matrix: (Units=GPa)
#
#
# Indices 1 2 3 4 5 6 
#
# 1 87.6401 8.2534 46.1245 0.0000 0.0000 0.0000
# 2 8.2534 78.6713 15.8609 0.0000 0.0000 0.0000
# 3 46.1245 15.8609 51.5141 0.0000 0.0000 0.0000
# 4 0.0000 0.0000 0.0000 39.7386 0.0000 0.0000
# 5 0.0000 0.0000 0.0000 0.0000 -0.3809 0.0000
# 6 0.0000 0.0000 0.0000 0.0000 0.0000 30.2054
#
#
#
# Elastic Compliance Matrix: (Units=1/GPa)
#
#
# Indices 1 2 3 4 5 6 
#
# 1 0.021805 0.001758 -0.020064 0.000000 0.000000 0.000000
# 2 0.001758 0.013694 -0.005790 0.000000 0.000000 0.000000
# 3 -0.020064 -0.005790 0.039160 0.000000 0.000000 0.000000
# 4 0.000000 0.000000 0.000000 0.025164 0.000000 0.000000
# 5 0.000000 0.000000 0.000000 0.000000 -2.625292 0.000000
# 6 0.000000 0.000000 0.000000 0.000000 0.000000 0.033107
#
#
# Mechanical properties :
#
#
# Convention : Reuss Voigt Hill
#
# Bulk Modulus (GPa) = 37.78579 39.81145 38.79862
# Shear Modulus (GPa) = -2.05310 23.75172 10.84931
#
# Velocity S-wave (km/s) = -1.04703 3.56123 2.40688
# Velocity P-wave (km/s) = 4.32600 6.17798 5.33300
#
# Compressibility (1/GPa) = 0.02646498
#
# Stress axis : x y z
#
# Youngs Moduli (GPa) = 45.86191 73.02428 25.53616
#
# Poissons Ratio (x) = -0.12835 0.51237
# Poissons Ratio (y) = -0.08061 0.14786
# Poissons Ratio (z) = 0.92020 0.42282
#
# Static dielectric constant tensor:
#      x y z
#    x 1.620300 0.000000 0.000000 
#    y 0.000000 1.654890 0.000000 
#    z 0.000000 0.000000 1.670720 
# 
# From -- ./inp_files/4902.got.cif
#   From: 2010.05.17/outbox.cif.g08.bks.cpg/sg23_3_cif.got.tgz:4902.got - 2010.06.04 12:02:01.
