data_PCOD9330541
_publ_section_title
;
Structure prediction by ZEFSAII (Michael W. Deem and Ramdas Pophale) SiO2 
 PCOD9330541
Probable space group: I 2 2 2
;
_chemical_formula_sum "Si O2"
_cell_formula_units_Z 56
_cell_length_a 13.745545
_cell_length_b 13.218136
_cell_length_c 14.279202
_cell_angle_alpha 90.000000
_cell_angle_beta 90.000000
_cell_angle_gamma 90.000000
_cell_volume 2594.395111
_symmetry_space_group_name_H-M "I 2 2 2"
_symmetry_group_IT_number 23
_symmetry_cell_setting 'orthorhombic'
loop_
_space_group_symop_operation_xyz
x,y,z
-x,-y,z
x,-y,-z
-x,y,-z
1/2+x,1/2+y,1/2+z
1/2-x,1/2-y,1/2+z
1/2+x,1/2-y,1/2-z
1/2-x,1/2+y,1/2-z
loop_
_atom_site_type_symbol
_atom_site_label
_atom_site_fract_x
_atom_site_fract_y
_atom_site_fract_z
Si Si1 0.940006 0.102155 0.654207
Si Si2 0.133154 0.434765 0.411564
Si Si3 0.764053 0.215437 0.302243
Si Si4 0.730525 0.500119 0.256862
Si Si5 0.959179 0.689860 0.256456
Si Si6 0.794095 0.216059 0.521101
Si Si7 0.643522 0.132449 0.657643
O O1 0.990879 0.203734 0.694837
O O2 0.876781 0.142742 0.565816
O O3 0.861896 0.067890 0.733294
O O4 0.000000 0.000000 0.632944
O O5 0.102400 0.500000 0.500000
O O6 0.212888 0.500270 0.354635
O O7 0.052502 0.394516 0.338044
O O8 0.181455 0.329105 0.444608
O O9 0.804634 0.114263 0.255368
O O10 0.648508 0.209560 0.283270
O O11 0.789481 0.215385 0.410438
O O12 0.807297 0.308814 0.245612
O O13 0.812154 0.478232 0.176315
O O14 0.031115 0.650050 0.176556
O O15 0.692411 0.179028 0.566104
#
# Coordination Sequence:
#
# PCOD9330541 Si02
#       7
#     8   8   8   8   8   8   8
#     4  10  20  38  64  92 126 164 225 265 331 398
#     4  10  20  38  64  92 126 164 225 265 331 398
#     4  11  21  41  63  89 133 168 219 272 328 399
#     4  10  20  38  62  88 120 174 200 272 332 372
#     4  10  22  40  63  96 128 176 211 277 341 382
#     4  10  22  40  63  96 128 176 211 277 341 382
#     4  11  21  41  63  89 133 168 219 272 328 399
#
# _framework density 21.584993999999998
#
# number of rings (size 3 to 8) (size 9 to 14) (size 15 to 20)
#    0.000    1.714    5.714    1.714    0.000    5.143 
#    0.000   14.286    0.000    7.286    0.000    0.000 
#    0.000    0.000    0.000    0.000    0.000    0.000 
#
# Total GULP energy -156369.462257 kJ/mol
# GULP energy per Si atom -5584.623652 kJ/mol
# Density = 2.153587 g / cm^3
# Si number density = 21.584994 Si / 1000 Ang^3
#
#
#
# Elastic Constant Matrix: (Units=GPa)
#
#
# Indices 1 2 3 4 5 6 
#
# 1 60.5841 11.7599 -4.8016 0.0000 0.0000 0.0000
# 2 11.7599 91.9136 2.6973 0.0000 0.0000 0.0000
# 3 -4.8016 2.6973 65.6792 0.0000 0.0000 0.0000
# 4 0.0000 0.0000 0.0000 22.6821 0.0000 0.0000
# 5 0.0000 0.0000 0.0000 0.0000 12.1354 0.0000
# 6 0.0000 0.0000 0.0000 0.0000 0.0000 27.9836
#
#
#
# Elastic Compliance Matrix: (Units=1/GPa)
#
#
# Indices 1 2 3 4 5 6 
#
# 1 0.017043 -0.002220 0.001337 0.000000 0.000000 0.000000
# 2 -0.002220 0.011182 -0.000622 0.000000 0.000000 0.000000
# 3 0.001337 -0.000622 0.015349 0.000000 0.000000 0.000000
# 4 0.000000 0.000000 0.000000 0.044088 0.000000 0.000000
# 5 0.000000 0.000000 0.000000 0.000000 0.082404 0.000000
# 6 0.000000 0.000000 0.000000 0.000000 0.000000 0.035735
#
#
# Mechanical properties :
#
#
# Convention : Reuss Voigt Hill
#
# Bulk Modulus (GPa) = 24.65163 26.38759 25.51961
# Shear Modulus (GPa) = 22.48905 26.46162 24.47533
#
# Velocity S-wave (km/s) = 3.23132 3.50512 3.37100
# Velocity P-wave (km/s) = 5.03661 5.35095 5.19616
#
# Compressibility (1/GPa) = 0.04056526
#
# Stress axis : x y z
#
# Youngs Moduli (GPa) = 58.67570 89.42913 65.15167
#
# Poissons Ratio (x) = 0.19851 -0.08711
# Poissons Ratio (y) = 0.13025 0.04049
# Poissons Ratio (z) = -0.07846 0.05558
#
# Static dielectric constant tensor:
#      x y z
#    x 1.848050 0.000000 0.000000 
#    y 0.000000 1.834010 0.000000 
#    z 0.000000 0.000000 1.754460 
# 
# From -- ./inp_files/21583.got.cif
#   From: 2010.05.17/outbox.cif.g08.bks.cpg/sg23_11_cif.got.tgz:21583.got - 2010.06.04 12:02:01.
