data_PCOD9330927
_publ_section_title
;
Structure prediction by ZEFSAII (Michael W. Deem and Ramdas Pophale) SiO2 
 PCOD9330927
Probable space group: I 2 2 2
;
_chemical_formula_sum "Si O2"
_cell_formula_units_Z 52
_cell_length_a 18.488669
_cell_length_b 22.659273
_cell_length_c 5.541656
_cell_angle_alpha 90.000000
_cell_angle_beta 90.000000
_cell_angle_gamma 90.000000
_cell_volume 2321.620247
_symmetry_space_group_name_H-M "I 2 2 2"
_symmetry_group_IT_number 23
_symmetry_cell_setting 'orthorhombic'
loop_
_space_group_symop_operation_xyz
x,y,z
-x,-y,z
x,-y,-z
-x,y,-z
1/2+x,1/2+y,1/2+z
1/2-x,1/2-y,1/2+z
1/2+x,1/2-y,1/2-z
1/2-x,1/2+y,1/2-z
loop_
_atom_site_type_symbol
_atom_site_label
_atom_site_fract_x
_atom_site_fract_y
_atom_site_fract_z
Si Si1 0.000000 0.642428 0.500000
Si Si2 0.351327 0.217975 0.981645
Si Si3 0.376490 0.355999 0.920725
Si Si4 0.762803 0.435064 0.112913
Si Si5 0.423120 0.409864 0.403069
Si Si6 0.691487 0.500000 0.500000
Si Si7 0.000000 0.357414 0.000000
Si Si8 0.342630 0.173709 0.482648
O O1 0.072173 0.682625 0.500562
O O2 0.998908 0.607975 0.249817
O O3 0.364917 0.286535 0.941363
O O4 0.312598 0.192917 0.741767
O O5 0.314284 0.204990 0.240337
O O6 0.302191 0.391960 0.965042
O O7 0.397768 0.373457 0.644070
O O8 0.426599 0.374470 0.150482
O O9 0.743401 0.451093 0.386725
O O10 0.832064 0.396021 0.059930
O O11 0.763271 0.500000 0.000000
O O12 0.500000 0.432217 0.500000
O O13 0.366641 0.462622 0.347049
O O14 0.928843 0.316459 0.001896
#
# Coordination Sequence:
#
# PCOD9330927 Si02
#       8
#     4   8   8   8   8   4   4   8
#     4   8  16  30  56  76 124 152 186 240 306 376
#     4  10  21  38  57  95 123 163 202 256 321 377
#     4  11  24  40  61  93 133 162 213 270 307 390
#     4  11  24  43  65  88 124 171 220 260 328 372
#     4  11  23  39  63  93 127 173 216 259 314 367
#     4  10  23  44  62  88 131 170 220 276 302 371
#     4   8  16  36  53  92 116 148 195 248 310 366
#     4  10  22  38  67  89 125 166 204 258 319 394
#
# _framework density 22.398150999999999
#
# number of rings (size 3 to 8) (size 9 to 14) (size 15 to 20)
#    0.000    1.846    1.538    1.615    4.308    1.231 
#    2.769    1.923    0.000    0.000    0.000    0.000 
#    0.000    0.000    0.000    0.000    0.000    0.000 
#
# Total GULP energy -144746.558796 kJ/mol
# GULP energy per Si atom -5567.175338 kJ/mol
# Density = 2.234717 g / cm^3
# Si number density = 22.398151 Si / 1000 Ang^3
#
#
#
# Elastic Constant Matrix: (Units=GPa)
#
#
# Indices 1 2 3 4 5 6 
#
# 1 47.1047 24.9592 17.7819 0.0000 0.0000 0.0000
# 2 24.9592 97.4025 32.0773 0.0000 0.0000 0.0000
# 3 17.7819 32.0773 185.8475 0.0000 0.0000 0.0000
# 4 0.0000 0.0000 0.0000 21.6037 0.0000 0.0000
# 5 0.0000 0.0000 0.0000 0.0000 15.8602 0.0000
# 6 0.0000 0.0000 0.0000 0.0000 0.0000 13.4295
#
#
#
# Elastic Compliance Matrix: (Units=1/GPa)
#
#
# Indices 1 2 3 4 5 6 
#
# 1 0.024883 -0.005929 -0.001357 0.000000 0.000000 0.000000
# 2 -0.005929 0.012298 -0.001555 0.000000 0.000000 0.000000
# 3 -0.001357 -0.001555 0.005779 0.000000 0.000000 0.000000
# 4 0.000000 0.000000 0.000000 0.046288 0.000000 0.000000
# 5 0.000000 0.000000 0.000000 0.000000 0.063051 0.000000
# 6 0.000000 0.000000 0.000000 0.000000 0.000000 0.074463
#
#
# Mechanical properties :
#
#
# Convention : Reuss Voigt Hill
#
# Bulk Modulus (GPa) = 39.56230 53.33240 46.44735
# Shear Modulus (GPa) = 19.77280 27.21444 23.49362
#
# Velocity S-wave (km/s) = 2.97440 3.48951 3.24220
# Velocity P-wave (km/s) = 5.43117 6.33233 5.89898
#
# Compressibility (1/GPa) = 0.02527659
#
# Stress axis : x y z
#
# Youngs Moduli (GPa) = 40.18732 81.31220 173.03749
#
# Poissons Ratio (x) = 0.48212 0.23489
# Poissons Ratio (y) = 0.23828 0.26914
# Poissons Ratio (z) = 0.05455 0.12647
#
# Static dielectric constant tensor:
#      x y z
#    x 1.899080 0.000000 0.000000 
#    y 0.000000 1.753900 0.000000 
#    z 0.000000 0.000000 2.001880 
# 
# From -- ./inp_files/3950.got.cif
#   From: 2010.05.17/outbox.cif.g08.bks.cpg/sg23_2_cif.got.tgz:3950.got - 2010.06.04 12:02:01.
