data_PCOD9330837
_publ_section_title
;
Structure prediction by ZEFSAII (Michael W. Deem and Ramdas Pophale) SiO2 
 PCOD9330837
Probable space group: I 2 2 2
;
_chemical_formula_sum "Si O2"
_cell_formula_units_Z 58
_cell_length_a 14.730500
_cell_length_b 16.954740
_cell_length_c 11.640098
_cell_angle_alpha 90.000000
_cell_angle_beta 90.000000
_cell_angle_gamma 90.000000
_cell_volume 2907.135399
_symmetry_space_group_name_H-M "I 2 2 2"
_symmetry_group_IT_number 23
_symmetry_cell_setting 'orthorhombic'
loop_
_space_group_symop_operation_xyz
x,y,z
-x,-y,z
x,-y,-z
-x,y,-z
1/2+x,1/2+y,1/2+z
1/2-x,1/2-y,1/2+z
1/2+x,1/2-y,1/2-z
1/2-x,1/2+y,1/2-z
loop_
_atom_site_type_symbol
_atom_site_label
_atom_site_fract_x
_atom_site_fract_y
_atom_site_fract_z
Si Si1 0.100965 0.832645 0.538575
Si Si2 0.883713 0.379980 0.157598
Si Si3 0.638256 0.791217 0.773318
Si Si4 0.500586 0.906207 0.868480
Si Si5 0.300539 0.532623 0.127409
Si Si6 0.000000 0.500000 0.000000
Si Si7 0.525319 0.282607 0.625073
Si Si8 0.170855 0.863894 0.287453
O O1 0.139293 0.763010 0.614740
O O2 0.110060 0.913899 0.610641
O O3 0.151904 0.844536 0.419825
O O4 0.000000 0.815373 0.500000
O O5 0.918196 0.377558 0.289206
O O6 0.780216 0.407424 0.157563
O O7 0.911655 0.295381 0.106813
O O8 0.939335 0.444763 0.082994
O O9 0.588474 0.872770 0.804948
O O10 0.568163 0.747274 0.686250
O O11 0.739456 0.813726 0.740025
O O12 0.500000 0.000000 0.868233
O O13 0.500000 0.878664 0.000000
O O14 0.310864 0.458319 0.211526
O O15 0.278257 0.500000 0.000000
O O16 0.500000 0.315936 0.500000
O O17 0.585977 0.338044 0.707876
#
# Coordination Sequence:
#
# PCOD9330837 Si02
#       8
#     8   8   8   8   8   2   8   8
#     4  11  23  46  68 101 126 178 233 287 335 392
#     4  11  21  36  62  99 132 171 211 281 340 403
#     4  11  24  41  67  94 136 175 219 276 341 410
#     4  10  21  36  58  91 132 176 210 258 331 412
#     4  10  23  38  67  98 131 167 229 279 335 389
#     4  12  20  32  62  96 138 160 210 274 352 400
#     4  11  25  41  65 100 136 175 220 275 350 411
#     4  11  25  42  66  99 134 177 226 284 339 406
#
# _framework density 19.950911000000001
#
# number of rings (size 3 to 8) (size 9 to 14) (size 15 to 20)
#    0.000    1.241    3.448    2.069    9.655    2.483 
#    0.000    0.000    0.000    1.655    0.000    0.000 
#    0.000    0.000    0.000    0.000    0.000    0.000 
#
# Total GULP energy -161913.865552 kJ/mol
# GULP energy per Si atom -5583.236743 kJ/mol
# Density = 1.990550 g / cm^3
# Si number density = 19.950911 Si / 1000 Ang^3
#
#
#
# Elastic Constant Matrix: (Units=GPa)
#
#
# Indices 1 2 3 4 5 6 
#
# 1 73.5612 41.2055 39.9217 0.0000 0.0000 0.0000
# 2 41.2055 76.5345 25.0494 0.0000 0.0000 0.0000
# 3 39.9217 25.0494 96.3655 0.0000 0.0000 0.0000
# 4 0.0000 0.0000 0.0000 38.3663 0.0000 0.0000
# 5 0.0000 0.0000 0.0000 0.0000 19.1950 0.0000
# 6 0.0000 0.0000 0.0000 0.0000 0.0000 29.3684
#
#
#
# Elastic Compliance Matrix: (Units=1/GPa)
#
#
# Indices 1 2 3 4 5 6 
#
# 1 0.023015 -0.010132 -0.006901 0.000000 0.000000 0.000000
# 2 -0.010132 0.018742 -0.000674 0.000000 0.000000 0.000000
# 3 -0.006901 -0.000674 0.013411 0.000000 0.000000 0.000000
# 4 0.000000 0.000000 0.000000 0.026065 0.000000 0.000000
# 5 0.000000 0.000000 0.000000 0.000000 0.052097 0.000000
# 6 0.000000 0.000000 0.000000 0.000000 0.000000 0.034050
#
#
# Mechanical properties :
#
#
# Convention : Reuss Voigt Hill
#
# Bulk Modulus (GPa) = 50.62424 50.97939 50.80181
# Shear Modulus (GPa) = 23.88021 26.73823 25.30922
#
# Velocity S-wave (km/s) = 3.46345 3.66485 3.56557
# Velocity P-wave (km/s) = 6.43610 6.59667 6.51688
#
# Compressibility (1/GPa) = 0.01975338
#
# Stress axis : x y z
#
# Youngs Moduli (GPa) = 43.45039 53.35650 74.56493
#
# Poissons Ratio (x) = 0.54063 0.51454
# Poissons Ratio (y) = 0.44026 0.05027
# Poissons Ratio (z) = 0.29983 0.03597
#
# Static dielectric constant tensor:
#      x y z
#    x 1.709300 0.000000 0.000000 
#    y 0.000000 1.730550 0.000000 
#    z 0.000000 0.000000 1.706490 
# 
# From -- ./inp_files/16949.got.cif
#   From: 2010.05.17/outbox.cif.g08.bks.cpg/sg23_9_cif.got.tgz:16949.got - 2010.06.04 12:02:01.
