data_PCOD9330256
_publ_section_title
;
Structure prediction by ZEFSAII (Michael W. Deem and Ramdas Pophale) SiO2 
 PCOD9330256
Probable space group: I 2 2 2
;
_chemical_formula_sum "Si O2"
_cell_formula_units_Z 40
_cell_length_a 21.378734
_cell_length_b 5.313229
_cell_length_c 14.597177
_cell_angle_alpha 90.000000
_cell_angle_beta 90.000000
_cell_angle_gamma 90.000000
_cell_volume 1658.094933
_symmetry_space_group_name_H-M "I 2 2 2"
_symmetry_group_IT_number 23
_symmetry_cell_setting 'orthorhombic'
loop_
_space_group_symop_operation_xyz
x,y,z
-x,-y,z
x,-y,-z
-x,y,-z
1/2+x,1/2+y,1/2+z
1/2-x,1/2-y,1/2+z
1/2+x,1/2-y,1/2-z
1/2-x,1/2+y,1/2-z
loop_
_atom_site_type_symbol
_atom_site_label
_atom_site_fract_x
_atom_site_fract_y
_atom_site_fract_z
Si Si1 0.904145 0.768943 0.755347
Si Si2 0.771647 0.575694 0.597520
Si Si3 0.320445 0.230546 0.746638
Si Si4 0.569568 0.251024 0.539688
Si Si5 0.912759 0.747140 0.557090
O O1 0.861674 0.519637 0.763432
O O2 0.938657 0.769563 0.851801
O O3 0.940988 0.754332 0.659450
O O4 0.862943 0.022238 0.750778
O O5 0.744338 0.500000 0.500000
O O6 0.728128 0.736913 0.664186
O O7 0.786089 0.324558 0.657162
O O8 0.837924 0.711387 0.575893
O O9 0.601240 0.500000 0.500000
O O10 0.500000 0.247860 0.500000
O O11 0.601258 0.000000 0.500000
O O12 0.930761 0.500000 0.500000
O O13 0.923984 0.000000 0.500000
#
# Coordination Sequence:
#
# PCOD9330256 Si02
#       5
#     8   8   8   8   8
#     4  11  22  38  57  84 117 147 195 259 294 350
#     4  10  21  37  53  73 112 161 201 242 292 337
#     4  11  23  36  55  82 114 156 208 251 294 341
#     4  10  22  41  64  90 117 152 191 234 307 388
#     4  10  20  34  54  79 108 150 196 234 283 338
#
# _framework density 24.12407
#
# number of rings (size 3 to 8) (size 9 to 14) (size 15 to 20)
#    0.000    1.600    0.000    7.200    0.000    5.600 
#    0.000    2.000    0.000    0.000    0.000   16.800 
#    0.000    0.000    0.000    0.000    0.000    0.000 
#
# Total GULP energy -111936.550684 kJ/mol
# GULP energy per Si atom -5596.827534 kJ/mol
# Density = 2.406916 g / cm^3
# Si number density = 24.124070 Si / 1000 Ang^3
#
#
#
# Elastic Constant Matrix: (Units=GPa)
#
#
# Indices 1 2 3 4 5 6 
#
# 1 52.0679 30.2356 43.4275 0.0000 0.0000 0.0000
# 2 30.2356 218.2413 82.4024 0.0000 0.0000 0.0000
# 3 43.4275 82.4024 289.0951 0.0000 0.0000 0.0000
# 4 0.0000 0.0000 0.0000 40.5344 0.0000 0.0000
# 5 0.0000 0.0000 0.0000 0.0000 17.2669 0.0000
# 6 0.0000 0.0000 0.0000 0.0000 0.0000 16.4122
#
#
#
# Elastic Compliance Matrix: (Units=1/GPa)
#
#
# Indices 1 2 3 4 5 6 
#
# 1 0.022775 -0.002088 -0.002826 0.000000 0.000000 0.000000
# 2 -0.002088 0.005326 -0.001204 0.000000 0.000000 0.000000
# 3 -0.002826 -0.001204 0.004227 0.000000 0.000000 0.000000
# 4 0.000000 0.000000 0.000000 0.024670 0.000000 0.000000
# 5 0.000000 0.000000 0.000000 0.000000 0.057914 0.000000
# 6 0.000000 0.000000 0.000000 0.000000 0.000000 0.060930
#
#
# Mechanical properties :
#
#
# Convention : Reuss Voigt Hill
#
# Bulk Modulus (GPa) = 49.77373 96.83726 73.30550
# Shear Modulus (GPa) = 25.67026 41.73195 33.70111
#
# Velocity S-wave (km/s) = 3.26558 4.16371 3.74169
# Velocity P-wave (km/s) = 5.90727 7.95888 7.00855
#
# Compressibility (1/GPa) = 0.02009092
#
# Stress axis : x y z
#
# Youngs Moduli (GPa) = 43.90688 187.75214 236.57966
#
# Poissons Ratio (x) = 0.39208 0.66859
# Poissons Ratio (y) = 0.09169 0.28495
# Poissons Ratio (z) = 0.12408 0.22614
#
# Static dielectric constant tensor:
#      x y z
#    x 1.506290 0.000000 0.000000 
#    y 0.000000 1.914220 0.000000 
#    z 0.000000 0.000000 1.939990 
# 
# From -- ./inp_files/5276.got.cif
#   From: 2010.05.17/outbox.cif.g08.bks.cpg/sg23_3_cif.got.tgz:5276.got - 2010.06.04 12:02:01.
