data_PCOD9330812
_publ_section_title
;
Structure prediction by ZEFSAII (Michael W. Deem and Ramdas Pophale) SiO2 
 PCOD9330812
Probable space group: I 2 2 2
;
_chemical_formula_sum "Si O2"
_cell_formula_units_Z 42
_cell_length_a 4.976829
_cell_length_b 20.840111
_cell_length_c 22.829185
_cell_angle_alpha 90.000000
_cell_angle_beta 90.000000
_cell_angle_gamma 90.000000
_cell_volume 2367.789849
_symmetry_space_group_name_H-M "I 2 2 2"
_symmetry_group_IT_number 23
_symmetry_cell_setting 'orthorhombic'
loop_
_space_group_symop_operation_xyz
x,y,z
-x,-y,z
x,-y,-z
-x,y,-z
1/2+x,1/2+y,1/2+z
1/2-x,1/2-y,1/2+z
1/2+x,1/2-y,1/2-z
1/2-x,1/2+y,1/2-z
loop_
_atom_site_type_symbol
_atom_site_label
_atom_site_fract_x
_atom_site_fract_y
_atom_site_fract_z
Si Si1 0.971711 0.227545 0.671611
Si Si2 0.000000 0.000000 0.000000
Si Si3 0.034313 0.336713 0.230663
Si Si4 0.617722 0.809306 0.065228
Si Si5 0.362983 0.606439 0.590715
Si Si6 0.747912 0.458899 0.707950
O O1 0.973754 0.292893 0.710546
O O2 0.711613 0.186612 0.690091
O O3 0.210724 0.185403 0.695004
O O4 0.042279 0.248921 0.605862
O O5 0.143348 0.049033 0.956047
O O6 0.096648 0.409138 0.249788
O O7 0.432500 0.865282 0.090521
O O8 0.919673 0.838362 0.072237
O O9 0.500000 0.799264 0.000000
O O10 0.404201 0.579280 0.655670
O O11 0.500000 0.500000 0.734883
O O12 0.000000 0.500000 0.683291
#
# Coordination Sequence:
#
# PCOD9330812 Si02
#       6
#     8   2   8   8   8   8
#     4  10  21  35  59  78 107 145 189 241 289 336
#     4  12  24  38  48  74 116 166 200 234 264 294
#     4  10  21  36  56  81 107 144 192 234 292 341
#     4  12  23  39  55  81 112 149 194 245 277 329
#     4  12  25  35  53  76 113 153 207 232 268 313
#     4  12  24  37  57  81 116 152 195 241 277 336
#
# _framework density 17.738060999999998
#
# number of rings (size 3 to 8) (size 9 to 14) (size 15 to 20)
#    0.000    0.762    4.762    3.429    5.333    0.762 
#    0.000    0.000    0.000    0.000    0.000    0.000 
#    0.000   11.429    0.000    0.000    0.000    0.000 
#
# Total GULP energy -117016.705555 kJ/mol
# GULP energy per Si atom -5572.224074 kJ/mol
# Density = 1.769769 g / cm^3
# Si number density = 17.738061 Si / 1000 Ang^3
#
#
#
# Elastic Constant Matrix: (Units=GPa)
#
#
# Indices 1 2 3 4 5 6 
#
# 1 110.7487 16.6053 19.8759 0.0000 0.0000 0.0000
# 2 16.6053 45.7202 45.2721 0.0000 0.0000 0.0000
# 3 19.8759 45.2721 76.7589 0.0000 0.0000 0.0000
# 4 0.0000 0.0000 0.0000 -116.0920 0.0000 0.0000
# 5 0.0000 0.0000 0.0000 0.0000 2.3998 0.0000
# 6 0.0000 0.0000 0.0000 0.0000 0.0000 27.6686
#
#
#
# Elastic Compliance Matrix: (Units=1/GPa)
#
#
# Indices 1 2 3 4 5 6 
#
# 1 0.009583 -0.002460 -0.001030 0.000000 0.000000 0.000000
# 2 -0.002460 0.053211 -0.030746 0.000000 0.000000 0.000000
# 3 -0.001030 -0.030746 0.031429 0.000000 0.000000 0.000000
# 4 0.000000 0.000000 0.000000 -0.008614 0.000000 0.000000
# 5 0.000000 0.000000 0.000000 0.000000 0.416710 0.000000
# 6 0.000000 0.000000 0.000000 0.000000 0.000000 0.036142
#
#
# Mechanical properties :
#
#
# Convention : Reuss Voigt Hill
#
# Bulk Modulus (GPa) = 38.83713 44.08160 41.45937
# Shear Modulus (GPa) = 8.12324 -7.10643 0.50840
#
# Velocity S-wave (km/s) = 2.14231 -2.00375 0.53595
# Velocity P-wave (km/s) = 5.29733 4.42177 4.87923
#
# Compressibility (1/GPa) = 0.02574856
#
# Stress axis : x y z
#
# Youngs Moduli (GPa) = 104.34861 18.79317 31.81796
#
# Poissons Ratio (x) = 0.04624 0.03279
# Poissons Ratio (y) = 0.25672 0.97829
# Poissons Ratio (z) = 0.10753 0.57782
#
# Static dielectric constant tensor:
#      x y z
#    x 1.600690 0.000000 0.000000 
#    y 0.000000 1.627580 0.000000 
#    z 0.000000 0.000000 1.619610 
# 
# From -- ./inp_files/25689.got.cif
#   From: 2010.05.17/outbox.cif.g08.bks.cpg/sg23_13_cif.got.tgz:25689.got - 2010.06.04 12:02:01.
