data_PCOD9330835
_publ_section_title
;
Structure prediction by ZEFSAII (Michael W. Deem and Ramdas Pophale) SiO2 
 PCOD9330835
Probable space group: I 2 2 2
;
_chemical_formula_sum "Si O2"
_cell_formula_units_Z 54
_cell_length_a 20.762526
_cell_length_b 11.195249
_cell_length_c 13.836879
_cell_angle_alpha 90.000000
_cell_angle_beta 90.000000
_cell_angle_gamma 90.000000
_cell_volume 3216.266964
_symmetry_space_group_name_H-M "I 2 2 2"
_symmetry_group_IT_number 23
_symmetry_cell_setting 'orthorhombic'
loop_
_space_group_symop_operation_xyz
x,y,z
-x,-y,z
x,-y,-z
-x,y,-z
1/2+x,1/2+y,1/2+z
1/2-x,1/2-y,1/2+z
1/2+x,1/2-y,1/2-z
1/2-x,1/2+y,1/2-z
loop_
_atom_site_type_symbol
_atom_site_label
_atom_site_fract_x
_atom_site_fract_y
_atom_site_fract_z
Si Si1 0.185478 0.361364 0.522812
Si Si2 0.215630 0.000000 0.500000
Si Si3 0.573586 0.645136 0.505924
Si Si4 0.607653 0.655713 0.105454
Si Si5 0.815437 0.881309 0.150798
Si Si6 0.352487 0.653466 0.682569
Si Si7 0.500000 0.500000 0.000000
Si Si8 0.233217 0.803976 0.647929
O O1 0.173110 0.500000 0.500000
O O2 0.126013 0.289983 0.571902
O O3 0.250496 0.353270 0.589412
O O4 0.200901 0.292663 0.422828
O O5 0.169217 0.917786 0.434771
O O6 0.250426 0.914339 0.576728
O O7 0.571717 0.500000 0.500000
O O8 0.500000 0.686523 0.500000
O O9 0.621572 0.669636 0.595538
O O10 0.607440 0.691673 0.409969
O O11 0.606552 0.645652 0.220499
O O12 0.546197 0.588530 0.060879
O O13 0.810769 0.840514 0.261791
O O14 0.822953 0.024495 0.155991
O O15 0.295477 0.746342 0.695852
#
# Coordination Sequence:
#
# PCOD9330835 Si02
#       8
#     8   4   8   8   8   8   2   8
#     4  11  20  35  54  85 118 149 186 242 297 348
#     4   9  20  35  48  84 117 141 184 228 285 356
#     4   9  19  34  51  78 113 151 185 224 282 351
#     4  10  21  36  58  79 115 148 190 235 291 351
#     4  11  19  33  54  83 122 148 188 241 296 350
#     4  11  19  33  55  84 113 150 186 240 291 351
#     4  10  24  44  54  84 118 154 190 250 294 338
#     4  11  20  32  56  82 121 151 187 239 303 344
#
# _framework density 16.789650999999999
#
# number of rings (size 3 to 8) (size 9 to 14) (size 15 to 20)
#    0.000    1.630    5.926    0.444    0.000    2.370 
#    0.000    0.370    0.000    0.000    0.000    0.519 
#    0.000    0.000    0.000    0.000    0.000    0.000 
#
# Total GULP energy -150395.035611 kJ/mol
# GULP energy per Si atom -5570.186504 kJ/mol
# Density = 1.675144 g / cm^3
# Si number density = 16.789651 Si / 1000 Ang^3
#
#
#
# Elastic Constant Matrix: (Units=GPa)
#
#
# Indices 1 2 3 4 5 6 
#
# 1 83.5085 32.2131 43.7155 0.0000 0.0000 0.0000
# 2 32.2131 73.9822 32.2380 0.0000 0.0000 0.0000
# 3 43.7155 32.2380 124.6853 0.0000 0.0000 0.0000
# 4 0.0000 0.0000 0.0000 26.6081 0.0000 0.0000
# 5 0.0000 0.0000 0.0000 0.0000 17.5052 0.0000
# 6 0.0000 0.0000 0.0000 0.0000 0.0000 15.8775
#
#
#
# Elastic Compliance Matrix: (Units=1/GPa)
#
#
# Indices 1 2 3 4 5 6 
#
# 1 0.016255 -0.005178 -0.004360 0.000000 0.000000 0.000000
# 2 -0.005178 0.016882 -0.002550 0.000000 0.000000 0.000000
# 3 -0.004360 -0.002550 0.010208 0.000000 0.000000 0.000000
# 4 0.000000 0.000000 0.000000 0.037583 0.000000 0.000000
# 5 0.000000 0.000000 0.000000 0.000000 0.057126 0.000000
# 6 0.000000 0.000000 0.000000 0.000000 0.000000 0.062982
#
#
# Mechanical properties :
#
#
# Convention : Reuss Voigt Hill
#
# Bulk Modulus (GPa) = 52.16502 55.38991 53.77746
# Shear Modulus (GPa) = 21.58889 23.59878 22.59383
#
# Velocity S-wave (km/s) = 3.58976 3.75314 3.67236
# Velocity P-wave (km/s) = 6.95119 7.20025 7.07681
#
# Compressibility (1/GPa) = 0.01916993
#
# Stress axis : x y z
#
# Youngs Moduli (GPa) = 61.52105 59.23406 97.96062
#
# Poissons Ratio (x) = 0.30668 0.42714
# Poissons Ratio (y) = 0.31853 0.24977
# Poissons Ratio (z) = 0.26825 0.15103
#
# Static dielectric constant tensor:
#      x y z
#    x 1.589220 0.000000 0.000000 
#    y 0.000000 1.596730 0.000000 
#    z 0.000000 0.000000 1.578940 
# 
# From -- ./inp_files/18027.got.cif
#   From: 2010.05.17/outbox.cif.g08.bks.cpg/sg23_10_cif.got.tgz:18027.got - 2010.06.04 12:02:01.
