data_PCOD9330414
_publ_section_title
;
Structure prediction by ZEFSAII (Michael W. Deem and Ramdas Pophale) SiO2 
 PCOD9330414
Probable space group: I 2 2 2
;
_chemical_formula_sum "Si O2"
_cell_formula_units_Z 54
_cell_length_a 8.243878
_cell_length_b 17.032732
_cell_length_c 19.932848
_cell_angle_alpha 90.000000
_cell_angle_beta 90.000000
_cell_angle_gamma 90.000000
_cell_volume 2798.886093
_symmetry_space_group_name_H-M "I 2 2 2"
_symmetry_group_IT_number 23
_symmetry_cell_setting 'orthorhombic'
loop_
_space_group_symop_operation_xyz
x,y,z
-x,-y,z
x,-y,-z
-x,y,-z
1/2+x,1/2+y,1/2+z
1/2-x,1/2-y,1/2+z
1/2+x,1/2-y,1/2-z
1/2-x,1/2+y,1/2-z
loop_
_atom_site_type_symbol
_atom_site_label
_atom_site_fract_x
_atom_site_fract_y
_atom_site_fract_z
Si Si1 0.441657 0.083027 0.398360
Si Si2 0.604675 0.846020 0.722057
Si Si3 0.376240 0.360786 0.587009
Si Si4 0.457624 0.323245 0.282430
Si Si5 0.000000 0.000000 0.000000
Si Si6 0.500000 0.781056 0.500000
Si Si7 0.116537 0.436598 0.673360
Si Si8 0.343037 0.446551 0.792488
O O1 0.586642 0.106242 0.346759
O O2 0.418064 0.156725 0.448346
O O3 0.282571 0.067127 0.352657
O O4 0.500000 0.000000 0.428209
O O5 0.512501 0.765312 0.708622
O O6 0.783066 0.831623 0.749538
O O7 0.501527 0.890239 0.777648
O O8 0.517911 0.360244 0.643664
O O9 0.396567 0.439471 0.543907
O O10 0.391540 0.281227 0.543176
O O11 0.210452 0.375059 0.627094
O O12 0.584664 0.364233 0.232547
O O13 0.246417 0.476112 0.725498
O O14 0.000000 0.500000 0.638226
O O15 0.500000 0.500000 0.807333
#
# Coordination Sequence:
#
# PCOD9330414 Si02
#       8
#     8   8   8   8   2   4   8   8
#     4  11  22  39  64  93 122 168 213 262 317 383
#     4  11  21  36  62  98 127 153 204 260 328 373
#     4  10  23  41  64  88 123 170 213 251 299 377
#     4  11  21  35  64  93 124 164 197 266 317 372
#     4  10  24  40  64  84 122 172 220 226 296 378
#     4  11  23  43  65  84 124 174 223 249 309 383
#     4  10  21  36  62  97 125 158 199 260 320 369
#     4  10  20  36  60  98 127 155 202 261 330 374
#
# _framework density 19.293389000000001
#
# number of rings (size 3 to 8) (size 9 to 14) (size 15 to 20)
#    0.000    1.481    1.481    6.444    6.222    0.000 
#    0.000    0.370    0.000    9.778    0.000    0.000 
#    0.000    0.000    0.000    0.000    0.000    0.000 
#
# Total GULP energy -150551.405505 kJ/mol
# GULP energy per Si atom -5575.977982 kJ/mol
# Density = 1.924948 g / cm^3
# Si number density = 19.293389 Si / 1000 Ang^3
#
#
#
# Elastic Constant Matrix: (Units=GPa)
#
#
# Indices 1 2 3 4 5 6 
#
# 1 101.2771 33.8080 43.4434 0.0000 0.0000 0.0000
# 2 33.8080 131.2525 52.4668 0.0000 0.0000 0.0000
# 3 43.4434 52.4668 89.5616 0.0000 0.0000 0.0000
# 4 0.0000 0.0000 0.0000 29.2685 0.0000 0.0000
# 5 0.0000 0.0000 0.0000 0.0000 10.3209 0.0000
# 6 0.0000 0.0000 0.0000 0.0000 0.0000 26.3772
#
#
#
# Elastic Compliance Matrix: (Units=1/GPa)
#
#
# Indices 1 2 3 4 5 6 
#
# 1 0.012577 -0.001046 -0.005488 0.000000 0.000000 0.000000
# 2 -0.001046 0.010036 -0.005372 0.000000 0.000000 0.000000
# 3 -0.005488 -0.005372 0.016974 0.000000 0.000000 0.000000
# 4 0.000000 0.000000 0.000000 0.034166 0.000000 0.000000
# 5 0.000000 0.000000 0.000000 0.000000 0.096891 0.000000
# 6 0.000000 0.000000 0.000000 0.000000 0.000000 0.037911
#
#
# Mechanical properties :
#
#
# Convention : Reuss Voigt Hill
#
# Bulk Modulus (GPa) = 63.38787 64.61417 64.00102
# Shear Modulus (GPa) = 21.04146 26.01820 23.52983
#
# Velocity S-wave (km/s) = 3.30601 3.67625 3.49604
# Velocity P-wave (km/s) = 6.89195 7.18212 7.03853
#
# Compressibility (1/GPa) = 0.01577589
#
# Stress axis : x y z
#
# Youngs Moduli (GPa) = 79.50914 99.64552 58.91202
#
# Poissons Ratio (x) = 0.10421 0.32332
# Poissons Ratio (y) = 0.08315 0.31646
# Poissons Ratio (z) = 0.43636 0.53527
#
# Static dielectric constant tensor:
#      x y z
#    x 1.671120 0.000000 0.000000 
#    y 0.000000 1.747710 0.000000 
#    z 0.000000 0.000000 1.714200 
# 
# From -- ./inp_files/26340.got.cif
#   From: 2010.05.17/outbox.cif.g08.bks.cpg/sg23_14_cif.got.tgz:26340.got - 2010.06.04 12:02:01.
