data_PCOD9330564
_publ_section_title
;
Structure prediction by ZEFSAII (Michael W. Deem and Ramdas Pophale) SiO2 
 PCOD9330564
Probable space group: I 2 2 2
;
_chemical_formula_sum "Si O2"
_cell_formula_units_Z 58
_cell_length_a 18.258260
_cell_length_b 16.993331
_cell_length_c 8.808807
_cell_angle_alpha 90.000000
_cell_angle_beta 90.000000
_cell_angle_gamma 90.000000
_cell_volume 2733.096706
_symmetry_space_group_name_H-M "I 2 2 2"
_symmetry_group_IT_number 23
_symmetry_cell_setting 'orthorhombic'
loop_
_space_group_symop_operation_xyz
x,y,z
-x,-y,z
x,-y,-z
-x,y,-z
1/2+x,1/2+y,1/2+z
1/2-x,1/2-y,1/2+z
1/2+x,1/2-y,1/2-z
1/2-x,1/2+y,1/2-z
loop_
_atom_site_type_symbol
_atom_site_label
_atom_site_fract_x
_atom_site_fract_y
_atom_site_fract_z
Si Si1 0.701402 0.005258 0.336842
Si Si2 0.805503 0.074054 0.909138
Si Si3 0.500000 0.500000 0.000000
Si Si4 0.956761 0.430100 0.161334
Si Si5 0.503672 0.239837 0.681710
Si Si6 0.252895 0.844808 0.199994
Si Si7 0.598575 0.362704 0.870226
Si Si8 0.858425 0.205720 0.698267
O O1 0.749933 0.964454 0.209767
O O2 0.625574 0.959519 0.354928
O O3 0.740123 0.000000 0.500000
O O4 0.692061 0.095228 0.284971
O O5 0.855969 0.132153 0.813301
O O6 0.760225 0.126414 0.028743
O O7 0.840189 0.000000 0.000000
O O8 0.554290 0.556736 0.096698
O O9 0.958420 0.342597 0.223431
O O10 0.000000 0.500000 0.246440
O O11 0.000000 0.422532 0.000000
O O12 0.500000 0.252096 0.500000
O O13 0.545552 0.308568 0.769284
O O14 0.421531 0.237401 0.742407
O O15 0.175566 0.862672 0.281484
O O16 0.283321 0.756184 0.201685
O O17 0.618932 0.324708 0.032830
#
# Coordination Sequence:
#
# PCOD9330564 Si02
#       8
#     8   8   2   8   8   8   8   8
#     4  11  22  40  68 101 139 187 232 296 356 434
#     4  10  25  43  65 104 141 180 236 300 362 429
#     4  12  28  52  74 104 142 200 264 300 380 460
#     4  10  20  38  65 100 141 186 234 281 349 444
#     4  11  25  44  70 105 147 187 244 296 372 443
#     4  11  26  42  71 104 144 187 250 301 377 433
#     4  12  27  49  75 106 146 200 249 315 375 455
#     4  12  24  46  70 104 142 191 241 309 366 439
#
# _framework density 21.221350000000001
#
# number of rings (size 3 to 8) (size 9 to 14) (size 15 to 20)
#    0.000    0.966    2.759    3.310   10.621    0.000 
#    0.000    0.345    0.000    0.000    0.000    0.000 
#    0.000    0.000    0.000    0.000    0.000    0.000 
#
# Total GULP energy -162001.708096 kJ/mol
# GULP energy per Si atom -5586.265796 kJ/mol
# Density = 2.117305 g / cm^3
# Si number density = 21.221350 Si / 1000 Ang^3
#
#
#
# Elastic Constant Matrix: (Units=GPa)
#
#
# Indices 1 2 3 4 5 6 
#
# 1 93.0532 45.6983 28.8974 0.0000 0.0000 0.0000
# 2 45.6983 144.2774 50.1720 0.0000 0.0000 0.0000
# 3 28.8974 50.1720 131.2315 0.0000 0.0000 0.0000
# 4 0.0000 0.0000 0.0000 13.0642 0.0000 0.0000
# 5 0.0000 0.0000 0.0000 0.0000 21.4370 0.0000
# 6 0.0000 0.0000 0.0000 0.0000 0.0000 31.3679
#
#
#
# Elastic Compliance Matrix: (Units=1/GPa)
#
#
# Indices 1 2 3 4 5 6 
#
# 1 0.012971 -0.003593 -0.001483 0.000000 0.000000 0.000000
# 2 -0.003593 0.008989 -0.002646 0.000000 0.000000 0.000000
# 3 -0.001483 -0.002646 0.008958 0.000000 0.000000 0.000000
# 4 0.000000 0.000000 0.000000 0.076545 0.000000 0.000000
# 5 0.000000 0.000000 0.000000 0.000000 0.046648 0.000000
# 6 0.000000 0.000000 0.000000 0.000000 0.000000 0.031880
#
#
# Mechanical properties :
#
#
# Convention : Reuss Voigt Hill
#
# Bulk Modulus (GPa) = 64.61502 68.67751 66.64626
# Shear Modulus (GPa) = 24.20222 29.42679 26.81451
#
# Velocity S-wave (km/s) = 3.38074 3.72783 3.55852
# Velocity P-wave (km/s) = 6.76413 7.13874 6.95396
#
# Compressibility (1/GPa) = 0.01547628
#
# Stress axis : x y z
#
# Youngs Moduli (GPa) = 77.09215 111.24589 111.63166
#
# Poissons Ratio (x) = 0.39970 0.16551
# Poissons Ratio (y) = 0.27699 0.29532
# Poissons Ratio (z) = 0.11430 0.29430
#
# Static dielectric constant tensor:
#      x y z
#    x 1.797550 0.000000 0.000000 
#    y 0.000000 1.821010 0.000000 
#    z 0.000000 0.000000 1.790760 
# 
# From -- ./inp_files/11271.got.cif
#   From: 2010.05.17/outbox.cif.g08.bks.cpg/sg23_6_cif.got.tgz:11271.got - 2010.06.04 12:02:01.
