data_PCOD9330021
_publ_section_title
;
Structure prediction by ZEFSAII (Michael W. Deem and Ramdas Pophale) SiO2 
 PCOD9330021
Probable space group: I 2 2 2
;
_chemical_formula_sum "Si O2"
_cell_formula_units_Z 58
_cell_length_a 8.847463
_cell_length_b 26.853921
_cell_length_c 10.549260
_cell_angle_alpha 90.000000
_cell_angle_beta 90.000000
_cell_angle_gamma 90.000000
_cell_volume 2506.388898
_symmetry_space_group_name_H-M "I 2 2 2"
_symmetry_group_IT_number 23
_symmetry_cell_setting 'orthorhombic'
loop_
_space_group_symop_operation_xyz
x,y,z
-x,-y,z
x,-y,-z
-x,y,-z
1/2+x,1/2+y,1/2+z
1/2-x,1/2-y,1/2+z
1/2+x,1/2-y,1/2-z
1/2-x,1/2+y,1/2-z
loop_
_atom_site_type_symbol
_atom_site_label
_atom_site_fract_x
_atom_site_fract_y
_atom_site_fract_z
Si Si1 0.000000 0.000000 0.500000
Si Si2 0.668045 0.582201 0.155282
Si Si3 0.548605 0.667947 0.852468
Si Si4 0.066447 0.656881 0.621797
Si Si5 0.141644 0.372035 0.925659
Si Si6 0.022768 0.558174 0.730584
Si Si7 0.677332 0.289847 0.515363
Si Si8 0.626162 0.233771 0.762503
O O1 0.096811 0.034545 0.590595
O O2 0.539168 0.619582 0.201183
O O3 0.798708 0.566267 0.249466
O O4 0.758162 0.609607 0.043248
O O5 0.727599 0.654985 0.841647
O O6 0.474853 0.717385 0.795093
O O7 0.500000 0.670914 0.000000
O O8 0.993891 0.602579 0.631359
O O9 0.240238 0.663654 0.586337
O O10 0.000000 0.684766 0.500000
O O11 0.997365 0.688455 0.737292
O O12 0.071962 0.420017 0.850794
O O13 0.000000 0.346677 0.000000
O O14 0.000000 0.500000 0.705531
O O15 0.500000 0.298707 0.500000
O O16 0.693753 0.247621 0.624315
O O17 0.754261 0.274953 0.379510
#
# Coordination Sequence:
#
# PCOD9330021 Si02
#       8
#     2   8   8   8   8   8   8   8
#     4  12  16  32  54  80 132 178 202 248 338 392
#     4  10  20  32  55  86 131 172 214 263 339 402
#     4  10  19  36  58  92 133 179 223 281 338 418
#     4  10  24  45  64  92 129 174 221 279 347 406
#     4   9  19  36  56  92 131 173 220 271 340 407
#     4  11  23  38  60  89 122 171 229 287 330 404
#     4  11  24  44  73 105 138 183 227 279 346 421
#     4  11  24  44  71 103 144 180 224 280 348 422
#
# _framework density 23.14086
#
# number of rings (size 3 to 8) (size 9 to 14) (size 15 to 20)
#    0.000    1.655    2.069    3.724    0.000    7.724 
#    0.000    9.655    0.000    0.000    0.000    0.000 
#    0.000    0.000    0.000    0.000    0.000    0.000 
#
# Total GULP energy -161666.407749 kJ/mol
# GULP energy per Si atom -5574.703715 kJ/mol
# Density = 2.308819 g / cm^3
# Si number density = 23.140860 Si / 1000 Ang^3
#
#
#
# Elastic Constant Matrix: (Units=GPa)
#
#
# Indices 1 2 3 4 5 6 
#
# 1 142.4258 34.4880 31.9369 0.0001 -0.0002 0.0000
# 2 34.4880 131.5887 16.8444 -0.0002 -0.0004 0.0000
# 3 31.9369 16.8444 98.6770 0.0001 0.0035 -0.0010
# 4 0.0001 -0.0002 0.0001 24.4366 0.0001 -0.0001
# 5 -0.0002 -0.0004 0.0035 0.0001 7.6135 -0.0005
# 6 0.0000 0.0000 -0.0010 -0.0001 -0.0005 35.0866
#
#
#
# Elastic Compliance Matrix: (Units=1/GPa)
#
#
# Indices 1 2 3 4 5 6 
#
# 1 0.007966 -0.001797 -0.002271 0.000000 0.000001 0.000000
# 2 -0.001797 0.008175 -0.000814 0.000000 0.000001 0.000000
# 3 -0.002271 -0.000814 0.011008 0.000000 -0.000005 0.000000
# 4 0.000000 0.000000 0.000000 0.040922 -0.000001 0.000000
# 5 0.000001 0.000001 -0.000005 -0.000001 0.131345 0.000002
# 6 0.000000 0.000000 0.000000 0.000000 0.000002 0.028501
#
#
# Mechanical properties :
#
#
# Convention : Reuss Voigt Hill
#
# Bulk Modulus (GPa) = 57.52391 59.91445 58.71918
# Shear Modulus (GPa) = 20.53591 32.72215 26.62903
#
# Velocity S-wave (km/s) = 2.98221 3.76445 3.39593
# Velocity P-wave (km/s) = 6.06385 6.69643 6.38797
#
# Compressibility (1/GPa) = 0.01738407
#
# Stress axis : x y z
#
# Youngs Moduli (GPa) = 125.53914 122.33046 90.84205
#
# Poissons Ratio (x) = 0.21982 0.20633
# Poissons Ratio (y) = 0.22559 0.07393
# Poissons Ratio (z) = 0.28514 0.09956
#
# Static dielectric constant tensor:
#      x y z
#    x 1.991050 0.000000 0.000000 
#    y 0.000000 2.218120 0.000000 
#    z 0.000000 0.000000 1.930590 
# 
# From -- ./inp_files/14923.got.cif
#   From: 2010.05.17/outbox.cif.g08.bks.cpg/sg23_8_cif.got.tgz:14923.got - 2010.06.04 12:02:01.
