data_PCOD9330026
_publ_section_title
;
Structure prediction by ZEFSAII (Michael W. Deem and Ramdas Pophale) SiO2 
 PCOD9330026
Probable space group: I 2 2 2
;
_chemical_formula_sum "Si O2"
_cell_formula_units_Z 32
_cell_length_a 5.188163
_cell_length_b 19.578203
_cell_length_c 13.159013
_cell_angle_alpha 90.000000
_cell_angle_beta 90.000000
_cell_angle_gamma 90.000000
_cell_volume 1336.625540
_symmetry_space_group_name_H-M "I 2 2 2"
_symmetry_group_IT_number 23
_symmetry_cell_setting 'orthorhombic'
loop_
_space_group_symop_operation_xyz
x,y,z
-x,-y,z
x,-y,-z
-x,y,-z
1/2+x,1/2+y,1/2+z
1/2-x,1/2-y,1/2+z
1/2+x,1/2-y,1/2-z
1/2-x,1/2+y,1/2-z
loop_
_atom_site_type_symbol
_atom_site_label
_atom_site_fract_x
_atom_site_fract_y
_atom_site_fract_z
Si Si1 0.177744 0.304086 0.139609
Si Si2 0.246966 0.959145 0.359584
Si Si3 0.500000 0.390264 0.500000
Si Si4 0.820635 0.719586 0.381546
Si Si5 0.500000 0.500000 0.660226
O O1 0.238862 0.381008 0.108373
O O2 0.186852 0.301826 0.262679
O O3 0.396969 0.251501 0.102548
O O4 0.895162 0.278881 0.108378
O O5 0.205362 0.965956 0.236747
O O6 0.500000 0.000000 0.386529
O O7 0.000000 0.000000 0.396832
O O8 0.284122 0.343075 0.448017
O O9 0.393123 0.440327 0.587896
#
# Coordination Sequence:
#
# PCOD9330026 Si02
#       5
#     8   8   4   8   4
#     4  10  20  37  55  84 112 161 208 243 285 353
#     4  10  19  36  59  87 116 156 196 246 296 353
#     4  11  20  42  54  94 125 168 190 248 311 372
#     4  10  21  35  58  77 120 162 203 243 287 354
#     4   9  22  36  58  90 130 159 192 239 310 388
#
# _framework density 23.940885000000002
#
# number of rings (size 3 to 8) (size 9 to 14) (size 15 to 20)
#    0.750    1.250    2.500    1.500    0.000    3.000 
#    4.500    1.250    0.000    0.000    0.000   13.125 
#    0.000    0.000    0.000    0.000    0.000    0.000 
#
# Total GULP energy -89531.060936 kJ/mol
# GULP energy per Si atom -5595.691308 kJ/mol
# Density = 2.388639 g / cm^3
# Si number density = 23.940885 Si / 1000 Ang^3
#
#
#
# Elastic Constant Matrix: (Units=GPa)
#
#
# Indices 1 2 3 4 5 6 
#
# 1 129.7638 33.9435 7.5870 0.0000 0.0000 0.0000
# 2 33.9435 151.0467 25.8461 0.0000 0.0000 0.0000
# 3 7.5870 25.8461 117.4084 0.0000 0.0000 0.0000
# 4 0.0000 0.0000 0.0000 37.0158 0.0000 0.0000
# 5 0.0000 0.0000 0.0000 0.0000 32.4776 0.0000
# 6 0.0000 0.0000 0.0000 0.0000 0.0000 23.4601
#
#
#
# Elastic Compliance Matrix: (Units=1/GPa)
#
#
# Indices 1 2 3 4 5 6 
#
# 1 0.008189 -0.001818 -0.000129 0.000000 0.000000 0.000000
# 2 -0.001818 0.007283 -0.001486 0.000000 0.000000 0.000000
# 3 -0.000129 -0.001486 0.008853 0.000000 0.000000 0.000000
# 4 0.000000 0.000000 0.000000 0.027015 0.000000 0.000000
# 5 0.000000 0.000000 0.000000 0.000000 0.030790 0.000000
# 6 0.000000 0.000000 0.000000 0.000000 0.000000 0.042626
#
#
# Mechanical properties :
#
#
# Convention : Reuss Voigt Hill
#
# Bulk Modulus (GPa) = 57.27584 59.21913 58.24749
# Shear Modulus (GPa) = 36.37874 40.64686 38.51280
#
# Velocity S-wave (km/s) = 3.90234 4.12491 4.01516
# Velocity P-wave (km/s) = 6.65433 6.89027 6.77332
#
# Compressibility (1/GPa) = 0.01745937
#
# Stress axis : x y z
#
# Youngs Moduli (GPa) = 122.10797 137.29993 112.95985
#
# Poissons Ratio (x) = 0.24965 0.01456
# Poissons Ratio (y) = 0.22203 0.16784
# Poissons Ratio (z) = 0.01574 0.20401
#
# Static dielectric constant tensor:
#      x y z
#    x 1.828760 0.000000 0.000000 
#    y 0.000000 1.829020 0.000000 
#    z 0.000000 0.000000 2.014670 
# 
# From -- ./inp_files/2195.got.cif
#   From: 2010.05.17/outbox.cif.g08.bks.cpg/sg23_2_cif.got.tgz:2195.got - 2010.06.04 12:02:01.
