data_PCOD9330604
_publ_section_title
;
Structure prediction by ZEFSAII (Michael W. Deem and Ramdas Pophale) SiO2 
 PCOD9330604
Probable space group: I 2 2 2
;
_chemical_formula_sum "Si O2"
_cell_formula_units_Z 36
_cell_length_a 13.182195
_cell_length_b 4.953974
_cell_length_c 24.314795
_cell_angle_alpha 90.000000
_cell_angle_beta 90.000000
_cell_angle_gamma 90.000000
_cell_volume 1587.859483
_symmetry_space_group_name_H-M "I 2 2 2"
_symmetry_group_IT_number 23
_symmetry_cell_setting 'orthorhombic'
loop_
_space_group_symop_operation_xyz
x,y,z
-x,-y,z
x,-y,-z
-x,y,-z
1/2+x,1/2+y,1/2+z
1/2-x,1/2-y,1/2+z
1/2+x,1/2-y,1/2-z
1/2-x,1/2+y,1/2-z
loop_
_atom_site_type_symbol
_atom_site_label
_atom_site_fract_x
_atom_site_fract_y
_atom_site_fract_z
Si Si1 0.432163 0.250952 0.900660
Si Si2 0.112962 0.955893 0.064878
Si Si3 0.500000 0.000000 0.791774
Si Si4 0.282931 0.026416 0.606061
Si Si5 0.194419 0.670372 0.230192
O O1 0.500000 0.500000 0.915325
O O2 0.438836 0.189956 0.834786
O O3 0.320689 0.371553 0.912030
O O4 0.500000 0.000000 0.923854
O O5 0.133716 0.642952 0.074286
O O6 0.195892 0.159900 0.092464
O O7 0.000000 0.000000 0.087456
O O8 0.115866 0.000000 0.000000
O O9 0.418259 0.847173 0.754954
O O10 0.297809 0.958548 0.670011
O O11 0.235057 0.974083 0.232838
#
# Coordination Sequence:
#
# PCOD9330604 Si02
#       5
#     8   8   4   8   8
#     4  10  20  39  61  92 129 178 211 254 323 388
#     4  11  26  47  69  95 130 169 223 287 349 396
#     4  10  24  36  60  86 140 178 208 256 320 372
#     4  12  23  42  69  99 128 179 227 271 330 404
#     4  12  24  40  59  95 138 175 220 260 311 398
#
# _framework density 22.672028999999998
#
# number of rings (size 3 to 8) (size 9 to 14) (size 15 to 20)
#    0.667    0.222    2.222    5.333    3.111    1.778 
#    0.000    0.000    0.000   10.000    0.000    0.000 
#    0.000    0.000    0.000    0.000    0.000    0.000 
#
# Total GULP energy -100365.527673 kJ/mol
# GULP energy per Si atom -5575.862649 kJ/mol
# Density = 2.262043 g / cm^3
# Si number density = 22.672029 Si / 1000 Ang^3
#
#
#
# Elastic Constant Matrix: (Units=GPa)
#
#
# Indices 1 2 3 4 5 6 
#
# 1 102.4781 0.9819 -17.0961 0.0000 0.0000 0.0000
# 2 0.9819 105.2324 -2.4683 0.0000 0.0000 0.0000
# 3 -17.0961 -2.4683 35.7015 0.0000 0.0000 0.0000
# 4 0.0000 0.0000 0.0000 -4.9025 0.0000 0.0000
# 5 0.0000 0.0000 0.0000 0.0000 13.0178 0.0000
# 6 0.0000 0.0000 0.0000 0.0000 0.0000 134.9016
#
#
#
# Elastic Compliance Matrix: (Units=1/GPa)
#
#
# Indices 1 2 3 4 5 6 
#
# 1 0.010605 0.000020 0.005080 0.000000 0.000000 0.000000
# 2 0.000020 0.009518 0.000668 0.000000 0.000000 0.000000
# 3 0.005080 0.000668 0.030489 0.000000 0.000000 0.000000
# 4 0.000000 0.000000 0.000000 -0.203978 0.000000 0.000000
# 5 0.000000 0.000000 0.000000 0.000000 0.076818 0.000000
# 6 0.000000 0.000000 0.000000 0.000000 0.000000 0.007413
#
#
# Mechanical properties :
#
#
# Convention : Reuss Voigt Hill
#
# Bulk Modulus (GPa) = 16.09052 22.91631 19.50342
# Shear Modulus (GPa) = -83.39602 46.06970 -18.66316
#
# Velocity S-wave (km/s) = -6.07153 4.51267 -2.87222
# Velocity P-wave (km/s) = 6.48374 6.10589 1.54223
#
# Compressibility (1/GPa) = 0.06214839
#
# Stress axis : x y z
#
# Youngs Moduli (GPa) = 94.29103 105.06134 32.79888
#
# Poissons Ratio (x) = -0.00212 -0.16662
# Poissons Ratio (y) = -0.00190 -0.02190
# Poissons Ratio (z) = -0.47900 -0.07015
#
# Static dielectric constant tensor:
#      x y z
#    x 1.801580 0.000000 0.000000 
#    y 0.000000 1.782460 0.000000 
#    z 0.000000 0.000000 0.277440 
# 
# From -- ./inp_files/28200.got.cif
#   From: 2010.05.17/outbox.cif.g08.bks.cpg/sg23_15_cif.got.tgz:28200.got - 2010.06.04 12:02:01.
