data_PCOD9330503
_publ_section_title
;
Structure prediction by ZEFSAII (Michael W. Deem and Ramdas Pophale) SiO2 
 PCOD9330503
Probable space group: I 2 2 2
;
_chemical_formula_sum "Si O2"
_cell_formula_units_Z 48
_cell_length_a 17.059682
_cell_length_b 8.609395
_cell_length_c 15.456774
_cell_angle_alpha 90.000000
_cell_angle_beta 90.000000
_cell_angle_gamma 90.000000
_cell_volume 2270.191128
_symmetry_space_group_name_H-M "I 2 2 2"
_symmetry_group_IT_number 23
_symmetry_cell_setting 'orthorhombic'
loop_
_space_group_symop_operation_xyz
x,y,z
-x,-y,z
x,-y,-z
-x,y,-z
1/2+x,1/2+y,1/2+z
1/2-x,1/2-y,1/2+z
1/2+x,1/2-y,1/2-z
1/2-x,1/2+y,1/2-z
loop_
_atom_site_type_symbol
_atom_site_label
_atom_site_fract_x
_atom_site_fract_y
_atom_site_fract_z
Si Si1 0.992409 0.242089 0.275926
Si Si2 0.569690 0.337029 0.049734
Si Si3 0.873322 0.492776 0.738529
Si Si4 0.500000 0.735173 0.500000
Si Si5 0.346203 0.117745 0.425848
Si Si6 0.500000 0.500000 0.362030
Si Si7 0.218671 0.624620 0.575948
O O1 0.033651 0.152975 0.354685
O O2 0.063528 0.354761 0.245645
O O3 0.922604 0.360355 0.298595
O O4 0.961032 0.121173 0.204523
O O5 0.648617 0.242302 0.052190
O O6 0.580713 0.500000 0.000000
O O7 0.500000 0.248056 0.000000
O O8 0.842031 0.538638 0.832361
O O9 0.808244 0.445864 0.668320
O O10 0.565186 0.836520 0.452441
O O11 0.459737 0.620785 0.428748
O O12 0.296947 0.274957 0.420772
O O13 0.316855 0.000000 0.500000
O O14 0.224456 0.500000 0.500000
#
# Coordination Sequence:
#
# PCOD9330503 Si02
#       7
#     8   8   8   4   8   4   8
#     4  10  20  37  67  97 126 173 226 278 343 409
#     4  10  20  39  65  97 129 171 223 279 342 419
#     4  10  23  45  65  96 137 180 231 288 348 427
#     4  11  25  40  68 101 137 178 238 293 341 414
#     4  12  26  46  71  98 137 192 234 292 358 427
#     4  11  20  36  63 104 134 166 225 298 332 403
#     4  11  26  44  65 101 137 180 232 293 357 420
#
# _framework density 21.143595000000001
#
# number of rings (size 3 to 8) (size 9 to 14) (size 15 to 20)
#    0.000    1.333    1.667    3.750    4.667    3.000 
#    6.000    0.000    0.000    0.000    0.000    0.000 
#    0.000    0.000    0.000    0.000    0.000    0.000 
#
# Total GULP energy -133894.015800 kJ/mol
# GULP energy per Si atom -5578.917325 kJ/mol
# Density = 2.109547 g / cm^3
# Si number density = 21.143595 Si / 1000 Ang^3
#
#
#
# Elastic Constant Matrix: (Units=GPa)
#
#
# Indices 1 2 3 4 5 6 
#
# 1 84.5523 37.4971 51.3304 0.0000 0.0000 0.0000
# 2 37.4971 119.5519 81.4491 0.0000 0.0000 0.0000
# 3 51.3304 81.4491 163.1649 0.0000 0.0000 0.0000
# 4 0.0000 0.0000 0.0000 44.0268 0.0000 0.0000
# 5 0.0000 0.0000 0.0000 0.0000 7.6939 0.0000
# 6 0.0000 0.0000 0.0000 0.0000 0.0000 15.5726
#
#
#
# Elastic Compliance Matrix: (Units=1/GPa)
#
#
# Indices 1 2 3 4 5 6 
#
# 1 0.015011 -0.002259 -0.003595 0.000000 0.000000 0.000000
# 2 -0.002259 0.013015 -0.005786 0.000000 0.000000 0.000000
# 3 -0.003595 -0.005786 0.010148 0.000000 0.000000 0.000000
# 4 0.000000 0.000000 0.000000 0.022713 0.000000 0.000000
# 5 0.000000 0.000000 0.000000 0.000000 0.129972 0.000000
# 6 0.000000 0.000000 0.000000 0.000000 0.000000 0.064215
#
#
# Mechanical properties :
#
#
# Convention : Reuss Voigt Hill
#
# Bulk Modulus (GPa) = 67.14022 78.64692 72.89357
# Shear Modulus (GPa) = 17.64785 26.59150 22.11968
#
# Velocity S-wave (km/s) = 2.89219 3.55020 3.23796
# Velocity P-wave (km/s) = 6.55564 7.35408 6.96631
#
# Compressibility (1/GPa) = 0.01489420
#
# Stress axis : x y z
#
# Youngs Moduli (GPa) = 66.61711 76.83285 98.54151
#
# Poissons Ratio (x) = 0.17358 0.35422
# Poissons Ratio (y) = 0.15050 0.57019
# Poissons Ratio (z) = 0.23946 0.44457
#
# Static dielectric constant tensor:
#      x y z
#    x 1.739760 0.000000 0.000000 
#    y 0.000000 1.797760 0.000000 
#    z 0.000000 0.000000 1.818500 
# 
# From -- ./inp_files/22044.got.cif
#   From: 2010.05.17/outbox.cif.g08.bks.cpg/sg23_12_cif.got.tgz:22044.got - 2010.06.04 12:02:01.
