data_PCOD9330361
_publ_section_title
;
Structure prediction by ZEFSAII (Michael W. Deem and Ramdas Pophale) SiO2 
 PCOD9330361
Probable space group: I 2 2 2
;
_chemical_formula_sum "Si O2"
_cell_formula_units_Z 56
_cell_length_a 15.178495
_cell_length_b 19.707206
_cell_length_c 8.879037
_cell_angle_alpha 90.000000
_cell_angle_beta 90.000000
_cell_angle_gamma 90.000000
_cell_volume 2655.948404
_symmetry_space_group_name_H-M "I 2 2 2"
_symmetry_group_IT_number 23
_symmetry_cell_setting 'orthorhombic'
loop_
_space_group_symop_operation_xyz
x,y,z
-x,-y,z
x,-y,-z
-x,y,-z
1/2+x,1/2+y,1/2+z
1/2-x,1/2-y,1/2+z
1/2+x,1/2-y,1/2-z
1/2-x,1/2+y,1/2-z
loop_
_atom_site_type_symbol
_atom_site_label
_atom_site_fract_x
_atom_site_fract_y
_atom_site_fract_z
Si Si1 0.254117 0.536555 0.149495
Si Si2 0.547335 0.198239 0.840961
Si Si3 0.175338 0.441500 0.388868
Si Si4 0.045813 0.932953 0.655489
Si Si5 0.982851 0.579797 0.173423
Si Si6 0.438052 0.301996 0.644611
Si Si7 0.766178 0.663992 0.642231
O O1 0.243448 0.484426 0.287906
O O2 0.355400 0.547882 0.116584
O O3 0.229411 0.611293 0.215198
O O4 0.211883 0.500000 0.000000
O O5 0.547935 0.121885 0.778022
O O6 0.481764 0.240527 0.736282
O O7 0.651128 0.215964 0.847211
O O8 0.500000 0.199440 0.000000
O O9 0.134797 0.500000 0.500000
O O10 0.108885 0.411713 0.263505
O O11 0.215592 0.383099 0.494521
O O12 0.044247 0.870979 0.766466
O O13 0.000000 0.913658 0.500000
O O14 0.000000 0.000000 0.719068
O O15 0.000000 0.500000 0.176297
O O16 0.000000 0.601788 0.000000
O O17 0.500000 0.304673 0.500000
O O18 0.330955 0.301707 0.628691
#
# Coordination Sequence:
#
# PCOD9330361 Si02
#       7
#     8   8   8   8   8   8   8
#     4  10  20  35  64 102 140 178 228 289 349 418
#     4  12  25  48  71  95 139 190 237 288 361 424
#     4  10  21  38  62  98 141 181 225 280 353 417
#     4  10  20  40  66 100 135 178 229 287 352 419
#     4  11  24  39  68 107 141 179 230 288 347 415
#     4  11  27  46  69  98 140 182 240 296 350 428
#     4  10  24  44  67  99 137 184 236 286 359 423
#
# _framework density 21.084747
#
# number of rings (size 3 to 8) (size 9 to 14) (size 15 to 20)
#    0.000    1.429    2.857    2.571    6.000    1.429 
#    0.000    0.000    0.000    0.000    0.000    0.000 
#    0.000    0.000    0.000    0.000    0.000    0.000 
#
# Total GULP energy -156075.883697 kJ/mol
# GULP energy per Si atom -5574.138703 kJ/mol
# Density = 2.103676 g / cm^3
# Si number density = 21.084747 Si / 1000 Ang^3
#
#
#
# Elastic Constant Matrix: (Units=GPa)
#
#
# Indices 1 2 3 4 5 6 
#
# 1 196.7938 45.1194 23.2543 0.0000 0.0000 0.0000
# 2 45.1194 52.2128 11.4392 0.0000 0.0000 0.0000
# 3 23.2543 11.4392 221.5070 0.0000 0.0000 0.0000
# 4 0.0000 0.0000 0.0000 28.9089 0.0000 0.0000
# 5 0.0000 0.0000 0.0000 0.0000 26.5145 0.0000
# 6 0.0000 0.0000 0.0000 0.0000 0.0000 29.4524
#
#
#
# Elastic Compliance Matrix: (Units=1/GPa)
#
#
# Indices 1 2 3 4 5 6 
#
# 1 0.006370 -0.005419 -0.000389 0.000000 0.000000 0.000000
# 2 -0.005419 0.023982 -0.000670 0.000000 0.000000 0.000000
# 3 -0.000389 -0.000670 0.004590 0.000000 0.000000 0.000000
# 4 0.000000 0.000000 0.000000 0.034591 0.000000 0.000000
# 5 0.000000 0.000000 0.000000 0.000000 0.037715 0.000000
# 6 0.000000 0.000000 0.000000 0.000000 0.000000 0.033953
#
#
# Mechanical properties :
#
#
# Convention : Reuss Voigt Hill
#
# Bulk Modulus (GPa) = 45.48246 70.01547 57.74897
# Shear Modulus (GPa) = 30.96243 43.02189 36.99216
#
# Velocity S-wave (km/s) = 3.83623 4.52201 4.19316
# Velocity P-wave (km/s) = 6.42186 7.78097 7.13386
#
# Compressibility (1/GPa) = 0.02198650
#
# Stress axis : x y z
#
# Youngs Moduli (GPa) = 156.98801 41.69765 217.86818
#
# Poissons Ratio (x) = 0.22597 0.08472
# Poissons Ratio (y) = 0.85077 0.14588
# Poissons Ratio (z) = 0.06105 0.02792
#
# Static dielectric constant tensor:
#      x y z
#    x 1.796810 0.000000 0.000000 
#    y 0.000000 1.790920 0.000000 
#    z 0.000000 0.000000 1.853730 
# 
# From -- ./inp_files/10204.got.cif
#   From: 2010.05.17/outbox.cif.g08.bks.cpg/sg23_6_cif.got.tgz:10204.got - 2010.06.04 12:02:01.
