data_PCOD9330152
_publ_section_title
;
Structure prediction by ZEFSAII (Michael W. Deem and Ramdas Pophale) SiO2 
 PCOD9330152
Probable space group: I 2 2 2
;
_chemical_formula_sum "Si O2"
_cell_formula_units_Z 34
_cell_length_a 5.368764
_cell_length_b 16.884573
_cell_length_c 15.677874
_cell_angle_alpha 90.000000
_cell_angle_beta 90.000000
_cell_angle_gamma 90.000000
_cell_volume 1421.188110
_symmetry_space_group_name_H-M "I 2 2 2"
_symmetry_group_IT_number 23
_symmetry_cell_setting 'orthorhombic'
loop_
_space_group_symop_operation_xyz
x,y,z
-x,-y,z
x,-y,-z
-x,y,-z
1/2+x,1/2+y,1/2+z
1/2-x,1/2-y,1/2+z
1/2+x,1/2-y,1/2-z
1/2-x,1/2+y,1/2-z
loop_
_atom_site_type_symbol
_atom_site_label
_atom_site_fract_x
_atom_site_fract_y
_atom_site_fract_z
Si Si1 0.601750 0.386225 0.594242
Si Si2 0.602828 0.893587 0.179996
Si Si3 0.076224 0.242769 0.400070
Si Si4 0.000000 0.500000 0.000000
Si Si5 0.304342 0.429673 0.850337
O O1 0.500000 0.402260 0.500000
O O2 0.380741 0.415094 0.653219
O O3 0.662470 0.291830 0.601903
O O4 0.868151 0.422003 0.623118
O O5 0.590173 0.799853 0.159122
O O6 0.594137 0.917431 0.277884
O O7 0.070533 0.155693 0.362648
O O8 0.000000 0.244651 0.500000
O O9 0.828492 0.551762 0.939165
O O10 0.500000 0.500000 0.832893
#
# Coordination Sequence:
#
# PCOD9330152 Si02
#       5
#     8   8   8   2   8
#     4  10  19  41  73 117 149 188 247 334 397 456
#     4  10  24  41  75 112 152 196 265 326 388 462
#     4  10  22  41  72 112 151 207 259 336 387 470
#     4  12  30  52  72 106 162 236 260 324 406 504
#     4  12  29  48  72 110 168 217 269 318 410 486
#
# _framework density 23.923643999999999
#
# number of rings (size 3 to 8) (size 9 to 14) (size 15 to 20)
#    1.412    0.000    2.353    2.471    8.235    1.882 
#    0.000    0.000    0.000    0.706    0.000    0.000 
#    0.000    0.000    0.000    0.000    0.000    0.000 
#
# Total GULP energy -94942.022305 kJ/mol
# GULP energy per Si atom -5584.824841 kJ/mol
# Density = 2.386919 g / cm^3
# Si number density = 23.923644 Si / 1000 Ang^3
#
#
#
# Elastic Constant Matrix: (Units=GPa)
#
#
# Indices 1 2 3 4 5 6 
#
# 1 147.9028 56.4347 47.1708 0.0000 0.0000 0.0000
# 2 56.4347 185.3208 45.5702 0.0000 0.0000 0.0000
# 3 47.1708 45.5702 140.5570 0.0000 0.0000 0.0000
# 4 0.0000 0.0000 0.0000 -6.8786 0.0000 0.0000
# 5 0.0000 0.0000 0.0000 0.0000 52.5167 0.0000
# 6 0.0000 0.0000 0.0000 0.0000 0.0000 33.1344
#
#
#
# Elastic Compliance Matrix: (Units=1/GPa)
#
#
# Indices 1 2 3 4 5 6 
#
# 1 0.008187 -0.001975 -0.002107 0.000000 0.000000 0.000000
# 2 -0.001975 0.006340 -0.001393 0.000000 0.000000 0.000000
# 3 -0.002107 -0.001393 0.008273 0.000000 0.000000 0.000000
# 4 0.000000 0.000000 0.000000 -0.145378 0.000000 0.000000
# 5 0.000000 0.000000 0.000000 0.000000 0.019042 0.000000
# 6 0.000000 0.000000 0.000000 0.000000 0.000000 0.030180
#
#
# Mechanical properties :
#
#
# Convention : Reuss Voigt Hill
#
# Bulk Modulus (GPa) = 84.38562 85.79245 85.08904
# Shear Modulus (GPa) = -85.53390 37.39483 -24.06953
#
# Velocity S-wave (km/s) = -5.98586 3.95788 -3.17535
# Velocity P-wave (km/s) = 3.52484 7.53825 4.71173
#
# Compressibility (1/GPa) = 0.01185036
#
# Stress axis : x y z
#
# Youngs Moduli (GPa) = 122.14765 157.73064 120.87149
#
# Poissons Ratio (x) = 0.31151 0.25470
# Poissons Ratio (y) = 0.24123 0.16834
# Poissons Ratio (z) = 0.25739 0.21967
#
# Static dielectric constant tensor:
#      x y z
#    x 2.027960 0.000000 0.000000 
#    y 0.000000 1.956340 0.000000 
#    z 0.000000 0.000000 1.981370 
# 
# From -- ./inp_files/22952.got.cif
#   From: 2010.05.17/outbox.cif.g08.bks.cpg/sg23_12_cif.got.tgz:22952.got - 2010.06.04 12:02:01.
