data_PCOD9330050
_publ_section_title
;
Structure prediction by ZEFSAII (Michael W. Deem and Ramdas Pophale) SiO2 
 PCOD9330050
Probable space group: I 2 2 2
;
_chemical_formula_sum "Si O2"
_cell_formula_units_Z 48
_cell_length_a 27.910078
_cell_length_b 14.488165
_cell_length_c 5.573460
_cell_angle_alpha 90.000000
_cell_angle_beta 90.000000
_cell_angle_gamma 90.000000
_cell_volume 2253.716697
_symmetry_space_group_name_H-M "I 2 2 2"
_symmetry_group_IT_number 23
_symmetry_cell_setting 'orthorhombic'
loop_
_space_group_symop_operation_xyz
x,y,z
-x,-y,z
x,-y,-z
-x,y,-z
1/2+x,1/2+y,1/2+z
1/2-x,1/2-y,1/2+z
1/2+x,1/2-y,1/2-z
1/2-x,1/2+y,1/2-z
loop_
_atom_site_type_symbol
_atom_site_label
_atom_site_fract_x
_atom_site_fract_y
_atom_site_fract_z
Si Si1 0.554990 0.962890 0.255054
Si Si2 0.595358 0.593172 0.413194
Si Si3 0.310256 0.420269 0.155218
Si Si4 0.736874 0.202239 0.123038
Si Si5 0.641684 0.271452 0.194572
Si Si6 0.948853 0.743742 0.624436
O O1 0.553730 0.851974 0.268535
O O2 0.500000 0.000000 0.253815
O O3 0.578060 0.000000 0.500000
O O4 0.575146 0.000000 0.000000
O O5 0.569285 0.500000 0.500000
O O6 0.639322 0.548397 0.265053
O O7 0.623184 0.665546 0.587374
O O8 0.561247 0.662007 0.267415
O O9 0.272201 0.383951 0.344225
O O10 0.287558 0.500000 0.000000
O O11 0.328466 0.339793 0.978593
O O12 0.756750 0.268674 0.342640
O O13 0.681805 0.191773 0.212511
O O14 0.593964 0.237377 0.066832
O O15 0.000000 0.747690 0.500000
#
# Coordination Sequence:
#
# PCOD9330050 Si02
#       6
#     8   8   8   8   8   8
#     4  10  21  41  73  99 123 166 240 290 353 430
#     4  11  22  40  67  97 136 193 245 290 350 430
#     4  10  19  36  65  94 129 178 235 286 344 439
#     4  10  20  37  64  98 127 173 225 290 352 414
#     4  10  22  38  64  95 138 176 241 287 352 418
#     4  11  25  43  68 103 139 190 244 300 360 423
#
# _framework density 21.298154
#
# number of rings (size 3 to 8) (size 9 to 14) (size 15 to 20)
#    0.000    1.667    5.000    0.000    2.333    0.667 
#    0.000    2.500    3.667    0.000    0.000    0.000 
#    0.000    0.000    0.000    0.000    0.000    0.000 
#
# Total GULP energy -133619.326130 kJ/mol
# GULP energy per Si atom -5567.471922 kJ/mol
# Density = 2.124968 g / cm^3
# Si number density = 21.298154 Si / 1000 Ang^3
#
#
#
# Elastic Constant Matrix: (Units=GPa)
#
#
# Indices 1 2 3 4 5 6 
#
# 1 96.9347 32.4592 13.6308 0.0000 0.0000 0.0000
# 2 32.4592 96.8648 18.2812 0.0000 0.0000 0.0000
# 3 13.6308 18.2812 82.0696 0.0000 0.0000 0.0000
# 4 0.0000 0.0000 0.0000 37.9962 0.0000 0.0000
# 5 0.0000 0.0000 0.0000 0.0000 13.4138 0.0000
# 6 0.0000 0.0000 0.0000 0.0000 0.0000 15.5433
#
#
#
# Elastic Compliance Matrix: (Units=1/GPa)
#
#
# Indices 1 2 3 4 5 6 
#
# 1 0.011718 -0.003715 -0.001119 0.000000 0.000000 0.000000
# 2 -0.003715 0.011955 -0.002046 0.000000 0.000000 0.000000
# 3 -0.001119 -0.002046 0.012826 0.000000 0.000000 0.000000
# 4 0.000000 0.000000 0.000000 0.026318 0.000000 0.000000
# 5 0.000000 0.000000 0.000000 0.000000 0.074550 0.000000
# 6 0.000000 0.000000 0.000000 0.000000 0.000000 0.064336
#
#
# Mechanical properties :
#
#
# Convention : Reuss Voigt Hill
#
# Bulk Modulus (GPa) = 43.97727 44.95683 44.46705
# Shear Modulus (GPa) = 22.41721 27.49052 24.95386
#
# Velocity S-wave (km/s) = 3.24781 3.59659 3.42664
# Velocity P-wave (km/s) = 5.89556 6.19689 6.04810
#
# Compressibility (1/GPa) = 0.02273902
#
# Stress axis : x y z
#
# Youngs Moduli (GPa) = 85.34125 83.64813 77.96491
#
# Poissons Ratio (x) = 0.31079 0.08721
# Poissons Ratio (y) = 0.31708 0.15951
# Poissons Ratio (z) = 0.09546 0.17113
#
# Static dielectric constant tensor:
#      x y z
#    x 1.820800 0.000000 0.000000 
#    y 0.000000 1.626930 0.000000 
#    z 0.000000 0.000000 1.901040 
# 
# From -- ./inp_files/2565.got.cif
#   From: 2010.05.17/outbox.cif.g08.bks.cpg/sg23_2_cif.got.tgz:2565.got - 2010.06.04 12:02:01.
