data_PCOD9330896
_publ_section_title
;
Structure prediction by ZEFSAII (Michael W. Deem and Ramdas Pophale) SiO2 
 PCOD9330896
Probable space group: I 2 2 2
;
_chemical_formula_sum "Si O2"
_cell_formula_units_Z 58
_cell_length_a 26.625366
_cell_length_b 11.335140
_cell_length_c 9.710251
_cell_angle_alpha 90.000000
_cell_angle_beta 90.000000
_cell_angle_gamma 90.000000
_cell_volume 2930.575611
_symmetry_space_group_name_H-M "I 2 2 2"
_symmetry_group_IT_number 23
_symmetry_cell_setting 'orthorhombic'
loop_
_space_group_symop_operation_xyz
x,y,z
-x,-y,z
x,-y,-z
-x,y,-z
1/2+x,1/2+y,1/2+z
1/2-x,1/2-y,1/2+z
1/2+x,1/2-y,1/2-z
1/2-x,1/2+y,1/2-z
loop_
_atom_site_type_symbol
_atom_site_label
_atom_site_fract_x
_atom_site_fract_y
_atom_site_fract_z
Si Si1 0.302161 0.083084 0.887110
Si Si2 0.059811 0.862816 0.834665
Si Si3 0.231746 0.432550 0.857567
Si Si4 0.500000 0.000000 0.000000
Si Si5 0.830621 0.819382 0.259297
Si Si6 0.693346 0.317136 0.558908
Si Si7 0.978903 0.263201 0.354591
Si Si8 0.416435 0.630859 0.646102
O O1 0.327005 0.207561 0.859010
O O2 0.244498 0.110127 0.928639
O O3 0.298621 0.011024 0.748028
O O4 0.326727 0.000000 0.000000
O O5 0.112089 0.853599 0.753096
O O6 0.020323 0.779707 0.757248
O O7 0.055385 0.005487 0.836887
O O8 0.065399 0.824139 0.995007
O O9 0.289141 0.411699 0.810411
O O10 0.205372 0.305674 0.866812
O O11 0.232193 0.500000 0.000000
O O12 0.474250 0.097533 0.103282
O O13 0.815144 0.790543 0.101995
O O14 0.643848 0.379205 0.621662
O O15 0.000000 0.210396 0.500000
O O16 0.929725 0.210698 0.278588
#
# Coordination Sequence:
#
# PCOD9330896 Si02
#       8
#     8   8   8   2   8   8   8   8
#     4  11  21  37  59  81 123 173 208 257 318 365
#     4  10  21  40  66  99 126 157 210 267 320 384
#     4  11  21  37  56  84 125 167 214 258 303 376
#     4   8  24  48  64  80 132 172 190 250 316 384
#     4  10  21  38  57  91 122 162 216 258 314 374
#     4  10  21  37  60  87 122 163 212 258 317 376
#     4  10  22  46  66  90 128 162 199 260 324 387
#     4  10  21  39  69  97 122 161 210 264 321 382
#
# _framework density 19.791335
#
# number of rings (size 3 to 8) (size 9 to 14) (size 15 to 20)
#    0.414    1.379    2.759    1.655    1.931    2.207 
#   11.172    1.379    0.000    0.000    0.000    0.000 
#    0.000    0.000    0.000    0.000    0.000    0.000 
#
# Total GULP energy -161519.837980 kJ/mol
# GULP energy per Si atom -5569.649586 kJ/mol
# Density = 1.974629 g / cm^3
# Si number density = 19.791335 Si / 1000 Ang^3
#
#
#
# Elastic Constant Matrix: (Units=GPa)
#
#
# Indices 1 2 3 4 5 6 
#
# 1 55.9573 10.3931 17.5024 0.0000 0.0000 0.0000
# 2 10.3931 69.2864 20.1911 0.0000 0.0000 0.0000
# 3 17.5024 20.1911 84.9643 0.0000 0.0000 0.0000
# 4 0.0000 0.0000 0.0000 34.8314 0.0000 0.0000
# 5 0.0000 0.0000 0.0000 0.0000 22.9843 0.0000
# 6 0.0000 0.0000 0.0000 0.0000 0.0000 3.4886
#
#
#
# Elastic Compliance Matrix: (Units=1/GPa)
#
#
# Indices 1 2 3 4 5 6 
#
# 1 0.019324 -0.001868 -0.003537 0.000000 0.000000 0.000000
# 2 -0.001868 0.015687 -0.003343 0.000000 0.000000 0.000000
# 3 -0.003537 -0.003343 0.013293 0.000000 0.000000 0.000000
# 4 0.000000 0.000000 0.000000 0.028710 0.000000 0.000000
# 5 0.000000 0.000000 0.000000 0.000000 0.043508 0.000000
# 6 0.000000 0.000000 0.000000 0.000000 0.000000 0.286647
#
#
# Mechanical properties :
#
#
# Convention : Reuss Voigt Hill
#
# Bulk Modulus (GPa) = 32.45894 34.04234 33.25064
# Shear Modulus (GPa) = 11.49602 23.06897 17.28249
#
# Velocity S-wave (km/s) = 2.41272 3.41781 2.95826
# Velocity P-wave (km/s) = 4.91913 5.72828 5.33905
#
# Compressibility (1/GPa) = 0.03080815
#
# Stress axis : x y z
#
# Youngs Moduli (GPa) = 51.74925 63.74583 75.22929
#
# Poissons Ratio (x) = 0.11907 0.26607
# Poissons Ratio (y) = 0.09667 0.25150
# Poissons Ratio (z) = 0.18303 0.21311
#
# Static dielectric constant tensor:
#      x y z
#    x 1.740960 0.000000 0.000000 
#    y 0.000000 1.717790 0.000000 
#    z 0.000000 0.000000 1.731570 
# 
# From -- ./inp_files/13057.got.cif
#   From: 2010.05.17/outbox.cif.g08.bks.cpg/sg23_7_cif.got.tgz:13057.got - 2010.06.04 12:02:01.
