data_PCOD9330404
_publ_section_title
;
Structure prediction by ZEFSAII (Michael W. Deem and Ramdas Pophale) SiO2 
 PCOD9330404
Probable space group: I 2 2 2
;
_chemical_formula_sum "Si O2"
_cell_formula_units_Z 48
_cell_length_a 10.594684
_cell_length_b 16.522233
_cell_length_c 13.540216
_cell_angle_alpha 90.000000
_cell_angle_beta 90.000000
_cell_angle_gamma 90.000000
_cell_volume 2370.185532
_symmetry_space_group_name_H-M "I 2 2 2"
_symmetry_group_IT_number 23
_symmetry_cell_setting 'orthorhombic'
loop_
_space_group_symop_operation_xyz
x,y,z
-x,-y,z
x,-y,-z
-x,y,-z
1/2+x,1/2+y,1/2+z
1/2-x,1/2-y,1/2+z
1/2+x,1/2-y,1/2-z
1/2-x,1/2+y,1/2-z
loop_
_atom_site_type_symbol
_atom_site_label
_atom_site_fract_x
_atom_site_fract_y
_atom_site_fract_z
Si Si1 0.318619 0.374167 0.729152
Si Si2 0.895867 0.860617 0.811739
Si Si3 0.695246 0.980180 0.885319
Si Si4 0.788138 0.775070 0.634674
Si Si5 0.765372 0.280919 0.092097
Si Si6 0.029849 0.661383 0.612955
O O1 0.466725 0.392717 0.718964
O O2 0.231064 0.438865 0.673332
O O3 0.313833 0.286580 0.676539
O O4 0.262121 0.357408 0.837887
O O5 0.820774 0.924821 0.877614
O O6 0.818191 0.846920 0.709731
O O7 0.883280 0.774085 0.870423
O O8 0.581466 0.923327 0.844281
O O9 0.673201 0.000000 0.000000
O O10 0.748697 0.798202 0.524107
O O11 0.913211 0.717600 0.643499
O O12 0.648710 0.220813 0.113702
O O13 0.000000 0.641562 0.500000
#
# Coordination Sequence:
#
# PCOD9330404 Si02
#       6
#     8   8   8   8   8   8
#     4  11  21  34  55  84 117 151 189 235 293 346
#     4  10  21  36  55  84 115 151 189 233 291 347
#     4  11  23  36  54  85 121 151 181 236 301 346
#     4  10  20  36  60  82 111 150 198 246 272 334
#     4   9  19  35  56  82 110 149 200 234 278 333
#     4   9  17  34  58  80 106 144 191 236 277 324
#
# _framework density 20.251577999999999
#
# number of rings (size 3 to 8) (size 9 to 14) (size 15 to 20)
#    0.000    2.000    1.667    3.500    0.000    5.667 
#    0.000    0.833    0.000    2.000    0.000    0.000 
#    0.000    0.000    0.000    0.000    0.000    0.000 
#
# Total GULP energy -133673.507004 kJ/mol
# GULP energy per Si atom -5569.729458 kJ/mol
# Density = 2.020548 g / cm^3
# Si number density = 20.251578 Si / 1000 Ang^3
#
#
#
# Elastic Constant Matrix: (Units=GPa)
#
#
# Indices 1 2 3 4 5 6 
#
# 1 43.0075 6.9139 9.7399 0.0000 0.0000 0.0000
# 2 6.9139 49.4164 21.2880 0.0000 0.0000 0.0000
# 3 9.7399 21.2880 112.4604 -0.0001 0.0000 0.0000
# 4 0.0000 0.0000 -0.0001 38.5976 0.0000 0.0000
# 5 0.0000 0.0000 0.0000 0.0000 15.3644 0.0000
# 6 0.0000 0.0000 0.0000 0.0000 0.0000 26.3141
#
#
#
# Elastic Compliance Matrix: (Units=1/GPa)
#
#
# Indices 1 2 3 4 5 6 
#
# 1 0.024040 -0.002686 -0.001574 0.000000 0.000000 0.000000
# 2 -0.002686 0.022333 -0.003995 0.000000 0.000000 0.000000
# 3 -0.001574 -0.003995 0.009785 0.000000 0.000000 0.000000
# 4 0.000000 0.000000 0.000000 0.025908 0.000000 0.000000
# 5 0.000000 0.000000 0.000000 0.000000 0.065086 0.000000
# 6 0.000000 0.000000 0.000000 0.000000 0.000000 0.038002
#
#
# Mechanical properties :
#
#
# Convention : Reuss Voigt Hill
#
# Bulk Modulus (GPa) = 25.22125 31.19642 28.20884
# Shear Modulus (GPa) = 23.26902 27.18474 25.22688
#
# Velocity S-wave (km/s) = 3.39336 3.66779 3.53324
# Velocity P-wave (km/s) = 5.27582 5.77709 5.53213
#
# Compressibility (1/GPa) = 0.03964910
#
# Stress axis : x y z
#
# Youngs Moduli (GPa) = 41.59760 44.77706 102.20235
#
# Poissons Ratio (x) = 0.12025 0.16083
# Poissons Ratio (y) = 0.11171 0.40829
# Poissons Ratio (z) = 0.06546 0.17888
#
# Static dielectric constant tensor:
#      x y z
#    x 1.807070 0.000000 0.000000 
#    y 0.000000 1.753350 0.000000 
#    z 0.000000 0.000000 1.719460 
# 
# From -- ./inp_files/16674.got.cif
#   From: 2010.05.17/outbox.cif.g08.bks.cpg/sg23_9_cif.got.tgz:16674.got - 2010.06.04 12:02:01.
