data_PCOD9330824
_publ_section_title
;
Structure prediction by ZEFSAII (Michael W. Deem and Ramdas Pophale) SiO2 
 PCOD9330824
Probable space group: I 2 2 2
;
_chemical_formula_sum "Si O2"
_cell_formula_units_Z 56
_cell_length_a 5.380368
_cell_length_b 33.911704
_cell_length_c 15.589023
_cell_angle_alpha 90.000000
_cell_angle_beta 90.000000
_cell_angle_gamma 90.000000
_cell_volume 2844.333338
_symmetry_space_group_name_H-M "I 2 2 2"
_symmetry_group_IT_number 23
_symmetry_cell_setting 'orthorhombic'
loop_
_space_group_symop_operation_xyz
x,y,z
-x,-y,z
x,-y,-z
-x,y,-z
1/2+x,1/2+y,1/2+z
1/2-x,1/2-y,1/2+z
1/2+x,1/2-y,1/2-z
1/2-x,1/2+y,1/2-z
loop_
_atom_site_type_symbol
_atom_site_label
_atom_site_fract_x
_atom_site_fract_y
_atom_site_fract_z
Si Si1 0.695577 0.784253 0.200903
Si Si2 0.813971 0.682722 0.421579
Si Si3 0.252569 0.016819 0.901869
Si Si4 0.804805 0.131023 0.750043
Si Si5 0.738853 0.845770 0.447612
Si Si6 0.280957 0.895619 0.160399
Si Si7 0.060910 0.739457 0.111579
O O1 0.454480 0.805655 0.165616
O O2 0.860386 0.823719 0.216349
O O3 0.660946 0.764090 0.291465
O O4 0.775319 0.750728 0.132828
O O5 0.713450 0.639340 0.406236
O O6 0.652889 0.721283 0.433166
O O7 0.000000 0.679999 0.500000
O O8 0.271003 0.063531 0.891082
O O9 0.500000 0.000000 0.859334
O O10 0.000000 0.000000 0.862641
O O11 0.252566 0.000000 0.000000
O O12 0.761928 0.135635 0.647730
O O13 0.554640 0.113259 0.796719
O O14 0.053393 0.106570 0.771900
O O15 0.500000 0.862411 0.500000
O O16 0.659956 0.799949 0.431481
O O17 0.000000 0.848090 0.500000
#
# Coordination Sequence:
#
# PCOD9330824 Si02
#       7
#     8   8   8   8   8   8   8
#     4  10  21  36  54  71 108 162 209 263 320 366
#     4  11  24  35  52  81 111 151 214 270 308 350
#     4  10  22  40  64  92 129 165 204 240 304 366
#     4  10  22  41  64  86 121 163 213 263 313 377
#     4  11  25  39  60  89 124 162 212 273 330 376
#     4  11  22  42  63  90 121 168 209 248 303 377
#     4  11  21  35  55  73 113 161 217 264 322 369
#
# _framework density 19.688268000000001
#
# number of rings (size 3 to 8) (size 9 to 14) (size 15 to 20)
#    0.000    1.429    2.857    2.143    6.000    0.000 
#    2.571    0.000    0.000    0.000    0.000    0.000 
#    0.000   40.000    0.000    0.000    0.000    0.000 
#
# Total GULP energy -155927.831079 kJ/mol
# GULP energy per Si atom -5568.851110 kJ/mol
# Density = 1.964346 g / cm^3
# Si number density = 19.688268 Si / 1000 Ang^3
#
#
#
# Elastic Constant Matrix: (Units=GPa)
#
#
# Indices 1 2 3 4 5 6 
#
# 1 112.1255 32.5481 30.5608 0.0000 0.0000 0.0000
# 2 32.5481 122.1461 43.3832 0.0000 0.0000 0.0000
# 3 30.5608 43.3832 93.3785 0.0000 0.0000 0.0000
# 4 0.0000 0.0000 0.0000 8.7586 0.0000 0.0000
# 5 0.0000 0.0000 0.0000 0.0000 29.9231 0.0000
# 6 0.0000 0.0000 0.0000 0.0000 0.0000 25.6917
#
#
#
# Elastic Compliance Matrix: (Units=1/GPa)
#
#
# Indices 1 2 3 4 5 6 
#
# 1 0.010119 -0.001821 -0.002466 0.000000 0.000000 0.000000
# 2 -0.001821 0.010132 -0.004112 0.000000 0.000000 0.000000
# 3 -0.002466 -0.004112 0.013426 0.000000 0.000000 0.000000
# 4 0.000000 0.000000 0.000000 0.114173 0.000000 0.000000
# 5 0.000000 0.000000 0.000000 0.000000 0.033419 0.000000
# 6 0.000000 0.000000 0.000000 0.000000 0.000000 0.038923
#
#
# Mechanical properties :
#
#
# Convention : Reuss Voigt Hill
#
# Bulk Modulus (GPa) = 59.23596 60.07046 59.65321
# Shear Modulus (GPa) = 20.60861 27.61854 24.11358
#
# Velocity S-wave (km/s) = 3.23885 3.74945 3.50347
# Velocity P-wave (km/s) = 6.64373 7.02293 6.83596
#
# Compressibility (1/GPa) = 0.01688164
#
# Stress axis : x y z
#
# Youngs Moduli (GPa) = 98.82220 98.69334 74.48016
#
# Poissons Ratio (x) = 0.17968 0.18366
# Poissons Ratio (y) = 0.17992 0.30623
# Poissons Ratio (z) = 0.24369 0.40579
#
# Static dielectric constant tensor:
#      x y z
#    x 0.847710 0.000000 0.000000 
#    y 0.000000 1.683770 0.000000 
#    z 0.000000 0.000000 1.706980 
# 
# From -- ./inp_files/5351.got.cif
#   From: 2010.05.17/outbox.cif.g08.bks.cpg/sg23_3_cif.got.tgz:5351.got - 2010.06.04 12:02:01.
