data_PCOD9330589
_publ_section_title
;
Structure prediction by ZEFSAII (Michael W. Deem and Ramdas Pophale) SiO2 
 PCOD9330589
Probable space group: I 2 2 2
;
_chemical_formula_sum "Si O2"
_cell_formula_units_Z 56
_cell_length_a 9.188163
_cell_length_b 22.402407
_cell_length_c 12.326368
_cell_angle_alpha 90.000000
_cell_angle_beta 90.000000
_cell_angle_gamma 90.000000
_cell_volume 2537.222205
_symmetry_space_group_name_H-M "I 2 2 2"
_symmetry_group_IT_number 23
_symmetry_cell_setting 'orthorhombic'
loop_
_space_group_symop_operation_xyz
x,y,z
-x,-y,z
x,-y,-z
-x,y,-z
1/2+x,1/2+y,1/2+z
1/2-x,1/2-y,1/2+z
1/2+x,1/2-y,1/2-z
1/2-x,1/2+y,1/2-z
loop_
_atom_site_type_symbol
_atom_site_label
_atom_site_fract_x
_atom_site_fract_y
_atom_site_fract_z
Si Si1 0.797264 0.830096 0.299816
Si Si2 0.402843 0.550404 0.185444
Si Si3 0.210634 0.705020 0.579869
Si Si4 0.533324 0.850163 0.747883
Si Si5 0.655599 0.974949 0.796444
Si Si6 0.387381 0.260838 0.601356
Si Si7 0.903327 0.911310 0.893682
O O1 0.869862 0.884758 0.364624
O O2 0.770214 0.768276 0.360877
O O3 0.638781 0.853304 0.265468
O O4 0.893600 0.810266 0.196122
O O5 0.500000 0.500000 0.127988
O O6 0.251843 0.519395 0.222854
O O7 0.499600 0.568157 0.291591
O O8 0.069126 0.675384 0.632310
O O9 0.234359 0.723177 0.455821
O O10 0.330286 0.654324 0.608893
O O11 0.613639 0.913311 0.735072
O O12 0.596486 0.802179 0.661843
O O13 0.764289 0.955207 0.891765
O O14 0.500000 0.000000 0.831798
O O15 0.500000 0.261265 0.500000
O O16 0.000000 0.915849 0.000000
#
# Coordination Sequence:
#
# PCOD9330589 Si02
#       7
#     8   8   8   8   8   8   8
#     4  11  21  35  62  92 122 158 208 254 315 378
#     4  10  21  35  59  82 115 164 206 247 298 373
#     4  10  21  36  61  93 127 160 198 256 317 376
#     4  10  22  37  62  90 123 161 206 259 315 368
#     4  10  20  39  58  83 119 160 209 257 306 357
#     4  11  21  38  62  91 123 159 201 249 319 383
#     4  10  21  37  59  88 119 162 206 246 308 390
#
# _framework density 22.071382
#
# number of rings (size 3 to 8) (size 9 to 14) (size 15 to 20)
#    0.000    1.714    2.857    2.143    2.000    3.143 
#    0.000    1.429    3.143    3.000    0.000    7.000 
#    0.000    0.000    0.000    0.000    0.000    0.000 
#
# Total GULP energy -156072.867038 kJ/mol
# GULP energy per Si atom -5574.030966 kJ/mol
# Density = 2.202115 g / cm^3
# Si number density = 22.071382 Si / 1000 Ang^3
#
#
#
# Elastic Constant Matrix: (Units=GPa)
#
#
# Indices 1 2 3 4 5 6 
#
# 1 98.9610 38.7229 1.1075 0.0000 0.0000 0.0000
# 2 38.7229 162.6480 22.1049 0.0000 0.0000 0.0000
# 3 1.1075 22.1049 32.4952 0.0000 0.0000 0.0000
# 4 0.0000 0.0000 0.0000 12.2514 0.0000 0.0000
# 5 0.0000 0.0000 0.0000 0.0000 20.3520 0.0000
# 6 0.0000 0.0000 0.0000 0.0000 0.0000 24.3806
#
#
#
# Elastic Compliance Matrix: (Units=1/GPa)
#
#
# Indices 1 2 3 4 5 6 
#
# 1 0.011216 -0.002885 0.001580 0.000000 0.000000 0.000000
# 2 -0.002885 0.007517 -0.005015 0.000000 0.000000 0.000000
# 3 0.001580 -0.005015 0.034131 0.000000 0.000000 0.000000
# 4 0.000000 0.000000 0.000000 0.081624 0.000000 0.000000
# 5 0.000000 0.000000 0.000000 0.000000 0.049135 0.000000
# 6 0.000000 0.000000 0.000000 0.000000 0.000000 0.041016
#
#
# Mechanical properties :
#
#
# Convention : Reuss Voigt Hill
#
# Bulk Modulus (GPa) = 24.86022 46.44164 35.65093
# Shear Modulus (GPa) = 19.94518 26.87471 23.40995
#
# Velocity S-wave (km/s) = 3.00937 3.49324 3.26029
# Velocity P-wave (km/s) = 4.83353 6.11208 5.51002
#
# Compressibility (1/GPa) = 0.04022490
#
# Stress axis : x y z
#
# Youngs Moduli (GPa) = 89.15653 133.03735 29.29856
#
# Poissons Ratio (x) = 0.38383 -0.04630
# Poissons Ratio (y) = 0.25723 0.14693
# Poissons Ratio (z) = -0.14090 0.66717
#
# Static dielectric constant tensor:
#      x y z
#    x 1.888130 0.000000 0.000000 
#    y 0.000000 1.860800 0.000000 
#    z 0.000000 0.000000 1.800420 
# 
# From -- ./inp_files/20195.got.cif
#   From: 2010.05.17/outbox.cif.g08.bks.cpg/sg23_11_cif.got.tgz:20195.got - 2010.06.04 12:02:01.
