data_PCOD9330385
_publ_section_title
;
Structure prediction by ZEFSAII (Michael W. Deem and Ramdas Pophale) SiO2 
 PCOD9330385
Probable space group: I 2 2 2
;
_chemical_formula_sum "Si O2"
_cell_formula_units_Z 60
_cell_length_a 19.767983
_cell_length_b 12.597047
_cell_length_c 13.306801
_cell_angle_alpha 90.000000
_cell_angle_beta 90.000000
_cell_angle_gamma 90.000000
_cell_volume 3313.635778
_symmetry_space_group_name_H-M "I 2 2 2"
_symmetry_group_IT_number 23
_symmetry_cell_setting 'orthorhombic'
loop_
_space_group_symop_operation_xyz
x,y,z
-x,-y,z
x,-y,-z
-x,y,-z
1/2+x,1/2+y,1/2+z
1/2-x,1/2-y,1/2+z
1/2+x,1/2-y,1/2-z
1/2-x,1/2+y,1/2-z
loop_
_atom_site_type_symbol
_atom_site_label
_atom_site_fract_x
_atom_site_fract_y
_atom_site_fract_z
Si Si1 0.333637 0.606973 0.042003
Si Si2 0.154750 0.664760 0.295338
Si Si3 0.000000 0.000000 0.727026
Si Si4 0.050950 0.799731 0.406993
Si Si5 0.865239 0.072627 0.754056
Si Si6 0.295707 0.751543 0.374758
Si Si7 0.774711 0.554295 0.267142
Si Si8 0.216789 0.234557 0.899662
O O1 0.380873 0.585353 0.136673
O O2 0.274856 0.678709 0.084362
O O3 0.302455 0.500000 0.000000
O O4 0.381417 0.653998 0.957951
O O5 0.083334 0.702084 0.342657
O O6 0.219514 0.705109 0.360978
O O7 0.170150 0.538817 0.282866
O O8 0.167833 0.725202 0.189122
O O9 0.066157 0.976699 0.794446
O O10 0.979159 0.894733 0.661859
O O11 0.000000 0.773065 0.500000
O O12 0.844736 0.181679 0.805748
O O13 0.798072 0.001508 0.753791
O O14 0.292602 0.869235 0.326960
O O15 0.315650 0.731889 0.490096
O O16 0.757929 0.631251 0.361527
#
# Coordination Sequence:
#
# PCOD9330385 Si02
#       8
#     8   8   4   8   8   8   8   8
#     4  12  19  32  58  89 117 152 202 244 308 365
#     4  10  22  34  55  87 118 160 203 254 306 366
#     4  12  21  36  60  87 122 160 203 260 299 374
#     4  12  22  35  57  90 119 159 204 246 306 371
#     4  11  21  34  54  89 119 158 200 246 311 367
#     4  10  20  36  56  83 118 159 200 252 308 369
#     4  10  20  38  56  86 122 157 197 260 317 362
#     4  11  21  34  59  85 124 157 196 256 306 373
#
# _framework density 18.106998999999998
#
# number of rings (size 3 to 8) (size 9 to 14) (size 15 to 20)
#    0.000    1.067    8.000    2.600    0.000    2.133 
#    0.000    0.000    0.000   12.000    0.000    0.000 
#    0.000    6.400    0.000    0.000    0.000    0.000 
#
# Total GULP energy -167051.214653 kJ/mol
# GULP energy per Si atom -5568.373822 kJ/mol
# Density = 1.806579 g / cm^3
# Si number density = 18.106999 Si / 1000 Ang^3
#
#
#
# Elastic Constant Matrix: (Units=GPa)
#
#
# Indices 1 2 3 4 5 6 
#
# 1 74.2543 32.4734 15.3798 0.0000 0.0000 0.0000
# 2 32.4734 109.4413 49.3302 0.0000 0.0000 0.0000
# 3 15.3798 49.3302 82.9110 0.0000 0.0000 0.0000
# 4 0.0000 0.0000 0.0000 25.2260 0.0000 0.0000
# 5 0.0000 0.0000 0.0000 0.0000 29.8652 0.0000
# 6 0.0000 0.0000 0.0000 0.0000 0.0000 18.7926
#
#
#
# Elastic Compliance Matrix: (Units=1/GPa)
#
#
# Indices 1 2 3 4 5 6 
#
# 1 0.015478 -0.004507 -0.000189 0.000000 0.000000 0.000000
# 2 -0.004507 0.013798 -0.007374 0.000000 0.000000 0.000000
# 3 -0.000189 -0.007374 0.016483 0.000000 0.000000 0.000000
# 4 0.000000 0.000000 0.000000 0.039642 0.000000 0.000000
# 5 0.000000 0.000000 0.000000 0.000000 0.033484 0.000000
# 6 0.000000 0.000000 0.000000 0.000000 0.000000 0.053212
#
#
# Mechanical properties :
#
#
# Convention : Reuss Voigt Hill
#
# Bulk Modulus (GPa) = 46.25573 51.21927 48.73750
# Shear Modulus (GPa) = 24.57683 26.07164 25.32424
#
# Velocity S-wave (km/s) = 3.68817 3.79867 3.74383
# Velocity P-wave (km/s) = 6.61347 6.89843 6.75745
#
# Compressibility (1/GPa) = 0.02161894
#
# Stress axis : x y z
#
# Youngs Moduli (GPa) = 64.60972 72.47274 60.66704
#
# Poissons Ratio (x) = 0.32664 0.01149
# Poissons Ratio (y) = 0.29120 0.44734
# Poissons Ratio (z) = 0.01224 0.53439
#
# Static dielectric constant tensor:
#      x y z
#    x 1.638420 0.000000 0.000000 
#    y 0.000000 1.682590 0.000000 
#    z 0.000000 0.000000 1.751870 
# 
# From -- ./inp_files/18042.got.cif
#   From: 2010.05.17/outbox.cif.g08.bks.cpg/sg23_10_cif.got.tgz:18042.got - 2010.06.04 12:02:01.
