data_PCOD9330517
_publ_section_title
;
Structure prediction by ZEFSAII (Michael W. Deem and Ramdas Pophale) SiO2 
 PCOD9330517
Probable space group: I 2 2 2
;
_chemical_formula_sum "Si O2"
_cell_formula_units_Z 34
_cell_length_a 4.847764
_cell_length_b 12.047724
_cell_length_c 27.005459
_cell_angle_alpha 90.000000
_cell_angle_beta 90.000000
_cell_angle_gamma 90.000000
_cell_volume 1577.240943
_symmetry_space_group_name_H-M "I 2 2 2"
_symmetry_group_IT_number 23
_symmetry_cell_setting 'orthorhombic'
loop_
_space_group_symop_operation_xyz
x,y,z
-x,-y,z
x,-y,-z
-x,y,-z
1/2+x,1/2+y,1/2+z
1/2-x,1/2-y,1/2+z
1/2+x,1/2-y,1/2-z
1/2-x,1/2+y,1/2-z
loop_
_atom_site_type_symbol
_atom_site_label
_atom_site_fract_x
_atom_site_fract_y
_atom_site_fract_z
Si Si1 0.881395 0.385323 0.081069
Si Si2 0.776993 0.712045 0.723055
Si Si3 0.500000 0.000000 0.879632
Si Si4 0.872679 0.257056 0.391596
Si Si5 0.000000 0.000000 0.500000
Si Si6 0.500000 0.500000 0.307366
O O1 0.655341 0.312163 0.109330
O O2 0.706477 0.427783 0.033884
O O3 0.000000 0.500000 0.104410
O O4 0.147239 0.306581 0.075225
O O5 0.583306 0.789637 0.755979
O O6 0.768641 0.741161 0.665117
O O7 0.635573 0.592984 0.725988
O O8 0.583993 0.114032 0.906796
O O9 0.754188 0.963808 0.844438
#
# Coordination Sequence:
#
# PCOD9330517 Si02
#       6
#     8   8   4   8   2   4
#     4  12  24  44  70 104 136 177 225 276 349 428
#     4  11  22  40  60  90 133 180 223 283 344 388
#     4  10  20  40  68  91 124 170 222 280 330 379
#     4  11  23  41  69 101 132 175 242 284 328 429
#     4  12  26  48  72 106 146 192 210 284 378 444
#     4  10  20  38  59  82 120 177 228 265 329 414
#
# _framework density 21.556629000000001
#
# number of rings (size 3 to 8) (size 9 to 14) (size 15 to 20)
#    0.000    0.941    2.353    7.412    0.000    0.000 
#    8.471    0.000    2.588    0.706    6.118    0.000 
#    0.000    0.000    0.000    0.000    0.000    0.000 
#
# Total GULP energy -94924.027736 kJ/mol
# GULP energy per Si atom -5583.766337 kJ/mol
# Density = 2.150757 g / cm^3
# Si number density = 21.556629 Si / 1000 Ang^3
#
#
#
# Elastic Constant Matrix: (Units=GPa)
#
#
# Indices 1 2 3 4 5 6 
#
# 1 129.4956 45.3518 12.9343 0.0000 0.0000 0.0000
# 2 45.3518 162.9960 26.5577 0.0000 0.0000 0.0000
# 3 12.9343 26.5577 38.7283 0.0000 0.0000 0.0000
# 4 0.0000 0.0000 0.0000 22.6995 0.0000 0.0000
# 5 0.0000 0.0000 0.0000 0.0000 44.9434 0.0000
# 6 0.0000 0.0000 0.0000 0.0000 0.0000 51.7684
#
#
#
# Elastic Compliance Matrix: (Units=1/GPa)
#
#
# Indices 1 2 3 4 5 6 
#
# 1 0.008622 -0.002173 -0.001390 0.000000 0.000000 0.000000
# 2 -0.002173 0.007454 -0.004386 0.000000 0.000000 0.000000
# 3 -0.001390 -0.004386 0.029293 0.000000 0.000000 0.000000
# 4 0.000000 0.000000 0.000000 0.044054 0.000000 0.000000
# 5 0.000000 0.000000 0.000000 0.000000 0.022250 0.000000
# 6 0.000000 0.000000 0.000000 0.000000 0.000000 0.019317
#
#
# Mechanical properties :
#
#
# Convention : Reuss Voigt Hill
#
# Bulk Modulus (GPa) = 33.93022 55.65639 44.79330
# Shear Modulus (GPa) = 31.90592 40.30733 36.10663
#
# Velocity S-wave (km/s) = 3.85138 4.32885 4.09708
# Velocity P-wave (km/s) = 5.96252 7.13162 6.57311
#
# Compressibility (1/GPa) = 0.02947225
#
# Stress axis : x y z
#
# Youngs Moduli (GPa) = 115.98318 134.15160 34.13803
#
# Poissons Ratio (x) = 0.29145 0.04744
# Poissons Ratio (y) = 0.25198 0.14973
# Poissons Ratio (z) = 0.16118 0.58841
#
# Static dielectric constant tensor:
#      x y z
#    x 1.805800 0.000000 0.000000 
#    y 0.000000 1.827330 0.000000 
#    z 0.000000 0.000000 1.757980 
# 
# From -- ./inp_files/28846.got.cif
#   From: 2010.05.17/outbox.cif.g08.bks.cpg/sg23_15_cif.got.tgz:28846.got - 2010.06.04 12:02:01.
