data_PCOD9330360
_publ_section_title
;
Structure prediction by ZEFSAII (Michael W. Deem and Ramdas Pophale) SiO2 
 PCOD9330360
Probable space group: I 2 2 2
;
_chemical_formula_sum "Si O2"
_cell_formula_units_Z 48
_cell_length_a 12.167271
_cell_length_b 8.893829
_cell_length_c 23.066808
_cell_angle_alpha 90.000000
_cell_angle_beta 90.000000
_cell_angle_gamma 90.000000
_cell_volume 2496.142972
_symmetry_space_group_name_H-M "I 2 2 2"
_symmetry_group_IT_number 23
_symmetry_cell_setting 'orthorhombic'
loop_
_space_group_symop_operation_xyz
x,y,z
-x,-y,z
x,-y,-z
-x,y,-z
1/2+x,1/2+y,1/2+z
1/2-x,1/2-y,1/2+z
1/2+x,1/2-y,1/2-z
1/2-x,1/2+y,1/2-z
loop_
_atom_site_type_symbol
_atom_site_label
_atom_site_fract_x
_atom_site_fract_y
_atom_site_fract_z
Si Si1 0.528061 0.829797 0.932924
Si Si2 0.882343 0.833805 0.285571
Si Si3 0.009637 0.816433 0.067281
Si Si4 0.402917 0.663173 0.838908
Si Si5 0.740677 0.326731 0.623072
Si Si6 0.178836 0.163573 0.154100
O O1 0.455343 0.704591 0.900800
O O2 0.655977 0.801973 0.919456
O O3 0.500000 0.000000 0.911202
O O4 0.500000 0.827317 0.000000
O O5 0.784309 0.740691 0.315811
O O6 0.871588 0.859873 0.217706
O O7 0.003222 0.764717 0.297360
O O8 0.887395 0.991232 0.320165
O O9 0.909239 0.769772 0.108930
O O10 0.125817 0.770021 0.096156
O O11 0.000000 0.000000 0.067338
O O12 0.000000 0.768849 0.000000
O O13 0.284413 0.734856 0.836928
O O14 0.720873 0.503699 0.630984
#
# Coordination Sequence:
#
# PCOD9330360 Si02
#       6
#     8   8   8   8   8   8
#     4  10  20  35  62  89 115 149 196 252 290 340
#     4  10  23  37  59  85 121 156 186 247 297 364
#     4   9  21  35  59  89 113 149 196 248 298 346
#     4  10  22  39  56  88 118 148 199 236 300 354
#     4  10  21  38  58  89 117 152 197 241 298 359
#     4  11  21  36  65  83 116 154 196 246 293 355
#
# _framework density 19.229668
#
# number of rings (size 3 to 8) (size 9 to 14) (size 15 to 20)
#    0.000    2.000    1.667    1.000   11.667    1.333 
#    0.000    7.500    0.000    1.000    0.000    0.000 
#    0.000    0.000    0.000    0.000    0.000    0.000 
#
# Total GULP energy -133779.519860 kJ/mol
# GULP energy per Si atom -5574.146661 kJ/mol
# Density = 1.918590 g / cm^3
# Si number density = 19.229668 Si / 1000 Ang^3
#
#
#
# Elastic Constant Matrix: (Units=GPa)
#
#
# Indices 1 2 3 4 5 6 
#
# 1 127.7621 30.5904 45.7581 0.0000 0.0000 0.0000
# 2 30.5904 28.3893 22.7514 0.0000 0.0000 0.0000
# 3 45.7581 22.7514 106.5866 0.0000 0.0000 0.0000
# 4 0.0000 0.0000 0.0000 361.5888 0.0000 0.0000
# 5 0.0000 0.0000 0.0000 0.0000 10.8109 0.0000
# 6 0.0000 0.0000 0.0000 0.0000 0.0000 71.2690
#
#
#
# Elastic Compliance Matrix: (Units=1/GPa)
#
#
# Indices 1 2 3 4 5 6 
#
# 1 0.011149 -0.009865 -0.002681 0.000000 0.000000 0.000000
# 2 -0.009865 0.051223 -0.006699 0.000000 0.000000 0.000000
# 3 -0.002681 -0.006699 0.011963 0.000000 0.000000 0.000000
# 4 0.000000 0.000000 0.000000 0.002766 0.000000 0.000000
# 5 0.000000 0.000000 0.000000 0.000000 0.092499 0.000000
# 6 0.000000 0.000000 0.000000 0.000000 0.000000 0.014031
#
#
# Mechanical properties :
#
#
# Convention : Reuss Voigt Hill
#
# Bulk Modulus (GPa) = 27.89721 51.21532 39.55626
# Shear Modulus (GPa) = 21.36127 99.64294 60.50211
#
# Velocity S-wave (km/s) = 3.33656 7.20623 5.61527
# Velocity P-wave (km/s) = 5.42055 9.79444 7.91560
#
# Compressibility (1/GPa) = 0.03584588
#
# Stress axis : x y z
#
# Youngs Moduli (GPa) = 89.69248 19.52246 83.59336
#
# Poissons Ratio (x) = 0.19260 0.22408
# Poissons Ratio (y) = 0.88485 0.55995
# Poissons Ratio (z) = 0.24043 0.13077
#
# Static dielectric constant tensor:
#      x y z
#    x 1.702140 0.000000 0.000000 
#    y 0.000000 1.681980 0.000000 
#    z 0.000000 0.000000 1.655970 
# 
# From -- ./inp_files/28287.got.cif
#   From: 2010.05.17/outbox.cif.g08.bks.cpg/sg23_15_cif.got.tgz:28287.got - 2010.06.04 12:02:01.
