data_PCOD9330921
_publ_section_title
;
Structure prediction by ZEFSAII (Michael W. Deem and Ramdas Pophale) SiO2 
 PCOD9330921
Probable space group: I 2 2 2
;
_chemical_formula_sum "Si O2"
_cell_formula_units_Z 64
_cell_length_a 23.703515
_cell_length_b 13.906687
_cell_length_c 9.569916
_cell_angle_alpha 90.000000
_cell_angle_beta 90.000000
_cell_angle_gamma 90.000000
_cell_volume 3154.601883
_symmetry_space_group_name_H-M "I 2 2 2"
_symmetry_group_IT_number 23
_symmetry_cell_setting 'orthorhombic'
loop_
_space_group_symop_operation_xyz
x,y,z
-x,-y,z
x,-y,-z
-x,y,-z
1/2+x,1/2+y,1/2+z
1/2-x,1/2-y,1/2+z
1/2+x,1/2-y,1/2-z
1/2-x,1/2+y,1/2-z
loop_
_atom_site_type_symbol
_atom_site_label
_atom_site_fract_x
_atom_site_fract_y
_atom_site_fract_z
Si Si1 0.518179 0.893041 0.337511
Si Si2 0.620556 0.243119 0.696960
Si Si3 0.241866 0.667978 0.108424
Si Si4 0.783782 0.454409 0.361385
Si Si5 0.166232 0.575438 0.889256
Si Si6 0.651587 0.221219 0.991606
Si Si7 0.916603 0.267796 0.766637
Si Si8 0.432484 0.390479 0.518124
O O1 0.500000 0.890654 0.500000
O O2 0.581336 0.853071 0.314011
O O3 0.478296 0.813272 0.269558
O O4 0.500000 0.000000 0.287244
O O5 0.684125 0.222947 0.645909
O O6 0.592981 0.323145 0.601354
O O7 0.627531 0.274949 0.856596
O O8 0.253426 0.606082 0.249354
O O9 0.292919 0.733373 0.061629
O O10 0.222146 0.607858 0.972905
O O11 0.755609 0.500000 0.500000
O O12 0.815594 0.528396 0.257584
O O13 0.829268 0.381653 0.429575
O O14 0.124257 0.662639 0.858497
O O15 0.139350 0.500000 0.000000
O O16 0.606115 0.223400 0.111726
O O17 0.917041 0.163125 0.837121
O O18 0.413231 0.500000 0.500000
O O19 0.500000 0.388481 0.500000
#
# Coordination Sequence:
#
# PCOD9330921 Si02
#       8
#     8   8   8   8   8   8   8   8
#     4  11  23  38  70 109 139 176 227 279 348 444
#     4  11  22  45  66 100 136 179 231 282 345 408
#     4  10  23  42  63  90 139 187 229 275 341 399
#     4  10  21  38  62  96 133 179 223 269 346 413
#     4  10  21  37  68  98 135 183 220 271 341 419
#     4  11  27  40  64  96 147 182 220 280 350 409
#     4  12  22  41  68  98 142 171 228 272 353 408
#     4  11  23  45  72  97 122 168 232 290 341 401
#
# _framework density 20.287821000000001
#
# number of rings (size 3 to 8) (size 9 to 14) (size 15 to 20)
#    0.000    1.250    5.000    0.000   10.500    0.500 
#    0.000    8.750    0.000    1.500    0.000    0.000 
#    0.000    0.000    0.000    0.000    0.000    0.000 
#
# Total GULP energy -178660.552705 kJ/mol
# GULP energy per Si atom -5583.142272 kJ/mol
# Density = 2.024164 g / cm^3
# Si number density = 20.287821 Si / 1000 Ang^3
#
#
#
# Elastic Constant Matrix: (Units=GPa)
#
#
# Indices 1 2 3 4 5 6 
#
# 1 62.8579 18.1954 31.4269 0.0000 0.0000 0.0000
# 2 18.1954 97.3606 37.9008 0.0000 0.0000 0.0000
# 3 31.4269 37.9008 146.8789 0.0000 0.0000 0.0000
# 4 0.0000 0.0000 0.0000 17.5471 0.0000 0.0000
# 5 0.0000 0.0000 0.0000 0.0000 26.0948 0.0000
# 6 0.0000 0.0000 0.0000 0.0000 0.0000 9.2505
#
#
#
# Elastic Compliance Matrix: (Units=1/GPa)
#
#
# Indices 1 2 3 4 5 6 
#
# 1 0.018191 -0.002095 -0.003352 0.000000 0.000000 0.000000
# 2 -0.002095 0.011659 -0.002560 0.000000 0.000000 0.000000
# 3 -0.003352 -0.002560 0.008186 0.000000 0.000000 0.000000
# 4 0.000000 0.000000 0.000000 0.056989 0.000000 0.000000
# 5 0.000000 0.000000 0.000000 0.000000 0.038322 0.000000
# 6 0.000000 0.000000 0.000000 0.000000 0.000000 0.108102
#
#
# Mechanical properties :
#
#
# Convention : Reuss Voigt Hill
#
# Bulk Modulus (GPa) = 45.40781 53.57149 49.48965
# Shear Modulus (GPa) = 18.88185 25.21677 22.04931
#
# Velocity S-wave (km/s) = 3.05405 3.52938 3.30028
# Velocity P-wave (km/s) = 5.90480 6.56290 6.24253
#
# Compressibility (1/GPa) = 0.02202265
#
# Stress axis : x y z
#
# Youngs Moduli (GPa) = 54.97209 85.76836 122.15764
#
# Poissons Ratio (x) = 0.17968 0.40943
# Poissons Ratio (y) = 0.11516 0.31277
# Poissons Ratio (z) = 0.18425 0.21960
#
# Static dielectric constant tensor:
#      x y z
#    x 1.747370 0.000000 0.000000 
#    y 0.000000 1.788010 0.000000 
#    z 0.000000 0.000000 1.746780 
# 
# From -- ./inp_files/12729.got.cif
#   From: 2010.05.17/outbox.cif.g08.bks.cpg/sg23_7_cif.got.tgz:12729.got - 2010.06.04 12:02:01.
