data_PCOD9330131
_publ_section_title
;
Structure prediction by ZEFSAII (Michael W. Deem and Ramdas Pophale) SiO2 
 PCOD9330131
Probable space group: I 2 2 2
;
_chemical_formula_sum "Si O2"
_cell_formula_units_Z 64
_cell_length_a 17.216480
_cell_length_b 14.780423
_cell_length_c 13.409171
_cell_angle_alpha 90.000000
_cell_angle_beta 90.000000
_cell_angle_gamma 90.000000
_cell_volume 3412.189599
_symmetry_space_group_name_H-M "I 2 2 2"
_symmetry_group_IT_number 23
_symmetry_cell_setting 'orthorhombic'
loop_
_space_group_symop_operation_xyz
x,y,z
-x,-y,z
x,-y,-z
-x,y,-z
1/2+x,1/2+y,1/2+z
1/2-x,1/2-y,1/2+z
1/2+x,1/2-y,1/2-z
1/2-x,1/2+y,1/2-z
loop_
_atom_site_type_symbol
_atom_site_label
_atom_site_fract_x
_atom_site_fract_y
_atom_site_fract_z
Si Si1 0.178391 0.683902 0.827682
Si Si2 0.145921 0.140956 0.258400
Si Si3 0.741583 0.397265 0.647267
Si Si4 0.199089 0.726904 0.463701
Si Si5 0.587349 0.495959 0.617538
Si Si6 0.186616 0.412106 0.712055
Si Si7 0.590431 0.397222 0.028990
Si Si8 0.092443 0.495132 0.115813
O O1 0.130230 0.755889 0.764336
O O2 0.244955 0.648934 0.753566
O O3 0.221137 0.730838 0.920024
O O4 0.123818 0.602121 0.853316
O O5 0.237977 0.126318 0.270548
O O6 0.100075 0.105978 0.352307
O O7 0.126422 0.085104 0.160502
O O8 0.777921 0.335601 0.559170
O O9 0.649684 0.417140 0.638271
O O10 0.786365 0.494308 0.656966
O O11 0.167388 0.660871 0.374726
O O12 0.142346 0.812178 0.488787
O O13 0.500000 0.500000 0.659484
O O14 0.581757 0.500000 0.500000
O O15 0.126299 0.436759 0.799867
O O16 0.615962 0.500000 0.000000
O O17 0.500000 0.386642 0.000000
O O18 0.000000 0.500000 0.117382
O O19 0.118705 0.500000 0.000000
#
# Coordination Sequence:
#
# PCOD9330131 Si02
#       8
#     8   8   8   8   8   8   8   8
#     4  10  22  36  63  92 115 164 207 252 304 371
#     4  10  21  41  61  88 123 161 209 256 304 373
#     4  10  19  39  62  90 128 156 206 261 304 367
#     4  11  22  39  65  93 122 161 219 254 303 383
#     4  10  21  36  61  90 122 159 199 255 322 365
#     4   9  21  38  66  92 116 162 206 255 313 366
#     4  11  27  41  60  90 128 168 206 262 322 371
#     4  10  23  41  61  89 126 160 199 255 319 373
#
# _framework density 18.756284999999998
#
# number of rings (size 3 to 8) (size 9 to 14) (size 15 to 20)
#    0.000    1.875    1.250    2.625    8.750    1.000 
#    0.000    6.250    0.000    0.000    0.000    0.000 
#    0.000    0.000    0.000    0.000    0.000    0.000 
#
# Total GULP energy -178231.017191 kJ/mol
# GULP energy per Si atom -5569.719287 kJ/mol
# Density = 1.871359 g / cm^3
# Si number density = 18.756285 Si / 1000 Ang^3
#
#
#
# Elastic Constant Matrix: (Units=GPa)
#
#
# Indices 1 2 3 4 5 6 
#
# 1 78.6551 42.0590 41.7285 0.0000 0.0000 0.0000
# 2 42.0590 113.2394 51.8337 0.0000 0.0000 0.0000
# 3 41.7285 51.8337 99.8495 0.0000 0.0000 0.0000
# 4 0.0000 0.0000 0.0000 18.3643 0.0000 0.0000
# 5 0.0000 0.0000 0.0000 0.0000 32.4442 0.0000
# 6 0.0000 0.0000 0.0000 0.0000 0.0000 32.8953
#
#
#
# Elastic Compliance Matrix: (Units=1/GPa)
#
#
# Indices 1 2 3 4 5 6 
#
# 1 0.017731 -0.004189 -0.005235 0.000000 0.000000 0.000000
# 2 -0.004189 0.012573 -0.004776 0.000000 0.000000 0.000000
# 3 -0.005235 -0.004776 0.014682 0.000000 0.000000 0.000000
# 4 0.000000 0.000000 0.000000 0.054454 0.000000 0.000000
# 5 0.000000 0.000000 0.000000 0.000000 0.030822 0.000000
# 6 0.000000 0.000000 0.000000 0.000000 0.000000 0.030400
#
#
# Mechanical properties :
#
#
# Convention : Reuss Voigt Hill
#
# Bulk Modulus (GPa) = 60.29511 62.55405 61.42458
# Shear Modulus (GPa) = 25.69476 27.14893 26.42185
#
# Velocity S-wave (km/s) = 3.70527 3.80867 3.75733
# Velocity P-wave (km/s) = 7.10787 7.26393 7.18632
#
# Compressibility (1/GPa) = 0.01658509
#
# Stress axis : x y z
#
# Youngs Moduli (GPa) = 56.39717 79.53535 68.10865
#
# Poissons Ratio (x) = 0.33320 0.35658
# Poissons Ratio (y) = 0.23626 0.32530
# Poissons Ratio (z) = 0.29526 0.37987
#
# Static dielectric constant tensor:
#      x y z
#    x 1.698770 0.000000 0.000000 
#    y 0.000000 1.668220 0.000000 
#    z 0.000000 0.000000 1.665880 
# 
# From -- ./inp_files/17599.got.cif
#   From: 2010.05.17/outbox.cif.g08.bks.cpg/sg23_9_cif.got.tgz:17599.got - 2010.06.04 12:02:01.
