data_PCOD9330745
_publ_section_title
;
Structure prediction by ZEFSAII (Michael W. Deem and Ramdas Pophale) SiO2 
 PCOD9330745
Probable space group: I 2 2 2
;
_chemical_formula_sum "Si O2"
_cell_formula_units_Z 64
_cell_length_a 27.137521
_cell_length_b 7.449204
_cell_length_c 16.412763
_cell_angle_alpha 90.000000
_cell_angle_beta 90.000000
_cell_angle_gamma 90.000000
_cell_volume 3317.888130
_symmetry_space_group_name_H-M "I 2 2 2"
_symmetry_group_IT_number 23
_symmetry_cell_setting 'orthorhombic'
loop_
_space_group_symop_operation_xyz
x,y,z
-x,-y,z
x,-y,-z
-x,y,-z
1/2+x,1/2+y,1/2+z
1/2-x,1/2-y,1/2+z
1/2+x,1/2-y,1/2-z
1/2-x,1/2+y,1/2-z
loop_
_atom_site_type_symbol
_atom_site_label
_atom_site_fract_x
_atom_site_fract_y
_atom_site_fract_z
Si Si1 0.559939 0.205639 0.492847
Si Si2 0.440924 0.241851 0.329240
Si Si3 0.277369 0.580750 0.583969
Si Si4 0.553371 0.805682 0.685561
Si Si5 0.310209 0.869739 0.854386
Si Si6 0.363762 0.771577 0.191554
Si Si7 0.682343 0.295572 0.025156
Si Si8 0.655810 0.409222 0.729909
O O1 0.500000 0.200098 0.500000
O O2 0.572719 0.297986 0.577880
O O3 0.573443 0.268717 0.401850
O O4 0.577854 0.000000 0.500000
O O5 0.498336 0.273599 0.309664
O O6 0.400675 0.338524 0.273189
O O7 0.441857 0.022789 0.325384
O O8 0.297335 0.500000 0.500000
O O9 0.245678 0.429327 0.630900
O O10 0.234399 0.722296 0.560639
O O11 0.318876 0.643007 0.645085
O O12 0.582651 0.773857 0.768285
O O13 0.316090 0.696198 0.800356
O O14 0.338590 0.032431 0.809403
O O15 0.329690 0.823741 0.945393
O O16 0.357373 0.716733 0.097438
O O17 0.339271 0.618322 0.247730
O O18 0.687973 0.500000 0.000000
#
# Coordination Sequence:
#
# PCOD9330745 Si02
#       8
#     8   8   8   8   8   8   8   8
#     4   7  12  26  50  75 110 159 203 230 282 357
#     4   9  18  34  56  85 126 167 201 253 301 369
#     4   9  23  41  58  87 130 160 195 261 303 370
#     4   9  17  34  57  87 121 164 210 250 308 356
#     4  10  22  41  61  87 122 156 203 252 313 373
#     4  11  22  36  61  94 116 159 204 259 303 364
#     4  10  20  43  67  88 118 166 208 251 323 383
#     4  12  23  36  62  92 120 159 208 248 305 368
#
# _framework density 19.289379
#
# number of rings (size 3 to 8) (size 9 to 14) (size 15 to 20)
#    0.000    2.375    2.500    2.625    3.500    1.500 
#    2.250    1.875    0.000    3.000    0.000    0.000 
#    0.000    0.000    0.000    0.000    0.000    0.000 
#
# Total GULP energy -178164.047183 kJ/mol
# GULP energy per Si atom -5567.626474 kJ/mol
# Density = 1.924548 g / cm^3
# Si number density = 19.289379 Si / 1000 Ang^3
#
#
#
# Elastic Constant Matrix: (Units=GPa)
#
#
# Indices 1 2 3 4 5 6 
#
# 1 62.2294 16.3411 56.7123 0.0000 0.0000 0.0000
# 2 16.3411 71.0992 22.1105 0.0000 0.0000 0.0000
# 3 56.7123 22.1105 101.9304 0.0000 0.0000 0.0000
# 4 0.0000 0.0000 0.0000 18.3141 0.0000 0.0000
# 5 0.0000 0.0000 0.0000 0.0000 23.3963 0.0000
# 6 0.0000 0.0000 0.0000 0.0000 0.0000 6.0083
#
#
#
# Elastic Compliance Matrix: (Units=1/GPa)
#
#
# Indices 1 2 3 4 5 6 
#
# 1 0.032863 -0.002002 -0.017850 0.000000 0.000000 0.000000
# 2 -0.002002 0.015204 -0.002184 0.000000 0.000000 0.000000
# 3 -0.017850 -0.002184 0.020216 0.000000 0.000000 0.000000
# 4 0.000000 0.000000 0.000000 0.054603 0.000000 0.000000
# 5 0.000000 0.000000 0.000000 0.000000 0.042742 0.000000
# 6 0.000000 0.000000 0.000000 0.000000 0.000000 0.166435
#
#
# Mechanical properties :
#
#
# Convention : Reuss Voigt Hill
#
# Bulk Modulus (GPa) = 41.30452 47.28743 44.29598
# Shear Modulus (GPa) = 13.01389 18.88344 15.94867
#
# Velocity S-wave (km/s) = 2.60025 3.13222 2.87855
# Velocity P-wave (km/s) = 5.52039 6.13588 5.83625
#
# Compressibility (1/GPa) = 0.02421043
#
# Stress axis : x y z
#
# Youngs Moduli (GPa) = 30.42965 65.77118 49.46629
#
# Poissons Ratio (x) = 0.13168 0.88297
# Poissons Ratio (y) = 0.06092 0.10804
# Poissons Ratio (z) = 0.54317 0.14366
#
# Static dielectric constant tensor:
#      x y z
#    x 1.674400 0.000000 0.000000 
#    y 0.000000 1.733650 0.000000 
#    z 0.000000 0.000000 1.693880 
# 
# From -- ./inp_files/22815.got.cif
#   From: 2010.05.17/outbox.cif.g08.bks.cpg/sg23_12_cif.got.tgz:22815.got - 2010.06.04 12:02:01.
