data_PCOD9330690
_publ_section_title
;
Structure prediction by ZEFSAII (Michael W. Deem and Ramdas Pophale) SiO2 
 PCOD9330690
Probable space group: I 2 2 2
;
_chemical_formula_sum "Si O2"
_cell_formula_units_Z 54
_cell_length_a 18.560917
_cell_length_b 6.475923
_cell_length_c 24.299365
_cell_angle_alpha 90.000000
_cell_angle_beta 90.000000
_cell_angle_gamma 90.000000
_cell_volume 2920.761058
_symmetry_space_group_name_H-M "I 2 2 2"
_symmetry_group_IT_number 23
_symmetry_cell_setting 'orthorhombic'
loop_
_space_group_symop_operation_xyz
x,y,z
-x,-y,z
x,-y,-z
-x,y,-z
1/2+x,1/2+y,1/2+z
1/2-x,1/2-y,1/2+z
1/2+x,1/2-y,1/2-z
1/2-x,1/2+y,1/2-z
loop_
_atom_site_type_symbol
_atom_site_label
_atom_site_fract_x
_atom_site_fract_y
_atom_site_fract_z
Si Si1 0.871832 0.330033 0.068817
Si Si2 0.313900 0.401897 0.176588
Si Si3 0.500000 0.000000 0.500000
Si Si4 0.832462 0.763231 0.230864
Si Si5 0.428654 0.402376 0.329730
Si Si6 0.218622 0.000000 0.000000
Si Si7 0.429233 0.113739 0.228480
Si Si8 0.738108 0.387492 0.943887
O O1 0.886953 0.248735 0.129496
O O2 0.820177 0.530443 0.066331
O O3 0.946853 0.372030 0.038860
O O4 0.829472 0.154266 0.035748
O O5 0.242952 0.292339 0.202201
O O6 0.321822 0.609877 0.212431
O O7 0.381791 0.253005 0.187795
O O8 0.302968 0.438611 0.112009
O O9 0.877133 0.558232 0.244792
O O10 0.876870 0.916017 0.191178
O O11 0.500000 0.500000 0.356438
O O12 0.453282 0.268958 0.277128
O O13 0.262039 0.854051 0.958323
O O14 0.500000 0.000000 0.205744
O O15 0.713062 0.500000 0.000000
#
# Coordination Sequence:
#
# PCOD9330690 Si02
#       8
#     8   8   2   8   8   4   8   8
#     4  11  24  36  52  79 117 161 214 264 293 358
#     4  11  23  37  66  92 119 165 208 262 318 374
#     4  12  24  38  48  80 118 168 216 252 300 346
#     4  11  22  39  59  95 123 159 210 256 312 378
#     4  11  24  36  59  84 121 173 206 249 314 370
#     4  10  20  41  56  76 115 160 206 260 316 352
#     4  11  23  41  58  89 132 157 200 257 315 389
#     4  10  22  42  59  86 120 156 209 274 310 368
#
# _framework density 18.488333000000001
#
# number of rings (size 3 to 8) (size 9 to 14) (size 15 to 20)
#    0.000    1.185    5.185    1.778    5.185    3.556 
#    0.000    0.000    0.000    0.000    0.000    7.778 
#    0.000    0.000    0.000    0.000    0.000    0.000 
#
# Total GULP energy -150817.370544 kJ/mol
# GULP energy per Si atom -5585.828539 kJ/mol
# Density = 1.844625 g / cm^3
# Si number density = 18.488333 Si / 1000 Ang^3
#
#
#
# Elastic Constant Matrix: (Units=GPa)
#
#
# Indices 1 2 3 4 5 6 
#
# 1 56.4888 6.5955 17.5288 0.0000 0.0000 0.0000
# 2 6.5955 66.2539 10.6888 0.0000 0.0000 0.0000
# 3 17.5288 10.6888 94.5421 0.0000 0.0000 0.0000
# 4 0.0000 0.0000 0.0000 18.1326 0.0000 0.0000
# 5 0.0000 0.0000 0.0000 0.0000 17.0179 0.0000
# 6 0.0000 0.0000 0.0000 0.0000 0.0000 22.5032
#
#
#
# Elastic Compliance Matrix: (Units=1/GPa)
#
#
# Indices 1 2 3 4 5 6 
#
# 1 0.018899 -0.001341 -0.003353 0.000000 0.000000 0.000000
# 2 -0.001341 0.015469 -0.001500 0.000000 0.000000 0.000000
# 3 -0.003353 -0.001500 0.011369 0.000000 0.000000 0.000000
# 4 0.000000 0.000000 0.000000 0.055149 0.000000 0.000000
# 5 0.000000 0.000000 0.000000 0.000000 0.058762 0.000000
# 6 0.000000 0.000000 0.000000 0.000000 0.000000 0.044438
#
#
# Mechanical properties :
#
#
# Convention : Reuss Voigt Hill
#
# Bulk Modulus (GPa) = 29.98494 31.87898 30.93196
# Shear Modulus (GPa) = 21.96939 23.69554 22.83246
#
# Velocity S-wave (km/s) = 3.45089 3.58390 3.51802
# Velocity P-wave (km/s) = 5.66848 5.86566 5.76791
#
# Compressibility (1/GPa) = 0.03335007
#
# Stress axis : x y z
#
# Youngs Moduli (GPa) = 52.91156 64.64562 87.96232
#
# Poissons Ratio (x) = 0.08666 0.29490
# Poissons Ratio (y) = 0.07093 0.13197
# Poissons Ratio (z) = 0.17739 0.09699
#
# Static dielectric constant tensor:
#      x y z
#    x 1.632420 0.000000 0.000000 
#    y 0.000000 1.669520 0.000000 
#    z 0.000000 0.000000 1.637770 
# 
# From -- ./inp_files/4037.got.cif
#   From: 2010.05.17/outbox.cif.g08.bks.cpg/sg23_3_cif.got.tgz:4037.got - 2010.06.04 12:02:01.
