data_PCOD9330442
_publ_section_title
;
Structure prediction by ZEFSAII (Michael W. Deem and Ramdas Pophale) SiO2 
 PCOD9330442
Probable space group: I 2 2 2
;
_chemical_formula_sum "Si O2"
_cell_formula_units_Z 48
_cell_length_a 6.282740
_cell_length_b 13.583634
_cell_length_c 27.732271
_cell_angle_alpha 90.000000
_cell_angle_beta 90.000000
_cell_angle_gamma 90.000000
_cell_volume 2366.739693
_symmetry_space_group_name_H-M "I 2 2 2"
_symmetry_group_IT_number 23
_symmetry_cell_setting 'orthorhombic'
loop_
_space_group_symop_operation_xyz
x,y,z
-x,-y,z
x,-y,-z
-x,y,-z
1/2+x,1/2+y,1/2+z
1/2-x,1/2-y,1/2+z
1/2+x,1/2-y,1/2-z
1/2-x,1/2+y,1/2-z
loop_
_atom_site_type_symbol
_atom_site_label
_atom_site_fract_x
_atom_site_fract_y
_atom_site_fract_z
Si Si1 0.000000 0.158224 0.500000
Si Si2 0.373230 0.402080 0.653721
Si Si3 0.222298 0.266235 0.081791
Si Si4 0.649409 0.097430 0.572725
Si Si5 0.481602 0.617304 0.153555
Si Si6 0.892804 0.891398 0.755618
Si Si7 0.500000 0.000000 0.214374
O O1 0.882827 0.228158 0.462188
O O2 0.832606 0.094623 0.531893
O O3 0.500000 0.500000 0.638601
O O4 0.317186 0.334477 0.609107
O O5 0.523197 0.347557 0.693903
O O6 0.160438 0.437894 0.681050
O O7 0.329120 0.338996 0.121402
O O8 0.006267 0.312888 0.062543
O O9 0.764759 0.125781 0.623177
O O10 0.500000 0.000000 0.574364
O O11 0.500000 0.500000 0.157456
O O12 0.514984 0.658345 0.207611
O O13 0.644223 0.921720 0.755859
O O14 0.000000 0.000000 0.757107
#
# Coordination Sequence:
#
# PCOD9330442 Si02
#       7
#     4   8   8   8   8   8   4
#     4  10  26  41  62  91 120 154 224 251 316 395
#     4   9  20  39  62  92 121 163 214 255 312 377
#     4  11  23  40  62  91 122 168 204 267 315 366
#     4  11  23  42  64  87 125 170 199 259 317 366
#     4  10  20  37  55  91 128 160 215 247 293 384
#     4   8  17  33  56  87 122 161 208 245 300 367
#     4   8  16  36  64  81 118 170 195 260 310 346
#
# _framework density 20.281063
#
# number of rings (size 3 to 8) (size 9 to 14) (size 15 to 20)
#    0.000    2.667    1.667    0.500    0.000   11.333 
#    7.500    0.000    0.000    7.500    0.000    0.000 
#    0.000    0.000    0.000    0.000    0.000    0.000 
#
# Total GULP energy -133754.415927 kJ/mol
# GULP energy per Si atom -5573.100664 kJ/mol
# Density = 2.023490 g / cm^3
# Si number density = 20.281063 Si / 1000 Ang^3
#
#
#
# Elastic Constant Matrix: (Units=GPa)
#
#
# Indices 1 2 3 4 5 6 
#
# 1 125.6997 36.5265 64.9205 0.0000 0.0000 0.0000
# 2 36.5265 52.5969 49.4194 0.0000 0.0000 0.0000
# 3 64.9205 49.4194 118.7909 0.0000 0.0000 0.0000
# 4 0.0000 0.0000 0.0000 23.0991 0.0000 0.0000
# 5 0.0000 0.0000 0.0000 0.0000 21.5477 0.0000
# 6 0.0000 0.0000 0.0000 0.0000 0.0000 14.4369
#
#
#
# Elastic Compliance Matrix: (Units=1/GPa)
#
#
# Indices 1 2 3 4 5 6 
#
# 1 0.011443 -0.003400 -0.004839 0.000000 0.000000 0.000000
# 2 -0.003400 0.032223 -0.011548 0.000000 0.000000 0.000000
# 3 -0.004839 -0.011548 0.015867 0.000000 0.000000 0.000000
# 4 0.000000 0.000000 0.000000 0.043292 0.000000 0.000000
# 5 0.000000 0.000000 0.000000 0.000000 0.046409 0.000000
# 6 0.000000 0.000000 0.000000 0.000000 0.000000 0.069267
#
#
# Mechanical properties :
#
#
# Convention : Reuss Voigt Hill
#
# Bulk Modulus (GPa) = 50.10021 66.53560 58.31790
# Shear Modulus (GPa) = 18.88742 21.56484 20.22613
#
# Velocity S-wave (km/s) = 3.05500 3.26436 3.16142
# Velocity P-wave (km/s) = 6.09923 6.86193 6.49179
#
# Compressibility (1/GPa) = 0.01996000
#
# Stress axis : x y z
#
# Youngs Moduli (GPa) = 87.39209 31.03333 63.02424
#
# Poissons Ratio (x) = 0.10550 0.30499
# Poissons Ratio (y) = 0.29710 0.72778
# Poissons Ratio (z) = 0.42291 0.35836
#
# Static dielectric constant tensor:
#      x y z
#    x 1.765870 0.000000 0.000000 
#    y 0.000000 1.751060 0.000000 
#    z 0.000000 0.000000 1.802420 
# 
# From -- ./inp_files/28956.got.cif
#   From: 2010.05.17/outbox.cif.g08.bks.cpg/sg23_15_cif.got.tgz:28956.got - 2010.06.04 12:02:01.
