data_PCOD9330591
_publ_section_title
;
Structure prediction by ZEFSAII (Michael W. Deem and Ramdas Pophale) SiO2 
 PCOD9330591
Probable space group: I 2 2 2
;
_chemical_formula_sum "Si O2"
_cell_formula_units_Z 56
_cell_length_a 9.854064
_cell_length_b 21.397753
_cell_length_c 12.950810
_cell_angle_alpha 90.000000
_cell_angle_beta 90.000000
_cell_angle_gamma 90.000000
_cell_volume 2730.740809
_symmetry_space_group_name_H-M "I 2 2 2"
_symmetry_group_IT_number 23
_symmetry_cell_setting 'orthorhombic'
loop_
_space_group_symop_operation_xyz
x,y,z
-x,-y,z
x,-y,-z
-x,y,-z
1/2+x,1/2+y,1/2+z
1/2-x,1/2-y,1/2+z
1/2+x,1/2-y,1/2-z
1/2-x,1/2+y,1/2-z
loop_
_atom_site_type_symbol
_atom_site_label
_atom_site_fract_x
_atom_site_fract_y
_atom_site_fract_z
Si Si1 0.214590 0.926538 0.231590
Si Si2 0.442285 0.248278 0.389128
Si Si3 0.253465 0.931582 0.785751
Si Si4 0.625658 0.224453 0.105591
Si Si5 0.479603 0.870985 0.282103
Si Si6 0.964847 0.837424 0.286963
Si Si7 0.156938 0.604715 0.506342
O O1 0.340875 0.906455 0.302264
O O2 0.264708 0.912994 0.112580
O O3 0.090665 0.884081 0.269442
O O4 0.194597 0.000379 0.236703
O O5 0.500000 0.266410 0.500000
O O6 0.283291 0.261104 0.368408
O O7 0.470729 0.175443 0.369961
O O8 0.525280 0.289176 0.307673
O O9 0.407625 0.920601 0.750227
O O10 0.166876 0.879412 0.727766
O O11 0.259608 0.919297 0.908683
O O12 0.554897 0.176242 0.186216
O O13 0.548094 0.290369 0.115688
O O14 0.642633 0.180601 0.004827
O O15 0.000000 0.580600 0.500000
#
# Coordination Sequence:
#
# PCOD9330591 Si02
#       7
#     8   8   8   8   8   8   8
#     4  11  23  39  56  90 125 165 209 246 307 384
#     4  11  21  39  62  88 123 152 208 269 311 370
#     4  12  22  37  63  84 126 166 203 250 308 388
#     4  10  20  39  58  86 125 157 210 256 312 370
#     4  10  21  38  59  86 117 163 208 248 310 366
#     4  11  23  38  58  88 127 163 202 257 313 374
#     4  11  21  37  57  91 119 160 207 251 307 368
#
# _framework density 20.507256999999999
#
# number of rings (size 3 to 8) (size 9 to 14) (size 15 to 20)
#    0.000    1.143    7.143    2.143    0.000    0.571 
#    2.571    1.429    0.000    1.714    0.000    0.000 
#    0.000    0.000    0.000    0.000    0.000    0.000 
#
# Total GULP energy -156133.484129 kJ/mol
# GULP energy per Si atom -5576.195862 kJ/mol
# Density = 2.046058 g / cm^3
# Si number density = 20.507257 Si / 1000 Ang^3
#
#
#
# Elastic Constant Matrix: (Units=GPa)
#
#
# Indices 1 2 3 4 5 6 
#
# 1 57.2900 8.6017 7.1339 0.0000 0.0000 -0.0003
# 2 8.6017 129.1752 21.7615 0.0001 0.0000 -0.0006
# 3 7.1339 21.7615 32.2143 0.0000 0.0000 -0.0003
# 4 0.0000 0.0001 0.0000 24.5690 0.0000 -0.0002
# 5 0.0000 0.0000 0.0000 0.0000 17.0070 0.0001
# 6 -0.0003 -0.0006 -0.0003 -0.0002 0.0001 -58.9657
#
#
#
# Elastic Compliance Matrix: (Units=1/GPa)
#
#
# Indices 1 2 3 4 5 6 
#
# 1 0.017990 -0.000594 -0.003582 0.000000 0.000000 0.000000
# 2 -0.000594 0.008755 -0.005783 0.000000 0.000000 0.000000
# 3 -0.003582 -0.005783 0.035742 0.000000 0.000000 0.000000
# 4 0.000000 0.000000 0.000000 0.040702 0.000000 0.000000
# 5 0.000000 0.000000 0.000000 0.000000 0.058799 0.000000
# 6 0.000000 0.000000 0.000000 0.000000 0.000000 -0.016959
#
#
# Mechanical properties :
#
#
# Convention : Reuss Voigt Hill
#
# Bulk Modulus (GPa) = 23.49168 32.63039 28.06104
# Shear Modulus (GPa) = 27.91143 8.60088 18.25616
#
# Velocity S-wave (km/s) = 3.69325 2.05016 2.98691
# Velocity P-wave (km/s) = 5.44673 4.64224 5.06050
#
# Compressibility (1/GPa) = 0.04256826
#
# Stress axis : x y z
#
# Youngs Moduli (GPa) = 55.58517 114.21799 27.97842
#
# Poissons Ratio (x) = 0.06790 0.10023
# Poissons Ratio (y) = 0.03304 0.16179
# Poissons Ratio (z) = 0.19913 0.66049
#
# Static dielectric constant tensor:
#      x y z
#    x 1.751610 0.000000 0.000000 
#    y 0.000000 1.755110 0.000000 
#    z 0.000000 0.000000 1.796390 
# 
# From -- ./inp_files/20191.got.cif
#   From: 2010.05.17/outbox.cif.g08.bks.cpg/sg23_11_cif.got.tgz:20191.got - 2010.06.04 12:02:01.
