data_PCOD9330398
_publ_section_title
;
Structure prediction by ZEFSAII (Michael W. Deem and Ramdas Pophale) SiO2 
 PCOD9330398
Probable space group: I 2 2 2
;
_chemical_formula_sum "Si O2"
_cell_formula_units_Z 34
_cell_length_a 10.855893
_cell_length_b 16.627482
_cell_length_c 10.087576
_cell_angle_alpha 90.000000
_cell_angle_beta 90.000000
_cell_angle_gamma 90.000000
_cell_volume 1820.869662
_symmetry_space_group_name_H-M "I 2 2 2"
_symmetry_group_IT_number 23
_symmetry_cell_setting 'orthorhombic'
loop_
_space_group_symop_operation_xyz
x,y,z
-x,-y,z
x,-y,-z
-x,y,-z
1/2+x,1/2+y,1/2+z
1/2-x,1/2-y,1/2+z
1/2+x,1/2-y,1/2-z
1/2-x,1/2+y,1/2-z
loop_
_atom_site_type_symbol
_atom_site_label
_atom_site_fract_x
_atom_site_fract_y
_atom_site_fract_z
Si Si1 0.168743 0.916497 0.770137
Si Si2 0.000000 0.500000 0.000000
Si Si3 0.207402 0.619929 0.994690
Si Si4 0.352920 0.693326 0.510473
Si Si5 0.118602 0.901217 0.258410
O O1 0.258715 0.903255 0.645657
O O2 0.204903 0.863358 0.897224
O O3 0.028514 0.891397 0.732583
O O4 0.153254 0.011087 0.799644
O O5 0.096837 0.564037 0.938695
O O6 0.324269 0.603779 0.903076
O O7 0.175468 0.713656 0.989522
O O8 0.500000 0.681012 0.500000
O O9 0.323047 0.663724 0.658614
#
# Coordination Sequence:
#
# PCOD9330398 Si02
#       5
#     8   2   8   8   8
#     4  10  20  36  59  83 107 139 181 229 273 312
#     4  12  24  36  58  78 110 152 180 212 268 328
#     4  12  21  38  56  80 111 147 185 216 262 327
#     4  10  21  35  56  84 112 140 177 225 275 320
#     4  10  20  36  59  83 107 139 181 229 273 312
#
# _framework density 18.672395999999999
#
# number of rings (size 3 to 8) (size 9 to 14) (size 15 to 20)
#    0.000    1.412    3.529    2.824    0.000    4.706 
#    0.000    0.000    0.000    1.412    0.000    0.000 
#    0.000    0.000    0.000    0.000    0.000    0.000 
#
# Total GULP energy -94749.992452 kJ/mol
# GULP energy per Si atom -5573.528968 kJ/mol
# Density = 1.862990 g / cm^3
# Si number density = 18.672396 Si / 1000 Ang^3
#
#
#
# Elastic Constant Matrix: (Units=GPa)
#
#
# Indices 1 2 3 4 5 6 
#
# 1 32.5615 -3.8399 7.7389 0.0000 0.0000 0.0000
# 2 -3.8399 80.8296 23.8093 0.0000 0.0000 0.0000
# 3 7.7389 23.8093 40.3779 0.0000 0.0000 0.0000
# 4 0.0000 0.0000 0.0000 30.3181 0.0000 0.0000
# 5 0.0000 0.0000 0.0000 0.0000 7.3165 0.0000
# 6 0.0000 0.0000 0.0000 0.0000 0.0000 25.2916
#
#
#
# Elastic Compliance Matrix: (Units=1/GPa)
#
#
# Indices 1 2 3 4 5 6 
#
# 1 0.033310 0.004191 -0.008855 0.000000 0.000000 0.000000
# 2 0.004191 0.015500 -0.009943 0.000000 0.000000 0.000000
# 3 -0.008855 -0.009943 0.032326 0.000000 0.000000 0.000000
# 4 0.000000 0.000000 0.000000 0.032984 0.000000 0.000000
# 5 0.000000 0.000000 0.000000 0.000000 0.136677 0.000000
# 6 0.000000 0.000000 0.000000 0.000000 0.000000 0.039539
#
#
# Mechanical properties :
#
#
# Convention : Reuss Voigt Hill
#
# Bulk Modulus (GPa) = 19.25999 23.24284 21.25142
# Shear Modulus (GPa) = 14.84311 20.98929 17.91620
#
# Velocity S-wave (km/s) = 2.82250 3.35637 3.10094
# Velocity P-wave (km/s) = 4.57811 5.24357 4.92210
#
# Compressibility (1/GPa) = 0.05192110
#
# Stress axis : x y z
#
# Youngs Moduli (GPa) = 30.02106 64.51811 30.93477
#
# Poissons Ratio (x) = -0.27039 0.27394
# Poissons Ratio (y) = -0.12581 0.30757
# Poissons Ratio (z) = 0.26585 0.64148
#
# Static dielectric constant tensor:
#      x y z
#    x 1.644070 0.000000 0.000000 
#    y 0.000000 1.652740 0.000000 
#    z 0.000000 0.000000 1.645910 
# 
# From -- ./inp_files/15479.got.cif
#   From: 2010.05.17/outbox.cif.g08.bks.cpg/sg23_8_cif.got.tgz:15479.got - 2010.06.04 12:02:01.
