data_PCOD9330800
_publ_section_title
;
Structure prediction by ZEFSAII (Michael W. Deem and Ramdas Pophale) SiO2 
 PCOD9330800
Probable space group: I 2 2 2
;
_chemical_formula_sum "Si O2"
_cell_formula_units_Z 32
_cell_length_a 8.553383
_cell_length_b 14.374783
_cell_length_c 10.755891
_cell_angle_alpha 90.000000
_cell_angle_beta 90.000000
_cell_angle_gamma 90.000000
_cell_volume 1322.469330
_symmetry_space_group_name_H-M "I 2 2 2"
_symmetry_group_IT_number 23
_symmetry_cell_setting 'orthorhombic'
loop_
_space_group_symop_operation_xyz
x,y,z
-x,-y,z
x,-y,-z
-x,y,-z
1/2+x,1/2+y,1/2+z
1/2-x,1/2-y,1/2+z
1/2+x,1/2-y,1/2-z
1/2-x,1/2+y,1/2-z
loop_
_atom_site_type_symbol
_atom_site_label
_atom_site_fract_x
_atom_site_fract_y
_atom_site_fract_z
Si Si1 0.625926 0.126563 0.680977
Si Si2 0.707602 0.947353 0.775117
Si Si3 0.326753 0.357559 0.051696
Si Si4 0.170531 0.811100 0.045795
O O1 0.447500 0.096202 0.707316
O O2 0.706631 0.097314 0.549386
O O3 0.645061 0.236805 0.661295
O O4 0.708321 0.058611 0.779660
O O5 0.836884 0.912618 0.679046
O O6 0.730491 0.896158 0.904087
O O7 0.500000 0.352031 0.000000
O O8 0.258806 0.252414 0.055386
O O9 0.000000 0.838069 0.000000
#
# Coordination Sequence:
#
# PCOD9330800 Si02
#       4
#     8   8   8   8
#     4   9  21  40  62 100 133 177 234 285 349 427
#     4  11  20  38  69  94 135 184 229 291 357 411
#     4  10  21  34  61  99 133 171 231 290 343 410
#     4  10  22  39  64 103 136 176 235 289 358 416
#
# _framework density 24.197158999999999
#
# number of rings (size 3 to 8) (size 9 to 14) (size 15 to 20)
#    1.500    0.500    2.500    1.500    3.500    4.000 
#    0.000    0.000    0.000    4.500    0.000    0.000 
#    0.000    0.000    0.000    0.000    0.000    0.000 
#
# Total GULP energy -89125.738493 kJ/mol
# GULP energy per Si atom -5570.358656 kJ/mol
# Density = 2.414208 g / cm^3
# Si number density = 24.197159 Si / 1000 Ang^3
#
#
#
# Elastic Constant Matrix: (Units=GPa)
#
#
# Indices 1 2 3 4 5 6 
#
# 1 77.3255 -14.0138 9.2784 0.0000 0.0000 0.0000
# 2 -14.0138 96.9095 16.0284 0.0001 0.0000 0.0000
# 3 9.2784 16.0284 50.5682 0.0002 0.0000 0.0000
# 4 0.0000 0.0001 0.0002 29.6149 0.0000 0.0000
# 5 0.0000 0.0000 0.0000 0.0000 9.1888 0.0000
# 6 0.0000 0.0000 0.0000 0.0000 0.0000 11.6046
#
#
#
# Elastic Compliance Matrix: (Units=1/GPa)
#
#
# Indices 1 2 3 4 5 6 
#
# 1 0.013795 0.002547 -0.003338 0.000000 0.000000 0.000000
# 2 0.002547 0.011360 -0.004068 0.000000 0.000000 0.000000
# 3 -0.003338 -0.004068 0.021677 0.000000 0.000000 0.000000
# 4 0.000000 0.000000 0.000000 0.033767 0.000000 0.000000
# 5 0.000000 0.000000 0.000000 0.000000 0.108828 0.000000
# 6 0.000000 0.000000 0.000000 0.000000 0.000000 0.086173
#
#
# Mechanical properties :
#
#
# Convention : Reuss Voigt Hill
#
# Bulk Modulus (GPa) = 26.94488 27.48770 27.21629
# Shear Modulus (GPa) = 16.79606 24.31568 20.55587
#
# Velocity S-wave (km/s) = 2.63750 3.17345 2.91781
# Velocity P-wave (km/s) = 4.52050 4.98119 4.75643
#
# Compressibility (1/GPa) = 0.03711281
#
# Stress axis : x y z
#
# Youngs Moduli (GPa) = 72.49259 88.02771 46.13130
#
# Poissons Ratio (x) = -0.22420 0.15400
# Poissons Ratio (y) = -0.18463 0.18767
# Poissons Ratio (z) = 0.24201 0.35810
#
# Static dielectric constant tensor:
#      x y z
#    x 1.936950 0.000000 0.000000 
#    y 0.000000 2.007750 0.000000 
#    z 0.000000 0.000000 1.975340 
# 
# From -- ./inp_files/14302.got.cif
#   From: 2010.05.17/outbox.cif.g08.bks.cpg/sg23_8_cif.got.tgz:14302.got - 2010.06.04 12:02:01.
