data_PCOD9330851
_publ_section_title
;
Structure prediction by ZEFSAII (Michael W. Deem and Ramdas Pophale) SiO2 
 PCOD9330851
Probable space group: I 2 2 2
;
_chemical_formula_sum "Si O2"
_cell_formula_units_Z 48
_cell_length_a 9.233632
_cell_length_b 13.972399
_cell_length_c 18.377757
_cell_angle_alpha 90.000000
_cell_angle_beta 90.000000
_cell_angle_gamma 90.000000
_cell_volume 2371.024523
_symmetry_space_group_name_H-M "I 2 2 2"
_symmetry_group_IT_number 23
_symmetry_cell_setting 'orthorhombic'
loop_
_space_group_symop_operation_xyz
x,y,z
-x,-y,z
x,-y,-z
-x,y,-z
1/2+x,1/2+y,1/2+z
1/2-x,1/2-y,1/2+z
1/2+x,1/2-y,1/2-z
1/2-x,1/2+y,1/2-z
loop_
_atom_site_type_symbol
_atom_site_label
_atom_site_fract_x
_atom_site_fract_y
_atom_site_fract_z
Si Si1 0.829027 0.815541 0.748351
Si Si2 0.165342 0.887402 0.981848
Si Si3 0.570970 0.598222 0.845238
Si Si4 0.660381 0.991420 0.709704
Si Si5 0.152955 0.378494 0.658294
Si Si6 0.356362 0.199073 0.894626
O O1 0.839072 0.711303 0.713405
O O2 0.762601 0.809174 0.829108
O O3 0.980988 0.869110 0.727878
O O4 0.715805 0.883397 0.705912
O O5 0.217828 0.873859 0.899396
O O6 0.275326 0.829581 0.032594
O O7 0.000000 0.859899 0.000000
O O8 0.179350 0.000000 0.000000
O O9 0.500000 0.500000 0.874189
O O10 0.731307 0.563732 0.828207
O O11 0.580406 0.692902 0.893473
O O12 0.662949 0.026411 0.793516
O O13 0.500000 0.000000 0.681170
O O14 0.996631 0.367077 0.620109
#
# Coordination Sequence:
#
# PCOD9330851 Si02
#       6
#     8   8   8   8   8   8
#     4  10  21  36  61  90 121 160 203 253 311 360
#     4  11  27  42  59  88 128 169 206 255 322 381
#     4   9  21  37  59  93 128 155 207 264 315 366
#     4  11  20  34  59  93 120 157 203 255 302 361
#     4  11  23  39  59  90 126 160 205 250 306 372
#     4  11  21  40  63  88 124 167 209 251 314 380
#
# _framework density 20.244415
#
# number of rings (size 3 to 8) (size 9 to 14) (size 15 to 20)
#    0.000    1.500    3.333    1.500    2.333    2.000 
#    0.000    0.000    0.000   17.000    0.000   11.667 
#    0.000    0.000    0.000    0.000    0.000    0.000 
#
# Total GULP energy -133960.467674 kJ/mol
# GULP energy per Si atom -5581.686153 kJ/mol
# Density = 2.019834 g / cm^3
# Si number density = 20.244415 Si / 1000 Ang^3
#
#
#
# Elastic Constant Matrix: (Units=GPa)
#
#
# Indices 1 2 3 4 5 6 
#
# 1 117.9113 13.4921 9.3177 0.0000 0.0000 0.0000
# 2 13.4921 79.2924 -5.3316 0.0000 0.0000 0.0000
# 3 9.3177 -5.3316 20.6550 0.0000 0.0000 0.0000
# 4 0.0000 0.0000 0.0000 11.7307 0.0000 0.0000
# 5 0.0000 0.0000 0.0000 0.0000 27.3554 0.0000
# 6 0.0000 0.0000 0.0000 0.0000 0.0000 24.0076
#
#
#
# Elastic Compliance Matrix: (Units=1/GPa)
#
#
# Indices 1 2 3 4 5 6 
#
# 1 0.009053 -0.001847 -0.004561 0.000000 0.000000 0.000000
# 2 -0.001847 0.013211 0.004243 0.000000 0.000000 0.000000
# 3 -0.004561 0.004243 0.051567 0.000000 0.000000 0.000000
# 4 0.000000 0.000000 0.000000 0.085246 0.000000 0.000000
# 5 0.000000 0.000000 0.000000 0.000000 0.036556 0.000000
# 6 0.000000 0.000000 0.000000 0.000000 0.000000 0.041653
#
#
# Mechanical properties :
#
#
# Convention : Reuss Voigt Hill
#
# Bulk Modulus (GPa) = 14.38799 28.09059 21.23929
# Shear Modulus (GPa) = 18.88343 25.97745 22.43044
#
# Velocity S-wave (km/s) = 3.05745 3.58605 3.33225
# Velocity P-wave (km/s) = 4.42567 5.57245 5.03184
#
# Compressibility (1/GPa) = 0.06950240
#
# Stress axis : x y z
#
# Youngs Moduli (GPa) = 110.46440 75.69366 19.39224
#
# Poissons Ratio (x) = 0.13981 0.08844
# Poissons Ratio (y) = 0.20403 -0.08229
# Poissons Ratio (z) = 0.50378 -0.32119
#
# Static dielectric constant tensor:
#      x y z
#    x 1.751550 0.000000 0.000000 
#    y 0.000000 1.715150 0.000000 
#    z 0.000000 0.000000 1.708640 
# 
# From -- ./inp_files/11061.got.cif
#   From: 2010.05.17/outbox.cif.g08.bks.cpg/sg23_6_cif.got.tgz:11061.got - 2010.06.04 12:02:01.
