data_PCOD9330445
_publ_section_title
;
Structure prediction by ZEFSAII (Michael W. Deem and Ramdas Pophale) SiO2 
 PCOD9330445
Probable space group: I 2 2 2
;
_chemical_formula_sum "Si O2"
_cell_formula_units_Z 24
_cell_length_a 8.003259
_cell_length_b 14.246303
_cell_length_c 9.719458
_cell_angle_alpha 90.000000
_cell_angle_beta 90.000000
_cell_angle_gamma 90.000000
_cell_volume 1108.182011
_symmetry_space_group_name_H-M "I 2 2 2"
_symmetry_group_IT_number 23
_symmetry_cell_setting 'orthorhombic'
loop_
_space_group_symop_operation_xyz
x,y,z
-x,-y,z
x,-y,-z
-x,y,-z
1/2+x,1/2+y,1/2+z
1/2-x,1/2-y,1/2+z
1/2+x,1/2-y,1/2-z
1/2-x,1/2+y,1/2-z
loop_
_atom_site_type_symbol
_atom_site_label
_atom_site_fract_x
_atom_site_fract_y
_atom_site_fract_z
Si Si1 0.171704 0.934496 0.148837
Si Si2 0.500054 0.299514 0.158337
Si Si3 0.206959 0.375916 0.650341
O O1 0.142846 0.858460 0.264537
O O2 0.307438 0.013940 0.181857
O O3 0.216139 0.882063 0.005636
O O4 0.000000 0.000000 0.143838
O O5 0.663329 0.328299 0.243611
O O6 0.454131 0.189594 0.158396
O O7 0.500000 0.329223 0.000000
#
# Coordination Sequence:
#
# PCOD9330445 Si02
#       3
#     8   8   8
#     4   9  19  38  59  76 111 157 186 211 271 347
#     4  11  21  34  58  88 110 139 187 235 270 315
#     4  10  20  37  57  82 112 148 183 222 273 333
#
# _framework density 21.657091999999999
#
# number of rings (size 3 to 8) (size 9 to 14) (size 15 to 20)
#    0.000    2.000    0.000    9.000    0.000    6.000 
#    0.000   11.667    0.000    0.000    0.000   46.667 
#    0.000    0.000    0.000    0.000    0.000    0.000 
#
# Total GULP energy -66899.577670 kJ/mol
# GULP energy per Si atom -5574.964806 kJ/mol
# Density = 2.160780 g / cm^3
# Si number density = 21.657092 Si / 1000 Ang^3
#
#
#
# Elastic Constant Matrix: (Units=GPa)
#
#
# Indices 1 2 3 4 5 6 
#
# 1 74.4015 20.6755 43.6042 0.0000 0.0000 0.0000
# 2 20.6755 91.3271 60.0108 0.0000 0.0000 0.0000
# 3 43.6042 60.0108 119.2126 0.0001 -0.0001 -0.0001
# 4 0.0000 0.0000 0.0001 30.6261 -0.0001 0.0000
# 5 0.0000 0.0000 -0.0001 -0.0001 15.2865 0.0000
# 6 0.0000 0.0000 -0.0001 0.0000 0.0000 41.4328
#
#
#
# Elastic Compliance Matrix: (Units=1/GPa)
#
#
# Indices 1 2 3 4 5 6 
#
# 1 0.017116 0.000357 -0.006440 0.000000 0.000000 0.000000
# 2 0.000357 0.016369 -0.008371 0.000000 0.000000 0.000000
# 3 -0.006440 -0.008371 0.014958 0.000000 0.000000 0.000000
# 4 0.000000 0.000000 0.000000 0.032652 0.000000 0.000000
# 5 0.000000 0.000000 0.000000 0.000000 0.065417 0.000000
# 6 0.000000 0.000000 0.000000 0.000000 0.000000 0.024135
#
#
# Mechanical properties :
#
#
# Convention : Reuss Voigt Hill
#
# Bulk Modulus (GPa) = 51.19027 59.28024 55.23525
# Shear Modulus (GPa) = 24.26403 28.17914 26.22159
#
# Velocity S-wave (km/s) = 3.35083 3.61106 3.48338
# Velocity P-wave (km/s) = 6.21762 6.69462 6.46052
#
# Compressibility (1/GPa) = 0.01953496
#
# Stress axis : x y z
#
# Youngs Moduli (GPa) = 58.42589 61.09019 66.85515
#
# Poissons Ratio (x) = -0.02181 0.43055
# Poissons Ratio (y) = -0.02085 0.55963
# Poissons Ratio (z) = 0.37627 0.51137
#
# Static dielectric constant tensor:
#      x y z
#    x 1.932130 0.000000 0.000000 
#    y 0.000000 1.809370 0.000000 
#    z 0.000000 0.000000 1.748320 
# 
# From -- ./inp_files/6195.got.cif
#   From: 2010.05.17/outbox.cif.g08.bks.cpg/sg23_4_cif.got.tgz:6195.got - 2010.06.04 12:02:01.
