data_PCOD9330326
_publ_section_title
;
Structure prediction by ZEFSAII (Michael W. Deem and Ramdas Pophale) SiO2 
 PCOD9330326
Probable space group: I 2 2 2
;
_chemical_formula_sum "Si O2"
_cell_formula_units_Z 58
_cell_length_a 6.936654
_cell_length_b 26.092910
_cell_length_c 12.740316
_cell_angle_alpha 90.000000
_cell_angle_beta 90.000000
_cell_angle_gamma 90.000000
_cell_volume 2305.965199
_symmetry_space_group_name_H-M "I 2 2 2"
_symmetry_group_IT_number 23
_symmetry_cell_setting 'orthorhombic'
loop_
_space_group_symop_operation_xyz
x,y,z
-x,-y,z
x,-y,-z
-x,y,-z
1/2+x,1/2+y,1/2+z
1/2-x,1/2-y,1/2+z
1/2+x,1/2-y,1/2-z
1/2-x,1/2+y,1/2-z
loop_
_atom_site_type_symbol
_atom_site_label
_atom_site_fract_x
_atom_site_fract_y
_atom_site_fract_z
Si Si1 0.968987 0.080773 0.657690
Si Si2 0.000000 0.000000 0.500000
Si Si3 0.925110 0.189054 0.327451
Si Si4 0.987513 0.344466 0.186812
Si Si5 0.115133 0.447171 0.229419
Si Si6 0.079831 0.237252 0.889993
Si Si7 0.444773 0.440033 0.384308
Si Si8 0.517743 0.205197 0.893088
O O1 0.954315 0.140977 0.628383
O O2 0.933893 0.080210 0.783743
O O3 0.884268 0.040498 0.575393
O O4 0.808476 0.941599 0.659078
O O5 0.719351 0.163073 0.306977
O O6 0.004829 0.213431 0.218217
O O7 0.881923 0.238970 0.398665
O O8 0.968663 0.404878 0.181954
O O9 0.905994 0.327075 0.298534
O O10 0.926816 0.298947 0.110750
O O11 0.221329 0.435106 0.343332
O O12 0.000000 0.500000 0.235265
O O13 0.299433 0.222160 0.876420
O O14 0.000000 0.217028 0.000000
O O15 0.500000 0.500000 0.386781
O O16 0.500000 0.419034 0.500000
O O17 0.500000 0.175011 0.000000
#
# Coordination Sequence:
#
# PCOD9330326 Si02
#       8
#     8   2   8   8   8   8   8   8
#     4   9  20  36  61  89 120 163 209 254 304 369
#     4  12  20  40  60  88 128 160 210 266 302 368
#     4   9  19  37  59  83 114 153 202 246 294 356
#     4   9  19  39  58  83 121 155 200 252 299 371
#     4   9  19  41  64  88 126 166 204 258 319 374
#     4  10  20  36  59  85 120 154 195 255 311 366
#     4   9  18  38  63  87 116 157 207 264 303 365
#     4  10  20  35  56  85 115 151 199 248 306 363
#
# _framework density 25.152156999999999
#
# number of rings (size 3 to 8) (size 9 to 14) (size 15 to 20)
#    0.828    1.793    0.690    0.828    0.966    1.655 
#    4.966    4.483    0.000    0.000    0.000    0.000 
#    0.000    0.000    0.000    0.000    0.000    0.000 
#
# Total GULP energy -161438.611336 kJ/mol
# GULP energy per Si atom -5566.848667 kJ/mol
# Density = 2.509491 g / cm^3
# Si number density = 25.152157 Si / 1000 Ang^3
#
#
#
# Elastic Constant Matrix: (Units=GPa)
#
#
# Indices 1 2 3 4 5 6 
#
# 1 65.3181 13.9842 3.3492 0.0000 0.0000 0.0000
# 2 13.9842 85.9466 -0.0996 0.0000 0.0000 0.0000
# 3 3.3492 -0.0996 111.9219 0.0000 0.0000 0.0000
# 4 0.0000 0.0000 0.0000 7.9735 0.0000 0.0000
# 5 0.0000 0.0000 0.0000 0.0000 24.5023 0.0000
# 6 0.0000 0.0000 0.0000 0.0000 0.0000 27.1368
#
#
#
# Elastic Compliance Matrix: (Units=1/GPa)
#
#
# Indices 1 2 3 4 5 6 
#
# 1 0.015888 -0.002586 -0.000478 0.000000 0.000000 0.000000
# 2 -0.002586 0.012056 0.000088 0.000000 0.000000 0.000000
# 3 -0.000478 0.000088 0.008949 0.000000 0.000000 0.000000
# 4 0.000000 0.000000 0.000000 0.125416 0.000000 0.000000
# 5 0.000000 0.000000 0.000000 0.000000 0.040813 0.000000
# 6 0.000000 0.000000 0.000000 0.000000 0.000000 0.036850
#
#
# Mechanical properties :
#
#
# Convention : Reuss Voigt Hill
#
# Bulk Modulus (GPa) = 32.31813 33.07267 32.69540
# Shear Modulus (GPa) = 19.51323 28.31937 23.91630
#
# Velocity S-wave (km/s) = 2.78835 3.35912 3.08695
# Velocity P-wave (km/s) = 4.82115 5.31248 5.07277
#
# Compressibility (1/GPa) = 0.03094239
#
# Stress axis : x y z
#
# Youngs Moduli (GPa) = 62.94153 82.94673 111.74217
#
# Poissons Ratio (x) = 0.21447 0.05338
# Poissons Ratio (y) = 0.16274 -0.00985
# Poissons Ratio (z) = 0.03007 -0.00731
#
# Static dielectric constant tensor:
#      x y z
#    x 2.066070 0.000000 0.000000 
#    y 0.000000 2.041750 0.000000 
#    z 0.000000 0.000000 2.136900 
# 
# From -- ./inp_files/20301.got.cif
#   From: 2010.05.17/outbox.cif.g08.bks.cpg/sg23_11_cif.got.tgz:20301.got - 2010.06.04 12:02:01.
