data_PCOD9330988
_publ_section_title
;
Structure prediction by ZEFSAII (Michael W. Deem and Ramdas Pophale) SiO2 
 PCOD9330988
Probable space group: I 2 2 2
;
_chemical_formula_sum "Si O2"
_cell_formula_units_Z 28
_cell_length_a 9.662203
_cell_length_b 7.223570
_cell_length_c 15.406081
_cell_angle_alpha 90.000000
_cell_angle_beta 90.000000
_cell_angle_gamma 90.000000
_cell_volume 1075.276663
_symmetry_space_group_name_H-M "I 2 2 2"
_symmetry_group_IT_number 23
_symmetry_cell_setting 'orthorhombic'
loop_
_space_group_symop_operation_xyz
x,y,z
-x,-y,z
x,-y,-z
-x,y,-z
1/2+x,1/2+y,1/2+z
1/2-x,1/2-y,1/2+z
1/2+x,1/2-y,1/2-z
1/2-x,1/2+y,1/2-z
loop_
_atom_site_type_symbol
_atom_site_label
_atom_site_fract_x
_atom_site_fract_y
_atom_site_fract_z
Si Si1 0.000000 0.500000 0.763305
Si Si2 0.219018 0.411378 0.086444
Si Si3 0.127704 0.806832 0.673353
Si Si4 0.338787 0.477413 0.635406
O O1 0.122976 0.538368 0.830728
O O2 0.997163 0.677060 0.699368
O O3 0.357999 0.525261 0.106547
O O4 0.224520 0.190598 0.079813
O O5 0.158631 0.500000 0.000000
O O6 0.244851 0.659827 0.641230
O O7 0.156457 0.901939 0.766135
O O8 0.500000 0.500000 0.609294
#
# Coordination Sequence:
#
# PCOD9330988 Si02
#       4
#     4   8   8   8
#     4  10  21  38  70 101 128 180 238 280 343 436
#     4  11  24  42  67 104 146 176 226 306 364 407
#     4  11  21  41  65 101 134 181 230 287 347 435
#     4  11  23  39  71  99 131 181 234 286 352 435
#
# _framework density 26.039808000000001
#
# number of rings (size 3 to 8) (size 9 to 14) (size 15 to 20)
#    0.000    1.143    5.714    3.857    0.000    1.143 
#    0.000    4.286    0.000   12.857    0.000    0.000 
#    0.000    0.000    0.000    0.000    0.000    0.000 
#
# Total GULP energy -78214.347391 kJ/mol
# GULP energy per Si atom -5586.739099 kJ/mol
# Density = 2.598054 g / cm^3
# Si number density = 26.039808 Si / 1000 Ang^3
#
#
#
# Elastic Constant Matrix: (Units=GPa)
#
#
# Indices 1 2 3 4 5 6 
#
# 1 123.0990 48.5361 16.4092 0.0000 0.0000 0.0000
# 2 48.5361 192.5460 35.2345 0.0000 0.0000 0.0000
# 3 16.4092 35.2345 81.2214 0.0000 0.0000 0.0000
# 4 0.0000 0.0000 0.0000 26.0719 0.0000 0.0000
# 5 0.0000 0.0000 0.0000 0.0000 -3.4648 0.0000
# 6 0.0000 0.0000 0.0000 0.0000 0.0000 39.4884
#
#
#
# Elastic Compliance Matrix: (Units=1/GPa)
#
#
# Indices 1 2 3 4 5 6 
#
# 1 0.009082 -0.002122 -0.000914 0.000000 0.000000 0.000000
# 2 -0.002122 0.006137 -0.002234 0.000000 0.000000 0.000000
# 3 -0.000914 -0.002234 0.013466 0.000000 0.000000 0.000000
# 4 0.000000 0.000000 0.000000 0.038356 0.000000 0.000000
# 5 0.000000 0.000000 0.000000 0.000000 -0.288621 0.000000
# 6 0.000000 0.000000 0.000000 0.000000 0.000000 0.025324
#
#
# Mechanical properties :
#
#
# Convention : Reuss Voigt Hill
#
# Bulk Modulus (GPa) = 55.11149 66.35843 60.73496
# Shear Modulus (GPa) = -27.82915 32.19821 2.18453
#
# Velocity S-wave (km/s) = -3.27267 3.52020 0.91692
# Velocity P-wave (km/s) = 2.63245 6.48546 4.94929
#
# Compressibility (1/GPa) = 0.01814504
#
# Stress axis : x y z
#
# Youngs Moduli (GPa) = 110.10650 162.93998 74.26264
#
# Poissons Ratio (x) = 0.34577 0.06790
# Poissons Ratio (y) = 0.23365 0.16588
# Poissons Ratio (z) = 0.10067 0.36395
#
# Static dielectric constant tensor:
#      x y z
#    x 2.228980 0.000000 0.000000 
#    y 0.000000 2.099190 0.000000 
#    z 0.000000 0.000000 1.987740 
# 
# From -- ./inp_files/24103.got.cif
#   From: 2010.05.17/outbox.cif.g08.bks.cpg/sg23_13_cif.got.tgz:24103.got - 2010.06.04 12:02:01.
