data_PCOD9330802
_publ_section_title
;
Structure prediction by ZEFSAII (Michael W. Deem and Ramdas Pophale) SiO2 
 PCOD9330802
Probable space group: I 2 2 2
;
_chemical_formula_sum "Si O2"
_cell_formula_units_Z 56
_cell_length_a 31.474046
_cell_length_b 16.144977
_cell_length_c 5.431800
_cell_angle_alpha 90.000000
_cell_angle_beta 90.000000
_cell_angle_gamma 90.000000
_cell_volume 2760.156942
_symmetry_space_group_name_H-M "I 2 2 2"
_symmetry_group_IT_number 23
_symmetry_cell_setting 'orthorhombic'
loop_
_space_group_symop_operation_xyz
x,y,z
-x,-y,z
x,-y,-z
-x,y,-z
1/2+x,1/2+y,1/2+z
1/2-x,1/2-y,1/2+z
1/2+x,1/2-y,1/2-z
1/2-x,1/2+y,1/2-z
loop_
_atom_site_type_symbol
_atom_site_label
_atom_site_fract_x
_atom_site_fract_y
_atom_site_fract_z
Si Si1 0.325960 0.917930 0.337529
Si Si2 0.243348 0.114047 0.922315
Si Si3 0.547844 0.964318 0.747965
Si Si4 0.405966 0.186416 0.693213
Si Si5 0.285290 0.204196 0.289369
Si Si6 0.874921 0.764215 0.673839
Si Si7 0.153269 0.951083 0.241895
O O1 0.287298 0.927774 0.150766
O O2 0.371432 0.886530 0.249831
O O3 0.308737 0.838419 0.486007
O O4 0.329397 0.000000 0.500000
O O5 0.237585 0.208884 0.829484
O O6 0.202811 0.066681 0.823609
O O7 0.250418 0.136189 0.208116
O O8 0.550646 0.865332 0.722276
O O9 0.500000 0.000000 0.748458
O O10 0.568318 0.000000 0.500000
O O11 0.566845 0.000000 0.000000
O O12 0.396278 0.222295 0.419089
O O13 0.399942 0.249500 0.919332
O O14 0.327204 0.226430 0.127527
O O15 0.868002 0.860946 0.731265
O O16 0.149729 0.000000 0.500000
O O17 0.136669 0.000000 0.000000
#
# Coordination Sequence:
#
# PCOD9330802 Si02
#       7
#     8   8   8   8   8   8   8
#     4  11  23  33  48  72 101 134 191 251 299 345
#     4  11  21  34  52  66 100 141 194 249 321 360
#     4  10  21  38  61  91 128 166 194 227 273 328
#     4  11  21  39  58  84 112 158 197 235 288 358
#     4  10  21  35  51  66  96 144 187 252 312 366
#     4  10  22  39  60  78 110 152 199 248 306 365
#     4  11  25  39  56  81 109 147 202 264 322 364
#
# _framework density 20.288702000000001
#
# number of rings (size 3 to 8) (size 9 to 14) (size 15 to 20)
#    0.000    1.429    2.857    2.571    4.000    1.143 
#    0.000    0.000    0.000    0.000    0.000    0.000 
#    0.000    0.000    0.000  180.000    0.000    5.714 
#
# Total GULP energy -155988.958878 kJ/mol
# GULP energy per Si atom -5571.034246 kJ/mol
# Density = 2.024252 g / cm^3
# Si number density = 20.288702 Si / 1000 Ang^3
#
#
#
# Elastic Constant Matrix: (Units=GPa)
#
#
# Indices 1 2 3 4 5 6 
#
# 1 49.5462 31.0928 15.2285 0.0000 0.0000 0.0000
# 2 31.0928 110.8018 41.2358 0.0000 0.0000 0.0000
# 3 15.2285 41.2358 118.5327 0.0004 0.0002 0.0000
# 4 0.0000 0.0000 0.0004 32.4808 0.0000 -0.0001
# 5 0.0000 0.0000 0.0002 0.0000 -3.6053 0.0000
# 6 0.0000 0.0000 0.0000 -0.0001 0.0000 26.1846
#
#
#
# Elastic Compliance Matrix: (Units=1/GPa)
#
#
# Indices 1 2 3 4 5 6 
#
# 1 0.024575 -0.006572 -0.000871 0.000000 0.000000 0.000000
# 2 -0.006572 0.012125 -0.003374 0.000000 0.000000 0.000000
# 3 -0.000871 -0.003374 0.009722 0.000000 0.000001 0.000000
# 4 0.000000 0.000000 0.000000 0.030787 0.000000 0.000000
# 5 0.000000 0.000000 0.000001 0.000000 -0.277369 0.000000
# 6 0.000000 0.000000 0.000000 0.000000 0.000000 0.038190
#
#
# Mechanical properties :
#
#
# Convention : Reuss Voigt Hill
#
# Bulk Modulus (GPa) = 40.34110 50.44389 45.39249
# Shear Modulus (GPa) = -37.85790 23.76691 -7.04550
#
# Velocity S-wave (km/s) = -4.32436 3.42634 -1.86552
# Velocity P-wave (km/s) = 2.23758 6.36946 4.21683
#
# Compressibility (1/GPa) = 0.02478862
#
# Stress axis : x y z
#
# Youngs Moduli (GPa) = 40.69145 82.47484 102.85883
#
# Poissons Ratio (x) = 0.54203 0.08959
# Poissons Ratio (y) = 0.26743 0.34702
# Poissons Ratio (z) = 0.03544 0.27825
#
# Static dielectric constant tensor:
#      x y z
#    x 1.958200 0.000000 0.000000 
#    y 0.000000 1.739600 0.000000 
#    z 0.000000 0.000000 1.937780 
# 
# From -- ./inp_files/5352.got.cif
#   From: 2010.05.17/outbox.cif.g08.bks.cpg/sg23_3_cif.got.tgz:5352.got - 2010.06.04 12:02:01.
