data_PCOD9330168
_publ_section_title
;
Structure prediction by ZEFSAII (Michael W. Deem and Ramdas Pophale) SiO2 
 PCOD9330168
Probable space group: I 2 2 2
;
_chemical_formula_sum "Si O2"
_cell_formula_units_Z 52
_cell_length_a 28.756909
_cell_length_b 5.837828
_cell_length_c 19.043080
_cell_angle_alpha 90.000000
_cell_angle_beta 90.000000
_cell_angle_gamma 90.000000
_cell_volume 3196.912062
_symmetry_space_group_name_H-M "I 2 2 2"
_symmetry_group_IT_number 23
_symmetry_cell_setting 'orthorhombic'
loop_
_space_group_symop_operation_xyz
x,y,z
-x,-y,z
x,-y,-z
-x,y,-z
1/2+x,1/2+y,1/2+z
1/2-x,1/2-y,1/2+z
1/2+x,1/2-y,1/2-z
1/2-x,1/2+y,1/2-z
loop_
_atom_site_type_symbol
_atom_site_label
_atom_site_fract_x
_atom_site_fract_y
_atom_site_fract_z
Si Si1 0.636465 0.637751 0.900979
Si Si2 0.781550 0.357864 0.174268
Si Si3 0.276642 0.309708 0.082429
Si Si4 0.453615 0.387639 0.077774
Si Si5 0.806958 0.246783 0.022141
Si Si6 0.413232 0.000000 0.000000
Si Si7 0.308127 0.942281 0.189300
O O1 0.681867 0.494146 0.923714
O O2 0.593440 0.471282 0.886195
O O3 0.619187 0.813637 0.961276
O O4 0.650509 0.775855 0.831726
O O5 0.759426 0.585553 0.139356
O O6 0.738621 0.204849 0.200236
O O7 0.813738 0.411353 0.240441
O O8 0.803764 0.240687 0.106177
O O9 0.244689 0.255622 0.014919
O O10 0.299039 0.091294 0.119563
O O11 0.500000 0.500000 0.110163
O O12 0.452674 0.500000 0.000000
O O13 0.445962 0.121783 0.058366
O O14 0.826798 0.500000 0.000000
O O15 0.827571 0.000000 0.000000
#
# Coordination Sequence:
#
# PCOD9330168 Si02
#       7
#     8   8   8   8   8   4   8
#     4  10  22  31  46  67  89 118 156 201 256 297
#     4  10  20  30  45  60  84 120 156 201 261 290
#     4  10  20  33  44  62  87 119 159 208 250 297
#     4   9  19  34  49  68  90 116 150 193 254 311
#     4  10  20  33  47  65  86 118 160 208 256 293
#     4  10  20  37  50  70  92 120 152 204 258 304
#     4  11  19  31  45  61  88 118 159 202 261 299
#
# _framework density 16.265695000000001
#
# number of rings (size 3 to 8) (size 9 to 14) (size 15 to 20)
#    0.000    2.000    3.077    0.923    0.000   19.077 
#    1.385    0.000    0.000    0.000    0.000    0.000 
#    0.000    0.000    0.000    0.000    0.000    0.000 
#
# Total GULP energy -144800.004147 kJ/mol
# GULP energy per Si atom -5569.230929 kJ/mol
# Density = 1.622867 g / cm^3
# Si number density = 16.265695 Si / 1000 Ang^3
#
#
#
# Elastic Constant Matrix: (Units=GPa)
#
#
# Indices 1 2 3 4 5 6 
#
# 1 35.1998 15.9242 12.7495 0.0000 0.0000 0.0000
# 2 15.9242 75.4821 13.5881 0.0000 0.0000 0.0000
# 3 12.7495 13.5881 77.4852 0.0000 0.0000 0.0000
# 4 0.0000 0.0000 0.0000 19.5435 0.0000 0.0000
# 5 0.0000 0.0000 0.0000 0.0000 10.8232 0.0000
# 6 0.0000 0.0000 0.0000 0.0000 0.0000 9.1641
#
#
#
# Elastic Compliance Matrix: (Units=1/GPa)
#
#
# Indices 1 2 3 4 5 6 
#
# 1 0.032745 -0.006132 -0.004313 0.000000 0.000000 0.000000
# 2 -0.006132 0.014828 -0.001591 0.000000 0.000000 0.000000
# 3 -0.004313 -0.001591 0.013894 0.000000 0.000000 0.000000
# 4 0.000000 0.000000 0.000000 0.051168 0.000000 0.000000
# 5 0.000000 0.000000 0.000000 0.000000 0.092394 0.000000
# 6 0.000000 0.000000 0.000000 0.000000 0.000000 0.109121
#
#
# Mechanical properties :
#
#
# Convention : Reuss Voigt Hill
#
# Bulk Modulus (GPa) = 26.74066 30.29895 28.51980
# Shear Modulus (GPa) = 14.25770 17.63319 15.94545
#
# Velocity S-wave (km/s) = 2.96387 3.29610 3.13439
# Velocity P-wave (km/s) = 5.30927 5.75792 5.53814
#
# Compressibility (1/GPa) = 0.03739624
#
# Stress axis : x y z
#
# Youngs Moduli (GPa) = 30.53873 67.43876 71.97157
#
# Poissons Ratio (x) = 0.41352 0.31039
# Poissons Ratio (y) = 0.18726 0.11454
# Poissons Ratio (z) = 0.13170 0.10732
#
# Static dielectric constant tensor:
#      x y z
#    x 1.549140 0.000000 0.000000 
#    y 0.000000 1.678500 0.000000 
#    z 0.000000 0.000000 1.572750 
# 
# From -- ./inp_files/25468.got.cif
#   From: 2010.05.17/outbox.cif.g08.bks.cpg/sg23_13_cif.got.tgz:25468.got - 2010.06.04 12:02:01.
