data_PCOD9330056
_publ_section_title
;
Structure prediction by ZEFSAII (Michael W. Deem and Ramdas Pophale) SiO2 
 PCOD9330056
Probable space group: I 2 2 2
;
_chemical_formula_sum "Si O2"
_cell_formula_units_Z 54
_cell_length_a 5.459660
_cell_length_b 28.576323
_cell_length_c 16.258673
_cell_angle_alpha 90.000000
_cell_angle_beta 90.000000
_cell_angle_gamma 90.000000
_cell_volume 2536.629509
_symmetry_space_group_name_H-M "I 2 2 2"
_symmetry_group_IT_number 23
_symmetry_cell_setting 'orthorhombic'
loop_
_space_group_symop_operation_xyz
x,y,z
-x,-y,z
x,-y,-z
-x,y,-z
1/2+x,1/2+y,1/2+z
1/2-x,1/2-y,1/2+z
1/2+x,1/2-y,1/2-z
1/2-x,1/2+y,1/2-z
loop_
_atom_site_type_symbol
_atom_site_label
_atom_site_fract_x
_atom_site_fract_y
_atom_site_fract_z
Si Si1 0.837190 0.153388 0.326469
Si Si2 0.851872 0.083077 0.765808
Si Si3 0.247151 0.424573 0.050576
Si Si4 0.971775 0.350435 0.660216
Si Si5 0.500000 0.000000 0.000000
Si Si6 0.315463 0.580751 0.575476
Si Si7 0.500000 0.500000 0.838999
Si Si8 0.831805 0.253190 0.302936
O O1 0.702873 0.119774 0.390123
O O2 0.698727 0.158271 0.239467
O O3 0.862165 0.206284 0.357168
O O4 0.076003 0.124005 0.299259
O O5 0.625727 0.103907 0.814246
O O6 0.054755 0.075515 0.836305
O O7 0.840595 0.035448 0.715742
O O8 0.320355 0.469001 0.105664
O O9 0.500000 0.415168 0.000000
O O10 0.000000 0.432827 0.000000
O O11 0.126097 0.302952 0.652653
O O12 0.823761 0.369614 0.582879
O O13 0.343762 0.964971 0.056235
O O14 0.500000 0.583580 0.500000
O O15 0.560483 0.253012 0.261764
#
# Coordination Sequence:
#
# PCOD9330056 Si02
#       8
#     8   8   8   8   2   8   4   8
#     4   9  21  40  65  98 132 170 224 281 329 407
#     4  10  21  41  64  97 128 171 225 283 333 393
#     4  11  26  46  67  93 136 181 219 276 346 408
#     4  10  21  39  68  98 133 174 220 284 338 399
#     4  12  26  44  64  82 128 192 216 280 340 420
#     4  11  25  41  64  95 136 180 225 275 346 410
#     4  10  25  42  65 100 130 170 230 282 325 420
#     4  10  19  36  69 104 133 173 226 282 340 395
#
# _framework density 21.288093
#
# number of rings (size 3 to 8) (size 9 to 14) (size 15 to 20)
#    0.000    1.778    1.481    1.333    8.296    1.185 
#    5.333    0.000    4.889    0.000    0.000    0.000 
#    0.000    0.000    0.000    0.000    0.000    0.000 
#
# Total GULP energy -150671.324956 kJ/mol
# GULP energy per Si atom -5580.419443 kJ/mol
# Density = 2.123964 g / cm^3
# Si number density = 21.288093 Si / 1000 Ang^3
#
#
#
# Elastic Constant Matrix: (Units=GPa)
#
#
# Indices 1 2 3 4 5 6 
#
# 1 75.0124 27.6019 20.6862 0.0000 0.0000 0.0000
# 2 27.6019 141.7746 46.5764 0.0000 0.0000 0.0000
# 3 20.6862 46.5764 63.6166 0.0000 0.0000 0.0000
# 4 0.0000 0.0000 0.0000 22.2955 0.0000 0.0000
# 5 0.0000 0.0000 0.0000 0.0000 -48.1269 0.0000
# 6 0.0000 0.0000 0.0000 0.0000 0.0000 31.9143
#
#
#
# Elastic Compliance Matrix: (Units=1/GPa)
#
#
# Indices 1 2 3 4 5 6 
#
# 1 0.014960 -0.001731 -0.003597 0.000000 0.000000 0.000000
# 2 -0.001731 0.009488 -0.006383 0.000000 0.000000 0.000000
# 3 -0.003597 -0.006383 0.021563 0.000000 0.000000 0.000000
# 4 0.000000 0.000000 0.000000 0.044852 0.000000 0.000000
# 5 0.000000 0.000000 0.000000 0.000000 -0.020778 0.000000
# 6 0.000000 0.000000 0.000000 0.000000 0.000000 0.031334
#
#
# Mechanical properties :
#
#
# Convention : Reuss Voigt Hill
#
# Bulk Modulus (GPa) = 44.27341 52.23696 48.25518
# Shear Modulus (GPa) = 37.77296 13.58585 25.67941
#
# Velocity S-wave (km/s) = 4.21690 2.52898 3.47692
# Velocity P-wave (km/s) = 6.67473 5.75492 6.23182
#
# Compressibility (1/GPa) = 0.02258692
#
# Stress axis : x y z
#
# Youngs Moduli (GPa) = 66.84472 105.40171 46.37679
#
# Poissons Ratio (x) = 0.18242 0.16684
# Poissons Ratio (y) = 0.11569 0.29604
# Poissons Ratio (z) = 0.24047 0.67282
#
# Static dielectric constant tensor:
#      x y z
#    x 1.878540 0.000000 0.000000 
#    y 0.000000 1.838350 0.000000 
#    z 0.000000 0.000000 1.776480 
# 
# From -- ./inp_files/19363.got.cif
#   From: 2010.05.17/outbox.cif.g08.bks.cpg/sg23_10_cif.got.tgz:19363.got - 2010.06.04 12:02:01.
