data_PCOD9330774
_publ_section_title
;
Structure prediction by ZEFSAII (Michael W. Deem and Ramdas Pophale) SiO2 
 PCOD9330774
Probable space group: I 2 2 2
;
_chemical_formula_sum "Si O2"
_cell_formula_units_Z 36
_cell_length_a 14.568503
_cell_length_b 8.700373
_cell_length_c 14.115374
_cell_angle_alpha 90.000000
_cell_angle_beta 90.000000
_cell_angle_gamma 90.000000
_cell_volume 1789.143559
_symmetry_space_group_name_H-M "I 2 2 2"
_symmetry_group_IT_number 23
_symmetry_cell_setting 'orthorhombic'
loop_
_space_group_symop_operation_xyz
x,y,z
-x,-y,z
x,-y,-z
-x,y,-z
1/2+x,1/2+y,1/2+z
1/2-x,1/2-y,1/2+z
1/2+x,1/2-y,1/2-z
1/2-x,1/2+y,1/2-z
loop_
_atom_site_type_symbol
_atom_site_label
_atom_site_fract_x
_atom_site_fract_y
_atom_site_fract_z
Si Si1 0.067718 0.626438 0.643489
Si Si2 0.629078 0.250661 0.586731
Si Si3 0.000000 0.000000 0.000000
Si Si4 0.000000 0.500000 0.000000
Si Si5 0.880165 0.319961 0.292065
Si Si6 0.682022 0.683938 0.008256
O O1 0.132832 0.505773 0.698621
O O2 0.115579 0.735822 0.569111
O O3 0.000000 0.500000 0.595706
O O4 0.991577 0.706721 0.709990
O O5 0.566327 0.395671 0.563456
O O6 0.660618 0.242017 0.695224
O O7 0.716246 0.239710 0.518395
O O8 0.564629 0.104733 0.564804
O O9 0.843886 0.240493 0.386917
O O10 0.676291 0.500000 0.000000
#
# Coordination Sequence:
#
# PCOD9330774 Si02
#       6
#     8   8   2   2   8   8
#     4   8  21  42  68  92 128 177 208 268 333 396
#     4  11  24  46  65  95 131 174 226 272 333 394
#     4  10  28  42  72  86 132 190 216 286 324 410
#     4  10  20  50  64  82 136 170 216 270 336 378
#     4   9  22  42  66  94 127 177 214 264 335 401
#     4  12  24  39  65 106 134 164 219 286 327 394
#
# _framework density 20.121359000000002
#
# number of rings (size 3 to 8) (size 9 to 14) (size 15 to 20)
#    1.333    0.444    1.111    2.667    6.222    5.333 
#    8.000    0.000    0.000    0.000    0.000    0.000 
#    0.000    0.000    0.000    0.000    0.000    0.000 
#
# Total GULP energy -100302.114620 kJ/mol
# GULP energy per Si atom -5572.339701 kJ/mol
# Density = 2.007556 g / cm^3
# Si number density = 20.121359 Si / 1000 Ang^3
#
#
#
# Elastic Constant Matrix: (Units=GPa)
#
#
# Indices 1 2 3 4 5 6 
#
# 1 72.0403 45.6684 19.1078 0.0000 0.0000 0.0000
# 2 45.6684 107.4701 41.7284 0.0000 0.0000 0.0000
# 3 19.1078 41.7284 107.9899 0.0000 0.0000 0.0000
# 4 0.0000 0.0000 0.0000 0.5055 0.0000 0.0000
# 5 0.0000 0.0000 0.0000 0.0000 -33.4489 0.0000
# 6 0.0000 0.0000 0.0000 0.0000 0.0000 8.2958
#
#
#
# Elastic Compliance Matrix: (Units=1/GPa)
#
#
# Indices 1 2 3 4 5 6 
#
# 1 0.019007 -0.007966 -0.000285 0.000000 0.000000 0.000000
# 2 -0.007966 0.014286 -0.004111 0.000000 0.000000 0.000000
# 3 -0.000285 -0.004111 0.010899 0.000000 0.000000 0.000000
# 4 0.000000 0.000000 0.000000 1.978157 0.000000 0.000000
# 5 0.000000 0.000000 0.000000 0.000000 -0.029896 0.000000
# 6 0.000000 0.000000 0.000000 0.000000 0.000000 0.120543
#
#
# Mechanical properties :
#
#
# Convention : Reuss Voigt Hill
#
# Bulk Modulus (GPa) = 51.36560 55.61214 53.48887
# Shear Modulus (GPa) = 2.33186 7.13687 4.73436
#
# Velocity S-wave (km/s) = 1.07769 1.88537 1.53558
# Velocity P-wave (km/s) = 5.20883 5.69542 5.45755
#
# Compressibility (1/GPa) = 0.01946828
#
# Stress axis : x y z
#
# Youngs Moduli (GPa) = 52.61335 69.99791 91.75166
#
# Poissons Ratio (x) = 0.55761 0.02614
# Poissons Ratio (y) = 0.41912 0.37717
# Poissons Ratio (z) = 0.01499 0.28775
#
# Static dielectric constant tensor:
#      x y z
#    x 1.826800 0.000000 0.000000 
#    y 0.000000 1.859270 0.000000 
#    z 0.000000 0.000000 1.717240 
# 
# From -- ./inp_files/21321.got.cif
#   From: 2010.05.17/outbox.cif.g08.bks.cpg/sg23_11_cif.got.tgz:21321.got - 2010.06.04 12:02:01.
