data_PCOD9330671
_publ_section_title
;
Structure prediction by ZEFSAII (Michael W. Deem and Ramdas Pophale) SiO2 
 PCOD9330671
Probable space group: I 2 2 2
;
_chemical_formula_sum "Si O2"
_cell_formula_units_Z 34
_cell_length_a 11.881022
_cell_length_b 5.348835
_cell_length_c 22.304717
_cell_angle_alpha 90.000000
_cell_angle_beta 90.000000
_cell_angle_gamma 90.000000
_cell_volume 1417.456430
_symmetry_space_group_name_H-M "I 2 2 2"
_symmetry_group_IT_number 23
_symmetry_cell_setting 'orthorhombic'
loop_
_space_group_symop_operation_xyz
x,y,z
-x,-y,z
x,-y,-z
-x,y,-z
1/2+x,1/2+y,1/2+z
1/2-x,1/2-y,1/2+z
1/2+x,1/2-y,1/2-z
1/2-x,1/2+y,1/2-z
loop_
_atom_site_type_symbol
_atom_site_label
_atom_site_fract_x
_atom_site_fract_y
_atom_site_fract_z
Si Si1 0.110538 0.399992 0.253566
Si Si2 0.000000 0.500000 0.500000
Si Si3 0.662228 0.397590 0.818617
Si Si4 0.449150 0.257611 0.431511
Si Si5 0.689568 0.662404 0.941321
O O1 0.211896 0.409682 0.207403
O O2 0.104668 0.126094 0.282137
O O3 0.000000 0.500000 0.222481
O O4 0.126595 0.613750 0.304957
O O5 0.914359 0.658453 0.458223
O O6 0.657706 0.480442 0.886987
O O7 0.500000 0.500000 0.399834
O O8 0.500000 0.261263 0.500000
O O9 0.313564 0.278197 0.429061
O O10 0.500000 0.000000 0.407977
O O11 0.709984 0.500000 0.000000
#
# Coordination Sequence:
#
# PCOD9330671 Si02
#       5
#     8   2   8   8   8
#     4  10  22  46  72 101 136 178 238 299 362 412
#     4  12  30  44  66 102 152 208 242 286 360 472
#     4  10  25  43  72 104 136 184 237 294 353 431
#     4  10  20  40  67  91 129 186 229 292 346 407
#     4  12  27  46  68 107 153 196 249 292 369 450
#
# _framework density 23.986626000000001
#
# number of rings (size 3 to 8) (size 9 to 14) (size 15 to 20)
#    0.000    1.412    2.353    2.471    4.941    2.824 
#    0.000    4.706    0.000    0.000    0.000    0.000 
#    0.000    0.000    0.000    0.000    0.000    0.000 
#
# Total GULP energy -95059.101501 kJ/mol
# GULP energy per Si atom -5591.711853 kJ/mol
# Density = 2.393203 g / cm^3
# Si number density = 23.986626 Si / 1000 Ang^3
#
#
#
# Elastic Constant Matrix: (Units=GPa)
#
#
# Indices 1 2 3 4 5 6 
#
# 1 183.7104 77.3897 10.4143 0.0000 0.0000 0.0000
# 2 77.3897 158.8897 24.7675 0.0000 0.0000 0.0000
# 3 10.4143 24.7675 106.4070 0.0000 0.0000 0.0000
# 4 0.0000 0.0000 0.0000 3.4105 0.0000 0.0000
# 5 0.0000 0.0000 0.0000 0.0000 23.6904 0.0000
# 6 0.0000 0.0000 0.0000 0.0000 0.0000 34.3148
#
#
#
# Elastic Compliance Matrix: (Units=1/GPa)
#
#
# Indices 1 2 3 4 5 6 
#
# 1 0.006850 -0.003353 0.000110 0.000000 0.000000 0.000000
# 2 -0.003353 0.008172 -0.001574 0.000000 0.000000 0.000000
# 3 0.000110 -0.001574 0.009753 0.000000 0.000000 0.000000
# 4 0.000000 0.000000 0.000000 0.293211 0.000000 0.000000
# 5 0.000000 0.000000 0.000000 0.000000 0.042211 0.000000
# 6 0.000000 0.000000 0.000000 0.000000 0.000000 0.029142
#
#
# Mechanical properties :
#
#
# Convention : Reuss Voigt Hill
#
# Bulk Modulus (GPa) = 66.04585 74.90558 70.47571
# Shear Modulus (GPa) = 12.37559 34.71220 23.54389
#
# Velocity S-wave (km/s) = 2.27389 3.80827 3.13636
# Velocity P-wave (km/s) = 5.87268 7.11569 6.52385
#
# Compressibility (1/GPa) = 0.01514100
#
# Stress axis : x y z
#
# Youngs Moduli (GPa) = 145.99004 122.36330 102.52765
#
# Poissons Ratio (x) = 0.41034 -0.01129
# Poissons Ratio (y) = 0.48957 0.16138
# Poissons Ratio (z) = -0.01608 0.19260
#
# Static dielectric constant tensor:
#      x y z
#    x 2.061010 0.000000 0.000000 
#    y 0.000000 1.985580 0.000000 
#    z 0.000000 0.000000 2.192440 
# 
# From -- ./inp_files/4293.got.cif
#   From: 2010.05.17/outbox.cif.g08.bks.cpg/sg23_3_cif.got.tgz:4293.got - 2010.06.04 12:02:01.
