data_PCOD9330491
_publ_section_title
;
Structure prediction by ZEFSAII (Michael W. Deem and Ramdas Pophale) SiO2 
 PCOD9330491
Probable space group: I 2 2 2
;
_chemical_formula_sum "Si O2"
_cell_formula_units_Z 60
_cell_length_a 11.530085
_cell_length_b 12.858869
_cell_length_c 21.497733
_cell_angle_alpha 90.000000
_cell_angle_beta 90.000000
_cell_angle_gamma 90.000000
_cell_volume 3187.336716
_symmetry_space_group_name_H-M "I 2 2 2"
_symmetry_group_IT_number 23
_symmetry_cell_setting 'orthorhombic'
loop_
_space_group_symop_operation_xyz
x,y,z
-x,-y,z
x,-y,-z
-x,y,-z
1/2+x,1/2+y,1/2+z
1/2-x,1/2-y,1/2+z
1/2+x,1/2-y,1/2-z
1/2-x,1/2+y,1/2-z
loop_
_atom_site_type_symbol
_atom_site_label
_atom_site_fract_x
_atom_site_fract_y
_atom_site_fract_z
Si Si1 0.954147 0.272455 0.066128
Si Si2 0.000000 0.500000 0.885613
Si Si3 0.685118 0.161864 0.823265
Si Si4 0.500123 0.874212 0.926598
Si Si5 0.153089 0.868166 0.250232
Si Si6 0.226545 0.731990 0.632873
Si Si7 0.791095 0.557045 0.798538
Si Si8 0.951286 0.112771 0.834200
O O1 0.987953 0.393044 0.076249
O O2 0.818129 0.250409 0.077003
O O3 0.012370 0.204438 0.119839
O O4 0.000000 0.237376 0.000000
O O5 0.884912 0.502824 0.843019
O O6 0.611566 0.155606 0.885639
O O7 0.685745 0.279290 0.798697
O O8 0.640275 0.098166 0.762715
O O9 0.813926 0.117796 0.831472
O O10 0.608999 0.817277 0.893317
O O11 0.500000 0.000000 0.923160
O O12 0.500000 0.846398 0.000000
O O13 0.220797 0.844875 0.185496
O O14 0.018483 0.865639 0.230565
O O15 0.194575 0.976081 0.277707
O O16 0.231194 0.843747 0.668062
O O17 0.000000 0.000000 0.854625
#
# Coordination Sequence:
#
# PCOD9330491 Si02
#       8
#     8   4   8   8   8   8   8   8
#     4  10  22  40  66  88 125 171 207 272 312 372
#     4  10  21  38  62 100 123 156 226 254 318 390
#     4  11  24  37  65  90 122 171 206 262 323 385
#     4  11  26  44  64  87 121 171 220 261 310 391
#     4  10  21  37  63  92 127 160 199 263 325 388
#     4   9  22  40  61  96 125 157 216 260 315 377
#     4  10  20  37  63  96 127 161 196 268 327 381
#     4  11  23  40  57  97 131 157 216 260 323 387
#
# _framework density 18.824493
#
# number of rings (size 3 to 8) (size 9 to 14) (size 15 to 20)
#    0.000    1.733    1.333    2.600   10.267    0.267 
#    0.000    0.000    0.000    0.800    0.000    0.000 
#    0.000    0.000    0.000    0.000    0.000    0.000 
#
# Total GULP energy -167356.705335 kJ/mol
# GULP energy per Si atom -5578.556844 kJ/mol
# Density = 1.878165 g / cm^3
# Si number density = 18.824493 Si / 1000 Ang^3
#
#
#
# Elastic Constant Matrix: (Units=GPa)
#
#
# Indices 1 2 3 4 5 6 
#
# 1 136.7560 45.8284 61.2972 0.0000 0.0000 0.0000
# 2 45.8284 91.6916 31.2534 0.0000 0.0000 0.0000
# 3 61.2972 31.2534 100.7818 0.0000 0.0000 0.0000
# 4 0.0000 0.0000 0.0000 50.1584 0.0000 0.0000
# 5 0.0000 0.0000 0.0000 0.0000 17.3508 0.0000
# 6 0.0000 0.0000 0.0000 0.0000 0.0000 18.4364
#
#
#
# Elastic Compliance Matrix: (Units=1/GPa)
#
#
# Indices 1 2 3 4 5 6 
#
# 1 0.011025 -0.003606 -0.005587 0.000000 0.000000 0.000000
# 2 -0.003606 0.013375 -0.001954 0.000000 0.000000 0.000000
# 3 -0.005587 -0.001954 0.013927 0.000000 0.000000 0.000000
# 4 0.000000 0.000000 0.000000 0.019937 0.000000 0.000000
# 5 0.000000 0.000000 0.000000 0.000000 0.057634 0.000000
# 6 0.000000 0.000000 0.000000 0.000000 0.000000 0.054241
#
#
# Mechanical properties :
#
#
# Convention : Reuss Voigt Hill
#
# Bulk Modulus (GPa) = 62.37899 67.33191 64.85545
# Shear Modulus (GPa) = 25.28097 29.91248 27.59673
#
# Velocity S-wave (km/s) = 3.66865 3.99057 3.83299
# Velocity P-wave (km/s) = 7.15223 7.55505 7.35640
#
# Compressibility (1/GPa) = 0.01603104
#
# Stress axis : x y z
#
# Youngs Moduli (GPa) = 90.70215 74.76867 71.80372
#
# Poissons Ratio (x) = 0.26961 0.40120
# Poissons Ratio (y) = 0.32707 0.14033
# Poissons Ratio (z) = 0.50679 0.14613
#
# Static dielectric constant tensor:
#      x y z
#    x 1.661900 0.000000 0.000000 
#    y 0.000000 1.682700 0.000000 
#    z 0.000000 0.000000 1.645010 
# 
# From -- ./inp_files/26758.got.cif
#   From: 2010.05.17/outbox.cif.g08.bks.cpg/sg23_14_cif.got.tgz:26758.got - 2010.06.04 12:02:01.
