data_PCOD9330233
_publ_section_title
;
Structure prediction by ZEFSAII (Michael W. Deem and Ramdas Pophale) SiO2 
 PCOD9330233
Probable space group: I 2 2 2
;
_chemical_formula_sum "Si O2"
_cell_formula_units_Z 64
_cell_length_a 24.704045
_cell_length_b 14.376933
_cell_length_c 9.055857
_cell_angle_alpha 90.000000
_cell_angle_beta 90.000000
_cell_angle_gamma 90.000000
_cell_volume 3216.354239
_symmetry_space_group_name_H-M "I 2 2 2"
_symmetry_group_IT_number 23
_symmetry_cell_setting 'orthorhombic'
loop_
_space_group_symop_operation_xyz
x,y,z
-x,-y,z
x,-y,-z
-x,y,-z
1/2+x,1/2+y,1/2+z
1/2-x,1/2-y,1/2+z
1/2+x,1/2-y,1/2-z
1/2-x,1/2+y,1/2-z
loop_
_atom_site_type_symbol
_atom_site_label
_atom_site_fract_x
_atom_site_fract_y
_atom_site_fract_z
Si Si1 0.186242 0.156623 0.913886
Si Si2 0.806019 0.676830 0.364835
Si Si3 0.591418 0.717422 0.194184
Si Si4 0.008449 0.891526 0.822410
Si Si5 0.695844 0.448222 0.288111
Si Si6 0.614020 0.348801 0.129551
Si Si7 0.616507 0.082299 0.902180
Si Si8 0.308204 0.001203 0.673059
O O1 0.244623 0.206311 0.900031
O O2 0.139937 0.206318 0.815803
O O3 0.190849 0.052498 0.847853
O O4 0.180108 0.127699 0.086118
O O5 0.848383 0.758522 0.340846
O O6 0.831743 0.616180 0.498982
O O7 0.802011 0.607011 0.228148
O O8 0.538096 0.675002 0.263171
O O9 0.585558 0.824132 0.140773
O O10 0.600272 0.660658 0.042446
O O11 0.063972 0.858692 0.743163
O O12 0.000000 0.000000 0.780582
O O13 0.000000 0.888251 0.000000
O O14 0.653264 0.434751 0.159056
O O15 0.756943 0.442146 0.231242
O O16 0.639093 0.038115 0.753098
O O17 0.590005 0.000000 0.000000
O O18 0.311127 0.000000 0.500000
#
# Coordination Sequence:
#
# PCOD9330233 Si02
#       8
#     8   8   8   8   8   8   8   8
#     4  10  20  36  56  85 127 171 212 251 320 392
#     4   9  20  37  55  83 126 166 199 259 326 383
#     4  11  24  38  66  96 119 166 221 269 321 390
#     4  11  25  47  67  88 126 172 212 266 337 397
#     4  10  21  35  53  83 127 174 207 255 318 377
#     4  11  24  37  60  89 121 159 213 268 308 381
#     4   9  19  41  61  87 127 172 204 260 339 392
#     4  10  20  33  56  85 123 166 210 259 317 384
#
# _framework density 19.898306000000002
#
# number of rings (size 3 to 8) (size 9 to 14) (size 15 to 20)
#    0.000    1.875    1.250    1.875    5.250    6.000 
#    0.000    0.000    0.000   12.750    0.000    8.750 
#    0.000    0.000    0.000    0.000    0.000    0.000 
#
# Total GULP energy -178457.638485 kJ/mol
# GULP energy per Si atom -5576.801203 kJ/mol
# Density = 1.985302 g / cm^3
# Si number density = 19.898306 Si / 1000 Ang^3
#
#
#
# Elastic Constant Matrix: (Units=GPa)
#
#
# Indices 1 2 3 4 5 6 
#
# 1 93.1481 50.3404 23.8268 0.0000 0.0000 0.0000
# 2 50.3404 76.6091 50.7549 0.0000 0.0000 0.0000
# 3 23.8268 50.7549 105.2133 0.0000 0.0000 0.0000
# 4 0.0000 0.0000 0.0000 31.2341 0.0000 0.0000
# 5 0.0000 0.0000 0.0000 0.0000 21.3248 0.0000
# 6 0.0000 0.0000 0.0000 0.0000 0.0000 19.2517
#
#
#
# Elastic Compliance Matrix: (Units=1/GPa)
#
#
# Indices 1 2 3 4 5 6 
#
# 1 0.017006 -0.012674 0.002263 0.000000 0.000000 0.000000
# 2 -0.012674 0.028630 -0.010941 0.000000 0.000000 0.000000
# 3 0.002263 -0.010941 0.014270 0.000000 0.000000 0.000000
# 4 0.000000 0.000000 0.000000 0.032016 0.000000 0.000000
# 5 0.000000 0.000000 0.000000 0.000000 0.046894 0.000000
# 6 0.000000 0.000000 0.000000 0.000000 0.000000 0.051944
#
#
# Mechanical properties :
#
#
# Convention : Reuss Voigt Hill
#
# Bulk Modulus (GPa) = 58.13366 58.31276 58.22321
# Shear Modulus (GPa) = 20.90316 24.36534 22.63425
#
# Velocity S-wave (km/s) = 3.24466 3.50307 3.37634
# Velocity P-wave (km/s) = 6.58148 6.76247 6.67259
#
# Compressibility (1/GPa) = 0.01720174
#
# Stress axis : x y z
#
# Youngs Moduli (GPa) = 58.80185 34.92839 70.07705
#
# Poissons Ratio (x) = 0.44268 -0.15856
# Poissons Ratio (y) = 0.74525 0.76671
# Poissons Ratio (z) = -0.13305 0.38215
#
# Static dielectric constant tensor:
#      x y z
#    x 1.695970 0.000000 0.000000 
#    y 0.000000 1.773730 0.000000 
#    z 0.000000 0.000000 1.763370 
# 
# From -- ./inp_files/12717.got.cif
#   From: 2010.05.17/outbox.cif.g08.bks.cpg/sg23_7_cif.got.tgz:12717.got - 2010.06.04 12:02:01.
