data_PCOD9330755
_publ_section_title
;
Structure prediction by ZEFSAII (Michael W. Deem and Ramdas Pophale) SiO2 
 PCOD9330755
Probable space group: I 2 2 2
;
_chemical_formula_sum "Si O2"
_cell_formula_units_Z 38
_cell_length_a 16.138248
_cell_length_b 18.382643
_cell_length_c 4.836878
_cell_angle_alpha 90.000000
_cell_angle_beta 90.000000
_cell_angle_gamma 90.000000
_cell_volume 1434.925890
_symmetry_space_group_name_H-M "I 2 2 2"
_symmetry_group_IT_number 23
_symmetry_cell_setting 'orthorhombic'
loop_
_space_group_symop_operation_xyz
x,y,z
-x,-y,z
x,-y,-z
-x,y,-z
1/2+x,1/2+y,1/2+z
1/2-x,1/2-y,1/2+z
1/2+x,1/2-y,1/2-z
1/2-x,1/2+y,1/2-z
loop_
_atom_site_type_symbol
_atom_site_label
_atom_site_fract_x
_atom_site_fract_y
_atom_site_fract_z
Si Si1 0.500000 0.229670 0.000000
Si Si2 0.500000 0.000000 0.000000
Si Si3 0.692572 0.762917 0.477430
Si Si4 0.218891 0.049359 0.239450
Si Si5 0.128354 0.617479 0.599815
Si Si6 0.079300 0.851178 0.877753
O O1 0.574377 0.175083 0.918887
O O2 0.459869 0.283165 0.782731
O O3 0.562563 0.053287 0.166814
O O4 0.749178 0.772845 0.213325
O O5 0.632762 0.695005 0.402057
O O6 0.659653 0.835642 0.635441
O O7 0.297914 0.083351 0.080293
O O8 0.143315 0.103378 0.304739
O O9 0.243226 0.000000 0.500000
O O10 0.179540 0.000000 0.000000
O O11 0.000000 0.892299 0.000000
#
# Coordination Sequence:
#
# PCOD9330755 Si02
#       6
#     4   2   8   8   8   8
#     4   9  24  47  75 116 145 194 250 330 383 446
#     4  10  20  44  74 108 154 192 232 304 368 460
#     4  11  25  44  79 111 148 198 249 315 379 453
#     4  12  29  50  78 108 151 209 253 304 378 466
#     4  10  22  45  78 109 153 189 251 302 389 448
#     4  11  27  46  74 109 152 196 260 315 379 439
#
# _framework density 26.482205
#
# number of rings (size 3 to 8) (size 9 to 14) (size 15 to 20)
#    0.000    1.263    3.158    0.000   11.789    0.421 
#    3.789    0.526    0.000    0.000    0.000    0.000 
#    0.000    0.000    0.000    0.000    0.000    0.000 
#
# Total GULP energy -106239.030238 kJ/mol
# GULP energy per Si atom -5591.527907 kJ/mol
# Density = 2.642193 g / cm^3
# Si number density = 26.482205 Si / 1000 Ang^3
#
#
#
# Elastic Constant Matrix: (Units=GPa)
#
#
# Indices 1 2 3 4 5 6 
#
# 1 177.2993 64.7341 31.7216 0.0000 0.0000 0.0000
# 2 64.7341 96.6357 20.0019 0.0000 0.0000 0.0000
# 3 31.7216 20.0019 91.8644 0.0000 0.0000 0.0000
# 4 0.0000 0.0000 0.0000 46.0039 0.0000 0.0000
# 5 0.0000 0.0000 0.0000 0.0000 28.9103 0.0000
# 6 0.0000 0.0000 0.0000 0.0000 0.0000 34.1937
#
#
#
# Elastic Compliance Matrix: (Units=1/GPa)
#
#
# Indices 1 2 3 4 5 6 
#
# 1 0.007686 -0.004816 -0.001605 0.000000 0.000000 0.000000
# 2 -0.004816 0.013855 -0.001353 0.000000 0.000000 0.000000
# 3 -0.001605 -0.001353 0.011735 0.000000 0.000000 0.000000
# 4 0.000000 0.000000 0.000000 0.021737 0.000000 0.000000
# 5 0.000000 0.000000 0.000000 0.000000 0.034590 0.000000
# 6 0.000000 0.000000 0.000000 0.000000 0.000000 0.029245
#
#
# Mechanical properties :
#
#
# Convention : Reuss Voigt Hill
#
# Bulk Modulus (GPa) = 56.41789 66.52383 61.47086
# Shear Modulus (GPa) = 35.63641 38.44438 37.04040
#
# Velocity S-wave (km/s) = 3.67232 3.81426 3.74396
# Velocity P-wave (km/s) = 6.27149 6.67629 6.47705
#
# Compressibility (1/GPa) = 0.01772487
#
# Stress axis : x y z
#
# Youngs Moduli (GPa) = 130.10839 72.17801 85.21781
#
# Poissons Ratio (x) = 0.34763 0.13680
# Poissons Ratio (y) = 0.62665 0.11534
# Poissons Ratio (z) = 0.20887 0.09769
#
# Static dielectric constant tensor:
#      x y z
#    x 2.463670 0.000000 0.000000 
#    y 0.000000 2.177060 0.000000 
#    z 0.000000 0.000000 2.069740 
# 
# From -- ./inp_files/3128.got.cif
#   From: 2010.05.17/outbox.cif.g08.bks.cpg/sg23_2_cif.got.tgz:3128.got - 2010.06.04 12:02:01.
