data_PCOD9330562
_publ_section_title
;
Structure prediction by ZEFSAII (Michael W. Deem and Ramdas Pophale) SiO2 
 PCOD9330562
Probable space group: I 2 2 2
;
_chemical_formula_sum "Si O2"
_cell_formula_units_Z 44
_cell_length_a 17.537599
_cell_length_b 8.706053
_cell_length_c 14.143671
_cell_angle_alpha 90.000000
_cell_angle_beta 90.000000
_cell_angle_gamma 90.000000
_cell_volume 2159.501887
_symmetry_space_group_name_H-M "I 2 2 2"
_symmetry_group_IT_number 23
_symmetry_cell_setting 'orthorhombic'
loop_
_space_group_symop_operation_xyz
x,y,z
-x,-y,z
x,-y,-z
-x,y,-z
1/2+x,1/2+y,1/2+z
1/2-x,1/2-y,1/2+z
1/2+x,1/2-y,1/2-z
1/2-x,1/2+y,1/2-z
loop_
_atom_site_type_symbol
_atom_site_label
_atom_site_fract_x
_atom_site_fract_y
_atom_site_fract_z
Si Si1 0.411449 0.751297 0.384497
Si Si2 0.500000 0.500000 0.500000
Si Si3 0.788546 0.155374 0.555272
Si Si4 0.262233 0.819857 0.879840
Si Si5 0.701871 0.364544 0.691488
Si Si6 0.418191 0.429895 0.790224
Si Si7 0.000000 0.500000 0.000000
O O1 0.450539 0.610002 0.436527
O O2 0.322913 0.732752 0.405371
O O3 0.426261 0.723742 0.273324
O O4 0.447478 0.899472 0.431310
O O5 0.810425 0.277581 0.472684
O O6 0.719543 0.230904 0.615716
O O7 0.857841 0.109985 0.626579
O O8 0.767406 0.000000 0.500000
O O9 0.280891 0.714540 0.790870
O O10 0.255864 0.995253 0.844178
O O11 0.622341 0.448659 0.717291
O O12 0.500000 0.500000 0.819384
#
# Coordination Sequence:
#
# PCOD9330562 Si02
#       7
#     8   2   8   8   8   8   2
#     4  10  22  40  62  94 136 175 223 290 344 419
#     4  10  20  38  64  94 134 178 226 254 376 418
#     4  12  24  44  69 105 133 181 238 286 343 418
#     4  11  23  41  67 100 131 177 235 290 338 407
#     4  11  22  44  69 101 136 179 233 294 338 406
#     4  11  24  45  70 100 143 185 226 282 356 427
#     4  10  24  38  60 102 132 184 222 290 368 414
#
# _framework density 20.375070999999998
#
# number of rings (size 3 to 8) (size 9 to 14) (size 15 to 20)
#    0.000    1.091    6.364    0.545    6.364    0.364 
#    3.273    0.000    0.000    0.000    4.727    0.000 
#    0.000    0.000    0.000    0.000    0.000    0.000 
#
# Total GULP energy -122677.205189 kJ/mol
# GULP energy per Si atom -5576.236599 kJ/mol
# Density = 2.032870 g / cm^3
# Si number density = 20.375071 Si / 1000 Ang^3
#
#
#
# Elastic Constant Matrix: (Units=GPa)
#
#
# Indices 1 2 3 4 5 6 
#
# 1 18.0393 19.6949 15.7724 0.0000 0.0000 0.0000
# 2 19.6949 97.0361 40.2884 0.0000 0.0000 0.0000
# 3 15.7724 40.2884 130.9594 0.0000 0.0000 0.0000
# 4 0.0000 0.0000 0.0000 56.9331 0.0000 0.0000
# 5 0.0000 0.0000 0.0000 0.0000 30.3141 0.0000
# 6 0.0000 0.0000 0.0000 0.0000 0.0000 25.2271
#
#
#
# Elastic Compliance Matrix: (Units=1/GPa)
#
#
# Indices 1 2 3 4 5 6 
#
# 1 0.073872 -0.012954 -0.004912 0.000000 0.000000 0.000000
# 2 -0.012954 0.014086 -0.002773 0.000000 0.000000 0.000000
# 3 -0.004912 -0.002773 0.009081 0.000000 0.000000 0.000000
# 4 0.000000 0.000000 0.000000 0.017564 0.000000 0.000000
# 5 0.000000 0.000000 0.000000 0.000000 0.032988 0.000000
# 6 0.000000 0.000000 0.000000 0.000000 0.000000 0.039640
#
#
# Mechanical properties :
#
#
# Convention : Reuss Voigt Hill
#
# Bulk Modulus (GPa) = 17.93387 44.17180 31.05283
# Shear Modulus (GPa) = 20.23506 33.84681 27.04094
#
# Velocity S-wave (km/s) = 3.15481 4.08019 3.64697
# Velocity P-wave (km/s) = 4.70015 6.62749 5.74522
#
# Compressibility (1/GPa) = 0.05576042
#
# Stress axis : x y z
#
# Youngs Moduli (GPa) = 13.53696 70.99202 110.12379
#
# Poissons Ratio (x) = 0.91963 0.54090
# Poissons Ratio (y) = 0.17536 0.30541
# Poissons Ratio (z) = 0.06649 0.19688
#
# Static dielectric constant tensor:
#      x y z
#    x 1.665030 0.000000 0.000000 
#    y 0.000000 1.756530 0.000000 
#    z 0.000000 0.000000 1.783420 
# 
# From -- ./inp_files/21978.got.cif
#   From: 2010.05.17/outbox.cif.g08.bks.cpg/sg23_11_cif.got.tgz:21978.got - 2010.06.04 12:02:01.
