data_PCOD9330938
_publ_section_title
;
Structure prediction by ZEFSAII (Michael W. Deem and Ramdas Pophale) SiO2 
 PCOD9330938
Probable space group: I 2 2 2
;
_chemical_formula_sum "Si O2"
_cell_formula_units_Z 32
_cell_length_a 27.524281
_cell_length_b 5.339007
_cell_length_c 8.952307
_cell_angle_alpha 90.000000
_cell_angle_beta 90.000000
_cell_angle_gamma 90.000000
_cell_volume 1315.562363
_symmetry_space_group_name_H-M "I 2 2 2"
_symmetry_group_IT_number 23
_symmetry_cell_setting 'orthorhombic'
loop_
_space_group_symop_operation_xyz
x,y,z
-x,-y,z
x,-y,-z
-x,y,-z
1/2+x,1/2+y,1/2+z
1/2-x,1/2-y,1/2+z
1/2+x,1/2-y,1/2-z
1/2-x,1/2+y,1/2-z
loop_
_atom_site_type_symbol
_atom_site_label
_atom_site_fract_x
_atom_site_fract_y
_atom_site_fract_z
Si Si1 0.274208 0.748960 0.099554
Si Si2 0.479316 0.252342 0.826582
Si Si3 0.334316 0.747358 0.600495
Si Si4 0.126672 0.421138 0.328341
O O1 0.322939 0.770641 0.196996
O O2 0.277492 0.500000 0.000000
O O3 0.220478 0.758965 0.170003
O O4 0.274134 0.000000 0.000000
O O5 0.500000 0.500000 0.755198
O O6 0.421639 0.238972 0.811172
O O7 0.500000 0.000000 0.757913
O O8 0.500000 0.251735 0.000000
O O9 0.342925 0.500000 0.500000
O O10 0.371215 0.174106 0.269322
O O11 0.335358 0.000000 0.500000
O O12 0.125689 0.500000 0.500000
#
# Coordination Sequence:
#
# PCOD9330938 Si02
#       4
#     8   8   8   8
#     4   9  21  37  60  93 137 185 248 300 360 437
#     4  10  21  38  59  96 145 166 221 307 384 404
#     4  10  24  45  62  95 149 195 234 301 369 450
#     4  11  23  40  71 103 135 195 249 299 368 439
#
# _framework density 24.324200000000001
#
# number of rings (size 3 to 8) (size 9 to 14) (size 15 to 20)
#    0.000    2.000    2.500    0.000    3.500   16.000 
#    0.000    0.000    0.000    0.750    0.000    5.250 
#    0.000    0.000    0.000    0.000    0.000    0.000 
#
# Total GULP energy -89449.636820 kJ/mol
# GULP energy per Si atom -5590.602301 kJ/mol
# Density = 2.426884 g / cm^3
# Si number density = 24.324200 Si / 1000 Ang^3
#
#
#
# Elastic Constant Matrix: (Units=GPa)
#
#
# Indices 1 2 3 4 5 6 
#
# 1 147.4032 68.5218 37.9790 0.0000 0.0000 0.0000
# 2 68.5218 213.9650 54.1452 0.0000 0.0000 0.0000
# 3 37.9790 54.1452 93.8755 0.0000 0.0000 0.0000
# 4 0.0000 0.0000 0.0000 17.9639 0.0000 0.0000
# 5 0.0000 0.0000 0.0000 0.0000 6.1357 0.0000
# 6 0.0000 0.0000 0.0000 0.0000 0.0000 58.2399
#
#
#
# Elastic Compliance Matrix: (Units=1/GPa)
#
#
# Indices 1 2 3 4 5 6 
#
# 1 0.008323 -0.002123 -0.002143 0.000000 0.000000 0.000000
# 2 -0.002123 0.006014 -0.002610 0.000000 0.000000 0.000000
# 3 -0.002143 -0.002610 0.013024 0.000000 0.000000 0.000000
# 4 0.000000 0.000000 0.000000 0.055667 0.000000 0.000000
# 5 0.000000 0.000000 0.000000 0.000000 0.162981 0.000000
# 6 0.000000 0.000000 0.000000 0.000000 0.000000 0.017170
#
#
# Mechanical properties :
#
#
# Convention : Reuss Voigt Hill
#
# Bulk Modulus (GPa) = 73.47321 86.28173 79.87747
# Shear Modulus (GPa) = 17.76397 36.10775 26.93586
#
# Velocity S-wave (km/s) = 2.70534 3.85702 3.33133
# Velocity P-wave (km/s) = 6.32692 7.44204 6.90702
#
# Compressibility (1/GPa) = 0.01361040
#
# Stress axis : x y z
#
# Youngs Moduli (GPa) = 120.14607 166.27730 76.77840
#
# Poissons Ratio (x) = 0.35305 0.16451
# Poissons Ratio (y) = 0.25510 0.20037
# Poissons Ratio (z) = 0.25743 0.43394
#
# Static dielectric constant tensor:
#      x y z
#    x 1.999870 0.000000 0.000000 
#    y 0.000000 1.999630 0.000000 
#    z 0.000000 0.000000 1.952420 
# 
# From -- ./inp_files/13154.got.cif
#   From: 2010.05.17/outbox.cif.g08.bks.cpg/sg23_7_cif.got.tgz:13154.got - 2010.06.04 12:02:01.
