data_PCOD9330664
_publ_section_title
;
Structure prediction by ZEFSAII (Michael W. Deem and Ramdas Pophale) SiO2 
 PCOD9330664
Probable space group: I 2 2 2
;
_chemical_formula_sum "Si O2"
_cell_formula_units_Z 58
_cell_length_a 12.155298
_cell_length_b 27.449337
_cell_length_c 8.723436
_cell_angle_alpha 90.000000
_cell_angle_beta 90.000000
_cell_angle_gamma 90.000000
_cell_volume 2910.616914
_symmetry_space_group_name_H-M "I 2 2 2"
_symmetry_group_IT_number 23
_symmetry_cell_setting 'orthorhombic'
loop_
_space_group_symop_operation_xyz
x,y,z
-x,-y,z
x,-y,-z
-x,y,-z
1/2+x,1/2+y,1/2+z
1/2-x,1/2-y,1/2+z
1/2+x,1/2-y,1/2-z
1/2-x,1/2+y,1/2-z
loop_
_atom_site_type_symbol
_atom_site_label
_atom_site_fract_x
_atom_site_fract_y
_atom_site_fract_z
Si Si1 0.000000 0.000000 0.500000
Si Si2 0.562022 0.668966 0.864956
Si Si3 0.853174 0.303167 0.868554
Si Si4 0.169196 0.079396 0.560608
Si Si5 0.287909 0.298534 0.608321
Si Si6 0.553136 0.834172 0.160237
Si Si7 0.886645 0.600340 0.928336
Si Si8 0.340949 0.348058 0.312450
O O1 0.916497 0.963818 0.584807
O O2 0.659562 0.694149 0.775468
O O3 0.466513 0.658685 0.741128
O O4 0.500000 0.698005 0.000000
O O5 0.611533 0.621679 0.954281
O O6 0.838994 0.251854 0.951263
O O7 0.743685 0.309976 0.766069
O O8 0.960738 0.307296 0.762316
O O9 0.862122 0.348454 0.983270
O O10 0.281253 0.067901 0.469657
O O11 0.194587 0.102368 0.726750
O O12 0.157685 0.300707 0.624473
O O13 0.324121 0.341249 0.492080
O O14 0.594366 0.881416 0.255784
O O15 0.500000 0.848991 0.000000
O O16 0.000000 0.580962 0.000000
#
# Coordination Sequence:
#
# PCOD9330664 Si02
#       8
#     2   8   8   8   8   8   8   8
#     4  12  20  40  78  98 128 144 206 258 324 428
#     4  10  21  38  58  84 119 157 207 251 319 373
#     4  10  24  36  54  82 123 172 221 266 307 358
#     4  10  20  40  64  97 117 159 193 257 322 392
#     4  12  24  35  60  83 124 174 215 272 306 373
#     4  11  22  38  54  86 116 166 223 264 310 363
#     4   9  20  39  60  81 127 164 208 256 307 370
#     4  10  21  38  56  85 123 157 213 252 325 368
#
# _framework density 19.927047000000002
#
# number of rings (size 3 to 8) (size 9 to 14) (size 15 to 20)
#    0.000    1.655    4.828    0.414    3.862    2.759 
#    0.000    0.345    0.000    1.655    0.000    0.000 
#    0.000    0.000    0.000    0.000    0.000    0.000 
#
# Total GULP energy -161790.514372 kJ/mol
# GULP energy per Si atom -5578.983254 kJ/mol
# Density = 1.988169 g / cm^3
# Si number density = 19.927047 Si / 1000 Ang^3
#
#
#
# Elastic Constant Matrix: (Units=GPa)
#
#
# Indices 1 2 3 4 5 6 
#
# 1 127.6942 16.5920 34.5735 0.0001 -0.0001 0.0000
# 2 16.5920 43.5807 16.7004 0.0002 0.0001 0.0000
# 3 34.5735 16.7004 90.6048 0.0004 -0.0005 0.0001
# 4 0.0001 0.0002 0.0004 3.9545 0.0000 0.0000
# 5 -0.0001 0.0001 -0.0005 0.0000 37.6571 0.0000
# 6 0.0000 0.0000 0.0001 0.0000 0.0000 21.4475
#
#
#
# Elastic Compliance Matrix: (Units=1/GPa)
#
#
# Indices 1 2 3 4 5 6 
#
# 1 0.008935 -0.002254 -0.002994 0.000000 0.000000 0.000000
# 2 -0.002254 0.025259 -0.003795 -0.000001 0.000000 0.000000
# 3 -0.002994 -0.003795 0.012879 -0.000001 0.000000 0.000000
# 4 0.000000 -0.000001 -0.000001 0.252875 0.000000 0.000000
# 5 0.000000 0.000000 0.000000 0.000000 0.026555 0.000000
# 6 0.000000 0.000000 0.000000 0.000000 0.000000 0.046625
#
#
# Mechanical properties :
#
#
# Convention : Reuss Voigt Hill
#
# Bulk Modulus (GPa) = 34.50064 44.17906 39.33985
# Shear Modulus (GPa) = 12.47266 25.54609 19.00937
#
# Velocity S-wave (km/s) = 2.50455 3.58436 3.09196
# Velocity P-wave (km/s) = 5.07097 6.27285 5.70366
#
# Compressibility (1/GPa) = 0.02898497
#
# Stress axis : x y z
#
# Youngs Moduli (GPa) = 111.92299 39.59039 77.64621
#
# Poissons Ratio (x) = 0.08925 0.23246
# Poissons Ratio (y) = 0.25231 0.29470
# Poissons Ratio (z) = 0.33508 0.15026
#
# Static dielectric constant tensor:
#      x y z
#    x 1.770310 0.000000 0.000000 
#    y 0.000000 1.713800 0.000000 
#    z 0.000000 0.000000 1.734510 
# 
# From -- ./inp_files/8918.got.cif
#   From: 2010.05.17/outbox.cif.g08.bks.cpg/sg23_5_cif.got.tgz:8918.got - 2010.06.04 12:02:01.
