data_PCOD9330160
_publ_section_title
;
Structure prediction by ZEFSAII (Michael W. Deem and Ramdas Pophale) SiO2 
 PCOD9330160
Probable space group: I 2 2 2
;
_chemical_formula_sum "Si O2"
_cell_formula_units_Z 38
_cell_length_a 8.789231
_cell_length_b 22.891229
_cell_length_c 9.064709
_cell_angle_alpha 90.000000
_cell_angle_beta 90.000000
_cell_angle_gamma 90.000000
_cell_volume 1823.785907
_symmetry_space_group_name_H-M "I 2 2 2"
_symmetry_group_IT_number 23
_symmetry_cell_setting 'orthorhombic'
loop_
_space_group_symop_operation_xyz
x,y,z
-x,-y,z
x,-y,-z
-x,y,-z
1/2+x,1/2+y,1/2+z
1/2-x,1/2-y,1/2+z
1/2+x,1/2-y,1/2-z
1/2-x,1/2+y,1/2-z
loop_
_atom_site_type_symbol
_atom_site_label
_atom_site_fract_x
_atom_site_fract_y
_atom_site_fract_z
Si Si1 0.500000 0.500000 0.000000
Si Si2 0.563501 0.804634 0.337737
Si Si3 0.259256 0.000000 0.000000
Si Si4 0.242738 0.388216 0.645972
Si Si5 0.413236 0.578732 0.739639
Si Si6 0.763244 0.312050 0.650827
O O1 0.410585 0.457515 0.110106
O O2 0.500000 0.814568 0.500000
O O3 0.663875 0.858641 0.283922
O O4 0.663168 0.745978 0.344351
O O5 0.427531 0.798954 0.218957
O O6 0.159078 0.037323 0.885220
O O7 0.337812 0.948138 0.907921
O O8 0.416159 0.404383 0.688351
O O9 0.235474 0.340978 0.512577
O O10 0.316839 0.637712 0.747852
#
# Coordination Sequence:
#
# PCOD9330160 Si02
#       6
#     2   8   4   8   8   8
#     4  12  24  34  68 106 132 166 212 272 328 362
#     4  12  26  43  65 100 131 165 214 275 328 377
#     4  10  19  42  73  94 123 176 227 254 307 400
#     4  11  22  43  70  93 128 175 221 259 314 393
#     4  11  22  40  68  98 128 170 219 267 313 385
#     4  11  24  44  67  93 129 174 215 261 324 395
#
# _framework density 20.835778000000001
#
# number of rings (size 3 to 8) (size 9 to 14) (size 15 to 20)
#    0.000    0.842    2.105    7.579    2.947    0.000 
#    3.789    8.421    0.000    6.316    0.000    0.000 
#    0.000    0.000    0.000    0.000    0.000    0.000 
#
# Total GULP energy -106257.662052 kJ/mol
# GULP energy per Si atom -5592.508529 kJ/mol
# Density = 2.078835 g / cm^3
# Si number density = 20.835778 Si / 1000 Ang^3
#
#
#
# Elastic Constant Matrix: (Units=GPa)
#
#
# Indices 1 2 3 4 5 6 
#
# 1 53.6564 40.0932 17.9040 0.0014 -0.0012 -0.0013
# 2 40.0932 162.9839 48.8271 0.0000 -0.0001 0.0001
# 3 17.9040 48.8271 97.2368 0.0037 -0.0006 -0.0059
# 4 0.0014 0.0000 0.0037 39.1703 0.0002 -0.0004
# 5 -0.0012 -0.0001 -0.0006 0.0002 14.9605 0.0011
# 6 -0.0013 0.0001 -0.0059 -0.0004 0.0011 17.2359
#
#
#
# Elastic Compliance Matrix: (Units=1/GPa)
#
#
# Indices 1 2 3 4 5 6 
#
# 1 0.023056 -0.005179 -0.001645 -0.000001 0.000002 0.000001
# 2 -0.005179 0.008385 -0.003257 0.000001 0.000000 -0.000002
# 3 -0.001645 -0.003257 0.012223 -0.000001 0.000000 0.000004
# 4 -0.000001 0.000001 -0.000001 0.025530 0.000000 0.000001
# 5 0.000002 0.000000 0.000000 0.000000 0.066843 -0.000004
# 6 0.000001 -0.000002 0.000004 0.000001 -0.000004 0.058018
#
#
# Mechanical properties :
#
#
# Convention : Reuss Voigt Hill
#
# Bulk Modulus (GPa) = 42.54899 58.61397 50.58148
# Shear Modulus (GPa) = 22.51752 28.07685 25.29718
#
# Velocity S-wave (km/s) = 3.29099 3.67486 3.48821
# Velocity P-wave (km/s) = 5.90815 6.79695 6.36808
#
# Compressibility (1/GPa) = 0.02350232
#
# Stress axis : x y z
#
# Youngs Moduli (GPa) = 43.37331 119.25607 81.81609
#
# Poissons Ratio (x) = 0.61761 0.13456
# Poissons Ratio (y) = 0.22462 0.26648
# Poissons Ratio (z) = 0.07133 0.38843
#
# Static dielectric constant tensor:
#      x y z
#    x 1.765790 0.000000 0.000000 
#    y 0.000000 1.741750 0.000000 
#    z 0.000000 0.000000 1.772600 
# 
# From -- ./inp_files/6930.got.cif
#   From: 2010.05.17/outbox.cif.g08.bks.cpg/sg23_4_cif.got.tgz:6930.got - 2010.06.04 12:02:01.
