data_PCOD9330819
_publ_section_title
;
Structure prediction by ZEFSAII (Michael W. Deem and Ramdas Pophale) SiO2 
 PCOD9330819
Probable space group: I 2 2 2
;
_chemical_formula_sum "Si O2"
_cell_formula_units_Z 56
_cell_length_a 29.983336
_cell_length_b 16.549349
_cell_length_c 5.221491
_cell_angle_alpha 90.000000
_cell_angle_beta 90.000000
_cell_angle_gamma 90.000000
_cell_volume 2590.928332
_symmetry_space_group_name_H-M "I 2 2 2"
_symmetry_group_IT_number 23
_symmetry_cell_setting 'orthorhombic'
loop_
_space_group_symop_operation_xyz
x,y,z
-x,-y,z
x,-y,-z
-x,y,-z
1/2+x,1/2+y,1/2+z
1/2-x,1/2-y,1/2+z
1/2+x,1/2-y,1/2-z
1/2-x,1/2+y,1/2-z
loop_
_atom_site_type_symbol
_atom_site_label
_atom_site_fract_x
_atom_site_fract_y
_atom_site_fract_z
Si Si1 0.398358 0.298867 0.955456
Si Si2 0.095638 0.975181 0.744835
Si Si3 0.156844 0.643939 0.569562
Si Si4 0.693710 0.454555 0.748923
Si Si5 0.551973 0.755569 0.453037
Si Si6 0.248120 0.196872 0.832849
Si Si7 0.393940 0.911100 0.580005
O O1 0.357085 0.237531 0.986615
O O2 0.425135 0.298322 0.226316
O O3 0.388528 0.384698 0.819077
O O4 0.427786 0.258764 0.733216
O O5 0.067597 0.000000 0.500000
O O6 0.140268 0.031175 0.754509
O O7 0.071071 0.000000 0.000000
O O8 0.209797 0.641864 0.588396
O O9 0.136097 0.619304 0.841845
O O10 0.135501 0.592716 0.338515
O O11 0.711174 0.500000 0.500000
O O12 0.707380 0.362119 0.733215
O O13 0.710799 0.500000 0.000000
O O14 0.500000 0.743055 0.500000
O O15 0.566160 0.847093 0.380331
O O16 0.260963 0.246630 0.577746
O O17 0.409256 0.000000 0.500000
#
# Coordination Sequence:
#
# PCOD9330819 Si02
#       7
#     8   8   8   8   8   8   8
#     4  10  21  38  62  89 126 166 208 251 319 377
#     4  10  21  35  61  87 118 155 209 262 306 374
#     4  10  23  38  59  88 122 172 213 260 308 393
#     4  10  23  40  58  87 120 163 208 277 323 372
#     4  10  21  39  64  97 127 161 206 257 318 385
#     4  12  26  40  62  90 128 169 217 274 336 377
#     4  10  21  40  63  91 125 167 213 256 311 380
#
# _framework density 21.613873999999999
#
# number of rings (size 3 to 8) (size 9 to 14) (size 15 to 20)
#    0.000    1.714    0.000    3.429    8.000    2.000 
#    0.000    0.000    0.000   11.571    0.000    0.000 
#    0.000    0.000    0.000    0.000    0.000    0.000 
#
# Total GULP energy -156233.728245 kJ/mol
# GULP energy per Si atom -5579.776009 kJ/mol
# Density = 2.156468 g / cm^3
# Si number density = 21.613874 Si / 1000 Ang^3
#
#
#
# Elastic Constant Matrix: (Units=GPa)
#
#
# Indices 1 2 3 4 5 6 
#
# 1 52.8762 3.3246 1.4808 0.0000 0.0000 0.0000
# 2 3.3246 79.1064 17.6596 0.0000 0.0000 0.0000
# 3 1.4808 17.6596 165.0570 0.0000 0.0000 0.0000
# 4 0.0000 0.0000 0.0000 42.2174 0.0002 0.0000
# 5 0.0000 0.0000 0.0000 0.0002 -22.6836 -0.0001
# 6 0.0000 0.0000 0.0000 0.0000 -0.0001 -4.4482
#
#
#
# Elastic Compliance Matrix: (Units=1/GPa)
#
#
# Indices 1 2 3 4 5 6 
#
# 1 0.018963 -0.000778 -0.000087 0.000000 0.000000 0.000000
# 2 -0.000778 0.012982 -0.001382 0.000000 0.000000 0.000000
# 3 -0.000087 -0.001382 0.006207 0.000000 0.000000 0.000000
# 4 0.000000 0.000000 0.000000 0.023687 0.000000 0.000000
# 5 0.000000 0.000000 0.000000 0.000000 -0.044085 0.000001
# 6 0.000000 0.000000 0.000000 0.000000 0.000001 -0.224811
#
#
# Mechanical properties :
#
#
# Convention : Reuss Voigt Hill
#
# Bulk Modulus (GPa) = 29.70894 37.99664 33.85279
# Shear Modulus (GPa) = -26.13115 21.32208 -2.40453
#
# Velocity S-wave (km/s) = -3.48084 3.14427 -1.05589
# Velocity P-wave (km/s) = 1.54267 5.54976 3.76961
#
# Compressibility (1/GPa) = 0.03365991
#
# Stress axis : x y z
#
# Youngs Moduli (GPa) = 52.73309 77.02740 161.10432
#
# Poissons Ratio (x) = 0.05989 0.01401
# Poissons Ratio (y) = 0.04100 0.22265
# Poissons Ratio (z) = 0.00458 0.10645
#
# Static dielectric constant tensor:
#      x y z
#    x 1.761180 0.000000 0.000000 
#    y 0.000000 1.876380 0.000000 
#    z 0.000000 0.000000 1.835970 
# 
# From -- ./inp_files/5368.got.cif
#   From: 2010.05.17/outbox.cif.g08.bks.cpg/sg23_3_cif.got.tgz:5368.got - 2010.06.04 12:02:01.
