data_PCOD9330891
_publ_section_title
;
Structure prediction by ZEFSAII (Michael W. Deem and Ramdas Pophale) SiO2 
 PCOD9330891
Probable space group: I 2 2 2
;
_chemical_formula_sum "Si O2"
_cell_formula_units_Z 52
_cell_length_a 9.941835
_cell_length_b 24.347676
_cell_length_c 10.659388
_cell_angle_alpha 90.000000
_cell_angle_beta 90.000000
_cell_angle_gamma 90.000000
_cell_volume 2580.217614
_symmetry_space_group_name_H-M "I 2 2 2"
_symmetry_group_IT_number 23
_symmetry_cell_setting 'orthorhombic'
loop_
_space_group_symop_operation_xyz
x,y,z
-x,-y,z
x,-y,-z
-x,y,-z
1/2+x,1/2+y,1/2+z
1/2-x,1/2-y,1/2+z
1/2+x,1/2-y,1/2-z
1/2-x,1/2+y,1/2-z
loop_
_atom_site_type_symbol
_atom_site_label
_atom_site_fract_x
_atom_site_fract_y
_atom_site_fract_z
Si Si1 0.259480 0.150509 0.108865
Si Si2 0.851997 0.526740 0.631537
Si Si3 0.041066 0.175199 0.300959
Si Si4 0.500000 0.411874 0.000000
Si Si5 0.864715 0.029913 0.271084
Si Si6 0.014430 0.700755 0.648566
Si Si7 0.726521 0.646115 0.319702
O O1 0.336810 0.091958 0.112394
O O2 0.119917 0.152855 0.181419
O O3 0.359585 0.191377 0.184077
O O4 0.223806 0.163985 0.964892
O O5 0.801860 0.500000 0.500000
O O6 0.757324 0.511533 0.748842
O O7 0.000000 0.500000 0.648917
O O8 0.073945 0.130770 0.407792
O O9 0.069604 0.237872 0.336048
O O10 0.882534 0.174851 0.268320
O O11 0.595126 0.447993 0.909571
O O12 0.816504 0.082976 0.193833
O O13 0.000000 0.000000 0.223771
O O14 0.000000 0.688160 0.500000
O O15 0.119401 0.659858 0.714440
#
# Coordination Sequence:
#
# PCOD9330891 Si02
#       7
#     8   8   8   4   8   8   8
#     4  11  22  37  61  91 121 155 198 255 312 365
#     4  11  22  37  62  94 128 159 199 259 327 375
#     4  11  21  39  61  87 119 158 209 249 295 368
#     4  10  23  40  60  86 120 166 207 242 290 362
#     4  11  22  39  63  89 126 163 205 251 305 369
#     4  10  21  38  62  86 121 159 196 249 317 365
#     4  10  21  37  59  89 122 152 197 256 308 365
#
# _framework density 20.15334
#
# number of rings (size 3 to 8) (size 9 to 14) (size 15 to 20)
#    0.000    1.385    2.308    4.385    4.308    0.308 
#    0.000    0.000    0.000   16.615    0.000    0.000 
#    0.000    0.000    0.000    0.000    0.000    0.000 
#
# Total GULP energy -144841.176205 kJ/mol
# GULP energy per Si atom -5570.814469 kJ/mol
# Density = 2.010747 g / cm^3
# Si number density = 20.153340 Si / 1000 Ang^3
#
#
#
# Elastic Constant Matrix: (Units=GPa)
#
#
# Indices 1 2 3 4 5 6 
#
# 1 70.8444 17.8478 16.4935 -0.0011 0.0000 0.0002
# 2 17.8478 97.9869 8.8027 -0.0003 0.0000 0.0001
# 3 16.4935 8.8027 54.7037 -0.0061 -0.0088 0.0017
# 4 -0.0011 -0.0003 -0.0061 23.0644 -0.0015 0.0002
# 5 0.0000 0.0000 -0.0088 -0.0015 21.3584 -0.0002
# 6 0.0002 0.0001 0.0017 0.0002 -0.0002 33.2126
#
#
#
# Elastic Compliance Matrix: (Units=1/GPa)
#
#
# Indices 1 2 3 4 5 6 
#
# 1 0.015753 -0.002478 -0.004351 0.000000 -0.000002 0.000000
# 2 -0.002478 0.010745 -0.000982 0.000000 0.000000 0.000000
# 3 -0.004351 -0.000982 0.019750 0.000005 0.000008 -0.000001
# 4 0.000000 0.000000 0.000005 0.043357 0.000003 0.000000
# 5 -0.000002 0.000000 0.000008 0.000003 0.046820 0.000000
# 6 0.000000 0.000000 -0.000001 0.000000 0.000000 0.030109
#
#
# Mechanical properties :
#
#
# Convention : Reuss Voigt Hill
#
# Bulk Modulus (GPa) = 32.65201 34.42477 33.53839
# Shear Modulus (GPa) = 25.99234 27.55315 26.77275
#
# Velocity S-wave (km/s) = 3.59518 3.70155 3.64875
# Velocity P-wave (km/s) = 5.78538 5.94870 5.86761
#
# Compressibility (1/GPa) = 0.03062598
#
# Stress axis : x y z
#
# Youngs Moduli (GPa) = 63.48100 93.06589 50.63271
#
# Poissons Ratio (x) = 0.23066 0.22029
# Poissons Ratio (y) = 0.15733 0.04971
# Poissons Ratio (z) = 0.27619 0.09137
#
# Static dielectric constant tensor:
#      x y z
#    x 1.772850 0.000000 0.000000 
#    y 0.000000 1.782980 0.000000 
#    z 0.000000 0.000000 1.718100 
# 
# From -- ./inp_files/14874.got.cif
#   From: 2010.05.17/outbox.cif.g08.bks.cpg/sg23_8_cif.got.tgz:14874.got - 2010.06.04 12:02:01.
