data_PCOD9330336
_publ_section_title
;
Structure prediction by ZEFSAII (Michael W. Deem and Ramdas Pophale) SiO2 
 PCOD9330336
Probable space group: I 2 2 2
;
_chemical_formula_sum "Si O2"
_cell_formula_units_Z 34
_cell_length_a 14.643909
_cell_length_b 20.927068
_cell_length_c 5.246002
_cell_angle_alpha 90.000000
_cell_angle_beta 90.000000
_cell_angle_gamma 90.000000
_cell_volume 1607.658714
_symmetry_space_group_name_H-M "I 2 2 2"
_symmetry_group_IT_number 23
_symmetry_cell_setting 'orthorhombic'
loop_
_space_group_symop_operation_xyz
x,y,z
-x,-y,z
x,-y,-z
-x,y,-z
1/2+x,1/2+y,1/2+z
1/2-x,1/2-y,1/2+z
1/2+x,1/2-y,1/2-z
1/2-x,1/2+y,1/2-z
loop_
_atom_site_type_symbol
_atom_site_label
_atom_site_fract_x
_atom_site_fract_y
_atom_site_fract_z
Si Si1 0.892519 0.856871 0.500134
Si Si2 0.196114 0.734114 0.311131
Si Si3 0.442468 0.875190 0.759291
Si Si4 0.000000 0.500000 0.500000
Si Si5 0.111962 0.073719 0.994935
O O1 0.876121 0.783676 0.567745
O O2 0.852782 0.896835 0.733608
O O3 0.000000 0.868693 0.500000
O O4 0.857072 0.884223 0.234431
O O5 0.270667 0.737865 0.538547
O O6 0.149854 0.665775 0.257444
O O7 0.500000 0.867060 0.500000
O O8 0.500000 0.848973 0.000000
O O9 0.439794 0.951026 0.829107
O O10 0.000000 0.075421 0.000000
O O11 0.138474 0.000000 0.000000
#
# Coordination Sequence:
#
# PCOD9330336 Si02
#       5
#     8   8   8   2   8
#     4  10  20  35  58  85 114 157 215 254 302 380
#     4  12  25  40  61  92 140 173 205 267 352 413
#     4  10  21  41  71 100 128 171 235 285 342 404
#     4   8  22  40  78 104 118 168 246 300 334 384
#     4   9  17  31  55  81 110 145 192 253 294 334
#
# _framework density 21.148769000000001
#
# number of rings (size 3 to 8) (size 9 to 14) (size 15 to 20)
#    0.706    1.176    0.000    4.588    0.000    5.647 
#    0.000    0.000   15.529    0.000    0.000    0.000 
#    0.000    0.000    0.000    0.000    0.000    0.000 
#
# Total GULP energy -94721.279608 kJ/mol
# GULP energy per Si atom -5571.839977 kJ/mol
# Density = 2.110063 g / cm^3
# Si number density = 21.148769 Si / 1000 Ang^3
#
#
#
# Elastic Constant Matrix: (Units=GPa)
#
#
# Indices 1 2 3 4 5 6 
#
# 1 46.0369 44.0281 43.7271 0.0000 0.0000 0.0000
# 2 44.0281 154.1409 67.7474 0.0000 0.0000 0.0000
# 3 43.7271 67.7474 174.2640 0.0000 0.0000 0.0000
# 4 0.0000 0.0000 0.0000 16.8841 0.0000 0.0000
# 5 0.0000 0.0000 0.0000 0.0000 22.0221 0.0000
# 6 0.0000 0.0000 0.0000 0.0000 0.0000 1.7798
#
#
#
# Elastic Compliance Matrix: (Units=1/GPa)
#
#
# Indices 1 2 3 4 5 6 
#
# 1 0.034073 -0.007206 -0.005748 0.000000 0.000000 0.000000
# 2 -0.007206 0.009349 -0.001826 0.000000 0.000000 0.000000
# 3 -0.005748 -0.001826 0.007891 0.000000 0.000000 0.000000
# 4 0.000000 0.000000 0.000000 0.059227 0.000000 0.000000
# 5 0.000000 0.000000 0.000000 0.000000 0.045409 0.000000
# 6 0.000000 0.000000 0.000000 0.000000 0.000000 0.561870
#
#
# Mechanical properties :
#
#
# Convention : Reuss Voigt Hill
#
# Bulk Modulus (GPa) = 45.97414 76.16079 61.06747
# Shear Modulus (GPa) = 6.62576 22.73315 14.67945
#
# Velocity S-wave (km/s) = 1.77193 3.28215 2.63744
# Velocity P-wave (km/s) = 5.09627 7.10306 6.18164
#
# Compressibility (1/GPa) = 0.02175136
#
# Stress axis : x y z
#
# Youngs Moduli (GPa) = 29.34853 106.96897 126.73016
#
# Poissons Ratio (x) = 0.77082 0.72849
# Poissons Ratio (y) = 0.21149 0.23143
# Poissons Ratio (z) = 0.16871 0.19534
#
# Static dielectric constant tensor:
#      x y z
#    x 1.788650 0.000000 0.000000 
#    y 0.000000 1.766510 0.000000 
#    z 0.000000 0.000000 1.787040 
# 
# From -- ./inp_files/2287.got.cif
#   From: 2010.05.17/outbox.cif.g08.bks.cpg/sg23_2_cif.got.tgz:2287.got - 2010.06.04 12:02:01.
