data_PCOD9330218
_publ_section_title
;
Structure prediction by ZEFSAII (Michael W. Deem and Ramdas Pophale) SiO2 
 PCOD9330218
Probable space group: I 2 2 2
;
_chemical_formula_sum "Si O2"
_cell_formula_units_Z 64
_cell_length_a 21.394455
_cell_length_b 20.003491
_cell_length_c 8.729788
_cell_angle_alpha 90.000000
_cell_angle_beta 90.000000
_cell_angle_gamma 90.000000
_cell_volume 3736.033141
_symmetry_space_group_name_H-M "I 2 2 2"
_symmetry_group_IT_number 23
_symmetry_cell_setting 'orthorhombic'
loop_
_space_group_symop_operation_xyz
x,y,z
-x,-y,z
x,-y,-z
-x,y,-z
1/2+x,1/2+y,1/2+z
1/2-x,1/2-y,1/2+z
1/2+x,1/2-y,1/2-z
1/2-x,1/2+y,1/2-z
loop_
_atom_site_type_symbol
_atom_site_label
_atom_site_fract_x
_atom_site_fract_y
_atom_site_fract_z
Si Si1 0.238239 0.423870 0.683118
Si Si2 0.309096 0.209307 0.315956
Si Si3 0.878052 0.075401 0.316565
Si Si4 0.430945 0.291769 0.315420
Si Si5 0.261760 0.923870 0.183118
Si Si6 0.878052 0.075401 0.683435
Si Si7 0.809096 0.709307 0.184044
Si Si8 0.930945 0.791769 0.184580
O O1 0.196594 0.366193 0.756440
O O2 0.218069 0.500000 0.717450
O O3 0.240561 0.415529 0.500000
O O4 0.308374 0.416142 0.748702
O O5 0.373280 0.245143 0.266308
O O6 0.250000 0.250000 0.250000
O O7 0.305670 0.210504 0.500000
O O8 0.919686 0.134372 0.250079
O O9 0.808375 0.083858 0.248702
O O10 0.874994 0.080617 0.500000
O O11 0.899279 1.000000 0.277240
O O12 0.428572 0.295383 0.500000
O O13 0.500000 0.267468 0.270551
O O14 0.303406 0.866192 0.256440
O O15 0.919686 0.134372 0.749921
O O16 0.873280 0.745143 0.233692
#
# Coordination Sequence:
#
# PCOD9330218 Si02
#       8
#     8   8   8   8   8   8   8   8
#     4  10  20  34  54  80 109 140 176 220 269 320
#     4  11  21  34  56  82 108 139 178 224 268 316
#     4  10  20  33  51  77 108 142 180 220 263 314
#     4  10  22  38  54  75 106 145 183 218 263 320
#     4  10  20  34  54  80 109 140 176 220 269 320
#     4  10  20  33  51  77 108 142 180 220 263 314
#     4  11  21  34  56  82 108 139 178 224 268 316
#     4  10  22  38  54  75 106 145 183 218 263 320
#
# _framework density 17.130469000000002
#
# number of rings (size 3 to 8) (size 9 to 14) (size 15 to 20)
#    0.000    1.750    2.500    2.250    0.000    5.000 
#    0.000    2.500    0.000    0.750    0.000    5.250 
#    0.000    0.000    0.000    0.000    0.000    0.000 
#
# Total GULP energy -178661.038237 kJ/mol
# GULP energy per Si atom -5583.157445 kJ/mol
# Density = 1.709148 g / cm^3
# Si number density = 17.130469 Si / 1000 Ang^3
#
#
#
# Elastic Constant Matrix: (Units=GPa)
#
#
# Indices 1 2 3 4 5 6 
#
# 1 124.1815 71.0875 32.0870 0.0000 0.0000 0.0000
# 2 71.0875 109.6759 29.8659 0.0000 0.0000 0.0000
# 3 32.0870 29.8659 26.3933 0.0000 0.0000 0.0000
# 4 0.0000 0.0000 0.0000 32.5921 0.0000 0.0000
# 5 0.0000 0.0000 0.0000 0.0000 19.2118 0.0000
# 6 0.0000 0.0000 0.0000 0.0000 0.0000 23.4772
#
#
#
# Elastic Compliance Matrix: (Units=1/GPa)
#
#
# Indices 1 2 3 4 5 6 
#
# 1 0.014444 -0.006620 -0.010069 0.000000 0.000000 0.000000
# 2 -0.006620 0.016213 -0.010298 0.000000 0.000000 0.000000
# 3 -0.010069 -0.010298 0.061782 0.000000 0.000000 0.000000
# 4 0.000000 0.000000 0.000000 0.030682 0.000000 0.000000
# 5 0.000000 0.000000 0.000000 0.000000 0.052051 0.000000
# 6 0.000000 0.000000 0.000000 0.000000 0.000000 0.042595
#
#
# Mechanical properties :
#
#
# Convention : Reuss Voigt Hill
#
# Bulk Modulus (GPa) = 25.99730 58.48127 42.23929
# Shear Modulus (GPa) = 17.57082 23.53691 20.55387
#
# Velocity S-wave (km/s) = 3.20614 3.71074 3.46763
# Velocity P-wave (km/s) = 5.37725 7.25068 6.38307
#
# Compressibility (1/GPa) = 0.03846553
#
# Stress axis : x y z
#
# Youngs Moduli (GPa) = 69.23211 61.67925 16.18594
#
# Poissons Ratio (x) = 0.40833 0.16297
# Poissons Ratio (y) = 0.45833 0.16668
# Poissons Ratio (z) = 0.69709 0.63515
#
# Static dielectric constant tensor:
#      x y z
#    x 1.574150 0.000000 0.000000 
#    y 0.000000 1.588180 0.000000 
#    z 0.000000 0.000000 1.574710 
# 
# From -- ./inp_files/12194.got.cif
#   From: 2010.05.17/outbox.cif.g08.bks.cpg/sg23_7_cif.got.tgz:12194.got - 2010.06.04 12:02:01.
