data_PCOD9330462
_publ_section_title
;
Structure prediction by ZEFSAII (Michael W. Deem and Ramdas Pophale) SiO2 
 PCOD9330462
Probable space group: I 2 2 2
;
_chemical_formula_sum "Si O2"
_cell_formula_units_Z 42
_cell_length_a 10.461323
_cell_length_b 17.544667
_cell_length_c 11.852590
_cell_angle_alpha 90.000000
_cell_angle_beta 90.000000
_cell_angle_gamma 90.000000
_cell_volume 2175.429446
_symmetry_space_group_name_H-M "I 2 2 2"
_symmetry_group_IT_number 23
_symmetry_cell_setting 'orthorhombic'
loop_
_space_group_symop_operation_xyz
x,y,z
-x,-y,z
x,-y,-z
-x,y,-z
1/2+x,1/2+y,1/2+z
1/2-x,1/2-y,1/2+z
1/2+x,1/2-y,1/2-z
1/2-x,1/2+y,1/2-z
loop_
_atom_site_type_symbol
_atom_site_label
_atom_site_fract_x
_atom_site_fract_y
_atom_site_fract_z
Si Si1 0.605630 0.200994 0.092325
Si Si2 0.999887 0.283772 0.840456
Si Si3 0.135957 0.875648 0.151666
Si Si4 0.790748 0.662376 0.984649
Si Si5 0.087139 0.076266 0.592971
Si Si6 0.500000 0.500000 0.500000
O O1 0.532932 0.216536 0.209435
O O2 0.716829 0.140140 0.120760
O O3 0.686750 0.274104 0.050154
O O4 0.500000 0.178991 0.000000
O O5 0.055341 0.201027 0.872905
O O6 0.110752 0.342501 0.880138
O O7 0.874914 0.304253 0.912475
O O8 0.113294 0.890768 0.284303
O O9 0.083628 0.945468 0.079366
O O10 0.722530 0.585611 0.028009
O O11 0.000000 0.118834 0.500000
O O12 0.000000 0.000000 0.610755
#
# Coordination Sequence:
#
# PCOD9330462 Si02
#       6
#     8   8   8   8   8   2
#     4  11  22  37  64  98 132 168 215 275 335 381
#     4  10  21  37  63  96 133 164 213 281 327 373
#     4  11  22  41  62  95 130 170 217 260 329 390
#     4  10  20  37  60  93 130 164 209 274 323 378
#     4  11  22  40  64  90 123 166 219 264 316 384
#     4  12  24  44  64  88 136 176 212 258 320 420
#
# _framework density 19.306532000000001
#
# number of rings (size 3 to 8) (size 9 to 14) (size 15 to 20)
#    0.000    1.333    2.857    5.143    2.667    0.000 
#    3.429    0.476    0.000    9.143    0.000    0.000 
#    0.000    0.000    0.000    0.000    0.000    0.000 
#
# Total GULP energy -116949.160817 kJ/mol
# GULP energy per Si atom -5569.007658 kJ/mol
# Density = 1.926259 g / cm^3
# Si number density = 19.306532 Si / 1000 Ang^3
#
#
#
# Elastic Constant Matrix: (Units=GPa)
#
#
# Indices 1 2 3 4 5 6 
#
# 1 145.8466 66.2516 91.7870 0.0000 0.0000 0.0000
# 2 66.2516 84.5603 42.7541 -0.0001 0.0000 0.0000
# 3 91.7870 42.7541 150.7651 0.0000 0.0000 0.0000
# 4 0.0000 -0.0001 0.0000 14.0557 0.0000 0.0000
# 5 0.0000 0.0000 0.0000 0.0000 35.1289 0.0000
# 6 0.0000 0.0000 0.0000 0.0000 0.0000 29.5999
#
#
#
# Elastic Compliance Matrix: (Units=1/GPa)
#
#
# Indices 1 2 3 4 5 6 
#
# 1 0.014786 -0.008210 -0.006674 0.000000 0.000000 0.000000
# 2 -0.008210 0.018364 -0.000209 0.000000 0.000000 0.000000
# 3 -0.006674 -0.000209 0.010755 0.000000 0.000000 0.000000
# 4 0.000000 0.000000 0.000000 0.071145 0.000000 0.000000
# 5 0.000000 0.000000 0.000000 0.000000 0.028467 0.000000
# 6 0.000000 0.000000 0.000000 0.000000 0.000000 0.033784
#
#
# Mechanical properties :
#
#
# Convention : Reuss Voigt Hill
#
# Bulk Modulus (GPa) = 72.89090 86.97304 79.93197
# Shear Modulus (GPa) = 23.57811 27.78219 25.68015
#
# Velocity S-wave (km/s) = 3.49843 3.79754 3.65105
# Velocity P-wave (km/s) = 7.35902 8.02338 7.69837
#
# Compressibility (1/GPa) = 0.01371913
#
# Stress axis : x y z
#
# Youngs Moduli (GPa) = 67.63105 54.45310 92.97936
#
# Poissons Ratio (x) = 0.44709 0.62050
# Poissons Ratio (y) = 0.55528 0.01945
# Poissons Ratio (z) = 0.45134 0.01139
#
# Static dielectric constant tensor:
#      x y z
#    x 1.712080 0.000000 0.000000 
#    y 0.000000 1.711600 0.000000 
#    z 0.000000 0.000000 1.680710 
# 
# From -- ./inp_files/14627.got.cif
#   From: 2010.05.17/outbox.cif.g08.bks.cpg/sg23_8_cif.got.tgz:14627.got - 2010.06.04 12:02:01.
