data_PCOD9330358
_publ_section_title
;
Structure prediction by ZEFSAII (Michael W. Deem and Ramdas Pophale) SiO2 
 PCOD9330358
Probable space group: I 2 2 2
;
_chemical_formula_sum "Si O2"
_cell_formula_units_Z 58
_cell_length_a 5.499619
_cell_length_b 30.401757
_cell_length_c 13.869532
_cell_angle_alpha 90.000000
_cell_angle_beta 90.000000
_cell_angle_gamma 90.000000
_cell_volume 2318.959127
_symmetry_space_group_name_H-M "I 2 2 2"
_symmetry_group_IT_number 23
_symmetry_cell_setting 'orthorhombic'
loop_
_space_group_symop_operation_xyz
x,y,z
-x,-y,z
x,-y,-z
-x,y,-z
1/2+x,1/2+y,1/2+z
1/2-x,1/2-y,1/2+z
1/2+x,1/2-y,1/2-z
1/2-x,1/2+y,1/2-z
loop_
_atom_site_type_symbol
_atom_site_label
_atom_site_fract_x
_atom_site_fract_y
_atom_site_fract_z
Si Si1 0.500000 0.000000 0.500000
Si Si2 0.219336 0.023852 0.331478
Si Si3 0.340361 0.875702 0.127246
Si Si4 0.251223 0.238169 0.561699
Si Si5 0.159772 0.119702 0.335930
Si Si6 0.246448 0.522600 0.631893
Si Si7 0.660186 0.334097 0.365368
Si Si8 0.664502 0.855426 0.643710
O O1 0.396434 0.032676 0.419245
O O2 0.180382 0.071555 0.286729
O O3 0.263804 0.988184 0.247451
O O4 0.000000 0.000000 0.385337
O O5 0.268627 0.926139 0.109524
O O6 0.614000 0.863381 0.094600
O O7 0.355214 0.869387 0.243665
O O8 0.111359 0.845368 0.096471
O O9 0.500000 0.237732 0.500000
O O10 0.260479 0.284257 0.617699
O O11 0.276346 0.195693 0.629347
O O12 0.000000 0.235510 0.500000
O O13 0.143576 0.154467 0.248333
O O14 0.397467 0.133174 0.394913
O O15 0.905410 0.119751 0.391709
O O16 0.500000 0.500000 0.602421
O O17 0.000000 0.500000 0.596930
#
# Coordination Sequence:
#
# PCOD9330358 Si02
#       8
#     2   8   8   8   8   8   8   8
#     4  12  26  36  52  78 120 184 196 228 298 336
#     4  11  23  39  55  83 124 166 212 244 289 342
#     4  10  20  35  61  93 118 151 206 255 299 338
#     4  12  26  44  61  87 124 158 195 245 322 399
#     4  10  22  39  66  89 118 153 215 266 291 335
#     4  11  19  33  58  84 126 158 194 253 289 331
#     4  10  21  38  63  89 116 152 201 261 314 357
#     4  10  21  40  59  88 115 155 200 254 309 350
#
# _framework density 25.011223000000001
#
# number of rings (size 3 to 8) (size 9 to 14) (size 15 to 20)
#    0.000    1.379    0.690    7.655    1.931    4.414 
#    3.724    0.000    0.000    0.000    0.000    0.000 
#    0.000  114.207    0.000    0.000    0.000    0.000 
#
# Total GULP energy -161951.357589 kJ/mol
# GULP energy per Si atom -5584.529572 kJ/mol
# Density = 2.495430 g / cm^3
# Si number density = 25.011223 Si / 1000 Ang^3
#
#
#
# Elastic Constant Matrix: (Units=GPa)
#
#
# Indices 1 2 3 4 5 6 
#
# 1 208.2074 24.6415 7.4023 0.0000 0.0000 0.0000
# 2 24.6415 153.1444 -9.6280 0.0000 0.0000 0.0000
# 3 7.4023 -9.6280 80.5081 0.0000 0.0000 -0.0001
# 4 0.0000 0.0000 0.0000 -7.8084 0.0000 -0.0001
# 5 0.0000 0.0000 0.0000 0.0000 -2.7770 0.0000
# 6 0.0000 0.0000 -0.0001 -0.0001 0.0000 -2.2465
#
#
#
# Elastic Compliance Matrix: (Units=1/GPa)
#
#
# Indices 1 2 3 4 5 6 
#
# 1 0.004920 -0.000826 -0.000551 0.000000 0.000000 0.000000
# 2 -0.000826 0.006718 0.000879 0.000000 0.000000 0.000000
# 3 -0.000551 0.000879 0.012577 0.000000 0.000000 0.000000
# 4 0.000000 0.000000 0.000000 -0.128068 0.000000 0.000003
# 5 0.000000 0.000000 0.000000 0.000000 -0.360105 0.000001
# 6 0.000000 0.000000 0.000000 0.000003 0.000001 -0.445135
#
#
# Mechanical properties :
#
#
# Convention : Reuss Voigt Hill
#
# Bulk Modulus (GPa) = 43.06828 54.07683 48.57255
# Shear Modulus (GPa) = -5.55335 25.39658 9.92161
#
# Velocity S-wave (km/s) = -1.49170 3.19000 1.99386
# Velocity P-wave (km/s) = 3.78022 5.93600 4.97625
#
# Compressibility (1/GPa) = 0.02321894
#
# Stress axis : x y z
#
# Youngs Moduli (GPa) = 203.23971 148.85311 79.51045
#
# Poissons Ratio (x) = 0.12300 0.04383
# Poissons Ratio (y) = 0.16795 -0.06992
# Poissons Ratio (z) = 0.11203 -0.13090
#
# Static dielectric constant tensor:
#      x y z
#    x 2.504580 0.000000 0.000000 
#    y 0.000000 2.218080 0.000000 
#    z 0.000000 0.000000 2.157830 
# 
# From -- ./inp_files/23288.got.cif
#   From: 2010.05.17/outbox.cif.g08.bks.cpg/sg23_12_cif.got.tgz:23288.got - 2010.06.04 12:02:01.
