data_PCOD9330833
_publ_section_title
;
Structure prediction by ZEFSAII (Michael W. Deem and Ramdas Pophale) SiO2 
 PCOD9330833
Probable space group: I 2 2 2
;
_chemical_formula_sum "Si O2"
_cell_formula_units_Z 48
_cell_length_a 15.532855
_cell_length_b 29.759500
_cell_length_c 5.066569
_cell_angle_alpha 90.000000
_cell_angle_beta 90.000000
_cell_angle_gamma 90.000000
_cell_volume 2342.021512
_symmetry_space_group_name_H-M "I 2 2 2"
_symmetry_group_IT_number 23
_symmetry_cell_setting 'orthorhombic'
loop_
_space_group_symop_operation_xyz
x,y,z
-x,-y,z
x,-y,-z
-x,y,-z
1/2+x,1/2+y,1/2+z
1/2-x,1/2-y,1/2+z
1/2+x,1/2-y,1/2-z
1/2-x,1/2+y,1/2-z
loop_
_atom_site_type_symbol
_atom_site_label
_atom_site_fract_x
_atom_site_fract_y
_atom_site_fract_z
Si Si1 0.554545 0.823434 0.737406
Si Si2 0.323881 0.893261 0.526900
Si Si3 0.690309 0.750276 0.927054
Si Si4 0.276074 0.052587 0.979739
Si Si5 0.406176 0.596818 0.507763
Si Si6 0.357458 0.653155 0.019384
O O1 0.500000 0.800622 0.500000
O O2 0.596143 0.866126 0.589085
O O3 0.630178 0.791127 0.840204
O O4 0.500000 0.834515 0.000000
O O5 0.329296 0.917763 0.808399
O O6 0.244194 0.858471 0.542907
O O7 0.297500 0.930141 0.311209
O O8 0.749674 0.738144 0.675492
O O9 0.635289 0.706400 0.005175
O O10 0.175166 0.064014 0.031927
O O11 0.292244 0.000000 0.000000
O O12 0.500000 0.574643 0.500000
O O13 0.402005 0.633796 0.278049
O O14 0.391258 0.624157 0.775950
#
# Coordination Sequence:
#
# PCOD9330833 Si02
#       6
#     8   8   8   8   8   8
#     4  12  26  42  64  97 129 164 214 266 323 369
#     4  10  21  41  63  87 126 160 203 257 312 374
#     4  12  24  40  65  89 127 170 218 261 303 365
#     4  10  21  38  66  95 117 159 214 254 307 388
#     4  10  21  36  57  88 130 164 201 252 314 359
#     4  10  21  37  60  84 118 173 212 245 293 369
#
# _framework density 20.495113
#
# number of rings (size 3 to 8) (size 9 to 14) (size 15 to 20)
#    0.000    1.333    1.667    4.000    4.667    2.333 
#    0.000    0.000    0.000   13.500    0.000    0.000 
#    0.000    0.000    0.000    0.000    0.000    0.000 
#
# Total GULP energy -134149.515657 kJ/mol
# GULP energy per Si atom -5589.563152 kJ/mol
# Density = 2.044847 g / cm^3
# Si number density = 20.495113 Si / 1000 Ang^3
#
#
#
# Elastic Constant Matrix: (Units=GPa)
#
#
# Indices 1 2 3 4 5 6 
#
# 1 71.4892 16.0009 25.3864 -0.1778 0.0841 -0.2906
# 2 16.0009 75.7660 10.6649 -0.0818 -0.1041 -0.0589
# 3 25.3864 10.6649 128.4314 -0.6773 -0.0429 -0.1664
# 4 -0.1778 -0.0818 -0.6773 7.6740 0.0913 -0.4282
# 5 0.0841 -0.1041 -0.0429 0.0913 46.6775 0.0044
# 6 -0.2906 -0.0589 -0.1664 -0.4282 0.0044 6.7300
#
#
#
# Elastic Compliance Matrix: (Units=1/GPa)
#
#
# Indices 1 2 3 4 5 6 
#
# 1 0.015653 -0.002904 -0.002852 0.000113 -0.000038 0.000587
# 2 -0.002904 0.013893 -0.000580 0.000028 0.000036 -0.000016
# 3 -0.002852 -0.000580 0.008402 0.000676 0.000010 0.000123
# 4 0.000113 0.000028 0.000676 0.130842 -0.000256 0.008347
# 5 -0.000038 0.000036 0.000010 -0.000256 0.021424 -0.000031
# 6 0.000587 -0.000016 0.000123 0.008347 -0.000031 0.149148
#
#
# Mechanical properties :
#
#
# Convention : Reuss Voigt Hill
#
# Bulk Modulus (GPa) = 39.55940 42.19899 40.87919
# Shear Modulus (GPa) = 13.87118 27.12525 20.49822
#
# Velocity S-wave (km/s) = 2.60437 3.64194 3.16595
# Velocity P-wave (km/s) = 5.32798 6.19027 5.77524
#
# Compressibility (1/GPa) = 0.02527844
#
# Stress axis : x y z
#
# Youngs Moduli (GPa) = 63.88366 71.97631 119.02232
#
# Poissons Ratio (x) = 0.20901 0.33941
# Poissons Ratio (y) = 0.18551 0.06898
# Poissons Ratio (z) = 0.18217 0.04172
#
# Static dielectric constant tensor:
#      x y z
#    x 1.857300 -0.000140 -0.004200 
#    y -0.000140 1.692320 0.000200 
#    z -0.004200 0.000200 1.732150 
# 
# From -- ./inp_files/2548.got.cif
#   From: 2010.05.17/outbox.cif.g08.bks.cpg/sg23_2_cif.got.tgz:2548.got - 2010.06.04 12:02:01.
