data_PCOD9330579
_publ_section_title
;
Structure prediction by ZEFSAII (Michael W. Deem and Ramdas Pophale) SiO2 
 PCOD9330579
Probable space group: I 2 2 2
;
_chemical_formula_sum "Si O2"
_cell_formula_units_Z 52
_cell_length_a 28.498331
_cell_length_b 7.179084
_cell_length_c 11.778676
_cell_angle_alpha 90.000000
_cell_angle_beta 90.000000
_cell_angle_gamma 90.000000
_cell_volume 2409.821845
_symmetry_space_group_name_H-M "I 2 2 2"
_symmetry_group_IT_number 23
_symmetry_cell_setting 'orthorhombic'
loop_
_space_group_symop_operation_xyz
x,y,z
-x,-y,z
x,-y,-z
-x,y,-z
1/2+x,1/2+y,1/2+z
1/2-x,1/2-y,1/2+z
1/2+x,1/2-y,1/2-z
1/2-x,1/2+y,1/2-z
loop_
_atom_site_type_symbol
_atom_site_label
_atom_site_fract_x
_atom_site_fract_y
_atom_site_fract_z
Si Si1 0.127786 0.283887 0.461146
Si Si2 0.297935 0.460591 0.633664
Si Si3 0.500000 0.500000 0.500000
Si Si4 0.521901 0.211342 0.114524
Si Si5 0.960022 0.213501 0.179021
Si Si6 0.000000 0.500000 0.000000
Si Si7 0.640078 0.274526 0.784904
Si Si8 0.197964 0.391872 0.277833
O O1 0.125797 0.500000 0.500000
O O2 0.077497 0.259647 0.400039
O O3 0.137225 0.179875 0.580263
O O4 0.170403 0.273535 0.373685
O O5 0.303621 0.500000 0.500000
O O6 0.336890 0.567311 0.707785
O O7 0.248433 0.546889 0.675340
O O8 0.298241 0.242231 0.668702
O O9 0.460474 0.537112 0.597949
O O10 0.501311 0.291582 0.229156
O O11 0.500000 0.000000 0.117926
O O12 0.500000 0.292749 0.000000
O O13 0.913020 0.253854 0.245463
O O14 0.970884 0.369748 0.083820
O O15 0.668640 0.082831 0.763816
#
# Coordination Sequence:
#
# PCOD9330579 Si02
#       8
#     8   8   2   8   8   2   8   8
#     4  10  20  38  70 104 138 170 223 289 345 408
#     4  12  27  48  71 101 141 182 230 287 344 417
#     4  10  28  46  58  86 156 190 224 284 324 402
#     4  11  17  34  69 105 129 164 220 283 342 404
#     4  11  23  43  65  97 136 186 228 279 337 410
#     4  10  24  38  66  90 136 186 232 260 332 418
#     4  11  24  45  73 104 137 181 232 282 350 412
#     4  11  25  47  72 104 137 178 228 288 353 407
#
# _framework density 21.578358999999999
#
# number of rings (size 3 to 8) (size 9 to 14) (size 15 to 20)
#    0.000    1.077    5.385    2.308    1.077    3.692 
#    0.000    0.385    0.000    0.000    0.000    0.000 
#    0.000    0.000    0.000    0.000    0.000    0.000 
#
# Total GULP energy -145010.389127 kJ/mol
# GULP energy per Si atom -5577.322659 kJ/mol
# Density = 2.152925 g / cm^3
# Si number density = 21.578359 Si / 1000 Ang^3
#
#
#
# Elastic Constant Matrix: (Units=GPa)
#
#
# Indices 1 2 3 4 5 6 
#
# 1 78.0543 23.4626 26.4478 0.0000 0.0000 0.0000
# 2 23.4626 36.2549 50.2254 0.0000 0.0000 0.0000
# 3 26.4478 50.2254 154.8493 0.0000 0.0000 0.0000
# 4 0.0000 0.0000 0.0000 53.3596 0.0000 0.0000
# 5 0.0000 0.0000 0.0000 0.0000 24.4729 0.0000
# 6 0.0000 0.0000 0.0000 0.0000 0.0000 17.1766
#
#
#
# Elastic Compliance Matrix: (Units=1/GPa)
#
#
# Indices 1 2 3 4 5 6 
#
# 1 0.016015 -0.011940 0.001137 0.000000 0.000000 0.000000
# 2 -0.011940 0.058991 -0.017094 0.000000 0.000000 0.000000
# 3 0.001137 -0.017094 0.011808 0.000000 0.000000 0.000000
# 4 0.000000 0.000000 0.000000 0.018741 0.000000 0.000000
# 5 0.000000 0.000000 0.000000 0.000000 0.040862 0.000000
# 6 0.000000 0.000000 0.000000 0.000000 0.000000 0.058219
#
#
# Mechanical properties :
#
#
# Convention : Reuss Voigt Hill
#
# Bulk Modulus (GPa) = 32.23683 52.15889 42.19786
# Shear Modulus (GPa) = 18.46583 30.27001 24.36792
#
# Velocity S-wave (km/s) = 2.92851 3.74945 3.36412
# Velocity P-wave (km/s) = 5.13875 6.55506 5.88963
#
# Compressibility (1/GPa) = 0.03102042
#
# Stress axis : x y z
#
# Youngs Moduli (GPa) = 62.44022 16.95165 84.68677
#
# Poissons Ratio (x) = 0.20241 -0.09632
# Poissons Ratio (y) = 0.74555 1.44768
# Poissons Ratio (z) = -0.07102 0.28978
#
# Static dielectric constant tensor:
#      x y z
#    x 1.723800 0.000000 0.000000 
#    y 0.000000 2.046300 0.000000 
#    z 0.000000 0.000000 1.765200 
# 
# From -- ./inp_files/18769.got.cif
#   From: 2010.05.17/outbox.cif.g08.bks.cpg/sg23_10_cif.got.tgz:18769.got - 2010.06.04 12:02:01.
