data_PCOD9330458
_publ_section_title
;
Structure prediction by ZEFSAII (Michael W. Deem and Ramdas Pophale) SiO2 
 PCOD9330458
Probable space group: I 2 2 2
;
_chemical_formula_sum "Si O2"
_cell_formula_units_Z 48
_cell_length_a 8.208576
_cell_length_b 8.989650
_cell_length_c 33.387032
_cell_angle_alpha 90.000000
_cell_angle_beta 90.000000
_cell_angle_gamma 90.000000
_cell_volume 2463.703385
_symmetry_space_group_name_H-M "I 2 2 2"
_symmetry_group_IT_number 23
_symmetry_cell_setting 'orthorhombic'
loop_
_space_group_symop_operation_xyz
x,y,z
-x,-y,z
x,-y,-z
-x,y,-z
1/2+x,1/2+y,1/2+z
1/2-x,1/2-y,1/2+z
1/2+x,1/2-y,1/2-z
1/2-x,1/2+y,1/2-z
loop_
_atom_site_type_symbol
_atom_site_label
_atom_site_fract_x
_atom_site_fract_y
_atom_site_fract_z
Si Si1 0.034608 0.327575 0.854563
Si Si2 0.430645 0.665356 0.278963
Si Si3 0.158101 0.903701 0.908497
Si Si4 0.363923 0.815272 0.120921
Si Si5 0.952085 0.333786 0.295675
Si Si6 0.553851 0.827020 0.042458
O O1 0.026259 0.274984 0.808658
O O2 0.907530 0.222420 0.878592
O O3 0.000000 0.500000 0.858611
O O4 0.212309 0.290354 0.870972
O O5 0.500000 0.500000 0.285641
O O6 0.241650 0.677465 0.290698
O O7 0.462605 0.716596 0.233782
O O8 0.256580 0.832599 0.945455
O O9 0.281609 0.021231 0.886959
O O10 0.000000 0.000000 0.920816
O O11 0.480238 0.815624 0.159425
O O12 0.458719 0.767033 0.081085
O O13 0.000000 0.500000 0.282486
O O14 0.500000 0.000000 0.040591
O O15 0.500000 0.759892 0.000000
#
# Coordination Sequence:
#
# PCOD9330458 Si02
#       6
#     8   8   8   8   8   8
#     4  11  22  38  58  83 114 152 198 241 287 346
#     4  12  25  40  59  85 116 153 192 240 290 339
#     4   9  18  35  59  85 117 153 189 236 293 345
#     4  10  20  37  60  85 114 152 190 238 292 342
#     4  12  23  39  59  83 116 153 194 237 286 347
#     4   9  17  33  59  91 118 146 190 240 288 346
#
# _framework density 19.482865
#
# number of rings (size 3 to 8) (size 9 to 14) (size 15 to 20)
#    0.000    1.500    0.000    8.500    0.000    1.333 
#    0.000   16.667    0.000    3.000    0.000    0.000 
#    0.000    0.000    0.000    0.000    0.000    0.000 
#
# Total GULP energy -134082.606332 kJ/mol
# GULP energy per Si atom -5586.775264 kJ/mol
# Density = 1.943852 g / cm^3
# Si number density = 19.482865 Si / 1000 Ang^3
#
#
#
# Elastic Constant Matrix: (Units=GPa)
#
#
# Indices 1 2 3 4 5 6 
#
# 1 136.9443 36.5824 90.4365 0.0000 0.0000 0.0000
# 2 36.5824 84.7090 37.0311 0.0000 0.0000 0.0000
# 3 90.4365 37.0311 148.7049 0.0000 0.0000 0.0000
# 4 0.0000 0.0000 0.0000 12.0566 0.0000 0.0000
# 5 0.0000 0.0000 0.0000 0.0000 20.7977 0.0000
# 6 0.0000 0.0000 0.0000 0.0000 0.0000 16.9829
#
#
#
# Elastic Compliance Matrix: (Units=1/GPa)
#
#
# Indices 1 2 3 4 5 6 
#
# 1 0.012606 -0.002348 -0.007082 0.000000 0.000000 0.000000
# 2 -0.002348 0.013685 -0.001980 0.000000 0.000000 0.000000
# 3 -0.007082 -0.001980 0.011525 0.000000 0.000000 0.000000
# 4 0.000000 0.000000 0.000000 0.082942 0.000000 0.000000
# 5 0.000000 0.000000 0.000000 0.000000 0.048082 0.000000
# 6 0.000000 0.000000 0.000000 0.000000 0.000000 0.058883
#
#
# Mechanical properties :
#
#
# Convention : Reuss Voigt Hill
#
# Bulk Modulus (GPa) = 66.68468 77.60645 72.14557
# Shear Modulus (GPa) = 19.56632 23.72133 21.64382
#
# Velocity S-wave (km/s) = 3.17248 3.49312 3.33666
# Velocity P-wave (km/s) = 6.90805 7.49592 7.20798
#
# Compressibility (1/GPa) = 0.01499595
#
# Stress axis : x y z
#
# Youngs Moduli (GPa) = 79.32509 73.07447 86.77046
#
# Poissons Ratio (x) = 0.17160 0.61450
# Poissons Ratio (y) = 0.18628 0.17178
# Poissons Ratio (z) = 0.56177 0.14466
#
# Static dielectric constant tensor:
#      x y z
#    x 1.718220 0.000000 0.000000 
#    y 0.000000 1.675660 0.000000 
#    z 0.000000 0.000000 1.707300 
# 
# From -- ./inp_files/30229.got.cif
#   From: 2010.05.17/outbox.cif.g08.bks.cpg/sg23_16_cif.got.tgz:30229.got - 2010.06.04 12:02:01.
