data_PCOD9330627
_publ_section_title
;
Structure prediction by ZEFSAII (Michael W. Deem and Ramdas Pophale) SiO2 
 PCOD9330627
Probable space group: I 2 2 2
;
_chemical_formula_sum "Si O2"
_cell_formula_units_Z 48
_cell_length_a 30.296314
_cell_length_b 8.135477
_cell_length_c 7.805343
_cell_angle_alpha 90.000000
_cell_angle_beta 90.000000
_cell_angle_gamma 90.000000
_cell_volume 1923.821648
_symmetry_space_group_name_H-M "I 2 2 2"
_symmetry_group_IT_number 23
_symmetry_cell_setting 'orthorhombic'
loop_
_space_group_symop_operation_xyz
x,y,z
-x,-y,z
x,-y,-z
-x,y,-z
1/2+x,1/2+y,1/2+z
1/2-x,1/2-y,1/2+z
1/2+x,1/2-y,1/2-z
1/2-x,1/2+y,1/2-z
loop_
_atom_site_type_symbol
_atom_site_label
_atom_site_fract_x
_atom_site_fract_y
_atom_site_fract_z
Si Si1 0.922974 0.878865 0.159485
Si Si2 0.101801 0.812513 0.353731
Si Si3 0.506960 0.698641 0.200686
Si Si4 0.231399 0.809405 0.528749
Si Si5 0.182555 0.325636 0.786506
Si Si6 0.148623 0.682562 0.705929
O O1 0.964120 0.754334 0.190045
O O2 0.879243 0.771555 0.148520
O O3 0.913425 0.996481 0.326991
O O4 0.930406 0.000000 0.000000
O O5 0.144873 0.808293 0.235443
O O6 0.120131 0.721522 0.527730
O O7 0.056567 0.734849 0.276240
O O8 0.500000 0.500000 0.227774
O O9 0.500000 0.728783 0.000000
O O10 0.216214 0.696568 0.372406
O O11 0.283441 0.804140 0.560760
O O12 0.197253 0.752896 0.673890
O O13 0.220553 0.000000 0.500000
O O14 0.156828 0.495455 0.758887
#
# Coordination Sequence:
#
# PCOD9330627 Si02
#       6
#     8   8   8   8   8   8
#     4  11  23  38  65 104 139 174 226 286 352 417
#     4  10  20  39  67  94 133 180 226 282 340 425
#     4   9  17  34  64  95 129 171 224 273 333 405
#     4  11  23  42  66  92 131 181 230 289 346 422
#     4  11  25  43  67  98 135 178 234 293 354 422
#     4  11  22  42  66  96 135 173 231 290 347 427
#
# _framework density 24.950336
#
# number of rings (size 3 to 8) (size 9 to 14) (size 15 to 20)
#    0.000    1.500    1.667    5.500    0.000    5.667 
#    0.000    4.167    0.000    0.000    0.000    7.000 
#    0.000    0.000    0.000    0.000    0.000    0.000 
#
# Total GULP energy -133730.218549 kJ/mol
# GULP energy per Si atom -5572.092440 kJ/mol
# Density = 2.489355 g / cm^3
# Si number density = 24.950336 Si / 1000 Ang^3
#
#
#
# Elastic Constant Matrix: (Units=GPa)
#
#
# Indices 1 2 3 4 5 6 
#
# 1 149.9473 19.8528 40.1370 0.0000 0.0000 0.0000
# 2 19.8528 21.0157 -2.3517 0.0000 0.0000 0.0000
# 3 40.1370 -2.3517 110.6835 0.0000 0.0000 0.0000
# 4 0.0000 0.0000 0.0000 12.4589 0.0000 0.0000
# 5 0.0000 0.0000 0.0000 0.0000 44.6462 0.0000
# 6 0.0000 0.0000 0.0000 0.0000 0.0000 5.1113
#
#
#
# Elastic Compliance Matrix: (Units=1/GPa)
#
#
# Indices 1 2 3 4 5 6 
#
# 1 0.008700 -0.008592 -0.003337 0.000000 0.000000 0.000000
# 2 -0.008592 0.056182 0.004309 0.000000 0.000000 0.000000
# 3 -0.003337 0.004309 0.010337 0.000000 0.000000 0.000000
# 4 0.000000 0.000000 0.000000 0.080264 0.000000 0.000000
# 5 0.000000 0.000000 0.000000 0.000000 0.022398 0.000000
# 6 0.000000 0.000000 0.000000 0.000000 0.000000 0.195644
#
#
# Mechanical properties :
#
#
# Convention : Reuss Voigt Hill
#
# Bulk Modulus (GPa) = 16.67255 44.10252 30.38754
# Shear Modulus (GPa) = 12.23219 27.37718 19.80468
#
# Velocity S-wave (km/s) = 2.21659 3.31610 2.82044
# Velocity P-wave (km/s) = 3.63975 5.69003 4.77621
#
# Compressibility (1/GPa) = 0.05997883
#
# Stress axis : x y z
#
# Youngs Moduli (GPa) = 114.94366 17.79922 96.74390
#
# Poissons Ratio (x) = 0.15293 0.32287
# Poissons Ratio (y) = 0.98759 -0.41691
# Poissons Ratio (z) = 0.38361 -0.07670
#
# Static dielectric constant tensor:
#      x y z
#    x 2.070400 0.000000 0.000000 
#    y 0.000000 2.010780 0.000000 
#    z 0.000000 0.000000 2.374040 
# 
# From -- ./inp_files/13335.got.cif
#   From: 2010.05.17/outbox.cif.g08.bks.cpg/sg23_7_cif.got.tgz:13335.got - 2010.06.04 12:02:01.
