data_PCOD9330355
_publ_section_title
;
Structure prediction by ZEFSAII (Michael W. Deem and Ramdas Pophale) SiO2 
 PCOD9330355
Probable space group: I 2 2 2
;
_chemical_formula_sum "Si O2"
_cell_formula_units_Z 48
_cell_length_a 8.430566
_cell_length_b 18.021780
_cell_length_c 13.721044
_cell_angle_alpha 90.000000
_cell_angle_beta 90.000000
_cell_angle_gamma 90.000000
_cell_volume 2084.690433
_symmetry_space_group_name_H-M "I 2 2 2"
_symmetry_group_IT_number 23
_symmetry_cell_setting 'orthorhombic'
loop_
_space_group_symop_operation_xyz
x,y,z
-x,-y,z
x,-y,-z
-x,y,-z
1/2+x,1/2+y,1/2+z
1/2-x,1/2-y,1/2+z
1/2+x,1/2-y,1/2-z
1/2-x,1/2+y,1/2-z
loop_
_atom_site_type_symbol
_atom_site_label
_atom_site_fract_x
_atom_site_fract_y
_atom_site_fract_z
Si Si1 0.982163 0.629928 0.615054
Si Si2 0.022224 0.180305 0.886706
Si Si3 0.156571 0.319316 0.069287
Si Si4 0.655980 0.047428 0.283679
Si Si5 0.162788 0.773894 0.612467
Si Si6 0.830952 0.092278 0.763264
O O1 0.105979 0.582870 0.679959
O O2 0.017919 0.717627 0.627710
O O3 0.000000 0.614117 0.500000
O O4 0.812681 0.608606 0.660331
O O5 0.892403 0.245814 0.870547
O O6 0.989856 0.109604 0.821820
O O7 0.187417 0.219859 0.867971
O O8 0.000000 0.161144 0.000000
O O9 0.184036 0.387175 0.140234
O O10 0.300843 0.301766 0.997117
O O11 0.000000 0.332770 0.000000
O O12 0.500000 0.000000 0.315432
O O13 0.796245 0.988438 0.277261
O O14 0.170757 0.845685 0.679488
#
# Coordination Sequence:
#
# PCOD9330355 Si02
#       6
#     8   8   8   8   8   8
#     4  11  22  37  57  84 115 150 193 239 283 327
#     4   9  18  35  56  80 112 152 197 231 271 335
#     4   9  17  33  56  83 113 148 190 234 280 333
#     4  10  21  34  54  86 120 150 183 234 291 340
#     4  10  20  35  61  86 112 150 190 238 282 334
#     4  11  21  35  57  88 117 148 187 234 289 339
#
# _framework density 23.024999000000001
#
# number of rings (size 3 to 8) (size 9 to 14) (size 15 to 20)
#    0.000    2.333    0.000    8.000    0.000    5.333 
#    0.000    0.833    0.000    4.000    0.000    3.500 
#    0.000    2.667    0.000    0.000    0.000    0.000 
#
# Total GULP energy -134266.463684 kJ/mol
# GULP energy per Si atom -5594.435987 kJ/mol
# Density = 2.297259 g / cm^3
# Si number density = 23.024999 Si / 1000 Ang^3
#
#
#
# Elastic Constant Matrix: (Units=GPa)
#
#
# Indices 1 2 3 4 5 6 
#
# 1 36.8114 23.4541 16.1420 0.0000 0.0000 0.0000
# 2 23.4541 108.2847 32.1385 -0.0001 0.0000 0.0000
# 3 16.1420 32.1385 52.3888 -0.0001 0.0000 0.0000
# 4 0.0000 -0.0001 -0.0001-1068.0242 -0.0001 0.0002
# 5 0.0000 0.0000 0.0000 -0.0001 18.7283 0.0000
# 6 0.0000 0.0000 0.0000 0.0002 0.0000 22.6462
#
#
#
# Elastic Compliance Matrix: (Units=1/GPa)
#
#
# Indices 1 2 3 4 5 6 
#
# 1 0.033597 -0.005141 -0.007198 0.000000 0.000000 0.000000
# 2 -0.005141 0.012077 -0.005825 0.000000 0.000000 0.000000
# 3 -0.007198 -0.005825 0.024879 0.000000 0.000000 0.000000
# 4 0.000000 0.000000 0.000000 -0.000936 0.000000 0.000000
# 5 0.000000 0.000000 0.000000 0.000000 0.053395 0.000000
# 6 0.000000 0.000000 0.000000 0.000000 0.000000 0.044157
#
#
# Mechanical properties :
#
#
# Convention : Reuss Voigt Hill
#
# Bulk Modulus (GPa) = 29.21761 37.88379 33.55070
# Shear Modulus (GPa) = 23.26589 -196.94658 -86.84035
#
# Velocity S-wave (km/s) = 3.18223 -9.25860 -6.14797
# Velocity P-wave (km/s) = 5.12046 9.88972 5.98278
#
# Compressibility (1/GPa) = 0.03422594
#
# Stress axis : x y z
#
# Youngs Moduli (GPa) = 29.76423 82.80074 40.19383
#
# Poissons Ratio (x) = 0.42564 0.28933
# Poissons Ratio (y) = 0.15301 0.23413
# Poissons Ratio (z) = 0.21426 0.48231
#
# Static dielectric constant tensor:
#      x y z
#    x 3.159090 0.000000 0.000000 
#    y 0.000000 1.822400 0.000000 
#    z 0.000000 0.000000 1.854310 
# 
# From -- ./inp_files/20009.got.cif
#   From: 2010.05.17/outbox.cif.g08.bks.cpg/sg23_11_cif.got.tgz:20009.got - 2010.06.04 12:02:01.
