data_PCOD9330620
_publ_section_title
;
Structure prediction by ZEFSAII (Michael W. Deem and Ramdas Pophale) SiO2 
 PCOD9330620
Probable space group: I 2 2 2
;
_chemical_formula_sum "Si O2"
_cell_formula_units_Z 34
_cell_length_a 11.775477
_cell_length_b 5.384318
_cell_length_c 23.649920
_cell_angle_alpha 90.000000
_cell_angle_beta 90.000000
_cell_angle_gamma 90.000000
_cell_volume 1499.473815
_symmetry_space_group_name_H-M "I 2 2 2"
_symmetry_group_IT_number 23
_symmetry_cell_setting 'orthorhombic'
loop_
_space_group_symop_operation_xyz
x,y,z
-x,-y,z
x,-y,-z
-x,y,-z
1/2+x,1/2+y,1/2+z
1/2-x,1/2-y,1/2+z
1/2+x,1/2-y,1/2-z
1/2-x,1/2+y,1/2-z
loop_
_atom_site_type_symbol
_atom_site_label
_atom_site_fract_x
_atom_site_fract_y
_atom_site_fract_z
Si Si1 0.449743 0.754304 0.563581
Si Si2 0.187297 0.666188 0.555785
Si Si3 0.245677 0.537824 0.327714
Si Si4 0.132737 0.535805 0.205089
Si Si5 0.500000 0.500000 0.000000
O O1 0.500000 0.500000 0.589092
O O2 0.500000 0.750815 0.500000
O O3 0.314541 0.777047 0.559080
O O4 0.500000 0.000000 0.591016
O O5 0.190916 0.500000 0.500000
O O6 0.177949 0.512719 0.614151
O O7 0.083973 0.848439 0.541649
O O8 0.172608 0.529958 0.270562
O O9 0.305783 0.806008 0.326599
O O10 0.330342 0.302114 0.320189
O O11 0.000000 0.500000 0.206610
#
# Coordination Sequence:
#
# PCOD9330620 Si02
#       5
#     8   8   8   8   2
#     4  10  20  39  65  94 132 187 229 295 350 411
#     4  12  27  48  69 108 154 197 253 293 369 452
#     4  10  25  44  74 107 143 190 245 307 356 442
#     4  10  22  48  73 106 141 186 247 308 376 421
#     4  12  30  48  70 102 152 212 242 294 352 472
#
# _framework density 22.674620999999998
#
# number of rings (size 3 to 8) (size 9 to 14) (size 15 to 20)
#    0.000    1.412    2.353    2.471    3.294    4.706 
#    8.471    0.000    0.000    0.000    0.000    0.000 
#    0.000    0.000    0.000    0.000    0.000    0.000 
#
# Total GULP energy -95079.430976 kJ/mol
# GULP energy per Si atom -5592.907704 kJ/mol
# Density = 2.262301 g / cm^3
# Si number density = 22.674621 Si / 1000 Ang^3
#
#
#
# Elastic Constant Matrix: (Units=GPa)
#
#
# Indices 1 2 3 4 5 6 
#
# 1 161.7016 61.8755 44.5895 0.0000 0.0000 0.0000
# 2 61.8755 156.7862 37.0011 0.0000 0.0000 0.0000
# 3 44.5895 37.0011 151.8840 0.0000 0.0000 0.0000
# 4 0.0000 0.0000 0.0000 27.9747 0.0000 0.0000
# 5 0.0000 0.0000 0.0000 0.0000 5.3354 0.0000
# 6 0.0000 0.0000 0.0000 0.0000 0.0000 35.8619
#
#
#
# Elastic Compliance Matrix: (Units=1/GPa)
#
#
# Indices 1 2 3 4 5 6 
#
# 1 0.007634 -0.002635 -0.001599 0.000000 0.000000 0.000000
# 2 -0.002635 0.007677 -0.001097 0.000000 0.000000 0.000000
# 3 -0.001599 -0.001097 0.007321 0.000000 0.000000 0.000000
# 4 0.000000 0.000000 0.000000 0.035747 0.000000 0.000000
# 5 0.000000 0.000000 0.000000 0.000000 0.187426 0.000000
# 6 0.000000 0.000000 0.000000 0.000000 0.000000 0.027885
#
#
# Mechanical properties :
#
#
# Convention : Reuss Voigt Hill
#
# Bulk Modulus (GPa) = 83.54680 84.14490 83.84585
# Shear Modulus (GPa) = 17.34066 35.62814 26.48440
#
# Velocity S-wave (km/s) = 2.76843 3.96824 3.42134
# Velocity P-wave (km/s) = 6.86621 7.62798 7.25710
#
# Compressibility (1/GPa) = 0.01196934
#
# Stress axis : x y z
#
# Youngs Moduli (GPa) = 131.00095 130.26139 136.60166
#
# Poissons Ratio (x) = 0.34326 0.21843
# Poissons Ratio (y) = 0.34521 0.14979
# Poissons Ratio (z) = 0.20948 0.14284
#
# Static dielectric constant tensor:
#      x y z
#    x 1.465180 0.000000 0.000000 
#    y 0.000000 1.910660 0.000000 
#    z 0.000000 0.000000 1.768140 
# 
# From -- ./inp_files/29344.got.cif
#   From: 2010.05.17/outbox.cif.g08.bks.cpg/sg23_15_cif.got.tgz:29344.got - 2010.06.04 12:02:01.
