data_PCOD9330266
_publ_section_title
;
Structure prediction by ZEFSAII (Michael W. Deem and Ramdas Pophale) SiO2 
 PCOD9330266
Probable space group: I 2 2 2
;
_chemical_formula_sum "Si O2"
_cell_formula_units_Z 48
_cell_length_a 8.605710
_cell_length_b 15.405846
_cell_length_c 19.733297
_cell_angle_alpha 90.000000
_cell_angle_beta 90.000000
_cell_angle_gamma 90.000000
_cell_volume 2616.205844
_symmetry_space_group_name_H-M "I 2 2 2"
_symmetry_group_IT_number 23
_symmetry_cell_setting 'orthorhombic'
loop_
_space_group_symop_operation_xyz
x,y,z
-x,-y,z
x,-y,-z
-x,y,-z
1/2+x,1/2+y,1/2+z
1/2-x,1/2-y,1/2+z
1/2+x,1/2-y,1/2-z
1/2-x,1/2+y,1/2-z
loop_
_atom_site_type_symbol
_atom_site_label
_atom_site_fract_x
_atom_site_fract_y
_atom_site_fract_z
Si Si1 0.312366 0.848965 0.177960
Si Si2 0.314050 0.648516 0.826130
Si Si3 0.314050 0.351484 0.826130
Si Si4 0.686074 0.000000 0.578057
Si Si5 0.812365 0.348965 0.322040
Si Si6 0.689632 1.000000 0.077270
O O1 0.244136 0.874981 0.250784
O O2 0.267641 0.749282 0.163157
O O3 0.500000 0.851964 0.183116
O O4 0.262925 0.915228 0.119642
O O5 0.500000 0.643145 0.828019
O O6 0.245276 0.584055 0.881454
O O7 0.267641 0.749282 0.836843
O O8 0.245276 0.415945 0.881454
O O9 0.255864 0.374981 0.750784
O O10 0.500000 0.000000 0.578763
O O11 0.739654 0.000000 0.500000
O O12 0.762925 0.415228 0.380358
O O13 0.500000 0.000000 0.075711
O O14 0.744383 0.000000 0.000000
#
# Coordination Sequence:
#
# PCOD9330266 Si02
#       6
#     8   8   8   8   8   8
#     4   9  18  33  55  81 108 139 173 212 259 311
#     4  10  20  34  55  81 106 135 175 221 264 312
#     4  10  20  34  55  81 106 135 175 221 264 312
#     4  11  24  39  54  74 104 143 182 223 276 330
#     4   9  18  33  55  81 108 139 173 212 259 311
#     4   9  17  30  50  76 104 135 170 205 246 302
#
# _framework density 18.347180999999999
#
# number of rings (size 3 to 8) (size 9 to 14) (size 15 to 20)
#    0.000    2.333    0.000    2.500    0.000    5.333 
#    0.000    3.333    0.000    2.000    0.000    0.000 
#    0.000    0.000    0.000    0.000    0.000    0.000 
#
# Total GULP energy -133989.252772 kJ/mol
# GULP energy per Si atom -5582.885532 kJ/mol
# Density = 1.830542 g / cm^3
# Si number density = 18.347181 Si / 1000 Ang^3
#
#
#
# Elastic Constant Matrix: (Units=GPa)
#
#
# Indices 1 2 3 4 5 6 
#
# 1 21.0231 28.7061 36.1838 0.0000 0.0000 0.0000
# 2 28.7061 122.1112 126.6625 0.0000 0.0000 0.0000
# 3 36.1838 126.6625 208.0648 0.0000 0.0000 0.0000
# 4 0.0000 0.0000 0.0000 -8.2614 0.0000 0.0000
# 5 0.0000 0.0000 0.0000 0.0000 23.8250 0.0000
# 6 0.0000 0.0000 0.0000 0.0000 0.0000 14.1607
#
#
#
# Elastic Compliance Matrix: (Units=1/GPa)
#
#
# Indices 1 2 3 4 5 6 
#
# 1 0.072784 -0.010801 -0.006082 0.000000 0.000000 0.000000
# 2 -0.010801 0.023823 -0.012624 0.000000 0.000000 0.000000
# 3 -0.006082 -0.012624 0.013549 0.000000 0.000000 0.000000
# 4 0.000000 0.000000 0.000000 -0.121045 0.000000 0.000000
# 5 0.000000 0.000000 0.000000 0.000000 0.041973 0.000000
# 6 0.000000 0.000000 0.000000 0.000000 0.000000 0.070618
#
#
# Mechanical properties :
#
#
# Convention : Reuss Voigt Hill
#
# Bulk Modulus (GPa) = 19.55397 81.58933 50.57165
# Shear Modulus (GPa) = 28.12713 16.58797 22.35755
#
# Velocity S-wave (km/s) = 3.91966 3.01011 3.49461
# Velocity P-wave (km/s) = 5.58264 7.52644 6.62620
#
# Compressibility (1/GPa) = 0.05114052
#
# Stress axis : x y z
#
# Youngs Moduli (GPa) = 13.73938 41.97549 73.80499
#
# Poissons Ratio (x) = 0.45339 0.44889
# Poissons Ratio (y) = 0.14840 0.93175
# Poissons Ratio (z) = 0.08356 0.52992
#
# Static dielectric constant tensor:
#      x y z
#    x 1.616590 0.000000 0.000000 
#    y 0.000000 1.636380 0.000000 
#    z 0.000000 0.000000 1.596330 
# 
# From -- ./inp_files/11056.got.cif
#   From: 2010.05.17/outbox.cif.g08.bks.cpg/sg23_6_cif.got.tgz:11056.got - 2010.06.04 12:02:01.
