data_PCOD9330880
_publ_section_title
;
Structure prediction by ZEFSAII (Michael W. Deem and Ramdas Pophale) SiO2 
 PCOD9330880
Probable space group: I 2 2 2
;
_chemical_formula_sum "Si O2"
_cell_formula_units_Z 40
_cell_length_a 9.087802
_cell_length_b 7.746369
_cell_length_c 25.726100
_cell_angle_alpha 90.000000
_cell_angle_beta 90.000000
_cell_angle_gamma 90.000000
_cell_volume 1811.052294
_symmetry_space_group_name_H-M "I 2 2 2"
_symmetry_group_IT_number 23
_symmetry_cell_setting 'orthorhombic'
loop_
_space_group_symop_operation_xyz
x,y,z
-x,-y,z
x,-y,-z
-x,y,-z
1/2+x,1/2+y,1/2+z
1/2-x,1/2-y,1/2+z
1/2+x,1/2-y,1/2-z
1/2-x,1/2+y,1/2-z
loop_
_atom_site_type_symbol
_atom_site_label
_atom_site_fract_x
_atom_site_fract_y
_atom_site_fract_z
Si Si1 0.164220 0.296761 0.489927
Si Si2 0.174923 0.815273 0.709516
Si Si3 0.347081 0.274289 0.189439
Si Si4 0.656528 0.213742 0.610179
Si Si5 0.670321 0.803767 0.590732
O O1 0.161465 0.500000 0.500000
O O2 0.225429 0.271845 0.432358
O O3 0.272959 0.215223 0.532364
O O4 0.000000 0.227163 0.500000
O O5 0.237750 0.798410 0.767096
O O6 0.290492 0.740643 0.667857
O O7 0.016171 0.727937 0.701024
O O8 0.159520 0.017781 0.696212
O O9 0.287926 0.229674 0.132086
O O10 0.491618 0.275412 0.598137
O O11 0.656130 0.005873 0.604264
#
# Coordination Sequence:
#
# PCOD9330880 Si02
#       5
#     8   8   8   8   8
#     4  11  24  39  56  82 114 147 184 227 276 328
#     4  10  21  37  58  84 113 147 186 227 274 327
#     4  10  21  37  58  84 113 147 186 227 274 327
#     4  10  21  38  60  84 110 144 186 229 275 329
#     4  10  21  38  60  84 110 144 186 229 275 329
#
# _framework density 22.086606
#
# number of rings (size 3 to 8) (size 9 to 14) (size 15 to 20)
#    0.000    1.800    0.000    3.600    0.000   10.400 
#    0.000    0.000    0.000    0.000    0.000    0.000 
#    0.000    0.000    0.000    0.000    0.000    0.000 
#
# Total GULP energy -111830.650550 kJ/mol
# GULP energy per Si atom -5591.532528 kJ/mol
# Density = 2.203634 g / cm^3
# Si number density = 22.086606 Si / 1000 Ang^3
#
#
#
# Elastic Constant Matrix: (Units=GPa)
#
#
# Indices 1 2 3 4 5 6 
#
# 1 88.6486 2.8826 -23.5113 0.0000 0.0000 0.0000
# 2 2.8826 22.1957 -7.8768 0.0000 0.0000 0.0000
# 3 -23.5113 -7.8768 55.2815 0.0000 0.0000 0.0000
# 4 0.0000 0.0000 0.0000 26.3155 0.0000 0.0000
# 5 0.0000 0.0000 0.0000 0.0000 43.8829 0.0000
# 6 0.0000 0.0000 0.0000 0.0000 0.0000 11.9396
#
#
#
# Elastic Compliance Matrix: (Units=1/GPa)
#
#
# Indices 1 2 3 4 5 6 
#
# 1 0.012716 0.000282 0.005448 0.000000 0.000000 0.000000
# 2 0.000282 0.047459 0.006882 0.000000 0.000000 0.000000
# 3 0.005448 0.006882 0.021387 0.000000 0.000000 0.000000
# 4 0.000000 0.000000 0.000000 0.038000 0.000000 0.000000
# 5 0.000000 0.000000 0.000000 0.000000 0.022788 0.000000
# 6 0.000000 0.000000 0.000000 0.000000 0.000000 0.083755
#
#
# Mechanical properties :
#
#
# Convention : Reuss Voigt Hill
#
# Bulk Modulus (GPa) = 9.36429 12.12385 10.74407
# Shear Modulus (GPa) = 21.14373 29.40303 25.27338
#
# Velocity S-wave (km/s) = 3.09740 3.65260 3.38640
# Velocity P-wave (km/s) = 4.12806 4.82595 4.49058
#
# Compressibility (1/GPa) = 0.10678862
#
# Stress axis : x y z
#
# Youngs Moduli (GPa) = 78.63882 21.07060 46.75714
#
# Poissons Ratio (x) = -0.00594 -0.25476
# Poissons Ratio (y) = -0.02218 -0.32180
# Poissons Ratio (z) = -0.42846 -0.14501
#
# Static dielectric constant tensor:
#      x y z
#    x 1.823510 0.000000 0.000000 
#    y 0.000000 1.835050 0.000000 
#    z 0.000000 0.000000 1.745950 
# 
# From -- ./inp_files/6895.got.cif
#   From: 2010.05.17/outbox.cif.g08.bks.cpg/sg23_4_cif.got.tgz:6895.got - 2010.06.04 12:02:01.
