data_PCOD9330786
_publ_section_title
;
Structure prediction by ZEFSAII (Michael W. Deem and Ramdas Pophale) SiO2 
 PCOD9330786
Probable space group: I 2 2 2
;
_chemical_formula_sum "Si O2"
_cell_formula_units_Z 48
_cell_length_a 26.840005
_cell_length_b 6.336068
_cell_length_c 13.615756
_cell_angle_alpha 90.000000
_cell_angle_beta 90.000000
_cell_angle_gamma 90.000000
_cell_volume 2315.496783
_symmetry_space_group_name_H-M "I 2 2 2"
_symmetry_group_IT_number 23
_symmetry_cell_setting 'orthorhombic'
loop_
_space_group_symop_operation_xyz
x,y,z
-x,-y,z
x,-y,-z
-x,y,-z
1/2+x,1/2+y,1/2+z
1/2-x,1/2-y,1/2+z
1/2+x,1/2-y,1/2-z
1/2-x,1/2+y,1/2-z
loop_
_atom_site_type_symbol
_atom_site_label
_atom_site_fract_x
_atom_site_fract_y
_atom_site_fract_z
Si Si1 0.201389 0.704293 0.146554
Si Si2 0.045885 0.617621 0.684636
Si Si3 0.000000 0.000000 0.808587
Si Si4 0.221781 0.865169 0.363401
Si Si5 0.379697 0.561847 0.111704
Si Si6 0.909531 0.233835 0.201947
Si Si7 0.239986 0.500000 0.500000
O O1 0.218724 0.760978 0.256900
O O2 0.225037 0.476771 0.121171
O O3 0.142031 0.723867 0.147367
O O4 0.225475 0.877289 0.076551
O O5 0.092613 0.716771 0.628263
O O6 0.067620 0.454434 0.763335
O O7 0.000000 0.500000 0.630127
O O8 0.020218 0.812424 0.740090
O O9 0.048914 0.100985 0.857707
O O10 0.210620 0.680071 0.440854
O O11 0.179826 0.046501 0.373446
O O12 0.398518 0.398229 0.196598
O O13 0.391254 0.500000 0.000000
#
# Coordination Sequence:
#
# PCOD9330786 Si02
#       7
#     8   8   4   8   8   8   4
#     4  11  23  39  63  94 125 167 213 262 320 381
#     4   9  18  35  55  77 114 155 206 262 318 378
#     4   8  16  36  55  85 112 148 206 258 318 390
#     4  11  24  40  62  90 128 172 217 264 318 386
#     4  10  21  34  51  82 119 160 211 260 309 383
#     4   9  20  34  58  83 113 160 202 259 322 376
#     4  12  24  42  62  89 134 170 213 270 316 384
#
# _framework density 20.729890999999999
#
# number of rings (size 3 to 8) (size 9 to 14) (size 15 to 20)
#    0.000    2.000    1.667    1.500    2.333    4.667 
#    0.000   19.167    0.000    0.500    0.000    0.000 
#    0.000    0.000    0.000    0.000    0.000    0.000 
#
# Total GULP energy -133844.314300 kJ/mol
# GULP energy per Si atom -5576.846429 kJ/mol
# Density = 2.068271 g / cm^3
# Si number density = 20.729891 Si / 1000 Ang^3
#
#
#
# Elastic Constant Matrix: (Units=GPa)
#
#
# Indices 1 2 3 4 5 6 
#
# 1 122.2610 42.1747 1.4969 0.0000 0.0000 0.0000
# 2 42.1747 85.5326 13.1098 0.0000 0.0000 0.0000
# 3 1.4969 13.1098 45.8372 0.0000 0.0000 0.0000
# 4 0.0000 0.0000 0.0000 23.5449 0.0000 0.0000
# 5 0.0000 0.0000 0.0000 0.0000 -0.4416 0.0000
# 6 0.0000 0.0000 0.0000 0.0000 0.0000 39.1854
#
#
#
# Elastic Compliance Matrix: (Units=1/GPa)
#
#
# Indices 1 2 3 4 5 6 
#
# 1 0.009911 -0.005059 0.001123 0.000000 0.000000 0.000000
# 2 -0.005059 0.014810 -0.004070 0.000000 0.000000 0.000000
# 3 0.001123 -0.004070 0.022944 0.000000 0.000000 0.000000
# 4 0.000000 0.000000 0.000000 0.042472 0.000000 0.000000
# 5 0.000000 0.000000 0.000000 0.000000 -2.264429 0.000000
# 6 0.000000 0.000000 0.000000 0.000000 0.000000 0.025520
#
#
# Mechanical properties :
#
#
# Convention : Reuss Voigt Hill
#
# Bulk Modulus (GPa) = 31.59368 40.79927 36.19648
# Shear Modulus (GPa) = -2.35603 25.58105 11.61251
#
# Velocity S-wave (km/s) = -1.06724 3.51667 2.36938
# Velocity P-wave (km/s) = 3.70878 6.01776 4.99842
#
# Compressibility (1/GPa) = 0.03165190
#
# Stress axis : x y z
#
# Youngs Moduli (GPa) = 100.90236 67.52289 43.58469
#
# Poissons Ratio (x) = 0.34159 -0.04896
# Poissons Ratio (y) = 0.51045 0.17741
# Poissons Ratio (z) = -0.11334 0.27485
#
# Static dielectric constant tensor:
#      x y z
#    x 1.804340 0.000000 0.000000 
#    y 0.000000 1.751930 0.000000 
#    z 0.000000 0.000000 1.720900 
# 
# From -- ./inp_files/2611.got.cif
#   From: 2010.05.17/outbox.cif.g08.bks.cpg/sg23_2_cif.got.tgz:2611.got - 2010.06.04 12:02:01.
