data_PCOD9330982
_publ_section_title
;
Structure prediction by ZEFSAII (Michael W. Deem and Ramdas Pophale) SiO2 
 PCOD9330982
Probable space group: I 2 2 2
;
_chemical_formula_sum "Si O2"
_cell_formula_units_Z 48
_cell_length_a 14.856144
_cell_length_b 17.961539
_cell_length_c 8.286014
_cell_angle_alpha 90.000000
_cell_angle_beta 90.000000
_cell_angle_gamma 90.000000
_cell_volume 2211.033429
_symmetry_space_group_name_H-M "I 2 2 2"
_symmetry_group_IT_number 23
_symmetry_cell_setting 'orthorhombic'
loop_
_space_group_symop_operation_xyz
x,y,z
-x,-y,z
x,-y,-z
-x,y,-z
1/2+x,1/2+y,1/2+z
1/2-x,1/2-y,1/2+z
1/2+x,1/2-y,1/2-z
1/2-x,1/2+y,1/2-z
loop_
_atom_site_type_symbol
_atom_site_label
_atom_site_fract_x
_atom_site_fract_y
_atom_site_fract_z
Si Si1 0.921806 0.454823 0.165873
Si Si2 0.713880 0.081140 0.915459
Si Si3 0.320719 0.312552 0.192291
Si Si4 0.646308 0.218955 0.108524
Si Si5 0.975026 0.286502 0.175812
Si Si6 0.397829 0.587697 0.540985
O O1 0.825605 0.439940 0.243548
O O2 0.000000 0.500000 0.261318
O O3 0.963819 0.373896 0.157018
O O4 0.909831 0.500000 0.000000
O O5 0.650803 0.143315 0.999922
O O6 0.814386 0.115181 0.929288
O O7 0.711576 0.000000 0.000000
O O8 0.219639 0.299807 0.253553
O O9 0.381894 0.250052 0.275748
O O10 0.363553 0.386788 0.278984
O O11 0.328921 0.290094 0.004067
O O12 0.550509 0.230539 0.191640
O O13 0.000000 0.258659 0.000000
O O14 0.397948 0.500000 0.500000
O O15 0.500000 0.610078 0.500000
#
# Coordination Sequence:
#
# PCOD9330982 Si02
#       6
#     8   8   8   8   8   8
#     4  11  22  38  60  95 143 188 226 274 342 419
#     4  10  21  38  65  96 130 182 229 279 343 420
#     4  11  23  41  65  99 131 179 232 291 353 424
#     4  11  24  42  65  98 139 178 234 289 351 425
#     4  12  23  40  65  95 137 187 228 281 348 419
#     4   9  20  42  69  95 127 174 233 293 360 416
#
# _framework density 21.709305000000001
#
# number of rings (size 3 to 8) (size 9 to 14) (size 15 to 20)
#    0.000    1.333    3.333    3.000    0.000    3.000 
#    3.000    0.000    0.000    0.000    0.000   18.667 
#    0.000    0.000    0.000    0.000    0.000    0.000 
#
# Total GULP energy -133725.989047 kJ/mol
# GULP energy per Si atom -5571.916210 kJ/mol
# Density = 2.165989 g / cm^3
# Si number density = 21.709305 Si / 1000 Ang^3
#
#
#
# Elastic Constant Matrix: (Units=GPa)
#
#
# Indices 1 2 3 4 5 6 
#
# 1 47.3701 -3.0421 22.2760 0.0000 0.0000 0.0000
# 2 -3.0421 115.6510 17.8701 0.0000 0.0000 0.0000
# 3 22.2760 17.8701 88.0679 0.0000 0.0000 0.0000
# 4 0.0000 0.0000 0.0000 18.7846 0.0000 0.0000
# 5 0.0000 0.0000 0.0000 0.0000 -11.1531 0.0000
# 6 0.0000 0.0000 0.0000 0.0000 0.0000 -80.8049
#
#
#
# Elastic Compliance Matrix: (Units=1/GPa)
#
#
# Indices 1 2 3 4 5 6 
#
# 1 0.024257 0.001637 -0.006468 0.000000 0.000000 0.000000
# 2 0.001637 0.009037 -0.002248 0.000000 0.000000 0.000000
# 3 -0.006468 -0.002248 0.013447 0.000000 0.000000 0.000000
# 4 0.000000 0.000000 0.000000 0.053235 0.000000 0.000000
# 5 0.000000 0.000000 0.000000 0.000000 -0.089661 0.000000
# 6 0.000000 0.000000 0.000000 0.000000 0.000000 -0.012375
#
#
# Mechanical properties :
#
#
# Convention : Reuss Voigt Hill
#
# Bulk Modulus (GPa) = 30.68946 36.14412 33.41679
# Shear Modulus (GPa) = 217.79381 -0.36900 108.71241
#
# Velocity S-wave (km/s) = 10.02699 -0.41272 7.08415
# Velocity P-wave (km/s) = 12.17462 4.05687 9.07413
#
# Compressibility (1/GPa) = 0.03258448
#
# Stress axis : x y z
#
# Youngs Moduli (GPa) = 41.22512 110.65474 74.36599
#
# Poissons Ratio (x) = -0.18119 0.48099
# Poissons Ratio (y) = -0.06750 0.16717
# Poissons Ratio (z) = 0.26664 0.24874
#
# Static dielectric constant tensor:
#      x y z
#    x 1.809710 0.000000 0.000000 
#    y 0.000000 1.818870 0.000000 
#    z 0.000000 0.000000 1.940180 
# 
# From -- ./inp_files/9914.got.cif
#   From: 2010.05.17/outbox.cif.g08.bks.cpg/sg23_5_cif.got.tgz:9914.got - 2010.06.04 12:02:01.
