data_PCOD9330235
_publ_section_title
;
Structure prediction by ZEFSAII (Michael W. Deem and Ramdas Pophale) SiO2 
 PCOD9330235
Probable space group: I 2 2 2
;
_chemical_formula_sum "Si O2"
_cell_formula_units_Z 52
_cell_length_a 18.349692
_cell_length_b 5.696342
_cell_length_c 24.626371
_cell_angle_alpha 90.000000
_cell_angle_beta 90.000000
_cell_angle_gamma 90.000000
_cell_volume 2574.099041
_symmetry_space_group_name_H-M "I 2 2 2"
_symmetry_group_IT_number 23
_symmetry_cell_setting 'orthorhombic'
loop_
_space_group_symop_operation_xyz
x,y,z
-x,-y,z
x,-y,-z
-x,y,-z
1/2+x,1/2+y,1/2+z
1/2-x,1/2-y,1/2+z
1/2+x,1/2-y,1/2-z
1/2-x,1/2+y,1/2-z
loop_
_atom_site_type_symbol
_atom_site_label
_atom_site_fract_x
_atom_site_fract_y
_atom_site_fract_z
Si Si1 0.659488 0.484997 0.867963
Si Si2 0.795573 0.703691 0.913559
Si Si3 0.074453 0.603432 0.938432
Si Si4 0.000000 0.500000 0.704039
Si Si5 0.000000 0.000000 0.638777
Si Si6 0.732448 0.591677 0.673056
Si Si7 0.151123 0.678225 0.737723
Si Si8 0.868284 0.000000 0.000000
O O1 0.713288 0.620704 0.907893
O O2 0.577833 0.484166 0.890744
O O3 0.705424 0.248799 0.856290
O O4 0.650756 0.621297 0.809767
O O5 0.854615 0.495542 0.908116
O O6 0.800573 0.898533 0.866775
O O7 0.815755 0.817748 0.970595
O O8 0.000000 0.500000 0.913871
O O9 0.074688 0.500000 0.000000
O O10 0.083587 0.877263 0.953040
O O11 0.003187 0.250600 0.671512
O O12 0.076455 0.531471 0.735190
O O13 0.778920 0.474136 0.721320
O O14 0.667721 0.725874 0.702959
#
# Coordination Sequence:
#
# PCOD9330235 Si02
#       8
#     8   8   8   4   4   8   8   4
#     4  10  20  35  56  86 119 155 204 251 308 365
#     4  10  22  35  60  91 116 154 205 250 310 368
#     4   9  19  36  62  90 117 152 198 247 302 361
#     4  10  20  36  58  86 116 167 209 258 308 366
#     4  10  20  36  60  90 123 154 216 263 306 366
#     4  11  19  35  57  87 118 160 198 251 304 366
#     4  10  20  33  58  83 118 159 206 249 303 359
#     4  10  20  41  64  86 117 156 198 254 307 370
#
# _framework density 20.201245
#
# number of rings (size 3 to 8) (size 9 to 14) (size 15 to 20)
#    0.000    2.000    3.077    0.923    0.000    4.923 
#    0.000    0.000   10.154    0.000    0.000   22.077 
#    0.000    0.000    0.000    0.000    0.000    0.000 
#
# Total GULP energy -144763.097753 kJ/mol
# GULP energy per Si atom -5567.811452 kJ/mol
# Density = 2.015527 g / cm^3
# Si number density = 20.201245 Si / 1000 Ang^3
#
#
#
# Elastic Constant Matrix: (Units=GPa)
#
#
# Indices 1 2 3 4 5 6 
#
# 1 167.3056 45.8297 44.2233 0.0000 0.0000 0.0000
# 2 45.8297 87.9664 15.0568 0.0000 0.0000 0.0000
# 3 44.2233 15.0568 25.0428 0.0000 0.0000 0.0000
# 4 0.0000 0.0000 0.0000 24.3757 0.0000 0.0000
# 5 0.0000 0.0000 0.0000 0.0000 23.7522 0.0000
# 6 0.0000 0.0000 0.0000 0.0000 0.0000 26.2307
#
#
#
# Elastic Compliance Matrix: (Units=1/GPa)
#
#
# Indices 1 2 3 4 5 6 
#
# 1 0.011832 -0.002885 -0.019159 0.000000 0.000000 0.000000
# 2 -0.002885 0.013375 -0.002948 0.000000 0.000000 0.000000
# 3 -0.019159 -0.002948 0.075537 0.000000 0.000000 0.000000
# 4 0.000000 0.000000 0.000000 0.041024 0.000000 0.000000
# 5 0.000000 0.000000 0.000000 0.000000 0.042101 0.000000
# 6 0.000000 0.000000 0.000000 0.000000 0.000000 0.038123
#
#
# Mechanical properties :
#
#
# Convention : Reuss Voigt Hill
#
# Bulk Modulus (GPa) = 19.70015 54.50384 37.10199
# Shear Modulus (GPa) = 17.30727 26.55205 21.92966
#
# Velocity S-wave (km/s) = 2.93019 3.62937 3.29836
# Velocity P-wave (km/s) = 4.60664 6.67848 5.73686
#
# Compressibility (1/GPa) = 0.05076105
#
# Stress axis : x y z
#
# Youngs Moduli (GPa) = 84.51993 74.76381 13.23858
#
# Poissons Ratio (x) = 0.21568 0.25364
# Poissons Ratio (y) = 0.24382 0.03902
# Poissons Ratio (z) = 1.61931 0.22038
#
# Static dielectric constant tensor:
#      x y z
#    x 1.740440 0.000000 0.000000 
#    y 0.000000 1.892340 0.000000 
#    z 0.000000 0.000000 1.706440 
# 
# From -- ./inp_files/25430.got.cif
#   From: 2010.05.17/outbox.cif.g08.bks.cpg/sg23_13_cif.got.tgz:25430.got - 2010.06.04 12:02:01.
