data_PCOD9330249
_publ_section_title
;
Structure prediction by ZEFSAII (Michael W. Deem and Ramdas Pophale) SiO2 
 PCOD9330249
Probable space group: I 2 2 2
;
_chemical_formula_sum "Si O2"
_cell_formula_units_Z 64
_cell_length_a 4.943472
_cell_length_b 33.580604
_cell_length_c 18.884700
_cell_angle_alpha 90.000000
_cell_angle_beta 90.000000
_cell_angle_gamma 90.000000
_cell_volume 3134.950386
_symmetry_space_group_name_H-M "I 2 2 2"
_symmetry_group_IT_number 23
_symmetry_cell_setting 'orthorhombic'
loop_
_space_group_symop_operation_xyz
x,y,z
-x,-y,z
x,-y,-z
-x,y,-z
1/2+x,1/2+y,1/2+z
1/2-x,1/2-y,1/2+z
1/2+x,1/2-y,1/2-z
1/2-x,1/2+y,1/2-z
loop_
_atom_site_type_symbol
_atom_site_label
_atom_site_fract_x
_atom_site_fract_y
_atom_site_fract_z
Si Si1 0.677566 0.774939 0.769614
Si Si2 0.142075 0.958643 0.224907
Si Si3 0.933856 0.288558 0.416503
Si Si4 0.083838 0.333070 0.846208
Si Si5 0.415336 0.122117 0.110151
Si Si6 0.875162 0.409471 0.239044
Si Si7 0.598744 0.570251 0.426832
Si Si8 0.111866 0.200240 0.579048
O O1 0.478108 0.738100 0.750725
O O2 0.656589 0.785519 0.853070
O O3 0.555750 0.809510 0.719688
O O4 0.421230 0.946894 0.262533
O O5 0.186160 0.957109 0.139229
O O6 0.925477 0.924882 0.246029
O O7 0.000000 0.000000 0.242826
O O8 0.000000 0.288568 0.500000
O O9 0.823697 0.332823 0.403912
O O10 0.788708 0.245875 0.406604
O O11 0.122680 0.378674 0.824800
O O12 0.363245 0.312996 0.870975
O O13 0.865654 0.327683 0.907982
O O14 0.479922 0.115425 0.192652
O O15 0.670972 0.104552 0.066955
O O16 0.168529 0.093267 0.095805
O O17 0.500000 0.550512 0.500000
O O18 0.000000 0.198922 0.500000
#
# Coordination Sequence:
#
# PCOD9330249 Si02
#       8
#     8   8   8   8   8   8   8   8
#     4  12  23  39  55  80 109 153 200 246 292 339
#     4  10  21  37  56  83 116 139 175 236 282 336
#     4  11  22  37  55  80 113 154 201 251 296 321
#     4  12  21  41  62  81 116 153 193 241 279 344
#     4  10  21  35  51  75 110 144 198 251 279 320
#     4  10  21  36  60  85 107 149 187 223 281 338
#     4  10  20  34  51  73 104 150 195 233 285 336
#     4  11  25  39  58  87 118 152 194 243 291 335
#
# _framework density 20.414994
#
# number of rings (size 3 to 8) (size 9 to 14) (size 15 to 20)
#    0.000    1.250    3.750    2.625    0.000    2.250 
#    0.000    3.125    0.000    4.500    0.000    0.000 
#    0.000   35.000    0.000    0.000    0.000    0.000 
#
# Total GULP energy -178508.086753 kJ/mol
# GULP energy per Si atom -5578.377711 kJ/mol
# Density = 2.036853 g / cm^3
# Si number density = 20.414994 Si / 1000 Ang^3
#
#
#
# Elastic Constant Matrix: (Units=GPa)
#
#
# Indices 1 2 3 4 5 6 
#
# 1 68.3171 -11.1939 0.6040 0.0000 0.0000 0.0000
# 2 -11.1939 52.8360 16.3702 0.0000 0.0000 0.0000
# 3 0.6040 16.3702 65.1428 0.0000 0.0000 0.0000
# 4 0.0000 0.0000 0.0000 13.9306 0.0000 0.0000
# 5 0.0000 0.0000 0.0000 0.0000 20.5590 0.0000
# 6 0.0000 0.0000 0.0000 0.0000 0.0000 -527.1660
#
#
#
# Elastic Compliance Matrix: (Units=1/GPa)
#
#
# Indices 1 2 3 4 5 6 
#
# 1 0.015228 0.003546 -0.001032 0.000000 0.000000 0.000000
# 2 0.003546 0.021350 -0.005398 0.000000 0.000000 0.000000
# 3 -0.001032 -0.005398 0.016717 0.000000 0.000000 0.000000
# 4 0.000000 0.000000 0.000000 0.071785 0.000000 0.000000
# 5 0.000000 0.000000 0.000000 0.000000 0.048641 0.000000
# 6 0.000000 0.000000 0.000000 0.000000 0.000000 -0.001897
#
#
# Mechanical properties :
#
#
# Convention : Reuss Voigt Hill
#
# Bulk Modulus (GPa) = 21.04102 21.98404 21.51253
# Shear Modulus (GPa) = 25.84859 -86.50092 -30.32616
#
# Velocity S-wave (km/s) = 3.56217 -6.51638 -3.85838
# Velocity P-wave (km/s) = 5.21994 6.76947 3.04778
#
# Compressibility (1/GPa) = 0.04752621
#
# Stress axis : x y z
#
# Youngs Moduli (GPa) = 65.66945 46.83784 59.81935
#
# Poissons Ratio (x) = -0.16609 0.06175
# Poissons Ratio (y) = -0.23286 0.32291
# Poissons Ratio (z) = 0.06779 0.25284
#
# Static dielectric constant tensor:
#      x y z
#    x 1.704880 0.000000 0.000000 
#    y 0.000000 1.736570 0.000000 
#    z 0.000000 0.000000 1.826720 
# 
# From -- ./inp_files/23334.got.cif
#   From: 2010.05.17/outbox.cif.g08.bks.cpg/sg23_12_cif.got.tgz:23334.got - 2010.06.04 12:02:01.
