data_PCOD9330248
_publ_section_title
;
Structure prediction by ZEFSAII (Michael W. Deem and Ramdas Pophale) SiO2 
 PCOD9330248
Probable space group: I 2 2 2
;
_chemical_formula_sum "Si O2"
_cell_formula_units_Z 64
_cell_length_a 18.566298
_cell_length_b 9.018451
_cell_length_c 22.186867
_cell_angle_alpha 90.000000
_cell_angle_beta 90.000000
_cell_angle_gamma 90.000000
_cell_volume 3714.952343
_symmetry_space_group_name_H-M "I 2 2 2"
_symmetry_group_IT_number 23
_symmetry_cell_setting 'orthorhombic'
loop_
_space_group_symop_operation_xyz
x,y,z
-x,-y,z
x,-y,-z
-x,y,-z
1/2+x,1/2+y,1/2+z
1/2-x,1/2-y,1/2+z
1/2+x,1/2-y,1/2-z
1/2-x,1/2+y,1/2-z
loop_
_atom_site_type_symbol
_atom_site_label
_atom_site_fract_x
_atom_site_fract_y
_atom_site_fract_z
Si Si1 0.422181 0.572398 0.231771
Si Si2 0.578062 0.069694 0.234617
Si Si3 0.858592 0.950073 0.135517
Si Si4 0.917518 0.702788 0.063766
Si Si5 0.358476 0.967704 0.636190
Si Si6 0.784924 0.425032 0.309120
Si Si7 0.783196 0.933662 0.687923
Si Si8 0.584181 0.713640 0.428797
O O1 0.500000 0.500000 0.221773
O O2 0.422828 0.751790 0.229558
O O3 0.396002 0.530300 0.299589
O O4 0.362818 0.503225 0.186574
O O5 0.603579 0.020386 0.302009
O O6 0.500000 0.000000 0.224614
O O7 0.636370 0.996639 0.189536
O O8 0.869939 0.782618 0.114366
O O9 0.773376 0.974994 0.141390
O O10 0.900205 0.043499 0.085470
O O11 0.902691 0.533259 0.079503
O O12 0.999967 0.747053 0.075332
O O13 0.894931 0.746633 0.996880
O O14 0.275021 0.014863 0.638210
O O15 0.370489 0.794429 0.624041
O O16 0.786346 0.245300 0.306875
O O17 0.751147 0.491562 0.247710
#
# Coordination Sequence:
#
# PCOD9330248 Si02
#       8
#     8   8   8   8   8   8   8   8
#     4  11  22  34  54  78 106 134 171 209 256 315
#     4  11  22  34  54  78 106 134 171 209 256 315
#     4  11  21  34  52  72 103 141 177 210 257 301
#     4  11  20  40  45  74 101 139 182 221 258 284
#     4  11  21  34  52  72 103 141 177 210 257 301
#     4  10  20  34  51  72 103 135 173 213 254 307
#     4  10  20  34  51  72 103 135 173 213 254 307
#     4  11  24  30  55  70 103 139 180 225 250 296
#
# _framework density 17.227677
#
# number of rings (size 3 to 8) (size 9 to 14) (size 15 to 20)
#    0.000    1.250    2.500    6.000   10.500    2.000 
#    0.000    0.000    0.000    0.000    0.000    0.000 
#    0.000    6.000    0.000    0.000    0.000    0.000 
#
# Total GULP energy -178424.090539 kJ/mol
# GULP energy per Si atom -5575.752829 kJ/mol
# Density = 1.718847 g / cm^3
# Si number density = 17.227677 Si / 1000 Ang^3
#
#
#
# Elastic Constant Matrix: (Units=GPa)
#
#
# Indices 1 2 3 4 5 6 
#
# 1 140.6754 31.6774 25.1644 0.0000 0.0000 0.0000
# 2 31.6774 67.1105 5.0905 0.0000 0.0000 0.0000
# 3 25.1644 5.0905 33.7300 0.0000 0.0000 0.0000
# 4 0.0000 0.0000 0.0000 21.8799 0.0000 0.0000
# 5 0.0000 0.0000 0.0000 0.0000 17.8051 0.0000
# 6 0.0000 0.0000 0.0000 0.0000 0.0000 32.1009
#
#
#
# Elastic Compliance Matrix: (Units=1/GPa)
#
#
# Indices 1 2 3 4 5 6 
#
# 1 0.009076 -0.003814 -0.006195 0.000000 0.000000 0.000000
# 2 -0.003814 0.016676 0.000329 0.000000 0.000000 0.000000
# 3 -0.006195 0.000329 0.034220 0.000000 0.000000 0.000000
# 4 0.000000 0.000000 0.000000 0.045704 0.000000 0.000000
# 5 0.000000 0.000000 0.000000 0.000000 0.056164 0.000000
# 6 0.000000 0.000000 0.000000 0.000000 0.000000 0.031152
#
#
# Mechanical properties :
#
#
# Convention : Reuss Voigt Hill
#
# Bulk Modulus (GPa) = 24.62438 40.59784 32.61111
# Shear Modulus (GPa) = 22.13480 26.32943 24.23212
#
# Velocity S-wave (km/s) = 3.58835 3.91362 3.75451
# Velocity P-wave (km/s) = 5.61185 6.63615 6.14538
#
# Compressibility (1/GPa) = 0.04061017
#
# Stress axis : x y z
#
# Youngs Moduli (GPa) = 110.18531 59.96604 29.22303
#
# Poissons Ratio (x) = 0.22871 0.18105
# Poissons Ratio (y) = 0.42024 -0.00960
# Poissons Ratio (z) = 0.68263 -0.01971
#
# Static dielectric constant tensor:
#      x y z
#    x 1.617690 0.000000 0.000000 
#    y 0.000000 1.586270 0.000000 
#    z 0.000000 0.000000 1.567520 
# 
# From -- ./inp_files/29699.got.cif
#   From: 2010.05.17/outbox.cif.g08.bks.cpg/sg23_15_cif.got.tgz:29699.got - 2010.06.04 12:02:01.
