data_PCOD9330545
_publ_section_title
;
Structure prediction by ZEFSAII (Michael W. Deem and Ramdas Pophale) SiO2 
 PCOD9330545
Probable space group: I 2 2 2
;
_chemical_formula_sum "Si O2"
_cell_formula_units_Z 48
_cell_length_a 9.120850
_cell_length_b 15.884052
_cell_length_c 15.536368
_cell_angle_alpha 90.000000
_cell_angle_beta 90.000000
_cell_angle_gamma 90.000000
_cell_volume 2250.847715
_symmetry_space_group_name_H-M "I 2 2 2"
_symmetry_group_IT_number 23
_symmetry_cell_setting 'orthorhombic'
loop_
_space_group_symop_operation_xyz
x,y,z
-x,-y,z
x,-y,-z
-x,y,-z
1/2+x,1/2+y,1/2+z
1/2-x,1/2-y,1/2+z
1/2+x,1/2-y,1/2-z
1/2-x,1/2+y,1/2-z
loop_
_atom_site_type_symbol
_atom_site_label
_atom_site_fract_x
_atom_site_fract_y
_atom_site_fract_z
Si Si1 0.663773 0.963547 0.910581
Si Si2 0.658374 0.775539 0.539051
Si Si3 0.340220 0.467212 0.244206
Si Si4 0.340511 0.032414 0.590531
Si Si5 0.169726 0.736542 0.628264
Si Si6 0.341652 0.266904 0.201760
O O1 0.749948 0.992479 0.827318
O O2 0.670530 0.862328 0.900810
O O3 0.500000 0.000000 0.905775
O O4 0.726150 0.000000 0.000000
O O5 0.500000 0.745179 0.500000
O O6 0.636899 0.868677 0.576429
O O7 0.774672 0.778990 0.460304
O O8 0.734744 0.734384 0.624035
O O9 0.500000 0.500000 0.256450
O O10 0.267071 0.504352 0.160348
O O11 0.334686 0.367679 0.221236
O O12 0.500000 0.000000 0.612319
O O13 0.287921 0.000000 0.500000
O O14 0.282709 0.763479 0.704872
O O15 0.007128 0.750271 0.668257
#
# Coordination Sequence:
#
# PCOD9330545 Si02
#       6
#     8   8   8   8   8   8
#     4  10  24  45  68  93 120 174 227 267 327 395
#     4  11  22  39  64  96 128 169 214 266 326 389
#     4  10  23  40  62  98 131 164 211 266 328 380
#     4  10  20  38  62  91 129 175 211 251 312 399
#     4  11  24  45  65  99 129 170 225 274 335 401
#     4  10  24  41  65  94 131 169 211 269 333 390
#
# _framework density 21.325298
#
# number of rings (size 3 to 8) (size 9 to 14) (size 15 to 20)
#    0.000    1.667    1.667    2.000    7.000    2.000 
#    6.000    0.000    0.000    0.000    0.000    0.000 
#    0.000    0.000    0.000    0.000    0.000    0.000 
#
# Total GULP energy -133721.387733 kJ/mol
# GULP energy per Si atom -5571.724489 kJ/mol
# Density = 2.127676 g / cm^3
# Si number density = 21.325298 Si / 1000 Ang^3
#
#
#
# Elastic Constant Matrix: (Units=GPa)
#
#
# Indices 1 2 3 4 5 6 
#
# 1 82.6502 13.9346 80.8780 0.0000 0.0000 0.0000
# 2 13.9346 29.6710 43.8355 0.0000 0.0000 0.0000
# 3 80.8780 43.8355 253.9407 0.0000 0.0000 0.0000
# 4 0.0000 0.0000 0.0000 16.2109 0.0000 0.0000
# 5 0.0000 0.0000 0.0000 0.0000 206.3748 0.0000
# 6 0.0000 0.0000 0.0000 0.0000 0.0000 20.0989
#
#
#
# Elastic Compliance Matrix: (Units=1/GPa)
#
#
# Indices 1 2 3 4 5 6 
#
# 1 0.017577 0.000021 -0.005602 0.000000 0.000000 0.000000
# 2 0.000021 0.045241 -0.007816 0.000000 0.000000 0.000000
# 3 -0.005602 -0.007816 0.007071 0.000000 0.000000 0.000000
# 4 0.000000 0.000000 0.000000 0.061687 0.000000 0.000000
# 5 0.000000 0.000000 0.000000 0.000000 0.004846 0.000000
# 6 0.000000 0.000000 0.000000 0.000000 0.000000 0.049754
#
#
# Mechanical properties :
#
#
# Convention : Reuss Voigt Hill
#
# Bulk Modulus (GPa) = 23.20428 71.50645 47.35536
# Shear Modulus (GPa) = 21.99398 63.71116 42.85257
#
# Velocity S-wave (km/s) = 3.21496 5.47181 4.48758
# Velocity P-wave (km/s) = 4.96850 8.57467 7.00753
#
# Compressibility (1/GPa) = 0.04309550
#
# Stress axis : x y z
#
# Youngs Moduli (GPa) = 56.89116 22.10402 141.41578
#
# Poissons Ratio (x) = -0.00047 0.79220
# Poissons Ratio (y) = -0.00121 1.10534
# Poissons Ratio (z) = 0.31870 0.17277
#
# Static dielectric constant tensor:
#      x y z
#    x 1.760840 0.000000 0.000000 
#    y 0.000000 1.775040 0.000000 
#    z 0.000000 0.000000 1.783630 
# 
# From -- ./inp_files/20015.got.cif
#   From: 2010.05.17/outbox.cif.g08.bks.cpg/sg23_11_cif.got.tgz:20015.got - 2010.06.04 12:02:01.
