data_PCOD9330128
_publ_section_title
;
Structure prediction by ZEFSAII (Michael W. Deem and Ramdas Pophale) SiO2 
 PCOD9330128
Probable space group: I 2 2 2
;
_chemical_formula_sum "Si O2"
_cell_formula_units_Z 42
_cell_length_a 26.900620
_cell_length_b 5.100168
_cell_length_c 14.739176
_cell_angle_alpha 90.000000
_cell_angle_beta 90.000000
_cell_angle_gamma 90.000000
_cell_volume 2022.180772
_symmetry_space_group_name_H-M "I 2 2 2"
_symmetry_group_IT_number 23
_symmetry_cell_setting 'orthorhombic'
loop_
_space_group_symop_operation_xyz
x,y,z
-x,-y,z
x,-y,-z
-x,y,-z
1/2+x,1/2+y,1/2+z
1/2-x,1/2-y,1/2+z
1/2+x,1/2-y,1/2-z
1/2-x,1/2+y,1/2-z
loop_
_atom_site_type_symbol
_atom_site_label
_atom_site_fract_x
_atom_site_fract_y
_atom_site_fract_z
Si Si1 0.142478 0.057699 0.142992
Si Si2 0.420609 0.951318 0.634244
Si Si3 0.500000 0.000000 0.500000
Si Si4 0.379043 0.432818 0.853174
Si Si5 0.943608 0.552984 0.655620
Si Si6 0.227994 0.000000 0.000000
Si Si7 0.297085 0.500000 0.000000
O O1 0.121724 0.765420 0.134474
O O2 0.192773 0.067058 0.085850
O O3 0.103757 0.273481 0.104930
O O4 0.142404 0.107228 0.251295
O O5 0.441714 0.988370 0.735217
O O6 0.463728 0.852186 0.568280
O O7 0.421768 0.656002 0.856564
O O8 0.405224 0.162109 0.883380
O O9 0.334057 0.525647 0.915183
O O10 0.000000 0.500000 0.624538
O O11 0.262668 0.750575 0.016094
#
# Coordination Sequence:
#
# PCOD9330128 Si02
#       7
#     8   8   2   8   8   4   4
#     4  10  22  41  58  87 116 165 184 250 287 360
#     4  10  21  33  56  85 127 153 202 221 290 337
#     4  12  20  32  52  90 124 164 186 242 264 366
#     4  10  23  40  63  84 128 148 199 249 302 338
#     4  10  19  39  60  89 117 165 193 235 283 365
#     4  12  24  40  66  85 121 146 210 238 308 372
#     4  12  26  43  61  92 108 155 201 270 300 348
#
# _framework density 20.769656000000001
#
# number of rings (size 3 to 8) (size 9 to 14) (size 15 to 20)
#    0.000    1.524    0.952    4.000    0.000    3.048 
#    0.000    2.857    0.000    0.000    0.000    0.000 
#    0.000    0.000    0.000    0.000    0.000    0.000 
#
# Total GULP energy -117290.086726 kJ/mol
# GULP energy per Si atom -5585.242225 kJ/mol
# Density = 2.072238 g / cm^3
# Si number density = 20.769656 Si / 1000 Ang^3
#
#
#
# Elastic Constant Matrix: (Units=GPa)
#
#
# Indices 1 2 3 4 5 6 
#
# 1 102.7192 12.1015 31.0654 0.0000 0.0000 0.0000
# 2 12.1015 79.8587 -3.4198 0.0000 0.0000 0.0000
# 3 31.0654 -3.4198 54.5114 0.0000 0.0000 0.0000
# 4 0.0000 0.0000 0.0000 59.8676 0.0000 0.0000
# 5 0.0000 0.0000 0.0000 0.0000 36.0831 0.0000
# 6 0.0000 0.0000 0.0000 0.0000 0.0000 12.5462
#
#
#
# Elastic Compliance Matrix: (Units=1/GPa)
#
#
# Indices 1 2 3 4 5 6 
#
# 1 0.012116 -0.002137 -0.007039 0.000000 0.000000 0.000000
# 2 -0.002137 0.012933 0.002029 0.000000 0.000000 0.000000
# 3 -0.007039 0.002029 0.022483 0.000000 0.000000 0.000000
# 4 0.000000 0.000000 0.000000 0.016704 0.000000 0.000000
# 5 0.000000 0.000000 0.000000 0.000000 0.027714 0.000000
# 6 0.000000 0.000000 0.000000 0.000000 0.000000 0.079705
#
#
# Mechanical properties :
#
#
# Convention : Reuss Voigt Hill
#
# Bulk Modulus (GPa) = 30.08540 35.17593 32.63066
# Shear Modulus (GPa) = 25.37713 34.85554 30.11634
#
# Velocity S-wave (km/s) = 3.49927 4.10102 3.81204
# Velocity P-wave (km/s) = 5.55367 6.27674 5.92624
#
# Compressibility (1/GPa) = 0.03323872
#
# Stress axis : x y z
#
# Youngs Moduli (GPa) = 82.53679 77.32201 44.47730
#
# Poissons Ratio (x) = 0.16527 0.31306
# Poissons Ratio (y) = 0.17641 -0.09026
# Poissons Ratio (z) = 0.58095 -0.15692
#
# Static dielectric constant tensor:
#      x y z
#    x 1.354880 0.000000 0.000000 
#    y 0.000000 1.723570 0.000000 
#    z 0.000000 0.000000 1.784470 
# 
# From -- ./inp_files/25196.got.cif
#   From: 2010.05.17/outbox.cif.g08.bks.cpg/sg23_13_cif.got.tgz:25196.got - 2010.06.04 12:02:01.
