data_PCOD9330425
_publ_section_title
;
Structure prediction by ZEFSAII (Michael W. Deem and Ramdas Pophale) SiO2 
 PCOD9330425
Probable space group: I 2 2 2
;
_chemical_formula_sum "Si O2"
_cell_formula_units_Z 56
_cell_length_a 20.957764
_cell_length_b 12.550616
_cell_length_c 9.573232
_cell_angle_alpha 90.000000
_cell_angle_beta 90.000000
_cell_angle_gamma 90.000000
_cell_volume 2518.074479
_symmetry_space_group_name_H-M "I 2 2 2"
_symmetry_group_IT_number 23
_symmetry_cell_setting 'orthorhombic'
loop_
_space_group_symop_operation_xyz
x,y,z
-x,-y,z
x,-y,-z
-x,y,-z
1/2+x,1/2+y,1/2+z
1/2-x,1/2-y,1/2+z
1/2+x,1/2-y,1/2-z
1/2-x,1/2+y,1/2-z
loop_
_atom_site_type_symbol
_atom_site_label
_atom_site_fract_x
_atom_site_fract_y
_atom_site_fract_z
Si Si1 0.171067 0.144890 0.778306
Si Si2 0.684553 0.893713 0.687159
Si Si3 0.977477 0.879974 0.157117
Si Si4 0.664460 0.337938 0.401971
Si Si5 0.889049 0.387969 0.524552
Si Si6 0.702244 0.885116 0.233360
Si Si7 0.552993 0.675039 0.100777
O O1 0.240990 0.112825 0.728724
O O2 0.174794 0.272869 0.780556
O O3 0.115974 0.117058 0.665159
O O4 0.162691 0.114501 0.940650
O O5 0.671476 0.791252 0.591340
O O6 0.638985 0.875111 0.821174
O O7 0.680433 0.020842 0.663026
O O8 0.902233 0.868563 0.166994
O O9 0.013553 0.800360 0.259218
O O10 0.000000 0.000000 0.192396
O O11 0.000000 0.859808 0.000000
O O12 0.722705 0.375890 0.303333
O O13 0.925079 0.500000 0.500000
O O14 0.829745 0.401318 0.417948
O O15 0.924677 0.281466 0.477616
O O16 0.500000 0.621497 0.000000
#
# Coordination Sequence:
#
# PCOD9330425 Si02
#       7
#     8   8   8   8   8   8   8
#     4  10  21  37  61  92 124 164 212 268 332 395
#     4  10  20  36  62  94 124 159 209 266 340 396
#     4  11  25  42  63  95 127 178 227 265 325 396
#     4  11  21  38  62  88 128 169 211 271 329 390
#     4   9  18  37  64  94 119 155 214 266 326 401
#     4   9  20  35  61  95 123 158 207 269 333 400
#     4  11  23  41  62  87 129 170 218 271 314 388
#
# _framework density 22.239215999999999
#
# number of rings (size 3 to 8) (size 9 to 14) (size 15 to 20)
#    0.000    1.857    2.857    0.857    2.000    1.143 
#    0.000    1.429    0.000    0.000    0.000    0.000 
#    0.000    0.000    0.000    0.000    0.000    0.000 
#
# Total GULP energy -156190.095047 kJ/mol
# GULP energy per Si atom -5578.217680 kJ/mol
# Density = 2.218860 g / cm^3
# Si number density = 22.239216 Si / 1000 Ang^3
#
#
#
# Elastic Constant Matrix: (Units=GPa)
#
#
# Indices 1 2 3 4 5 6 
#
# 1 129.3851 9.1819 18.2404 0.0000 0.0000 0.0000
# 2 9.1819 87.6935 7.7420 0.0000 0.0000 0.0000
# 3 18.2404 7.7420 69.3497 0.0000 0.0000 0.0000
# 4 0.0000 0.0000 0.0000 16.6826 0.0000 0.0000
# 5 0.0000 0.0000 0.0000 0.0000 -2.9947 0.0000
# 6 0.0000 0.0000 0.0000 0.0000 0.0000 4.8882
#
#
#
# Elastic Compliance Matrix: (Units=1/GPa)
#
#
# Indices 1 2 3 4 5 6 
#
# 1 0.008065 -0.000664 -0.002047 0.000000 0.000000 0.000000
# 2 -0.000664 0.011571 -0.001117 0.000000 0.000000 0.000000
# 3 -0.002047 -0.001117 0.015083 0.000000 0.000000 0.000000
# 4 0.000000 0.000000 0.000000 0.059943 0.000000 0.000000
# 5 0.000000 0.000000 0.000000 0.000000 -0.333918 0.000000
# 6 0.000000 0.000000 0.000000 0.000000 0.000000 0.204574
#
#
# Mechanical properties :
#
#
# Convention : Reuss Voigt Hill
#
# Bulk Modulus (GPa) = 36.95093 39.63964 38.29529
# Shear Modulus (GPa) = -277.69611 20.46614 -128.61499
#
# Velocity S-wave (km/s) = -11.18655 3.03689 -7.61302
# Velocity P-wave (km/s) = 12.25563 5.49180 7.74728
#
# Compressibility (1/GPa) = 0.02706292
#
# Stress axis : x y z
#
# Youngs Moduli (GPa) = 123.99941 86.41936 66.30060
#
# Poissons Ratio (x) = 0.05735 0.13572
# Poissons Ratio (y) = 0.08229 0.07407
# Poissons Ratio (z) = 0.25383 0.09655
#
# Static dielectric constant tensor:
#      x y z
#    x 1.833670 0.000000 0.000000 
#    y 0.000000 1.915710 0.000000 
#    z 0.000000 0.000000 1.862800 
# 
# From -- ./inp_files/12038.got.cif
#   From: 2010.05.17/outbox.cif.g08.bks.cpg/sg23_7_cif.got.tgz:12038.got - 2010.06.04 12:02:01.
