data_PCOD9330771
_publ_section_title
;
Structure prediction by ZEFSAII (Michael W. Deem and Ramdas Pophale) SiO2 
 PCOD9330771
Probable space group: I 2 2 2
;
_chemical_formula_sum "Si O2"
_cell_formula_units_Z 26
_cell_length_a 25.848352
_cell_length_b 6.262408
_cell_length_c 6.925047
_cell_angle_alpha 90.000000
_cell_angle_beta 90.000000
_cell_angle_gamma 90.000000
_cell_volume 1120.977623
_symmetry_space_group_name_H-M "I 2 2 2"
_symmetry_group_IT_number 23
_symmetry_cell_setting 'orthorhombic'
loop_
_space_group_symop_operation_xyz
x,y,z
-x,-y,z
x,-y,-z
-x,y,-z
1/2+x,1/2+y,1/2+z
1/2-x,1/2-y,1/2+z
1/2+x,1/2-y,1/2-z
1/2-x,1/2+y,1/2-z
loop_
_atom_site_type_symbol
_atom_site_label
_atom_site_fract_x
_atom_site_fract_y
_atom_site_fract_z
Si Si1 0.768680 0.000000 0.000000
Si Si2 0.082225 0.375325 0.699070
Si Si3 0.634957 0.500000 0.000000
Si Si4 0.817122 0.652119 0.226062
Si Si5 0.000000 0.500000 0.000000
O O1 0.731420 0.027715 0.184512
O O2 0.802056 0.787315 0.037487
O O3 0.067111 0.500000 0.500000
O O4 0.100085 0.139505 0.642516
O O5 0.132014 0.506389 0.776980
O O6 0.037494 0.371968 0.856649
O O7 0.669181 0.666611 0.883549
#
# Coordination Sequence:
#
# PCOD9330771 Si02
#       5
#     4   8   4   8   2
#     4  12  24  40  72 102 148 202 240 288 376 438
#     4  10  24  48  70 105 147 191 247 319 375 440
#     4  10  20  48  70  92 152 193 230 321 368 420
#     4  11  24  42  65 106 146 193 246 301 355 449
#     4  12  26  44  84 106 136 196 254 320 386 448
#
# _framework density 23.194040000000001
#
# number of rings (size 3 to 8) (size 9 to 14) (size 15 to 20)
#    0.000    1.231    4.615    2.308    4.308    0.000 
#    0.000   18.462    0.000    0.000    0.000    0.000 
#    0.000    0.000    0.000    0.000    0.000    0.000 
#
# Total GULP energy -72808.828521 kJ/mol
# GULP energy per Si atom -5600.679117 kJ/mol
# Density = 2.314125 g / cm^3
# Si number density = 23.194040 Si / 1000 Ang^3
#
#
#
# Elastic Constant Matrix: (Units=GPa)
#
#
# Indices 1 2 3 4 5 6 
#
# 1 144.2821 61.3368 66.9322 0.0000 0.0000 0.0000
# 2 61.3368 103.6628 35.7655 0.0000 0.0000 0.0000
# 3 66.9322 35.7655 115.9257 0.0000 0.0000 0.0000
# 4 0.0000 0.0000 0.0000 51.4438 0.0000 0.0000
# 5 0.0000 0.0000 0.0000 0.0000 59.2978 0.0000
# 6 0.0000 0.0000 0.0000 0.0000 0.0000 4.1746
#
#
#
# Elastic Compliance Matrix: (Units=1/GPa)
#
#
# Indices 1 2 3 4 5 6 
#
# 1 0.011394 -0.005005 -0.005034 0.000000 0.000000 0.000000
# 2 -0.005005 0.012994 -0.001119 0.000000 0.000000 0.000000
# 3 -0.005034 -0.001119 0.011878 0.000000 0.000000 0.000000
# 4 0.000000 0.000000 0.000000 0.019439 0.000000 0.000000
# 5 0.000000 0.000000 0.000000 0.000000 0.016864 0.000000
# 6 0.000000 0.000000 0.000000 0.000000 0.000000 0.239544
#
#
# Mechanical properties :
#
#
# Convention : Reuss Voigt Hill
#
# Bulk Modulus (GPa) = 71.68847 76.88215 74.28531
# Shear Modulus (GPa) = 14.74576 36.30565 25.52571
#
# Velocity S-wave (km/s) = 2.52416 3.96068 3.32102
# Velocity P-wave (km/s) = 6.28255 7.35767 6.84126
#
# Compressibility (1/GPa) = 0.01394924
#
# Stress axis : x y z
#
# Youngs Moduli (GPa) = 87.76580 76.95771 84.18698
#
# Poissons Ratio (x) = 0.38516 0.42384
# Poissons Ratio (y) = 0.43925 0.09423
# Poissons Ratio (z) = 0.44185 0.08614
#
# Static dielectric constant tensor:
#      x y z
#    x 1.836020 0.000000 0.000000 
#    y 0.000000 1.874450 0.000000 
#    z 0.000000 0.000000 1.946020 
# 
# From -- ./inp_files/475.got.cif
#   From: 2010.05.17/outbox.cif.g08.bks.cpg/sg23_1_cif.got.tgz:475.got - 2010.06.04 12:02:01.
