data_PCOD9330567
_publ_section_title
;
Structure prediction by ZEFSAII (Michael W. Deem and Ramdas Pophale) SiO2 
 PCOD9330567
Probable space group: I 2 2 2
;
_chemical_formula_sum "Si O2"
_cell_formula_units_Z 40
_cell_length_a 17.352672
_cell_length_b 9.200795
_cell_length_c 11.532962
_cell_angle_alpha 90.000000
_cell_angle_beta 90.000000
_cell_angle_gamma 90.000000
_cell_volume 1841.334004
_symmetry_space_group_name_H-M "I 2 2 2"
_symmetry_group_IT_number 23
_symmetry_cell_setting 'orthorhombic'
loop_
_space_group_symop_operation_xyz
x,y,z
-x,-y,z
x,-y,-z
-x,y,-z
1/2+x,1/2+y,1/2+z
1/2-x,1/2-y,1/2+z
1/2+x,1/2-y,1/2-z
1/2-x,1/2+y,1/2-z
loop_
_atom_site_type_symbol
_atom_site_label
_atom_site_fract_x
_atom_site_fract_y
_atom_site_fract_z
Si Si1 0.877227 0.115683 0.590252
Si Si2 0.283350 0.534578 0.310763
Si Si3 0.020046 0.648397 0.709055
Si Si4 0.376686 0.072601 0.321324
Si Si5 0.782565 0.241545 0.020626
O O1 0.842036 0.039636 0.704510
O O2 0.938508 0.232310 0.634335
O O3 0.803266 0.192984 0.529977
O O4 0.908427 0.000000 0.500000
O O5 0.197920 0.553019 0.259101
O O6 0.297240 0.669485 0.397000
O O7 0.287068 0.387793 0.384788
O O8 0.076475 0.578852 0.808008
O O9 0.000000 0.500000 0.639083
O O10 0.939044 0.686299 0.768561
O O11 0.343428 0.137692 0.439284
#
# Coordination Sequence:
#
# PCOD9330567 Si02
#       5
#     8   8   8   8   8
#     4  11  23  37  67 102 136 181 234 296 342 417
#     4  10  21  37  66  96 138 167 235 286 349 411
#     4   8  18  41  68  90 141 181 226 287 341 434
#     4   8  18  37  69  88 133 178 223 277 347 418
#     4  10  20  38  65  96 129 182 220 290 350 402
#
# _framework density 21.723379999999999
#
# number of rings (size 3 to 8) (size 9 to 14) (size 15 to 20)
#    1.200    1.200    2.000    0.000    5.600    0.000 
#    0.000    3.000   17.600    2.400    0.000    0.000 
#    0.000    0.000    0.000    0.000    0.000    0.000 
#
# Total GULP energy -111612.853115 kJ/mol
# GULP energy per Si atom -5580.642656 kJ/mol
# Density = 2.167394 g / cm^3
# Si number density = 21.723380 Si / 1000 Ang^3
#
#
#
# Elastic Constant Matrix: (Units=GPa)
#
#
# Indices 1 2 3 4 5 6 
#
# 1 114.9854 48.7714 27.8683 0.0000 0.0000 0.0000
# 2 48.7714 89.0482 27.9999 0.0000 0.0000 0.0000
# 3 27.8683 27.9999 67.7371 0.0000 0.0000 0.0000
# 4 0.0000 0.0000 0.0000 41.0109 0.0000 0.0000
# 5 0.0000 0.0000 0.0000 0.0000 -10.4203 0.0000
# 6 0.0000 0.0000 0.0000 0.0000 0.0000 26.6065
#
#
#
# Elastic Compliance Matrix: (Units=1/GPa)
#
#
# Indices 1 2 3 4 5 6 
#
# 1 0.011681 -0.005617 -0.002484 0.000000 0.000000 0.000000
# 2 -0.005617 0.015608 -0.004141 0.000000 0.000000 0.000000
# 3 -0.002484 -0.004141 0.017497 0.000000 0.000000 0.000000
# 4 0.000000 0.000000 0.000000 0.024384 0.000000 0.000000
# 5 0.000000 0.000000 0.000000 0.000000 -0.095966 0.000000
# 6 0.000000 0.000000 0.000000 0.000000 0.000000 0.037585
#
#
# Mechanical properties :
#
#
# Convention : Reuss Voigt Hill
#
# Bulk Modulus (GPa) = 49.25515 53.44997 51.35256
# Shear Modulus (GPa) = 118.93633 22.58149 70.75891
#
# Velocity S-wave (km/s) = 7.40738 3.22763 5.71344
# Velocity P-wave (km/s) = 9.79194 6.20873 8.19849
#
# Compressibility (1/GPa) = 0.02030244
#
# Stress axis : x y z
#
# Youngs Moduli (GPa) = 85.60824 64.06902 57.15352
#
# Poissons Ratio (x) = 0.35985 0.14198
# Poissons Ratio (y) = 0.48083 0.23668
# Poissons Ratio (z) = 0.21266 0.26531
#
# Static dielectric constant tensor:
#      x y z
#    x 1.782190 0.000000 0.000000 
#    y 0.000000 1.826950 0.000000 
#    z 0.000000 0.000000 1.820180 
# 
# From -- ./inp_files/17247.got.cif
#   From: 2010.05.17/outbox.cif.g08.bks.cpg/sg23_9_cif.got.tgz:17247.got - 2010.06.04 12:02:01.
