data_PCOD9330378
_publ_section_title
;
Structure prediction by ZEFSAII (Michael W. Deem and Ramdas Pophale) SiO2 
 PCOD9330378
Probable space group: I 2 2 2
;
_chemical_formula_sum "Si O2"
_cell_formula_units_Z 48
_cell_length_a 9.053831
_cell_length_b 33.333401
_cell_length_c 8.478245
_cell_angle_alpha 90.000000
_cell_angle_beta 90.000000
_cell_angle_gamma 90.000000
_cell_volume 2558.691774
_symmetry_space_group_name_H-M "I 2 2 2"
_symmetry_group_IT_number 23
_symmetry_cell_setting 'orthorhombic'
loop_
_space_group_symop_operation_xyz
x,y,z
-x,-y,z
x,-y,-z
-x,y,-z
1/2+x,1/2+y,1/2+z
1/2-x,1/2-y,1/2+z
1/2+x,1/2-y,1/2-z
1/2-x,1/2+y,1/2-z
loop_
_atom_site_type_symbol
_atom_site_label
_atom_site_fract_x
_atom_site_fract_y
_atom_site_fract_z
Si Si1 0.594220 0.912740 0.655410
Si Si2 0.337147 0.777602 0.566652
Si Si3 0.685610 0.881357 0.151776
Si Si4 0.326458 0.642443 0.020969
Si Si5 0.339108 0.206555 0.062448
Si Si6 0.327961 0.042684 0.949395
O O1 0.500000 0.925672 0.500000
O O2 0.475823 0.890201 0.769611
O O3 0.723237 0.883779 0.594228
O O4 0.665550 0.947392 0.763631
O O5 0.500000 0.785483 0.500000
O O6 0.226604 0.811605 0.501606
O O7 0.336437 0.783290 0.753204
O O8 0.282299 0.733580 0.521838
O O9 0.787020 0.872197 0.302252
O O10 0.682169 0.841143 0.048280
O O11 0.732483 0.919551 0.048417
O O12 0.500000 0.638399 0.000000
O O13 0.500000 0.217526 0.000000
O O14 0.500000 0.041067 0.000000
O O15 0.261470 0.000000 0.000000
#
# Coordination Sequence:
#
# PCOD9330378 Si02
#       6
#     8   8   8   8   8   8
#     4   9  17  33  58  83 111 146 181 225 279 330
#     4  11  23  37  55  81 111 145 185 232 281 327
#     4   9  19  36  56  81 109 143 181 226 280 329
#     4  10  20  36  56  79 109 146 188 228 271 328
#     4  11  21  36  55  78 110 147 185 227 274 331
#     4   9  17  32  56  86 114 140 181 232 278 328
#
# _framework density 18.759587
#
# number of rings (size 3 to 8) (size 9 to 14) (size 15 to 20)
#    0.000    2.167    0.000    5.500    0.000    2.667 
#    0.000   15.000    0.000    3.000    0.000    0.000 
#    0.000    0.000    0.000    0.000    0.000    0.000 
#
# Total GULP energy -133906.911704 kJ/mol
# GULP energy per Si atom -5579.454654 kJ/mol
# Density = 1.871689 g / cm^3
# Si number density = 18.759587 Si / 1000 Ang^3
#
#
#
# Elastic Constant Matrix: (Units=GPa)
#
#
# Indices 1 2 3 4 5 6 
#
# 1 90.0755 31.6118 21.5659 0.0007 0.0002 0.0002
# 2 31.6118 132.8461 65.5414 0.0010 0.0002 0.0007
# 3 21.5659 65.5414 72.1076 -0.0007 -0.0001 0.0009
# 4 0.0007 0.0010 -0.0007 28.3719 0.0003 0.0007
# 5 0.0002 0.0002 -0.0001 0.0003 17.4481 0.0002
# 6 0.0002 0.0007 0.0009 0.0007 0.0002 10.9604
#
#
#
# Elastic Compliance Matrix: (Units=1/GPa)
#
#
# Indices 1 2 3 4 5 6 
#
# 1 0.012246 -0.002007 -0.001838 0.000000 0.000000 0.000000
# 2 -0.002007 0.013977 -0.012104 -0.000001 0.000000 0.000000
# 3 -0.001838 -0.012104 0.025419 0.000001 0.000000 -0.000001
# 4 0.000000 -0.000001 0.000001 0.035246 -0.000001 -0.000002
# 5 0.000000 0.000000 0.000000 -0.000001 0.057313 -0.000001
# 6 0.000000 0.000000 -0.000001 -0.000002 -0.000001 0.091238
#
#
# Mechanical properties :
#
#
# Convention : Reuss Voigt Hill
#
# Bulk Modulus (GPa) = 50.64745 59.16305 54.90525
# Shear Modulus (GPa) = 18.25360 23.11007 20.68183
#
# Velocity S-wave (km/s) = 3.12272 3.51366 3.32394
# Velocity P-wave (km/s) = 6.32919 6.93304 6.63799
#
# Compressibility (1/GPa) = 0.01974433
#
# Stress axis : x y z
#
# Youngs Moduli (GPa) = 81.65708 71.54821 39.34015
#
# Poissons Ratio (x) = 0.14361 0.07231
# Poissons Ratio (y) = 0.16390 0.47616
# Poissons Ratio (z) = 0.15010 0.86599
#
# Static dielectric constant tensor:
#      x y z
#    x 1.629780 0.000000 0.000000 
#    y 0.000000 1.687060 0.000000 
#    z 0.000000 0.000000 1.670340 
# 
# From -- ./inp_files/7337.got.cif
#   From: 2010.05.17/outbox.cif.g08.bks.cpg/sg23_4_cif.got.tgz:7337.got - 2010.06.04 12:02:01.
