data_PCOD9330019
_publ_section_title
;
Structure prediction by ZEFSAII (Michael W. Deem and Ramdas Pophale) SiO2 
 PCOD9330019
Probable space group: I 2 2 2
;
_chemical_formula_sum "Si O2"
_cell_formula_units_Z 60
_cell_length_a 10.981701
_cell_length_b 15.629317
_cell_length_c 19.036196
_cell_angle_alpha 90.000000
_cell_angle_beta 90.000000
_cell_angle_gamma 90.000000
_cell_volume 3267.305791
_symmetry_space_group_name_H-M "I 2 2 2"
_symmetry_group_IT_number 23
_symmetry_cell_setting 'orthorhombic'
loop_
_space_group_symop_operation_xyz
x,y,z
-x,-y,z
x,-y,-z
-x,y,-z
1/2+x,1/2+y,1/2+z
1/2-x,1/2-y,1/2+z
1/2+x,1/2-y,1/2-z
1/2-x,1/2+y,1/2-z
loop_
_atom_site_type_symbol
_atom_site_label
_atom_site_fract_x
_atom_site_fract_y
_atom_site_fract_z
Si Si1 0.614596 0.811287 0.693631
Si Si2 0.860515 0.009223 0.206309
Si Si3 0.000000 0.763389 0.000000
Si Si4 0.364105 0.171923 0.382263
Si Si5 0.823490 0.848372 0.108135
Si Si6 0.722036 0.830368 0.842434
Si Si7 0.643765 0.995977 0.682075
Si Si8 0.356060 0.098413 0.992763
O O1 0.475230 0.805358 0.670441
O O2 0.682187 0.726786 0.666316
O O3 0.632083 0.829095 0.775956
O O4 0.660925 0.898612 0.656444
O O5 0.845871 0.939142 0.144876
O O6 0.749145 0.989731 0.260078
O O7 0.832681 0.106091 0.180327
O O8 0.000000 0.000000 0.232991
O O9 0.905676 0.703451 0.958669
O O10 0.065802 0.821941 0.942852
O O11 0.257223 0.232916 0.357088
O O12 0.343379 0.071391 0.374246
O O13 0.708599 0.852118 0.056324
O O14 0.676261 0.868216 0.915635
O O15 0.500000 0.000000 0.706953
O O16 0.500000 0.101957 0.000000
O O17 0.315320 0.000000 0.000000
#
# Coordination Sequence:
#
# PCOD9330019 Si02
#       8
#     8   8   4   8   8   8   8   8
#     4   9  21  36  58  86 115 149 205 245 297 354
#     4  11  22  34  57  90 120 156 195 240 305 363
#     4  10  20  34  60  82 120 146 204 244 298 364
#     4  10  19  36  58  85 113 154 199 254 297 347
#     4  11  21  38  58  86 119 159 186 249 301 357
#     4  11  21  38  56  85 123 156 196 247 299 362
#     4   9  20  39  59  84 121 154 202 253 301 346
#     4  11  24  40  58  88 122 166 204 236 300 372
#
# _framework density 18.363754
#
# number of rings (size 3 to 8) (size 9 to 14) (size 15 to 20)
#    0.000    1.733    2.667    2.400    0.000    4.267 
#    2.400    9.667    0.000    0.000    0.000    0.933 
#    0.000    0.000    0.000    0.000    0.000    0.000 
#
# Total GULP energy -167178.498297 kJ/mol
# GULP energy per Si atom -5572.616610 kJ/mol
# Density = 1.832196 g / cm^3
# Si number density = 18.363754 Si / 1000 Ang^3
#
#
#
# Elastic Constant Matrix: (Units=GPa)
#
#
# Indices 1 2 3 4 5 6 
#
# 1 43.4933 1.0724 8.5704 0.0000 0.0000 0.0000
# 2 1.0724 75.5332 12.4272 0.0000 0.0000 0.0000
# 3 8.5704 12.4272 52.1049 0.0000 0.0000 0.0000
# 4 0.0000 0.0000 0.0000 20.6938 0.0000 0.0000
# 5 0.0000 0.0000 0.0000 0.0000 27.9919 0.0000
# 6 0.0000 0.0000 0.0000 0.0000 0.0000 21.8296
#
#
#
# Elastic Compliance Matrix: (Units=1/GPa)
#
#
# Indices 1 2 3 4 5 6 
#
# 1 0.023770 0.000318 -0.003986 0.000000 0.000000 0.000000
# 2 0.000318 0.013784 -0.003340 0.000000 0.000000 0.000000
# 3 -0.003986 -0.003340 0.020644 0.000000 0.000000 0.000000
# 4 0.000000 0.000000 0.000000 0.048324 0.000000 0.000000
# 5 0.000000 0.000000 0.000000 0.000000 0.035725 0.000000
# 6 0.000000 0.000000 0.000000 0.000000 0.000000 0.045809
#
#
# Mechanical properties :
#
#
# Convention : Reuss Voigt Hill
#
# Bulk Modulus (GPa) = 22.63292 23.91904 23.27598
# Shear Modulus (GPa) = 23.06296 24.04049 23.55173
#
# Velocity S-wave (km/s) = 3.54771 3.62211 3.58510
# Velocity P-wave (km/s) = 5.39751 5.52687 5.46258
#
# Compressibility (1/GPa) = 0.04418343
#
# Stress axis : x y z
#
# Youngs Moduli (GPa) = 42.07064 72.54684 48.43978
#
# Poissons Ratio (x) = -0.02309 0.19306
# Poissons Ratio (y) = -0.01339 0.16179
# Poissons Ratio (z) = 0.16768 0.24230
#
# Static dielectric constant tensor:
#      x y z
#    x 1.662240 0.000000 0.000000 
#    y 0.000000 1.655650 0.000000 
#    z 0.000000 0.000000 1.645400 
# 
# From -- ./inp_files/26811.got.cif
#   From: 2010.05.17/outbox.cif.g08.bks.cpg/sg23_14_cif.got.tgz:26811.got - 2010.06.04 12:02:01.
