data_PCOD9330990
_publ_section_title
;
Structure prediction by ZEFSAII (Michael W. Deem and Ramdas Pophale) SiO2 
 PCOD9330990
Probable space group: I 2 2 2
;
_chemical_formula_sum "Si O2"
_cell_formula_units_Z 30
_cell_length_a 10.033793
_cell_length_b 14.274474
_cell_length_c 8.819974
_cell_angle_alpha 90.000000
_cell_angle_beta 90.000000
_cell_angle_gamma 90.000000
_cell_volume 1263.259451
_symmetry_space_group_name_H-M "I 2 2 2"
_symmetry_group_IT_number 23
_symmetry_cell_setting 'orthorhombic'
loop_
_space_group_symop_operation_xyz
x,y,z
-x,-y,z
x,-y,-z
-x,y,-z
1/2+x,1/2+y,1/2+z
1/2-x,1/2-y,1/2+z
1/2+x,1/2-y,1/2-z
1/2-x,1/2+y,1/2-z
loop_
_atom_site_type_symbol
_atom_site_label
_atom_site_fract_x
_atom_site_fract_y
_atom_site_fract_z
Si Si1 0.611094 0.688382 0.665989
Si Si2 0.385252 0.580516 0.794476
Si Si3 0.691328 0.500000 0.500000
Si Si4 0.297522 0.149377 0.443362
Si Si5 0.500000 0.000000 0.500000
O O1 0.467257 0.673316 0.743031
O O2 0.627982 0.593726 0.569025
O O3 0.636992 0.773691 0.553758
O O4 0.721762 0.688885 0.797805
O O5 0.500000 0.500000 0.806905
O O6 0.276794 0.547410 0.666762
O O7 0.313645 0.601278 0.950467
O O8 0.406057 0.069934 0.405265
#
# Coordination Sequence:
#
# PCOD9330990 Si02
#       5
#     8   8   4   8   2
#     4  11  24  42  72 102 138 189 249 295 357 433
#     4  10  21  43  70 101 133 187 241 291 350 438
#     4  10  21  38  72  99 130 175 236 300 339 424
#     4  12  27  43  71 101 147 190 239 304 363 434
#     4  12  28  44  66 108 148 188 220 312 376 410
#
# _framework density 23.748092
#
# number of rings (size 3 to 8) (size 9 to 14) (size 15 to 20)
#    0.000    1.067    0.000    9.200    7.467    3.200 
#    0.000    0.000    0.000    3.200    0.000    0.000 
#    0.000    0.000    0.000    0.000    0.000    0.000 
#
# Total GULP energy -83603.240052 kJ/mol
# GULP energy per Si atom -5573.549337 kJ/mol
# Density = 2.369404 g / cm^3
# Si number density = 23.748092 Si / 1000 Ang^3
#
#
#
# Elastic Constant Matrix: (Units=GPa)
#
#
# Indices 1 2 3 4 5 6 
#
# 1 94.6373 58.3625 62.9630 0.0000 0.0000 0.0000
# 2 58.3625 138.6315 53.9087 0.0000 0.0000 -0.0001
# 3 62.9630 53.9087 146.5277 0.0000 0.0000 -0.0004
# 4 0.0000 0.0000 0.0000 36.6287 0.0000 -0.0002
# 5 0.0000 0.0000 0.0000 0.0000 21.5848 0.0001
# 6 0.0000 -0.0001 -0.0004 -0.0002 0.0001-1138.5106
#
#
#
# Elastic Compliance Matrix: (Units=1/GPa)
#
#
# Indices 1 2 3 4 5 6 
#
# 1 0.017497 -0.005184 -0.005611 0.000000 0.000000 0.000000
# 2 -0.005184 0.009954 -0.001434 0.000000 0.000000 0.000000
# 3 -0.005611 -0.001434 0.009763 0.000000 0.000000 0.000000
# 4 0.000000 0.000000 0.000000 0.027301 0.000000 0.000000
# 5 0.000000 0.000000 0.000000 0.000000 0.046329 0.000000
# 6 0.000000 0.000000 0.000000 0.000000 0.000000 -0.000878
#
#
# Mechanical properties :
#
#
# Convention : Reuss Voigt Hill
#
# Bulk Modulus (GPa) = 78.40248 81.14055 79.77151
# Shear Modulus (GPa) = 36.05527 -202.42192 -83.18332
#
# Velocity S-wave (km/s) = 3.90069 -9.24241 -5.92481
# Velocity P-wave (km/s) = 7.30568 8.92496 3.62504
#
# Compressibility (1/GPa) = 0.01275470
#
# Stress axis : x y z
#
# Youngs Moduli (GPa) = 57.15352 100.46631 102.42247
#
# Poissons Ratio (x) = 0.52082 0.57470
# Poissons Ratio (y) = 0.29628 0.14692
# Poissons Ratio (z) = 0.32069 0.14411
#
# Static dielectric constant tensor:
#      x y z
#    x 2.009680 0.000000 0.000000 
#    y 0.000000 1.960440 0.000000 
#    z 0.000000 0.000000 2.111740 
# 
# From -- ./inp_files/7851.got.cif
#   From: 2010.05.17/outbox.cif.g08.bks.cpg/sg23_4_cif.got.tgz:7851.got - 2010.06.04 12:02:01.
