data_PCOD9330136
_publ_section_title
;
Structure prediction by ZEFSAII (Michael W. Deem and Ramdas Pophale) SiO2 
 PCOD9330136
Probable space group: I 2 2 2
;
_chemical_formula_sum "Si O2"
_cell_formula_units_Z 48
_cell_length_a 27.922344
_cell_length_b 10.261440
_cell_length_c 8.901906
_cell_angle_alpha 90.000000
_cell_angle_beta 90.000000
_cell_angle_gamma 90.000000
_cell_volume 2550.604886
_symmetry_space_group_name_H-M "I 2 2 2"
_symmetry_group_IT_number 23
_symmetry_cell_setting 'orthorhombic'
loop_
_space_group_symop_operation_xyz
x,y,z
-x,-y,z
x,-y,-z
-x,y,-z
1/2+x,1/2+y,1/2+z
1/2-x,1/2-y,1/2+z
1/2+x,1/2-y,1/2-z
1/2-x,1/2+y,1/2-z
loop_
_atom_site_type_symbol
_atom_site_label
_atom_site_fract_x
_atom_site_fract_y
_atom_site_fract_z
Si Si1 0.527790 0.878346 0.843452
Si Si2 0.109104 0.285628 0.898324
Si Si3 0.621648 0.076209 0.290990
Si Si4 0.270250 0.878672 0.382359
Si Si5 0.513322 0.642498 0.325820
Si Si6 0.708965 0.362300 0.584071
O O1 0.584873 0.898064 0.844693
O O2 0.518089 0.746402 0.759121
O O3 0.500000 0.000000 0.763958
O O4 0.500000 0.868606 0.000000
O O5 0.119847 0.420472 0.812723
O O6 0.066949 0.200472 0.826174
O O7 0.155609 0.195124 0.902817
O O8 0.099550 0.344160 0.065938
O O9 0.677339 0.116099 0.300987
O O10 0.265287 0.747849 0.481694
O O11 0.232272 0.879535 0.247942
O O12 0.268092 0.000000 0.500000
O O13 0.500000 0.500000 0.265365
O O14 0.500000 0.640545 0.500000
O O15 0.709505 0.500000 0.500000
#
# Coordination Sequence:
#
# PCOD9330136 Si02
#       6
#     8   8   8   8   8   8
#     4  11  23  39  59  93 126 159 205 264 319 379
#     4  10  20  38  64  92 119 165 220 260 312 389
#     4  10  19  39  67  87 122 168 215 265 312 386
#     4  11  22  44  65  98 131 171 224 274 337 399
#     4  11  23  36  64  91 122 159 209 257 311 383
#     4  11  24  39  67  93 133 169 219 280 330 397
#
# _framework density 18.819064000000001
#
# number of rings (size 3 to 8) (size 9 to 14) (size 15 to 20)
#    0.000    1.333    6.667    1.000    2.333    0.667 
#    6.000    0.000    0.000    0.000    0.000    0.000 
#    0.000    0.000    0.000    0.000    0.000    0.000 
#
# Total GULP energy -133725.493737 kJ/mol
# GULP energy per Si atom -5571.895572 kJ/mol
# Density = 1.877623 g / cm^3
# Si number density = 18.819064 Si / 1000 Ang^3
#
#
#
# Elastic Constant Matrix: (Units=GPa)
#
#
# Indices 1 2 3 4 5 6 
#
# 1 67.5332 47.1698 35.8931 0.0000 0.0000 0.0000
# 2 47.1698 174.7771 47.4026 0.0000 0.0000 0.0000
# 3 35.8931 47.4026 64.0374 0.0000 0.0000 0.0000
# 4 0.0000 0.0000 0.0000 15.8776 0.0000 0.0000
# 5 0.0000 0.0000 0.0000 0.0000 33.9165 0.0000
# 6 0.0000 0.0000 0.0000 0.0000 0.0000 21.4033
#
#
#
# Elastic Compliance Matrix: (Units=1/GPa)
#
#
# Indices 1 2 3 4 5 6 
#
# 1 0.022534 -0.003323 -0.010171 0.000000 0.000000 0.000000
# 2 -0.003323 0.007649 -0.003799 0.000000 0.000000 0.000000
# 3 -0.010171 -0.003799 0.024129 0.000000 0.000000 0.000000
# 4 0.000000 0.000000 0.000000 0.062982 0.000000 0.000000
# 5 0.000000 0.000000 0.000000 0.000000 0.029484 0.000000
# 6 0.000000 0.000000 0.000000 0.000000 0.000000 0.046722
#
#
# Mechanical properties :
#
#
# Convention : Reuss Voigt Hill
#
# Bulk Modulus (GPa) = 50.69486 63.03098 56.86292
# Shear Modulus (GPa) = 21.30734 25.96497 23.63616
#
# Velocity S-wave (km/s) = 3.36850 3.71848 3.54781
# Velocity P-wave (km/s) = 6.49042 7.21124 6.86031
#
# Compressibility (1/GPa) = 0.01972587
#
# Stress axis : x y z
#
# Youngs Moduli (GPa) = 44.37693 130.73784 41.44423
#
# Poissons Ratio (x) = 0.43447 0.42151
# Poissons Ratio (y) = 0.14748 0.15746
# Poissons Ratio (z) = 0.45134 0.49671
#
# Static dielectric constant tensor:
#      x y z
#    x 1.678140 0.000000 0.000000 
#    y 0.000000 1.589960 0.000000 
#    z 0.000000 0.000000 1.667180 
# 
# From -- ./inp_files/13344.got.cif
#   From: 2010.05.17/outbox.cif.g08.bks.cpg/sg23_7_cif.got.tgz:13344.got - 2010.06.04 12:02:01.
