data_PCOD9330088
_publ_section_title
;
Structure prediction by ZEFSAII (Michael W. Deem and Ramdas Pophale) SiO2 
 PCOD9330088
Probable space group: I 2 2 2
;
_chemical_formula_sum "Si O2"
_cell_formula_units_Z 32
_cell_length_a 5.466450
_cell_length_b 32.416246
_cell_length_c 7.402913
_cell_angle_alpha 90.000000
_cell_angle_beta 90.000000
_cell_angle_gamma 90.000000
_cell_volume 1311.809420
_symmetry_space_group_name_H-M "I 2 2 2"
_symmetry_group_IT_number 23
_symmetry_cell_setting 'orthorhombic'
loop_
_space_group_symop_operation_xyz
x,y,z
-x,-y,z
x,-y,-z
-x,y,-z
1/2+x,1/2+y,1/2+z
1/2-x,1/2-y,1/2+z
1/2+x,1/2-y,1/2-z
1/2-x,1/2+y,1/2-z
loop_
_atom_site_type_symbol
_atom_site_label
_atom_site_fract_x
_atom_site_fract_y
_atom_site_fract_z
Si Si1 0.249061 0.982997 0.706395
Si Si2 0.146131 0.740339 0.665624
Si Si3 0.251483 0.613303 0.274141
Si Si4 0.252487 0.854359 0.179830
O O1 0.242404 0.933877 0.715326
O O2 0.500000 0.000000 0.788702
O O3 0.249426 0.000000 0.500000
O O4 0.000000 0.000000 0.790603
O O5 0.408397 0.761428 0.701851
O O6 0.223612 0.693325 0.625501
O O7 0.000000 0.760771 0.500000
O O8 0.250034 0.619302 0.493364
O O9 0.499984 0.636386 0.220176
O O10 0.995420 0.632851 0.215274
#
# Coordination Sequence:
#
# PCOD9330088 Si02
#       4
#     8   8   8   8
#     4  10  21  38  61  90 128 171 213 277 346 409
#     4  12  25  44  76 105 149 190 240 309 368 431
#     4  10  19  37  67  89 125 171 227 274 340 401
#     4  10  21  39  65  95 126 176 228 280 336 422
#
# _framework density 24.393784
#
# number of rings (size 3 to 8) (size 9 to 14) (size 15 to 20)
#    0.000    1.500    2.500    3.750    3.500    0.000 
#    0.000   15.000   55.000    0.000    0.000    0.000 
#    0.000    0.000    0.000    0.000    0.000    0.000 
#
# Total GULP energy -89329.779092 kJ/mol
# GULP energy per Si atom -5583.111193 kJ/mol
# Density = 2.433826 g / cm^3
# Si number density = 24.393784 Si / 1000 Ang^3
#
#
#
# Elastic Constant Matrix: (Units=GPa)
#
#
# Indices 1 2 3 4 5 6 
#
# 1 271.1801 30.2248 14.8543 -0.0001 0.0000 0.0001
# 2 30.2248 107.1325 12.3650 0.0014 -0.0001 0.0006
# 3 14.8543 12.3650 90.7677 0.0014 0.0000 0.0002
# 4 -0.0001 0.0014 0.0014 56.4212 0.0000 -0.0001
# 5 0.0000 -0.0001 0.0000 0.0000 -1.5836 -0.0001
# 6 0.0001 0.0006 0.0002 -0.0001 -0.0001 56.0542
#
#
#
# Elastic Compliance Matrix: (Units=1/GPa)
#
#
# Indices 1 2 3 4 5 6 
#
# 1 0.003828 -0.001024 -0.000487 0.000000 0.000000 0.000000
# 2 -0.001024 0.009757 -0.001162 0.000000 -0.000001 0.000000
# 3 -0.000487 -0.001162 0.011255 0.000000 0.000000 0.000000
# 4 0.000000 0.000000 0.000000 0.017724 0.000000 0.000000
# 5 0.000000 -0.000001 0.000000 0.000000 -0.631474 -0.000001
# 6 0.000000 0.000000 0.000000 0.000000 -0.000001 0.017840
#
#
# Mechanical properties :
#
#
# Convention : Reuss Voigt Hill
#
# Bulk Modulus (GPa) = 51.29374 64.88538 58.08956
# Shear Modulus (GPa) = -8.94093 49.62077 20.33992
#
# Velocity S-wave (km/s) = -1.91656 4.51506 2.89072
# Velocity P-wave (km/s) = 4.02187 7.33743 5.91664
#
# Compressibility (1/GPa) = 0.01949556
#
# Stress axis : x y z
#
# Youngs Moduli (GPa) = 261.20690 102.48876 88.84871
#
# Poissons Ratio (x) = 0.10494 0.04327
# Poissons Ratio (y) = 0.26744 0.10321
# Poissons Ratio (z) = 0.12722 0.11905
#
# Static dielectric constant tensor:
#      x y z
#    x 1.939620 0.000000 0.000010 
#    y 0.000000 1.858340 0.000000 
#    z 0.000010 0.000000 1.988660 
# 
# From -- ./inp_files/710.got.cif
#   From: 2010.05.17/outbox.cif.g08.bks.cpg/sg23_1_cif.got.tgz:710.got - 2010.06.04 12:02:01.
