data_PCOD9330025
_publ_section_title
;
Structure prediction by ZEFSAII (Michael W. Deem and Ramdas Pophale) SiO2 
 PCOD9330025
Probable space group: I 2 2 2
;
_chemical_formula_sum "Si O2"
_cell_formula_units_Z 46
_cell_length_a 16.101627
_cell_length_b 12.475813
_cell_length_c 11.925380
_cell_angle_alpha 90.000000
_cell_angle_beta 90.000000
_cell_angle_gamma 90.000000
_cell_volume 2395.580918
_symmetry_space_group_name_H-M "I 2 2 2"
_symmetry_group_IT_number 23
_symmetry_cell_setting 'orthorhombic'
loop_
_space_group_symop_operation_xyz
x,y,z
-x,-y,z
x,-y,-z
-x,y,-z
1/2+x,1/2+y,1/2+z
1/2-x,1/2-y,1/2+z
1/2+x,1/2-y,1/2-z
1/2-x,1/2+y,1/2-z
loop_
_atom_site_type_symbol
_atom_site_label
_atom_site_fract_x
_atom_site_fract_y
_atom_site_fract_z
Si Si1 0.291283 0.118774 0.128617
Si Si2 0.333446 0.119697 0.883837
Si Si3 0.500000 0.500000 0.500000
Si Si4 0.701032 0.000000 0.500000
Si Si5 0.432605 0.092424 0.672071
Si Si6 0.296669 0.799179 0.635758
Si Si7 0.609626 0.305172 0.437350
O O1 0.329089 0.157572 0.245594
O O2 0.201278 0.172876 0.113174
O O3 0.282125 0.990595 0.129728
O O4 0.345156 0.139030 0.016462
O O5 0.411316 0.103895 0.803086
O O6 0.276197 0.215488 0.841847
O O7 0.560064 0.416383 0.436600
O O8 0.645556 0.949054 0.599005
O O9 0.740525 0.897900 0.437934
O O10 0.442578 0.212153 0.623824
O O11 0.500000 0.000000 0.653189
O O12 0.366360 0.740438 0.560870
#
# Coordination Sequence:
#
# PCOD9330025 Si02
#       7
#     8   8   2   4   8   8   8
#     4  10  19  37  59  86 116 151 195 248 296 341
#     4  10  20  34  56  83 118 154 191 243 293 349
#     4  12  24  40  54  88 126 156 194 234 296 354
#     4  10  21  34  58  86 112 155 188 244 298 335
#     4  11  22  36  56  86 122 156 192 239 292 361
#     4  10  19  36  59  86 117 145 196 247 296 343
#     4  10  23  37  59  90 120 157 194 244 296 349
#
# _framework density 19.202023000000001
#
# number of rings (size 3 to 8) (size 9 to 14) (size 15 to 20)
#    0.000    1.739    3.478    2.348    4.870    0.000 
#    0.000    1.739    0.000    0.000    0.000    1.217 
#    0.000    0.000    0.000    0.000    0.000    0.000 
#
# Total GULP energy -128153.695311 kJ/mol
# GULP energy per Si atom -5571.899796 kJ/mol
# Density = 1.915832 g / cm^3
# Si number density = 19.202023 Si / 1000 Ang^3
#
#
#
# Elastic Constant Matrix: (Units=GPa)
#
#
# Indices 1 2 3 4 5 6 
#
# 1 34.5073 22.8700 17.6013 0.0000 0.0000 0.0000
# 2 22.8700 141.0495 44.2757 0.0000 0.0000 0.0000
# 3 17.6013 44.2757 136.4760 0.0000 0.0000 0.0000
# 4 0.0000 0.0000 0.0000 30.4098 0.0000 0.0000
# 5 0.0000 0.0000 0.0000 0.0000 -2.9162 0.0000
# 6 0.0000 0.0000 0.0000 0.0000 0.0000 25.8524
#
#
#
# Elastic Compliance Matrix: (Units=1/GPa)
#
#
# Indices 1 2 3 4 5 6 
#
# 1 0.033430 -0.004528 -0.002842 0.000000 0.000000 0.000000
# 2 -0.004528 0.008507 -0.002176 0.000000 0.000000 0.000000
# 3 -0.002842 -0.002176 0.008400 0.000000 0.000000 0.000000
# 4 0.000000 0.000000 0.000000 0.032884 0.000000 0.000000
# 5 0.000000 0.000000 0.000000 0.000000 -0.342908 0.000000
# 6 0.000000 0.000000 0.000000 0.000000 0.000000 0.038681
#
#
# Mechanical properties :
#
#
# Convention : Reuss Voigt Hill
#
# Bulk Modulus (GPa) = 32.00605 53.50297 42.75451
# Shear Modulus (GPa) = -26.10987 25.82158 -0.14415
#
# Velocity S-wave (km/s) = -3.69147 3.67104 -0.27428
# Velocity P-wave (km/s) = 1.21039 6.77439 4.71314
#
# Compressibility (1/GPa) = 0.03124409
#
# Stress axis : x y z
#
# Youngs Moduli (GPa) = 29.91289 117.55139 119.05083
#
# Poissons Ratio (x) = 0.53230 0.33840
# Poissons Ratio (y) = 0.13545 0.25903
# Poissons Ratio (z) = 0.08503 0.25577
#
# Static dielectric constant tensor:
#      x y z
#    x 1.682240 0.000000 0.000000 
#    y 0.000000 1.730190 0.000000 
#    z 0.000000 0.000000 1.716810 
# 
# From -- ./inp_files/15794.got.cif
#   From: 2010.05.17/outbox.cif.g08.bks.cpg/sg23_8_cif.got.tgz:15794.got - 2010.06.04 12:02:01.
