data_PCOD9330388
_publ_section_title
;
Structure prediction by ZEFSAII (Michael W. Deem and Ramdas Pophale) SiO2 
 PCOD9330388
Probable space group: I 2 2 2
;
_chemical_formula_sum "Si O2"
_cell_formula_units_Z 54
_cell_length_a 14.451824
_cell_length_b 12.391478
_cell_length_c 13.550379
_cell_angle_alpha 90.000000
_cell_angle_beta 90.000000
_cell_angle_gamma 90.000000
_cell_volume 2426.594543
_symmetry_space_group_name_H-M "I 2 2 2"
_symmetry_group_IT_number 23
_symmetry_cell_setting 'orthorhombic'
loop_
_space_group_symop_operation_xyz
x,y,z
-x,-y,z
x,-y,-z
-x,y,-z
1/2+x,1/2+y,1/2+z
1/2-x,1/2-y,1/2+z
1/2+x,1/2-y,1/2-z
1/2-x,1/2+y,1/2-z
loop_
_atom_site_type_symbol
_atom_site_label
_atom_site_fract_x
_atom_site_fract_y
_atom_site_fract_z
Si Si1 0.500000 0.000000 0.000000
Si Si2 0.268471 0.306793 0.881397
Si Si3 0.620320 0.341560 0.714231
Si Si4 0.880188 0.608933 0.339441
Si Si5 0.500000 0.000000 0.671199
Si Si6 0.258621 0.221750 0.605316
Si Si7 0.477841 0.216132 0.606249
Si Si8 0.286455 0.452621 0.697550
O O1 0.438142 0.077147 0.933993
O O2 0.179362 0.230953 0.862939
O O3 0.352819 0.233131 0.841422
O O4 0.266150 0.409078 0.808630
O O5 0.275779 0.316957 0.998467
O O6 0.682064 0.318781 0.814059
O O7 0.519313 0.289391 0.695140
O O8 0.623548 0.470371 0.697181
O O9 0.788174 0.538848 0.337787
O O10 0.934449 0.561897 0.247121
O O11 0.532751 0.101012 0.607717
O O12 0.367681 0.191228 0.611241
O O13 0.270416 0.349970 0.627074
O O14 0.500000 0.268627 0.500000
#
# Coordination Sequence:
#
# PCOD9330388 Si02
#       8
#     2   8   8   8   4   8   8   8
#     4  10  20  36  58 100 122 172 234 280 342 398
#     4  10  20  40  61  94 129 172 235 267 344 412
#     4  10  23  42  62  95 139 181 227 284 346 407
#     4  10  21  36  63  90 129 171 218 278 340 405
#     4  11  21  37  61  94 132 168 213 289 352 390
#     4  11  23  40  68  96 135 182 224 292 346 407
#     4  12  24  42  63 101 134 172 233 285 337 409
#     4  10  21  40  62  89 132 181 220 281 340 417
#
# _framework density 22.253409000000001
#
# number of rings (size 3 to 8) (size 9 to 14) (size 15 to 20)
#    0.000    1.481    1.481    5.556    0.000    4.148 
#    2.667    0.741    0.000    0.000    0.000    4.148 
#    0.000    1.481    0.000    0.000    0.000    0.000 
#
# Total GULP energy -150402.729765 kJ/mol
# GULP energy per Si atom -5570.471473 kJ/mol
# Density = 2.220276 g / cm^3
# Si number density = 22.253409 Si / 1000 Ang^3
#
#
#
# Elastic Constant Matrix: (Units=GPa)
#
#
# Indices 1 2 3 4 5 6 
#
# 1 80.3856 21.3623 43.8044 0.0000 0.0000 0.0000
# 2 21.3623 95.7966 16.6699 0.0000 0.0000 0.0000
# 3 43.8044 16.6699 101.9754 0.0000 0.0000 0.0000
# 4 0.0000 0.0000 0.0000 15.3916 0.0000 0.0000
# 5 0.0000 0.0000 0.0000 0.0000 25.4104 0.0000
# 6 0.0000 0.0000 0.0000 0.0000 0.0000 26.0404
#
#
#
# Elastic Compliance Matrix: (Units=1/GPa)
#
#
# Indices 1 2 3 4 5 6 
#
# 1 0.016834 -0.002569 -0.006811 0.000000 0.000000 0.000000
# 2 -0.002569 0.011136 -0.000717 0.000000 0.000000 0.000000
# 3 -0.006811 -0.000717 0.012849 0.000000 0.000000 0.000000
# 4 0.000000 0.000000 0.000000 0.064970 0.000000 0.000000
# 5 0.000000 0.000000 0.000000 0.000000 0.039354 0.000000
# 6 0.000000 0.000000 0.000000 0.000000 0.000000 0.038402
#
#
# Mechanical properties :
#
#
# Convention : Reuss Voigt Hill
#
# Bulk Modulus (GPa) = 48.48305 49.09230 48.78768
# Shear Modulus (GPa) = 23.73987 26.45655 25.09821
#
# Velocity S-wave (km/s) = 3.26973 3.45175 3.36197
# Velocity P-wave (km/s) = 6.00741 6.16397 6.08619
#
# Compressibility (1/GPa) = 0.02062576
#
# Stress axis : x y z
#
# Youngs Moduli (GPa) = 59.40207 89.79585 77.82456
#
# Poissons Ratio (x) = 0.23066 0.53010
# Poissons Ratio (y) = 0.15259 0.05580
# Poissons Ratio (z) = 0.40461 0.06439
#
# Static dielectric constant tensor:
#      x y z
#    x 1.932260 0.000000 0.000000 
#    y 0.000000 1.878920 0.000000 
#    z 0.000000 0.000000 1.953340 
# 
# From -- ./inp_files/21619.got.cif
#   From: 2010.05.17/outbox.cif.g08.bks.cpg/sg23_11_cif.got.tgz:21619.got - 2010.06.04 12:02:01.
