data_PCOD9330605
_publ_section_title
;
Structure prediction by ZEFSAII (Michael W. Deem and Ramdas Pophale) SiO2 
 PCOD9330605
Probable space group: I 2 2 2
;
_chemical_formula_sum "Si O2"
_cell_formula_units_Z 30
_cell_length_a 9.805458
_cell_length_b 7.684562
_cell_length_c 21.346162
_cell_angle_alpha 90.000000
_cell_angle_beta 90.000000
_cell_angle_gamma 90.000000
_cell_volume 1608.447180
_symmetry_space_group_name_H-M "I 2 2 2"
_symmetry_group_IT_number 23
_symmetry_cell_setting 'orthorhombic'
loop_
_space_group_symop_operation_xyz
x,y,z
-x,-y,z
x,-y,-z
-x,y,-z
1/2+x,1/2+y,1/2+z
1/2-x,1/2-y,1/2+z
1/2+x,1/2-y,1/2-z
1/2-x,1/2+y,1/2-z
loop_
_atom_site_type_symbol
_atom_site_label
_atom_site_fract_x
_atom_site_fract_y
_atom_site_fract_z
Si Si1 0.718326 0.364452 0.593456
Si Si2 0.000000 0.500000 0.598531
Si Si3 0.500000 0.500000 0.500000
Si Si4 0.207241 0.663927 0.318305
Si Si5 0.660122 0.961244 0.322902
O O1 0.869157 0.411764 0.566346
O O2 0.600055 0.386772 0.543164
O O3 0.702935 0.514593 0.647102
O O4 0.710503 0.178688 0.626483
O O5 0.935578 0.643852 0.645053
O O6 0.188333 0.617582 0.245945
O O7 0.266116 0.853931 0.327394
O O8 0.500000 0.000000 0.329861
#
# Coordination Sequence:
#
# PCOD9330605 Si02
#       5
#     8   4   2   8   8
#     4  10  23  42  62  98 130 176 229 269 333 396
#     4   8  20  43  60  98 120 171 220 270 342 382
#     4  12  24  46  70  92 140 192 220 270 334 406
#     4  10  20  39  61  99 133 168 221 273 348 392
#     4  12  21  37  63  99 138 175 219 284 340 400
#
# _framework density 18.651527999999999
#
# number of rings (size 3 to 8) (size 9 to 14) (size 15 to 20)
#    1.600    0.000    4.000    1.600    0.000    1.600 
#    0.000    6.000    0.000    0.000   13.867    0.000 
#    0.000    0.000    0.000    0.000    0.000    0.000 
#
# Total GULP energy -83559.987449 kJ/mol
# GULP energy per Si atom -5570.665830 kJ/mol
# Density = 1.860908 g / cm^3
# Si number density = 18.651528 Si / 1000 Ang^3
#
#
#
# Elastic Constant Matrix: (Units=GPa)
#
#
# Indices 1 2 3 4 5 6 
#
# 1 143.2378 64.9753 41.5746 0.0000 0.0000 0.0000
# 2 64.9753 149.4921 20.9851 0.0000 0.0000 0.0000
# 3 41.5746 20.9851 32.3093 0.0000 0.0000 0.0000
# 4 0.0000 0.0000 0.0000 18.6527 0.0000 0.0000
# 5 0.0000 0.0000 0.0000 0.0000 31.2010 0.0000
# 6 0.0000 0.0000 0.0000 0.0000 0.0000 20.4622
#
#
#
# Elastic Compliance Matrix: (Units=1/GPa)
#
#
# Indices 1 2 3 4 5 6 
#
# 1 0.012638 -0.003532 -0.013968 0.000000 0.000000 0.000000
# 2 -0.003532 0.008348 -0.000877 0.000000 0.000000 0.000000
# 3 -0.013968 -0.000877 0.049494 0.000000 0.000000 0.000000
# 4 0.000000 0.000000 0.000000 0.053611 0.000000 0.000000
# 5 0.000000 0.000000 0.000000 0.000000 0.032050 0.000000
# 6 0.000000 0.000000 0.000000 0.000000 0.000000 0.048871
#
#
# Mechanical properties :
#
#
# Convention : Reuss Voigt Hill
#
# Bulk Modulus (GPa) = 29.65102 64.45658 47.05380
# Shear Modulus (GPa) = 19.76233 27.23013 23.49623
#
# Velocity S-wave (km/s) = 3.25861 3.82506 3.55314
# Velocity P-wave (km/s) = 5.48543 7.35809 6.48966
#
# Compressibility (1/GPa) = 0.03372565
#
# Stress axis : x y z
#
# Youngs Moduli (GPa) = 79.12788 119.79480 20.20463
#
# Poissons Ratio (x) = 0.42313 0.28221
# Poissons Ratio (y) = 0.27949 0.01771
# Poissons Ratio (z) = 1.10524 0.10503
#
# Static dielectric constant tensor:
#      x y z
#    x 1.655640 0.000000 0.000000 
#    y 0.000000 1.579740 0.000000 
#    z 0.000000 0.000000 1.647320 
# 
# From -- ./inp_files/12367.got.cif
#   From: 2010.05.17/outbox.cif.g08.bks.cpg/sg23_7_cif.got.tgz:12367.got - 2010.06.04 12:02:01.
