data_PCOD9330299
_publ_section_title
;
Structure prediction by ZEFSAII (Michael W. Deem and Ramdas Pophale) SiO2 
 PCOD9330299
Probable space group: I 2 2 2
;
_chemical_formula_sum "Si O2"
_cell_formula_units_Z 64
_cell_length_a 8.670476
_cell_length_b 18.297718
_cell_length_c 22.256576
_cell_angle_alpha 90.000000
_cell_angle_beta 90.000000
_cell_angle_gamma 90.000000
_cell_volume 3531.004108
_symmetry_space_group_name_H-M "I 2 2 2"
_symmetry_group_IT_number 23
_symmetry_cell_setting 'orthorhombic'
loop_
_space_group_symop_operation_xyz
x,y,z
-x,-y,z
x,-y,-z
-x,y,-z
1/2+x,1/2+y,1/2+z
1/2-x,1/2-y,1/2+z
1/2+x,1/2-y,1/2-z
1/2-x,1/2+y,1/2-z
loop_
_atom_site_type_symbol
_atom_site_label
_atom_site_fract_x
_atom_site_fract_y
_atom_site_fract_z
Si Si1 0.817770 0.517732 0.104422
Si Si2 0.612717 0.386163 0.053541
Si Si3 0.009442 0.815463 0.324226
Si Si4 0.525529 0.825502 0.755256
Si Si5 0.155968 0.249223 0.147679
Si Si6 0.681564 0.612195 0.721688
Si Si7 0.340519 0.833949 0.467881
Si Si8 0.177540 0.471697 0.244161
O O1 0.719659 0.453336 0.074432
O O2 0.796935 0.594303 0.070854
O O3 0.773032 0.524425 0.174364
O O4 0.000000 0.500000 0.101755
O O5 0.537248 0.350459 0.112309
O O6 0.500000 0.410780 0.000000
O O7 0.715925 0.325497 0.019953
O O8 0.935737 0.738575 0.302251
O O9 0.947059 0.870040 0.272335
O O10 0.185815 0.788534 0.329852
O O11 0.532310 0.791156 0.688658
O O12 0.352296 0.857038 0.760180
O O13 0.652902 0.888452 0.762807
O O14 0.147281 0.163979 0.164804
O O15 0.143463 0.267785 0.078166
O O16 0.713244 0.525681 0.718268
O O17 0.500000 0.849951 0.500000
O O18 0.000000 0.500000 0.246209
#
# Coordination Sequence:
#
# PCOD9330299 Si02
#       8
#     8   8   8   8   8   8   8   8
#     4  11  21  35  50  72 106 144 182 211 244 308
#     4  12  24  37  50  73 107 149 183 215 265 310
#     4  10  20  35  49  74 105 140 171 221 267 313
#     4   9  18  33  55  75 102 133 176 216 270 322
#     4  10  20  35  49  75 105 139 176 222 260 315
#     4   9  18  33  56  75 102 134 175 220 274 313
#     4  12  24  35  51  72 104 150 189 214 248 313
#     4   9  16  29  54  81  98 131 170 215 261 312
#
# _framework density 18.125157000000002
#
# number of rings (size 3 to 8) (size 9 to 14) (size 15 to 20)
#    0.000    1.750    5.000    0.375    1.750    1.000 
#    0.000    1.875    0.000    0.000    0.000    0.875 
#    0.000    1.000    0.000    0.000    0.000    0.000 
#
# Total GULP energy -178427.727489 kJ/mol
# GULP energy per Si atom -5575.866484 kJ/mol
# Density = 1.808390 g / cm^3
# Si number density = 18.125157 Si / 1000 Ang^3
#
#
#
# Elastic Constant Matrix: (Units=GPa)
#
#
# Indices 1 2 3 4 5 6 
#
# 1 28.2989 4.2538 10.7534 0.0000 0.0000 0.0000
# 2 4.2538 52.8344 23.3036 0.0000 0.0000 0.0000
# 3 10.7534 23.3036 69.0638 0.0000 0.0000 0.0000
# 4 0.0000 0.0000 0.0000 22.8521 0.0000 0.0000
# 5 0.0000 0.0000 0.0000 0.0000 15.2390 0.0000
# 6 0.0000 0.0000 0.0000 0.0000 0.0000 12.1404
#
#
#
# Elastic Compliance Matrix: (Units=1/GPa)
#
#
# Indices 1 2 3 4 5 6 
#
# 1 0.037572 -0.000522 -0.005674 0.000000 0.000000 0.000000
# 2 -0.000522 0.022244 -0.007424 0.000000 0.000000 0.000000
# 3 -0.005674 -0.007424 0.017868 0.000000 0.000000 0.000000
# 4 0.000000 0.000000 0.000000 0.043760 0.000000 0.000000
# 5 0.000000 0.000000 0.000000 0.000000 0.065621 0.000000
# 6 0.000000 0.000000 0.000000 0.000000 0.000000 0.082370
#
#
# Mechanical properties :
#
#
# Convention : Reuss Voigt Hill
#
# Bulk Modulus (GPa) = 19.82457 25.20207 22.51332
# Shear Modulus (GPa) = 15.94958 17.50540 16.72749
#
# Velocity S-wave (km/s) = 2.96965 3.11111 3.04120
# Velocity P-wave (km/s) = 4.76652 5.18074 4.97794
#
# Compressibility (1/GPa) = 0.05044245
#
# Stress axis : x y z
#
# Youngs Moduli (GPa) = 26.61592 44.95659 55.96655
#
# Poissons Ratio (x) = 0.02349 0.31753
# Poissons Ratio (y) = 0.01391 0.41550
# Poissons Ratio (z) = 0.15101 0.33376
#
# Static dielectric constant tensor:
#      x y z
#    x 1.688630 0.000000 0.000000 
#    y 0.000000 1.658150 0.000000 
#    z 0.000000 0.000000 1.609060 
# 
# From -- ./inp_files/23998.got.cif
#   From: 2010.05.17/outbox.cif.g08.bks.cpg/sg23_12_cif.got.tgz:23998.got - 2010.06.04 12:02:01.
