data_PCOD9330902
_publ_section_title
;
Structure prediction by ZEFSAII (Michael W. Deem and Ramdas Pophale) SiO2 
 PCOD9330902
Probable space group: I 2 2 2
;
_chemical_formula_sum "Si O2"
_cell_formula_units_Z 40
_cell_length_a 13.061557
_cell_length_b 14.708714
_cell_length_c 8.107698
_cell_angle_alpha 90.000000
_cell_angle_beta 90.000000
_cell_angle_gamma 90.000000
_cell_volume 1557.640451
_symmetry_space_group_name_H-M "I 2 2 2"
_symmetry_group_IT_number 23
_symmetry_cell_setting 'orthorhombic'
loop_
_space_group_symop_operation_xyz
x,y,z
-x,-y,z
x,-y,-z
-x,y,-z
1/2+x,1/2+y,1/2+z
1/2-x,1/2-y,1/2+z
1/2+x,1/2-y,1/2-z
1/2-x,1/2+y,1/2-z
loop_
_atom_site_type_symbol
_atom_site_label
_atom_site_fract_x
_atom_site_fract_y
_atom_site_fract_z
Si Si1 0.004436 0.296861 0.188530
Si Si2 0.268931 0.954000 0.838251
Si Si3 0.706624 0.386273 0.866533
Si Si4 0.267927 0.780535 0.687771
Si Si5 0.500000 0.316275 0.000000
Si Si6 0.000000 0.500000 0.261299
O O1 0.886497 0.289360 0.237878
O O2 0.033876 0.404000 0.177566
O O3 0.051012 0.244969 0.350652
O O4 0.000000 0.259705 0.000000
O O5 0.222880 0.853613 0.816121
O O6 0.393292 0.966214 0.843299
O O7 0.235379 0.012106 0.678770
O O8 0.225350 0.000000 0.000000
O O9 0.747578 0.325688 0.711673
O O10 0.758451 0.329146 0.013281
O O11 0.587090 0.376182 0.912067
#
# Coordination Sequence:
#
# PCOD9330902 Si02
#       6
#     8   8   8   8   4   4
#     4  10  21  37  60  96 137 173 223 286 344 423
#     4  11  23  40  65 100 141 179 230 288 356 429
#     4  11  23  43  66  95 139 182 236 292 352 427
#     4  10  23  38  62  96 126 178 222 279 352 401
#     4  10  26  41  63  96 130 188 240 282 349 411
#     4  10  22  34  66 103 143 178 221 291 370 431
#
# _framework density 25.679867000000002
#
# number of rings (size 3 to 8) (size 9 to 14) (size 15 to 20)
#    0.000    1.600    0.000    3.600   14.000    3.200 
#    0.000    2.000    0.000    1.200    0.000    0.000 
#    0.000    0.000    0.000    0.000    0.000    0.000 
#
# Total GULP energy -111399.508943 kJ/mol
# GULP energy per Si atom -5569.975447 kJ/mol
# Density = 2.562142 g / cm^3
# Si number density = 25.679867 Si / 1000 Ang^3
#
#
#
# Elastic Constant Matrix: (Units=GPa)
#
#
# Indices 1 2 3 4 5 6 
#
# 1 66.5206 3.8399 -16.0686 0.0000 0.0000 0.0000
# 2 3.8399 94.3599 25.3893 0.0000 0.0000 0.0000
# 3 -16.0686 25.3893 136.1856 0.0000 0.0000 0.0000
# 4 0.0000 0.0000 0.0000 18.8560 0.0000 0.0000
# 5 0.0000 0.0000 0.0000 0.0000 22.5452 0.0000
# 6 0.0000 0.0000 0.0000 0.0000 0.0000 16.8331
#
#
#
# Elastic Compliance Matrix: (Units=1/GPa)
#
#
# Indices 1 2 3 4 5 6 
#
# 1 0.015600 -0.001190 0.002062 0.000000 0.000000 0.000000
# 2 -0.001190 0.011248 -0.002237 0.000000 0.000000 0.000000
# 3 0.002062 -0.002237 0.008003 0.000000 0.000000 0.000000
# 4 0.000000 0.000000 0.000000 0.053034 0.000000 0.000000
# 5 0.000000 0.000000 0.000000 0.000000 0.044355 0.000000
# 6 0.000000 0.000000 0.000000 0.000000 0.000000 0.059407
#
#
# Mechanical properties :
#
#
# Convention : Reuss Voigt Hill
#
# Bulk Modulus (GPa) = 31.13137 35.93192 33.53164
# Shear Modulus (GPa) = 24.38028 30.57388 27.47708
#
# Velocity S-wave (km/s) = 3.08456 3.45422 3.27461
# Velocity P-wave (km/s) = 4.98350 5.47097 5.23291
#
# Compressibility (1/GPa) = 0.03212194
#
# Stress axis : x y z
#
# Youngs Moduli (GPa) = 64.10330 88.90349 124.94704
#
# Poissons Ratio (x) = 0.10577 -0.25769
# Poissons Ratio (y) = 0.07627 0.27956
# Poissons Ratio (z) = -0.13221 0.19891
#
# Static dielectric constant tensor:
#      x y z
#    x 2.138320 0.000000 0.000000 
#    y 0.000000 2.175550 0.000000 
#    z 0.000000 0.000000 2.149430 
# 
# From -- ./inp_files/9637.got.cif
#   From: 2010.05.17/outbox.cif.g08.bks.cpg/sg23_5_cif.got.tgz:9637.got - 2010.06.04 12:02:01.
