data_PCOD9330374
_publ_section_title
;
Structure prediction by ZEFSAII (Michael W. Deem and Ramdas Pophale) SiO2 
 PCOD9330374
Probable space group: I 2 2 2
;
_chemical_formula_sum "Si O2"
_cell_formula_units_Z 64
_cell_length_a 20.813205
_cell_length_b 17.680218
_cell_length_c 8.895946
_cell_angle_alpha 90.000000
_cell_angle_beta 90.000000
_cell_angle_gamma 90.000000
_cell_volume 3273.548016
_symmetry_space_group_name_H-M "I 2 2 2"
_symmetry_group_IT_number 23
_symmetry_cell_setting 'orthorhombic'
loop_
_space_group_symop_operation_xyz
x,y,z
-x,-y,z
x,-y,-z
-x,y,-z
1/2+x,1/2+y,1/2+z
1/2-x,1/2-y,1/2+z
1/2+x,1/2-y,1/2-z
1/2-x,1/2+y,1/2-z
loop_
_atom_site_type_symbol
_atom_site_label
_atom_site_fract_x
_atom_site_fract_y
_atom_site_fract_z
Si Si1 0.304472 0.354829 0.404065
Si Si2 0.931147 0.235279 0.067201
Si Si3 0.803432 0.229811 0.625800
Si Si4 0.751727 0.951830 0.641151
Si Si5 0.572154 0.077609 0.061731
Si Si6 0.129900 0.350813 0.154568
Si Si7 0.875446 0.289709 0.361637
Si Si8 0.260771 0.103086 0.206168
O O1 0.376056 0.328929 0.445940
O O2 0.262353 0.277804 0.391778
O O3 0.297266 0.403127 0.251411
O O4 0.268568 0.397353 0.539230
O O5 0.926010 0.257407 0.243380
O O6 0.909736 0.310243 0.975610
O O7 0.000000 0.212721 0.000000
O O8 0.842892 0.281194 0.744249
O O9 0.838447 0.228932 0.464897
O O10 0.790719 0.147340 0.690459
O O11 0.692142 0.897358 0.597883
O O12 0.778361 0.000000 0.500000
O O13 0.723963 0.019493 0.742875
O O14 0.587597 0.094669 0.236369
O O15 0.500000 0.073351 0.000000
O O16 0.596269 0.151972 0.979366
O O17 0.603681 0.000000 0.000000
O O18 0.821767 0.341984 0.284457
#
# Coordination Sequence:
#
# PCOD9330374 Si02
#       8
#     8   8   8   8   8   8   8   8
#     4  10  22  38  58  89 126 157 209 254 316 380
#     4  12  23  37  60  86 123 165 210 257 299 358
#     4   9  19  34  62  85 115 158 195 261 314 369
#     4  11  24  35  61  92 126 154 197 257 336 383
#     4  10  20  36  55  77 117 169 215 249 296 366
#     4  10  21  39  55  88 122 157 206 257 306 374
#     4  10  21  33  57  84 121 154 206 254 312 367
#     4  11  19  36  61  88 119 157 194 255 331 375
#
# _framework density 19.550653000000001
#
# number of rings (size 3 to 8) (size 9 to 14) (size 15 to 20)
#    0.000    1.625    2.500    3.375    1.750    0.000 
#    0.000    0.000    0.000    4.500    0.000    0.875 
#    0.000    0.000    0.000    0.000    0.000    0.000 
#
# Total GULP energy -178454.501198 kJ/mol
# GULP energy per Si atom -5576.703162 kJ/mol
# Density = 1.950616 g / cm^3
# Si number density = 19.550653 Si / 1000 Ang^3
#
#
#
# Elastic Constant Matrix: (Units=GPa)
#
#
# Indices 1 2 3 4 5 6 
#
# 1 66.4582 7.8401 39.5793 0.0000 0.0000 0.0000
# 2 7.8401 44.2958 30.2590 0.0000 0.0000 0.0000
# 3 39.5793 30.2590 88.5592 0.0000 0.0000 0.0000
# 4 0.0000 0.0000 0.0000 42.3194 0.0000 0.0000
# 5 0.0000 0.0000 0.0000 0.0000 16.5959 0.0000
# 6 0.0000 0.0000 0.0000 0.0000 0.0000 22.6710
#
#
#
# Elastic Compliance Matrix: (Units=1/GPa)
#
#
# Indices 1 2 3 4 5 6 
#
# 1 0.020913 0.003500 -0.010542 0.000000 0.000000 0.000000
# 2 0.003500 0.030035 -0.011827 0.000000 0.000000 0.000000
# 3 -0.010542 -0.011827 0.020044 0.000000 0.000000 0.000000
# 4 0.000000 0.000000 0.000000 0.023630 0.000000 0.000000
# 5 0.000000 0.000000 0.000000 0.000000 0.060256 0.000000
# 6 0.000000 0.000000 0.000000 0.000000 0.000000 0.044109
#
#
# Mechanical properties :
#
#
# Convention : Reuss Voigt Hill
#
# Bulk Modulus (GPa) = 30.07124 39.40780 34.73952
# Shear Modulus (GPa) = 20.17679 24.42625 22.30152
#
# Velocity S-wave (km/s) = 3.21600 3.53850 3.38110
# Velocity P-wave (km/s) = 5.40415 6.07414 5.74891
#
# Compressibility (1/GPa) = 0.03325436
#
# Stress axis : x y z
#
# Youngs Moduli (GPa) = 47.81801 33.29451 49.88908
#
# Poissons Ratio (x) = -0.11654 0.52595
# Poissons Ratio (y) = -0.16737 0.59002
# Poissons Ratio (z) = 0.50411 0.39376
#
# Static dielectric constant tensor:
#      x y z
#    x 1.614530 0.000000 0.000000 
#    y 0.000000 1.722520 0.000000 
#    z 0.000000 0.000000 1.772550 
# 
# From -- ./inp_files/12199.got.cif
#   From: 2010.05.17/outbox.cif.g08.bks.cpg/sg23_7_cif.got.tgz:12199.got - 2010.06.04 12:02:01.
