data_PCOD9330550
_publ_section_title
;
Structure prediction by ZEFSAII (Michael W. Deem and Ramdas Pophale) SiO2 
 PCOD9330550
Probable space group: I 2 2 2
;
_chemical_formula_sum "Si O2"
_cell_formula_units_Z 40
_cell_length_a 4.972888
_cell_length_b 22.130173
_cell_length_c 16.977836
_cell_angle_alpha 90.000000
_cell_angle_beta 90.000000
_cell_angle_gamma 90.000000
_cell_volume 1868.425652
_symmetry_space_group_name_H-M "I 2 2 2"
_symmetry_group_IT_number 23
_symmetry_cell_setting 'orthorhombic'
loop_
_space_group_symop_operation_xyz
x,y,z
-x,-y,z
x,-y,-z
-x,y,-z
1/2+x,1/2+y,1/2+z
1/2-x,1/2-y,1/2+z
1/2+x,1/2-y,1/2-z
1/2-x,1/2+y,1/2-z
loop_
_atom_site_type_symbol
_atom_site_label
_atom_site_fract_x
_atom_site_fract_y
_atom_site_fract_z
Si Si1 0.496148 0.346382 0.594698
Si Si2 0.057607 0.864525 0.593034
Si Si3 0.738076 0.039369 0.176780
Si Si4 0.508965 0.229096 0.095927
Si Si5 0.933723 0.567907 0.153417
O O1 0.500000 0.351416 0.500000
O O2 0.622417 0.407505 0.627796
O O3 0.205034 0.322026 0.620190
O O4 0.697672 0.293054 0.618585
O O5 0.357526 0.884428 0.616526
O O6 0.000000 0.864565 0.500000
O O7 0.975194 0.797849 0.623233
O O8 0.863303 0.914042 0.629046
O O9 0.578348 0.065907 0.251897
O O10 0.500000 0.000000 0.135097
O O11 0.000000 0.000000 0.202155
O O12 0.500000 0.230899 0.000000
O O13 0.000000 0.500000 0.126335
#
# Coordination Sequence:
#
# PCOD9330550 Si02
#       5
#     8   8   8   8   8
#     4  10  20  38  63  90 120 157 202 250 301 362
#     4  11  22  38  62  90 119 155 203 252 299 361
#     4  11  23  41  62  86 124 167 203 248 309 368
#     4   9  19  36  59  88 121 153 190 249 314 355
#     4  11  23  39  58  84 121 162 199 245 307 362
#
# _framework density 21.408397999999998
#
# number of rings (size 3 to 8) (size 9 to 14) (size 15 to 20)
#    0.000    1.600    0.000    6.000    0.000    6.000 
#    0.000    5.000    0.000    0.000    0.000    0.000 
#    0.000    0.000    0.000    0.000    0.000    0.000 
#
# Total GULP energy -111622.417589 kJ/mol
# GULP energy per Si atom -5581.120879 kJ/mol
# Density = 2.135967 g / cm^3
# Si number density = 21.408398 Si / 1000 Ang^3
#
#
#
# Elastic Constant Matrix: (Units=GPa)
#
#
# Indices 1 2 3 4 5 6 
#
# 1 72.9881 4.5475 6.7967 0.0000 0.0000 0.0000
# 2 4.5475 101.9655 29.8374 0.0000 0.0000 0.0000
# 3 6.7967 29.8374 21.0327 0.0000 0.0000 0.0000
# 4 0.0000 0.0000 0.0000 24.0207 0.0000 0.0000
# 5 0.0000 0.0000 0.0000 0.0000 26.5731 0.0000
# 6 0.0000 0.0000 0.0000 0.0000 0.0000 43.3079
#
#
#
# Elastic Compliance Matrix: (Units=1/GPa)
#
#
# Indices 1 2 3 4 5 6 
#
# 1 0.014213 0.001214 -0.006315 0.000000 0.000000 0.000000
# 2 0.001214 0.016872 -0.024327 0.000000 0.000000 0.000000
# 3 -0.006315 -0.024327 0.084096 0.000000 0.000000 0.000000
# 4 0.000000 0.000000 0.000000 0.041631 0.000000 0.000000
# 5 0.000000 0.000000 0.000000 0.000000 0.037632 0.000000
# 6 0.000000 0.000000 0.000000 0.000000 0.000000 0.023090
#
#
# Mechanical properties :
#
#
# Convention : Reuss Voigt Hill
#
# Bulk Modulus (GPa) = 17.75409 30.92771 24.34090
# Shear Modulus (GPa) = 16.93966 29.10066 23.02016
#
# Velocity S-wave (km/s) = 2.81599 3.69088 3.28271
# Velocity P-wave (km/s) = 4.34559 5.71326 5.07570
#
# Compressibility (1/GPa) = 0.05632505
#
# Stress axis : x y z
#
# Youngs Moduli (GPa) = 70.35658 59.27104 11.89116
#
# Poissons Ratio (x) = -0.07196 0.07510
# Poissons Ratio (y) = -0.08542 0.28927
# Poissons Ratio (z) = 0.44433 1.44187
#
# Static dielectric constant tensor:
#      x y z
#    x 1.741090 0.000000 0.000000 
#    y 0.000000 1.803730 0.000000 
#    z 0.000000 0.000000 1.819370 
# 
# From -- ./inp_files/23112.got.cif
#   From: 2010.05.17/outbox.cif.g08.bks.cpg/sg23_12_cif.got.tgz:23112.got - 2010.06.04 12:02:01.
