data_PCOD9330305
_publ_section_title
;
Structure prediction by ZEFSAII (Michael W. Deem and Ramdas Pophale) SiO2 
 PCOD9330305
Probable space group: I 2 2 2
;
_chemical_formula_sum "Si O2"
_cell_formula_units_Z 52
_cell_length_a 17.723118
_cell_length_b 30.193351
_cell_length_c 5.163341
_cell_angle_alpha 90.000000
_cell_angle_beta 90.000000
_cell_angle_gamma 90.000000
_cell_volume 2763.008702
_symmetry_space_group_name_H-M "I 2 2 2"
_symmetry_group_IT_number 23
_symmetry_cell_setting 'orthorhombic'
loop_
_space_group_symop_operation_xyz
x,y,z
-x,-y,z
x,-y,-z
-x,y,-z
1/2+x,1/2+y,1/2+z
1/2-x,1/2-y,1/2+z
1/2+x,1/2-y,1/2-z
1/2-x,1/2+y,1/2-z
loop_
_atom_site_type_symbol
_atom_site_label
_atom_site_fract_x
_atom_site_fract_y
_atom_site_fract_z
Si Si1 0.833850 0.262757 0.373996
Si Si2 0.500000 0.089469 0.500000
Si Si3 0.948210 0.772080 0.250078
Si Si4 0.663388 0.947854 0.519190
Si Si5 0.928336 0.662735 0.633045
Si Si6 0.207224 0.394238 0.498910
Si Si7 0.316342 0.314132 0.502417
O O1 0.881989 0.260668 0.640204
O O2 0.882183 0.299553 0.215053
O O3 0.750810 0.283137 0.381982
O O4 0.832113 0.213478 0.260782
O O5 0.426464 0.060698 0.567045
O O6 0.467911 0.123086 0.286489
O O7 0.000000 0.781910 0.500000
O O8 0.894790 0.812236 0.154301
O O9 0.000000 0.760069 0.000000
O O10 0.690573 0.920458 0.265761
O O11 0.675817 0.000000 0.500000
O O12 0.706362 0.927996 0.764225
O O13 0.864361 0.639072 0.461497
O O14 0.000000 0.684937 0.500000
O O15 0.279639 0.362393 0.493274
#
# Coordination Sequence:
#
# PCOD9330305 Si02
#       7
#     8   4   8   8   8   8   8
#     4  11  23  38  61  86 121 179 220 270 304 373
#     4  10  21  36  56  84 128 168 210 262 315 360
#     4  12  25  40  58  90 121 161 217 269 310 364
#     4  11  22  40  63  91 120 160 209 266 328 389
#     4  10  20  35  52  84 119 164 217 261 295 346
#     4  10  24  39  61  86 121 163 206 265 315 380
#     4  11  24  41  63  87 127 173 224 260 332 370
#
# _framework density 18.820063999999999
#
# number of rings (size 3 to 8) (size 9 to 14) (size 15 to 20)
#    0.000    1.231    4.615    1.154    2.154    3.692 
#    0.000    1.538    0.000    0.000    0.000    0.000 
#    0.000    9.231    0.000    0.000    0.000    0.000 
#
# Total GULP energy -144898.405016 kJ/mol
# GULP energy per Si atom -5573.015578 kJ/mol
# Density = 1.877723 g / cm^3
# Si number density = 18.820064 Si / 1000 Ang^3
#
#
#
# Elastic Constant Matrix: (Units=GPa)
#
#
# Indices 1 2 3 4 5 6 
#
# 1 109.3559 43.4431 43.3552 -0.0096 0.0021 -0.0024
# 2 43.4431 106.5735 34.7742 -0.0168 -0.0084 -0.0022
# 3 43.3552 34.7742 97.9355 -0.3558 0.0901 -0.0761
# 4 -0.0096 -0.0168 -0.3558 8.2191 -0.0249 -0.0976
# 5 0.0021 -0.0084 0.0901 -0.0249 29.1556 -0.0078
# 6 -0.0024 -0.0022 -0.0761 -0.0976 -0.0078 37.9285
#
#
#
# Elastic Compliance Matrix: (Units=1/GPa)
#
#
# Indices 1 2 3 4 5 6 
#
# 1 0.012223 -0.003638 -0.004120 -0.000172 0.000011 -0.000008
# 2 -0.003638 0.011696 -0.002543 -0.000090 0.000011 -0.000005
# 3 -0.004120 -0.002543 0.012939 0.000550 -0.000040 0.000027
# 4 -0.000172 -0.000090 0.000550 0.121695 0.000102 0.000314
# 5 0.000011 0.000011 -0.000040 0.000102 0.034299 0.000007
# 6 -0.000008 -0.000005 0.000027 0.000314 0.000007 0.026366
#
#
# Mechanical properties :
#
#
# Convention : Reuss Voigt Hill
#
# Bulk Modulus (GPa) = 61.51188 61.89000 61.70094
# Shear Modulus (GPa) = 20.38825 27.88013 24.13419
#
# Velocity S-wave (km/s) = 3.29496 3.85308 3.58490
# Velocity P-wave (km/s) = 6.87247 7.26302 7.07044
#
# Compressibility (1/GPa) = 0.01625702
#
# Stress axis : x y z
#
# Youngs Moduli (GPa) = 81.81178 85.49981 77.28283
#
# Poissons Ratio (x) = 0.31108 0.31839
# Poissons Ratio (y) = 0.29766 0.19650
# Poissons Ratio (z) = 0.33705 0.21739
#
# Static dielectric constant tensor:
#      x y z
#    x 1.741130 -0.000030 -0.000010 
#    y -0.000030 1.676850 -0.000010 
#    z -0.000010 -0.000010 1.780990 
# 
# From -- ./inp_files/3461.got.cif
#   From: 2010.05.17/outbox.cif.g08.bks.cpg/sg23_2_cif.got.tgz:3461.got - 2010.06.04 12:02:01.
