data_PCOD9330580
_publ_section_title
;
Structure prediction by ZEFSAII (Michael W. Deem and Ramdas Pophale) SiO2 
 PCOD9330580
Probable space group: I 2 2 2
;
_chemical_formula_sum "Si O2"
_cell_formula_units_Z 36
_cell_length_a 19.577804
_cell_length_b 5.098301
_cell_length_c 16.703329
_cell_angle_alpha 90.000000
_cell_angle_beta 90.000000
_cell_angle_gamma 90.000000
_cell_volume 1667.218359
_symmetry_space_group_name_H-M "I 2 2 2"
_symmetry_group_IT_number 23
_symmetry_cell_setting 'orthorhombic'
loop_
_space_group_symop_operation_xyz
x,y,z
-x,-y,z
x,-y,-z
-x,y,-z
1/2+x,1/2+y,1/2+z
1/2-x,1/2-y,1/2+z
1/2+x,1/2-y,1/2-z
1/2-x,1/2+y,1/2-z
loop_
_atom_site_type_symbol
_atom_site_label
_atom_site_fract_x
_atom_site_fract_y
_atom_site_fract_z
Si Si1 0.500000 0.500000 0.000000
Si Si2 0.568156 0.657271 0.631437
Si Si3 0.238750 0.000000 0.500000
Si Si4 0.377474 0.465146 0.870632
Si Si5 0.500000 0.000000 0.500000
Si Si6 0.164919 0.000000 0.000000
Si Si7 0.081674 0.475659 0.719251
O O1 0.441034 0.528913 0.068908
O O2 0.500000 0.500000 0.660999
O O3 0.623636 0.481095 0.585405
O O4 0.589941 0.876952 0.695602
O O5 0.544137 0.820161 0.555462
O O6 0.189791 0.983674 0.422238
O O7 0.287143 0.750952 0.497844
O O8 0.377091 0.169999 0.838310
O O9 0.392965 0.681007 0.800629
O O10 0.000000 0.500000 0.701764
#
# Coordination Sequence:
#
# PCOD9330580 Si02
#       7
#     2   8   4   8   2   4   8
#     4  10  20  38  70  98 134 180 226 278 350 386
#     4  12  25  41  72 107 140 176 228 297 352 422
#     4  11  27  47  71  98 140 188 248 282 319 419
#     4  11  24  43  66 105 139 182 230 285 337 412
#     4  12  20  40  66 106 146 164 224 292 344 408
#     4  12  25  48  72 101 134 194 238 284 344 401
#     4  12  23  40  68 106 145 173 214 292 369 407
#
# _framework density 21.592853000000002
#
# number of rings (size 3 to 8) (size 9 to 14) (size 15 to 20)
#    0.000    0.444    5.556    3.333    0.000    3.556 
#    0.000    4.444    0.000    0.000    0.000    0.000 
#    0.000    0.000    0.000    0.000    0.000    0.000 
#
# Total GULP energy -100273.504686 kJ/mol
# GULP energy per Si atom -5570.750260 kJ/mol
# Density = 2.154371 g / cm^3
# Si number density = 21.592853 Si / 1000 Ang^3
#
#
#
# Elastic Constant Matrix: (Units=GPa)
#
#
# Indices 1 2 3 4 5 6 
#
# 1 111.0742 34.8122 31.3427 0.0000 0.0000 0.0000
# 2 34.8122 105.1230 10.2178 0.0000 0.0000 0.0000
# 3 31.3427 10.2178 97.9752 0.0000 0.0000 0.0000
# 4 0.0000 0.0000 0.0000 -140.6601 0.0000 0.0000
# 5 0.0000 0.0000 0.0000 0.0000 14.0694 0.0000
# 6 0.0000 0.0000 0.0000 0.0000 0.0000 48.1343
#
#
#
# Elastic Compliance Matrix: (Units=1/GPa)
#
#
# Indices 1 2 3 4 5 6 
#
# 1 0.010931 -0.003313 -0.003151 0.000000 0.000000 0.000000
# 2 -0.003313 0.010615 -0.000047 0.000000 0.000000 0.000000
# 3 -0.003151 -0.000047 0.011220 0.000000 0.000000 0.000000
# 4 0.000000 0.000000 0.000000 -0.007109 0.000000 0.000000
# 5 0.000000 0.000000 0.000000 0.000000 0.071076 0.000000
# 6 0.000000 0.000000 0.000000 0.000000 0.000000 0.020775
#
#
# Mechanical properties :
#
#
# Convention : Reuss Voigt Hill
#
# Bulk Modulus (GPa) = 50.65474 51.87976 51.26725
# Shear Modulus (GPa) = 36.46692 0.16203 18.31447
#
# Velocity S-wave (km/s) = 4.11401 0.27423 2.91550
# Velocity P-wave (km/s) = 6.78798 4.91719 5.92687
#
# Compressibility (1/GPa) = 0.01974149
#
# Stress axis : x y z
#
# Youngs Moduli (GPa) = 91.48555 94.21069 89.12927
#
# Poissons Ratio (x) = 0.31216 0.28087
# Poissons Ratio (y) = 0.30313 0.00419
# Poissons Ratio (z) = 0.28829 0.00443
#
# Static dielectric constant tensor:
#      x y z
#    x 1.884330 0.000000 0.000000 
#    y 0.000000 1.699850 0.000000 
#    z 0.000000 0.000000 1.807310 
# 
# From -- ./inp_files/22278.got.cif
#   From: 2010.05.17/outbox.cif.g08.bks.cpg/sg23_12_cif.got.tgz:22278.got - 2010.06.04 12:02:01.
