data_PCOD9330766
_publ_section_title
;
Structure prediction by ZEFSAII (Michael W. Deem and Ramdas Pophale) SiO2 
 PCOD9330766
Probable space group: I 2 2 2
;
_chemical_formula_sum "Si O2"
_cell_formula_units_Z 44
_cell_length_a 9.207079
_cell_length_b 28.025701
_cell_length_c 8.100584
_cell_angle_alpha 90.000000
_cell_angle_beta 90.000000
_cell_angle_gamma 90.000000
_cell_volume 2090.232922
_symmetry_space_group_name_H-M "I 2 2 2"
_symmetry_group_IT_number 23
_symmetry_cell_setting 'orthorhombic'
loop_
_space_group_symop_operation_xyz
x,y,z
-x,-y,z
x,-y,-z
-x,y,-z
1/2+x,1/2+y,1/2+z
1/2-x,1/2-y,1/2+z
1/2+x,1/2-y,1/2-z
1/2-x,1/2+y,1/2-z
loop_
_atom_site_type_symbol
_atom_site_label
_atom_site_fract_x
_atom_site_fract_y
_atom_site_fract_z
Si Si1 0.807850 0.181609 0.672615
Si Si2 0.500000 0.000000 0.000000
Si Si3 0.168581 0.565827 0.750773
Si Si4 0.083966 0.138578 0.825278
Si Si5 0.791587 0.285624 0.810751
Si Si6 0.500000 0.000000 0.500000
Si Si7 0.973702 0.654566 0.694828
O O1 0.786995 0.229687 0.779848
O O2 0.767938 0.197215 0.487194
O O3 0.689230 0.146461 0.750037
O O4 0.961828 0.156596 0.697174
O O5 0.608849 0.034941 0.097726
O O6 0.327417 0.590258 0.724761
O O7 0.113866 0.532787 0.899406
O O8 0.068204 0.611946 0.763251
O O9 0.200401 0.182451 0.821493
O O10 0.000000 0.133863 0.000000
O O11 0.959741 0.299133 0.782856
O O12 0.000000 0.658206 0.500000
#
# Coordination Sequence:
#
# PCOD9330766 Si02
#       7
#     8   2   8   8   8   2   8
#     4  12  23  40  64  93 144 184 231 280 328 392
#     4  10  20  46  74  98 124 174 226 282 340 450
#     4  10  23  43  74 103 128 170 227 278 357 411
#     4  11  24  42  66 102 144 179 225 285 346 400
#     4  11  24  40  61  97 136 194 234 266 325 395
#     4  10  24  46  80 100 132 166 234 294 336 458
#     4  11  22  39  67  95 129 175 230 275 325 403
#
# _framework density 21.050286
#
# number of rings (size 3 to 8) (size 9 to 14) (size 15 to 20)
#    0.000    1.091    0.909    6.545    5.091    0.000 
#    0.000    0.455    0.000    1.091    0.000    0.000 
#    0.000    0.000    0.000    0.000    0.000    0.000 
#
# Total GULP energy -122751.647096 kJ/mol
# GULP energy per Si atom -5579.620323 kJ/mol
# Density = 2.100237 g / cm^3
# Si number density = 21.050286 Si / 1000 Ang^3
#
#
#
# Elastic Constant Matrix: (Units=GPa)
#
#
# Indices 1 2 3 4 5 6 
#
# 1 141.4278 45.2846 40.7710 -0.0004 0.0003 0.0002
# 2 45.2846 78.5374 43.8082 0.0003 -0.0003 0.0000
# 3 40.7710 43.8082 122.8157 -0.0031 0.0009 -0.0001
# 4 -0.0004 0.0003 -0.0031 12.4307 -0.0007 -0.0003
# 5 0.0003 -0.0003 0.0009 -0.0007 40.9941 0.0002
# 6 0.0002 0.0000 -0.0001 -0.0003 0.0002 33.9990
#
#
#
# Elastic Compliance Matrix: (Units=1/GPa)
#
#
# Indices 1 2 3 4 5 6 
#
# 1 0.008860 -0.004329 -0.001397 0.000000 0.000000 0.000000
# 2 -0.004329 0.018011 -0.004987 -0.000002 0.000000 0.000000
# 3 -0.001397 -0.004987 0.010385 0.000003 0.000000 0.000000
# 4 0.000000 -0.000002 0.000003 0.080446 0.000001 0.000001
# 5 0.000000 0.000000 0.000000 0.000001 0.024394 0.000000
# 6 0.000000 0.000000 0.000000 0.000001 0.000000 0.029413
#
#
# Mechanical properties :
#
#
# Convention : Reuss Voigt Hill
#
# Bulk Modulus (GPa) = 63.17656 66.94540 65.06098
# Shear Modulus (GPa) = 25.22563 31.67926 28.45244
#
# Velocity S-wave (km/s) = 3.46548 3.88355 3.68046
# Velocity P-wave (km/s) = 6.78897 7.20978 7.00254
#
# Compressibility (1/GPa) = 0.01582866
#
# Stress axis : x y z
#
# Youngs Moduli (GPa) = 112.87113 55.52173 96.29315
#
# Poissons Ratio (x) = 0.24037 0.13451
# Poissons Ratio (y) = 0.48865 0.48024
# Poissons Ratio (z) = 0.15767 0.27690
#
# Static dielectric constant tensor:
#      x y z
#    x 1.804380 0.000000 0.000000 
#    y 0.000000 1.601370 0.000000 
#    z 0.000000 0.000000 1.824070 
# 
# From -- ./inp_files/7303.got.cif
#   From: 2010.05.17/outbox.cif.g08.bks.cpg/sg23_4_cif.got.tgz:7303.got - 2010.06.04 12:02:01.
