data_PCOD9330769
_publ_section_title
;
Structure prediction by ZEFSAII (Michael W. Deem and Ramdas Pophale) SiO2 
 PCOD9330769
Probable space group: I 2 2 2
;
_chemical_formula_sum "Si O2"
_cell_formula_units_Z 24
_cell_length_a 16.088482
_cell_length_b 6.457956
_cell_length_c 11.880529
_cell_angle_alpha 90.000000
_cell_angle_beta 90.000000
_cell_angle_gamma 90.000000
_cell_volume 1234.371624
_symmetry_space_group_name_H-M "I 2 2 2"
_symmetry_group_IT_number 23
_symmetry_cell_setting 'orthorhombic'
loop_
_space_group_symop_operation_xyz
x,y,z
-x,-y,z
x,-y,-z
-x,y,-z
1/2+x,1/2+y,1/2+z
1/2-x,1/2-y,1/2+z
1/2+x,1/2-y,1/2-z
1/2-x,1/2+y,1/2-z
loop_
_atom_site_type_symbol
_atom_site_label
_atom_site_fract_x
_atom_site_fract_y
_atom_site_fract_z
Si Si1 0.770444 0.500000 0.000000
Si Si2 0.500000 0.500000 0.500000
Si Si3 0.081974 0.352447 0.153996
Si Si4 0.630982 0.190446 0.087926
Si Si5 0.000000 0.000000 0.500000
O O1 0.834342 0.582276 0.091446
O O2 0.713324 0.319872 0.054235
O O3 0.552990 0.644723 0.586383
O O4 0.114303 0.363682 0.282710
O O5 0.000000 0.500000 0.144430
O O6 0.557546 0.352856 0.070590
O O7 0.623926 0.000000 0.000000
#
# Coordination Sequence:
#
# PCOD9330769 Si02
#       5
#     4   2   8   8   2
#     4  11  27  43  63 112 136 182 241 289 359 427
#     4  12  24  44  76 100 136 196 238 294 360 430
#     4  12  25  47  71 104 141 186 243 292 358 444
#     4  11  26  43  73 100 144 183 232 295 363 421
#     4  10  20  48  62 108 126 178 232 268 350 436
#
# _framework density 19.443090999999999
#
# number of rings (size 3 to 8) (size 9 to 14) (size 15 to 20)
#    0.000    0.667    3.333    3.500    7.000    2.667 
#    0.000    0.000    0.000    0.000    0.000    0.000 
#    0.000    0.000    0.000    0.000    0.000    0.000 
#
# Total GULP energy -66828.780349 kJ/mol
# GULP energy per Si atom -5569.065029 kJ/mol
# Density = 1.939884 g / cm^3
# Si number density = 19.443091 Si / 1000 Ang^3
#
#
#
# Elastic Constant Matrix: (Units=GPa)
#
#
# Indices 1 2 3 4 5 6 
#
# 1 170.1055 78.0570 77.8488 0.0000 0.0000 0.0000
# 2 78.0570 132.4122 82.7880 0.0000 0.0000 0.0000
# 3 77.8488 82.7880 188.0844 0.0000 0.0000 0.0000
# 4 0.0000 0.0000 0.0000 19.3719 0.0000 0.0000
# 5 0.0000 0.0000 0.0000 0.0000 163.7872 0.0000
# 6 0.0000 0.0000 0.0000 0.0000 0.0000 103.9267
#
#
#
# Elastic Compliance Matrix: (Units=1/GPa)
#
#
# Indices 1 2 3 4 5 6 
#
# 1 0.008482 -0.003870 -0.001807 0.000000 0.000000 0.000000
# 2 -0.003870 0.012186 -0.003762 0.000000 0.000000 0.000000
# 3 -0.001807 -0.003762 0.007721 0.000000 0.000000 0.000000
# 4 0.000000 0.000000 0.000000 0.051621 0.000000 0.000000
# 5 0.000000 0.000000 0.000000 0.000000 0.006105 0.000000
# 6 0.000000 0.000000 0.000000 0.000000 0.000000 0.009622
#
#
# Mechanical properties :
#
#
# Convention : Reuss Voigt Hill
#
# Bulk Modulus (GPa) = 105.15511 107.55440 106.35475
# Shear Modulus (GPa) = 42.45045 74.21104 58.33075
#
# Velocity S-wave (km/s) = 4.67767 6.18476 5.48324
# Velocity P-wave (km/s) = 9.13099 10.31694 9.74203
#
# Compressibility (1/GPa) = 0.00950976
#
# Stress axis : x y z
#
# Youngs Moduli (GPa) = 117.90243 82.06437 129.52440
#
# Poissons Ratio (x) = 0.31759 0.23407
# Poissons Ratio (y) = 0.45629 0.48725
# Poissons Ratio (z) = 0.21306 0.30871
#
# Static dielectric constant tensor:
#      x y z
#    x 1.650400 0.000000 0.000000 
#    y 0.000000 1.678660 0.000000 
#    z 0.000000 0.000000 1.444140 
# 
# From -- ./inp_files/1165.got.cif
#   From: 2010.05.17/outbox.cif.g08.bks.cpg/sg23_1_cif.got.tgz:1165.got - 2010.06.04 12:02:01.
