data_PCOD9330431
_publ_section_title
;
Structure prediction by ZEFSAII (Michael W. Deem and Ramdas Pophale) SiO2 
 PCOD9330431
Probable space group: I 2 2 2
;
_chemical_formula_sum "Si O2"
_cell_formula_units_Z 56
_cell_length_a 15.186344
_cell_length_b 14.334351
_cell_length_c 13.027239
_cell_angle_alpha 90.000000
_cell_angle_beta 90.000000
_cell_angle_gamma 90.000000
_cell_volume 2835.852568
_symmetry_space_group_name_H-M "I 2 2 2"
_symmetry_group_IT_number 23
_symmetry_cell_setting 'orthorhombic'
loop_
_space_group_symop_operation_xyz
x,y,z
-x,-y,z
x,-y,-z
-x,y,-z
1/2+x,1/2+y,1/2+z
1/2-x,1/2-y,1/2+z
1/2+x,1/2-y,1/2-z
1/2-x,1/2+y,1/2-z
loop_
_atom_site_type_symbol
_atom_site_label
_atom_site_fract_x
_atom_site_fract_y
_atom_site_fract_z
Si Si1 0.249828 0.891725 0.487644
Si Si2 0.368029 0.606127 0.472635
Si Si3 0.442526 0.266851 0.700441
Si Si4 0.676800 0.902821 0.956085
Si Si5 0.080210 0.793623 0.571087
Si Si6 0.237840 0.661857 0.757588
Si Si7 0.124421 0.267692 0.875598
O O1 0.164850 0.856959 0.550196
O O2 0.229913 0.875250 0.366937
O O3 0.330527 0.834092 0.539683
O O4 0.267904 0.000000 0.500000
O O5 0.387489 0.500000 0.500000
O O6 0.414502 0.649267 0.374283
O O7 0.261344 0.616916 0.470823
O O8 0.395185 0.671078 0.566603
O O9 0.455769 0.303345 0.814587
O O10 0.356305 0.203685 0.711980
O O11 0.528178 0.207810 0.666554
O O12 0.613286 0.813169 0.951849
O O13 0.717965 0.906933 0.839697
O O14 0.638910 0.000000 0.000000
O O15 0.000000 0.818565 0.500000
O O16 0.303937 0.740169 0.711258
#
# Coordination Sequence:
#
# PCOD9330431 Si02
#       7
#     8   8   8   8   8   8   8
#     4  12  25  44  66  95 137 181 227 281 348 413
#     4  10  20  36  65 100 128 159 212 273 328 397
#     4  11  21  38  69  92 132 172 217 274 339 395
#     4   9  19  39  67  97 131 171 218 272 333 401
#     4  11  23  43  65  97 133 176 221 277 338 408
#     4  10  21  43  63  96 130 172 225 271 344 404
#     4  11  22  42  64  93 132 178 219 280 337 405
#
# _framework density 19.747147999999999
#
# number of rings (size 3 to 8) (size 9 to 14) (size 15 to 20)
#    0.000    1.429    5.714    1.286    0.000    5.143 
#    5.143    2.857    0.000    0.000    0.000    0.000 
#    0.000    0.000    0.000    0.000    0.000    0.000 
#
# Total GULP energy -156082.197491 kJ/mol
# GULP energy per Si atom -5574.364196 kJ/mol
# Density = 1.970220 g / cm^3
# Si number density = 19.747148 Si / 1000 Ang^3
#
#
#
# Elastic Constant Matrix: (Units=GPa)
#
#
# Indices 1 2 3 4 5 6 
#
# 1 95.4641 30.0055 38.5540 0.0000 0.0000 0.0000
# 2 30.0055 82.5714 23.9602 0.0000 0.0000 0.0000
# 3 38.5540 23.9602 93.3851 0.0000 0.0000 0.0000
# 4 0.0000 0.0000 0.0000 20.9821 0.0000 0.0000
# 5 0.0000 0.0000 0.0000 0.0000 32.6261 0.0000
# 6 0.0000 0.0000 0.0000 0.0000 0.0000 -0.5119
#
#
#
# Elastic Compliance Matrix: (Units=1/GPa)
#
#
# Indices 1 2 3 4 5 6 
#
# 1 0.013467 -0.003544 -0.004651 0.000000 0.000000 0.000000
# 2 -0.003544 0.014018 -0.002133 0.000000 0.000000 0.000000
# 3 -0.004651 -0.002133 0.013176 0.000000 0.000000 0.000000
# 4 0.000000 0.000000 0.000000 0.047660 0.000000 0.000000
# 5 0.000000 0.000000 0.000000 0.000000 0.030650 0.000000
# 6 0.000000 0.000000 0.000000 0.000000 0.000000 -1.953458
#
#
# Mechanical properties :
#
#
# Convention : Reuss Voigt Hill
#
# Bulk Modulus (GPa) = 49.98938 50.71777 50.35357
# Shear Modulus (GPa) = -2.76677 22.54600 9.88961
#
# Velocity S-wave (km/s) = -1.18496 3.38262 2.24031
# Velocity P-wave (km/s) = 4.84742 6.40277 5.67860
#
# Compressibility (1/GPa) = 0.02000425
#
# Stress axis : x y z
#
# Youngs Moduli (GPa) = 74.25351 71.33817 75.89737
#
# Poissons Ratio (x) = 0.25285 0.35297
# Poissons Ratio (y) = 0.26318 0.16191
# Poissons Ratio (z) = 0.34532 0.15218
#
# Static dielectric constant tensor:
#      x y z
#    x 1.736420 0.000000 0.000000 
#    y 0.000000 1.691690 0.000000 
#    z 0.000000 0.000000 1.772370 
# 
# From -- ./inp_files/16767.got.cif
#   From: 2010.05.17/outbox.cif.g08.bks.cpg/sg23_9_cif.got.tgz:16767.got - 2010.06.04 12:02:01.
