data_PCOD9330430
_publ_section_title
;
Structure prediction by ZEFSAII (Michael W. Deem and Ramdas Pophale) SiO2 
 PCOD9330430
Probable space group: I 2 2 2
;
_chemical_formula_sum "Si O2"
_cell_formula_units_Z 32
_cell_length_a 9.268716
_cell_length_b 16.621228
_cell_length_c 8.846924
_cell_angle_alpha 90.000000
_cell_angle_beta 90.000000
_cell_angle_gamma 90.000000
_cell_volume 1362.934480
_symmetry_space_group_name_H-M "I 2 2 2"
_symmetry_group_IT_number 23
_symmetry_cell_setting 'orthorhombic'
loop_
_space_group_symop_operation_xyz
x,y,z
-x,-y,z
x,-y,-z
-x,y,-z
1/2+x,1/2+y,1/2+z
1/2-x,1/2-y,1/2+z
1/2+x,1/2-y,1/2-z
1/2-x,1/2+y,1/2-z
loop_
_atom_site_type_symbol
_atom_site_label
_atom_site_fract_x
_atom_site_fract_y
_atom_site_fract_z
Si Si1 0.343363 0.669726 0.363903
Si Si2 0.500000 0.000000 0.500000
Si Si3 0.805151 0.000000 0.000000
Si Si4 0.643216 0.262554 0.696682
Si Si5 0.000000 0.000000 0.500000
Si Si6 0.256822 0.079524 0.691771
O O1 0.375366 0.577080 0.411585
O O2 0.328491 0.717634 0.521716
O O3 0.479053 0.709623 0.279124
O O4 0.201396 0.678159 0.259554
O O5 0.605159 0.944980 0.597781
O O6 0.727889 0.957293 0.859757
O O7 0.738354 0.326324 0.788140
O O8 0.111313 0.048324 0.607858
#
# Coordination Sequence:
#
# PCOD9330430 Si02
#       6
#     8   2   4   8   2   8
#     4  10  23  42  67  98 134 178 231 287 346 419
#     4  10  24  40  60  94 136 170 224 298 360 408
#     4  10  22  44  70  94 134 192 242 280 342 434
#     4  10  23  41  65  96 131 174 226 284 347 419
#     4  10  20  36  64  98 132 178 228 278 340 412
#     4  10  22  40  64  94 131 177 229 286 347 417
#
# _framework density 23.478750999999999
#
# number of rings (size 3 to 8) (size 9 to 14) (size 15 to 20)
#    0.000    2.000    0.000    1.500    0.000   21.000 
#    0.000    5.000    0.000    1.500    0.000    0.000 
#    0.000    0.000    0.000    0.000    0.000    0.000 
#
# Total GULP energy -89327.100704 kJ/mol
# GULP energy per Si atom -5582.943794 kJ/mol
# Density = 2.342531 g / cm^3
# Si number density = 23.478751 Si / 1000 Ang^3
#
#
#
# Elastic Constant Matrix: (Units=GPa)
#
#
# Indices 1 2 3 4 5 6 
#
# 1 140.4154 52.4674 47.2516 0.0000 0.0000 0.0000
# 2 52.4674 92.1189 28.7953 0.0000 0.0000 0.0000
# 3 47.2516 28.7953 64.0199 0.0001 -0.0001 -0.0001
# 4 0.0000 0.0000 0.0001 40.8048 0.0000 0.0000
# 5 0.0000 0.0000 -0.0001 0.0000 41.0746 0.0000
# 6 0.0000 0.0000 -0.0001 0.0000 0.0000 10.6652
#
#
#
# Elastic Compliance Matrix: (Units=1/GPa)
#
#
# Indices 1 2 3 4 5 6 
#
# 1 0.010726 -0.004229 -0.006014 0.000000 0.000000 0.000000
# 2 -0.004229 0.014299 -0.003310 0.000000 0.000000 0.000000
# 3 -0.006014 -0.003310 0.021548 0.000000 0.000000 0.000000
# 4 0.000000 0.000000 0.000000 0.024507 0.000000 0.000000
# 5 0.000000 0.000000 0.000000 0.000000 0.024346 0.000000
# 6 0.000000 0.000000 0.000000 0.000000 0.000000 0.093763
#
#
# Mechanical properties :
#
#
# Convention : Reuss Voigt Hill
#
# Bulk Modulus (GPa) = 51.37206 61.50921 56.44063
# Shear Modulus (GPa) = 22.44322 29.71157 26.07739
#
# Velocity S-wave (km/s) = 3.09511 3.56120 3.33630
# Velocity P-wave (km/s) = 5.89073 6.56995 6.23959
#
# Compressibility (1/GPa) = 0.01946584
#
# Stress axis : x y z
#
# Youngs Moduli (GPa) = 93.23278 69.93524 46.40793
#
# Poissons Ratio (x) = 0.29576 0.27911
# Poissons Ratio (y) = 0.39428 0.15362
# Poissons Ratio (z) = 0.56073 0.23150
#
# Static dielectric constant tensor:
#      x y z
#    x 1.963470 0.000000 0.000000 
#    y 0.000000 1.933300 0.000000 
#    z 0.000000 0.000000 1.857050 
# 
# From -- ./inp_files/8152.got.cif
#   From: 2010.05.17/outbox.cif.g08.bks.cpg/sg23_5_cif.got.tgz:8152.got - 2010.06.04 12:02:01.
