data_PCOD9330036
_publ_section_title
;
Structure prediction by ZEFSAII (Michael W. Deem and Ramdas Pophale) SiO2 
 PCOD9330036
Probable space group: I 2 2 2
;
_chemical_formula_sum "Si O2"
_cell_formula_units_Z 56
_cell_length_a 16.702749
_cell_length_b 19.301027
_cell_length_c 7.778725
_cell_angle_alpha 90.000000
_cell_angle_beta 90.000000
_cell_angle_gamma 90.000000
_cell_volume 2507.706995
_symmetry_space_group_name_H-M "I 2 2 2"
_symmetry_group_IT_number 23
_symmetry_cell_setting 'orthorhombic'
loop_
_space_group_symop_operation_xyz
x,y,z
-x,-y,z
x,-y,-z
-x,y,-z
1/2+x,1/2+y,1/2+z
1/2-x,1/2-y,1/2+z
1/2+x,1/2-y,1/2-z
1/2-x,1/2+y,1/2-z
loop_
_atom_site_type_symbol
_atom_site_label
_atom_site_fract_x
_atom_site_fract_y
_atom_site_fract_z
Si Si1 0.380102 0.738822 0.629468
Si Si2 0.589190 0.104179 0.526148
Si Si3 0.264435 0.268655 0.691646
Si Si4 0.176590 0.029905 0.684790
Si Si5 0.500000 0.500000 0.268039
Si Si6 0.500000 0.624531 0.500000
Si Si7 0.785443 0.583838 0.691293
Si Si8 0.306974 0.873466 0.195279
O O1 0.415672 0.814574 0.586428
O O2 0.310823 0.727580 0.486967
O O3 0.329043 0.745909 0.804185
O O4 0.441317 0.676419 0.601093
O O5 0.500000 0.078335 0.500000
O O6 0.642840 0.069468 0.675427
O O7 0.633581 0.099809 0.342752
O O8 0.258716 0.346607 0.761086
O O9 0.312446 0.209405 0.791550
O O10 0.080491 0.030760 0.685633
O O11 0.219609 0.975637 0.811546
O O12 0.200938 0.000000 0.500000
O O13 0.219745 0.100902 0.737319
O O14 0.464221 0.567113 0.369800
O O15 0.816711 0.600404 0.499229
#
# Coordination Sequence:
#
# PCOD9330036 Si02
#       8
#     8   8   8   8   4   4   8   8
#     4  10  19  36  61  89 129 168 218 277 330 387
#     4  10  22  42  66 100 132 173 219 289 347 391
#     4  10  20  36  62  94 122 172 228 274 320 406
#     4  12  25  46  66  98 138 178 230 285 337 412
#     4  11  27  36  64  96 134 188 220 275 349 400
#     4  11  22  40  60  96 136 181 222 278 332 421
#     4  11  23  41  69  98 134 181 231 279 341 410
#     4  11  23  41  69  98 134 181 231 279 341 410
#
# _framework density 22.331159
#
# number of rings (size 3 to 8) (size 9 to 14) (size 15 to 20)
#    0.000    1.286    3.571    2.357    4.000    0.571 
#    0.000    1.429    0.000    1.714    0.000    0.000 
#    0.000    0.000    0.000    0.000    0.000    0.000 
#
# Total GULP energy -156094.893546 kJ/mol
# GULP energy per Si atom -5574.817627 kJ/mol
# Density = 2.228033 g / cm^3
# Si number density = 22.331159 Si / 1000 Ang^3
#
#
#
# Elastic Constant Matrix: (Units=GPa)
#
#
# Indices 1 2 3 4 5 6 
#
# 1 116.5509 11.1800 33.4998 0.0000 0.0000 0.0000
# 2 11.1800 120.0188 2.9206 0.0000 0.0000 0.0000
# 3 33.4998 2.9206 108.4539 0.0000 0.0000 0.0000
# 4 0.0000 0.0000 0.0000 23.2863 0.0000 0.0000
# 5 0.0000 0.0000 0.0000 0.0000 24.0009 0.0000
# 6 0.0000 0.0000 0.0000 0.0000 0.0000 27.8567
#
#
#
# Elastic Compliance Matrix: (Units=1/GPa)
#
#
# Indices 1 2 3 4 5 6 
#
# 1 0.009495 -0.000814 -0.002911 0.000000 0.000000 0.000000
# 2 -0.000814 0.008407 0.000025 0.000000 0.000000 0.000000
# 3 -0.002911 0.000025 0.010119 0.000000 0.000000 0.000000
# 4 0.000000 0.000000 0.000000 0.042944 0.000000 0.000000
# 5 0.000000 0.000000 0.000000 0.000000 0.041665 0.000000
# 6 0.000000 0.000000 0.000000 0.000000 0.000000 0.035898
#
#
# Mechanical properties :
#
#
# Convention : Reuss Voigt Hill
#
# Bulk Modulus (GPa) = 48.49257 48.91383 48.70320
# Shear Modulus (GPa) = 30.71242 34.85699 32.78471
#
# Velocity S-wave (km/s) = 3.71255 3.95513 3.83576
# Velocity P-wave (km/s) = 6.33559 6.54284 6.44005
#
# Compressibility (1/GPa) = 0.02062171
#
# Stress axis : x y z
#
# Youngs Moduli (GPa) = 105.32260 118.94551 98.82449
#
# Poissons Ratio (x) = 0.09678 0.28766
# Poissons Ratio (y) = 0.08569 -0.00246
# Poissons Ratio (z) = 0.30658 -0.00296
#
# Static dielectric constant tensor:
#      x y z
#    x 1.821450 0.000000 0.000000 
#    y 0.000000 1.909330 0.000000 
#    z 0.000000 0.000000 1.931480 
# 
# From -- ./inp_files/10260.got.cif
#   From: 2010.05.17/outbox.cif.g08.bks.cpg/sg23_6_cif.got.tgz:10260.got - 2010.06.04 12:02:01.
