data_PCOD9330185
_publ_section_title
;
Structure prediction by ZEFSAII (Michael W. Deem and Ramdas Pophale) SiO2 
 PCOD9330185
Probable space group: I 2 2 2
;
_chemical_formula_sum "Si O2"
_cell_formula_units_Z 56
_cell_length_a 20.943090
_cell_length_b 9.758287
_cell_length_c 14.984004
_cell_angle_alpha 90.000000
_cell_angle_beta 90.000000
_cell_angle_gamma 90.000000
_cell_volume 3062.261162
_symmetry_space_group_name_H-M "I 2 2 2"
_symmetry_group_IT_number 23
_symmetry_cell_setting 'orthorhombic'
loop_
_space_group_symop_operation_xyz
x,y,z
-x,-y,z
x,-y,-z
-x,y,-z
1/2+x,1/2+y,1/2+z
1/2-x,1/2-y,1/2+z
1/2+x,1/2-y,1/2-z
1/2-x,1/2+y,1/2-z
loop_
_atom_site_type_symbol
_atom_site_label
_atom_site_fract_x
_atom_site_fract_y
_atom_site_fract_z
Si Si1 0.682726 0.010463 0.843895
Si Si2 0.707789 0.714222 0.885235
Si Si3 0.791123 0.804343 0.585027
Si Si4 0.574149 0.019331 0.701539
Si Si5 0.681935 0.505922 0.246551
Si Si6 0.642203 0.722709 0.379963
Si Si7 0.352687 0.141142 0.556698
O O1 0.690239 0.147447 0.900117
O O2 0.618564 0.009576 0.787431
O O3 0.745010 0.002806 0.780033
O O4 0.686316 0.869509 0.896061
O O5 0.672515 0.639781 0.803021
O O6 0.784649 0.719788 0.867540
O O7 0.697433 0.650482 0.982970
O O8 0.715038 0.821192 0.599192
O O9 0.823515 0.889803 0.663603
O O10 0.593044 0.168654 0.661751
O O11 0.500000 0.000000 0.718746
O O12 0.596727 0.903114 0.630787
O O13 0.643624 0.576318 0.328870
O O14 0.631433 0.737808 0.486439
O O15 0.344090 0.000000 0.500000
#
# Coordination Sequence:
#
# PCOD9330185 Si02
#       7
#     8   8   8   8   8   8   8
#     4  11  20  33  50  83 117 143 184 232 283 338
#     4  10  20  31  52  82 113 147 173 229 301 348
#     4  11  18  31  53  78 115 140 178 235 288 348
#     4  11  20  33  54  78 114 157 193 226 270 334
#     4  11  17  31  54  78 114 141 173 231 294 337
#     4   9  18  32  49  81 109 143 182 229 271 340
#     4   9  18  32  51  80 117 140 183 225 288 344
#
# _framework density 18.287139
#
# number of rings (size 3 to 8) (size 9 to 14) (size 15 to 20)
#    0.000    1.714    4.286    3.429    0.000    2.571 
#    0.000    0.000    0.000    2.571    0.000    0.000 
#   21.429    0.000    0.000    0.000    0.000    0.000 
#
# Total GULP energy -155973.908119 kJ/mol
# GULP energy per Si atom -5570.496719 kJ/mol
# Density = 1.824552 g / cm^3
# Si number density = 18.287139 Si / 1000 Ang^3
#
#
#
# Elastic Constant Matrix: (Units=GPa)
#
#
# Indices 1 2 3 4 5 6 
#
# 1 72.8863 13.2784 13.8666 0.0000 0.0000 0.0000
# 2 13.2784 63.9596 19.3291 0.0000 0.0000 0.0000
# 3 13.8666 19.3291 64.5893 0.0000 0.0000 0.0000
# 4 0.0000 0.0000 0.0000 11.1516 0.0000 0.0000
# 5 0.0000 0.0000 0.0000 0.0000 6.0315 0.0000
# 6 0.0000 0.0000 0.0000 0.0000 0.0000 6.3810
#
#
#
# Elastic Compliance Matrix: (Units=1/GPa)
#
#
# Indices 1 2 3 4 5 6 
#
# 1 0.014603 -0.002292 -0.002449 0.000000 0.000000 0.000000
# 2 -0.002292 0.017549 -0.004760 0.000000 0.000000 0.000000
# 3 -0.002449 -0.004760 0.017433 0.000000 0.000000 0.000000
# 4 0.000000 0.000000 0.000000 0.089673 0.000000 0.000000
# 5 0.000000 0.000000 0.000000 0.000000 0.165796 0.000000
# 6 0.000000 0.000000 0.000000 0.000000 0.000000 0.156715
#
#
# Mechanical properties :
#
#
# Convention : Reuss Voigt Hill
#
# Bulk Modulus (GPa) = 32.69712 32.70927 32.70320
# Shear Modulus (GPa) = 10.18402 15.04357 12.61380
#
# Velocity S-wave (km/s) = 2.36242 2.87127 2.62918
# Velocity P-wave (km/s) = 5.03588 5.37750 5.20949
#
# Compressibility (1/GPa) = 0.03058373
#
# Stress axis : x y z
#
# Youngs Moduli (GPa) = 68.47686 56.98316 57.36329
#
# Poissons Ratio (x) = 0.13058 0.14051
# Poissons Ratio (y) = 0.15692 0.27304
# Poissons Ratio (z) = 0.16773 0.27123
#
# Static dielectric constant tensor:
#      x y z
#    x 1.580610 0.000000 0.000000 
#    y 0.000000 1.697250 0.000000 
#    z 0.000000 0.000000 1.686020 
# 
# From -- ./inp_files/22386.got.cif
#   From: 2010.05.17/outbox.cif.g08.bks.cpg/sg23_12_cif.got.tgz:22386.got - 2010.06.04 12:02:01.
