data_PCOD9330455
_publ_section_title
;
Structure prediction by ZEFSAII (Michael W. Deem and Ramdas Pophale) SiO2 
 PCOD9330455
Probable space group: I 2 2 2
;
_chemical_formula_sum "Si O2"
_cell_formula_units_Z 56
_cell_length_a 9.294312
_cell_length_b 14.351333
_cell_length_c 19.370114
_cell_angle_alpha 90.000000
_cell_angle_beta 90.000000
_cell_angle_gamma 90.000000
_cell_volume 2583.697503
_symmetry_space_group_name_H-M "I 2 2 2"
_symmetry_group_IT_number 23
_symmetry_cell_setting 'orthorhombic'
loop_
_space_group_symop_operation_xyz
x,y,z
-x,-y,z
x,-y,-z
-x,y,-z
1/2+x,1/2+y,1/2+z
1/2-x,1/2-y,1/2+z
1/2+x,1/2-y,1/2-z
1/2-x,1/2+y,1/2-z
loop_
_atom_site_type_symbol
_atom_site_label
_atom_site_fract_x
_atom_site_fract_y
_atom_site_fract_z
Si Si1 0.413338 0.860317 0.563461
Si Si2 0.665331 0.247801 0.364158
Si Si3 0.412745 0.204710 0.776135
Si Si4 0.658748 0.754643 0.005743
Si Si5 0.653293 0.459740 0.323425
Si Si6 0.131317 0.428189 0.407487
Si Si7 0.300770 0.869962 0.707103
O O1 0.500000 0.905904 0.500000
O O2 0.530638 0.787625 0.592066
O O3 0.276320 0.806988 0.532958
O O4 0.358298 0.907755 0.633875
O O5 0.677260 0.186984 0.294791
O O6 0.800849 0.254106 0.413918
O O7 0.631675 0.352488 0.342555
O O8 0.400260 0.135115 0.839956
O O9 0.574640 0.192222 0.745250
O O10 0.339428 0.302258 0.801547
O O11 0.656248 0.857128 0.970674
O O12 0.500000 0.714996 0.000000
O O13 0.500000 0.500000 0.304385
O O14 0.727167 0.514290 0.386184
O O15 0.760717 0.453192 0.258583
O O16 0.000000 0.500000 0.417954
#
# Coordination Sequence:
#
# PCOD9330455 Si02
#       7
#     8   8   8   8   8   8   8
#     4   9  18  36  59  81 113 151 200 255 287 348
#     4   9  21  39  56  81 118 160 214 237 294 370
#     4  10  21  36  60  82 115 163 205 260 295 357
#     4  11  22  35  55  87 119 158 199 243 300 359
#     4  11  23  36  55  87 121 161 200 244 307 370
#     4  12  23  38  56  87 133 162 197 250 317 377
#     4  10  20  37  59  85 116 154 209 253 298 363
#
# _framework density 21.674364000000001
#
# number of rings (size 3 to 8) (size 9 to 14) (size 15 to 20)
#    0.000    1.714    2.857    1.714    6.000    2.000 
#    0.000    0.714    0.000    0.000    0.000   17.000 
#    0.000    0.000    0.000    0.000    0.000    0.000 
#
# Total GULP energy -156198.699549 kJ/mol
# GULP energy per Si atom -5578.524984 kJ/mol
# Density = 2.162503 g / cm^3
# Si number density = 21.674364 Si / 1000 Ang^3
#
#
#
# Elastic Constant Matrix: (Units=GPa)
#
#
# Indices 1 2 3 4 5 6 
#
# 1 102.3277 18.4771 44.4679 0.0000 0.0000 0.0000
# 2 18.4771 31.1734 6.7562 0.0000 0.0000 0.0000
# 3 44.4679 6.7562 111.8844 0.0000 0.0000 0.0000
# 4 0.0000 0.0000 0.0000 52.3453 0.0000 0.0000
# 5 0.0000 0.0000 0.0000 0.0000 32.8111 0.0000
# 6 0.0000 0.0000 0.0000 0.0000 0.0000 -1.6011
#
#
#
# Elastic Compliance Matrix: (Units=1/GPa)
#
#
# Indices 1 2 3 4 5 6 
#
# 1 0.013064 -0.006706 -0.004787 0.000000 0.000000 0.000000
# 2 -0.006706 0.035946 0.000494 0.000000 0.000000 0.000000
# 3 -0.004787 0.000494 0.010811 0.000000 0.000000 0.000000
# 4 0.000000 0.000000 0.000000 0.019104 0.000000 0.000000
# 5 0.000000 0.000000 0.000000 0.000000 0.030478 0.000000
# 6 0.000000 0.000000 0.000000 0.000000 0.000000 -0.624567
#
#
# Mechanical properties :
#
#
# Convention : Reuss Voigt Hill
#
# Bulk Modulus (GPa) = 26.43848 42.75423 34.59635
# Shear Modulus (GPa) = -10.40450 28.42333 9.00941
#
# Velocity S-wave (km/s) = -2.19335 3.62523 2.04101
# Velocity P-wave (km/s) = 2.41042 6.10668 4.64229
#
# Compressibility (1/GPa) = 0.03782365
#
# Stress axis : x y z
#
# Youngs Moduli (GPa) = 76.54815 27.81955 92.50194
#
# Poissons Ratio (x) = 0.18655 0.44282
# Poissons Ratio (y) = 0.51330 -0.04574
# Poissons Ratio (z) = 0.36645 -0.01376
#
# Static dielectric constant tensor:
#      x y z
#    x 1.783080 0.000000 0.000000 
#    y 0.000000 1.751990 0.000000 
#    z 0.000000 0.000000 1.887260 
# 
# From -- ./inp_files/25234.got.cif
#   From: 2010.05.17/outbox.cif.g08.bks.cpg/sg23_13_cif.got.tgz:25234.got - 2010.06.04 12:02:01.
