data_PCOD9330204
_publ_section_title
;
Structure prediction by ZEFSAII (Michael W. Deem and Ramdas Pophale) SiO2 
 PCOD9330204
Probable space group: I 2 2 2
;
_chemical_formula_sum "Si O2"
_cell_formula_units_Z 40
_cell_length_a 35.756658
_cell_length_b 11.671041
_cell_length_c 5.065416
_cell_angle_alpha 90.000000
_cell_angle_beta 90.000000
_cell_angle_gamma 90.000000
_cell_volume 2113.886344
_symmetry_space_group_name_H-M "I 2 2 2"
_symmetry_group_IT_number 23
_symmetry_cell_setting 'orthorhombic'
loop_
_space_group_symop_operation_xyz
x,y,z
-x,-y,z
x,-y,-z
-x,y,-z
1/2+x,1/2+y,1/2+z
1/2-x,1/2-y,1/2+z
1/2+x,1/2-y,1/2-z
1/2-x,1/2+y,1/2-z
loop_
_atom_site_type_symbol
_atom_site_label
_atom_site_fract_x
_atom_site_fract_y
_atom_site_fract_z
Si Si1 0.817099 0.386268 0.182819
Si Si2 0.457468 0.638789 0.480058
Si Si3 0.090305 0.137696 0.516049
Si Si4 0.663699 0.761681 0.807784
Si Si5 0.731184 0.416494 0.243137
O O1 0.830067 0.366296 0.484430
O O2 0.772564 0.363455 0.208961
O O3 0.819003 0.500000 0.000000
O O4 0.840432 0.301246 0.994581
O O5 0.459334 0.500000 0.500000
O O6 0.500000 0.681377 0.500000
O O7 0.427686 0.672037 0.704974
O O8 0.440682 0.669838 0.199505
O O9 0.129011 0.193022 0.426435
O O10 0.095004 0.000000 0.500000
O O11 0.700209 0.681424 0.782750
O O12 0.729871 0.500000 0.500000
O O13 0.724689 0.500000 0.000000
#
# Coordination Sequence:
#
# PCOD9330204 Si02
#       5
#     8   8   8   8   8
#     4  11  23  39  55  74 103 144 194 236 272 324
#     4   9  17  31  50  73 108 149 176 200 248 324
#     4  10  20  32  50  80 113 141 174 215 265 329
#     4  12  22  36  56  79 109 141 179 230 286 325
#     4  11  22  37  56  79 106 141 183 226 280 341
#
# _framework density 18.922491000000001
#
# number of rings (size 3 to 8) (size 9 to 14) (size 15 to 20)
#    0.000    1.400    0.000    7.800    0.000    4.800 
#    0.000    0.000    0.000    0.000    0.000    0.000 
#    0.000   56.000    0.000    0.000    0.000    0.000 
#
# Total GULP energy -111469.748212 kJ/mol
# GULP energy per Si atom -5573.487411 kJ/mol
# Density = 1.887942 g / cm^3
# Si number density = 18.922491 Si / 1000 Ang^3
#
#
#
# Elastic Constant Matrix: (Units=GPa)
#
#
# Indices 1 2 3 4 5 6 
#
# 1 89.8527 36.4903 15.6929 0.0004 0.0007 0.0087
# 2 36.4903 28.5164 19.6346 0.0077 0.0025 0.0028
# 3 15.6929 19.6346 115.0733 0.0013 0.0019 0.0224
# 4 0.0004 0.0077 0.0013 25.5027 0.0026 0.0061
# 5 0.0007 0.0025 0.0019 0.0026 25.6428 0.0022
# 6 0.0087 0.0028 0.0224 0.0061 0.0022 23.1594
#
#
#
# Elastic Compliance Matrix: (Units=1/GPa)
#
#
# Indices 1 2 3 4 5 6 
#
# 1 0.023650 -0.031776 0.002197 0.000009 0.000002 -0.000007
# 2 -0.031776 0.082429 -0.009731 -0.000024 -0.000006 0.000011
# 3 0.002197 -0.009731 0.010051 0.000002 0.000000 -0.000009
# 4 0.000009 -0.000024 0.000002 0.039212 -0.000004 -0.000010
# 5 0.000002 -0.000006 0.000000 -0.000004 0.038997 -0.000004
# 6 -0.000007 0.000011 -0.000009 -0.000010 -0.000004 0.043179
#
#
# Mechanical properties :
#
#
# Convention : Reuss Voigt Hill
#
# Bulk Modulus (GPa) = 26.66011 41.89756 34.27884
# Shear Modulus (GPa) = 15.21410 25.63595 20.42502
#
# Velocity S-wave (km/s) = 2.83860 3.68474 3.28899
# Velocity P-wave (km/s) = 4.98631 6.34766 5.70772
#
# Compressibility (1/GPa) = 0.03750922
#
# Stress axis : x y z
#
# Youngs Moduli (GPa) = 42.28283 12.13162 99.49283
#
# Poissons Ratio (x) = 0.38549 -0.21854
# Poissons Ratio (y) = 1.34358 0.96819
# Poissons Ratio (z) = -0.09288 0.11806
#
# Static dielectric constant tensor:
#      x y z
#    x 1.643380 0.000000 0.000000 
#    y 0.000000 1.669240 0.000020 
#    z 0.000000 0.000020 1.586860 
# 
# From -- ./inp_files/4763.got.cif
#   From: 2010.05.17/outbox.cif.g08.bks.cpg/sg23_3_cif.got.tgz:4763.got - 2010.06.04 12:02:01.
