data_PCOD9330663
_publ_section_title
;
Structure prediction by ZEFSAII (Michael W. Deem and Ramdas Pophale) SiO2 
 PCOD9330663
Probable space group: I 2 2 2
;
_chemical_formula_sum "Si O2"
_cell_formula_units_Z 52
_cell_length_a 13.583009
_cell_length_b 9.970381
_cell_length_c 19.525881
_cell_angle_alpha 90.000000
_cell_angle_beta 90.000000
_cell_angle_gamma 90.000000
_cell_volume 2644.346616
_symmetry_space_group_name_H-M "I 2 2 2"
_symmetry_group_IT_number 23
_symmetry_cell_setting 'orthorhombic'
loop_
_space_group_symop_operation_xyz
x,y,z
-x,-y,z
x,-y,-z
-x,y,-z
1/2+x,1/2+y,1/2+z
1/2-x,1/2-y,1/2+z
1/2+x,1/2-y,1/2-z
1/2-x,1/2+y,1/2-z
loop_
_atom_site_type_symbol
_atom_site_label
_atom_site_fract_x
_atom_site_fract_y
_atom_site_fract_z
Si Si1 0.000000 0.500000 0.837725
Si Si2 0.168559 0.497550 0.732786
Si Si3 0.137818 0.392308 0.941598
Si Si4 0.876223 0.725393 0.634245
Si Si5 0.401206 0.805662 0.116151
Si Si6 0.321938 0.476093 0.845875
Si Si7 0.247380 0.345594 0.505295
O O1 0.087328 0.545354 0.787864
O O2 0.048611 0.389523 0.887551
O O3 0.145057 0.347678 0.706241
O O4 0.153895 0.592728 0.667606
O O5 0.271750 0.494543 0.771706
O O6 0.232214 0.448176 0.899164
O O7 0.169604 0.254529 0.977056
O O8 0.115734 0.500000 0.000000
O O9 0.790235 0.686689 0.581307
O O10 0.982529 0.670224 0.611289
O O11 0.875901 0.885862 0.637182
O O12 0.386650 0.656664 0.146642
O O13 0.346898 0.819611 0.043890
O O14 0.276559 0.500000 0.500000
#
# Coordination Sequence:
#
# PCOD9330663 Si02
#       7
#     4   8   8   8   8   8   8
#     4  10  21  38  66  89 116 158 220 256 278 381
#     4  11  21  39  59  87 118 164 207 242 308 367
#     4  10  20  40  64  90 115 161 212 254 309 348
#     4  12  21  38  60  87 124 156 204 252 307 382
#     4  11  22  37  58  88 123 162 201 248 312 372
#     4  10  23  37  59  86 123 159 202 258 304 367
#     4  11  23  38  60  92 124 160 198 258 316 368
#
# _framework density 19.664593
#
# number of rings (size 3 to 8) (size 9 to 14) (size 15 to 20)
#    0.000    1.231    4.615    2.077    0.000    0.615 
#    0.000    1.538    0.000    1.846    0.000    0.000 
#    0.000    0.000    0.000    0.000    0.000    0.000 
#
# Total GULP energy -145160.758040 kJ/mol
# GULP energy per Si atom -5583.106078 kJ/mol
# Density = 1.961984 g / cm^3
# Si number density = 19.664593 Si / 1000 Ang^3
#
#
#
# Elastic Constant Matrix: (Units=GPa)
#
#
# Indices 1 2 3 4 5 6 
#
# 1 47.9450 7.6703 18.4181 0.0000 0.0000 0.0000
# 2 7.6703 120.0542 11.4239 0.0000 0.0000 0.0000
# 3 18.4181 11.4239 57.8552 0.0000 0.0000 0.0000
# 4 0.0000 0.0000 0.0000 25.8783 0.0000 0.0000
# 5 0.0000 0.0000 0.0000 0.0000 16.5470 0.0000
# 6 0.0000 0.0000 0.0000 0.0000 0.0000 16.0907
#
#
#
# Elastic Compliance Matrix: (Units=1/GPa)
#
#
# Indices 1 2 3 4 5 6 
#
# 1 0.023842 -0.000816 -0.007429 0.000000 0.000000 0.000000
# 2 -0.000816 0.008517 -0.001422 0.000000 0.000000 0.000000
# 3 -0.007429 -0.001422 0.019930 0.000000 0.000000 0.000000
# 4 0.000000 0.000000 0.000000 0.038642 0.000000 0.000000
# 5 0.000000 0.000000 0.000000 0.000000 0.060434 0.000000
# 6 0.000000 0.000000 0.000000 0.000000 0.000000 0.062148
#
#
# Mechanical properties :
#
#
# Convention : Reuss Voigt Hill
#
# Bulk Modulus (GPa) = 30.34446 33.43099 31.88773
# Shear Modulus (GPa) = 20.50594 24.25933 22.38263
#
# Velocity S-wave (km/s) = 3.23272 3.51615 3.37741
# Velocity P-wave (km/s) = 5.42204 5.78981 5.60894
#
# Compressibility (1/GPa) = 0.03295494
#
# Stress axis : x y z
#
# Youngs Moduli (GPa) = 41.94350 117.41186 50.17504
#
# Poissons Ratio (x) = 0.09585 0.37274
# Poissons Ratio (y) = 0.03424 0.07134
# Poissons Ratio (z) = 0.31159 0.16694
#
# Static dielectric constant tensor:
#      x y z
#    x 1.697370 0.000000 0.000000 
#    y 0.000000 1.679620 0.000000 
#    z 0.000000 0.000000 1.690580 
# 
# From -- ./inp_files/11235.got.cif
#   From: 2010.05.17/outbox.cif.g08.bks.cpg/sg23_6_cif.got.tgz:11235.got - 2010.06.04 12:02:01.
