data_PCOD9330078
_publ_section_title
;
Structure prediction by ZEFSAII (Michael W. Deem and Ramdas Pophale) SiO2 
 PCOD9330078
Probable space group: I 2 2 2
;
_chemical_formula_sum "Si O2"
_cell_formula_units_Z 56
_cell_length_a 19.624485
_cell_length_b 9.033248
_cell_length_c 14.341067
_cell_angle_alpha 90.000000
_cell_angle_beta 90.000000
_cell_angle_gamma 90.000000
_cell_volume 2542.281674
_symmetry_space_group_name_H-M "I 2 2 2"
_symmetry_group_IT_number 23
_symmetry_cell_setting 'orthorhombic'
loop_
_space_group_symop_operation_xyz
x,y,z
-x,-y,z
x,-y,-z
-x,y,-z
1/2+x,1/2+y,1/2+z
1/2-x,1/2-y,1/2+z
1/2+x,1/2-y,1/2-z
1/2-x,1/2+y,1/2-z
loop_
_atom_site_type_symbol
_atom_site_label
_atom_site_fract_x
_atom_site_fract_y
_atom_site_fract_z
Si Si1 0.796023 0.500000 0.000000
Si Si2 0.324624 0.489468 0.150855
Si Si3 0.580370 0.490444 0.396898
Si Si4 0.156372 0.276630 0.865458
Si Si5 0.500000 0.000000 0.822617
Si Si6 0.603912 0.252976 0.240446
Si Si7 0.866430 0.659249 0.653047
Si Si8 0.269761 0.930937 0.178874
O O1 0.740777 0.516959 0.083041
O O2 0.846638 0.377779 0.043804
O O3 0.379430 0.623731 0.158568
O O4 0.361307 0.332393 0.133239
O O5 0.287108 0.492851 0.251229
O O6 0.500000 0.500000 0.404083
O O7 0.612129 0.500000 0.500000
O O8 0.602450 0.646143 0.354793
O O9 0.597040 0.348274 0.334521
O O10 0.147687 0.355068 0.765429
O O11 0.229497 0.196620 0.874757
O O12 0.459286 0.137749 0.772342
O O13 0.562357 0.083938 0.873064
O O14 0.671529 0.154063 0.235539
O O15 0.804157 0.558304 0.617176
#
# Coordination Sequence:
#
# PCOD9330078 Si02
#       8
#     4   8   8   8   4   8   8   8
#     4  12  24  38  60 108 132 168 220 282 356 388
#     4  11  21  37  65  89 129 168 217 280 333 402
#     4  11  25  40  59  92 134 181 222 262 325 403
#     4  11  22  37  62  94 132 171 212 273 336 397
#     4  10  24  36  68  96 116 170 232 270 320 412
#     4  11  21  40  64  92 131 170 226 276 330 404
#     4  10  20  38  61  92 122 167 216 267 326 398
#     4  10  19  37  62  95 123 168 214 274 328 398
#
# _framework density 22.027457999999999
#
# number of rings (size 3 to 8) (size 9 to 14) (size 15 to 20)
#    0.000    1.286    5.714    1.714    2.000    0.000 
#    0.000    0.000    0.000    3.429    0.000    0.000 
#    0.000    0.000    0.000    0.000    0.000    0.000 
#
# Total GULP energy -155873.982782 kJ/mol
# GULP energy per Si atom -5566.927956 kJ/mol
# Density = 2.197732 g / cm^3
# Si number density = 22.027458 Si / 1000 Ang^3
#
#
#
# Elastic Constant Matrix: (Units=GPa)
#
#
# Indices 1 2 3 4 5 6 
#
# 1 88.6717 32.0433 -8.8172 0.0000 0.0000 0.0000
# 2 32.0433 132.6621 0.2201 0.0000 0.0000 0.0000
# 3 -8.8172 0.2201 13.0187 0.0000 0.0000 0.0000
# 4 0.0000 0.0000 0.0000 17.0259 0.0000 0.0000
# 5 0.0000 0.0000 0.0000 0.0000 16.4601 0.0000
# 6 0.0000 0.0000 0.0000 0.0000 0.0000 49.0139
#
#
#
# Elastic Compliance Matrix: (Units=1/GPa)
#
#
# Indices 1 2 3 4 5 6 
#
# 1 0.013353 -0.003240 0.009099 0.000000 0.000000 0.000000
# 2 -0.003240 0.008325 -0.002335 0.000000 0.000000 0.000000
# 3 0.009099 -0.002335 0.083014 0.000000 0.000000 0.000000
# 4 0.000000 0.000000 0.000000 0.058734 0.000000 0.000000
# 5 0.000000 0.000000 0.000000 0.000000 0.060753 0.000000
# 6 0.000000 0.000000 0.000000 0.000000 0.000000 0.020402
#
#
# Mechanical properties :
#
#
# Convention : Reuss Voigt Hill
#
# Bulk Modulus (GPa) = 8.94954 31.24944 20.09949
# Shear Modulus (GPa) = 18.19623 30.56039 24.37831
#
# Velocity S-wave (km/s) = 2.87726 3.72879 3.33035
# Velocity P-wave (km/s) = 3.88715 5.72328 4.89213
#
# Compressibility (1/GPa) = 0.11173759
#
# Stress axis : x y z
#
# Youngs Moduli (GPa) = 74.88793 120.12694 12.04611
#
# Poissons Ratio (x) = 0.38927 -0.10960
# Poissons Ratio (y) = 0.24267 0.02813
# Poissons Ratio (z) = -0.68137 0.28054
#
# Static dielectric constant tensor:
#      x y z
#    x 1.837510 0.000000 0.000000 
#    y 0.000000 1.965710 0.000000 
#    z 0.000000 0.000000 1.978970 
# 
# From -- ./inp_files/22430.got.cif
#   From: 2010.05.17/outbox.cif.g08.bks.cpg/sg23_12_cif.got.tgz:22430.got - 2010.06.04 12:02:01.
