data_PCOD9330644
_publ_section_title
;
Structure prediction by ZEFSAII (Michael W. Deem and Ramdas Pophale) SiO2 
 PCOD9330644
Probable space group: I 2 2 2
;
_chemical_formula_sum "Si O2"
_cell_formula_units_Z 40
_cell_length_a 17.514635
_cell_length_b 8.417825
_cell_length_c 13.380463
_cell_angle_alpha 90.000000
_cell_angle_beta 90.000000
_cell_angle_gamma 90.000000
_cell_volume 1972.750334
_symmetry_space_group_name_H-M "I 2 2 2"
_symmetry_group_IT_number 23
_symmetry_cell_setting 'orthorhombic'
loop_
_space_group_symop_operation_xyz
x,y,z
-x,-y,z
x,-y,-z
-x,y,-z
1/2+x,1/2+y,1/2+z
1/2-x,1/2-y,1/2+z
1/2+x,1/2-y,1/2-z
1/2-x,1/2+y,1/2-z
loop_
_atom_site_type_symbol
_atom_site_label
_atom_site_fract_x
_atom_site_fract_y
_atom_site_fract_z
Si Si1 0.931293 0.097301 0.733763
Si Si2 0.282842 0.329135 0.881284
Si Si3 0.458860 0.831347 0.405068
Si Si4 0.221704 0.661675 0.899902
Si Si5 0.192503 0.008960 0.878606
O O1 0.868965 0.163075 0.657170
O O2 0.964321 0.236541 0.802719
O O3 0.885063 0.989870 0.814883
O O4 0.000000 0.000000 0.686436
O O5 0.243751 0.496124 0.848203
O O6 0.241051 0.164878 0.854136
O O7 0.273113 0.330828 0.001143
O O8 0.500000 0.750547 0.500000
O O9 0.368440 0.848914 0.426367
O O10 0.500000 0.000000 0.394568
O O11 0.228714 0.835927 0.850929
O O12 0.180723 0.000000 0.000000
#
# Coordination Sequence:
#
# PCOD9330644 Si02
#       5
#     8   8   8   8   8
#     4  11  26  35  57  96 126 162 192 250 315 356
#     4  10  20  40  60  88 122 154 208 252 291 358
#     4  10  21  38  60  88 123 161 196 245 323 369
#     4   9  20  39  67  88 110 168 207 251 299 354
#     4   9  21  38  62  88 118 158 206 248 300 358
#
# _framework density 20.276260000000001
#
# number of rings (size 3 to 8) (size 9 to 14) (size 15 to 20)
#    0.000    2.200    0.000    2.400   16.800    0.000 
#    3.600    2.000    0.000    0.000    0.000    0.000 
#    0.000    0.000    0.000    0.000    0.000    0.000 
#
# Total GULP energy -111531.471249 kJ/mol
# GULP energy per Si atom -5576.573562 kJ/mol
# Density = 2.023011 g / cm^3
# Si number density = 20.276260 Si / 1000 Ang^3
#
#
#
# Elastic Constant Matrix: (Units=GPa)
#
#
# Indices 1 2 3 4 5 6 
#
# 1 92.1079 63.6792 44.5771 0.0000 0.0000 0.0000
# 2 63.6792 170.6236 34.4616 0.0000 0.0000 0.0000
# 3 44.5771 34.4616 66.6015 0.0000 0.0000 0.0000
# 4 0.0000 0.0000 0.0000 33.0541 0.0000 0.0000
# 5 0.0000 0.0000 0.0000 0.0000 28.0454 0.0000
# 6 0.0000 0.0000 0.0000 0.0000 0.0000 39.0368
#
#
#
# Elastic Compliance Matrix: (Units=1/GPa)
#
#
# Indices 1 2 3 4 5 6 
#
# 1 0.019426 -0.005164 -0.010330 0.000000 0.000000 0.000000
# 2 -0.005164 0.007917 -0.000641 0.000000 0.000000 0.000000
# 3 -0.010330 -0.000641 0.022260 0.000000 0.000000 0.000000
# 4 0.000000 0.000000 0.000000 0.030253 0.000000 0.000000
# 5 0.000000 0.000000 0.000000 0.000000 0.035656 0.000000
# 6 0.000000 0.000000 0.000000 0.000000 0.000000 0.025617
#
#
# Mechanical properties :
#
#
# Convention : Reuss Voigt Hill
#
# Bulk Modulus (GPa) = 57.68760 68.30764 62.99762
# Shear Modulus (GPa) = 27.90513 32.46828 30.18671
#
# Velocity S-wave (km/s) = 3.71380 4.00596 3.86265
# Velocity P-wave (km/s) = 6.84853 7.42688 7.14356
#
# Compressibility (1/GPa) = 0.01733475
#
# Stress axis : x y z
#
# Youngs Moduli (GPa) = 51.47641 126.30399 44.92286
#
# Poissons Ratio (x) = 0.65220 0.46407
# Poissons Ratio (y) = 0.26581 0.02878
# Poissons Ratio (z) = 0.53177 0.08091
#
# Static dielectric constant tensor:
#      x y z
#    x 1.696360 0.000000 0.000000 
#    y 0.000000 1.785660 0.000000 
#    z 0.000000 0.000000 1.780320 
# 
# From -- ./inp_files/21352.got.cif
#   From: 2010.05.17/outbox.cif.g08.bks.cpg/sg23_11_cif.got.tgz:21352.got - 2010.06.04 12:02:01.
