data_PCOD9330741
_publ_section_title
;
Structure prediction by ZEFSAII (Michael W. Deem and Ramdas Pophale) SiO2 
 PCOD9330741
Probable space group: I 2 2 2
;
_chemical_formula_sum "Si O2"
_cell_formula_units_Z 44
_cell_length_a 9.131952
_cell_length_b 30.862039
_cell_length_c 7.533694
_cell_angle_alpha 90.000000
_cell_angle_beta 90.000000
_cell_angle_gamma 90.000000
_cell_volume 2123.225943
_symmetry_space_group_name_H-M "I 2 2 2"
_symmetry_group_IT_number 23
_symmetry_cell_setting 'orthorhombic'
loop_
_space_group_symop_operation_xyz
x,y,z
-x,-y,z
x,-y,-z
-x,y,-z
1/2+x,1/2+y,1/2+z
1/2-x,1/2-y,1/2+z
1/2+x,1/2-y,1/2-z
1/2-x,1/2+y,1/2-z
loop_
_atom_site_type_symbol
_atom_site_label
_atom_site_fract_x
_atom_site_fract_y
_atom_site_fract_z
Si Si1 0.160863 0.869178 0.689100
Si Si2 0.329949 0.213385 0.215993
Si Si3 0.322094 0.387338 0.208606
Si Si4 0.000000 0.500000 0.500000
Si Si5 0.000000 0.000000 0.000000
Si Si6 0.747515 0.438572 0.447034
Si Si7 0.162198 0.700162 0.704594
O O1 0.223412 0.820484 0.683335
O O2 0.180826 0.894273 0.503052
O O3 0.248915 0.894618 0.838957
O O4 0.989871 0.871855 0.743022
O O5 0.269233 0.261710 0.232765
O O6 0.498484 0.209311 0.273717
O O7 0.332069 0.201718 0.008468
O O8 0.276137 0.425234 0.345646
O O9 0.216423 0.346849 0.240278
O O10 0.111316 0.532756 0.405890
O O11 0.891883 0.031904 0.895026
#
# Coordination Sequence:
#
# PCOD9330741 Si02
#       7
#     8   8   8   2   2   8   8
#     4  11  23  40  67  97 128 171 218 262 322 389
#     4  11  24  40  61  92 132 174 219 266 316 377
#     4  11  23  40  67  97 128 171 218 262 322 389
#     4  10  28  42  74  94 136 164 220 270 330 406
#     4  10  20  42  74  90 124 172 208 258 346 374
#     4  11  22  46  66 100 130 172 208 276 328 385
#     4  11  24  40  61  92 132 174 219 266 316 377
#
# _framework density 20.723182999999999
#
# number of rings (size 3 to 8) (size 9 to 14) (size 15 to 20)
#    0.000    1.091    3.636    2.182    2.545    7.273 
#    0.000    5.455    0.000    0.000    0.000    0.000 
#    0.000    0.000    0.000    0.000    0.000    0.000 
#
# Total GULP energy -122836.211722 kJ/mol
# GULP energy per Si atom -5583.464169 kJ/mol
# Density = 2.067602 g / cm^3
# Si number density = 20.723183 Si / 1000 Ang^3
#
#
#
# Elastic Constant Matrix: (Units=GPa)
#
#
# Indices 1 2 3 4 5 6 
#
# 1 117.2940 21.0454 -4.2593 0.0008 0.0002 0.0000
# 2 21.0454 54.3033 -28.7075 0.0020 0.0002 0.0002
# 3 -4.2593 -28.7075 42.1180 -0.0003 -0.0009 0.0013
# 4 0.0008 0.0020 -0.0003 -8.5141 0.0003 -0.0004
# 5 0.0002 0.0002 -0.0009 0.0003 13.7277 -0.0002
# 6 0.0000 0.0002 0.0013 -0.0004 -0.0002 36.3433
#
#
#
# Elastic Compliance Matrix: (Units=1/GPa)
#
#
# Indices 1 2 3 4 5 6 
#
# 1 0.009312 -0.004864 -0.002373 0.000000 0.000000 0.000000
# 2 -0.004864 0.031328 0.020862 0.000006 0.000001 -0.000001
# 3 -0.002373 0.020862 0.037722 0.000003 0.000002 -0.000001
# 4 0.000000 0.000006 0.000003 -0.117453 0.000003 -0.000001
# 5 0.000000 0.000001 0.000002 0.000003 0.072845 0.000000
# 6 0.000000 -0.000001 -0.000001 -0.000001 0.000000 0.027515
#
#
# Mechanical properties :
#
#
# Convention : Reuss Voigt Hill
#
# Bulk Modulus (GPa) = 9.46863 21.09696 15.28280
# Shear Modulus (GPa) = 72.22810 23.35384 47.79097
#
# Velocity S-wave (km/s) = 5.91011 3.36064 4.80746
# Velocity P-wave (km/s) = 7.15203 5.02603 6.18112
#
# Compressibility (1/GPa) = 0.10561191
#
# Stress axis : x y z
#
# Youngs Moduli (GPa) = 107.38780 31.91987 26.50973
#
# Poissons Ratio (x) = 0.15524 0.06292
# Poissons Ratio (y) = 0.52229 -0.55303
# Poissons Ratio (z) = 0.25486 -0.66590
#
# Static dielectric constant tensor:
#      x y z
#    x 1.759990 0.000000 0.000000 
#    y 0.000000 1.710790 0.000000 
#    z 0.000000 0.000000 1.767390 
# 
# From -- ./inp_files/7304.got.cif
#   From: 2010.05.17/outbox.cif.g08.bks.cpg/sg23_4_cif.got.tgz:7304.got - 2010.06.04 12:02:01.
