data_PCOD9330058
_publ_section_title
;
Structure prediction by ZEFSAII (Michael W. Deem and Ramdas Pophale) SiO2 
 PCOD9330058
Probable space group: I 2 2 2
;
_chemical_formula_sum "Si O2"
_cell_formula_units_Z 64
_cell_length_a 17.942192
_cell_length_b 18.817421
_cell_length_c 9.071508
_cell_angle_alpha 90.000000
_cell_angle_beta 90.000000
_cell_angle_gamma 90.000000
_cell_volume 3062.774969
_symmetry_space_group_name_H-M "I 2 2 2"
_symmetry_group_IT_number 23
_symmetry_cell_setting 'orthorhombic'
loop_
_space_group_symop_operation_xyz
x,y,z
-x,-y,z
x,-y,-z
-x,y,-z
1/2+x,1/2+y,1/2+z
1/2-x,1/2-y,1/2+z
1/2+x,1/2-y,1/2-z
1/2-x,1/2+y,1/2-z
loop_
_atom_site_type_symbol
_atom_site_label
_atom_site_fract_x
_atom_site_fract_y
_atom_site_fract_z
Si Si1 0.853361 0.626396 0.935196
Si Si2 0.137089 0.573333 0.559244
Si Si3 0.952612 0.572319 0.174272
Si Si4 0.305093 0.427282 0.571815
Si Si5 0.200135 0.217892 0.943607
Si Si6 0.663132 0.711740 0.105350
Si Si7 0.067093 0.666191 0.336907
Si Si8 0.809170 0.073112 0.572357
O O1 0.922359 0.588822 0.012492
O O2 0.844745 0.709338 0.977621
O O3 0.865948 0.631858 0.760965
O O4 0.777737 0.585789 0.965780
O O5 0.104324 0.500000 0.500000
O O6 0.124843 0.569056 0.732874
O O7 0.221099 0.576950 0.499416
O O8 0.082811 0.632526 0.494079
O O9 0.000000 0.500000 0.194540
O O10 0.997757 0.638344 0.244230
O O11 0.336641 0.500000 0.500000
O O12 0.335470 0.351067 0.518925
O O13 0.311265 0.429528 0.749210
O O14 0.201580 0.203690 0.767110
O O15 0.281805 0.237074 0.009860
O O16 0.585834 0.751442 0.143991
O O17 0.653707 0.640912 0.008905
O O18 0.835388 0.000000 0.500000
#
# Coordination Sequence:
#
# PCOD9330058 Si02
#       8
#     8   8   8   8   8   8   8   8
#     4  10  24  37  55  81 116 163 206 247 291 352
#     4  11  22  36  50  74 112 154 197 243 281 335
#     4  12  26  37  54  82 123 170 219 246 284 344
#     4  11  22  36  59  84 116 152 194 249 312 366
#     4  10  19  37  56  80 112 153 200 248 306 356
#     4  10  21  36  58  79 112 154 195 251 301 362
#     4  11  21  40  52  75 115 159 203 243 287 338
#     4  11  23  37  57  87 115 147 201 250 316 365
#
# _framework density 20.896082
#
# number of rings (size 3 to 8) (size 9 to 14) (size 15 to 20)
#    0.000    1.250    3.750    3.000    8.750    1.500 
#    0.000    0.000    0.000    0.000    0.000    0.000 
#    0.000   32.000    0.000    0.000    0.000    0.000 
#
# Total GULP energy -178409.568228 kJ/mol
# GULP energy per Si atom -5575.299007 kJ/mol
# Density = 2.084852 g / cm^3
# Si number density = 20.896082 Si / 1000 Ang^3
#
#
#
# Elastic Constant Matrix: (Units=GPa)
#
#
# Indices 1 2 3 4 5 6 
#
# 1 25.3097 7.1665 11.0437 0.0000 0.0000 0.0000
# 2 7.1665 129.1320 53.3126 0.0000 0.0000 0.0000
# 3 11.0437 53.3126 139.8825 0.0000 0.0000 0.0000
# 4 0.0000 0.0000 0.0000 35.3806 0.0000 0.0000
# 5 0.0000 0.0000 0.0000 0.0000 15.9413 0.0000
# 6 0.0000 0.0000 0.0000 0.0000 0.0000 0.7509
#
#
#
# Elastic Compliance Matrix: (Units=1/GPa)
#
#
# Indices 1 2 3 4 5 6 
#
# 1 0.041055 -0.001116 -0.002816 0.000000 0.000000 0.000000
# 2 -0.001116 0.009220 -0.003426 0.000000 0.000000 0.000000
# 3 -0.002816 -0.003426 0.008677 0.000000 0.000000 0.000000
# 4 0.000000 0.000000 0.000000 0.028264 0.000000 0.000000
# 5 0.000000 0.000000 0.000000 0.000000 0.062730 0.000000
# 6 0.000000 0.000000 0.000000 0.000000 0.000000 1.331705
#
#
# Mechanical properties :
#
#
# Convention : Reuss Voigt Hill
#
# Bulk Modulus (GPa) = 22.60563 48.59665 35.60114
# Shear Modulus (GPa) = 3.30882 25.26798 14.28840
#
# Velocity S-wave (km/s) = 1.25972 3.48116 2.61776
# Velocity P-wave (km/s) = 3.59965 6.28210 5.11968
#
# Compressibility (1/GPa) = 0.04423677
#
# Stress axis : x y z
#
# Youngs Moduli (GPa) = 24.35741 108.45537 115.24834
#
# Poissons Ratio (x) = 0.12102 0.32454
# Poissons Ratio (y) = 0.02718 0.39484
# Poissons Ratio (z) = 0.06859 0.37157
#
# Static dielectric constant tensor:
#      x y z
#    x 1.784170 0.000000 0.000000 
#    y 0.000000 1.813430 0.000000 
#    z 0.000000 0.000000 1.885280 
# 
# From -- ./inp_files/12187.got.cif
#   From: 2010.05.17/outbox.cif.g08.bks.cpg/sg23_7_cif.got.tgz:12187.got - 2010.06.04 12:02:01.
