data_PCOD9330899
_publ_section_title
;
Structure prediction by ZEFSAII (Michael W. Deem and Ramdas Pophale) SiO2 
 PCOD9330899
Probable space group: I 2 2 2
;
_chemical_formula_sum "Si O2"
_cell_formula_units_Z 64
_cell_length_a 8.748547
_cell_length_b 20.978107
_cell_length_c 18.506973
_cell_angle_alpha 90.000000
_cell_angle_beta 90.000000
_cell_angle_gamma 90.000000
_cell_volume 3396.546909
_symmetry_space_group_name_H-M "I 2 2 2"
_symmetry_group_IT_number 23
_symmetry_cell_setting 'orthorhombic'
loop_
_space_group_symop_operation_xyz
x,y,z
-x,-y,z
x,-y,-z
-x,y,-z
1/2+x,1/2+y,1/2+z
1/2-x,1/2-y,1/2+z
1/2+x,1/2-y,1/2-z
1/2-x,1/2+y,1/2-z
loop_
_atom_site_type_symbol
_atom_site_label
_atom_site_fract_x
_atom_site_fract_y
_atom_site_fract_z
Si Si1 0.954620 0.673742 0.775008
Si Si2 0.062151 0.709769 0.921735
Si Si3 0.085752 0.809117 0.723624
Si Si4 0.859783 0.635442 0.568525
Si Si5 0.429329 0.280341 0.075541
Si Si6 0.438982 0.063030 0.830687
Si Si7 0.465087 0.647739 0.371278
Si Si8 0.696820 0.438338 0.552928
O O1 0.769667 0.681503 0.773240
O O2 0.001103 0.665124 0.858234
O O3 0.038438 0.738640 0.750265
O O4 0.027134 0.620725 0.722982
O O5 0.246497 0.710320 0.920961
O O6 0.000575 0.781674 0.903195
O O7 0.000000 0.692635 0.000000
O O8 0.005875 0.852962 0.785343
O O9 0.015556 0.811706 0.643447
O O10 0.945934 0.702801 0.575294
O O11 0.715184 0.641265 0.620232
O O12 0.790391 0.616128 0.491364
O O13 0.957745 0.577896 0.598946
O O14 0.500000 0.303064 0.000000
O O15 0.278027 0.051238 0.869414
O O16 0.500000 0.000000 0.793625
O O17 0.540341 0.594124 0.420809
O O18 0.689478 0.500000 0.500000
#
# Coordination Sequence:
#
# PCOD9330899 Si02
#       8
#     8   8   8   8   8   8   8   8
#     4  11  23  38  61  86 122 161 208 272 329 391
#     4  10  21  37  60  93 122 153 196 258 324 390
#     4  11  21  37  58  89 121 161 211 262 335 383
#     4  11  21  39  51  81 113 162 207 256 302 370
#     4  11  21  35  60  87 123 159 198 248 328 391
#     4  12  24  41  57  81 120 166 217 260 308 374
#     4  10  22  37  56  82 124 157 204 260 315 366
#     4  12  25  37  59  82 118 172 222 261 299 363
#
# _framework density 18.842665
#
# number of rings (size 3 to 8) (size 9 to 14) (size 15 to 20)
#    0.000    1.000    3.750    5.250    5.250    1.000 
#    0.000    0.000    0.000    0.375    0.000    0.000 
#    0.000    0.000    0.000    0.000    0.000    0.000 
#
# Total GULP energy -178476.784067 kJ/mol
# GULP energy per Si atom -5577.399502 kJ/mol
# Density = 1.879978 g / cm^3
# Si number density = 18.842665 Si / 1000 Ang^3
#
#
#
# Elastic Constant Matrix: (Units=GPa)
#
#
# Indices 1 2 3 4 5 6 
#
# 1 61.7779 35.5053 56.3713 0.0000 0.0000 0.0000
# 2 35.5053 47.9676 35.8053 0.0000 0.0000 0.0000
# 3 56.3713 35.8053 169.1648 0.0000 0.0000 0.0000
# 4 0.0000 0.0000 0.0000 32.0868 0.0000 0.0000
# 5 0.0000 0.0000 0.0000 0.0000 28.1633 0.0000
# 6 0.0000 0.0000 0.0000 0.0000 0.0000 15.5976
#
#
#
# Elastic Compliance Matrix: (Units=1/GPa)
#
#
# Indices 1 2 3 4 5 6 
#
# 1 0.034207 -0.019965 -0.007173 0.000000 0.000000 0.000000
# 2 -0.019965 0.036412 -0.001054 0.000000 0.000000 0.000000
# 3 -0.007173 -0.001054 0.008525 0.000000 0.000000 0.000000
# 4 0.000000 0.000000 0.000000 0.031166 0.000000 0.000000
# 5 0.000000 0.000000 0.000000 0.000000 0.035507 0.000000
# 6 0.000000 0.000000 0.000000 0.000000 0.000000 0.064112
#
#
# Mechanical properties :
#
#
# Convention : Reuss Voigt Hill
#
# Bulk Modulus (GPa) = 43.93796 59.36379 51.65087
# Shear Modulus (GPa) = 18.25484 25.25143 21.75314
#
# Velocity S-wave (km/s) = 3.11594 3.66474 3.40142
# Velocity P-wave (km/s) = 6.02614 7.03423 6.54961
#
# Compressibility (1/GPa) = 0.02275936
#
# Stress axis : x y z
#
# Youngs Moduli (GPa) = 29.23392 27.46326 117.30567
#
# Poissons Ratio (x) = 0.54831 0.84143
# Poissons Ratio (y) = 0.58367 0.12362
# Poissons Ratio (z) = 0.20969 0.02894
#
# Static dielectric constant tensor:
#      x y z
#    x 1.733130 0.000000 0.000000 
#    y 0.000000 1.654620 0.000000 
#    z 0.000000 0.000000 1.702080 
# 
# From -- ./inp_files/23986.got.cif
#   From: 2010.05.17/outbox.cif.g08.bks.cpg/sg23_12_cif.got.tgz:23986.got - 2010.06.04 12:02:01.
