data_PCOD9330806
_publ_section_title
;
Structure prediction by ZEFSAII (Michael W. Deem and Ramdas Pophale) SiO2 
 PCOD9330806
Probable space group: I 2 2 2
;
_chemical_formula_sum "Si O2"
_cell_formula_units_Z 40
_cell_length_a 8.391461
_cell_length_b 26.071016
_cell_length_c 7.451319
_cell_angle_alpha 90.000000
_cell_angle_beta 90.000000
_cell_angle_gamma 90.000000
_cell_volume 1630.154222
_symmetry_space_group_name_H-M "I 2 2 2"
_symmetry_group_IT_number 23
_symmetry_cell_setting 'orthorhombic'
loop_
_space_group_symop_operation_xyz
x,y,z
-x,-y,z
x,-y,-z
-x,y,-z
1/2+x,1/2+y,1/2+z
1/2-x,1/2-y,1/2+z
1/2+x,1/2-y,1/2-z
1/2-x,1/2+y,1/2-z
loop_
_atom_site_type_symbol
_atom_site_label
_atom_site_fract_x
_atom_site_fract_y
_atom_site_fract_z
Si Si1 0.200326 0.051717 0.210671
Si Si2 0.317708 0.328952 0.278375
Si Si3 0.154444 0.352540 0.623095
Si Si4 0.323078 0.441264 0.275323
Si Si5 0.482010 0.758224 0.288686
O O1 0.303668 0.101368 0.256650
O O2 0.013797 0.057751 0.254169
O O3 0.248011 0.995897 0.284957
O O4 0.206634 0.054192 0.991202
O O5 0.303036 0.341375 0.490950
O O6 0.276724 0.385256 0.201553
O O7 0.475754 0.298791 0.218700
O O8 0.182308 0.286266 0.253520
O O9 0.000000 0.367067 0.500000
O O10 0.107117 0.299658 0.713480
O O11 0.500000 0.755748 0.500000
#
# Coordination Sequence:
#
# PCOD9330806 Si02
#       5
#     8   8   8   8   8
#     4   8  14  28  52  80 104 134 167 225 280 310
#     4  10  21  35  56  80 108 140 181 221 265 316
#     4   9  19  35  53  80 110 137 182 221 263 324
#     4   8  15  27  51  81 105 128 177 223 271 320
#     4  11  23  36  53  78 111 148 179 215 265 317
#
# _framework density 24.537554
#
# number of rings (size 3 to 8) (size 9 to 14) (size 15 to 20)
#    0.000    2.800    0.000    2.400    8.400    0.000 
#    0.000   17.000    0.000    2.400    0.000    2.800 
#    0.000    0.000    0.000    0.000    0.000    0.000 
#
# Total GULP energy -111462.865867 kJ/mol
# GULP energy per Si atom -5573.143293 kJ/mol
# Density = 2.448170 g / cm^3
# Si number density = 24.537554 Si / 1000 Ang^3
#
#
#
# Elastic Constant Matrix: (Units=GPa)
#
#
# Indices 1 2 3 4 5 6 
#
# 1 41.2244 71.4115 -3.3056 0.0009 0.0004 0.0011
# 2 71.4115 250.8751 17.0124 0.0011 0.0007 -0.0006
# 3 -3.3056 17.0124 50.7525 0.0167 0.0022 0.0070
# 4 0.0009 0.0011 0.0167 5.7905 0.0012 0.0025
# 5 0.0004 0.0007 0.0022 0.0012 9.2154 0.0013
# 6 0.0011 -0.0006 0.0070 0.0025 0.0013 53.5321
#
#
#
# Elastic Compliance Matrix: (Units=1/GPa)
#
#
# Indices 1 2 3 4 5 6 
#
# 1 0.051129 -0.015123 0.008400 -0.000029 -0.000003 -0.000002
# 2 -0.015123 0.008552 -0.003852 0.000012 0.000001 0.000001
# 3 0.008400 -0.003852 0.021542 -0.000063 -0.000005 -0.000003
# 4 -0.000029 0.000012 -0.000063 0.172698 -0.000023 -0.000008
# 5 -0.000003 0.000001 -0.000005 -0.000023 0.108514 -0.000003
# 6 -0.000002 0.000001 -0.000003 -0.000008 -0.000003 0.018680
#
#
# Mechanical properties :
#
#
# Convention : Reuss Voigt Hill
#
# Bulk Modulus (GPa) = 16.64686 57.00985 36.82835
# Shear Modulus (GPa) = 11.84021 30.88984 21.36503
#
# Velocity S-wave (km/s) = 2.19905 3.55192 2.95398
# Velocity P-wave (km/s) = 3.63960 6.33290 5.16490
#
# Compressibility (1/GPa) = 0.06007139
#
# Stress axis : x y z
#
# Youngs Moduli (GPa) = 19.55851 116.93033 46.42161
#
# Poissons Ratio (x) = 1.76838 -0.38992
# Poissons Ratio (y) = 0.29579 0.17880
# Poissons Ratio (z) = -0.16428 0.45038
#
# Static dielectric constant tensor:
#      x y z
#    x 2.052560 0.000000 0.000000 
#    y 0.000000 2.086440 -0.000010 
#    z 0.000000 -0.000010 2.017430 
# 
# From -- ./inp_files/7105.got.cif
#   From: 2010.05.17/outbox.cif.g08.bks.cpg/sg23_4_cif.got.tgz:7105.got - 2010.06.04 12:02:01.
