data_PCOD9330978
_publ_section_title
;
Structure prediction by ZEFSAII (Michael W. Deem and Ramdas Pophale) SiO2 
 PCOD9330978
Probable space group: I 2 2 2
;
_chemical_formula_sum "Si O2"
_cell_formula_units_Z 40
_cell_length_a 14.068441
_cell_length_b 7.371945
_cell_length_c 17.297613
_cell_angle_alpha 90.000000
_cell_angle_beta 90.000000
_cell_angle_gamma 90.000000
_cell_volume 1793.966118
_symmetry_space_group_name_H-M "I 2 2 2"
_symmetry_group_IT_number 23
_symmetry_cell_setting 'orthorhombic'
loop_
_space_group_symop_operation_xyz
x,y,z
-x,-y,z
x,-y,-z
-x,y,-z
1/2+x,1/2+y,1/2+z
1/2-x,1/2-y,1/2+z
1/2+x,1/2-y,1/2-z
1/2-x,1/2+y,1/2-z
loop_
_atom_site_type_symbol
_atom_site_label
_atom_site_fract_x
_atom_site_fract_y
_atom_site_fract_z
Si Si1 0.286145 0.969109 0.358659
Si Si2 0.646529 0.613897 0.575127
Si Si3 0.127028 0.374583 0.567126
Si Si4 0.500000 0.500000 0.701326
Si Si5 0.374625 0.782038 0.772826
Si Si6 0.663765 0.500000 0.000000
O O1 0.356110 0.831397 0.406095
O O2 0.210175 0.850698 0.306741
O O3 0.228715 0.068518 0.427937
O O4 0.337553 0.104579 0.300209
O O5 0.611777 0.500000 0.500000
O O6 0.759454 0.590605 0.573433
O O7 0.590606 0.533563 0.647225
O O8 0.092638 0.500000 0.500000
O O9 0.096679 0.403424 0.654242
O O10 0.110713 0.168682 0.538086
O O11 0.467239 0.667575 0.751889
#
# Coordination Sequence:
#
# PCOD9330978 Si02
#       6
#     8   8   8   4   8   4
#     4  10  21  38  65  92 122 169 227 268 310 396
#     4   9  20  37  57  88 127 169 204 255 320 394
#     4   9  19  38  64  92 119 163 226 275 310 386
#     4  12  23  36  58  89 142 166 198 266 341 402
#     4  10  22  36  60  97 123 173 212 275 328 388
#     4   8  18  32  60  92 118 150 210 272 318 362
#
# _framework density 22.296963999999999
#
# number of rings (size 3 to 8) (size 9 to 14) (size 15 to 20)
#    0.000    2.800    0.000    2.700   11.200    0.800 
#    0.000    0.000    0.000    9.600    0.000    0.000 
#    0.000    0.000    0.000    0.000    0.000    0.000 
#
# Total GULP energy -111392.489599 kJ/mol
# GULP energy per Si atom -5569.624480 kJ/mol
# Density = 2.224622 g / cm^3
# Si number density = 22.296964 Si / 1000 Ang^3
#
#
#
# Elastic Constant Matrix: (Units=GPa)
#
#
# Indices 1 2 3 4 5 6 
#
# 1 54.6430 27.0368 20.0263 0.0000 0.0000 0.0000
# 2 27.0368 55.7657 43.7622 0.0000 0.0000 0.0000
# 3 20.0263 43.7622 145.2350 0.0000 0.0000 0.0000
# 4 0.0000 0.0000 0.0000 53.6013 0.0000 0.0000
# 5 0.0000 0.0000 0.0000 0.0000 13.1064 0.0000
# 6 0.0000 0.0000 0.0000 0.0000 0.0000 66.8349
#
#
#
# Elastic Compliance Matrix: (Units=1/GPa)
#
#
# Indices 1 2 3 4 5 6 
#
# 1 0.024084 -0.011879 0.000259 0.000000 0.000000 0.000000
# 2 -0.011879 0.029345 -0.007204 0.000000 0.000000 0.000000
# 3 0.000259 -0.007204 0.009021 0.000000 0.000000 0.000000
# 4 0.000000 0.000000 0.000000 0.018656 0.000000 0.000000
# 5 0.000000 0.000000 0.000000 0.000000 0.076298 0.000000
# 6 0.000000 0.000000 0.000000 0.000000 0.000000 0.014962
#
#
# Mechanical properties :
#
#
# Convention : Reuss Voigt Hill
#
# Bulk Modulus (GPa) = 40.32372 48.58825 44.45599
# Shear Modulus (GPa) = 22.90605 37.69641 30.30123
#
# Velocity S-wave (km/s) = 3.20866 4.11621 3.69044
# Velocity P-wave (km/s) = 5.64370 6.66556 6.17580
#
# Compressibility (1/GPa) = 0.02479930
#
# Stress axis : x y z
#
# Youngs Moduli (GPa) = 41.52192 34.07705 110.85836
#
# Poissons Ratio (x) = 0.40482 -0.02867
# Poissons Ratio (y) = 0.49326 0.79865
# Poissons Ratio (z) = -0.01074 0.24550
#
# Static dielectric constant tensor:
#      x y z
#    x 1.842490 0.000000 0.000000 
#    y 0.000000 1.899290 0.000000 
#    z 0.000000 0.000000 1.849420 
# 
# From -- ./inp_files/21381.got.cif
#   From: 2010.05.17/outbox.cif.g08.bks.cpg/sg23_11_cif.got.tgz:21381.got - 2010.06.04 12:02:01.
