data_PCOD9330241
_publ_section_title
;
Structure prediction by ZEFSAII (Michael W. Deem and Ramdas Pophale) SiO2 
 PCOD9330241
Probable space group: I 2 2 2
;
_chemical_formula_sum "Si O2"
_cell_formula_units_Z 48
_cell_length_a 7.709478
_cell_length_b 17.425354
_cell_length_c 14.661420
_cell_angle_alpha 90.000000
_cell_angle_beta 90.000000
_cell_angle_gamma 90.000000
_cell_volume 1969.620783
_symmetry_space_group_name_H-M "I 2 2 2"
_symmetry_group_IT_number 23
_symmetry_cell_setting 'orthorhombic'
loop_
_space_group_symop_operation_xyz
x,y,z
-x,-y,z
x,-y,-z
-x,y,-z
1/2+x,1/2+y,1/2+z
1/2-x,1/2-y,1/2+z
1/2+x,1/2-y,1/2-z
1/2-x,1/2+y,1/2-z
loop_
_atom_site_type_symbol
_atom_site_label
_atom_site_fract_x
_atom_site_fract_y
_atom_site_fract_z
Si Si1 0.205421 0.083658 0.972861
Si Si2 0.789764 0.987311 0.397519
Si Si3 0.502682 0.735766 0.772583
Si Si4 0.177714 0.742930 0.455058
Si Si5 0.172676 0.686275 0.120700
Si Si6 0.634191 0.429306 0.728668
O O1 0.231070 0.086815 0.864773
O O2 0.295531 0.154320 0.021194
O O3 0.000000 0.088982 0.000000
O O4 0.267900 0.000000 0.000000
O O5 0.728430 0.902122 0.372288
O O6 0.723036 0.000000 0.500000
O O7 0.749045 0.045927 0.315276
O O8 0.000000 0.000000 0.402771
O O9 0.354152 0.752694 0.847904
O O10 0.680320 0.738263 0.828992
O O11 0.487977 0.789881 0.684229
O O12 0.474817 0.647179 0.746392
O O13 0.318876 0.789134 0.514590
O O14 0.000000 0.774414 0.500000
O O15 0.500000 0.500000 0.711656
#
# Coordination Sequence:
#
# PCOD9330241 Si02
#       6
#     8   8   8   8   8   8
#     4  11  23  37  61  88 118 162 214 258 307 374
#     4  10  20  33  63  91 119 155 212 263 304 357
#     4  11  23  37  63  89 129 162 203 261 315 371
#     4  10  24  39  55  87 132 158 198 257 327 381
#     4  11  22  39  59  96 124 160 209 258 318 370
#     4  11  19  37  60  91 117 156 209 259 296 369
#
# _framework density 24.370173000000001
#
# number of rings (size 3 to 8) (size 9 to 14) (size 15 to 20)
#    0.000    1.333    6.667    1.000    9.333    0.333 
#    0.000    0.000    0.000    1.000    0.000    2.333 
#    0.000    0.000    0.000    0.000    0.000    0.000 
#
# Total GULP energy -134142.347844 kJ/mol
# GULP energy per Si atom -5589.264494 kJ/mol
# Density = 2.431471 g / cm^3
# Si number density = 24.370173 Si / 1000 Ang^3
#
#
#
# Elastic Constant Matrix: (Units=GPa)
#
#
# Indices 1 2 3 4 5 6 
#
# 1 68.5490 2.4840 3.5710 0.0000 0.0000 0.0000
# 2 2.4840 126.0164 1.9175 0.0000 0.0000 0.0000
# 3 3.5710 1.9175 135.5161 0.0000 0.0000 0.0000
# 4 0.0000 0.0000 0.0000 -58.2866 0.0000 0.0000
# 5 0.0000 0.0000 0.0000 0.0000 8.5391 0.0000
# 6 0.0000 0.0000 0.0000 0.0000 0.0000 0.1284
#
#
#
# Elastic Compliance Matrix: (Units=1/GPa)
#
#
# Indices 1 2 3 4 5 6 
#
# 1 0.014618 -0.000282 -0.000381 0.000000 0.000000 0.000000
# 2 -0.000282 0.007943 -0.000105 0.000000 0.000000 0.000000
# 3 -0.000381 -0.000105 0.007391 0.000000 0.000000 0.000000
# 4 0.000000 0.000000 0.000000 -0.017157 0.000000 -0.000001
# 5 0.000000 0.000000 0.000000 0.000000 0.117108 0.000000
# 6 0.000000 0.000000 0.000000 -0.000001 0.000000 7.785756
#
#
# Mechanical properties :
#
#
# Convention : Reuss Voigt Hill
#
# Bulk Modulus (GPa) = 35.19325 38.44739 36.82032
# Shear Modulus (GPa) = 0.63078 11.55013 6.09045
#
# Velocity S-wave (km/s) = 0.50931 2.17939 1.58258
# Velocity P-wave (km/s) = 3.84946 4.70570 4.29895
#
# Compressibility (1/GPa) = 0.02841454
#
# Stress axis : x y z
#
# Youngs Moduli (GPa) = 68.40790 125.90277 135.30463
#
# Poissons Ratio (x) = 0.03555 0.05158
# Poissons Ratio (y) = 0.01931 0.01420
# Poissons Ratio (z) = 0.02608 0.01321
#
# Static dielectric constant tensor:
#      x y z
#    x 2.088430 0.000000 0.000000 
#    y 0.000000 1.864600 0.000000 
#    z 0.000000 0.000000 1.981020 
# 
# From -- ./inp_files/9957.got.cif
#   From: 2010.05.17/outbox.cif.g08.bks.cpg/sg23_5_cif.got.tgz:9957.got - 2010.06.04 12:02:01.
