data_PCOD9330302
_publ_section_title
;
Structure prediction by ZEFSAII (Michael W. Deem and Ramdas Pophale) SiO2 
 PCOD9330302
Probable space group: I 2 2 2
;
_chemical_formula_sum "Si O2"
_cell_formula_units_Z 56
_cell_length_a 11.289100
_cell_length_b 26.145191
_cell_length_c 12.491548
_cell_angle_alpha 90.000000
_cell_angle_beta 90.000000
_cell_angle_gamma 90.000000
_cell_volume 3686.951291
_symmetry_space_group_name_H-M "I 2 2 2"
_symmetry_group_IT_number 23
_symmetry_cell_setting 'orthorhombic'
loop_
_space_group_symop_operation_xyz
x,y,z
-x,-y,z
x,-y,-z
-x,y,-z
1/2+x,1/2+y,1/2+z
1/2-x,1/2-y,1/2+z
1/2+x,1/2-y,1/2-z
1/2-x,1/2+y,1/2-z
loop_
_atom_site_type_symbol
_atom_site_label
_atom_site_fract_x
_atom_site_fract_y
_atom_site_fract_z
Si Si1 0.641241 0.215818 0.877527
Si Si2 0.738106 0.327740 0.174360
Si Si3 1.000000 0.110111 0.632657
Si Si4 0.761894 0.172259 0.325640
Si Si5 0.214727 0.000000 0.500000
Si Si6 0.000000 0.000000 0.663469
Si Si7 0.637368 0.105226 0.500001
Si Si8 0.358758 0.215818 0.877528
O O1 0.705418 0.179980 0.791153
O O2 0.705136 0.271028 0.867733
O O3 0.499999 0.221379 0.853850
O O4 0.652116 0.198010 0.999999
O O5 0.615868 0.358465 0.163327
O O6 0.827601 0.359503 0.100619
O O7 0.705140 0.271027 0.132265
O O8 0.115871 0.141533 0.663328
O O9 0.999997 0.058119 0.702443
O O10 0.000000 0.101262 0.500000
O O11 0.672397 0.140497 0.399383
O O12 0.705417 0.179979 0.208847
O O13 0.123441 0.000001 0.598093
O O14 0.289597 0.052148 0.499999
O O15 0.500000 0.092926 0.500000
#
# Coordination Sequence:
#
# PCOD9330302 Si02
#       8
#     8   8   8   8   4   4   8   8
#     4  10  20  35  52  72 102 143 180 212 250 308
#     4  11  20  32  52  76 102 140 176 210 260 309
#     4  12  17  32  55  77 106 137 169 217 260 312
#     4  11  20  32  52  76 102 140 176 210 260 309
#     4  11  19  32  50  80 103 135 176 202 272 319
#     4  11  16  30  56  76  99 134 175 212 250 329
#     4  12  22  33  48  77 115 137 167 222 266 310
#     4  10  20  35  52  72 102 143 180 212 250 308
#
# _framework density 15.188701999999999
#
# number of rings (size 3 to 8) (size 9 to 14) (size 15 to 20)
#    0.000    1.000    8.571    1.071    0.000    0.000 
#    0.000    0.714    0.000    0.000    0.000    5.000 
#    0.000   11.429    0.000    0.000    0.000    0.000 
#
# Total GULP energy -155916.172040 kJ/mol
# GULP energy per Si atom -5568.434716 kJ/mol
# Density = 1.515413 g / cm^3
# Si number density = 15.188702 Si / 1000 Ang^3
#
#
#
# Elastic Constant Matrix: (Units=GPa)
#
#
# Indices 1 2 3 4 5 6 
#
# 1 105.1662 28.1292 40.3007 0.0000 0.0000 0.0000
# 2 28.1292 87.3061 36.8641 0.0000 0.0000 0.0000
# 3 40.3007 36.8641 90.2065 0.0001 -0.0001 0.0001
# 4 0.0000 0.0000 0.0001 13.1333 0.0000 0.0000
# 5 0.0000 0.0000 -0.0001 0.0000 28.5835 0.0000
# 6 0.0000 0.0000 0.0001 0.0000 0.0000 13.0177
#
#
#
# Elastic Compliance Matrix: (Units=1/GPa)
#
#
# Indices 1 2 3 4 5 6 
#
# 1 0.011726 -0.001893 -0.004465 0.000000 0.000000 0.000000
# 2 -0.001893 0.014148 -0.004936 0.000000 0.000000 0.000000
# 3 -0.004465 -0.004936 0.015098 0.000000 0.000000 0.000000
# 4 0.000000 0.000000 0.000000 0.076142 0.000000 0.000000
# 5 0.000000 0.000000 0.000000 0.000000 0.034985 0.000000
# 6 0.000000 0.000000 0.000000 0.000000 0.000000 0.076819
#
#
# Mechanical properties :
#
#
# Convention : Reuss Voigt Hill
#
# Bulk Modulus (GPa) = 54.39612 54.80742 54.60177
# Shear Modulus (GPa) = 19.40733 22.77254 21.08993
#
# Velocity S-wave (km/s) = 3.57844 3.87629 3.73034
# Velocity P-wave (km/s) = 7.27770 7.49646 7.38789
#
# Compressibility (1/GPa) = 0.01838366
#
# Stress axis : x y z
#
# Youngs Moduli (GPa) = 85.27957 70.68128 66.23452
#
# Poissons Ratio (x) = 0.13377 0.29576
# Poissons Ratio (y) = 0.16140 0.32695
# Poissons Ratio (z) = 0.38080 0.34890
#
# Static dielectric constant tensor:
#      x y z
#    x 1.504790 0.000000 0.000000 
#    y 0.000000 1.511020 0.000000 
#    z 0.000000 0.000000 1.506560 
# 
# From -- ./inp_files/16078.got.cif
#   From: 2010.05.17/outbox.cif.g08.bks.cpg/sg23_9_cif.got.tgz:16078.got - 2010.06.04 12:02:01.
