data_PCOD9330692
_publ_section_title
;
Structure prediction by ZEFSAII (Michael W. Deem and Ramdas Pophale) SiO2 
 PCOD9330692
Probable space group: I 2 2 2
;
_chemical_formula_sum "Si O2"
_cell_formula_units_Z 56
_cell_length_a 22.933794
_cell_length_b 14.313425
_cell_length_c 8.933799
_cell_angle_alpha 90.000000
_cell_angle_beta 90.000000
_cell_angle_gamma 90.000000
_cell_volume 2932.619048
_symmetry_space_group_name_H-M "I 2 2 2"
_symmetry_group_IT_number 23
_symmetry_cell_setting 'orthorhombic'
loop_
_space_group_symop_operation_xyz
x,y,z
-x,-y,z
x,-y,-z
-x,y,-z
1/2+x,1/2+y,1/2+z
1/2-x,1/2-y,1/2+z
1/2+x,1/2-y,1/2-z
1/2-x,1/2+y,1/2-z
loop_
_atom_site_type_symbol
_atom_site_label
_atom_site_fract_x
_atom_site_fract_y
_atom_site_fract_z
Si Si1 0.237160 0.978426 0.172888
Si Si2 0.796253 0.188301 0.793074
Si Si3 0.315454 0.285930 0.353443
Si Si4 0.083742 0.353776 0.747242
Si Si5 0.916988 0.736919 0.239511
Si Si6 0.142339 0.538418 0.828999
Si Si7 0.500000 0.791980 0.500000
Si Si8 0.000000 0.707780 0.500000
O O1 0.189111 0.896642 0.177891
O O2 0.292513 0.944803 0.269044
O O3 0.214532 0.078470 0.224955
O O4 0.254790 0.000000 0.000000
O O5 0.740722 0.239235 0.723796
O O6 0.857003 0.214807 0.718245
O O7 0.806711 0.219632 0.966477
O O8 0.371426 0.229845 0.290996
O O9 0.118273 0.449462 0.741736
O O10 0.034606 0.352628 0.877326
O O11 0.049747 0.344862 0.592500
O O12 0.897730 0.628985 0.203011
O O13 0.963141 0.755926 0.369924
O O14 0.951128 0.766274 0.088842
O O15 0.143078 0.500000 0.000000
#
# Coordination Sequence:
#
# PCOD9330692 Si02
#       8
#     8   8   8   8   8   8   4   4
#     4  10  24  38  59  94 129 158 196 247 314 367
#     4  11  22  39  64  91 123 161 199 253 310 359
#     4  11  22  39  64  91 123 161 199 253 310 359
#     4  11  23  40  62  86 124 159 207 251 302 362
#     4  11  23  40  62  86 124 159 207 251 302 362
#     4  12  22  35  59  93 123 159 202 248 298 371
#     4  10  20  41  58  83 114 164 202 251 292 363
#     4  10  28  41  60  89 120 170 206 247 302 361
#
# _framework density 19.095559000000002
#
# number of rings (size 3 to 8) (size 9 to 14) (size 15 to 20)
#    0.000    1.143    5.714    0.000    4.000    3.429 
#    0.000    0.000    0.000    5.143    0.000    0.000 
#    0.000    0.000    0.000    0.000    0.000    0.000 
#
# Total GULP energy -156123.764978 kJ/mol
# GULP energy per Si atom -5575.848749 kJ/mol
# Density = 1.905210 g / cm^3
# Si number density = 19.095559 Si / 1000 Ang^3
#
#
#
# Elastic Constant Matrix: (Units=GPa)
#
#
# Indices 1 2 3 4 5 6 
#
# 1 104.4731 33.6718 23.5655 0.0000 0.0000 0.0000
# 2 33.6718 80.6590 8.5289 0.0000 0.0000 0.0000
# 3 23.5655 8.5289 51.5268 0.0000 0.0000 0.0000
# 4 0.0000 0.0000 0.0000 7.9077 0.0000 0.0000
# 5 0.0000 0.0000 0.0000 0.0000 38.8754 0.0000
# 6 0.0000 0.0000 0.0000 0.0000 0.0000 -214.0420
#
#
#
# Elastic Compliance Matrix: (Units=1/GPa)
#
#
# Indices 1 2 3 4 5 6 
#
# 1 0.012120 -0.004553 -0.004789 0.000000 0.000000 0.000000
# 2 -0.004553 0.014329 -0.000290 0.000000 0.000000 0.000000
# 3 -0.004789 -0.000290 0.021646 0.000000 0.000000 0.000000
# 4 0.000000 0.000000 0.000000 0.126459 0.000000 0.000000
# 5 0.000000 0.000000 0.000000 0.000000 0.025723 0.000000
# 6 0.000000 0.000000 0.000000 0.000000 0.000000 -0.004672
#
#
# Mechanical properties :
#
#
# Convention : Reuss Voigt Hill
#
# Bulk Modulus (GPa) = 34.68498 40.91015 37.79756
# Shear Modulus (GPa) = 22.27386 -22.05895 0.10745
#
# Velocity S-wave (km/s) = 3.41903 -3.40249 0.23747
# Velocity P-wave (km/s) = 5.81289 2.45652 4.46229
#
# Compressibility (1/GPa) = 0.02883093
#
# Stress axis : x y z
#
# Youngs Moduli (GPa) = 82.51122 69.78765 46.19871
#
# Poissons Ratio (x) = 0.31774 0.22125
# Poissons Ratio (y) = 0.37567 0.01338
# Poissons Ratio (z) = 0.39516 0.02020
#
# Static dielectric constant tensor:
#      x y z
#    x 1.682020 0.000000 0.000000 
#    y 0.000000 1.652880 0.000000 
#    z 0.000000 0.000000 1.822150 
# 
# From -- ./inp_files/12078.got.cif
#   From: 2010.05.17/outbox.cif.g08.bks.cpg/sg23_7_cif.got.tgz:12078.got - 2010.06.04 12:02:01.
