data_PCOD9330117
_publ_section_title
;
Structure prediction by ZEFSAII (Michael W. Deem and Ramdas Pophale) SiO2 
 PCOD9330117
Probable space group: I 2 2 2
;
_chemical_formula_sum "Si O2"
_cell_formula_units_Z 64
_cell_length_a 22.860344
_cell_length_b 14.405437
_cell_length_c 9.148266
_cell_angle_alpha 90.000000
_cell_angle_beta 90.000000
_cell_angle_gamma 90.000000
_cell_volume 3012.645165
_symmetry_space_group_name_H-M "I 2 2 2"
_symmetry_group_IT_number 23
_symmetry_cell_setting 'orthorhombic'
loop_
_space_group_symop_operation_xyz
x,y,z
-x,-y,z
x,-y,-z
-x,y,-z
1/2+x,1/2+y,1/2+z
1/2-x,1/2-y,1/2+z
1/2+x,1/2-y,1/2-z
1/2-x,1/2+y,1/2-z
loop_
_atom_site_type_symbol
_atom_site_label
_atom_site_fract_x
_atom_site_fract_y
_atom_site_fract_z
Si Si1 0.419524 0.700612 0.191175
Si Si2 0.607253 0.600622 0.070389
Si Si3 0.305617 0.171152 0.842174
Si Si4 0.607654 0.993388 0.835163
Si Si5 0.070321 0.996901 0.833235
Si Si6 0.735044 0.315149 0.953816
Si Si7 0.049243 0.645507 0.882995
Si Si8 0.152652 0.399224 0.919158
O O1 0.360549 0.761324 0.190172
O O2 0.410372 0.601979 0.268059
O O3 0.463320 0.763342 0.285933
O O4 0.430345 0.674882 0.021596
O O5 0.593554 0.583287 0.238888
O O6 0.674506 0.628376 0.046041
O O7 0.594815 0.500000 0.000000
O O8 0.334025 0.070008 0.850083
O O9 0.262077 0.178252 0.706648
O O10 0.277792 0.211389 0.989611
O O11 0.563412 0.936886 0.730459
O O12 0.627241 0.083542 0.742885
O O13 0.584512 0.000000 0.000000
O O14 0.000000 0.000000 0.824184
O O15 0.088891 0.000000 0.000000
O O16 0.782976 0.357696 0.065003
O O17 0.107378 0.659026 0.982414
O O18 0.000000 0.622434 0.000000
O O19 0.154063 0.500000 0.000000
#
# Coordination Sequence:
#
# PCOD9330117 Si02
#       8
#     8   8   8   8   8   8   8   8
#     4   9  19  40  59  85 127 158 211 260 311 395
#     4   9  20  36  61  86 124 169 208 259 320 379
#     4  10  22  37  59  90 129 168 210 267 325 383
#     4  10  22  41  62  94 130 169 220 269 327 404
#     4  10  22  39  63  93 123 169 216 267 317 380
#     4  11  20  37  59  91 128 166 213 263 326 387
#     4  10  21  40  68  94 121 169 213 267 336 387
#     4  10  19  38  65  86 123 171 214 258 326 396
#
# _framework density 21.243789
#
# number of rings (size 3 to 8) (size 9 to 14) (size 15 to 20)
#    0.000    2.125    3.750    0.375    3.500    5.500 
#    0.000    1.875    5.500    0.000    0.000    0.000 
#    0.000    0.000    0.000    0.000    0.000    0.000 
#
# Total GULP energy -178541.708060 kJ/mol
# GULP energy per Si atom -5579.428377 kJ/mol
# Density = 2.119544 g / cm^3
# Si number density = 21.243789 Si / 1000 Ang^3
#
#
#
# Elastic Constant Matrix: (Units=GPa)
#
#
# Indices 1 2 3 4 5 6 
#
# 1 55.8873 7.5948 37.3106 0.0000 0.0000 0.0000
# 2 7.5948 44.2959 37.7263 0.0000 0.0000 0.0000
# 3 37.3106 37.7263 158.7023 0.0000 0.0000 0.0000
# 4 0.0000 0.0000 0.0000 38.3595 0.0000 0.0000
# 5 0.0000 0.0000 0.0000 0.0000 26.0086 0.0000
# 6 0.0000 0.0000 0.0000 0.0000 0.0000 9.5692
#
#
#
# Elastic Compliance Matrix: (Units=1/GPa)
#
#
# Indices 1 2 3 4 5 6 
#
# 1 0.021245 0.000766 -0.005177 0.000000 0.000000 0.000000
# 2 0.000766 0.028334 -0.006916 0.000000 0.000000 0.000000
# 3 -0.005177 -0.006916 0.009162 0.000000 0.000000 0.000000
# 4 0.000000 0.000000 0.000000 0.026069 0.000000 0.000000
# 5 0.000000 0.000000 0.000000 0.000000 0.038449 0.000000
# 6 0.000000 0.000000 0.000000 0.000000 0.000000 0.104502
#
#
# Mechanical properties :
#
#
# Convention : Reuss Voigt Hill
#
# Bulk Modulus (GPa) = 27.70920 47.12769 37.41845
# Shear Modulus (GPa) = 19.05174 26.53770 22.79472
#
# Velocity S-wave (km/s) = 2.99794 3.53823 3.27923
# Velocity P-wave (km/s) = 5.00552 6.23895 5.65596
#
# Compressibility (1/GPa) = 0.03608910
#
# Stress axis : x y z
#
# Youngs Moduli (GPa) = 47.06970 35.29321 109.14451
#
# Poissons Ratio (x) = -0.02705 0.56503
# Poissons Ratio (y) = -0.03608 0.75481
# Poissons Ratio (z) = 0.24367 0.24408
#
# Static dielectric constant tensor:
#      x y z
#    x 1.779240 0.000000 0.000000 
#    y 0.000000 1.779790 0.000000 
#    z 0.000000 0.000000 1.819170 
# 
# From -- ./inp_files/12710.got.cif
#   From: 2010.05.17/outbox.cif.g08.bks.cpg/sg23_7_cif.got.tgz:12710.got - 2010.06.04 12:02:01.
