data_PCOD9330808
_publ_section_title
;
Structure prediction by ZEFSAII (Michael W. Deem and Ramdas Pophale) SiO2 
 PCOD9330808
Probable space group: I 2 2 2
;
_chemical_formula_sum "Si O2"
_cell_formula_units_Z 56
_cell_length_a 22.143712
_cell_length_b 15.871523
_cell_length_c 8.103943
_cell_angle_alpha 90.000000
_cell_angle_beta 90.000000
_cell_angle_gamma 90.000000
_cell_volume 2848.166703
_symmetry_space_group_name_H-M "I 2 2 2"
_symmetry_group_IT_number 23
_symmetry_cell_setting 'orthorhombic'
loop_
_space_group_symop_operation_xyz
x,y,z
-x,-y,z
x,-y,-z
-x,y,-z
1/2+x,1/2+y,1/2+z
1/2-x,1/2-y,1/2+z
1/2+x,1/2-y,1/2-z
1/2-x,1/2+y,1/2-z
loop_
_atom_site_type_symbol
_atom_site_label
_atom_site_fract_x
_atom_site_fract_y
_atom_site_fract_z
Si Si1 0.667734 0.170088 0.627146
Si Si2 0.007342 0.097488 0.803369
Si Si3 0.439077 0.887288 0.394437
Si Si4 0.248261 0.582528 0.887191
Si Si5 0.943293 0.242031 0.619579
Si Si6 0.367395 0.327326 0.166812
Si Si7 0.147498 0.500096 0.691476
O O1 0.607943 0.152979 0.521466
O O2 0.722024 0.158362 0.498215
O O3 0.662339 0.258660 0.713899
O O4 0.668080 0.093373 0.757360
O O5 0.071631 0.133951 0.743959
O O6 0.957729 0.156707 0.718937
O O7 0.000000 0.000000 0.754535
O O8 0.000000 0.103627 0.000000
O O9 0.500000 0.900275 0.500000
O O10 0.442931 0.819427 0.246120
O O11 0.407504 0.968644 0.309135
O O12 0.317474 0.600801 0.853006
O O13 0.203182 0.563206 0.735055
O O14 0.241423 0.500000 0.000000
O O15 0.886875 0.221439 0.501027
O O16 0.000000 0.257977 0.500000
O O17 0.130855 0.500000 0.500000
#
# Coordination Sequence:
#
# PCOD9330808 Si02
#       7
#     8   8   8   8   8   8   8
#     4  10  22  40  58  86 123 157 197 261 311 371
#     4  10  22  40  58  86 130 163 201 263 319 370
#     4  11  21  38  62  85 121 163 200 247 320 387
#     4   9  22  41  61  88 123 164 211 263 323 384
#     4  10  21  35  57  88 120 154 200 259 300 370
#     4  11  22  37  66  92 119 169 217 252 326 386
#     4  10  22  42  61  85 125 158 202 268 316 367
#
# _framework density 19.661770000000001
#
# number of rings (size 3 to 8) (size 9 to 14) (size 15 to 20)
#    0.000    1.857    0.000    5.143    2.000    6.571 
#    2.571    2.143    0.000    0.000    0.000    0.000 
#    0.000    0.000    0.000    0.000    0.000    0.000 
#
# Total GULP energy -156310.880387 kJ/mol
# GULP energy per Si atom -5582.531442 kJ/mol
# Density = 1.961702 g / cm^3
# Si number density = 19.661770 Si / 1000 Ang^3
#
#
#
# Elastic Constant Matrix: (Units=GPa)
#
#
# Indices 1 2 3 4 5 6 
#
# 1 75.5922 -3.0203 19.5599 0.0000 0.0000 0.0000
# 2 -3.0203 64.4331 8.4812 0.0000 0.0000 0.0000
# 3 19.5599 8.4812 76.6305 0.0000 0.0000 0.0000
# 4 0.0000 0.0000 0.0000 24.0886 0.0000 0.0000
# 5 0.0000 0.0000 0.0000 0.0000 10.3275 0.0000
# 6 0.0000 0.0000 0.0000 0.0000 0.0000 13.8483
#
#
#
# Elastic Compliance Matrix: (Units=1/GPa)
#
#
# Indices 1 2 3 4 5 6 
#
# 1 0.014250 0.001164 -0.003766 0.000000 0.000000 0.000000
# 2 0.001164 0.015844 -0.002051 0.000000 0.000000 0.000000
# 3 -0.003766 -0.002051 0.014238 0.000000 0.000000 0.000000
# 4 0.000000 0.000000 0.000000 0.041513 0.000000 0.000000
# 5 0.000000 0.000000 0.000000 0.000000 0.096829 0.000000
# 6 0.000000 0.000000 0.000000 0.000000 0.000000 0.072211
#
#
# Mechanical properties :
#
#
# Convention : Reuss Voigt Hill
#
# Bulk Modulus (GPa) = 28.55011 29.63305 29.09158
# Shear Modulus (GPa) = 18.12467 22.42853 20.27660
#
# Velocity S-wave (km/s) = 3.03945 3.38112 3.21482
# Velocity P-wave (km/s) = 5.18361 5.50879 5.34867
#
# Compressibility (1/GPa) = 0.03502613
#
# Stress axis : x y z
#
# Youngs Moduli (GPa) = 70.17617 63.11357 70.23518
#
# Poissons Ratio (x) = -0.07344 0.26451
# Poissons Ratio (y) = -0.08166 0.14403
# Poissons Ratio (z) = 0.26429 0.12942
#
# Static dielectric constant tensor:
#      x y z
#    x 1.676210 0.000000 0.000000 
#    y 0.000000 1.703870 0.000000 
#    z 0.000000 0.000000 1.697470 
# 
# From -- ./inp_files/12068.got.cif
#   From: 2010.05.17/outbox.cif.g08.bks.cpg/sg23_7_cif.got.tgz:12068.got - 2010.06.04 12:02:01.
