data_PCOD9330999
_publ_section_title
;
Structure prediction by ZEFSAII (Michael W. Deem and Ramdas Pophale) SiO2 
 PCOD9330999
Probable space group: I 2 2 2
;
_chemical_formula_sum "Si O2"
_cell_formula_units_Z 40
_cell_length_a 11.870216
_cell_length_b 14.314543
_cell_length_c 12.247130
_cell_angle_alpha 90.000000
_cell_angle_beta 90.000000
_cell_angle_gamma 90.000000
_cell_volume 2080.992127
_symmetry_space_group_name_H-M "I 2 2 2"
_symmetry_group_IT_number 23
_symmetry_cell_setting 'orthorhombic'
loop_
_space_group_symop_operation_xyz
x,y,z
-x,-y,z
x,-y,-z
-x,y,-z
1/2+x,1/2+y,1/2+z
1/2-x,1/2-y,1/2+z
1/2+x,1/2-y,1/2-z
1/2-x,1/2+y,1/2-z
loop_
_atom_site_type_symbol
_atom_site_label
_atom_site_fract_x
_atom_site_fract_y
_atom_site_fract_z
Si Si1 0.427186 0.254141 0.161906
Si Si2 0.395414 0.935772 0.705841
Si Si3 0.161538 0.270497 0.422162
Si Si4 0.764635 0.393920 0.772040
Si Si5 0.619204 0.833993 0.504457
O O1 0.407409 0.165853 0.240405
O O2 0.558660 0.278237 0.143653
O O3 0.353445 0.343086 0.199836
O O4 0.384664 0.216109 0.044303
O O5 0.402004 0.919770 0.576796
O O6 0.500000 0.000000 0.743391
O O7 0.281860 0.994621 0.728881
O O8 0.193223 0.356285 0.344408
O O9 0.275920 0.215543 0.446034
O O10 0.844397 0.358858 0.872660
O O11 0.500000 0.779893 0.500000
#
# Coordination Sequence:
#
# PCOD9330999 Si02
#       5
#     8   8   8   8   8
#     4  10  22  40  58  89 125 163 209 248 315 379
#     4  12  21  36  64  94 121 155 210 261 308 363
#     4  10  21  39  60  84 128 165 196 255 314 374
#     4  11  22  36  59  91 120 162 198 260 312 356
#     4  11  21  36  62  93 121 153 207 257 306 369
#
# _framework density 19.221601
#
# number of rings (size 3 to 8) (size 9 to 14) (size 15 to 20)
#    0.000    1.200    6.000    0.600    0.000    0.800 
#    0.000    1.000    0.000    4.800    0.000    1.400 
#    0.000    0.000    0.000    0.000    0.000    0.000 
#
# Total GULP energy -111350.888792 kJ/mol
# GULP energy per Si atom -5567.544440 kJ/mol
# Density = 1.917785 g / cm^3
# Si number density = 19.221601 Si / 1000 Ang^3
#
#
#
# Elastic Constant Matrix: (Units=GPa)
#
#
# Indices 1 2 3 4 5 6 
#
# 1 130.2294 46.1933 23.5939 0.0000 0.0000 0.0000
# 2 46.1933 60.4536 18.5211 0.0000 0.0000 0.0000
# 3 23.5939 18.5211 63.1008 0.0000 0.0000 0.0000
# 4 0.0000 0.0000 0.0000 28.2890 0.0000 0.0000
# 5 0.0000 0.0000 0.0000 0.0000 23.6322 0.0000
# 6 0.0000 0.0000 0.0000 0.0000 0.0000 27.4424
#
#
#
# Elastic Compliance Matrix: (Units=1/GPa)
#
#
# Indices 1 2 3 4 5 6 
#
# 1 0.010709 -0.007643 -0.001761 0.000000 0.000000 0.000000
# 2 -0.007643 0.023631 -0.004078 0.000000 0.000000 0.000000
# 3 -0.001761 -0.004078 0.017703 0.000000 0.000000 0.000000
# 4 0.000000 0.000000 0.000000 0.035349 0.000000 0.000000
# 5 0.000000 0.000000 0.000000 0.000000 0.042315 0.000000
# 6 0.000000 0.000000 0.000000 0.000000 0.000000 0.036440
#
#
# Mechanical properties :
#
#
# Convention : Reuss Voigt Hill
#
# Bulk Modulus (GPa) = 39.87450 47.82227 43.84838
# Shear Modulus (GPa) = 24.81732 26.90442 25.86087
#
# Velocity S-wave (km/s) = 3.59711 3.74531 3.67196
# Velocity P-wave (km/s) = 6.16781 6.60580 6.39056
#
# Compressibility (1/GPa) = 0.02507868
#
# Stress axis : x y z
#
# Youngs Moduli (GPa) = 93.38015 42.31646 56.48751
#
# Poissons Ratio (x) = 0.32344 0.09946
# Poissons Ratio (y) = 0.71374 0.23037
# Poissons Ratio (z) = 0.16441 0.17258
#
# Static dielectric constant tensor:
#      x y z
#    x 1.786520 0.000000 0.000000 
#    y 0.000000 1.674320 0.000000 
#    z 0.000000 0.000000 1.693630 
# 
# From -- ./inp_files/15518.got.cif
#   From: 2010.05.17/outbox.cif.g08.bks.cpg/sg23_8_cif.got.tgz:15518.got - 2010.06.04 12:02:01.
