data_PCOD9330601
_publ_section_title
;
Structure prediction by ZEFSAII (Michael W. Deem and Ramdas Pophale) SiO2 
 PCOD9330601
Probable space group: I 2 2 2
;
_chemical_formula_sum "Si O2"
_cell_formula_units_Z 52
_cell_length_a 15.195565
_cell_length_b 11.332824
_cell_length_c 13.555579
_cell_angle_alpha 90.000000
_cell_angle_beta 90.000000
_cell_angle_gamma 90.000000
_cell_volume 2334.388146
_symmetry_space_group_name_H-M "I 2 2 2"
_symmetry_group_IT_number 23
_symmetry_cell_setting 'orthorhombic'
loop_
_space_group_symop_operation_xyz
x,y,z
-x,-y,z
x,-y,-z
-x,y,-z
1/2+x,1/2+y,1/2+z
1/2-x,1/2-y,1/2+z
1/2+x,1/2-y,1/2-z
1/2-x,1/2+y,1/2-z
loop_
_atom_site_type_symbol
_atom_site_label
_atom_site_fract_x
_atom_site_fract_y
_atom_site_fract_z
Si Si1 0.565522 0.609928 0.390128
Si Si2 0.678157 0.106407 0.060952
Si Si3 0.231401 0.037275 0.193862
Si Si4 0.219505 0.949504 0.396925
Si Si5 0.000000 0.708185 0.500000
Si Si6 0.183798 0.761966 0.957737
Si Si7 0.038947 0.866473 0.319400
O O1 0.500000 0.500000 0.406046
O O2 0.651942 0.546127 0.344593
O O3 0.598499 0.686097 0.484416
O O4 0.529091 0.678094 0.293353
O O5 0.683120 0.043458 0.166202
O O6 0.586791 0.130467 0.008785
O O7 0.739045 0.217976 0.039465
O O8 0.724227 0.000000 0.000000
O O9 0.231520 0.045780 0.311391
O O10 0.212179 0.158639 0.136819
O O11 0.305568 0.871731 0.422105
O O12 0.140775 0.869103 0.353595
O O13 0.186635 0.000000 0.500000
O O14 0.994179 0.787500 0.402130
O O15 0.000000 0.000000 0.322375
#
# Coordination Sequence:
#
# PCOD9330601 Si02
#       7
#     8   8   8   8   4   8   8
#     4   9  19  38  62  90 126 166 219 271 324 392
#     4   9  19  35  55  82 117 156 210 263 310 390
#     4   9  21  38  58  84 126 159 215 267 320 402
#     4  11  22  38  59  93 124 169 216 270 337 403
#     4  12  18  32  60  84 126 166 208 266 344 386
#     4  10  20  39  61  87 123 167 213 271 333 390
#     4  10  21  35  54  92 132 164 212 273 335 391
#
# _framework density 22.275645000000001
#
# number of rings (size 3 to 8) (size 9 to 14) (size 15 to 20)
#    0.000    2.154    1.538    2.769    0.000    4.923 
#    5.538    0.000    0.000    0.000    0.000    2.154 
#    0.000    0.000    0.000    0.000    0.000    0.000 
#
# Total GULP energy -144754.599979 kJ/mol
# GULP energy per Si atom -5567.484615 kJ/mol
# Density = 2.222494 g / cm^3
# Si number density = 22.275645 Si / 1000 Ang^3
#
#
#
# Elastic Constant Matrix: (Units=GPa)
#
#
# Indices 1 2 3 4 5 6 
#
# 1 70.0871 11.1441 15.6348 0.0000 0.0000 0.0000
# 2 11.1441 49.8303 39.7100 0.0000 0.0000 0.0000
# 3 15.6348 39.7100 170.0612 0.0000 0.0000 0.0000
# 4 0.0000 0.0000 0.0000 12.7804 0.0000 0.0000
# 5 0.0000 0.0000 0.0000 0.0000 25.2023 0.0000
# 6 0.0000 0.0000 0.0000 0.0000 0.0000 23.9946
#
#
#
# Elastic Compliance Matrix: (Units=1/GPa)
#
#
# Indices 1 2 3 4 5 6 
#
# 1 0.014867 -0.002747 -0.000725 0.000000 0.000000 0.000000
# 2 -0.002747 0.025164 -0.005623 0.000000 0.000000 0.000000
# 3 -0.000725 -0.005623 0.007260 0.000000 0.000000 0.000000
# 4 0.000000 0.000000 0.000000 0.078245 0.000000 0.000000
# 5 0.000000 0.000000 0.000000 0.000000 0.039679 0.000000
# 6 0.000000 0.000000 0.000000 0.000000 0.000000 0.041676
#
#
# Mechanical properties :
#
#
# Convention : Reuss Voigt Hill
#
# Bulk Modulus (GPa) = 34.36501 46.99514 40.68007
# Shear Modulus (GPa) = 21.29649 27.29477 24.29563
#
# Velocity S-wave (km/s) = 3.09535 3.50425 3.30613
# Velocity P-wave (km/s) = 5.31372 6.12503 5.73374
#
# Compressibility (1/GPa) = 0.02909937
#
# Stress axis : x y z
#
# Youngs Moduli (GPa) = 67.26523 39.73989 137.74126
#
# Poissons Ratio (x) = 0.10915 0.09992
# Poissons Ratio (y) = 0.18476 0.77456
# Poissons Ratio (z) = 0.04879 0.22347
#
# Static dielectric constant tensor:
#      x y z
#    x 1.937890 0.000000 0.000000 
#    y 0.000000 1.812250 0.000000 
#    z 0.000000 0.000000 2.026470 
# 
# From -- ./inp_files/22117.got.cif
#   From: 2010.05.17/outbox.cif.g08.bks.cpg/sg23_12_cif.got.tgz:22117.got - 2010.06.04 12:02:01.
