data_PCOD9330068
_publ_section_title
;
Structure prediction by ZEFSAII (Michael W. Deem and Ramdas Pophale) SiO2 
 PCOD9330068
Probable space group: I 2 2 2
;
_chemical_formula_sum "Si O2"
_cell_formula_units_Z 64
_cell_length_a 17.723733
_cell_length_b 16.035547
_cell_length_c 11.563478
_cell_angle_alpha 90.000000
_cell_angle_beta 90.000000
_cell_angle_gamma 90.000000
_cell_volume 3286.453232
_symmetry_space_group_name_H-M "I 2 2 2"
_symmetry_group_IT_number 23
_symmetry_cell_setting 'orthorhombic'
loop_
_space_group_symop_operation_xyz
x,y,z
-x,-y,z
x,-y,-z
-x,y,-z
1/2+x,1/2+y,1/2+z
1/2-x,1/2-y,1/2+z
1/2+x,1/2-y,1/2-z
1/2-x,1/2+y,1/2-z
loop_
_atom_site_type_symbol
_atom_site_label
_atom_site_fract_x
_atom_site_fract_y
_atom_site_fract_z
Si Si1 0.107530 0.607398 0.069749
Si Si2 0.262481 0.831478 0.297173
Si Si3 0.609678 0.731080 0.288616
Si Si4 0.007070 0.095167 0.137594
Si Si5 0.004779 0.679525 0.635059
Si Si6 0.872920 0.190420 0.727168
Si Si7 0.092028 0.562041 0.809416
Si Si8 0.284566 0.593071 0.030126
O O1 0.097052 0.701074 0.111098
O O2 0.082382 0.535723 0.160357
O O3 0.196687 0.588446 0.063356
O O4 0.077502 0.599117 0.938700
O O5 0.195150 0.802247 0.213225
O O6 0.318497 0.753126 0.295895
O O7 0.321047 0.909196 0.278421
O O8 0.217987 0.851437 0.414698
O O9 0.557500 0.651635 0.307016
O O10 0.575544 0.783828 0.180107
O O11 0.085095 0.132435 0.181916
O O12 0.000000 0.000000 0.174521
O O13 0.000000 0.099934 0.000000
O O14 0.065211 0.753183 0.660536
O O15 0.039664 0.604371 0.712546
O O16 0.000000 0.658854 0.500000
O O17 0.829370 0.136141 0.632763
O O18 0.311923 0.500000 0.000000
#
# Coordination Sequence:
#
# PCOD9330068 Si02
#       8
#     8   8   8   8   8   8   8   8
#     4  10  19  37  61 100 121 153 214 263 318 366
#     4  10  20  35  61  97 120 160 200 254 323 373
#     4  11  23  36  65  89 121 163 210 255 313 379
#     4  10  25  43  60  87 124 168 216 259 311 377
#     4  10  22  41  58  88 129 167 208 244 309 386
#     4  10  22  39  64  90 130 166 203 265 317 368
#     4   9  20  38  62  89 129 158 203 267 315 368
#     4  11  20  36  64  96 125 155 206 271 314 376
#
# _framework density 19.473883000000001
#
# number of rings (size 3 to 8) (size 9 to 14) (size 15 to 20)
#    0.000    1.875    3.750    0.750    8.750    0.500 
#    0.000    2.500    0.000    0.000    0.000    0.000 
#    0.000    0.000    0.000    0.000    0.000    0.000 
#
# Total GULP energy -178459.382484 kJ/mol
# GULP energy per Si atom -5576.855703 kJ/mol
# Density = 1.942956 g / cm^3
# Si number density = 19.473883 Si / 1000 Ang^3
#
#
#
# Elastic Constant Matrix: (Units=GPa)
#
#
# Indices 1 2 3 4 5 6 
#
# 1 54.5962 21.7320 19.0347 0.0000 0.0000 0.0000
# 2 21.7320 120.1845 51.8535 0.0000 0.0000 0.0000
# 3 19.0347 51.8535 85.5839 0.0000 0.0000 0.0000
# 4 0.0000 0.0000 0.0000 21.8123 0.0000 0.0000
# 5 0.0000 0.0000 0.0000 0.0000 30.2281 0.0000
# 6 0.0000 0.0000 0.0000 0.0000 0.0000 20.3056
#
#
#
# Elastic Compliance Matrix: (Units=1/GPa)
#
#
# Indices 1 2 3 4 5 6 
#
# 1 0.020329 -0.002336 -0.003106 0.000000 0.000000 0.000000
# 2 -0.002336 0.011534 -0.006469 0.000000 0.000000 0.000000
# 3 -0.003106 -0.006469 0.016294 0.000000 0.000000 0.000000
# 4 0.000000 0.000000 0.000000 0.045846 0.000000 0.000000
# 5 0.000000 0.000000 0.000000 0.000000 0.033082 0.000000
# 6 0.000000 0.000000 0.000000 0.000000 0.000000 0.049247
#
#
# Mechanical properties :
#
#
# Convention : Reuss Voigt Hill
#
# Bulk Modulus (GPa) = 41.09105 49.51166 45.30135
# Shear Modulus (GPa) = 24.00786 25.65217 24.83001
#
# Velocity S-wave (km/s) = 3.51497 3.63335 3.57465
# Velocity P-wave (km/s) = 6.13349 6.56365 6.35221
#
# Compressibility (1/GPa) = 0.02433620
#
# Stress axis : x y z
#
# Youngs Moduli (GPa) = 49.19080 86.70202 61.37062
#
# Poissons Ratio (x) = 0.20252 0.19063
# Poissons Ratio (y) = 0.11490 0.39698
# Poissons Ratio (z) = 0.15279 0.56084
#
# Static dielectric constant tensor:
#      x y z
#    x 1.739360 0.000000 0.000000 
#    y 0.000000 1.682850 0.000000 
#    z 0.000000 0.000000 1.681700 
# 
# From -- ./inp_files/17602.got.cif
#   From: 2010.05.17/outbox.cif.g08.bks.cpg/sg23_9_cif.got.tgz:17602.got - 2010.06.04 12:02:01.
