data_PCOD9330389
_publ_section_title
;
Structure prediction by ZEFSAII (Michael W. Deem and Ramdas Pophale) SiO2 
 PCOD9330389
Probable space group: I 2 2 2
;
_chemical_formula_sum "Si O2"
_cell_formula_units_Z 56
_cell_length_a 17.279904
_cell_length_b 5.218875
_cell_length_c 30.833425
_cell_angle_alpha 90.000000
_cell_angle_beta 90.000000
_cell_angle_gamma 90.000000
_cell_volume 2780.609419
_symmetry_space_group_name_H-M "I 2 2 2"
_symmetry_group_IT_number 23
_symmetry_cell_setting 'orthorhombic'
loop_
_space_group_symop_operation_xyz
x,y,z
-x,-y,z
x,-y,-z
-x,y,-z
1/2+x,1/2+y,1/2+z
1/2-x,1/2-y,1/2+z
1/2+x,1/2-y,1/2-z
1/2-x,1/2+y,1/2-z
loop_
_atom_site_type_symbol
_atom_site_label
_atom_site_fract_x
_atom_site_fract_y
_atom_site_fract_z
Si Si1 0.048617 0.736164 0.176282
Si Si2 0.232470 0.124997 0.724589
Si Si3 0.672657 0.702465 0.394136
Si Si4 0.767417 0.195009 0.377791
Si Si5 0.588374 0.747848 0.480512
Si Si6 0.949064 0.264491 0.367872
Si Si7 0.569297 0.305150 0.772046
O O1 0.128229 0.779239 0.151433
O O2 0.066003 0.666216 0.226159
O O3 0.000000 0.500000 0.156955
O O4 0.000000 0.000000 0.174262
O O5 0.226505 0.401465 0.748298
O O6 0.251412 0.171048 0.674208
O O7 0.145192 0.021573 0.725488
O O8 0.720321 0.439352 0.395476
O O9 0.603645 0.729313 0.429629
O O10 0.731854 0.937857 0.398197
O O11 0.860500 0.222380 0.384308
O O12 0.627648 0.500000 0.500000
O O13 0.500000 0.747786 0.500000
O O14 0.625005 0.000000 0.500000
O O15 0.933282 0.341372 0.317306
O O16 0.000000 0.500000 0.386692
O O17 0.000000 0.000000 0.369944
O O18 0.500000 0.500000 0.771959
#
# Coordination Sequence:
#
# PCOD9330389 Si02
#       7
#     8   8   8   8   8   8   8
#     4  11  23  34  52  76 113 156 207 253 310 342
#     4  11  22  36  56  75 113 161 208 251 310 372
#     4  12  24  40  61  87 126 152 203 267 308 370
#     4  11  23  38  58  90 120 158 201 263 322 347
#     4  10  23  41  67  89 119 158 208 240 306 385
#     4  10  20  36  58  81 117 158 204 245 299 367
#     4   9  20  35  51  76 106 153 206 255 289 350
#
# _framework density 20.139471
#
# number of rings (size 3 to 8) (size 9 to 14) (size 15 to 20)
#    0.000    1.429    0.000    5.571    4.000    9.143 
#    0.000    0.000    0.000    0.000    0.000    0.000 
#    0.000   40.000    0.000    0.000    0.000    0.000 
#
# Total GULP energy -156010.748906 kJ/mol
# GULP energy per Si atom -5571.812461 kJ/mol
# Density = 2.009363 g / cm^3
# Si number density = 20.139471 Si / 1000 Ang^3
#
#
#
# Elastic Constant Matrix: (Units=GPa)
#
#
# Indices 1 2 3 4 5 6 
#
# 1 113.3539 33.0620 17.3948 0.0000 0.0000 0.0000
# 2 33.0620 142.4564 13.3529 0.0000 0.0000 0.0000
# 3 17.3948 13.3529 54.5282 0.0000 0.0000 0.0000
# 4 0.0000 0.0000 0.0000 16.6584 0.0000 0.0000
# 5 0.0000 0.0000 0.0000 0.0000 24.5963 0.0000
# 6 0.0000 0.0000 0.0000 0.0000 0.0000 21.4349
#
#
#
# Elastic Compliance Matrix: (Units=1/GPa)
#
#
# Indices 1 2 3 4 5 6 
#
# 1 0.009819 -0.002032 -0.002635 0.000000 0.000000 0.000000
# 2 -0.002032 0.007605 -0.001214 0.000000 0.000000 0.000000
# 3 -0.002635 -0.001214 0.019477 0.000000 0.000000 0.000000
# 4 0.000000 0.000000 0.000000 0.060030 0.000000 0.000000
# 5 0.000000 0.000000 0.000000 0.000000 0.040657 0.000000
# 6 0.000000 0.000000 0.000000 0.000000 0.000000 0.046653
#
#
# Mechanical properties :
#
#
# Convention : Reuss Voigt Hill
#
# Bulk Modulus (GPa) = 39.77814 48.66198 44.22006
# Shear Modulus (GPa) = 24.46407 28.97317 26.71862
#
# Velocity S-wave (km/s) = 3.48908 3.79704 3.64631
# Velocity P-wave (km/s) = 6.00215 6.59077 6.30334
#
# Compressibility (1/GPa) = 0.02513944
#
# Stress axis : x y z
#
# Youngs Moduli (GPa) = 101.84470 131.49141 51.34271
#
# Poissons Ratio (x) = 0.26717 0.13527
# Poissons Ratio (y) = 0.20693 0.06234
# Poissons Ratio (z) = 0.26833 0.15965
#
# Static dielectric constant tensor:
#      x y z
#    x 1.796750 0.000000 0.000000 
#    y 0.000000 1.785520 0.000000 
#    z 0.000000 0.000000 1.773430 
# 
# From -- ./inp_files/30550.got.cif
#   From: 2010.05.17/outbox.cif.g08.bks.cpg/sg23_16_cif.got.tgz:30550.got - 2010.06.04 12:02:01.
