data_PCOD9330723
_publ_section_title
;
Structure prediction by ZEFSAII (Michael W. Deem and Ramdas Pophale) SiO2 
 PCOD9330723
Probable space group: I 2 2 2
;
_chemical_formula_sum "Si O2"
_cell_formula_units_Z 38
_cell_length_a 21.659860
_cell_length_b 13.012060
_cell_length_c 5.213255
_cell_angle_alpha 90.000000
_cell_angle_beta 90.000000
_cell_angle_gamma 90.000000
_cell_volume 1469.300650
_symmetry_space_group_name_H-M "I 2 2 2"
_symmetry_group_IT_number 23
_symmetry_cell_setting 'orthorhombic'
loop_
_space_group_symop_operation_xyz
x,y,z
-x,-y,z
x,-y,-z
-x,y,-z
1/2+x,1/2+y,1/2+z
1/2-x,1/2-y,1/2+z
1/2+x,1/2-y,1/2-z
1/2-x,1/2+y,1/2-z
loop_
_atom_site_type_symbol
_atom_site_label
_atom_site_fract_x
_atom_site_fract_y
_atom_site_fract_z
Si Si1 0.500000 0.826009 0.500000
Si Si2 0.500000 0.500000 0.000000
Si Si3 0.683579 0.326669 0.569241
Si Si4 0.924492 0.190644 0.690398
Si Si5 0.250385 0.890415 0.569268
Si Si6 0.427879 0.106747 0.094574
O O1 0.486217 0.746672 0.278949
O O2 0.559255 0.887423 0.400597
O O3 0.449364 0.418703 0.893368
O O4 0.616597 0.327352 0.443101
O O5 0.706249 0.208635 0.554477
O O6 0.697058 0.370908 0.852058
O O7 0.723373 0.387880 0.355482
O O8 0.898170 0.286570 0.513834
O O9 0.278901 0.000000 0.500000
O O10 0.500000 0.096566 0.000000
O O11 0.397631 0.000000 0.000000
#
# Coordination Sequence:
#
# PCOD9330723 Si02
#       6
#     4   2   8   8   8   8
#     4  10  20  42  64  90 140 183 241 286 354 432
#     4  12  24  46  62 100 162 192 258 294 338 466
#     4  10  24  43  74 101 142 180 241 294 374 441
#     4  11  24  42  62 101 141 197 237 298 354 438
#     4  10  22  47  70 105 136 178 235 313 365 443
#     4   9  19  38  61  91 128 179 237 296 353 415
#
# _framework density 25.862642999999998
#
# number of rings (size 3 to 8) (size 9 to 14) (size 15 to 20)
#    0.000    1.895    3.158    0.632    4.421    7.158 
#    7.579    0.000    0.000    0.000    0.000    0.000 
#    0.000    0.000    0.000    0.000    0.000    0.000 
#
# Total GULP energy -105821.466801 kJ/mol
# GULP energy per Si atom -5569.550884 kJ/mol
# Density = 2.580378 g / cm^3
# Si number density = 25.862643 Si / 1000 Ang^3
#
#
#
# Elastic Constant Matrix: (Units=GPa)
#
#
# Indices 1 2 3 4 5 6 
#
# 1 49.2984 12.4730 5.1969 0.0000 0.0000 0.0000
# 2 12.4730 198.0643 53.3840 0.0000 0.0000 0.0000
# 3 5.1969 53.3840 98.7733 0.0000 0.0000 0.0000
# 4 0.0000 0.0000 0.0000 40.4046 0.0000 0.0000
# 5 0.0000 0.0000 0.0000 0.0000 37.0340 0.0000
# 6 0.0000 0.0000 0.0000 0.0000 0.0000 1.1540
#
#
#
# Elastic Compliance Matrix: (Units=1/GPa)
#
#
# Indices 1 2 3 4 5 6 
#
# 1 0.020630 -0.001178 -0.000449 0.000000 0.000000 0.000000
# 2 -0.001178 0.005977 -0.003168 0.000000 0.000000 0.000000
# 3 -0.000449 -0.003168 0.011860 0.000000 0.000000 0.000000
# 4 0.000000 0.000000 0.000000 0.024750 0.000000 0.000000
# 5 0.000000 0.000000 0.000000 0.000000 0.027002 0.000000
# 6 0.000000 0.000000 0.000000 0.000000 0.000000 0.866542
#
#
# Mechanical properties :
#
#
# Convention : Reuss Voigt Hill
#
# Bulk Modulus (GPa) = 34.62998 54.24931 44.43964
# Shear Modulus (GPa) = 5.12307 34.05733 19.59020
#
# Velocity S-wave (km/s) = 1.40896 3.63279 2.75520
# Velocity P-wave (km/s) = 4.00823 6.21431 5.22894
#
# Compressibility (1/GPa) = 0.02887672
#
# Stress axis : x y z
#
# Youngs Moduli (GPa) = 48.47305 167.30669 84.31535
#
# Poissons Ratio (x) = 0.19713 0.03783
# Poissons Ratio (y) = 0.05711 0.26715
# Poissons Ratio (z) = 0.02175 0.53010
#
# Static dielectric constant tensor:
#      x y z
#    x 2.099830 0.000000 0.000000 
#    y 0.000000 2.063500 0.000000 
#    z 0.000000 0.000000 2.827650 
# 
# From -- ./inp_files/4788.got.cif
#   From: 2010.05.17/outbox.cif.g08.bks.cpg/sg23_3_cif.got.tgz:4788.got - 2010.06.04 12:02:01.
