data_PCOD9330154
_publ_section_title
;
Structure prediction by ZEFSAII (Michael W. Deem and Ramdas Pophale) SiO2 
 PCOD9330154
Probable space group: I 2 2 2
;
_chemical_formula_sum "Si O2"
_cell_formula_units_Z 38
_cell_length_a 12.647570
_cell_length_b 19.032969
_cell_length_c 7.447026
_cell_angle_alpha 90.000000
_cell_angle_beta 90.000000
_cell_angle_gamma 90.000000
_cell_volume 1792.654114
_symmetry_space_group_name_H-M "I 2 2 2"
_symmetry_group_IT_number 23
_symmetry_cell_setting 'orthorhombic'
loop_
_space_group_symop_operation_xyz
x,y,z
-x,-y,z
x,-y,-z
-x,y,-z
1/2+x,1/2+y,1/2+z
1/2-x,1/2-y,1/2+z
1/2+x,1/2-y,1/2-z
1/2-x,1/2+y,1/2-z
loop_
_atom_site_type_symbol
_atom_site_label
_atom_site_fract_x
_atom_site_fract_y
_atom_site_fract_z
Si Si1 0.456653 0.924500 0.799785
Si Si2 0.239082 0.143882 0.167298
Si Si3 0.000000 0.685829 0.000000
Si Si4 0.663981 0.720712 0.351966
Si Si5 0.000000 0.000000 0.500000
Si Si6 0.500658 0.388687 0.283467
O O1 0.329847 0.913692 0.799755
O O2 0.497799 0.863441 0.671811
O O3 0.500000 0.000000 0.738500
O O4 0.500000 0.914481 0.000000
O O5 0.276229 0.218843 0.246977
O O6 0.125932 0.121910 0.248382
O O7 0.228177 0.160431 0.954576
O O8 0.101102 0.735661 0.996192
O O9 0.569125 0.680873 0.250629
O O10 0.047669 0.946206 0.351747
O O11 0.500000 0.404839 0.500000
#
# Coordination Sequence:
#
# PCOD9330154 Si02
#       6
#     8   8   4   8   2   8
#     4  10  23  42  61  96 132 173 218 265 322 401
#     4  10  22  39  67  98 127 177 213 274 344 380
#     4  10  19  42  64  89 134 164 206 282 316 375
#     4  10  21  39  67  98 129 167 221 280 329 388
#     4  12  26  44  72  94 134 184 220 268 328 414
#     4  10  23  48  63  99 140 170 224 283 329 400
#
# _framework density 21.197619
#
# number of rings (size 3 to 8) (size 9 to 14) (size 15 to 20)
#    0.000    1.895    3.158    0.632    5.895    0.000 
#   24.632    0.000    0.000    0.000    0.000    0.000 
#    0.000    0.000    0.000    0.000    0.000    0.000 
#
# Total GULP energy -105830.018962 kJ/mol
# GULP energy per Si atom -5570.000998 kJ/mol
# Density = 2.114937 g / cm^3
# Si number density = 21.197619 Si / 1000 Ang^3
#
#
#
# Elastic Constant Matrix: (Units=GPa)
#
#
# Indices 1 2 3 4 5 6 
#
# 1 122.2388 50.6220 12.9436 0.0000 0.0000 0.0000
# 2 50.6220 106.2863 17.6206 0.0000 0.0000 0.0000
# 3 12.9436 17.6206 51.9486 0.0003 0.0000 0.0000
# 4 0.0000 0.0000 0.0003 49.2542 0.0000 0.0000
# 5 0.0000 0.0000 0.0000 0.0000 11.5829 0.0000
# 6 0.0000 0.0000 0.0000 0.0000 0.0000 11.8409
#
#
#
# Elastic Compliance Matrix: (Units=1/GPa)
#
#
# Indices 1 2 3 4 5 6 
#
# 1 0.010235 -0.004717 -0.000950 0.000000 0.000000 0.000000
# 2 -0.004717 0.012143 -0.002944 0.000000 0.000000 0.000000
# 3 -0.000950 -0.002944 0.020485 0.000000 0.000000 0.000000
# 4 0.000000 0.000000 0.000000 0.020303 0.000000 0.000000
# 5 0.000000 0.000000 0.000000 0.000000 0.086334 0.000000
# 6 0.000000 0.000000 0.000000 0.000000 0.000000 0.084453
#
#
# Mechanical properties :
#
#
# Convention : Reuss Voigt Hill
#
# Bulk Modulus (GPa) = 38.99945 49.20513 44.10229
# Shear Modulus (GPa) = 19.25136 27.82144 23.53640
#
# Velocity S-wave (km/s) = 3.01688 3.62675 3.33578
# Velocity P-wave (km/s) = 5.52932 6.38754 5.97386
#
# Compressibility (1/GPa) = 0.02564139
#
# Stress axis : x y z
#
# Youngs Moduli (GPa) = 97.70610 82.35058 48.81631
#
# Poissons Ratio (x) = 0.38846 0.04638
# Poissons Ratio (y) = 0.46089 0.14369
# Poissons Ratio (z) = 0.09283 0.24240
#
# Static dielectric constant tensor:
#      x y z
#    x 1.824080 0.000000 0.000000 
#    y 0.000000 1.813470 0.000000 
#    z 0.000000 0.000000 1.811640 
# 
# From -- ./inp_files/8228.got.cif
#   From: 2010.05.17/outbox.cif.g08.bks.cpg/sg23_5_cif.got.tgz:8228.got - 2010.06.04 12:02:01.
