data_PCOD9330342
_publ_section_title
;
Structure prediction by ZEFSAII (Michael W. Deem and Ramdas Pophale) SiO2 
 PCOD9330342
Probable space group: I 2 2 2
;
_chemical_formula_sum "Si O2"
_cell_formula_units_Z 40
_cell_length_a 9.212179
_cell_length_b 13.188639
_cell_length_c 13.227192
_cell_angle_alpha 90.000000
_cell_angle_beta 90.000000
_cell_angle_gamma 90.000000
_cell_volume 1607.052285
_symmetry_space_group_name_H-M "I 2 2 2"
_symmetry_group_IT_number 23
_symmetry_cell_setting 'orthorhombic'
loop_
_space_group_symop_operation_xyz
x,y,z
-x,-y,z
x,-y,-z
-x,y,-z
1/2+x,1/2+y,1/2+z
1/2-x,1/2-y,1/2+z
1/2+x,1/2-y,1/2-z
1/2-x,1/2+y,1/2-z
loop_
_atom_site_type_symbol
_atom_site_label
_atom_site_fract_x
_atom_site_fract_y
_atom_site_fract_z
Si Si1 0.413326 0.604593 0.356623
Si Si2 0.312964 0.588287 0.133419
Si Si3 0.581826 0.848588 0.107778
Si Si4 0.498650 0.169901 0.670179
Si Si5 0.692755 0.637737 0.080330
O O1 0.500000 0.500000 0.379607
O O2 0.383025 0.614012 0.237895
O O3 0.245987 0.602372 0.399466
O O4 0.503484 0.710618 0.367854
O O5 0.142996 0.610415 0.142507
O O6 0.352498 0.473052 0.111581
O O7 0.350001 0.653171 0.035735
O O8 0.483605 0.864339 0.209690
O O9 0.628793 0.733552 0.134921
O O10 0.500000 0.863961 0.000000
O O11 0.361788 0.134796 0.605906
#
# Coordination Sequence:
#
# PCOD9330342 Si02
#       5
#     8   8   8   8   8
#     4  10  21  38  62  93 130 175 226 278 336 406
#     4  10  20  35  61  93 123 159 211 279 344 403
#     4  10  21  38  62  93 130 175 226 278 336 406
#     4  10  20  35  58  87 128 172 212 270 340 404
#     4  10  20  35  61  93 123 159 211 279 344 403
#
# _framework density 24.890291999999999
#
# number of rings (size 3 to 8) (size 9 to 14) (size 15 to 20)
#    0.000    2.000    0.000    3.600    0.000    1.600 
#    0.000    2.000    0.000   36.000    0.000   14.000 
#    0.000    0.000    0.000    0.000    0.000    0.000 
#
# Total GULP energy -111518.797374 kJ/mol
# GULP energy per Si atom -5575.939869 kJ/mol
# Density = 2.483364 g / cm^3
# Si number density = 24.890292 Si / 1000 Ang^3
#
#
#
# Elastic Constant Matrix: (Units=GPa)
#
#
# Indices 1 2 3 4 5 6 
#
# 1 142.8434 68.8920 39.5809 0.0000 0.0000 0.0000
# 2 68.8920 97.9770 9.9030 0.0000 0.0000 0.0000
# 3 39.5809 9.9030 93.3625 0.0000 0.0000 0.0000
# 4 0.0000 0.0000 0.0000 14.6663 0.0000 0.0000
# 5 0.0000 0.0000 0.0000 0.0000 35.3838 0.0000
# 6 0.0000 0.0000 0.0000 0.0000 0.0000 26.9066
#
#
#
# Elastic Compliance Matrix: (Units=1/GPa)
#
#
# Indices 1 2 3 4 5 6 
#
# 1 0.012065 -0.008053 -0.004261 0.000000 0.000000 0.000000
# 2 -0.008053 0.015692 0.001750 0.000000 0.000000 0.000000
# 3 -0.004261 0.001750 0.012332 0.000000 0.000000 0.000000
# 4 0.000000 0.000000 0.000000 0.068184 0.000000 0.000000
# 5 0.000000 0.000000 0.000000 0.000000 0.028262 0.000000
# 6 0.000000 0.000000 0.000000 0.000000 0.000000 0.037166
#
#
# Mechanical properties :
#
#
# Convention : Reuss Voigt Hill
#
# Bulk Modulus (GPa) = 52.74110 63.43719 58.08914
# Shear Modulus (GPa) = 24.85731 29.77848 27.31789
#
# Velocity S-wave (km/s) = 3.16361 3.46264 3.31650
# Velocity P-wave (km/s) = 5.88048 6.44426 6.16881
#
# Compressibility (1/GPa) = 0.01896055
#
# Stress axis : x y z
#
# Youngs Moduli (GPa) = 82.88336 63.72683 81.09162
#
# Poissons Ratio (x) = 0.51318 0.34552
# Poissons Ratio (y) = 0.66745 -0.14187
# Poissons Ratio (z) = 0.35315 -0.11149
#
# Static dielectric constant tensor:
#      x y z
#    x 2.006020 0.000000 0.000000 
#    y 0.000000 2.038730 0.000000 
#    z 0.000000 0.000000 2.131080 
# 
# From -- ./inp_files/19784.got.cif
#   From: 2010.05.17/outbox.cif.g08.bks.cpg/sg23_10_cif.got.tgz:19784.got - 2010.06.04 12:02:01.
