data_PCOD9330761
_publ_section_title
;
Structure prediction by ZEFSAII (Michael W. Deem and Ramdas Pophale) SiO2 
 PCOD9330761
Probable space group: I 2 2 2
;
_chemical_formula_sum "Si O2"
_cell_formula_units_Z 42
_cell_length_a 17.736106
_cell_length_b 8.812123
_cell_length_c 12.603118
_cell_angle_alpha 90.000000
_cell_angle_beta 90.000000
_cell_angle_gamma 90.000000
_cell_volume 1969.775941
_symmetry_space_group_name_H-M "I 2 2 2"
_symmetry_group_IT_number 23
_symmetry_cell_setting 'orthorhombic'
loop_
_space_group_symop_operation_xyz
x,y,z
-x,-y,z
x,-y,-z
-x,y,-z
1/2+x,1/2+y,1/2+z
1/2-x,1/2-y,1/2+z
1/2+x,1/2-y,1/2-z
1/2-x,1/2+y,1/2-z
loop_
_atom_site_type_symbol
_atom_site_label
_atom_site_fract_x
_atom_site_fract_y
_atom_site_fract_z
Si Si1 0.638886 0.000000 0.000000
Si Si2 0.500000 0.000000 0.500000
Si Si3 0.907851 0.763879 0.368776
Si Si4 0.238066 0.038206 0.376845
Si Si5 0.091301 0.753000 0.872111
Si Si6 0.500000 0.500000 0.000000
Si Si7 0.500000 0.500000 0.500000
Si Si8 0.771347 0.298531 0.331581
O O1 0.588761 0.106482 0.072284
O O2 0.689447 0.895024 0.076521
O O3 0.556502 0.107232 0.431991
O O4 0.822835 0.827386 0.380617
O O5 0.933181 0.746218 0.249247
O O6 0.952964 0.892429 0.426240
O O7 0.287315 0.108909 0.278955
O O8 0.262550 0.000000 0.500000
O O9 0.203788 0.878789 0.332687
O O10 0.182025 0.777370 0.861622
O O11 0.053632 0.895308 0.929280
#
# Coordination Sequence:
#
# PCOD9330761 Si02
#       8
#     4   2   8   8   8   2   2   8
#     4  12  23  43  64 101 131 168 216 282 322 410
#     4  10  24  42  62  88 132 162 220 276 306 382
#     4  11  24  42  65  95 129 170 221 268 335 391
#     4  11  22  43  62  97 131 167 215 275 326 405
#     4  10  23  41  63  90 122 169 211 263 323 387
#     4  12  22  42  66  90 128 178 206 274 328 396
#     4  10  20  46  60  88 126 162 218 264 304 392
#     4  11  23  39  68  93 130 170 215 263 344 394
#
# _framework density 21.322223000000001
#
# number of rings (size 3 to 8) (size 9 to 14) (size 15 to 20)
#    0.000    1.143    2.857    3.429    1.333    1.905 
#    0.000    5.714    0.000    0.000    0.000    0.000 
#    0.000    0.000    0.000    0.000    0.000    0.000 
#
# Total GULP energy -117164.129055 kJ/mol
# GULP energy per Si atom -5579.244241 kJ/mol
# Density = 2.127369 g / cm^3
# Si number density = 21.322223 Si / 1000 Ang^3
#
#
#
# Elastic Constant Matrix: (Units=GPa)
#
#
# Indices 1 2 3 4 5 6 
#
# 1 36.7892 4.6238 24.3851 0.0000 0.0000 0.0000
# 2 4.6238 153.6918 85.9600 0.0000 0.0000 0.0000
# 3 24.3851 85.9600 205.7105 0.0000 0.0000 0.0000
# 4 0.0000 0.0000 0.0000 1046.9172 0.0000 0.0000
# 5 0.0000 0.0000 0.0000 0.0000 -1.2727 0.0000
# 6 0.0000 0.0000 0.0000 0.0000 0.0000 45.2241
#
#
#
# Elastic Compliance Matrix: (Units=1/GPa)
#
#
# Indices 1 2 3 4 5 6 
#
# 1 0.029730 0.001405 -0.004111 0.000000 0.000000 0.000000
# 2 0.001405 0.008557 -0.003742 0.000000 0.000000 0.000000
# 3 -0.004111 -0.003742 0.006912 0.000000 0.000000 0.000000
# 4 0.000000 0.000000 0.000000 0.000955 0.000000 0.000000
# 5 0.000000 0.000000 0.000000 0.000000 -0.785729 0.000000
# 6 0.000000 0.000000 0.000000 0.000000 0.000000 0.022112
#
#
# Mechanical properties :
#
#
# Convention : Reuss Voigt Hill
#
# Bulk Modulus (GPa) = 30.95711 69.56993 50.26352
# Shear Modulus (GPa) = -7.20672 236.92189 114.85758
#
# Velocity S-wave (km/s) = -1.84045 10.55255 7.34741
# Velocity P-wave (km/s) = 3.16763 13.46008 9.77772
#
# Compressibility (1/GPa) = 0.03230276
#
# Stress axis : x y z
#
# Youngs Moduli (GPa) = 33.63550 116.85790 144.66724
#
# Poissons Ratio (x) = -0.16419 0.59479
# Poissons Ratio (y) = -0.04726 0.54141
# Poissons Ratio (z) = 0.13829 0.43733
#
# Static dielectric constant tensor:
#      x y z
#    x 1.788050 0.000000 0.000000 
#    y 0.000000 1.755220 0.000000 
#    z 0.000000 0.000000 1.771380 
# 
# From -- ./inp_files/8654.got.cif
#   From: 2010.05.17/outbox.cif.g08.bks.cpg/sg23_5_cif.got.tgz:8654.got - 2010.06.04 12:02:01.
