data_PCOD9330521
_publ_section_title
;
Structure prediction by ZEFSAII (Michael W. Deem and Ramdas Pophale) SiO2 
 PCOD9330521
Probable space group: I 2 2 2
;
_chemical_formula_sum "Si O2"
_cell_formula_units_Z 44
_cell_length_a 5.511486
_cell_length_b 25.254321
_cell_length_c 12.852479
_cell_angle_alpha 90.000000
_cell_angle_beta 90.000000
_cell_angle_gamma 90.000000
_cell_volume 1788.921600
_symmetry_space_group_name_H-M "I 2 2 2"
_symmetry_group_IT_number 23
_symmetry_cell_setting 'orthorhombic'
loop_
_space_group_symop_operation_xyz
x,y,z
-x,-y,z
x,-y,-z
-x,y,-z
1/2+x,1/2+y,1/2+z
1/2-x,1/2-y,1/2+z
1/2+x,1/2-y,1/2-z
1/2-x,1/2+y,1/2-z
loop_
_atom_site_type_symbol
_atom_site_label
_atom_site_fract_x
_atom_site_fract_y
_atom_site_fract_z
Si Si1 0.500000 0.856525 0.000000
Si Si2 0.000000 0.000000 0.785133
Si Si3 0.746105 0.784816 0.438433
Si Si4 0.500000 0.000000 0.657729
Si Si5 0.631486 0.607831 0.640945
Si Si6 0.036970 0.618323 0.157032
Si Si7 0.741360 0.191295 0.195773
O O1 0.271537 0.890560 0.967087
O O2 0.557474 0.823121 0.898083
O O3 0.018445 0.054341 0.847917
O O4 0.245322 0.998198 0.718647
O O5 0.500000 0.766429 0.500000
O O6 0.706281 0.846934 0.417149
O O7 0.742207 0.754097 0.325861
O O8 0.000000 0.777991 0.500000
O O9 0.523432 0.939718 0.612495
O O10 0.824354 0.606371 0.735317
O O11 0.482151 0.661040 0.659845
O O12 0.833195 0.661251 0.197494
#
# Coordination Sequence:
#
# PCOD9330521 Si02
#       7
#     4   4   8   4   8   8   8
#     4  10  20  38  59  92 134 184 213 288 342 412
#     4  10  20  38  63  96 137 176 234 296 332 415
#     4  12  29  46  69 106 149 183 232 301 363 422
#     4  10  20  44  69 105 128 176 234 308 342 413
#     4  10  21  38  66  93 133 183 240 280 354 411
#     4  10  25  42  76  99 135 182 244 287 363 428
#     4  11  22  42  66  97 137 185 233 283 354 420
#
# _framework density 24.595821000000001
#
# number of rings (size 3 to 8) (size 9 to 14) (size 15 to 20)
#    0.000    1.455    2.727    1.636    7.636    0.000 
#    0.000    3.182    0.000    1.091    0.000    0.000 
#    0.000    0.000    0.000    0.000    0.000    0.000 
#
# Total GULP energy -122675.592929 kJ/mol
# GULP energy per Si atom -5576.163315 kJ/mol
# Density = 2.453984 g / cm^3
# Si number density = 24.595821 Si / 1000 Ang^3
#
#
#
# Elastic Constant Matrix: (Units=GPa)
#
#
# Indices 1 2 3 4 5 6 
#
# 1 123.7545 39.7045 27.0179 0.0000 0.0000 0.0000
# 2 39.7045 199.0363 34.7861 -0.0001 0.0000 0.0000
# 3 27.0179 34.7861 68.0028 -0.0002 -0.0001 0.0000
# 4 0.0000 -0.0001 -0.0002 19.5761 0.0000 0.0000
# 5 0.0000 0.0000 -0.0001 0.0000 13.4708 0.0000
# 6 0.0000 0.0000 0.0000 0.0000 0.0000 20.5474
#
#
#
# Elastic Compliance Matrix: (Units=1/GPa)
#
#
# Indices 1 2 3 4 5 6 
#
# 1 0.009147 -0.001306 -0.002966 0.000000 0.000000 0.000000
# 2 -0.001306 0.005704 -0.002399 0.000000 0.000000 0.000000
# 3 -0.002966 -0.002399 0.017111 0.000000 0.000000 0.000000
# 4 0.000000 0.000000 0.000000 0.051083 0.000000 0.000000
# 5 0.000000 0.000000 0.000000 0.000000 0.074235 0.000000
# 6 0.000000 0.000000 0.000000 0.000000 0.000000 0.048668
#
#
# Mechanical properties :
#
#
# Convention : Reuss Voigt Hill
#
# Bulk Modulus (GPa) = 53.70659 65.97897 59.84278
# Shear Modulus (GPa) = 22.17333 30.00453 26.08893
#
# Velocity S-wave (km/s) = 3.00577 3.49650 3.26038
# Velocity P-wave (km/s) = 5.82488 6.57147 6.20941
#
# Compressibility (1/GPa) = 0.01861969
#
# Stress axis : x y z
#
# Youngs Moduli (GPa) = 109.32352 175.31392 58.44272
#
# Poissons Ratio (x) = 0.22902 0.17334
# Poissons Ratio (y) = 0.14281 0.14019
# Poissons Ratio (z) = 0.32425 0.42055
#
# Static dielectric constant tensor:
#      x y z
#    x 2.030560 0.000000 0.000000 
#    y 0.000000 2.017910 0.000000 
#    z 0.000000 0.000000 1.998110 
# 
# From -- ./inp_files/19190.got.cif
#   From: 2010.05.17/outbox.cif.g08.bks.cpg/sg23_10_cif.got.tgz:19190.got - 2010.06.04 12:02:01.
