data_PCOD9330084
_publ_section_title
;
Structure prediction by ZEFSAII (Michael W. Deem and Ramdas Pophale) SiO2 
 PCOD9330084
Probable space group: I 2 2 2
;
_chemical_formula_sum "Si O2"
_cell_formula_units_Z 46
_cell_length_a 9.990183
_cell_length_b 11.680965
_cell_length_c 19.961230
_cell_angle_alpha 90.000000
_cell_angle_beta 90.000000
_cell_angle_gamma 90.000000
_cell_volume 2329.375295
_symmetry_space_group_name_H-M "I 2 2 2"
_symmetry_group_IT_number 23
_symmetry_cell_setting 'orthorhombic'
loop_
_space_group_symop_operation_xyz
x,y,z
-x,-y,z
x,-y,-z
-x,y,-z
1/2+x,1/2+y,1/2+z
1/2-x,1/2-y,1/2+z
1/2+x,1/2-y,1/2-z
1/2-x,1/2+y,1/2-z
loop_
_atom_site_type_symbol
_atom_site_label
_atom_site_fract_x
_atom_site_fract_y
_atom_site_fract_z
Si Si1 0.433243 0.305278 0.828087
Si Si2 0.148848 0.363723 0.614718
Si Si3 0.660161 0.317506 0.498866
Si Si4 0.000000 0.000000 0.222754
Si Si5 0.000000 0.500000 0.500000
Si Si6 0.246278 0.091940 0.857684
Si Si7 0.138713 0.876957 0.530879
O O1 0.572205 0.238499 0.847651
O O2 0.442559 0.394952 0.767783
O O3 0.323595 0.202374 0.828700
O O4 0.389726 0.381361 0.891103
O O5 0.289265 0.338681 0.577257
O O6 0.066541 0.411245 0.551407
O O7 0.167459 0.478404 0.657368
O O8 0.500000 0.321604 0.500000
O O9 0.719284 0.393944 0.561432
O O10 0.731894 0.198076 0.515996
O O11 0.892387 0.064509 0.177191
O O12 0.000000 0.828161 0.500000
O O13 0.156659 0.000000 0.500000
#
# Coordination Sequence:
#
# PCOD9330084 Si02
#       7
#     8   8   8   4   2   8   8
#     4  11  24  42  66  95 125 181 232 274 327 404
#     4  12  20  38  69  98 130 163 218 280 343 400
#     4  11  22  37  64 102 138 163 205 277 356 406
#     4  12  28  44  64  90 134 184 232 276 332 406
#     4  12  16  36  66 106 120 152 210 284 332 396
#     4  11  24  42  63  94 131 169 224 279 335 401
#     4  10  19  37  65  95 128 166 216 272 331 404
#
# _framework density 19.747782999999998
#
# number of rings (size 3 to 8) (size 9 to 14) (size 15 to 20)
#    0.000    0.870    5.217    3.130    2.435    1.043 
#    0.000    0.000    0.000    0.000    0.000    0.000 
#    0.000    0.000    0.000    0.000    0.000    0.000 
#
# Total GULP energy -128170.994861 kJ/mol
# GULP energy per Si atom -5572.651950 kJ/mol
# Density = 1.970284 g / cm^3
# Si number density = 19.747783 Si / 1000 Ang^3
#
#
#
# Elastic Constant Matrix: (Units=GPa)
#
#
# Indices 1 2 3 4 5 6 
#
# 1 86.2790 25.8712 9.3522 0.0000 0.0000 0.0000
# 2 25.8712 119.0535 32.5573 0.0000 0.0000 0.0000
# 3 9.3522 32.5573 59.6488 0.0000 0.0000 0.0000
# 4 0.0000 0.0000 0.0000 21.1910 0.0000 0.0000
# 5 0.0000 0.0000 0.0000 0.0000 25.1758 0.0000
# 6 0.0000 0.0000 0.0000 0.0000 0.0000 19.6410
#
#
#
# Elastic Compliance Matrix: (Units=1/GPa)
#
#
# Indices 1 2 3 4 5 6 
#
# 1 0.012414 -0.002545 -0.000557 0.000000 0.000000 0.000000
# 2 -0.002545 0.010395 -0.005275 0.000000 0.000000 0.000000
# 3 -0.000557 -0.005275 0.019731 0.000000 0.000000 0.000000
# 4 0.000000 0.000000 0.000000 0.047190 0.000000 0.000000
# 5 0.000000 0.000000 0.000000 0.000000 0.039721 0.000000
# 6 0.000000 0.000000 0.000000 0.000000 0.000000 0.050914
#
#
# Mechanical properties :
#
#
# Convention : Reuss Voigt Hill
#
# Bulk Modulus (GPa) = 38.78080 44.50476 41.64278
# Shear Modulus (GPa) = 24.30555 26.34827 25.32691
#
# Velocity S-wave (km/s) = 3.51208 3.65669 3.58511
# Velocity P-wave (km/s) = 6.01057 6.35720 6.18631
#
# Compressibility (1/GPa) = 0.02578595
#
# Stress axis : x y z
#
# Youngs Moduli (GPa) = 80.55479 96.19839 50.68113
#
# Poissons Ratio (x) = 0.24485 0.02823
# Poissons Ratio (y) = 0.20504 0.26733
# Poissons Ratio (z) = 0.04488 0.50743
#
# Static dielectric constant tensor:
#      x y z
#    x 1.778400 0.000000 0.000000 
#    y 0.000000 1.730590 0.000000 
#    z 0.000000 0.000000 1.714780 
# 
# From -- ./inp_files/28001.got.cif
#   From: 2010.05.17/outbox.cif.g08.bks.cpg/sg23_15_cif.got.tgz:28001.got - 2010.06.04 12:02:01.
