data_PCOD9330446
_publ_section_title
;
Structure prediction by ZEFSAII (Michael W. Deem and Ramdas Pophale) SiO2 
 PCOD9330446
Probable space group: I 2 2 2
;
_chemical_formula_sum "Si O2"
_cell_formula_units_Z 42
_cell_length_a 13.543388
_cell_length_b 17.456949
_cell_length_c 10.096858
_cell_angle_alpha 90.000000
_cell_angle_beta 90.000000
_cell_angle_gamma 90.000000
_cell_volume 2387.162108
_symmetry_space_group_name_H-M "I 2 2 2"
_symmetry_group_IT_number 23
_symmetry_cell_setting 'orthorhombic'
loop_
_space_group_symop_operation_xyz
x,y,z
-x,-y,z
x,-y,-z
-x,y,-z
1/2+x,1/2+y,1/2+z
1/2-x,1/2-y,1/2+z
1/2+x,1/2-y,1/2-z
1/2-x,1/2+y,1/2-z
loop_
_atom_site_type_symbol
_atom_site_label
_atom_site_fract_x
_atom_site_fract_y
_atom_site_fract_z
Si Si1 0.156127 0.301870 0.223744
Si Si2 0.345038 0.900987 0.832384
Si Si3 0.000000 0.500000 0.500000
Si Si4 0.724422 0.706472 0.490038
Si Si5 0.115899 0.477263 0.150435
Si Si6 0.546278 0.781921 0.364987
O O1 0.202595 0.286963 0.365977
O O2 0.223301 0.273023 0.101650
O O3 0.132065 0.390814 0.197512
O O4 0.051665 0.257918 0.212307
O O5 0.261122 0.865950 0.925494
O O6 0.391702 0.837631 0.731454
O O7 0.313320 0.969905 0.738401
O O8 0.429263 0.941583 0.920798
O O9 0.616906 0.715815 0.422028
O O10 0.000000 0.500000 0.170854
O O11 0.136207 0.500000 0.000000
O O12 0.500000 0.820786 0.500000
#
# Coordination Sequence:
#
# PCOD9330446 Si02
#       6
#     8   8   2   8   8   8
#     4  11  22  39  60  89 134 162 210 251 314 376
#     4  12  20  36  55  88 129 154 203 250 310 380
#     4  12  24  32  58  96 122 160 194 266 336 352
#     4  11  23  36  57  88 132 168 206 249 306 380
#     4  11  21  34  60  88 121 163 193 250 326 371
#     4  10  20  37  57  83 124 166 202 248 307 370
#
# _framework density 17.594114000000001
#
# number of rings (size 3 to 8) (size 9 to 14) (size 15 to 20)
#    0.000    0.952    4.762    4.571    2.667    0.000 
#    0.000    0.000    0.000    0.000    0.000   54.000 
#    0.000    0.000    0.000    0.000    0.000    0.000 
#
# Total GULP energy -116916.807529 kJ/mol
# GULP energy per Si atom -5567.467025 kJ/mol
# Density = 1.755407 g / cm^3
# Si number density = 17.594114 Si / 1000 Ang^3
#
#
#
# Elastic Constant Matrix: (Units=GPa)
#
#
# Indices 1 2 3 4 5 6 
#
# 1 74.3702 54.4047 56.4691 0.0000 0.0000 0.0000
# 2 54.4047 82.8761 51.6310 0.0000 0.0000 0.0000
# 3 56.4691 51.6310 116.6556 0.0000 0.0000 0.0000
# 4 0.0000 0.0000 0.0000 37.6026 0.0000 0.0000
# 5 0.0000 0.0000 0.0000 0.0000 30.4704 0.0000
# 6 0.0000 0.0000 0.0000 0.0000 0.0000 34.5632
#
#
#
# Elastic Compliance Matrix: (Units=1/GPa)
#
#
# Indices 1 2 3 4 5 6 
#
# 1 0.030653 -0.015020 -0.008190 0.000000 0.000000 0.000000
# 2 -0.015020 0.024019 -0.003360 0.000000 0.000000 0.000000
# 3 -0.008190 -0.003360 0.014024 0.000000 0.000000 0.000000
# 4 0.000000 0.000000 0.000000 0.026594 0.000000 0.000000
# 5 0.000000 0.000000 0.000000 0.000000 0.032819 0.000000
# 6 0.000000 0.000000 0.000000 0.000000 0.000000 0.028933
#
#
# Mechanical properties :
#
#
# Convention : Reuss Voigt Hill
#
# Bulk Modulus (GPa) = 64.28551 66.54572 65.41561
# Shear Modulus (GPa) = 23.21618 27.95371 25.58495
#
# Velocity S-wave (km/s) = 3.63649 3.99031 3.81750
# Velocity P-wave (km/s) = 7.36543 7.68993 7.52942
#
# Compressibility (1/GPa) = 0.01555561
#
# Stress axis : x y z
#
# Youngs Moduli (GPa) = 32.62372 41.63296 71.30557
#
# Poissons Ratio (x) = 0.62531 0.58401
# Poissons Ratio (y) = 0.49000 0.23961
# Poissons Ratio (z) = 0.26720 0.13990
#
# Static dielectric constant tensor:
#      x y z
#    x 1.631430 0.000000 0.000000 
#    y 0.000000 1.630450 0.000000 
#    z 0.000000 0.000000 1.706150 
# 
# From -- ./inp_files/15689.got.cif
#   From: 2010.05.17/outbox.cif.g08.bks.cpg/sg23_8_cif.got.tgz:15689.got - 2010.06.04 12:02:01.
