data_PCOD9330631
_publ_section_title
;
Structure prediction by ZEFSAII (Michael W. Deem and Ramdas Pophale) SiO2 
 PCOD9330631
Probable space group: I 2 2 2
;
_chemical_formula_sum "Si O2"
_cell_formula_units_Z 56
_cell_length_a 11.972331
_cell_length_b 14.863917
_cell_length_c 13.687809
_cell_angle_alpha 90.000000
_cell_angle_beta 90.000000
_cell_angle_gamma 90.000000
_cell_volume 2435.824101
_symmetry_space_group_name_H-M "I 2 2 2"
_symmetry_group_IT_number 23
_symmetry_cell_setting 'orthorhombic'
loop_
_space_group_symop_operation_xyz
x,y,z
-x,-y,z
x,-y,-z
-x,y,-z
1/2+x,1/2+y,1/2+z
1/2-x,1/2-y,1/2+z
1/2+x,1/2-y,1/2-z
1/2-x,1/2+y,1/2-z
loop_
_atom_site_type_symbol
_atom_site_label
_atom_site_fract_x
_atom_site_fract_y
_atom_site_fract_z
Si Si1 0.132910 0.000943 0.281455
Si Si2 0.796047 0.937697 0.083411
Si Si3 0.521637 0.097171 0.615049
Si Si4 0.530383 0.283305 0.385207
Si Si5 0.771480 0.823747 0.372360
Si Si6 0.835040 0.194026 0.267233
Si Si7 0.124467 0.297277 0.538857
O O1 0.171846 0.903287 0.319269
O O2 0.208069 0.008990 0.183861
O O3 0.152789 0.090265 0.345897
O O4 0.000000 0.000000 0.260387
O O5 0.870303 0.852909 0.115075
O O6 0.685375 0.893562 0.039611
O O7 0.849044 0.000000 0.000000
O O8 0.500000 0.087835 0.500000
O O9 0.446165 0.181140 0.647878
O O10 0.647744 0.132902 0.625358
O O11 0.500000 0.000000 0.661451
O O12 0.500000 0.278627 0.500000
O O13 0.429039 0.317205 0.317799
O O14 0.764039 0.745253 0.290348
O O15 0.807102 0.772917 0.470806
O O16 0.875470 0.261769 0.350624
O O17 0.000000 0.302200 0.500000
#
# Coordination Sequence:
#
# PCOD9330631 Si02
#       7
#     8   8   8   8   8   8   8
#     4  12  24  43  74 110 145 193 256 313 379 461
#     4  12  25  44  72 109 144 190 259 322 382 447
#     4   9  19  38  65 100 138 181 240 304 370 450
#     4  10  20  39  69 104 140 183 243 313 375 437
#     4  11  25  48  67 107 149 193 261 309 390 455
#     4  11  24  46  72 107 152 196 249 322 381 461
#     4  12  27  47  73 104 153 210 247 316 399 469
#
# _framework density 22.990165000000001
#
# number of rings (size 3 to 8) (size 9 to 14) (size 15 to 20)
#    0.000    1.000    2.857    5.143    0.000    4.286 
#    0.000    4.286    0.000    0.000    0.000    0.000 
#    0.000    0.000    0.000    0.000    0.000    0.000 
#
# Total GULP energy -156437.191832 kJ/mol
# GULP energy per Si atom -5587.042565 kJ/mol
# Density = 2.293784 g / cm^3
# Si number density = 22.990165 Si / 1000 Ang^3
#
#
#
# Elastic Constant Matrix: (Units=GPa)
#
#
# Indices 1 2 3 4 5 6 
#
# 1 78.0048 39.8024 23.7921 0.0000 0.0000 0.0000
# 2 39.8024 131.5976 0.3440 0.0000 0.0000 0.0000
# 3 23.7921 0.3440 84.1552 0.0000 0.0000 0.0000
# 4 0.0000 0.0000 0.0000 27.5818 0.0000 0.0000
# 5 0.0000 0.0000 0.0000 0.0000 31.3348 0.0000
# 6 0.0000 0.0000 0.0000 0.0000 0.0000 29.2215
#
#
#
# Elastic Compliance Matrix: (Units=1/GPa)
#
#
# Indices 1 2 3 4 5 6 
#
# 1 0.016864 -0.005088 -0.004747 0.000000 0.000000 0.000000
# 2 -0.005088 0.009134 0.001401 0.000000 0.000000 0.000000
# 3 -0.004747 0.001401 0.013219 0.000000 0.000000 0.000000
# 4 0.000000 0.000000 0.000000 0.036256 0.000000 0.000000
# 5 0.000000 0.000000 0.000000 0.000000 0.031913 0.000000
# 6 0.000000 0.000000 0.000000 0.000000 0.000000 0.034221
#
#
# Mechanical properties :
#
#
# Convention : Reuss Voigt Hill
#
# Bulk Modulus (GPa) = 44.74395 46.84828 45.79612
# Shear Modulus (GPa) = 30.13407 32.94891 31.54149
#
# Velocity S-wave (km/s) = 3.62434 3.78984 3.70801
# Velocity P-wave (km/s) = 6.08432 6.29065 6.18834
#
# Compressibility (1/GPa) = 0.02234939
#
# Stress axis : x y z
#
# Youngs Moduli (GPa) = 59.29855 109.47872 75.64806
#
# Poissons Ratio (x) = 0.55704 0.35909
# Poissons Ratio (y) = 0.30172 -0.10600
# Poissons Ratio (z) = 0.28148 -0.15340
#
# Static dielectric constant tensor:
#      x y z
#    x 1.912030 0.000000 0.000000 
#    y 0.000000 1.951880 0.000000 
#    z 0.000000 0.000000 1.832270 
# 
# From -- ./inp_files/20898.got.cif
#   From: 2010.05.17/outbox.cif.g08.bks.cpg/sg23_11_cif.got.tgz:20898.got - 2010.06.04 12:02:01.
