data_PCOD9330369
_publ_section_title
;
Structure prediction by ZEFSAII (Michael W. Deem and Ramdas Pophale) SiO2 
 PCOD9330369
Probable space group: I 2 2 2
;
_chemical_formula_sum "Si O2"
_cell_formula_units_Z 64
_cell_length_a 17.021628
_cell_length_b 8.716699
_cell_length_c 23.047452
_cell_angle_alpha 90.000000
_cell_angle_beta 90.000000
_cell_angle_gamma 90.000000
_cell_volume 3419.605946
_symmetry_space_group_name_H-M "I 2 2 2"
_symmetry_group_IT_number 23
_symmetry_cell_setting 'orthorhombic'
loop_
_space_group_symop_operation_xyz
x,y,z
-x,-y,z
x,-y,-z
-x,y,-z
1/2+x,1/2+y,1/2+z
1/2-x,1/2-y,1/2+z
1/2+x,1/2-y,1/2-z
1/2-x,1/2+y,1/2-z
loop_
_atom_site_type_symbol
_atom_site_label
_atom_site_fract_x
_atom_site_fract_y
_atom_site_fract_z
Si Si1 0.887775 0.691075 0.196126
Si Si2 0.350912 0.689104 0.175895
Si Si3 0.536617 0.327997 0.736285
Si Si4 0.754877 0.623959 0.659225
Si Si5 0.917606 0.291307 0.468786
Si Si6 0.398690 0.648136 0.853871
Si Si7 0.817225 0.367107 0.211540
Si Si8 0.650635 0.087851 0.078798
O O1 0.867360 0.737991 0.262226
O O2 0.832339 0.805586 0.159211
O O3 0.863682 0.515069 0.188452
O O4 0.979942 0.725049 0.196391
O O5 0.386377 0.522056 0.169008
O O6 0.256763 0.671971 0.171879
O O7 0.381694 0.796388 0.125704
O O8 0.500000 0.500000 0.730120
O O9 0.541240 0.285226 0.805365
O O10 0.625779 0.280855 0.718519
O O11 0.816166 0.762344 0.648780
O O12 0.779695 0.581338 0.725673
O O13 0.775224 0.495104 0.611004
O O14 0.918094 0.156605 0.421639
O O15 0.849459 0.318278 0.517780
O O16 0.907580 0.446376 0.431762
O O17 0.000000 0.287929 0.500000
#
# Coordination Sequence:
#
# PCOD9330369 Si02
#       8
#     8   8   8   8   8   8   8   8
#     4  11  20  34  53  80 112 153 186 244 285 369
#     4  11  21  34  57  78 109 150 204 235 293 341
#     4  11  23  34  52  85 121 147 194 240 295 358
#     4   9  19  33  55  74 108 148 199 233 288 339
#     4  10  23  40  57  76 115 156 208 248 290 335
#     4  10  21  38  52  80 113 157 199 246 285 337
#     4  10  21  35  52  79 110 154 189 231 296 368
#     4  10  20  36  54  79  99 152 195 248 277 345
#
# _framework density 18.715606000000001
#
# number of rings (size 3 to 8) (size 9 to 14) (size 15 to 20)
#    0.000    1.750    3.750    1.125    3.500    0.500 
#    2.250    1.250    0.000    0.000    0.000    0.000 
#    0.000   17.000    2.250    0.000    0.000    0.000 
#
# Total GULP energy -178195.691113 kJ/mol
# GULP energy per Si atom -5568.615347 kJ/mol
# Density = 1.867301 g / cm^3
# Si number density = 18.715606 Si / 1000 Ang^3
#
#
#
# Elastic Constant Matrix: (Units=GPa)
#
#
# Indices 1 2 3 4 5 6 
#
# 1 72.6054 0.8522 18.2347 0.0000 0.0000 0.0000
# 2 0.8522 44.5476 12.3819 0.0000 0.0000 0.0000
# 3 18.2347 12.3819 46.8354 0.0000 0.0000 0.0000
# 4 0.0000 0.0000 0.0000 9.3886 0.0000 0.0000
# 5 0.0000 0.0000 0.0000 0.0000 19.9403 0.0000
# 6 0.0000 0.0000 0.0000 0.0000 0.0000 27.8040
#
#
#
# Elastic Compliance Matrix: (Units=1/GPa)
#
#
# Indices 1 2 3 4 5 6 
#
# 1 0.015355 0.001476 -0.006369 0.000000 0.000000 0.000000
# 2 0.001476 0.024370 -0.007018 0.000000 0.000000 0.000000
# 3 -0.006369 -0.007018 0.025686 0.000000 0.000000 0.000000
# 4 0.000000 0.000000 0.000000 0.106513 0.000000 0.000000
# 5 0.000000 0.000000 0.000000 0.000000 0.050150 0.000000
# 6 0.000000 0.000000 0.000000 0.000000 0.000000 0.035966
#
#
# Mechanical properties :
#
#
# Convention : Reuss Voigt Hill
#
# Bulk Modulus (GPa) = 24.04315 25.21401 24.62858
# Shear Modulus (GPa) = 16.90768 20.26122 18.58445
#
# Velocity S-wave (km/s) = 3.00892 3.29383 3.15460
# Velocity P-wave (km/s) = 4.99459 5.28840 5.14360
#
# Compressibility (1/GPa) = 0.04159188
#
# Stress axis : x y z
#
# Youngs Moduli (GPa) = 65.12435 41.03378 38.93141
#
# Poissons Ratio (x) = -0.06058 0.24794
# Poissons Ratio (y) = -0.09615 0.27320
# Poissons Ratio (z) = 0.41476 0.28796
#
# Static dielectric constant tensor:
#      x y z
#    x 1.738740 0.000000 0.000000 
#    y 0.000000 1.699390 0.000000 
#    z 0.000000 0.000000 1.676660 
# 
# From -- ./inp_files/28653.got.cif
#   From: 2010.05.17/outbox.cif.g08.bks.cpg/sg23_15_cif.got.tgz:28653.got - 2010.06.04 12:02:01.
