data_PCOD9330129
_publ_section_title
;
Structure prediction by ZEFSAII (Michael W. Deem and Ramdas Pophale) SiO2 
 PCOD9330129
Probable space group: I 2 2 2
;
_chemical_formula_sum "Si O2"
_cell_formula_units_Z 48
_cell_length_a 9.657795
_cell_length_b 11.397500
_cell_length_c 25.200960
_cell_angle_alpha 90.000000
_cell_angle_beta 90.000000
_cell_angle_gamma 90.000000
_cell_volume 2773.988578
_symmetry_space_group_name_H-M "I 2 2 2"
_symmetry_group_IT_number 23
_symmetry_cell_setting 'orthorhombic'
loop_
_space_group_symop_operation_xyz
x,y,z
-x,-y,z
x,-y,-z
-x,y,-z
1/2+x,1/2+y,1/2+z
1/2-x,1/2-y,1/2+z
1/2+x,1/2-y,1/2-z
1/2-x,1/2+y,1/2-z
loop_
_atom_site_type_symbol
_atom_site_label
_atom_site_fract_x
_atom_site_fract_y
_atom_site_fract_z
Si Si1 0.500000 0.860208 0.707177
Si Si2 0.000000 0.861173 0.940412
Si Si3 0.500000 0.859085 0.166236
Si Si4 0.775369 0.731160 0.872904
Si Si5 0.331110 0.000000 0.563140
Si Si6 0.724632 0.231160 0.372904
O O1 0.500000 0.843269 0.770051
O O2 0.366140 0.804280 0.678680
O O3 0.633861 0.804280 0.678680
O O4 0.500000 0.000000 0.696902
O O5 0.867728 0.817704 0.908310
O O6 0.132273 0.817704 0.908311
O O7 0.000000 0.000000 0.943545
O O8 0.000000 0.810152 0.000000
O O9 0.365554 0.794281 0.142904
O O10 0.634445 0.794281 0.142904
O O11 0.500000 0.000000 0.155586
O O12 0.767259 0.613473 0.908193
O O13 0.267258 0.113473 0.591807
O O14 0.500000 0.000000 0.571204
O O15 0.307793 0.000000 0.500000
#
# Coordination Sequence:
#
# PCOD9330129 Si02
#       6
#     8   8   8   8   8   8
#     4  10  19  39  61  87 113 154 197 246 287 350
#     4  10  20  35  59  84 110 150 200 237 280 345
#     4  11  25  38  56  83 124 163 194 233 296 346
#     4  11  20  38  60  86 119 150 194 245 293 351
#     4  11  20  37  67  93 113 147 197 253 305 343
#     4  11  20  38  60  86 119 150 194 245 293 351
#
# _framework density 17.303604
#
# number of rings (size 3 to 8) (size 9 to 14) (size 15 to 20)
#    0.000    1.333    5.000    3.000    0.000    0.667 
#    0.000    4.167    7.333    6.000    0.000    0.000 
#    0.000    0.000    0.000    0.000    0.000    0.000 
#
# Total GULP energy -133999.363819 kJ/mol
# GULP energy per Si atom -5583.306826 kJ/mol
# Density = 1.726422 g / cm^3
# Si number density = 17.303604 Si / 1000 Ang^3
#
#
#
# Elastic Constant Matrix: (Units=GPa)
#
#
# Indices 1 2 3 4 5 6 
#
# 1 168.1986 87.5784 93.8180 0.0000 0.0000 0.0000
# 2 87.5784 140.0964 78.5650 0.0000 0.0000 0.0000
# 3 93.8180 78.5650 148.1834 0.0000 0.0000 0.0000
# 4 0.0000 0.0000 0.0000 11.8145 0.0000 0.0000
# 5 0.0000 0.0000 0.0000 0.0000 -0.0490 0.0000
# 6 0.0000 0.0000 0.0000 0.0000 0.0000 28.4516
#
#
#
# Elastic Compliance Matrix: (Units=1/GPa)
#
#
# Indices 1 2 3 4 5 6 
#
# 1 0.010609 -0.004078 -0.004555 0.000000 0.000000 0.000000
# 2 -0.004078 0.011726 -0.003635 0.000000 0.000000 0.000000
# 3 -0.004555 -0.003635 0.011559 0.000000 0.000000 0.000000
# 4 0.000000 0.000000 0.000000 0.084642 0.000000 0.000000
# 5 0.000000 0.000000 0.000000 0.000000-20.404967 0.000000
# 6 0.000000 0.000000 0.000000 0.000000 0.000000 0.035147
#
#
# Mechanical properties :
#
#
# Convention : Reuss Voigt Hill
#
# Bulk Modulus (GPa) = 106.85140 108.48900 107.67020
# Shear Modulus (GPa) = -0.24724 21.14456 10.44866
#
# Velocity S-wave (km/s) = -0.37841 3.49947 2.45999
# Velocity P-wave (km/s) = 7.85456 8.89729 8.39214
#
# Compressibility (1/GPa) = 0.00935879
#
# Stress axis : x y z
#
# Youngs Moduli (GPa) = 94.25738 85.28373 86.50913
#
# Poissons Ratio (x) = 0.34777 0.39404
# Poissons Ratio (y) = 0.38436 0.31446
# Poissons Ratio (z) = 0.42934 0.31001
#
# Static dielectric constant tensor:
#      x y z
#    x 1.555390 0.000000 0.000000 
#    y 0.000000 1.592900 0.000000 
#    z 0.000000 0.000000 1.581870 
# 
# From -- ./inp_files/8763.got.cif
#   From: 2010.05.17/outbox.cif.g08.bks.cpg/sg23_5_cif.got.tgz:8763.got - 2010.06.04 12:02:01.
