data_PCOD9330066
_publ_section_title
;
Structure prediction by ZEFSAII (Michael W. Deem and Ramdas Pophale) SiO2 
 PCOD9330066
Probable space group: I 2 2 2
;
_chemical_formula_sum "Si O2"
_cell_formula_units_Z 58
_cell_length_a 14.981862
_cell_length_b 8.336829
_cell_length_c 21.557065
_cell_angle_alpha 90.000000
_cell_angle_beta 90.000000
_cell_angle_gamma 90.000000
_cell_volume 2692.503753
_symmetry_space_group_name_H-M "I 2 2 2"
_symmetry_group_IT_number 23
_symmetry_cell_setting 'orthorhombic'
loop_
_space_group_symop_operation_xyz
x,y,z
-x,-y,z
x,-y,-z
-x,y,-z
1/2+x,1/2+y,1/2+z
1/2-x,1/2-y,1/2+z
1/2+x,1/2-y,1/2-z
1/2-x,1/2+y,1/2-z
loop_
_atom_site_type_symbol
_atom_site_label
_atom_site_fract_x
_atom_site_fract_y
_atom_site_fract_z
Si Si1 0.337188 0.218078 0.740338
Si Si2 0.120348 0.228843 0.852276
Si Si3 0.116967 0.799661 0.400101
Si Si4 0.527103 0.310528 0.771755
Si Si5 0.254770 0.457143 0.830636
Si Si6 0.500000 0.500000 0.000000
Si Si7 0.965536 0.184792 0.937811
Si Si8 0.286772 0.601200 0.386800
O O1 0.442954 0.210150 0.747833
O O2 0.305250 0.306260 0.802028
O O3 0.308581 0.322725 0.680534
O O4 0.287553 0.053754 0.726714
O O5 0.106610 0.206775 0.778231
O O6 0.171733 0.390084 0.868120
O O7 0.021179 0.242251 0.879204
O O8 0.178345 0.081758 0.880272
O O9 0.053663 0.761843 0.341159
O O10 0.061018 0.881864 0.456137
O O11 0.187070 0.650776 0.408349
O O12 0.180795 0.937690 0.371818
O O13 0.500000 0.500000 0.771417
O O14 0.859981 0.183813 0.931454
O O15 0.000000 0.000000 0.939490
O O16 0.000000 0.265316 0.000000
#
# Coordination Sequence:
#
# PCOD9330066 Si02
#       8
#     8   8   8   8   8   2   8   8
#     4  11  20  36  57  87 127 160 219 258 327 392
#     4  11  20  36  62  91 134 164 203 270 333 387
#     4  11  24  40  67  90 124 176 229 267 334 395
#     4  12  19  37  62  90 124 177 209 262 332 405
#     4  11  23  36  59  94 126 169 214 272 328 396
#     4  12  24  48  68  90 126 180 226 290 332 388
#     4   9  18  34  58  88 121 166 206 249 318 392
#     4  10  19  37  60  89 118 165 215 265 312 399
#
# _framework density 21.541287000000001
#
# number of rings (size 3 to 8) (size 9 to 14) (size 15 to 20)
#    0.000    1.241    4.828    2.897    0.000    1.655 
#    0.000    0.000    0.000    4.966    0.000    0.000 
#    0.000    0.000    0.000    0.000    0.000    0.000 
#
# Total GULP energy -161780.399528 kJ/mol
# GULP energy per Si atom -5578.634466 kJ/mol
# Density = 2.149226 g / cm^3
# Si number density = 21.541287 Si / 1000 Ang^3
#
#
#
# Elastic Constant Matrix: (Units=GPa)
#
#
# Indices 1 2 3 4 5 6 
#
# 1 124.6016 32.3560 43.1549 0.0000 0.0000 0.0000
# 2 32.3560 36.1946 7.6351 0.0000 0.0000 0.0000
# 3 43.1549 7.6351 87.6650 0.0000 0.0000 0.0000
# 4 0.0000 0.0000 0.0000 5.2215 0.0000 0.0000
# 5 0.0000 0.0000 0.0000 0.0000 13.5022 0.0000
# 6 0.0000 0.0000 0.0000 0.0000 0.0000 28.6972
#
#
#
# Elastic Compliance Matrix: (Units=1/GPa)
#
#
# Indices 1 2 3 4 5 6 
#
# 1 0.012447 -0.010019 -0.005255 0.000000 0.000000 0.000000
# 2 -0.010019 0.036209 0.001778 0.000000 0.000000 0.000000
# 3 -0.005255 0.001778 0.013839 0.000000 0.000000 0.000000
# 4 0.000000 0.000000 0.000000 0.191515 0.000000 0.000000
# 5 0.000000 0.000000 0.000000 0.000000 0.074062 0.000000
# 6 0.000000 0.000000 0.000000 0.000000 0.000000 0.034847
#
#
# Mechanical properties :
#
#
# Convention : Reuss Voigt Hill
#
# Bulk Modulus (GPa) = 28.16486 46.08367 37.12427
# Shear Modulus (GPa) = 12.44572 20.50520 16.47546
#
# Velocity S-wave (km/s) = 2.40627 3.08864 2.76856
# Velocity P-wave (km/s) = 4.56327 5.84459 5.24322
#
# Compressibility (1/GPa) = 0.03550523
#
# Stress axis : x y z
#
# Youngs Moduli (GPa) = 80.33978 27.61711 72.25975
#
# Poissons Ratio (x) = 0.27668 0.37971
# Poissons Ratio (y) = 0.80489 -0.12850
# Poissons Ratio (z) = 0.42217 -0.04911
#
# Static dielectric constant tensor:
#      x y z
#    x 1.849550 0.000000 0.000000 
#    y 0.000000 1.837900 0.000000 
#    z 0.000000 0.000000 1.838720 
# 
# From -- ./inp_files/28547.got.cif
#   From: 2010.05.17/outbox.cif.g08.bks.cpg/sg23_15_cif.got.tgz:28547.got - 2010.06.04 12:02:01.
