data_PCOD9330237
_publ_section_title
;
Structure prediction by ZEFSAII (Michael W. Deem and Ramdas Pophale) SiO2 
 PCOD9330237
Probable space group: I 2 2 2
;
_chemical_formula_sum "Si O2"
_cell_formula_units_Z 46
_cell_length_a 5.391297
_cell_length_b 14.425140
_cell_length_c 25.831986
_cell_angle_alpha 90.000000
_cell_angle_beta 90.000000
_cell_angle_gamma 90.000000
_cell_volume 2008.959079
_symmetry_space_group_name_H-M "I 2 2 2"
_symmetry_group_IT_number 23
_symmetry_cell_setting 'orthorhombic'
loop_
_space_group_symop_operation_xyz
x,y,z
-x,-y,z
x,-y,-z
-x,y,-z
1/2+x,1/2+y,1/2+z
1/2-x,1/2-y,1/2+z
1/2+x,1/2-y,1/2-z
1/2-x,1/2+y,1/2-z
loop_
_atom_site_type_symbol
_atom_site_label
_atom_site_fract_x
_atom_site_fract_y
_atom_site_fract_z
Si Si1 0.502099 0.612748 0.154902
Si Si2 0.000000 0.189490 0.000000
Si Si3 0.500571 0.887348 0.286028
Si Si4 0.984182 0.386376 0.667045
Si Si5 0.018992 0.110336 0.110977
Si Si6 0.000000 0.500000 0.000000
Si Si7 0.176886 0.148919 0.456274
O O1 0.500000 0.500000 0.150423
O O2 0.763184 0.640460 0.180004
O O3 0.457480 0.653357 0.098077
O O4 0.265266 0.639672 0.189977
O O5 0.064556 0.131829 0.050799
O O6 0.782312 0.255984 0.020885
O O7 0.467942 0.857270 0.226723
O O8 0.500000 0.000000 0.285294
O O9 0.242792 0.354656 0.642270
O O10 0.000000 0.500000 0.666120
O O11 0.742474 0.355654 0.634655
O O12 0.000000 0.000000 0.116964
O O13 0.892241 0.573455 0.957996
O O14 0.000000 0.108659 0.500000
#
# Coordination Sequence:
#
# PCOD9330237 Si02
#       7
#     8   4   8   8   8   2   8
#     4  10  20  33  59  88 125 158 201 255 304 367
#     4  11  27  41  61  92 124 172 213 265 321 379
#     4   9  18  32  56  94 124 153 201 256 308 368
#     4   9  18  35  62  94 126 158 201 259 319 373
#     4  10  21  39  66  94 127 164 210 263 316 382
#     4  10  22  40  62  86 122 164 224 256 314 376
#     4  11  25  40  61  88 126 170 212 265 314 380
#
# _framework density 22.897428000000001
#
# number of rings (size 3 to 8) (size 9 to 14) (size 15 to 20)
#    0.000    2.087    0.000    2.609   10.957    4.174 
#    0.000    2.609    0.000    4.174    0.000    0.000 
#    0.000    0.000    0.000    0.000    0.000    0.000 
#
# Total GULP energy -128559.183031 kJ/mol
# GULP energy per Si atom -5589.529697 kJ/mol
# Density = 2.284531 g / cm^3
# Si number density = 22.897428 Si / 1000 Ang^3
#
#
#
# Elastic Constant Matrix: (Units=GPa)
#
#
# Indices 1 2 3 4 5 6 
#
# 1 164.7748 22.3745 96.4972 0.0000 0.0000 0.0000
# 2 22.3745 54.1859 14.4509 0.0000 0.0000 0.0000
# 3 96.4972 14.4509 202.2895 0.0000 0.0000 0.0000
# 4 0.0000 0.0000 0.0000 -27.7770 0.0000 0.0000
# 5 0.0000 0.0000 0.0000 0.0000 -10.7833 0.0000
# 6 0.0000 0.0000 0.0000 0.0000 0.0000 6.4896
#
#
#
# Elastic Compliance Matrix: (Units=1/GPa)
#
#
# Indices 1 2 3 4 5 6 
#
# 1 0.008754 -0.002550 -0.003994 0.000000 0.000000 0.000000
# 2 -0.002550 0.019556 -0.000181 0.000000 0.000000 0.000000
# 3 -0.003994 -0.000181 0.006861 0.000000 0.000000 0.000000
# 4 0.000000 0.000000 0.000000 -0.036001 0.000000 0.000000
# 5 0.000000 0.000000 0.000000 0.000000 -0.092736 0.000000
# 6 0.000000 0.000000 0.000000 0.000000 0.000000 0.154092
#
#
# Mechanical properties :
#
#
# Convention : Reuss Voigt Hill
#
# Bulk Modulus (GPa) = 46.03387 76.43284 61.23335
# Shear Modulus (GPa) = 61.56480 12.78105 37.17292
#
# Velocity S-wave (km/s) = 5.19091 2.36516 4.03358
# Velocity P-wave (km/s) = 7.48836 6.39622 6.96373
#
# Compressibility (1/GPa) = 0.02172314
#
# Stress axis : x y z
#
# Youngs Moduli (GPa) = 114.23435 51.13525 145.74228
#
# Poissons Ratio (x) = 0.13037 0.58205
# Poissons Ratio (y) = 0.29125 0.02635
# Poissons Ratio (z) = 0.45622 0.00925
#
# Static dielectric constant tensor:
#      x y z
#    x 1.913990 0.000000 0.000000 
#    y 0.000000 1.913820 0.000000 
#    z 0.000000 0.000000 1.792270 
# 
# From -- ./inp_files/27660.got.cif
#   From: 2010.05.17/outbox.cif.g08.bks.cpg/sg23_14_cif.got.tgz:27660.got - 2010.06.04 12:02:01.
