data_PCOD9330022
_publ_section_title
;
Structure prediction by ZEFSAII (Michael W. Deem and Ramdas Pophale) SiO2 
 PCOD9330022
Probable space group: I 2 2 2
;
_chemical_formula_sum "Si O2"
_cell_formula_units_Z 52
_cell_length_a 20.479425
_cell_length_b 15.552140
_cell_length_c 7.510214
_cell_angle_alpha 90.000000
_cell_angle_beta 90.000000
_cell_angle_gamma 90.000000
_cell_volume 2391.994783
_symmetry_space_group_name_H-M "I 2 2 2"
_symmetry_group_IT_number 23
_symmetry_cell_setting 'orthorhombic'
loop_
_space_group_symop_operation_xyz
x,y,z
-x,-y,z
x,-y,-z
-x,y,-z
1/2+x,1/2+y,1/2+z
1/2-x,1/2-y,1/2+z
1/2+x,1/2-y,1/2-z
1/2-x,1/2+y,1/2-z
loop_
_atom_site_type_symbol
_atom_site_label
_atom_site_fract_x
_atom_site_fract_y
_atom_site_fract_z
Si Si1 0.335980 0.500000 0.000000
Si Si2 0.771759 0.242204 0.254995
Si Si3 0.451881 0.812715 0.247384
Si Si4 0.409819 0.818164 0.663737
Si Si5 0.593799 0.009797 0.291528
Si Si6 0.155056 0.815931 0.607736
Si Si7 0.739180 0.052507 0.183458
O O1 0.370501 0.411253 0.939743
O O2 0.291134 0.521127 0.829364
O O3 0.837310 0.281528 0.172307
O O4 0.798615 0.211341 0.444793
O O5 0.709973 0.306499 0.262175
O O6 0.749259 0.154023 0.161631
O O7 0.428189 0.817043 0.454275
O O8 0.525791 0.777303 0.245352
O O9 0.447780 0.914617 0.200479
O O10 0.401995 0.751899 0.144126
O O11 0.406932 0.910584 0.761491
O O12 0.667985 0.039754 0.268482
O O13 0.575525 0.000000 0.500000
O O14 0.743330 0.000000 0.000000
#
# Coordination Sequence:
#
# PCOD9330022 Si02
#       7
#     4   8   8   8   8   8   8
#     4  10  24  40  58  93 123 168 214 280 320 376
#     4  11  24  38  60  93 125 166 215 268 327 383
#     4  10  21  39  62  91 126 175 213 257 326 397
#     4  10  22  37  62  92 129 170 212 262 320 392
#     4  10  19  36  58  92 134 170 209 260 321 394
#     4  11  23  40  63  90 128 169 219 271 332 385
#     4  11  23  37  61  93 127 167 214 266 329 382
#
# _framework density 21.739177999999999
#
# number of rings (size 3 to 8) (size 9 to 14) (size 15 to 20)
#    0.000    1.538    2.308    2.308   10.769    2.462 
#    0.000    0.000    0.000   10.154    0.000    0.000 
#    0.000    0.000    0.000    0.000    0.000    0.000 
#
# Total GULP energy -145067.706346 kJ/mol
# GULP energy per Si atom -5579.527167 kJ/mol
# Density = 2.168970 g / cm^3
# Si number density = 21.739178 Si / 1000 Ang^3
#
#
#
# Elastic Constant Matrix: (Units=GPa)
#
#
# Indices 1 2 3 4 5 6 
#
# 1 108.9832 53.9889 3.4782 0.0000 0.0000 0.0000
# 2 53.9889 149.9765 31.4816 0.0000 0.0000 0.0000
# 3 3.4782 31.4816 57.2701 0.0000 0.0000 0.0000
# 4 0.0000 0.0000 0.0000 29.9817 0.0000 0.0000
# 5 0.0000 0.0000 0.0000 0.0000 22.1414 0.0000
# 6 0.0000 0.0000 0.0000 0.0000 0.0000 79.3898
#
#
#
# Elastic Compliance Matrix: (Units=1/GPa)
#
#
# Indices 1 2 3 4 5 6 
#
# 1 0.011321 -0.004444 0.001755 0.000000 0.000000 0.000000
# 2 -0.004444 0.009282 -0.004832 0.000000 0.000000 0.000000
# 3 0.001755 -0.004832 0.020011 0.000000 0.000000 0.000000
# 4 0.000000 0.000000 0.000000 0.033354 0.000000 0.000000
# 5 0.000000 0.000000 0.000000 0.000000 0.045164 0.000000
# 6 0.000000 0.000000 0.000000 0.000000 0.000000 0.012596
#
#
# Mechanical properties :
#
#
# Convention : Reuss Voigt Hill
#
# Bulk Modulus (GPa) = 39.10547 54.90302 47.00424
# Shear Modulus (GPa) = 32.19706 41.45466 36.82586
#
# Velocity S-wave (km/s) = 3.85263 4.37156 4.12027
# Velocity P-wave (km/s) = 6.14962 7.12677 6.65615
#
# Compressibility (1/GPa) = 0.02557187
#
# Stress axis : x y z
#
# Youngs Moduli (GPa) = 88.33043 107.73800 49.97281
#
# Poissons Ratio (x) = 0.47877 -0.08771
# Poissons Ratio (y) = 0.39253 0.24149
# Poissons Ratio (z) = -0.15504 0.52063
#
# Static dielectric constant tensor:
#      x y z
#    x 1.788940 0.000000 0.000000 
#    y 0.000000 1.850150 0.000000 
#    z 0.000000 0.000000 1.924520 
# 
# From -- ./inp_files/11981.got.cif
#   From: 2010.05.17/outbox.cif.g08.bks.cpg/sg23_6_cif.got.tgz:11981.got - 2010.06.04 12:02:01.
