data_PCOD9330552
_publ_section_title
;
Structure prediction by ZEFSAII (Michael W. Deem and Ramdas Pophale) SiO2 
 PCOD9330552
Probable space group: I 2 2 2
;
_chemical_formula_sum "Si O2"
_cell_formula_units_Z 40
_cell_length_a 30.235217
_cell_length_b 7.396828
_cell_length_c 7.128194
_cell_angle_alpha 90.000000
_cell_angle_beta 90.000000
_cell_angle_gamma 90.000000
_cell_volume 1594.182806
_symmetry_space_group_name_H-M "I 2 2 2"
_symmetry_group_IT_number 23
_symmetry_cell_setting 'orthorhombic'
loop_
_space_group_symop_operation_xyz
x,y,z
-x,-y,z
x,-y,-z
-x,y,-z
1/2+x,1/2+y,1/2+z
1/2-x,1/2-y,1/2+z
1/2+x,1/2-y,1/2-z
1/2-x,1/2+y,1/2-z
loop_
_atom_site_type_symbol
_atom_site_label
_atom_site_fract_x
_atom_site_fract_y
_atom_site_fract_z
Si Si1 0.004232 0.290158 0.221271
Si Si2 0.656446 0.500000 0.000000
Si Si3 0.089433 0.755857 0.337823
Si Si4 0.899316 0.364824 0.757253
Si Si5 0.695571 0.228490 0.282873
Si Si6 0.245744 0.500000 0.500000
O O1 0.056058 0.247934 0.227534
O O2 0.000000 0.500000 0.287488
O O3 0.962779 0.193091 0.322369
O O4 0.000000 0.281983 0.000000
O O5 0.623944 0.580394 0.164087
O O6 0.687814 0.361468 0.106192
O O7 0.105835 0.673217 0.535180
O O8 0.092102 0.578507 0.205578
O O9 0.853934 0.311463 0.853609
O O10 0.724215 0.330487 0.437638
O O11 0.717215 0.054628 0.183062
#
# Coordination Sequence:
#
# PCOD9330552 Si02
#       6
#     8   4   8   8   8   4
#     4   9  17  30  51  84 121 157 199 248 302 366
#     4  10  20  38  63  92 124 162 214 264 327 404
#     4   9  17  32  57  85 120 162 205 250 302 380
#     4   9  18  35  58  83 117 162 209 253 310 384
#     4  11  24  43  66  93 125 165 213 272 337 400
#     4  12  26  46  70  96 130 166 218 280 344 402
#
# _framework density 25.091222999999999
#
# number of rings (size 3 to 8) (size 9 to 14) (size 15 to 20)
#    0.000    2.200    0.000    4.200    0.000    4.000 
#    0.000   14.000    0.000    4.800    0.000    0.000 
#    0.000    0.000    0.000    0.000    0.000    0.000 
#
# Total GULP energy -111443.081541 kJ/mol
# GULP energy per Si atom -5572.154077 kJ/mol
# Density = 2.503411 g / cm^3
# Si number density = 25.091223 Si / 1000 Ang^3
#
#
#
# Elastic Constant Matrix: (Units=GPa)
#
#
# Indices 1 2 3 4 5 6 
#
# 1 136.4483 31.8370 15.0204 0.0000 0.0000 0.0000
# 2 31.8370 54.9530 -0.6675 0.0000 0.0000 0.0000
# 3 15.0204 -0.6675 43.5530 0.0000 0.0000 0.0000
# 4 0.0000 0.0000 0.0000 30.9799 0.0000 0.0000
# 5 0.0000 0.0000 0.0000 0.0000 26.0474 0.0000
# 6 0.0000 0.0000 0.0000 0.0000 0.0000 46.4179
#
#
#
# Elastic Compliance Matrix: (Units=1/GPa)
#
#
# Indices 1 2 3 4 5 6 
#
# 1 0.008885 -0.005186 -0.003144 0.000000 0.000000 0.000000
# 2 -0.005186 0.021227 0.002114 0.000000 0.000000 0.000000
# 3 -0.003144 0.002114 0.024077 0.000000 0.000000 0.000000
# 4 0.000000 0.000000 0.000000 0.032279 0.000000 0.000000
# 5 0.000000 0.000000 0.000000 0.000000 0.038391 0.000000
# 6 0.000000 0.000000 0.000000 0.000000 0.000000 0.021543
#
#
# Mechanical properties :
#
#
# Convention : Reuss Voigt Hill
#
# Bulk Modulus (GPa) = 23.94738 36.37047 30.15893
# Shear Modulus (GPa) = 28.94299 33.27335 31.10817
#
# Velocity S-wave (km/s) = 3.40002 3.64551 3.52490
# Velocity P-wave (km/s) = 4.99784 5.67859 5.34906
#
# Compressibility (1/GPa) = 0.04175822
#
# Stress axis : x y z
#
# Youngs Moduli (GPa) = 112.55216 47.10914 41.53327
#
# Poissons Ratio (x) = 0.24429 0.13057
# Poissons Ratio (y) = 0.58365 -0.08779
# Poissons Ratio (z) = 0.35382 -0.09958
#
# Static dielectric constant tensor:
#      x y z
#    x 2.082910 0.000000 0.000000 
#    y 0.000000 2.281730 0.000000 
#    z 0.000000 0.000000 1.990240 
# 
# From -- ./inp_files/12910.got.cif
#   From: 2010.05.17/outbox.cif.g08.bks.cpg/sg23_7_cif.got.tgz:12910.got - 2010.06.04 12:02:01.
