data_PCOD9330053
_publ_section_title
;
Structure prediction by ZEFSAII (Michael W. Deem and Ramdas Pophale) SiO2 
 PCOD9330053
Probable space group: I 2 2 2
;
_chemical_formula_sum "Si O2"
_cell_formula_units_Z 64
_cell_length_a 11.813993
_cell_length_b 16.610723
_cell_length_c 14.553902
_cell_angle_alpha 90.000000
_cell_angle_beta 90.000000
_cell_angle_gamma 90.000000
_cell_volume 2856.042669
_symmetry_space_group_name_H-M "I 2 2 2"
_symmetry_group_IT_number 23
_symmetry_cell_setting 'orthorhombic'
loop_
_space_group_symop_operation_xyz
x,y,z
-x,-y,z
x,-y,-z
-x,y,-z
1/2+x,1/2+y,1/2+z
1/2-x,1/2-y,1/2+z
1/2+x,1/2-y,1/2-z
1/2-x,1/2+y,1/2-z
loop_
_atom_site_type_symbol
_atom_site_label
_atom_site_fract_x
_atom_site_fract_y
_atom_site_fract_z
Si Si1 0.934020 0.929042 0.226438
Si Si2 0.966820 0.217484 0.903320
Si Si3 0.430200 0.079177 0.792052
Si Si4 0.277304 0.236120 0.115502
Si Si5 0.235366 0.490767 0.835699
Si Si6 0.078851 0.104182 0.588880
Si Si7 0.635759 0.093674 0.015380
Si Si8 0.131048 0.672088 0.199413
O O1 0.936412 0.850459 0.168216
O O2 0.812134 0.964001 0.249281
O O3 0.999655 0.910396 0.321943
O O4 0.000000 0.000000 0.176674
O O5 0.849209 0.266308 0.907678
O O6 0.075088 0.265799 0.869177
O O7 0.000000 0.181118 0.000000
O O8 0.352990 0.110151 0.875307
O O9 0.525796 0.140384 0.760683
O O10 0.500000 0.000000 0.825285
O O11 0.359032 0.049926 0.704571
O O12 0.365690 0.307452 0.094379
O O13 0.289087 0.212577 0.223657
O O14 0.304609 0.157836 0.051799
O O15 0.319496 0.538812 0.902360
O O16 0.181188 0.403823 0.857572
O O17 0.000000 0.095980 0.500000
O O18 0.500000 0.101580 0.000000
O O19 0.669159 0.000000 0.000000
#
# Coordination Sequence:
#
# PCOD9330053 Si02
#       8
#     8   8   8   8   8   8   8   8
#     4  10  23  44  70  98 145 192 241 300 366 446
#     4  12  28  48  65 105 146 186 244 305 378 459
#     4  10  19  36  68 105 144 181 240 303 368 434
#     4  12  24  43  70 102 147 198 240 305 389 438
#     4  10  22  43  73 102 138 198 241 302 377 436
#     4  11  25  45  72 111 147 189 258 310 367 450
#     4  11  19  34  61 110 148 182 244 302 359 452
#     4  11  22  44  74  97 141 192 237 305 370 450
#
# _framework density 22.408629000000001
#
# number of rings (size 3 to 8) (size 9 to 14) (size 15 to 20)
#    0.000    1.125    5.000    1.875    0.000    5.500 
#    2.250    1.250    0.000    4.875    0.000    0.000 
#    0.000    0.000    0.000    0.000    0.000    0.000 
#
# Total GULP energy -178825.343955 kJ/mol
# GULP energy per Si atom -5588.291999 kJ/mol
# Density = 2.235763 g / cm^3
# Si number density = 22.408629 Si / 1000 Ang^3
#
#
#
# Elastic Constant Matrix: (Units=GPa)
#
#
# Indices 1 2 3 4 5 6 
#
# 1 77.3256 18.5732 23.0861 0.0000 0.0000 0.0000
# 2 18.5732 94.5105 28.8894 0.0000 0.0000 0.0000
# 3 23.0861 28.8894 88.6853 0.0000 0.0000 0.0001
# 4 0.0000 0.0000 0.0000 -3.3096 0.0000 0.0000
# 5 0.0000 0.0000 0.0000 0.0000 19.6173 0.0000
# 6 0.0000 0.0000 0.0001 0.0000 0.0000 26.5996
#
#
#
# Elastic Compliance Matrix: (Units=1/GPa)
#
#
# Indices 1 2 3 4 5 6 
#
# 1 0.014310 -0.001859 -0.003120 0.000000 0.000000 0.000000
# 2 -0.001859 0.011992 -0.003423 0.000000 0.000000 0.000000
# 3 -0.003120 -0.003423 0.013203 0.000000 0.000000 0.000000
# 4 0.000000 0.000000 0.000000 -0.302149 0.000000 0.000000
# 5 0.000000 0.000000 0.000000 0.000000 0.050975 0.000000
# 6 0.000000 0.000000 0.000000 0.000000 0.000000 0.037595
#
#
# Mechanical properties :
#
#
# Convention : Reuss Voigt Hill
#
# Bulk Modulus (GPa) = 44.04638 44.62430 44.33534
# Shear Modulus (GPa) = -33.39932 21.24631 -6.07650
#
# Velocity S-wave (km/s) = -3.86484 3.08251 -1.64850
# Velocity P-wave (km/s) = 0.46623 5.71194 4.02548
#
# Compressibility (1/GPa) = 0.02270334
#
# Stress axis : x y z
#
# Youngs Moduli (GPa) = 69.88033 83.38667 75.74110
#
# Poissons Ratio (x) = 0.15499 0.23629
# Poissons Ratio (y) = 0.12988 0.25924
# Poissons Ratio (z) = 0.21801 0.28541
#
# Static dielectric constant tensor:
#      x y z
#    x 1.917960 0.000000 0.000000 
#    y 0.000000 1.875540 0.000000 
#    z 0.000000 0.000000 1.855360 
# 
# From -- ./inp_files/21038.got.cif
#   From: 2010.05.17/outbox.cif.g08.bks.cpg/sg23_11_cif.got.tgz:21038.got - 2010.06.04 12:02:01.
