data_PCOD9330906
_publ_section_title
;
Structure prediction by ZEFSAII (Michael W. Deem and Ramdas Pophale) SiO2 
 PCOD9330906
Probable space group: I 2 2 2
;
_chemical_formula_sum "Si O2"
_cell_formula_units_Z 56
_cell_length_a 8.758108
_cell_length_b 20.622469
_cell_length_c 15.542860
_cell_angle_alpha 90.000000
_cell_angle_beta 90.000000
_cell_angle_gamma 90.000000
_cell_volume 2807.255174
_symmetry_space_group_name_H-M "I 2 2 2"
_symmetry_group_IT_number 23
_symmetry_cell_setting 'orthorhombic'
loop_
_space_group_symop_operation_xyz
x,y,z
-x,-y,z
x,-y,-z
-x,y,-z
1/2+x,1/2+y,1/2+z
1/2-x,1/2-y,1/2+z
1/2+x,1/2-y,1/2-z
1/2-x,1/2+y,1/2-z
loop_
_atom_site_type_symbol
_atom_site_label
_atom_site_fract_x
_atom_site_fract_y
_atom_site_fract_z
Si Si1 0.238886 0.595205 0.384562
Si Si2 0.320751 0.381309 0.279866
Si Si3 0.500000 0.848128 0.000000
Si Si4 0.313422 0.775542 0.122392
Si Si5 0.514997 0.925559 0.276675
Si Si6 0.921455 0.210086 0.792012
Si Si7 0.500000 0.500000 0.352853
Si Si8 0.420823 0.819207 0.589010
O O1 0.322371 0.659181 0.346630
O O2 0.370684 0.542239 0.399909
O O3 0.141839 0.609506 0.469323
O O4 0.117177 0.575037 0.310195
O O5 0.286287 0.340987 0.367360
O O6 0.155047 0.396021 0.239662
O O7 0.447462 0.331948 0.242148
O O8 0.405383 0.448454 0.296476
O O9 0.465740 0.801550 0.080216
O O10 0.331060 0.746985 0.217538
O O11 0.234771 0.719204 0.068489
O O12 0.593847 0.880392 0.348180
O O13 0.500000 0.000000 0.304394
O O14 0.988233 0.264654 0.855629
O O15 0.500000 0.836588 0.500000
#
# Coordination Sequence:
#
# PCOD9330906 Si02
#       8
#     8   8   4   8   8   8   4   8
#     4  11  22  41  65  95 126 172 213 272 310 388
#     4  10  21  37  62  92 119 166 217 259 310 372
#     4  12  24  36  65 100 138 161 216 264 326 382
#     4  11  22  39  63  98 127 171 210 263 323 394
#     4  12  22  40  67  88 124 171 230 256 311 386
#     4  10  21  39  66  90 129 165 214 259 328 389
#     4  10  22  42  63  90 125 170 224 254 314 371
#     4  11  23  39  62  94 134 165 209 273 333 376
#
# _framework density 19.948311
#
# number of rings (size 3 to 8) (size 9 to 14) (size 15 to 20)
#    0.000    1.143    5.714    0.857    2.000    1.429 
#    0.000    3.929    0.000    0.000    0.000    1.000 
#    0.000    0.000    0.000    0.000    0.000    0.000 
#
# Total GULP energy -156136.166565 kJ/mol
# GULP energy per Si atom -5576.291663 kJ/mol
# Density = 1.990291 g / cm^3
# Si number density = 19.948311 Si / 1000 Ang^3
#
#
#
# Elastic Constant Matrix: (Units=GPa)
#
#
# Indices 1 2 3 4 5 6 
#
# 1 93.6298 34.4182 13.8952 0.0000 0.0000 0.0000
# 2 34.4182 124.2205 24.4157 0.0000 0.0000 0.0000
# 3 13.8952 24.4157 54.8723 0.0000 0.0000 0.0000
# 4 0.0000 0.0000 0.0000 4.2418 0.0000 0.0000
# 5 0.0000 0.0000 0.0000 0.0000 27.8354 0.0000
# 6 0.0000 0.0000 0.0000 0.0000 0.0000 40.1737
#
#
#
# Elastic Compliance Matrix: (Units=1/GPa)
#
#
# Indices 1 2 3 4 5 6 
#
# 1 0.012037 -0.002998 -0.001714 0.000000 0.000000 0.000000
# 2 -0.002998 0.009569 -0.003498 0.000000 0.000000 0.000000
# 3 -0.001714 -0.003498 0.020215 0.000000 0.000000 0.000000
# 4 0.000000 0.000000 0.000000 0.235749 0.000000 0.000000
# 5 0.000000 0.000000 0.000000 0.000000 0.035925 0.000000
# 6 0.000000 0.000000 0.000000 0.000000 0.000000 0.024892
#
#
# Mechanical properties :
#
#
# Convention : Reuss Voigt Hill
#
# Bulk Modulus (GPa) = 39.37154 46.46454 42.91804
# Shear Modulus (GPa) = 13.76371 27.78309 20.77340
#
# Velocity S-wave (km/s) = 2.62958 3.73601 3.23051
# Velocity P-wave (km/s) = 5.38509 6.47714 5.95620
#
# Compressibility (1/GPa) = 0.02539906
#
# Stress axis : x y z
#
# Youngs Moduli (GPa) = 83.07811 104.50935 49.46883
#
# Poissons Ratio (x) = 0.31334 0.08479
# Poissons Ratio (y) = 0.24908 0.17306
# Poissons Ratio (z) = 0.14240 0.36561
#
# Static dielectric constant tensor:
#      x y z
#    x 1.805890 0.000000 0.000000 
#    y 0.000000 1.710400 0.000000 
#    z 0.000000 0.000000 1.673090 
# 
# From -- ./inp_files/20224.got.cif
#   From: 2010.05.17/outbox.cif.g08.bks.cpg/sg23_11_cif.got.tgz:20224.got - 2010.06.04 12:02:01.
