data_PCOD9330857
_publ_section_title
;
Structure prediction by ZEFSAII (Michael W. Deem and Ramdas Pophale) SiO2 
 PCOD9330857
Probable space group: I 2 2 2
;
_chemical_formula_sum "Si O2"
_cell_formula_units_Z 58
_cell_length_a 12.217330
_cell_length_b 14.535130
_cell_length_c 14.064450
_cell_angle_alpha 90.000000
_cell_angle_beta 90.000000
_cell_angle_gamma 90.000000
_cell_volume 2497.571779
_symmetry_space_group_name_H-M "I 2 2 2"
_symmetry_group_IT_number 23
_symmetry_cell_setting 'orthorhombic'
loop_
_space_group_symop_operation_xyz
x,y,z
-x,-y,z
x,-y,-z
-x,y,-z
1/2+x,1/2+y,1/2+z
1/2-x,1/2-y,1/2+z
1/2+x,1/2-y,1/2-z
1/2-x,1/2+y,1/2-z
loop_
_atom_site_type_symbol
_atom_site_label
_atom_site_fract_x
_atom_site_fract_y
_atom_site_fract_z
Si Si1 0.789402 0.516237 0.840106
Si Si2 0.300907 0.821080 0.382868
Si Si3 0.539739 0.163922 0.605469
Si Si4 0.425822 0.408730 0.755891
Si Si5 0.500000 0.500000 0.500000
Si Si6 0.389592 0.946510 0.859111
Si Si7 0.096641 0.244662 0.727560
Si Si8 0.820206 0.872602 0.046713
O O1 0.713279 0.288573 0.807261
O O2 0.887306 0.573968 0.886355
O O3 0.677854 0.571923 0.822928
O O4 0.831450 0.501106 0.730431
O O5 0.267825 0.925946 0.402887
O O6 0.422433 0.835501 0.342277
O O7 0.301712 0.737662 0.458911
O O8 0.500000 0.177278 0.500000
O O9 0.603019 0.242979 0.659499
O O10 0.500000 0.500000 0.747128
O O11 0.502402 0.327774 0.794327
O O12 0.380972 0.385134 0.650106
O O13 0.404073 0.423004 0.474797
O O14 0.420325 0.845677 0.816886
O O15 0.297106 0.921421 0.937305
O O16 0.500000 0.000000 0.886726
#
# Coordination Sequence:
#
# PCOD9330857 Si02
#       8
#     8   8   8   8   2   8   8   8
#     4  10  21  36  62  97 129 166 219 273 339 391
#     4  11  21  38  62  93 128 174 221 275 331 402
#     4  11  24  40  62  97 139 173 218 283 347 402
#     4  11  19  38  62  95 122 164 213 279 327 382
#     4  12  24  44  54  88 130 176 212 268 336 404
#     4   9  19  38  59  91 122 162 208 276 323 379
#     4  10  21  38  65  94 130 170 225 276 323 412
#     4  10  23  36  59  87 126 163 216 261 331 396
#
# _framework density 23.222556999999998
#
# number of rings (size 3 to 8) (size 9 to 14) (size 15 to 20)
#    0.000    1.655    3.448    2.897    0.966    1.103 
#    0.000    0.345    0.000    0.828    0.000    0.000 
#    0.000    0.000    0.000    0.000    0.000    0.000 
#
# Total GULP energy -161688.276283 kJ/mol
# GULP energy per Si atom -5575.457803 kJ/mol
# Density = 2.316970 g / cm^3
# Si number density = 23.222557 Si / 1000 Ang^3
#
#
#
# Elastic Constant Matrix: (Units=GPa)
#
#
# Indices 1 2 3 4 5 6 
#
# 1 124.5914 60.3102 47.4591 0.0000 0.0000 0.0000
# 2 60.3102 162.0060 35.1618 0.0000 0.0000 0.0000
# 3 47.4591 35.1618 39.8608 0.0000 0.0000 0.0000
# 4 0.0000 0.0000 0.0000 14.3523 0.0000 0.0000
# 5 0.0000 0.0000 0.0000 0.0000 23.2760 0.0000
# 6 0.0000 0.0000 0.0000 0.0000 0.0000 55.5770
#
#
#
# Elastic Compliance Matrix: (Units=1/GPa)
#
#
# Indices 1 2 3 4 5 6 
#
# 1 0.015270 -0.002150 -0.016284 0.000000 0.000000 0.000000
# 2 -0.002150 0.007937 -0.004441 0.000000 0.000000 0.000000
# 3 -0.016284 -0.004441 0.048393 0.000000 0.000000 0.000000
# 4 0.000000 0.000000 0.000000 0.069675 0.000000 0.000000
# 5 0.000000 0.000000 0.000000 0.000000 0.042963 0.000000
# 6 0.000000 0.000000 0.000000 0.000000 0.000000 0.017993
#
#
# Mechanical properties :
#
#
# Convention : Reuss Voigt Hill
#
# Bulk Modulus (GPa) = 38.68606 68.03563 53.36084
# Shear Modulus (GPa) = 19.48572 30.87620 25.18096
#
# Velocity S-wave (km/s) = 2.89984 3.65029 3.29649
# Velocity P-wave (km/s) = 5.28272 6.86491 6.12512
#
# Compressibility (1/GPa) = 0.02584910
#
# Stress axis : x y z
#
# Youngs Moduli (GPa) = 65.48806 125.99185 20.66418
#
# Poissons Ratio (x) = 0.27092 0.33649
# Poissons Ratio (y) = 0.14082 0.09177
# Poissons Ratio (z) = 1.06640 0.55955
#
# Static dielectric constant tensor:
#      x y z
#    x 1.884850 0.000000 0.000000 
#    y 0.000000 1.956940 0.000000 
#    z 0.000000 0.000000 1.972030 
# 
# From -- ./inp_files/24414.got.cif
#   From: 2010.05.17/outbox.cif.g08.bks.cpg/sg23_13_cif.got.tgz:24414.got - 2010.06.04 12:02:01.
