data_PCOD9330820
_publ_section_title
;
Structure prediction by ZEFSAII (Michael W. Deem and Ramdas Pophale) SiO2 
 PCOD9330820
Probable space group: I 2 2 2
;
_chemical_formula_sum "Si O2"
_cell_formula_units_Z 48
_cell_length_a 5.437514
_cell_length_b 20.195544
_cell_length_c 20.256670
_cell_angle_alpha 90.000000
_cell_angle_beta 90.000000
_cell_angle_gamma 90.000000
_cell_volume 2224.456909
_symmetry_space_group_name_H-M "I 2 2 2"
_symmetry_group_IT_number 23
_symmetry_cell_setting 'orthorhombic'
loop_
_space_group_symop_operation_xyz
x,y,z
-x,-y,z
x,-y,-z
-x,y,-z
1/2+x,1/2+y,1/2+z
1/2-x,1/2-y,1/2+z
1/2+x,1/2-y,1/2-z
1/2-x,1/2+y,1/2-z
loop_
_atom_site_type_symbol
_atom_site_label
_atom_site_fract_x
_atom_site_fract_y
_atom_site_fract_z
Si Si1 0.500000 0.722407 0.500000
Si Si2 0.354762 0.565344 0.288722
Si Si3 0.393848 0.290339 0.925731
Si Si4 0.969392 0.741758 0.210618
Si Si5 0.223753 0.670137 0.387984
Si Si6 0.177088 0.883213 0.329340
Si Si7 0.500000 0.000000 0.315834
O O1 0.618592 0.771650 0.446354
O O2 0.310775 0.673755 0.463404
O O3 0.500000 0.500000 0.313088
O O4 0.209399 0.601896 0.348199
O O5 0.551990 0.604320 0.242229
O O6 0.159294 0.544565 0.233493
O O7 0.505975 0.224355 0.890172
O O8 0.480776 0.350997 0.880084
O O9 0.500000 0.299237 0.000000
O O10 0.740102 0.759048 0.259328
O O11 0.939202 0.797154 0.155623
O O12 0.888701 0.671320 0.181545
O O13 0.308384 0.951244 0.352065
#
# Coordination Sequence:
#
# PCOD9330820 Si02
#       7
#     4   8   8   8   8   8   4
#     4  10  22  38  59  86 128 167 214 272 338 398
#     4  10  21  37  58  89 123 173 213 268 326 390
#     4   9  21  38  59  93 123 170 208 271 336 394
#     4  11  22  34  60  98 128 164 210 267 334 395
#     4  10  21  36  59  87 128 162 215 268 325 394
#     4  10  21  35  61  89 131 166 219 261 334 395
#     4  10  22  38  56  87 129 174 212 274 324 398
#
# _framework density 21.578301
#
# number of rings (size 3 to 8) (size 9 to 14) (size 15 to 20)
#    0.000    2.000    1.667    1.000    4.667    5.333 
#    0.000    0.417    0.000    5.500    0.000    0.000 
#    0.000    0.000    0.000    0.000    0.000    0.000 
#
# Total GULP energy -133667.421977 kJ/mol
# GULP energy per Si atom -5569.475916 kJ/mol
# Density = 2.152919 g / cm^3
# Si number density = 21.578301 Si / 1000 Ang^3
#
#
#
# Elastic Constant Matrix: (Units=GPa)
#
#
# Indices 1 2 3 4 5 6 
#
# 1 73.1457 21.0358 36.0898 0.0000 0.0000 0.0000
# 2 21.0358 96.2466 44.3024 0.0000 0.0000 0.0000
# 3 36.0898 44.3024 76.2926 0.0000 0.0000 0.0000
# 4 0.0000 0.0000 0.0000 33.2891 0.0000 0.0000
# 5 0.0000 0.0000 0.0000 0.0000 47.3454 0.0000
# 6 0.0000 0.0000 0.0000 0.0000 0.0000 34.3569
#
#
#
# Elastic Compliance Matrix: (Units=1/GPa)
#
#
# Indices 1 2 3 4 5 6 
#
# 1 0.017834 -0.000020 -0.008425 0.000000 0.000000 0.000000
# 2 -0.000020 0.014180 -0.008225 0.000000 0.000000 0.000000
# 3 -0.008425 -0.008225 0.021869 0.000000 0.000000 0.000000
# 4 0.000000 0.000000 0.000000 0.030040 0.000000 0.000000
# 5 0.000000 0.000000 0.000000 0.000000 0.021121 0.000000
# 6 0.000000 0.000000 0.000000 0.000000 0.000000 0.029106
#
#
# Mechanical properties :
#
#
# Convention : Reuss Voigt Hill
#
# Bulk Modulus (GPa) = 48.67618 49.83784 49.25701
# Shear Modulus (GPa) = 28.68008 32.61541 30.64774
#
# Velocity S-wave (km/s) = 3.64966 3.89201 3.77278
# Velocity P-wave (km/s) = 6.35350 6.58357 6.46956
#
# Compressibility (1/GPa) = 0.02054393
#
# Stress axis : x y z
#
# Youngs Moduli (GPa) = 56.07352 70.52051 45.72733
#
# Poissons Ratio (x) = 0.00140 0.38523
# Poissons Ratio (y) = 0.00112 0.37610
# Poissons Ratio (z) = 0.47240 0.58003
#
# Static dielectric constant tensor:
#      x y z
#    x 1.933660 0.000000 0.000000 
#    y 0.000000 1.874810 0.000000 
#    z 0.000000 0.000000 1.855140 
# 
# From -- ./inp_files/3906.got.cif
#   From: 2010.05.17/outbox.cif.g08.bks.cpg/sg23_2_cif.got.tgz:3906.got - 2010.06.04 12:02:01.
