data_PCOD9330646
_publ_section_title
;
Structure prediction by ZEFSAII (Michael W. Deem and Ramdas Pophale) SiO2 
 PCOD9330646
Probable space group: I 2 2 2
;
_chemical_formula_sum "Si O2"
_cell_formula_units_Z 52
_cell_length_a 17.866085
_cell_length_b 5.520484
_cell_length_c 23.359989
_cell_angle_alpha 90.000000
_cell_angle_beta 90.000000
_cell_angle_gamma 90.000000
_cell_volume 2303.982549
_symmetry_space_group_name_H-M "I 2 2 2"
_symmetry_group_IT_number 23
_symmetry_cell_setting 'orthorhombic'
loop_
_space_group_symop_operation_xyz
x,y,z
-x,-y,z
x,-y,-z
-x,y,-z
1/2+x,1/2+y,1/2+z
1/2-x,1/2-y,1/2+z
1/2+x,1/2-y,1/2-z
1/2-x,1/2+y,1/2-z
loop_
_atom_site_type_symbol
_atom_site_label
_atom_site_fract_x
_atom_site_fract_y
_atom_site_fract_z
Si Si1 0.238281 0.864714 0.656233
Si Si2 0.593604 0.104059 0.174393
Si Si3 0.854104 0.767172 0.586874
Si Si4 0.100816 0.395815 0.793604
Si Si5 0.926318 0.106508 0.857595
Si Si6 0.211152 0.976171 0.938031
Si Si7 0.500000 0.500000 0.888018
O O1 0.173664 0.722686 0.689332
O O2 0.262403 0.711159 0.599046
O O3 0.194438 0.100571 0.635695
O O4 0.310644 0.913683 0.693394
O O5 0.579477 0.933900 0.228073
O O6 0.532070 0.296745 0.155102
O O7 0.609283 0.964971 0.115591
O O8 0.786006 0.681893 0.547498
O O9 0.927161 0.927519 0.574217
O O10 0.083581 0.121094 0.813974
O O11 0.066957 0.632602 0.826827
O O12 0.852832 0.131528 0.896879
O O13 0.000000 0.000000 0.889975
O O14 0.174723 0.000000 0.000000
#
# Coordination Sequence:
#
# PCOD9330646 Si02
#       7
#     8   8   8   8   8   8   4
#     4   9  21  38  61  94 125 164 218 277 323 389
#     4  10  23  35  64  91 133 178 219 266 321 397
#     4  10  20  40  60  92 124 165 218 272 328 393
#     4  11  24  40  64  95 139 180 220 264 324 388
#     4  11  25  43  63  98 138 174 221 277 328 397
#     4  10  22  43  68  91 122 168 220 280 343 400
#     4  10  22  38  60  91 132 172 221 266 330 394
#
# _framework density 22.569616
#
# number of rings (size 3 to 8) (size 9 to 14) (size 15 to 20)
#    0.000    1.846    1.538    0.923    7.538    2.154 
#    0.000    0.000    0.000   28.615    0.000    0.000 
#    0.000    0.000    0.000    0.000    0.000    0.000 
#
# Total GULP energy -144837.879643 kJ/mol
# GULP energy per Si atom -5570.687679 kJ/mol
# Density = 2.251825 g / cm^3
# Si number density = 22.569616 Si / 1000 Ang^3
#
#
#
# Elastic Constant Matrix: (Units=GPa)
#
#
# Indices 1 2 3 4 5 6 
#
# 1 128.2036 23.5272 -7.0050 0.0000 0.0000 0.0000
# 2 23.5272 76.6796 9.3742 0.0000 0.0000 0.0000
# 3 -7.0050 9.3742 52.2006 0.0000 0.0000 0.0000
# 4 0.0000 0.0000 0.0000 7.7816 0.0000 0.0000
# 5 0.0000 0.0000 0.0000 0.0000 -0.2845 0.0000
# 6 0.0000 0.0000 0.0000 0.0000 0.0000 54.4563
#
#
#
# Elastic Compliance Matrix: (Units=1/GPa)
#
#
# Indices 1 2 3 4 5 6 
#
# 1 0.008398 -0.002776 0.001625 0.000000 0.000000 0.000000
# 2 -0.002776 0.014251 -0.002932 0.000000 0.000000 0.000000
# 3 0.001625 -0.002932 0.019901 0.000000 0.000000 0.000000
# 4 0.000000 0.000000 0.000000 0.128509 0.000000 0.000000
# 5 0.000000 0.000000 0.000000 0.000000 -3.515224 0.000000
# 6 0.000000 0.000000 0.000000 0.000000 0.000000 0.018363
#
#
# Mechanical properties :
#
#
# Convention : Reuss Voigt Hill
#
# Bulk Modulus (GPa) = 29.08039 34.31961 31.70000
# Shear Modulus (GPa) = -1.51232 27.80316 13.14542
#
# Velocity S-wave (km/s) = -0.81947 3.51363 2.41600
# Velocity P-wave (km/s) = 3.46661 5.63027 4.67532
#
# Compressibility (1/GPa) = 0.03438743
#
# Stress axis : x y z
#
# Youngs Moduli (GPa) = 119.07237 70.16911 50.24757
#
# Poissons Ratio (x) = 0.19475 -0.08167
# Poissons Ratio (y) = 0.33049 0.14731
# Poissons Ratio (z) = -0.19354 0.20571
#
# Static dielectric constant tensor:
#      x y z
#    x 1.941180 0.000000 0.000000 
#    y 0.000000 1.912400 0.000000 
#    z 0.000000 0.000000 1.765140 
# 
# From -- ./inp_files/29662.got.cif
#   From: 2010.05.17/outbox.cif.g08.bks.cpg/sg23_15_cif.got.tgz:29662.got - 2010.06.04 12:02:01.
