data_PCOD9330244
_publ_section_title
;
Structure prediction by ZEFSAII (Michael W. Deem and Ramdas Pophale) SiO2 
 PCOD9330244
Probable space group: I 2 2 2
;
_chemical_formula_sum "Si O2"
_cell_formula_units_Z 52
_cell_length_a 5.143908
_cell_length_b 24.255210
_cell_length_c 17.953805
_cell_angle_alpha 90.000000
_cell_angle_beta 90.000000
_cell_angle_gamma 90.000000
_cell_volume 2240.034646
_symmetry_space_group_name_H-M "I 2 2 2"
_symmetry_group_IT_number 23
_symmetry_cell_setting 'orthorhombic'
loop_
_space_group_symop_operation_xyz
x,y,z
-x,-y,z
x,-y,-z
-x,y,-z
1/2+x,1/2+y,1/2+z
1/2-x,1/2-y,1/2+z
1/2+x,1/2-y,1/2-z
1/2-x,1/2+y,1/2-z
loop_
_atom_site_type_symbol
_atom_site_label
_atom_site_fract_x
_atom_site_fract_y
_atom_site_fract_z
Si Si1 0.310486 0.251645 0.555703
Si Si2 0.088217 0.306177 0.815373
Si Si3 0.500000 0.352255 0.000000
Si Si4 0.980327 0.326955 0.346451
Si Si5 0.742811 0.439048 0.534995
Si Si6 0.584952 0.623979 0.160573
Si Si7 0.475067 0.399510 0.323031
O O1 0.500000 0.281729 0.500000
O O2 0.482601 0.238371 0.628236
O O3 0.074299 0.288235 0.584080
O O4 0.224392 0.193480 0.517813
O O5 0.062476 0.292576 0.729176
O O6 0.382224 0.325241 0.829071
O O7 0.884105 0.356764 0.830900
O O8 0.486131 0.389647 0.074675
O O9 0.762726 0.376374 0.342469
O O10 0.267299 0.350907 0.338686
O O11 0.749239 0.500000 0.500000
O O12 0.500000 0.408147 0.500000
O O13 0.661020 0.443385 0.621408
O O14 0.000000 0.412529 0.500000
O O15 0.530122 0.587524 0.234480
#
# Coordination Sequence:
#
# PCOD9330244 Si02
#       7
#     8   8   4   8   8   8   8
#     4  11  22  33  49  69  98 135 193 246 278 325
#     4   9  19  35  47  65  92 133 179 229 274 319
#     4  10  20  34  48  70 102 137 191 236 270 324
#     4  10  23  34  52  72 102 141 183 229 293 325
#     4  10  21  38  62  87 112 143 175 216 275 352
#     4   9  18  33  54  69  97 136 177 225 275 318
#     4  10  21  39  53  78 107 139 175 229 284 347
#
# _framework density 23.213927999999999
#
# number of rings (size 3 to 8) (size 9 to 14) (size 15 to 20)
#    0.000    2.154    1.538    0.923    2.154    8.000 
#    0.000    0.000    0.000    0.000    0.000    0.000 
#    0.000    2.462    0.000   10.154    0.000    0.000 
#
# Total GULP energy -144910.051380 kJ/mol
# GULP energy per Si atom -5573.463515 kJ/mol
# Density = 2.316109 g / cm^3
# Si number density = 23.213928 Si / 1000 Ang^3
#
#
#
# Elastic Constant Matrix: (Units=GPa)
#
#
# Indices 1 2 3 4 5 6 
#
# 1 121.4040 1.9656 11.2133 0.0000 0.0000 0.0000
# 2 1.9656 31.3028 31.2668 0.0000 0.0000 0.0000
# 3 11.2133 31.2668 199.5635 0.0000 0.0000 0.0000
# 4 0.0000 0.0000 0.0000 18.2435 0.0000 0.0000
# 5 0.0000 0.0000 0.0000 0.0000 20.4222 0.0000
# 6 0.0000 0.0000 0.0000 0.0000 0.0000 8.3142
#
#
#
# Elastic Compliance Matrix: (Units=1/GPa)
#
#
# Indices 1 2 3 4 5 6 
#
# 1 0.008280 -0.000065 -0.000455 0.000000 0.000000 0.000000
# 2 -0.000065 0.037874 -0.005930 0.000000 0.000000 0.000000
# 3 -0.000455 -0.005930 0.005966 0.000000 0.000000 0.000000
# 4 0.000000 0.000000 0.000000 0.054814 0.000000 0.000000
# 5 0.000000 0.000000 0.000000 0.000000 0.048966 0.000000
# 6 0.000000 0.000000 0.000000 0.000000 0.000000 0.120275
#
#
# Mechanical properties :
#
#
# Convention : Reuss Voigt Hill
#
# Bulk Modulus (GPa) = 25.49859 49.01799 37.25829
# Shear Modulus (GPa) = 16.54813 29.91762 23.23287
#
# Velocity S-wave (km/s) = 2.67283 3.59385 3.16700
# Velocity P-wave (km/s) = 4.53138 6.19537 5.42752
#
# Compressibility (1/GPa) = 0.03921786
#
# Stress axis : x y z
#
# Youngs Moduli (GPa) = 120.77230 26.40368 167.62708
#
# Poissons Ratio (x) = 0.00173 0.07627
# Poissons Ratio (y) = 0.00791 0.99406
# Poissons Ratio (z) = 0.05495 0.15658
#
# Static dielectric constant tensor:
#      x y z
#    x 1.984470 0.000000 0.000000 
#    y 0.000000 2.235780 0.000000 
#    z 0.000000 0.000000 2.033800 
# 
# From -- ./inp_files/23244.got.cif
#   From: 2010.05.17/outbox.cif.g08.bks.cpg/sg23_12_cif.got.tgz:23244.got - 2010.06.04 12:02:01.
