data_PCOD9330615
_publ_section_title
;
Structure prediction by ZEFSAII (Michael W. Deem and Ramdas Pophale) SiO2 
 PCOD9330615
Probable space group: I 2 2 2
;
_chemical_formula_sum "Si O2"
_cell_formula_units_Z 58
_cell_length_a 23.541122
_cell_length_b 7.793821
_cell_length_c 14.637735
_cell_angle_alpha 90.000000
_cell_angle_beta 90.000000
_cell_angle_gamma 90.000000
_cell_volume 2685.662689
_symmetry_space_group_name_H-M "I 2 2 2"
_symmetry_group_IT_number 23
_symmetry_cell_setting 'orthorhombic'
loop_
_space_group_symop_operation_xyz
x,y,z
-x,-y,z
x,-y,-z
-x,y,-z
1/2+x,1/2+y,1/2+z
1/2-x,1/2-y,1/2+z
1/2+x,1/2-y,1/2-z
1/2-x,1/2+y,1/2-z
loop_
_atom_site_type_symbol
_atom_site_label
_atom_site_fract_x
_atom_site_fract_y
_atom_site_fract_z
Si Si1 0.213539 0.393647 0.779547
Si Si2 0.095716 0.213438 0.231896
Si Si3 0.871177 0.835666 0.701630
Si Si4 0.782987 0.195000 0.463776
Si Si5 0.504061 0.295260 0.857879
Si Si6 0.664539 0.144103 0.426523
Si Si7 0.309987 0.151520 0.854412
Si Si8 0.500000 0.000000 0.000000
O O1 0.158028 0.275344 0.780310
O O2 0.200499 0.546250 0.848037
O O3 0.268473 0.294200 0.811285
O O4 0.218722 0.475700 0.678844
O O5 0.030607 0.221269 0.263067
O O6 0.114810 0.262062 0.129556
O O7 0.130692 0.335180 0.301654
O O8 0.115968 0.023154 0.259673
O O9 0.823322 0.831144 0.623420
O O10 0.929443 0.763352 0.660043
O O11 0.716794 0.256582 0.465335
O O12 0.814630 0.309922 0.539596
O O13 0.778648 0.000000 0.500000
O O14 0.500000 0.500000 0.886878
O O15 0.479761 0.149623 0.926738
O O16 0.645939 0.000000 0.500000
#
# Coordination Sequence:
#
# PCOD9330615 Si02
#       8
#     8   8   8   8   8   8   8   2
#     4  11  22  36  60  89 123 164 219 262 333 401
#     4  10  21  41  64  86 130 170 215 269 337 392
#     4  11  23  40  62  89 128 173 215 271 326 401
#     4  11  20  35  58  91 129 170 209 264 329 398
#     4  10  26  43  65  97 131 178 226 275 333 411
#     4  10  20  39  64  93 127 165 216 272 334 402
#     4  11  21  36  60  89 127 169 212 267 332 401
#     4  12  26  40  68  94 142 164 226 272 336 400
#
# _framework density 21.596160999999999
#
# number of rings (size 3 to 8) (size 9 to 14) (size 15 to 20)
#    0.000    1.379    4.138    2.690    5.793    0.552 
#    0.000    0.690    0.000    1.655    0.000    2.897 
#    0.000    0.000    0.000    0.000    0.000    0.000 
#
# Total GULP energy -161595.170177 kJ/mol
# GULP energy per Si atom -5572.247247 kJ/mol
# Density = 2.154701 g / cm^3
# Si number density = 21.596161 Si / 1000 Ang^3
#
#
#
# Elastic Constant Matrix: (Units=GPa)
#
#
# Indices 1 2 3 4 5 6 
#
# 1 72.6081 15.9137 11.8192 0.0000 0.0000 0.0000
# 2 15.9137 67.1949 22.4637 0.0000 0.0000 0.0000
# 3 11.8192 22.4637 70.9461 0.0000 0.0000 0.0000
# 4 0.0000 0.0000 0.0000 42.5655 0.0000 0.0000
# 5 0.0000 0.0000 0.0000 0.0000 25.3689 0.0000
# 6 0.0000 0.0000 0.0000 0.0000 0.0000 19.0840
#
#
#
# Elastic Compliance Matrix: (Units=1/GPa)
#
#
# Indices 1 2 3 4 5 6 
#
# 1 0.014668 -0.002972 -0.001503 0.000000 0.000000 0.000000
# 2 -0.002972 0.017246 -0.004966 0.000000 0.000000 0.000000
# 3 -0.001503 -0.004966 0.015918 0.000000 0.000000 0.000000
# 4 0.000000 0.000000 0.000000 0.023493 0.000000 0.000000
# 5 0.000000 0.000000 0.000000 0.000000 0.039418 0.000000
# 6 0.000000 0.000000 0.000000 0.000000 0.000000 0.052400
#
#
# Mechanical properties :
#
#
# Convention : Reuss Voigt Hill
#
# Bulk Modulus (GPa) = 34.53943 34.57136 34.55539
# Shear Modulus (GPa) = 26.08592 28.10716 27.09654
#
# Velocity S-wave (km/s) = 3.47925 3.61153 3.54601
# Velocity P-wave (km/s) = 5.67171 5.78219 5.72722
#
# Compressibility (1/GPa) = 0.02895242
#
# Stress axis : x y z
#
# Youngs Moduli (GPa) = 68.17344 57.98499 62.82268
#
# Poissons Ratio (x) = 0.17230 0.09441
# Poissons Ratio (y) = 0.20258 0.31195
# Poissons Ratio (z) = 0.10245 0.28793
#
# Static dielectric constant tensor:
#      x y z
#    x 1.770340 0.000000 0.000000 
#    y 0.000000 1.874510 0.000000 
#    z 0.000000 0.000000 1.901000 
# 
# From -- ./inp_files/10320.got.cif
#   From: 2010.05.17/outbox.cif.g08.bks.cpg/sg23_6_cif.got.tgz:10320.got - 2010.06.04 12:02:01.
