data_PCOD9330707
_publ_section_title
;
Structure prediction by ZEFSAII (Michael W. Deem and Ramdas Pophale) SiO2 
 PCOD9330707
Probable space group: I 2 2 2
;
_chemical_formula_sum "Si O2"
_cell_formula_units_Z 34
_cell_length_a 15.831767
_cell_length_b 6.050340
_cell_length_c 16.297797
_cell_angle_alpha 90.000000
_cell_angle_beta 90.000000
_cell_angle_gamma 90.000000
_cell_volume 1561.126422
_symmetry_space_group_name_H-M "I 2 2 2"
_symmetry_group_IT_number 23
_symmetry_cell_setting 'orthorhombic'
loop_
_space_group_symop_operation_xyz
x,y,z
-x,-y,z
x,-y,-z
-x,y,-z
1/2+x,1/2+y,1/2+z
1/2-x,1/2-y,1/2+z
1/2+x,1/2-y,1/2-z
1/2-x,1/2+y,1/2-z
loop_
_atom_site_type_symbol
_atom_site_label
_atom_site_fract_x
_atom_site_fract_y
_atom_site_fract_z
Si Si1 0.000000 0.000000 0.000000
Si Si2 0.000000 0.500000 0.386334
Si Si3 0.585821 0.380512 0.219214
Si Si4 0.135582 0.163719 0.567320
Si Si5 0.294698 0.000000 0.500000
Si Si6 0.582045 0.145510 0.376396
O O1 0.053653 0.166431 0.058148
O O2 0.949543 0.680599 0.334404
O O3 0.925520 0.367737 0.429226
O O4 0.500000 0.500000 0.249436
O O5 0.635176 0.542709 0.156696
O O6 0.625003 0.269814 0.299777
O O7 0.096271 0.000000 0.500000
O O8 0.229375 0.189922 0.529709
O O9 0.355368 0.023642 0.422381
O O10 0.500000 0.000000 0.351496
#
# Coordination Sequence:
#
# PCOD9330707 Si02
#       6
#     2   4   8   8   4   8
#     4  12  22  40  72  98 126 194 238 268 352 418
#     4  10  20  41  70  89 130 182 226 283 342 412
#     4  10  21  38  67 101 128 174 241 282 340 425
#     4   9  23  44  61 103 138 178 230 286 353 419
#     4  10  23  48  59  98 154 170 230 296 346 422
#     4  12  22  43  69 100 137 187 235 285 345 426
#
# _framework density 21.779145
#
# number of rings (size 3 to 8) (size 9 to 14) (size 15 to 20)
#    0.706    0.941    4.706    0.000    0.000    6.118 
#    8.471    0.000    0.000    0.000    0.000    0.000 
#    0.000    0.000    0.000    0.000    0.000    0.000 
#
# Total GULP energy -94692.418540 kJ/mol
# GULP energy per Si atom -5570.142267 kJ/mol
# Density = 2.172957 g / cm^3
# Si number density = 21.779145 Si / 1000 Ang^3
#
#
#
# Elastic Constant Matrix: (Units=GPa)
#
#
# Indices 1 2 3 4 5 6 
#
# 1 86.4997 18.6820 33.0898 0.0000 0.0000 0.0000
# 2 18.6820 81.3101 36.1231 0.0000 0.0000 0.0000
# 3 33.0898 36.1231 135.8648 0.0000 0.0000 0.0000
# 4 0.0000 0.0000 0.0000 45.1885 0.0000 0.0000
# 5 0.0000 0.0000 0.0000 0.0000 -54.5684 0.0000
# 6 0.0000 0.0000 0.0000 0.0000 0.0000 9.1402
#
#
#
# Elastic Compliance Matrix: (Units=1/GPa)
#
#
# Indices 1 2 3 4 5 6 
#
# 1 0.012974 -0.001788 -0.002684 0.000000 0.000000 0.000000
# 2 -0.001788 0.014192 -0.003338 0.000000 0.000000 0.000000
# 3 -0.002684 -0.003338 0.008901 0.000000 0.000000 0.000000
# 4 0.000000 0.000000 0.000000 0.022130 0.000000 0.000000
# 5 0.000000 0.000000 0.000000 0.000000 -0.018326 0.000000
# 6 0.000000 0.000000 0.000000 0.000000 0.000000 0.109407
#
#
# Mechanical properties :
#
#
# Convention : Reuss Voigt Hill
#
# Bulk Modulus (GPa) = 48.90770 53.27381 51.09076
# Shear Modulus (GPa) = 29.11800 14.33736 21.72768
#
# Velocity S-wave (km/s) = 3.66042 2.56853 3.16197
# Velocity P-wave (km/s) = 6.35373 5.77153 6.06961
#
# Compressibility (1/GPa) = 0.02044668
#
# Stress axis : x y z
#
# Youngs Moduli (GPa) = 77.07819 70.46033 112.34109
#
# Poissons Ratio (x) = 0.12601 0.30156
# Poissons Ratio (y) = 0.13784 0.37498
# Poissons Ratio (z) = 0.20690 0.23519
#
# Static dielectric constant tensor:
#      x y z
#    x 1.837850 0.000000 0.000000 
#    y 0.000000 1.957130 0.000000 
#    z 0.000000 0.000000 1.876320 
# 
# From -- ./inp_files/24952.got.cif
#   From: 2010.05.17/outbox.cif.g08.bks.cpg/sg23_13_cif.got.tgz:24952.got - 2010.06.04 12:02:01.
