data_PCOD9330301
_publ_section_title
;
Structure prediction by ZEFSAII (Michael W. Deem and Ramdas Pophale) SiO2 
 PCOD9330301
Probable space group: I 2 2 2
;
_chemical_formula_sum "Si O2"
_cell_formula_units_Z 42
_cell_length_a 8.072579
_cell_length_b 18.373849
_cell_length_c 11.397881
_cell_angle_alpha 90.000000
_cell_angle_beta 90.000000
_cell_angle_gamma 90.000000
_cell_volume 1690.583263
_symmetry_space_group_name_H-M "I 2 2 2"
_symmetry_group_IT_number 23
_symmetry_cell_setting 'orthorhombic'
loop_
_space_group_symop_operation_xyz
x,y,z
-x,-y,z
x,-y,-z
-x,y,-z
1/2+x,1/2+y,1/2+z
1/2-x,1/2-y,1/2+z
1/2+x,1/2-y,1/2-z
1/2-x,1/2+y,1/2-z
loop_
_atom_site_type_symbol
_atom_site_label
_atom_site_fract_x
_atom_site_fract_y
_atom_site_fract_z
Si Si1 0.551969 0.393292 0.135596
Si Si2 0.822027 0.866811 0.030155
Si Si3 0.500000 0.500000 0.500000
Si Si4 0.732377 0.891800 0.768934
Si Si5 0.745617 0.221838 0.752019
Si Si6 0.424434 0.103980 0.371508
O O1 0.398374 0.423656 0.209796
O O2 0.590345 0.313708 0.192469
O O3 0.500000 0.389231 0.000000
O O4 0.262210 0.426974 0.861720
O O5 0.735368 0.887122 0.909120
O O6 0.885871 0.945693 0.075276
O O7 0.726530 0.820073 0.124351
O O8 0.000000 0.830015 0.000000
O O9 0.740398 0.806564 0.733221
O O10 0.563665 0.923058 0.717610
O O11 0.609542 0.188895 0.663196
O O12 0.500000 0.096240 0.500000
#
# Coordination Sequence:
#
# PCOD9330301 Si02
#       6
#     8   8   2   8   8   8
#     4  10  20  35  51  77 122 179 210 244 322 423
#     4  10  21  39  65  95 131 172 236 275 326 407
#     4   8  20  44  72  94 126 192 250 270 316 392
#     4  12  21  36  57  88 134 168 206 284 343 404
#     4  10  23  34  54  90 130 168 212 269 350 406
#     4  10  22  34  52  81 124 167 206 252 330 411
#
# _framework density 24.843496999999999
#
# number of rings (size 3 to 8) (size 9 to 14) (size 15 to 20)
#    1.714    0.000    3.810    1.143    5.333    0.762 
#    0.000    0.000    0.000    2.286    0.000   25.333 
#    0.000    0.000    0.000    0.000    0.000    0.000 
#
# Total GULP energy -117165.484681 kJ/mol
# GULP energy per Si atom -5579.308794 kJ/mol
# Density = 2.478695 g / cm^3
# Si number density = 24.843497 Si / 1000 Ang^3
#
#
#
# Elastic Constant Matrix: (Units=GPa)
#
#
# Indices 1 2 3 4 5 6 
#
# 1 171.9371 37.6560 56.4573 0.0000 -0.0001 0.0000
# 2 37.6560 104.7051 28.5746 -0.0001 -0.0001 0.0000
# 3 56.4573 28.5746 180.4373 -0.0003 -0.0002 0.0000
# 4 0.0000 -0.0001 -0.0003 52.5955 -0.0003 0.0000
# 5 -0.0001 -0.0001 -0.0002 -0.0003 33.0789 0.0000
# 6 0.0000 0.0000 0.0000 0.0000 0.0000 19.4817
#
#
#
# Elastic Compliance Matrix: (Units=1/GPa)
#
#
# Indices 1 2 3 4 5 6 
#
# 1 0.006847 -0.001963 -0.001832 0.000000 0.000000 0.000000
# 2 -0.001963 0.010545 -0.001056 0.000000 0.000000 0.000000
# 3 -0.001832 -0.001056 0.006282 0.000000 0.000000 0.000000
# 4 0.000000 0.000000 0.000000 0.019013 0.000000 0.000000
# 5 0.000000 0.000000 0.000000 0.000000 0.030231 0.000000
# 6 0.000000 0.000000 0.000000 0.000000 0.000000 0.051330
#
#
# Mechanical properties :
#
#
# Convention : Reuss Voigt Hill
#
# Bulk Modulus (GPa) = 71.56084 78.05058 74.80571
# Shear Modulus (GPa) = 36.07331 43.32400 39.69866
#
# Velocity S-wave (km/s) = 3.81467 4.18051 4.00177
# Velocity P-wave (km/s) = 6.94763 7.40184 7.17833
#
# Compressibility (1/GPa) = 0.01397412
#
# Stress axis : x y z
#
# Youngs Moduli (GPa) = 146.04129 94.83503 159.17490
#
# Poissons Ratio (x) = 0.18613 0.29156
# Poissons Ratio (y) = 0.28664 0.16805
# Poissons Ratio (z) = 0.26750 0.10012
#
# Static dielectric constant tensor:
#      x y z
#    x 1.839890 0.000000 0.000000 
#    y 0.000000 2.089650 0.000000 
#    z 0.000000 0.000000 1.932690 
# 
# From -- ./inp_files/14719.got.cif
#   From: 2010.05.17/outbox.cif.g08.bks.cpg/sg23_8_cif.got.tgz:14719.got - 2010.06.04 12:02:01.
