data_PCOD9330590
_publ_section_title
;
Structure prediction by ZEFSAII (Michael W. Deem and Ramdas Pophale) SiO2 
 PCOD9330590
Probable space group: I 2 2 2
;
_chemical_formula_sum "Si O2"
_cell_formula_units_Z 44
_cell_length_a 12.001671
_cell_length_b 12.499288
_cell_length_c 12.185819
_cell_angle_alpha 90.000000
_cell_angle_beta 90.000000
_cell_angle_gamma 90.000000
_cell_volume 1828.023251
_symmetry_space_group_name_H-M "I 2 2 2"
_symmetry_group_IT_number 23
_symmetry_cell_setting 'orthorhombic'
loop_
_space_group_symop_operation_xyz
x,y,z
-x,-y,z
x,-y,-z
-x,y,-z
1/2+x,1/2+y,1/2+z
1/2-x,1/2-y,1/2+z
1/2+x,1/2-y,1/2-z
1/2-x,1/2+y,1/2-z
loop_
_atom_site_type_symbol
_atom_site_label
_atom_site_fract_x
_atom_site_fract_y
_atom_site_fract_z
Si Si1 0.000000 0.000000 0.216696
Si Si2 0.668204 0.802036 0.870060
Si Si3 0.306801 0.207945 0.105371
Si Si4 0.356397 0.129619 0.345281
Si Si5 0.551013 0.276041 0.339255
Si Si6 0.720118 0.560437 0.185836
O O1 0.012226 0.888835 0.152237
O O2 0.112746 0.010290 0.286453
O O3 0.761633 0.710676 0.886120
O O4 0.576244 0.753133 0.788626
O O5 0.724964 0.894439 0.797595
O O6 0.640073 0.833110 0.993370
O O7 0.347534 0.144366 0.212501
O O8 0.171355 0.204697 0.107430
O O9 0.325170 0.334902 0.124097
O O10 0.474523 0.178565 0.379233
O O11 0.315266 0.010576 0.370727
#
# Coordination Sequence:
#
# PCOD9330590 Si02
#       6
#     4   8   8   8   8   8
#     4  12  16  40  66  88 112 166 196 256 322 356
#     4  10  22  38  58  90 125 153 200 263 303 361
#     4  10  22  38  58  90 125 153 200 263 303 361
#     4  10  20  39  58  85 126 160 206 248 304 367
#     4  10  21  39  64  87 123 163 202 253 313 369
#     4  10  21  39  64  87 123 163 202 253 313 369
#
# _framework density 24.069716
#
# number of rings (size 3 to 8) (size 9 to 14) (size 15 to 20)
#    0.000    2.182    7.273    0.000    0.000    5.818 
#    0.000    1.818    0.000    8.727    0.000    0.000 
#    0.000    0.000    0.000    0.000    0.000    0.000 
#
# Total GULP energy -122857.701447 kJ/mol
# GULP energy per Si atom -5584.440975 kJ/mol
# Density = 2.401493 g / cm^3
# Si number density = 24.069716 Si / 1000 Ang^3
#
#
#
# Elastic Constant Matrix: (Units=GPa)
#
#
# Indices 1 2 3 4 5 6 
#
# 1 76.3434 39.4076 -1.2475 0.0000 0.0000 0.0000
# 2 39.4076 77.5296 5.4942 0.0000 0.0000 0.0000
# 3 -1.2475 5.4942 134.9118 0.0000 0.0000 0.0000
# 4 0.0000 0.0000 0.0000 -13.4891 0.0000 0.0000
# 5 0.0000 0.0000 0.0000 0.0000 -3.4670 0.0000
# 6 0.0000 0.0000 0.0000 0.0000 0.0000 37.9828
#
#
#
# Elastic Compliance Matrix: (Units=1/GPa)
#
#
# Indices 1 2 3 4 5 6 
#
# 1 0.017796 -0.009084 0.000534 0.000000 0.000000 0.000000
# 2 -0.009084 0.017572 -0.000800 0.000000 0.000000 0.000000
# 3 0.000534 -0.000800 0.007450 0.000000 0.000000 0.000000
# 4 0.000000 0.000000 0.000000 -0.074134 0.000000 0.000000
# 5 0.000000 0.000000 0.000000 0.000000 -0.288436 0.000000
# 6 0.000000 0.000000 0.000000 0.000000 0.000000 0.026328
#
#
# Mechanical properties :
#
#
# Convention : Reuss Voigt Hill
#
# Bulk Modulus (GPa) = 41.45814 41.78815 41.62315
# Shear Modulus (GPa) = -18.74858 20.54738 0.89940
#
# Velocity S-wave (km/s) = -2.79396 2.92492 0.61194
# Velocity P-wave (km/s) = 2.61789 5.36711 4.22251
#
# Compressibility (1/GPa) = 0.02412072
#
# Stress axis : x y z
#
# Youngs Moduli (GPa) = 56.19147 56.90849 134.23259
#
# Poissons Ratio (x) = 0.51693 -0.07175
# Poissons Ratio (y) = 0.51042 0.10733
# Poissons Ratio (z) = -0.03003 0.04550
#
# Static dielectric constant tensor:
#      x y z
#    x 1.957450 0.000000 0.000000 
#    y 0.000000 1.937570 0.000000 
#    z 0.000000 0.000000 1.951750 
# 
# From -- ./inp_files/20793.got.cif
#   From: 2010.05.17/outbox.cif.g08.bks.cpg/sg23_11_cif.got.tgz:20793.got - 2010.06.04 12:02:01.
