data_PCOD9330161
_publ_section_title
;
Structure prediction by ZEFSAII (Michael W. Deem and Ramdas Pophale) SiO2 
 PCOD9330161
Probable space group: I 2 2 2
;
_chemical_formula_sum "Si O2"
_cell_formula_units_Z 38
_cell_length_a 8.661050
_cell_length_b 24.215302
_cell_length_c 8.198233
_cell_angle_alpha 90.000000
_cell_angle_beta 90.000000
_cell_angle_gamma 90.000000
_cell_volume 1719.414927
_symmetry_space_group_name_H-M "I 2 2 2"
_symmetry_group_IT_number 23
_symmetry_cell_setting 'orthorhombic'
loop_
_space_group_symop_operation_xyz
x,y,z
-x,-y,z
x,-y,-z
-x,y,-z
1/2+x,1/2+y,1/2+z
1/2-x,1/2-y,1/2+z
1/2+x,1/2-y,1/2-z
1/2-x,1/2+y,1/2-z
loop_
_atom_site_type_symbol
_atom_site_label
_atom_site_fract_x
_atom_site_fract_y
_atom_site_fract_z
Si Si1 0.000000 0.000000 0.500000
Si Si2 0.866218 0.694566 0.241310
Si Si3 0.212302 0.305640 0.860830
Si Si4 0.274916 0.427256 0.784932
Si Si5 0.830501 0.586927 0.429846
Si Si6 0.000000 0.500000 0.216757
O O1 0.100578 0.037617 0.380081
O O2 0.806665 0.751175 0.317900
O O3 0.789291 0.641220 0.327764
O O4 0.052627 0.692659 0.242273
O O5 0.824575 0.694734 0.051489
O O6 0.294883 0.363115 0.824377
O O7 0.270682 0.428417 0.587009
O O8 0.109403 0.451548 0.853366
O O9 0.000000 0.600496 0.500000
O O10 0.870822 0.534361 0.317613
#
# Coordination Sequence:
#
# PCOD9330161 Si02
#       6
#     2   8   8   8   8   4
#     4  12  32  42  62 112 156 190 222 298 380 416
#     4  11  24  42  71 107 134 182 232 295 359 416
#     4  11  25  43  70 102 141 179 237 293 355 427
#     4  11  24  46  69 101 144 189 235 295 352 423
#     4  10  19  42  75 102 128 182 241 291 341 419
#     4  10  21  43  82 103 128 187 250 295 336 425
#
# _framework density 22.100542000000001
#
# number of rings (size 3 to 8) (size 9 to 14) (size 15 to 20)
#    0.000    1.263    4.211    4.105    2.947    2.105 
#    0.000    2.105    4.632    0.000    0.000    0.000 
#    0.000    0.000    0.000    0.000    0.000    0.000 
#
# Total GULP energy -106138.338757 kJ/mol
# GULP energy per Si atom -5586.228356 kJ/mol
# Density = 2.205024 g / cm^3
# Si number density = 22.100542 Si / 1000 Ang^3
#
#
#
# Elastic Constant Matrix: (Units=GPa)
#
#
# Indices 1 2 3 4 5 6 
#
# 1 61.0203 50.4181 55.3096 0.0001 -0.0011 -0.0001
# 2 50.4181 205.4648 66.0334 -0.0004 -0.0001 0.0000
# 3 55.3096 66.0334 92.7340 0.0031 -0.0016 0.0004
# 4 0.0001 -0.0004 0.0031 13.7245 -0.0005 0.0000
# 5 -0.0011 -0.0001 -0.0016 -0.0005 31.2983 0.0004
# 6 -0.0001 0.0000 0.0004 0.0000 0.0004 31.7089
#
#
#
# Elastic Compliance Matrix: (Units=1/GPa)
#
#
# Indices 1 2 3 4 5 6 
#
# 1 0.036679 -0.002554 -0.020058 0.000004 0.000000 0.000000
# 2 -0.002554 0.006489 -0.003097 0.000001 0.000000 0.000000
# 3 -0.020058 -0.003097 0.024952 -0.000006 0.000001 0.000000
# 4 0.000004 0.000001 -0.000006 0.072862 0.000001 0.000000
# 5 0.000000 0.000000 0.000001 0.000001 0.031951 0.000000
# 6 0.000000 0.000000 0.000000 0.000000 0.000000 0.031537
#
#
# Mechanical properties :
#
#
# Convention : Reuss Voigt Hill
#
# Bulk Modulus (GPa) = 59.87412 78.08237 68.97824
# Shear Modulus (GPa) = 19.12366 27.84353 23.48360
#
# Velocity S-wave (km/s) = 2.94479 3.55330 3.26326
# Velocity P-wave (km/s) = 6.22197 7.22785 6.74369
#
# Compressibility (1/GPa) = 0.01670171
#
# Stress axis : x y z
#
# Youngs Moduli (GPa) = 27.26355 154.10116 40.07668
#
# Poissons Ratio (x) = 0.39361 0.80385
# Poissons Ratio (y) = 0.06964 0.12413
# Poissons Ratio (z) = 0.54684 0.47731
#
# Static dielectric constant tensor:
#      x y z
#    x 1.847070 -0.000010 0.000000 
#    y -0.000010 1.994910 -0.000010 
#    z 0.000000 -0.000010 1.894520 
# 
# From -- ./inp_files/6931.got.cif
#   From: 2010.05.17/outbox.cif.g08.bks.cpg/sg23_4_cif.got.tgz:6931.got - 2010.06.04 12:02:01.
