data_PCOD9330338
_publ_section_title
;
Structure prediction by ZEFSAII (Michael W. Deem and Ramdas Pophale) SiO2 
 PCOD9330338
Probable space group: I 2 2 2
;
_chemical_formula_sum "Si O2"
_cell_formula_units_Z 60
_cell_length_a 30.121851
_cell_length_b 6.337561
_cell_length_c 17.904496
_cell_angle_alpha 90.000000
_cell_angle_beta 90.000000
_cell_angle_gamma 90.000000
_cell_volume 3417.951602
_symmetry_space_group_name_H-M "I 2 2 2"
_symmetry_group_IT_number 23
_symmetry_cell_setting 'orthorhombic'
loop_
_space_group_symop_operation_xyz
x,y,z
-x,-y,z
x,-y,-z
-x,y,-z
1/2+x,1/2+y,1/2+z
1/2-x,1/2-y,1/2+z
1/2+x,1/2-y,1/2-z
1/2-x,1/2+y,1/2-z
loop_
_atom_site_type_symbol
_atom_site_label
_atom_site_fract_x
_atom_site_fract_y
_atom_site_fract_z
Si Si1 0.617315 0.189149 0.180132
Si Si2 0.383119 0.193355 0.283197
Si Si3 0.338082 0.122042 0.428544
Si Si4 0.230484 0.722108 0.860718
Si Si5 0.450372 0.430424 0.191198
Si Si6 0.950807 0.567325 0.585823
Si Si7 0.218391 0.000000 0.000000
Si Si8 0.309685 0.519096 0.220493
O O1 0.581029 0.368655 0.193100
O O2 0.663814 0.309698 0.170103
O O3 0.623842 0.039862 0.251236
O O4 0.593083 0.043658 0.119205
O O5 0.375324 0.192007 0.370703
O O6 0.430245 0.271633 0.252351
O O7 0.345582 0.346810 0.248253
O O8 0.311110 0.325036 0.457300
O O9 0.356484 0.000000 0.500000
O O10 0.304581 0.956177 0.388137
O O11 0.272176 0.599264 0.826276
O O12 0.210411 0.865344 0.793719
O O13 0.241893 0.868417 0.932985
O O14 0.500000 0.500000 0.205298
O O15 0.447375 0.310335 0.111315
O O16 0.951778 0.500000 0.500000
O O17 0.000000 0.500000 0.616718
#
# Coordination Sequence:
#
# PCOD9330338 Si02
#       8
#     8   8   8   8   8   8   4   8
#     4  10  21  37  57  84 116 143 203 245 289 353
#     4  10  20  36  58  86 114 147 192 247 298 347
#     4  10  20  36  58  87 113 147 194 245 297 353
#     4  11  22  36  61  85 116 157 205 248 302 357
#     4  10  20  35  58  87 113 147 193 240 293 354
#     4  10  20  36  60  84 116 157 195 242 296 356
#     4  10  22  38  58  84 119 144 200 255 294 358
#     4  11  22  35  62  84 114 159 201 248 298 357
#
# _framework density 17.554375
#
# number of rings (size 3 to 8) (size 9 to 14) (size 15 to 20)
#    0.000    1.733    4.000    0.800    0.000    0.533 
#    0.000    0.000   44.000    0.000    0.000    7.000 
#    0.000    0.000    0.000    0.000    0.000    0.000 
#
# Total GULP energy -167147.010733 kJ/mol
# GULP energy per Si atom -5571.567024 kJ/mol
# Density = 1.751442 g / cm^3
# Si number density = 17.554375 Si / 1000 Ang^3
#
#
#
# Elastic Constant Matrix: (Units=GPa)
#
#
# Indices 1 2 3 4 5 6 
#
# 1 84.8864 38.4021 49.0991 0.0000 0.0000 0.0000
# 2 38.4021 98.9082 35.7818 0.0000 0.0000 0.0000
# 3 49.0991 35.7818 102.1614 0.0000 0.0000 0.0000
# 4 0.0000 0.0000 0.0000 27.2744 0.0000 0.0000
# 5 0.0000 0.0000 0.0000 0.0000 17.5775 0.0000
# 6 0.0000 0.0000 0.0000 0.0000 0.0000 34.8858
#
#
#
# Elastic Compliance Matrix: (Units=1/GPa)
#
#
# Indices 1 2 3 4 5 6 
#
# 1 0.017831 -0.004377 -0.007036 0.000000 0.000000 0.000000
# 2 -0.004377 0.012652 -0.002328 0.000000 0.000000 0.000000
# 3 -0.007036 -0.002328 0.013985 0.000000 0.000000 0.000000
# 4 0.000000 0.000000 0.000000 0.036664 0.000000 0.000000
# 5 0.000000 0.000000 0.000000 0.000000 0.056891 0.000000
# 6 0.000000 0.000000 0.000000 0.000000 0.000000 0.028665
#
#
# Mechanical properties :
#
#
# Convention : Reuss Voigt Hill
#
# Bulk Modulus (GPa) = 58.87386 59.16911 59.02148
# Shear Modulus (GPa) = 25.02097 26.79241 25.90669
#
# Velocity S-wave (km/s) = 3.77946 3.91097 3.84578
# Velocity P-wave (km/s) = 7.25649 7.36027 7.30856
#
# Compressibility (1/GPa) = 0.01698547
#
# Stress axis : x y z
#
# Youngs Moduli (GPa) = 56.08331 79.03903 71.50367
#
# Poissons Ratio (x) = 0.34599 0.50312
# Poissons Ratio (y) = 0.24550 0.16643
# Poissons Ratio (z) = 0.39462 0.18397
#
# Static dielectric constant tensor:
#      x y z
#    x 1.591170 0.000000 0.000000 
#    y 0.000000 1.637720 0.000000 
#    z 0.000000 0.000000 1.603990 
# 
# From -- ./inp_files/5013.got.cif
#   From: 2010.05.17/outbox.cif.g08.bks.cpg/sg23_3_cif.got.tgz:5013.got - 2010.06.04 12:02:01.
