data_PCOD9330049
_publ_section_title
;
Structure prediction by ZEFSAII (Michael W. Deem and Ramdas Pophale) SiO2 
 PCOD9330049
Probable space group: I 2 2 2
;
_chemical_formula_sum "Si O2"
_cell_formula_units_Z 40
_cell_length_a 5.197165
_cell_length_b 11.975643
_cell_length_c 27.744932
_cell_angle_alpha 90.000000
_cell_angle_beta 90.000000
_cell_angle_gamma 90.000000
_cell_volume 1726.827717
_symmetry_space_group_name_H-M "I 2 2 2"
_symmetry_group_IT_number 23
_symmetry_cell_setting 'orthorhombic'
loop_
_space_group_symop_operation_xyz
x,y,z
-x,-y,z
x,-y,-z
-x,y,-z
1/2+x,1/2+y,1/2+z
1/2-x,1/2-y,1/2+z
1/2+x,1/2-y,1/2-z
1/2-x,1/2+y,1/2-z
loop_
_atom_site_type_symbol
_atom_site_label
_atom_site_fract_x
_atom_site_fract_y
_atom_site_fract_z
Si Si1 0.756636 0.052074 0.555000
Si Si2 0.397529 0.783864 0.313786
Si Si3 0.601418 0.620490 0.778503
Si Si4 0.099490 0.884672 0.897144
Si Si5 0.378738 0.183571 0.948234
O O1 0.806463 0.184062 0.553961
O O2 0.500000 0.000000 0.577072
O O3 0.754219 0.000000 0.500000
O O4 0.000000 0.000000 0.581017
O O5 0.399299 0.697205 0.269049
O O6 0.617358 0.872729 0.301451
O O7 0.463944 0.716415 0.361383
O O8 0.110765 0.831158 0.315115
O O9 0.500000 0.500000 0.764682
O O10 0.396777 0.864150 0.912520
O O11 0.894317 0.875166 0.940408
O O12 0.000000 0.000000 0.873243
O O13 0.500000 0.163432 0.000000
#
# Coordination Sequence:
#
# PCOD9330049 Si02
#       5
#     8   8   8   8   8
#     4  10  19  36  65  89 115 154 204 269 312 395
#     4  10  22  41  65  98 131 173 212 255 322 396
#     4  10  20  39  71  97 132 168 210 259 313 392
#     4  12  27  45  65  92 134 171 219 280 332 385
#     4  12  25  43  68  94 125 169 230 277 316 394
#
# _framework density 23.16386
#
# number of rings (size 3 to 8) (size 9 to 14) (size 15 to 20)
#    0.000    1.200    2.000    4.800    2.800    2.400 
#    0.000   16.000    0.000    0.000    0.000    0.000 
#    0.000    0.000    0.000    0.000    0.000    0.000 
#
# Total GULP energy -111692.014469 kJ/mol
# GULP energy per Si atom -5584.600723 kJ/mol
# Density = 2.311114 g / cm^3
# Si number density = 23.163860 Si / 1000 Ang^3
#
#
#
# Elastic Constant Matrix: (Units=GPa)
#
#
# Indices 1 2 3 4 5 6 
#
# 1 133.1464 30.0095 19.7767 0.0000 0.0000 0.0000
# 2 30.0095 76.2635 -6.2694 0.0000 0.0000 0.0000
# 3 19.7767 -6.2694 42.4641 0.0000 0.0000 0.0000
# 4 0.0000 0.0000 0.0000 13.2009 0.0000 0.0000
# 5 0.0000 0.0000 0.0000 0.0000 17.0807 0.0000
# 6 0.0000 0.0000 0.0000 0.0000 0.0000 51.3742
#
#
#
# Elastic Compliance Matrix: (Units=1/GPa)
#
#
# Indices 1 2 3 4 5 6 
#
# 1 0.009129 -0.003990 -0.004841 0.000000 0.000000 0.000000
# 2 -0.003990 0.015018 0.004076 0.000000 0.000000 0.000000
# 3 -0.004841 0.004076 0.026405 0.000000 0.000000 0.000000
# 4 0.000000 0.000000 0.000000 0.075753 0.000000 0.000000
# 5 0.000000 0.000000 0.000000 0.000000 0.058546 0.000000
# 6 0.000000 0.000000 0.000000 0.000000 0.000000 0.019465
#
#
# Mechanical properties :
#
#
# Convention : Reuss Voigt Hill
#
# Bulk Modulus (GPa) = 24.36568 37.65640 31.01104
# Shear Modulus (GPa) = 21.97743 30.22163 26.09953
#
# Velocity S-wave (km/s) = 3.08357 3.61597 3.36033
# Velocity P-wave (km/s) = 4.81867 5.80736 5.33596
#
# Compressibility (1/GPa) = 0.04104134
#
# Stress axis : x y z
#
# Youngs Moduli (GPa) = 109.54274 66.58865 37.87098
#
# Poissons Ratio (x) = 0.26570 0.18332
# Poissons Ratio (y) = 0.43709 -0.15434
# Poissons Ratio (z) = 0.53026 -0.27138
#
# Static dielectric constant tensor:
#      x y z
#    x 1.779830 0.000000 0.000000 
#    y 0.000000 1.970990 0.000000 
#    z 0.000000 0.000000 1.846820 
# 
# From -- ./inp_files/28855.got.cif
#   From: 2010.05.17/outbox.cif.g08.bks.cpg/sg23_15_cif.got.tgz:28855.got - 2010.06.04 12:02:01.
