data_PCOD9330818
_publ_section_title
;
Structure prediction by ZEFSAII (Michael W. Deem and Ramdas Pophale) SiO2 
 PCOD9330818
Probable space group: I 2 2 2
;
_chemical_formula_sum "Si O2"
_cell_formula_units_Z 40
_cell_length_a 15.434957
_cell_length_b 17.847449
_cell_length_c 5.530811
_cell_angle_alpha 90.000000
_cell_angle_beta 90.000000
_cell_angle_gamma 90.000000
_cell_volume 1523.597991
_symmetry_space_group_name_H-M "I 2 2 2"
_symmetry_group_IT_number 23
_symmetry_cell_setting 'orthorhombic'
loop_
_space_group_symop_operation_xyz
x,y,z
-x,-y,z
x,-y,-z
-x,y,-z
1/2+x,1/2+y,1/2+z
1/2-x,1/2-y,1/2+z
1/2+x,1/2-y,1/2-z
1/2-x,1/2+y,1/2-z
loop_
_atom_site_type_symbol
_atom_site_label
_atom_site_fract_x
_atom_site_fract_y
_atom_site_fract_z
Si Si1 0.476197 0.625647 0.750000
Si Si2 0.679454 0.178188 0.750000
Si Si3 0.366790 0.007658 0.250000
Si Si4 0.871150 0.247458 0.750000
Si Si5 0.816384 0.044840 0.250000
O O1 0.500000 0.586777 0.500000
O O2 0.371291 0.622054 0.750000
O O3 0.500000 0.586777 0.000000
O O4 0.458347 0.696702 0.250000
O O5 0.675202 0.089349 0.750000
O O6 0.780719 0.201123 0.750000
O O7 0.633895 0.207884 0.503923
O O8 0.633895 0.207884 0.996077
O O9 0.413675 0.000000 0.500000
O O10 0.287143 0.948467 0.250000
O O11 0.413675 0.000000 0.000000
O O12 0.835153 0.000000 0.500000
O O13 0.835153 0.000000 0.000000
#
# Coordination Sequence:
#
# PCOD9330818 Si02
#       5
#     8   8   8   8   8
#     4  12  26  39  59  87 130 166 219 254 307 383
#     4  10  21  41  60  78 118 165 226 265 293 367
#     4  10  21  35  60  91 122 158 208 257 317 370
#     4  10  23  40  58  81 112 177 223 255 304 352
#     4  10  23  39  52  87 128 172 202 249 308 378
#
# _framework density 26.253644999999999
#
# number of rings (size 3 to 8) (size 9 to 14) (size 15 to 20)
#    0.000    1.600    0.000    3.600   11.200    2.400 
#    0.000    0.000    0.000    0.000    0.000    0.000 
#    0.000   56.000    0.000    0.000    0.000    0.000 
#
# Total GULP energy -111770.210139 kJ/mol
# GULP energy per Si atom -5588.510507 kJ/mol
# Density = 2.619389 g / cm^3
# Si number density = 26.253645 Si / 1000 Ang^3
#
#
#
# Elastic Constant Matrix: (Units=GPa)
#
#
# Indices 1 2 3 4 5 6 
#
# 1 179.8364 44.3388 51.4094 0.0000 0.0000 0.0000
# 2 44.3388 69.3726 53.1869 0.0000 0.0000 0.0000
# 3 51.4094 53.1869 329.0823 0.0000 0.0000 0.0000
# 4 0.0000 0.0000 0.0000 10.0207 0.0000 0.0000
# 5 0.0000 0.0000 0.0000 0.0000 47.3969 0.0000
# 6 0.0000 0.0000 0.0000 0.0000 0.0000 202.4849
#
#
#
# Elastic Compliance Matrix: (Units=1/GPa)
#
#
# Indices 1 2 3 4 5 6 
#
# 1 0.006647 -0.003940 -0.000402 0.000000 0.000000 0.000000
# 2 -0.003940 0.018790 -0.002421 0.000000 0.000000 0.000000
# 3 -0.000402 -0.002421 0.003493 0.000000 0.000000 0.000000
# 4 0.000000 0.000000 0.000000 0.099793 0.000000 0.000000
# 5 0.000000 0.000000 0.000000 0.000000 0.021098 0.000000
# 6 0.000000 0.000000 0.000000 0.000000 0.000000 0.004939
#
#
# Mechanical properties :
#
#
# Convention : Reuss Voigt Hill
#
# Bulk Modulus (GPa) = 64.92244 97.35128 81.13686
# Shear Modulus (GPa) = 28.83160 80.60425 54.71792
#
# Velocity S-wave (km/s) = 3.31750 5.54696 4.57026
# Velocity P-wave (km/s) = 6.28148 8.84232 7.66954
#
# Compressibility (1/GPa) = 0.01540300
#
# Stress axis : x y z
#
# Youngs Moduli (GPa) = 150.44569 53.22045 286.30263
#
# Poissons Ratio (x) = 0.20971 0.11496
# Poissons Ratio (y) = 0.59283 0.69321
# Poissons Ratio (z) = 0.06041 0.12886
#
# Static dielectric constant tensor:
#      x y z
#    x 2.008610 0.000000 0.000000 
#    y 0.000000 2.003310 0.000000 
#    z 0.000000 0.000000 2.129030 
# 
# From -- ./inp_files/3799.got.cif
#   From: 2010.05.17/outbox.cif.g08.bks.cpg/sg23_2_cif.got.tgz:3799.got - 2010.06.04 12:02:01.
