data_PCOD9330883
_publ_section_title
;
Structure prediction by ZEFSAII (Michael W. Deem and Ramdas Pophale) SiO2 
 PCOD9330883
Probable space group: I 2 2 2
;
_chemical_formula_sum "Si O2"
_cell_formula_units_Z 48
_cell_length_a 9.114559
_cell_length_b 9.770662
_cell_length_c 21.534018
_cell_angle_alpha 90.000000
_cell_angle_beta 90.000000
_cell_angle_gamma 90.000000
_cell_volume 1917.717901
_symmetry_space_group_name_H-M "I 2 2 2"
_symmetry_group_IT_number 23
_symmetry_cell_setting 'orthorhombic'
loop_
_space_group_symop_operation_xyz
x,y,z
-x,-y,z
x,-y,-z
-x,y,-z
1/2+x,1/2+y,1/2+z
1/2-x,1/2-y,1/2+z
1/2+x,1/2-y,1/2-z
1/2-x,1/2+y,1/2-z
loop_
_atom_site_type_symbol
_atom_site_label
_atom_site_fract_x
_atom_site_fract_y
_atom_site_fract_z
Si Si1 0.666797 0.253673 0.433974
Si Si2 0.832193 0.483460 0.574820
Si Si3 0.415667 0.126801 0.253347
Si Si4 0.336646 0.210380 0.417115
Si Si5 0.775800 0.628620 0.274617
Si Si6 0.165391 0.952255 0.362872
O O1 0.701226 0.408598 0.416605
O O2 0.510943 0.215172 0.404043
O O3 0.663639 0.222059 0.507182
O O4 0.806493 0.174065 0.407859
O O5 0.846932 0.500000 0.500000
O O6 0.764663 0.341702 0.599631
O O7 0.000000 0.500000 0.597662
O O8 0.332863 0.245101 0.289900
O O9 0.559658 0.190543 0.221596
O O10 0.500000 0.000000 0.288045
O O11 0.308219 0.034031 0.209293
O O12 0.263015 0.073120 0.392359
O O13 0.717904 0.598591 0.204305
O O14 0.000000 0.000000 0.360144
#
# Coordination Sequence:
#
# PCOD9330883 Si02
#       6
#     8   8   8   8   8   8
#     4  10  21  37  58  85 127 175 220 257 314 377
#     4   9  17  33  57  81 113 160 214 260 307 367
#     4   8  21  39  70  93 124 164 194 265 311 423
#     4  10  21  37  59  84 124 180 218 259 314 372
#     4   9  22  41  66  98 118 164 205 254 334 393
#     4  12  25  36  59  92 128 159 207 275 307 380
#
# _framework density 25.029751999999998
#
# number of rings (size 3 to 8) (size 9 to 14) (size 15 to 20)
#    1.000    1.167    0.000    2.500    7.000    6.000 
#    0.000    4.167    3.667    0.000    0.000    0.000 
#    0.000    0.000    0.000    0.000    0.000    0.000 
#
# Total GULP energy -133751.572247 kJ/mol
# GULP energy per Si atom -5572.982177 kJ/mol
# Density = 2.497278 g / cm^3
# Si number density = 25.029752 Si / 1000 Ang^3
#
#
#
# Elastic Constant Matrix: (Units=GPa)
#
#
# Indices 1 2 3 4 5 6 
#
# 1 100.2987 20.0379 20.1999 0.0000 0.0000 0.0000
# 2 20.0379 78.5243 13.3388 0.0000 0.0000 0.0000
# 3 20.1999 13.3388 29.8477 0.0000 0.0000 0.0000
# 4 0.0000 0.0000 0.0000 31.3520 0.0000 0.0000
# 5 0.0000 0.0000 0.0000 0.0000 -89.8301 0.0000
# 6 0.0000 0.0000 0.0000 0.0000 0.0000 27.5250
#
#
#
# Elastic Compliance Matrix: (Units=1/GPa)
#
#
# Indices 1 2 3 4 5 6 
#
# 1 0.011771 -0.001786 -0.007168 0.000000 0.000000 0.000000
# 2 -0.001786 0.014052 -0.005071 0.000000 0.000000 0.000000
# 3 -0.007168 -0.005071 0.040621 0.000000 0.000000 0.000000
# 4 0.000000 0.000000 0.000000 0.031896 0.000000 0.000000
# 5 0.000000 0.000000 0.000000 0.000000 -0.011132 0.000000
# 6 0.000000 0.000000 0.000000 0.000000 0.000000 0.036331
#
#
# Mechanical properties :
#
#
# Convention : Reuss Voigt Hill
#
# Bulk Modulus (GPa) = 26.04607 35.09154 30.56880
# Shear Modulus (GPa) = 30.41633 4.14898 17.28266
#
# Velocity S-wave (km/s) = 3.48976 1.28888 2.63056
# Velocity P-wave (km/s) = 5.16397 4.03303 4.63314
#
# Compressibility (1/GPa) = 0.03839350
#
# Stress axis : x y z
#
# Youngs Moduli (GPa) = 84.95741 71.16372 24.61803
#
# Poissons Ratio (x) = 0.12710 0.17646
# Poissons Ratio (y) = 0.15174 0.12484
# Poissons Ratio (z) = 0.60896 0.36088
#
# Static dielectric constant tensor:
#      x y z
#    x 1.904420 0.000000 0.000000 
#    y 0.000000 2.081430 0.000000 
#    z 0.000000 0.000000 2.126680 
# 
# From -- ./inp_files/30231.got.cif
#   From: 2010.05.17/outbox.cif.g08.bks.cpg/sg23_16_cif.got.tgz:30231.got - 2010.06.04 12:02:01.
