data_PCOD9330970
_publ_section_title
;
Structure prediction by ZEFSAII (Michael W. Deem and Ramdas Pophale) SiO2 
 PCOD9330970
Probable space group: I 2 2 2
;
_chemical_formula_sum "Si O2"
_cell_formula_units_Z 40
_cell_length_a 17.576679
_cell_length_b 9.033817
_cell_length_c 10.413390
_cell_angle_alpha 90.000000
_cell_angle_beta 90.000000
_cell_angle_gamma 90.000000
_cell_volume 1653.484941
_symmetry_space_group_name_H-M "I 2 2 2"
_symmetry_group_IT_number 23
_symmetry_cell_setting 'orthorhombic'
loop_
_space_group_symop_operation_xyz
x,y,z
-x,-y,z
x,-y,-z
-x,y,-z
1/2+x,1/2+y,1/2+z
1/2-x,1/2-y,1/2+z
1/2+x,1/2-y,1/2-z
1/2-x,1/2+y,1/2-z
loop_
_atom_site_type_symbol
_atom_site_label
_atom_site_fract_x
_atom_site_fract_y
_atom_site_fract_z
Si Si1 0.715575 0.742926 0.692924
Si Si2 0.027731 0.337446 0.698379
Si Si3 0.671155 0.946417 0.351387
Si Si4 0.366861 0.368849 0.098337
Si Si5 0.426241 0.581331 0.319185
O O1 0.755996 0.652465 0.808545
O O2 0.786420 0.789781 0.605864
O O3 0.649697 0.651477 0.619478
O O4 0.680653 0.901877 0.730217
O O5 0.093823 0.364542 0.808091
O O6 0.071259 0.257908 0.582378
O O7 0.000000 0.500000 0.668255
O O8 0.963915 0.222968 0.747414
O O9 0.668343 0.000000 0.500000
O O10 0.390542 0.454907 0.228216
O O11 0.369458 0.500000 0.000000
O O12 0.500000 0.500000 0.376135
#
# Coordination Sequence:
#
# PCOD9330970 Si02
#       5
#     8   8   8   8   8
#     4  11  21  40  70  97 139 175 237 294 333 416
#     4  10  21  40  67  98 138 182 228 299 347 417
#     4  11  24  43  71  99 135 189 237 286 351 419
#     4  10  22  41  68  97 136 191 235 285 358 412
#     4  10  21  38  63  94 142 181 216 288 360 396
#
# _framework density 24.191329
#
# number of rings (size 3 to 8) (size 9 to 14) (size 15 to 20)
#    0.000    1.600    4.000    0.600    0.000    4.000 
#    0.000    3.000    0.000    6.000    0.000    0.000 
#    0.000    0.000    0.000    0.000    0.000    0.000 
#
# Total GULP energy -111586.024418 kJ/mol
# GULP energy per Si atom -5579.301221 kJ/mol
# Density = 2.413627 g / cm^3
# Si number density = 24.191329 Si / 1000 Ang^3
#
#
#
# Elastic Constant Matrix: (Units=GPa)
#
#
# Indices 1 2 3 4 5 6 
#
# 1 183.3531 82.1816 38.6846 0.0000 0.0000 0.0000
# 2 82.1816 186.8613 36.3876 0.0000 0.0000 0.0000
# 3 38.6846 36.3876 69.8428 0.0000 0.0000 0.0000
# 4 0.0000 0.0000 0.0000 22.9049 0.0000 0.0000
# 5 0.0000 0.0000 0.0000 0.0000 1.1377 0.0000
# 6 0.0000 0.0000 0.0000 0.0000 0.0000 79.4137
#
#
#
# Elastic Compliance Matrix: (Units=1/GPa)
#
#
# Indices 1 2 3 4 5 6 
#
# 1 0.007194 -0.002657 -0.002600 0.000000 0.000000 0.000000
# 2 -0.002657 0.006938 -0.002142 0.000000 0.000000 0.000000
# 3 -0.002600 -0.002142 0.016874 0.000000 0.000000 0.000000
# 4 0.000000 0.000000 0.000000 0.043659 0.000000 0.000000
# 5 0.000000 0.000000 0.000000 0.000000 0.878962 0.000000
# 6 0.000000 0.000000 0.000000 0.000000 0.000000 0.012592
#
#
# Mechanical properties :
#
#
# Convention : Reuss Voigt Hill
#
# Bulk Modulus (GPa) = 61.70716 83.84054 72.77385
# Shear Modulus (GPa) = 5.06883 39.54481 22.30682
#
# Velocity S-wave (km/s) = 1.44909 4.04749 3.03990
# Velocity P-wave (km/s) = 5.32571 7.52166 6.51685
#
# Compressibility (1/GPa) = 0.01620558
#
# Stress axis : x y z
#
# Youngs Moduli (GPa) = 139.01228 144.14356 59.26241
#
# Poissons Ratio (x) = 0.38306 0.15407
# Poissons Ratio (y) = 0.36942 0.12697
# Poissons Ratio (z) = 0.36141 0.30883
#
# Static dielectric constant tensor:
#      x y z
#    x 2.020110 0.000000 0.000000 
#    y 0.000000 1.942120 0.000000 
#    z 0.000000 0.000000 1.957590 
# 
# From -- ./inp_files/17244.got.cif
#   From: 2010.05.17/outbox.cif.g08.bks.cpg/sg23_9_cif.got.tgz:17244.got - 2010.06.04 12:02:01.
