data_PCOD9330903
_publ_section_title
;
Structure prediction by ZEFSAII (Michael W. Deem and Ramdas Pophale) SiO2 
 PCOD9330903
Probable space group: I 2 2 2
;
_chemical_formula_sum "Si O2"
_cell_formula_units_Z 54
_cell_length_a 9.384954
_cell_length_b 17.219491
_cell_length_c 16.979939
_cell_angle_alpha 90.000000
_cell_angle_beta 90.000000
_cell_angle_gamma 90.000000
_cell_volume 2744.028285
_symmetry_space_group_name_H-M "I 2 2 2"
_symmetry_group_IT_number 23
_symmetry_cell_setting 'orthorhombic'
loop_
_space_group_symop_operation_xyz
x,y,z
-x,-y,z
x,-y,-z
-x,y,-z
1/2+x,1/2+y,1/2+z
1/2-x,1/2-y,1/2+z
1/2+x,1/2-y,1/2-z
1/2-x,1/2+y,1/2-z
loop_
_atom_site_type_symbol
_atom_site_label
_atom_site_fract_x
_atom_site_fract_y
_atom_site_fract_z
Si Si1 0.500000 0.500000 0.500000
Si Si2 0.500000 0.220076 0.500000
Si Si3 0.986090 0.413659 0.797369
Si Si4 0.482845 0.642995 0.379258
Si Si5 0.176522 0.582963 0.042135
Si Si6 0.234685 0.667318 0.271355
Si Si7 0.317424 0.344710 0.227646
Si Si8 0.562032 0.413458 0.145184
O O1 0.481565 0.567922 0.433084
O O2 0.478887 0.277923 0.426412
O O3 0.631753 0.159822 0.494269
O O4 0.069625 0.413118 0.881492
O O5 0.072115 0.357295 0.739382
O O6 0.000000 0.500000 0.765793
O O7 0.820369 0.393643 0.796883
O O8 0.320569 0.654566 0.350840
O O9 0.592052 0.632122 0.305841
O O10 0.340883 0.587282 0.067932
O O11 0.156489 0.500000 0.000000
O O12 0.237942 0.758533 0.255745
O O13 0.324109 0.614375 0.210670
O O14 0.430959 0.354729 0.156871
O O15 0.500000 0.500000 0.158290
#
# Coordination Sequence:
#
# PCOD9330903 Si02
#       8
#     2   4   8   8   8   8   8   8
#     4  10  24  40  66  90 122 184 224 242 320 394
#     4  11  21  39  61  90 120 176 207 261 323 395
#     4  11  22  36  61  95 117 161 204 258 328 361
#     4  10  23  39  65  90 124 167 224 270 314 391
#     4  11  23  39  60  88 133 170 206 247 315 412
#     4  10  21  37  61  91 122 161 211 279 322 362
#     4  11  21  38  65  92 126 158 217 281 316 369
#     4  10  22  38  59  89 123 164 212 260 314 375
#
# _framework density 19.679098
#
# number of rings (size 3 to 8) (size 9 to 14) (size 15 to 20)
#    0.000    1.481    0.000    7.333    6.222    1.481 
#    0.000    0.741    0.000    9.778    0.000    0.000 
#    0.000    0.000    0.000    0.000    0.000    0.000 
#
# Total GULP energy -150336.010488 kJ/mol
# GULP energy per Si atom -5568.000388 kJ/mol
# Density = 1.963431 g / cm^3
# Si number density = 19.679098 Si / 1000 Ang^3
#
#
#
# Elastic Constant Matrix: (Units=GPa)
#
#
# Indices 1 2 3 4 5 6 
#
# 1 134.8974 35.9495 48.1705 0.0000 0.0000 0.0000
# 2 35.9495 143.8779 43.3394 0.0000 0.0000 0.0000
# 3 48.1705 43.3394 68.6261 0.0000 0.0000 0.0000
# 4 0.0000 0.0000 0.0000 -53.0738 0.0000 0.0000
# 5 0.0000 0.0000 0.0000 0.0000 13.4940 0.0000
# 6 0.0000 0.0000 0.0000 0.0000 0.0000 35.8347
#
#
#
# Elastic Compliance Matrix: (Units=1/GPa)
#
#
# Indices 1 2 3 4 5 6 
#
# 1 0.009918 -0.000471 -0.006665 0.000000 0.000000 0.000000
# 2 -0.000471 0.008605 -0.005104 0.000000 0.000000 0.000000
# 3 -0.006665 -0.005104 0.022473 0.000000 0.000000 0.000000
# 4 0.000000 0.000000 0.000000 -0.018842 0.000000 0.000000
# 5 0.000000 0.000000 0.000000 0.000000 0.074107 0.000000
# 6 0.000000 0.000000 0.000000 0.000000 0.000000 0.027906
#
#
# Mechanical properties :
#
#
# Convention : Reuss Voigt Hill
#
# Bulk Modulus (GPa) = 60.54031 66.92446 63.73239
# Shear Modulus (GPa) = 32.43518 13.91379 23.17448
#
# Velocity S-wave (km/s) = 4.06421 2.66190 3.43537
# Velocity P-wave (km/s) = 7.27010 6.59767 6.94203
#
# Compressibility (1/GPa) = 0.01651792
#
# Stress axis : x y z
#
# Youngs Moduli (GPa) = 100.82292 116.20548 44.49716
#
# Poissons Ratio (x) = 0.05469 0.29656
# Poissons Ratio (y) = 0.04745 0.22712
# Poissons Ratio (z) = 0.67196 0.59314
#
# Static dielectric constant tensor:
#      x y z
#    x 2.321900 0.000000 0.000000 
#    y 0.000000 1.710410 0.000000 
#    z 0.000000 0.000000 1.756300 
# 
# From -- ./inp_files/23875.got.cif
#   From: 2010.05.17/outbox.cif.g08.bks.cpg/sg23_12_cif.got.tgz:23875.got - 2010.06.04 12:02:01.
