data_PCOD9330900
_publ_section_title
;
Structure prediction by ZEFSAII (Michael W. Deem and Ramdas Pophale) SiO2 
 PCOD9330900
Probable space group: I 2 2 2
;
_chemical_formula_sum "Si O2"
_cell_formula_units_Z 64
_cell_length_a 12.827129
_cell_length_b 14.957027
_cell_length_c 16.471888
_cell_angle_alpha 90.000000
_cell_angle_beta 90.000000
_cell_angle_gamma 90.000000
_cell_volume 3160.225846
_symmetry_space_group_name_H-M "I 2 2 2"
_symmetry_group_IT_number 23
_symmetry_cell_setting 'orthorhombic'
loop_
_space_group_symop_operation_xyz
x,y,z
-x,-y,z
x,-y,-z
-x,y,-z
1/2+x,1/2+y,1/2+z
1/2-x,1/2-y,1/2+z
1/2+x,1/2-y,1/2-z
1/2-x,1/2+y,1/2-z
loop_
_atom_site_type_symbol
_atom_site_label
_atom_site_fract_x
_atom_site_fract_y
_atom_site_fract_z
Si Si1 0.862551 0.282970 0.109488
Si Si2 0.915858 0.203804 0.839765
Si Si3 0.887615 0.462430 0.683251
Si Si4 0.880209 0.492869 0.127352
Si Si5 0.269137 0.430775 0.567716
Si Si6 0.150983 0.745124 0.672737
Si Si7 0.118866 0.727663 0.495135
Si Si8 0.717177 0.834943 0.567117
O O1 0.859632 0.388134 0.127182
O O2 0.776584 0.242193 0.170342
O O3 0.970916 0.233103 0.127823
O O4 0.834333 0.287116 0.013095
O O5 0.861774 0.121799 0.886696
O O6 0.903381 0.197609 0.742635
O O7 0.841895 0.288567 0.858867
O O8 0.873458 0.479614 0.778675
O O9 0.799606 0.513165 0.631868
O O10 0.888137 0.356354 0.672612
O O11 0.000000 0.500000 0.658149
O O12 0.809459 0.560907 0.075351
O O13 0.000000 0.500000 0.099002
O O14 0.308032 0.500000 0.500000
O O15 0.191908 0.358359 0.524036
O O16 0.131264 0.777383 0.581477
O O17 0.163436 0.802047 0.433034
O O18 0.000000 0.698342 0.500000
#
# Coordination Sequence:
#
# PCOD9330900 Si02
#       8
#     8   8   8   8   8   8   8   8
#     4  11  23  38  64  89 127 166 205 268 322 389
#     4  11  22  40  60  91 129 168 210 265 327 377
#     4  11  21  37  61  89 129 162 210 267 317 374
#     4  11  20  36  61  95 121 160 206 263 324 375
#     4  11  23  38  62  93 129 175 219 265 313 391
#     4  11  22  40  61  93 125 164 217 259 322 382
#     4  10  22  39  64  95 128 175 213 259 321 378
#     4  10  21  37  60  93 128 157 210 261 318 389
#
# _framework density 20.251718
#
# number of rings (size 3 to 8) (size 9 to 14) (size 15 to 20)
#    0.000    1.250    3.750    3.000    0.000    2.500 
#    0.000    0.625    5.500    6.000    0.000    0.000 
#    0.000    0.000    0.000    0.000    0.000    0.000 
#
# Total GULP energy -178365.567009 kJ/mol
# GULP energy per Si atom -5573.923969 kJ/mol
# Density = 2.020562 g / cm^3
# Si number density = 20.251718 Si / 1000 Ang^3
#
#
#
# Elastic Constant Matrix: (Units=GPa)
#
#
# Indices 1 2 3 4 5 6 
#
# 1 70.4654 40.7490 7.2581 0.0000 0.0000 0.0000
# 2 40.7490 95.2737 8.7096 0.0000 0.0000 0.0000
# 3 7.2581 8.7096 64.7422 0.0000 0.0000 0.0000
# 4 0.0000 0.0000 0.0000 36.4070 0.0000 0.0000
# 5 0.0000 0.0000 0.0000 0.0000 19.7785 0.0000
# 6 0.0000 0.0000 0.0000 0.0000 0.0000 23.0519
#
#
#
# Elastic Compliance Matrix: (Units=1/GPa)
#
#
# Indices 1 2 3 4 5 6 
#
# 1 0.018924 -0.007998 -0.001046 0.000000 0.000000 0.000000
# 2 -0.007998 0.014007 -0.000988 0.000000 0.000000 0.000000
# 3 -0.001046 -0.000988 0.015696 0.000000 0.000000 0.000000
# 4 0.000000 0.000000 0.000000 0.027467 0.000000 0.000000
# 5 0.000000 0.000000 0.000000 0.000000 0.050560 0.000000
# 6 0.000000 0.000000 0.000000 0.000000 0.000000 0.043380
#
#
# Mechanical properties :
#
#
# Convention : Reuss Voigt Hill
#
# Bulk Modulus (GPa) = 35.00871 38.21272 36.61071
# Shear Modulus (GPa) = 25.04759 27.43181 26.23970
#
# Velocity S-wave (km/s) = 3.52065 3.68440 3.60346
# Velocity P-wave (km/s) = 5.81816 6.08355 5.95233
#
# Compressibility (1/GPa) = 0.02856432
#
# Stress axis : x y z
#
# Youngs Moduli (GPa) = 52.84175 71.39110 63.71064
#
# Poissons Ratio (x) = 0.57102 0.06661
# Poissons Ratio (y) = 0.42265 0.06293
# Poissons Ratio (z) = 0.05525 0.07051
#
# Static dielectric constant tensor:
#      x y z
#    x 1.800690 0.000000 0.000000 
#    y 0.000000 1.726480 0.000000 
#    z 0.000000 0.000000 1.791620 
# 
# From -- ./inp_files/24453.got.cif
#   From: 2010.05.17/outbox.cif.g08.bks.cpg/sg23_13_cif.got.tgz:24453.got - 2010.06.04 12:02:01.
