data_PCOD9330536
_publ_section_title
;
Structure prediction by ZEFSAII (Michael W. Deem and Ramdas Pophale) SiO2 
 PCOD9330536
Probable space group: I 2 2 2
;
_chemical_formula_sum "Si O2"
_cell_formula_units_Z 50
_cell_length_a 13.989676
_cell_length_b 8.751434
_cell_length_c 20.561569
_cell_angle_alpha 90.000000
_cell_angle_beta 90.000000
_cell_angle_gamma 90.000000
_cell_volume 2517.347263
_symmetry_space_group_name_H-M "I 2 2 2"
_symmetry_group_IT_number 23
_symmetry_cell_setting 'orthorhombic'
loop_
_space_group_symop_operation_xyz
x,y,z
-x,-y,z
x,-y,-z
-x,y,-z
1/2+x,1/2+y,1/2+z
1/2-x,1/2-y,1/2+z
1/2+x,1/2-y,1/2-z
1/2-x,1/2+y,1/2-z
loop_
_atom_site_type_symbol
_atom_site_label
_atom_site_fract_x
_atom_site_fract_y
_atom_site_fract_z
Si Si1 0.671326 0.919263 0.913529
Si Si2 0.454149 0.659201 0.305174
Si Si3 0.201817 0.359390 0.961240
Si Si4 0.642788 0.382728 0.444664
Si Si5 0.808513 0.354345 0.730071
Si Si6 0.000000 0.500000 0.500000
Si Si7 0.360749 0.143535 0.316874
O O1 0.724313 0.766902 0.936619
O O2 0.649838 0.915074 0.837657
O O3 0.748702 0.055560 0.927988
O O4 0.573816 0.918345 0.952725
O O5 0.500000 0.500000 0.282297
O O6 0.415047 0.626937 0.378067
O O7 0.367526 0.714698 0.260561
O O8 0.532500 0.794907 0.304542
O O9 0.147234 0.391657 0.894022
O O10 0.246649 0.500000 0.000000
O O11 0.141317 0.276790 0.017586
O O12 0.607787 0.500000 0.500000
O O13 0.706093 0.285113 0.708078
O O14 0.821086 0.493974 0.780122
#
# Coordination Sequence:
#
# PCOD9330536 Si02
#       7
#     8   8   8   8   8   2   8
#     4  10  22  40  65  89 119 168 215 257 317 390
#     4  12  24  40  64  95 129 169 222 262 318 394
#     4  10  20  38  61  91 128 157 201 268 326 364
#     4  10  20  41  63  90 125 172 214 256 318 381
#     4  11  24  44  62  92 131 170 211 272 326 385
#     4  12  20  40  70  92 110 156 232 256 296 400
#     4  11  24  41  63  93 128 171 214 259 327 396
#
# _framework density 19.862178
#
# number of rings (size 3 to 8) (size 9 to 14) (size 15 to 20)
#    0.000    1.280    2.400    6.240    2.240    2.240 
#    0.000    4.400    0.000    0.000    0.000    0.000 
#    0.000    0.000    0.000    0.000    0.000    0.000 
#
# Total GULP energy -139394.243023 kJ/mol
# GULP energy per Si atom -5575.769721 kJ/mol
# Density = 1.981697 g / cm^3
# Si number density = 19.862178 Si / 1000 Ang^3
#
#
#
# Elastic Constant Matrix: (Units=GPa)
#
#
# Indices 1 2 3 4 5 6 
#
# 1 69.8040 -6.2351 19.6033 0.0000 0.0000 0.0000
# 2 -6.2351 62.6148 24.2100 0.0000 0.0000 0.0000
# 3 19.6033 24.2100 105.5582 0.0000 0.0000 0.0000
# 4 0.0000 0.0000 0.0000 35.2046 0.0000 0.0000
# 5 0.0000 0.0000 0.0000 0.0000 22.0209 0.0000
# 6 0.0000 0.0000 0.0000 0.0000 0.0000 16.0493
#
#
#
# Elastic Compliance Matrix: (Units=1/GPa)
#
#
# Indices 1 2 3 4 5 6 
#
# 1 0.015590 0.002932 -0.003568 0.000000 0.000000 0.000000
# 2 0.002932 0.018076 -0.004690 0.000000 0.000000 0.000000
# 3 -0.003568 -0.004690 0.011212 0.000000 0.000000 0.000000
# 4 0.000000 0.000000 0.000000 0.028405 0.000000 0.000000
# 5 0.000000 0.000000 0.000000 0.000000 0.045411 0.000000
# 6 0.000000 0.000000 0.000000 0.000000 0.000000 0.062308
#
#
# Mechanical properties :
#
#
# Convention : Reuss Voigt Hill
#
# Bulk Modulus (GPa) = 29.21814 34.79261 32.00537
# Shear Modulus (GPa) = 24.62291 28.01487 26.31889
#
# Velocity S-wave (km/s) = 3.52474 3.75969 3.64411
# Velocity P-wave (km/s) = 5.59531 6.03341 5.81848
#
# Compressibility (1/GPa) = 0.03422531
#
# Stress axis : x y z
#
# Youngs Moduli (GPa) = 64.14537 55.32165 89.19248
#
# Poissons Ratio (x) = -0.16219 0.31820
# Poissons Ratio (y) = -0.18806 0.41834
# Poissons Ratio (z) = 0.22884 0.25947
#
# Static dielectric constant tensor:
#      x y z
#    x 1.764220 0.000000 0.000000 
#    y 0.000000 1.771570 0.000000 
#    z 0.000000 0.000000 1.708520 
# 
# From -- ./inp_files/24759.got.cif
#   From: 2010.05.17/outbox.cif.g08.bks.cpg/sg23_13_cif.got.tgz:24759.got - 2010.06.04 12:02:01.
