data_PCOD9330276
_publ_section_title
;
Structure prediction by ZEFSAII (Michael W. Deem and Ramdas Pophale) SiO2 
 PCOD9330276
Probable space group: I 2 2 2
;
_chemical_formula_sum "Si O2"
_cell_formula_units_Z 58
_cell_length_a 7.827040
_cell_length_b 25.332323
_cell_length_c 14.185088
_cell_angle_alpha 90.000000
_cell_angle_beta 90.000000
_cell_angle_gamma 90.000000
_cell_volume 2812.578189
_symmetry_space_group_name_H-M "I 2 2 2"
_symmetry_group_IT_number 23
_symmetry_cell_setting 'orthorhombic'
loop_
_space_group_symop_operation_xyz
x,y,z
-x,-y,z
x,-y,-z
-x,y,-z
1/2+x,1/2+y,1/2+z
1/2-x,1/2-y,1/2+z
1/2+x,1/2-y,1/2-z
1/2-x,1/2+y,1/2-z
loop_
_atom_site_type_symbol
_atom_site_label
_atom_site_fract_x
_atom_site_fract_y
_atom_site_fract_z
Si Si1 0.197604 0.203151 0.344146
Si Si2 0.683267 0.200691 0.463331
Si Si3 0.000000 0.000000 0.000000
Si Si4 0.681798 0.580519 0.227286
Si Si5 0.810233 0.574238 0.024040
Si Si6 0.304373 0.011944 0.143851
Si Si7 0.318754 0.701225 0.768655
Si Si8 0.782304 0.915350 0.315016
O O1 0.181095 0.210965 0.455478
O O2 0.291997 0.254783 0.308654
O O3 0.282538 0.145684 0.324220
O O4 0.015676 0.199152 0.296116
O O5 0.500000 0.218263 0.500000
O O6 0.684294 0.137207 0.458587
O O7 0.723213 0.222038 0.361674
O O8 0.146857 0.973305 0.929331
O O9 0.739250 0.542300 0.309618
O O10 0.739610 0.640887 0.247676
O O11 0.477855 0.582549 0.217818
O O12 0.745629 0.556834 0.126513
O O13 0.715267 0.564936 0.924518
O O14 0.000000 0.556537 0.000000
O O15 0.315845 0.052739 0.233143
O O16 0.500000 0.000000 0.109018
#
# Coordination Sequence:
#
# PCOD9330276 Si02
#       8
#     8   8   2   8   8   8   8   8
#     4  10  20  34  57  84 119 160 200 249 305 365
#     4   9  17  31  51  77 114 153 194 237 291 353
#     4  12  26  52  68  88 128 156 214 280 340 366
#     4  10  20  38  60  90 127 163 205 255 315 378
#     4   9  17  30  54  90 126 159 193 239 294 374
#     4  12  25  44  72  95 119 166 213 263 324 385
#     4  10  20  34  57  84 119 160 200 249 305 365
#     4  10  20  38  60  90 127 163 205 255 315 378
#
# _framework density 20.621648
#
# number of rings (size 3 to 8) (size 9 to 14) (size 15 to 20)
#    0.000    1.931    1.379    2.690    0.000    7.172 
#    0.000    4.138    3.034    3.310    0.000    0.000 
#    0.000    0.000    0.000    0.000    0.000    0.000 
#
# Total GULP energy -161480.423600 kJ/mol
# GULP energy per Si atom -5568.290469 kJ/mol
# Density = 2.057471 g / cm^3
# Si number density = 20.621648 Si / 1000 Ang^3
#
#
#
# Elastic Constant Matrix: (Units=GPa)
#
#
# Indices 1 2 3 4 5 6 
#
# 1 68.1898 10.4124 20.3671 0.0000 0.0000 0.0000
# 2 10.4124 72.4507 30.5246 0.0000 0.0000 0.0000
# 3 20.3671 30.5246 78.4184 -0.0001 0.0000 0.0000
# 4 0.0000 0.0000 -0.0001 -6.3858 0.0000 0.0000
# 5 0.0000 0.0000 0.0000 0.0000 39.5562 0.0000
# 6 0.0000 0.0000 0.0000 0.0000 0.0000 17.7992
#
#
#
# Elastic Compliance Matrix: (Units=1/GPa)
#
#
# Indices 1 2 3 4 5 6 
#
# 1 0.015924 -0.000653 -0.003882 0.000000 0.000000 0.000000
# 2 -0.000653 0.016537 -0.006267 0.000000 0.000000 0.000000
# 3 -0.003882 -0.006267 0.016200 0.000000 0.000000 0.000000
# 4 0.000000 0.000000 0.000000 -0.156597 0.000000 0.000000
# 5 0.000000 0.000000 0.000000 0.000000 0.025281 0.000000
# 6 0.000000 0.000000 0.000000 0.000000 0.000000 0.056182
#
#
# Mechanical properties :
#
#
# Convention : Reuss Voigt Hill
#
# Bulk Modulus (GPa) = 36.95973 37.96300 37.46137
# Shear Modulus (GPa) = 1204.90082 20.71089 612.80586
#
# Velocity S-wave (km/s) = 24.19830 3.17255 17.25721
# Velocity P-wave (km/s) = 28.26138 5.64530 20.37860
#
# Compressibility (1/GPa) = 0.02705648
#
# Stress axis : x y z
#
# Youngs Moduli (GPa) = 62.79806 60.47077 61.72890
#
# Poissons Ratio (x) = 0.03950 0.23961
# Poissons Ratio (y) = 0.04102 0.38688
# Poissons Ratio (z) = 0.24376 0.37899
#
# Static dielectric constant tensor:
#      x y z
#    x 1.801120 0.000000 0.000000 
#    y 0.000000 1.765640 0.000000 
#    z 0.000000 0.000000 1.771760 
# 
# From -- ./inp_files/14910.got.cif
#   From: 2010.05.17/outbox.cif.g08.bks.cpg/sg23_8_cif.got.tgz:14910.got - 2010.06.04 12:02:01.
