data_PCOD9330780
_publ_section_title
;
Structure prediction by ZEFSAII (Michael W. Deem and Ramdas Pophale) SiO2 
 PCOD9330780
Probable space group: I 2 2 2
;
_chemical_formula_sum "Si O2"
_cell_formula_units_Z 32
_cell_length_a 7.269714
_cell_length_b 9.889936
_cell_length_c 18.428579
_cell_angle_alpha 90.000000
_cell_angle_beta 90.000000
_cell_angle_gamma 90.000000
_cell_volume 1324.959659
_symmetry_space_group_name_H-M "I 2 2 2"
_symmetry_group_IT_number 23
_symmetry_cell_setting 'orthorhombic'
loop_
_space_group_symop_operation_xyz
x,y,z
-x,-y,z
x,-y,-z
-x,y,-z
1/2+x,1/2+y,1/2+z
1/2-x,1/2-y,1/2+z
1/2+x,1/2-y,1/2-z
1/2-x,1/2+y,1/2-z
loop_
_atom_site_type_symbol
_atom_site_label
_atom_site_fract_x
_atom_site_fract_y
_atom_site_fract_z
Si Si1 0.801301 0.050840 0.094505
Si Si2 0.917978 0.304972 0.170125
Si Si3 0.374560 0.689629 0.066320
Si Si4 0.325851 0.210091 0.168551
O O1 0.847519 0.148902 0.162738
O O2 0.700900 0.160155 0.043976
O O3 0.689997 0.922115 0.118778
O O4 0.000000 0.000000 0.070874
O O5 0.809714 0.374872 0.102671
O O6 0.861673 0.344326 0.250617
O O7 0.136592 0.293915 0.163426
O O8 0.508312 0.704004 0.135605
O O9 0.500000 0.640595 0.000000
#
# Coordination Sequence:
#
# PCOD9330780 Si02
#       4
#     8   8   8   8
#     4   8  18  32  48  74 103 133 177 207 261 313
#     4   9  19  32  49  76  99 140 179 221 251 320
#     4  10  21  33  49  75 109 141 170 213 274 313
#     4  11  17  33  53  71 105 136 181 213 263 317
#
# _framework density 24.151679000000001
#
# number of rings (size 3 to 8) (size 9 to 14) (size 15 to 20)
#    1.500    1.000    2.500    0.750    0.000    3.000 
#    0.000    1.250    0.000    0.000    0.000    3.500 
#    0.000    4.000    0.000    0.000    0.000    0.000 
#
# Total GULP energy -89143.783136 kJ/mol
# GULP energy per Si atom -5571.486446 kJ/mol
# Density = 2.409671 g / cm^3
# Si number density = 24.151679 Si / 1000 Ang^3
#
#
#
# Elastic Constant Matrix: (Units=GPa)
#
#
# Indices 1 2 3 4 5 6 
#
# 1 159.8821 16.5367 25.4730 0.0000 0.0000 0.0000
# 2 16.5367 52.5637 17.3601 0.0000 0.0000 0.0000
# 3 25.4730 17.3601 115.8060 0.0000 0.0000 0.0000
# 4 0.0000 0.0000 0.0000 -65.0662 0.0000 0.0000
# 5 0.0000 0.0000 0.0000 0.0000 22.6267 0.0000
# 6 0.0000 0.0000 0.0000 0.0000 0.0000 9.2872
#
#
#
# Elastic Compliance Matrix: (Units=1/GPa)
#
#
# Indices 1 2 3 4 5 6 
#
# 1 0.006621 -0.001685 -0.001204 0.000000 0.000000 0.000000
# 2 -0.001685 0.020444 -0.002694 0.000000 0.000000 0.000000
# 3 -0.001204 -0.002694 0.009304 0.000000 0.000000 0.000000
# 4 0.000000 0.000000 0.000000 -0.015369 0.000000 0.000000
# 5 0.000000 0.000000 0.000000 0.000000 0.044196 0.000000
# 6 0.000000 0.000000 0.000000 0.000000 0.000000 0.107675
#
#
# Mechanical properties :
#
#
# Convention : Reuss Voigt Hill
#
# Bulk Modulus (GPa) = 39.67813 49.66573 44.67193
# Shear Modulus (GPa) = 25.98249 11.29501 18.63875
#
# Velocity S-wave (km/s) = 3.28350 2.16491 2.78103
# Velocity P-wave (km/s) = 5.55334 5.18246 5.37110
#
# Compressibility (1/GPa) = 0.02520280
#
# Stress axis : x y z
#
# Youngs Moduli (GPa) = 151.04147 48.91292 107.48358
#
# Poissons Ratio (x) = 0.08244 0.12937
# Poissons Ratio (y) = 0.25456 0.28957
# Poissons Ratio (z) = 0.18180 0.13177
#
# Static dielectric constant tensor:
#      x y z
#    x 1.941210 0.000000 0.000000 
#    y 0.000000 1.952310 0.000000 
#    z 0.000000 0.000000 1.960010 
# 
# From -- ./inp_files/9678.got.cif
#   From: 2010.05.17/outbox.cif.g08.bks.cpg/sg23_5_cif.got.tgz:9678.got - 2010.06.04 12:02:01.
