data_PCOD9330377
_publ_section_title
;
Structure prediction by ZEFSAII (Michael W. Deem and Ramdas Pophale) SiO2 
 PCOD9330377
Probable space group: I 2 2 2
;
_chemical_formula_sum "Si O2"
_cell_formula_units_Z 52
_cell_length_a 8.302481
_cell_length_b 16.802292
_cell_length_c 16.721434
_cell_angle_alpha 90.000000
_cell_angle_beta 90.000000
_cell_angle_gamma 90.000000
_cell_volume 2332.651917
_symmetry_space_group_name_H-M "I 2 2 2"
_symmetry_group_IT_number 23
_symmetry_cell_setting 'orthorhombic'
loop_
_space_group_symop_operation_xyz
x,y,z
-x,-y,z
x,-y,-z
-x,y,-z
1/2+x,1/2+y,1/2+z
1/2-x,1/2-y,1/2+z
1/2+x,1/2-y,1/2-z
1/2-x,1/2+y,1/2-z
loop_
_atom_site_type_symbol
_atom_site_label
_atom_site_fract_x
_atom_site_fract_y
_atom_site_fract_z
Si Si1 0.187614 0.346724 0.310596
Si Si2 0.688185 0.724178 0.471628
Si Si3 0.000000 0.000000 0.000000
Si Si4 0.488999 0.719828 0.757003
Si Si5 0.500000 0.500000 0.000000
Si Si6 0.674218 0.633043 0.613389
Si Si7 0.700187 0.484693 0.253896
Si Si8 0.814433 0.880742 0.386691
O O1 0.244591 0.334268 0.401965
O O2 0.301391 0.288640 0.258036
O O3 0.020025 0.308564 0.286865
O O4 0.223984 0.432207 0.277034
O O5 0.500000 0.719786 0.500000
O O6 0.767691 0.692695 0.554127
O O7 0.722908 0.811412 0.435363
O O8 0.092872 0.063565 0.056961
O O9 0.560332 0.686641 0.672326
O O10 0.559476 0.664506 0.827681
O O11 0.397374 0.439895 0.947540
O O12 0.752573 0.575409 0.677141
O O13 0.500000 0.500000 0.251268
O O14 0.765822 0.443351 0.174005
#
# Coordination Sequence:
#
# PCOD9330377 Si02
#       8
#     8   8   2   8   2   8   8   8
#     4  11  20  35  61  86 116 154 197 249 297 360
#     4  11  20  36  53  89 125 149 188 246 319 367
#     4  12  16  26  56  92 120 142 196 248 316 332
#     4  10  20  36  55  86 113 153 194 240 297 362
#     4  12  20  42  58  80 108 156 212 250 284 338
#     4  11  18  30  55  88 116 146 186 247 302 347
#     4  11  17  36  57  87 114 146 201 248 286 351
#     4  10  23  34  58  80 117 152 200 241 289 360
#
# _framework density 22.292224000000001
#
# number of rings (size 3 to 8) (size 9 to 14) (size 15 to 20)
#    0.000    1.231    6.923    0.923    0.000    2.462 
#    0.000    0.385    3.385    2.769    0.000    6.462 
#    0.000    0.000    0.000    0.000    0.000    0.000 
#
# Total GULP energy -144826.967692 kJ/mol
# GULP energy per Si atom -5570.267988 kJ/mol
# Density = 2.224149 g / cm^3
# Si number density = 22.292224 Si / 1000 Ang^3
#
#
#
# Elastic Constant Matrix: (Units=GPa)
#
#
# Indices 1 2 3 4 5 6 
#
# 1 19.0514 32.9292 29.3180 0.0000 0.0000 0.0000
# 2 32.9292 167.1459 88.3681 0.0000 0.0000 0.0000
# 3 29.3180 88.3681 170.3106 0.0000 0.0000 0.0000
# 4 0.0000 0.0000 0.0000 46.8808 0.0000 0.0000
# 5 0.0000 0.0000 0.0000 0.0000 23.5517 0.0000
# 6 0.0000 0.0000 0.0000 0.0000 0.0000 7.2537
#
#
#
# Elastic Compliance Matrix: (Units=1/GPa)
#
#
# Indices 1 2 3 4 5 6 
#
# 1 0.087591 -0.012794 -0.008440 0.000000 0.000000 0.000000
# 2 -0.012794 0.010113 -0.003045 0.000000 0.000000 0.000000
# 3 -0.008440 -0.003045 0.008904 0.000000 0.000000 0.000000
# 4 0.000000 0.000000 0.000000 0.021331 0.000000 0.000000
# 5 0.000000 0.000000 0.000000 0.000000 0.042460 0.000000
# 6 0.000000 0.000000 0.000000 0.000000 0.000000 0.137860
#
#
# Mechanical properties :
#
#
# Convention : Reuss Voigt Hill
#
# Bulk Modulus (GPa) = 17.22623 73.08205 45.15414
# Shear Modulus (GPa) = 13.29194 29.26344 21.27769
#
# Velocity S-wave (km/s) = 2.44449 3.62708 3.09283
# Velocity P-wave (km/s) = 3.96379 7.09900 5.74923
#
# Compressibility (1/GPa) = 0.05805101
#
# Stress axis : x y z
#
# Youngs Moduli (GPa) = 11.41664 98.88087 112.30401
#
# Poissons Ratio (x) = 1.26510 0.94783
# Poissons Ratio (y) = 0.14607 0.34196
# Poissons Ratio (z) = 0.09636 0.30108
#
# Static dielectric constant tensor:
#      x y z
#    x 2.004280 0.000000 0.000000 
#    y 0.000000 1.846010 0.000000 
#    z 0.000000 0.000000 1.858840 
# 
# From -- ./inp_files/20999.got.cif
#   From: 2010.05.17/outbox.cif.g08.bks.cpg/sg23_11_cif.got.tgz:20999.got - 2010.06.04 12:02:01.
