data_PCOD9330400
_publ_section_title
;
Structure prediction by ZEFSAII (Michael W. Deem and Ramdas Pophale) SiO2 
 PCOD9330400
Probable space group: I 2 2 2
;
_chemical_formula_sum "Si O2"
_cell_formula_units_Z 32
_cell_length_a 4.924649
_cell_length_b 7.665864
_cell_length_c 36.915636
_cell_angle_alpha 90.000000
_cell_angle_beta 90.000000
_cell_angle_gamma 90.000000
_cell_volume 1393.627627
_symmetry_space_group_name_H-M "I 2 2 2"
_symmetry_group_IT_number 23
_symmetry_cell_setting 'orthorhombic'
loop_
_space_group_symop_operation_xyz
x,y,z
-x,-y,z
x,-y,-z
-x,y,-z
1/2+x,1/2+y,1/2+z
1/2-x,1/2-y,1/2+z
1/2+x,1/2-y,1/2-z
1/2-x,1/2+y,1/2-z
loop_
_atom_site_type_symbol
_atom_site_label
_atom_site_fract_x
_atom_site_fract_y
_atom_site_fract_z
Si Si1 0.656692 0.182842 0.729176
Si Si2 0.471135 0.711427 0.040830
Si Si3 0.478183 0.790538 0.412581
Si Si4 0.263160 0.620751 0.658777
O O1 0.415285 0.305977 0.744450
O O2 0.774854 0.235521 0.689842
O O3 0.500000 0.000000 0.727759
O O4 0.500000 0.500000 0.039147
O O5 0.173493 0.754260 0.054239
O O6 0.682311 0.762298 0.072664
O O7 0.500000 0.777761 0.000000
O O8 0.603982 0.701486 0.377337
O O9 0.500000 0.000000 0.406932
O O10 0.500000 0.500000 0.673898
O O11 0.000000 0.500000 0.652594
#
# Coordination Sequence:
#
# PCOD9330400 Si02
#       4
#     8   8   8   8
#     4  12  25  44  69  97 129 166 213 266 323 383
#     4   9  17  31  56  89 121 155 203 263 320 376
#     4  10  20  36  59  88 122 161 208 260 317 378
#     4  12  25  42  63  90 127 169 214 262 319 381
#
# _framework density 22.961656000000001
#
# number of rings (size 3 to 8) (size 9 to 14) (size 15 to 20)
#    0.000    1.250    0.000    7.500    0.000    3.000 
#    0.000    7.500    0.000   11.250    0.000    0.000 
#    0.000    0.000    0.000    0.000    0.000    0.000 
#
# Total GULP energy -89398.053110 kJ/mol
# GULP energy per Si atom -5587.378319 kJ/mol
# Density = 2.290939 g / cm^3
# Si number density = 22.961656 Si / 1000 Ang^3
#
#
#
# Elastic Constant Matrix: (Units=GPa)
#
#
# Indices 1 2 3 4 5 6 
#
# 1 107.9534 24.3336 13.5285 0.0000 0.0000 0.0000
# 2 24.3336 79.7842 47.9203 0.0000 0.0000 0.0000
# 3 13.5285 47.9203 148.6424 0.0000 0.0000 0.0000
# 4 0.0000 0.0000 0.0000 5.2446 0.0000 0.0000
# 5 0.0000 0.0000 0.0000 0.0000 33.6358 0.0000
# 6 0.0000 0.0000 0.0000 0.0000 0.0000 30.1010
#
#
#
# Elastic Compliance Matrix: (Units=1/GPa)
#
#
# Indices 1 2 3 4 5 6 
#
# 1 0.009948 -0.003088 0.000090 0.000000 0.000000 0.000000
# 2 -0.003088 0.016502 -0.005039 0.000000 0.000000 0.000000
# 3 0.000090 -0.005039 0.008344 0.000000 0.000000 0.000000
# 4 0.000000 0.000000 0.000000 0.190672 0.000000 0.000000
# 5 0.000000 0.000000 0.000000 0.000000 0.029730 0.000000
# 6 0.000000 0.000000 0.000000 0.000000 0.000000 0.033222
#
#
# Mechanical properties :
#
#
# Convention : Reuss Voigt Hill
#
# Bulk Modulus (GPa) = 53.41877 56.43831 54.92854
# Shear Modulus (GPa) = 16.09102 30.50279 23.29691
#
# Velocity S-wave (km/s) = 2.65009 3.64871 3.18874
# Velocity P-wave (km/s) = 5.71654 6.51026 6.12627
#
# Compressibility (1/GPa) = 0.01872001
#
# Stress axis : x y z
#
# Youngs Moduli (GPa) = 100.52197 60.59769 119.84859
#
# Poissons Ratio (x) = 0.18714 -0.01081
# Poissons Ratio (y) = 0.31044 0.60392
# Poissons Ratio (z) = -0.00907 0.30535
#
# Static dielectric constant tensor:
#      x y z
#    x 1.800150 0.000000 0.000000 
#    y 0.000000 1.903420 0.000000 
#    z 0.000000 0.000000 1.822390 
# 
# From -- ./inp_files/29826.got.cif
#   From: 2010.05.17/outbox.cif.g08.bks.cpg/sg23_15_cif.got.tgz:29826.got - 2010.06.04 12:02:01.
