data_PCOD9330801
_publ_section_title
;
Structure prediction by ZEFSAII (Michael W. Deem and Ramdas Pophale) SiO2 
 PCOD9330801
Probable space group: I 2 2 2
;
_chemical_formula_sum "Si O2"
_cell_formula_units_Z 58
_cell_length_a 18.454392
_cell_length_b 6.108973
_cell_length_c 28.024339
_cell_angle_alpha 90.000000
_cell_angle_beta 90.000000
_cell_angle_gamma 90.000000
_cell_volume 3159.390624
_symmetry_space_group_name_H-M "I 2 2 2"
_symmetry_group_IT_number 23
_symmetry_cell_setting 'orthorhombic'
loop_
_space_group_symop_operation_xyz
x,y,z
-x,-y,z
x,-y,-z
-x,y,-z
1/2+x,1/2+y,1/2+z
1/2-x,1/2-y,1/2+z
1/2+x,1/2-y,1/2-z
1/2-x,1/2+y,1/2-z
loop_
_atom_site_type_symbol
_atom_site_label
_atom_site_fract_x
_atom_site_fract_y
_atom_site_fract_z
Si Si1 0.683048 0.134784 0.114783
Si Si2 0.414804 0.473322 0.300184
Si Si3 0.747486 0.977957 0.552659
Si Si4 0.612173 0.168960 0.956249
Si Si5 0.806948 0.781516 0.138071
Si Si6 0.321688 0.919336 0.716140
Si Si7 0.500000 0.500000 0.000000
Si Si8 0.337240 0.269682 0.783511
O O1 0.721658 0.299561 0.077073
O O2 0.653723 0.272993 0.159770
O O3 0.621011 0.988052 0.089795
O O4 0.744614 0.966845 0.134312
O O5 0.500000 0.500000 0.298213
O O6 0.380524 0.607682 0.344091
O O7 0.383339 0.230878 0.306178
O O8 0.379709 0.562216 0.250347
O O9 0.816538 0.819468 0.545125
O O10 0.695176 0.853555 0.589269
O O11 0.715059 0.000000 0.500000
O O12 0.547491 0.338781 0.966507
O O13 0.612887 0.000000 0.000000
O O14 0.794295 0.603327 0.179335
O O15 0.248778 0.788213 0.726728
O O16 0.355356 0.031433 0.762629
#
# Coordination Sequence:
#
# PCOD9330801 Si02
#       8
#     8   8   8   8   8   8   2   8
#     4  11  21  37  61  93 119 154 216 267 318 368
#     4  11  24  39  61  90 130 165 209 264 322 391
#     4  11  20  36  61  93 123 152 207 280 317 377
#     4  11  22  37  61  83 117 160 213 268 318 379
#     4  10  21  34  62  93 116 159 203 263 319 378
#     4  11  19  37  62  90 115 160 210 253 309 380
#     4  12  22  40  60  78 116 176 222 254 324 386
#     4  11  20  34  64  87 119 162 206 259 308 377
#
# _framework density 18.357972
#
# number of rings (size 3 to 8) (size 9 to 14) (size 15 to 20)
#    0.000    1.103    6.207    1.034    0.000    2.207 
#    0.000    0.000   22.759    0.000    0.000   13.517 
#    0.000    0.000    0.000    0.000    0.000    0.000 
#
# Total GULP energy -161672.487023 kJ/mol
# GULP energy per Si atom -5574.913346 kJ/mol
# Density = 1.831619 g / cm^3
# Si number density = 18.357972 Si / 1000 Ang^3
#
#
#
# Elastic Constant Matrix: (Units=GPa)
#
#
# Indices 1 2 3 4 5 6 
#
# 1 81.3203 30.3073 26.8899 0.0000 0.0000 0.0000
# 2 30.3073 93.8779 36.5693 0.0000 0.0000 0.0000
# 3 26.8899 36.5693 123.6793 0.0000 0.0000 0.0000
# 4 0.0000 0.0000 0.0000 34.1317 0.0000 0.0000
# 5 0.0000 0.0000 0.0000 0.0000 15.8067 0.0000
# 6 0.0000 0.0000 0.0000 0.0000 0.0000 20.5301
#
#
#
# Elastic Compliance Matrix: (Units=1/GPa)
#
#
# Indices 1 2 3 4 5 6 
#
# 1 0.014397 -0.003875 -0.001984 0.000000 0.000000 0.000000
# 2 -0.003875 0.013082 -0.003025 0.000000 0.000000 0.000000
# 3 -0.001984 -0.003025 0.009411 0.000000 0.000000 0.000000
# 4 0.000000 0.000000 0.000000 0.029298 0.000000 0.000000
# 5 0.000000 0.000000 0.000000 0.000000 0.063264 0.000000
# 6 0.000000 0.000000 0.000000 0.000000 0.000000 0.048709
#
#
# Mechanical properties :
#
#
# Convention : Reuss Voigt Hill
#
# Bulk Modulus (GPa) = 52.29949 54.04560 53.17254
# Shear Modulus (GPa) = 24.71510 27.76778 26.24144
#
# Velocity S-wave (km/s) = 3.67316 3.89340 3.78488
# Velocity P-wave (km/s) = 6.82202 7.05090 6.93741
#
# Compressibility (1/GPa) = 0.01912065
#
# Stress axis : x y z
#
# Youngs Moduli (GPa) = 69.45688 76.44282 106.25356
#
# Poissons Ratio (x) = 0.29622 0.21086
# Poissons Ratio (y) = 0.26914 0.32147
# Poissons Ratio (z) = 0.13784 0.23128
#
# Static dielectric constant tensor:
#      x y z
#    x 1.599930 0.000000 0.000000 
#    y 0.000000 1.708320 0.000000 
#    z 0.000000 0.000000 1.675780 
# 
# From -- ./inp_files/3481.got.cif
#   From: 2010.05.17/outbox.cif.g08.bks.cpg/sg23_2_cif.got.tgz:3481.got - 2010.06.04 12:02:01.
