data_PCOD9330910
_publ_section_title
;
Structure prediction by ZEFSAII (Michael W. Deem and Ramdas Pophale) SiO2 
 PCOD9330910
Probable space group: I 2 2 2
;
_chemical_formula_sum "Si O2"
_cell_formula_units_Z 48
_cell_length_a 13.829383
_cell_length_b 10.556899
_cell_length_c 17.452604
_cell_angle_alpha 90.000000
_cell_angle_beta 90.000000
_cell_angle_gamma 90.000000
_cell_volume 2547.999894
_symmetry_space_group_name_H-M "I 2 2 2"
_symmetry_group_IT_number 23
_symmetry_cell_setting 'orthorhombic'
loop_
_space_group_symop_operation_xyz
x,y,z
-x,-y,z
x,-y,-z
-x,y,-z
1/2+x,1/2+y,1/2+z
1/2-x,1/2-y,1/2+z
1/2+x,1/2-y,1/2-z
1/2-x,1/2+y,1/2-z
loop_
_atom_site_type_symbol
_atom_site_label
_atom_site_fract_x
_atom_site_fract_y
_atom_site_fract_z
Si Si1 0.933599 0.322944 0.217054
Si Si2 0.241328 0.733346 0.653229
Si Si3 0.142308 0.392790 0.199356
Si Si4 0.624853 0.141839 0.024606
Si Si5 0.693947 0.488734 0.908712
Si Si6 0.443341 0.276109 0.110759
O O1 0.854559 0.245496 0.169895
O O2 0.890218 0.465104 0.223495
O O3 0.942329 0.269199 0.302585
O O4 0.039873 0.327950 0.180140
O O5 0.190372 0.679578 0.729264
O O6 0.214427 0.645466 0.581680
O O7 0.202099 0.872876 0.629955
O O8 0.220533 0.409145 0.132272
O O9 0.540738 0.218498 0.071836
O O10 0.637465 0.213926 0.944770
O O11 0.600219 0.000000 0.000000
O O12 0.590954 0.421280 0.893401
O O13 0.707417 0.500000 0.000000
#
# Coordination Sequence:
#
# PCOD9330910 Si02
#       6
#     8   8   8   8   8   8
#     4  10  21  37  63  89 118 166 212 263 307 385
#     4  11  21  39  59  90 124 164 214 261 324 386
#     4  10  21  39  61  88 123 159 222 261 311 384
#     4  11  23  36  61  94 126 164 210 262 322 384
#     4  11  23  40  59  90 132 168 203 267 338 388
#     4  11  20  36  58  90 129 154 202 258 327 380
#
# _framework density 18.838304999999998
#
# number of rings (size 3 to 8) (size 9 to 14) (size 15 to 20)
#    0.000    1.333    5.000    2.000    2.333    0.667 
#    0.000    6.667    0.000    0.000    0.000    2.333 
#    0.000    0.000    0.000    0.000    0.000    0.000 
#
# Total GULP energy -133783.594918 kJ/mol
# GULP energy per Si atom -5574.316455 kJ/mol
# Density = 1.879543 g / cm^3
# Si number density = 18.838305 Si / 1000 Ang^3
#
#
#
# Elastic Constant Matrix: (Units=GPa)
#
#
# Indices 1 2 3 4 5 6 
#
# 1 130.7099 56.9199 58.9348 0.0000 0.0000 0.0000
# 2 56.9199 51.7249 42.2608 0.0000 0.0000 0.0000
# 3 58.9348 42.2608 101.1238 0.0000 0.0000 0.0000
# 4 0.0000 0.0000 0.0000 33.2992 0.0000 0.0000
# 5 0.0000 0.0000 0.0000 0.0000 19.5281 0.0000
# 6 0.0000 0.0000 0.0000 0.0000 0.0000 25.8624
#
#
#
# Elastic Compliance Matrix: (Units=1/GPa)
#
#
# Indices 1 2 3 4 5 6 
#
# 1 0.015208 -0.014417 -0.002839 0.000000 0.000000 0.000000
# 2 -0.014417 0.043023 -0.009578 0.000000 0.000000 0.000000
# 3 -0.002839 -0.009578 0.015546 0.000000 0.000000 0.000000
# 4 0.000000 0.000000 0.000000 0.030031 0.000000 0.000000
# 5 0.000000 0.000000 0.000000 0.000000 0.051208 0.000000
# 6 0.000000 0.000000 0.000000 0.000000 0.000000 0.038666
#
#
# Mechanical properties :
#
#
# Convention : Reuss Voigt Hill
#
# Bulk Modulus (GPa) = 49.72346 66.64329 58.18338
# Shear Modulus (GPa) = 19.68101 24.10082 21.89092
#
# Velocity S-wave (km/s) = 3.23574 3.58068 3.41257
# Velocity P-wave (km/s) = 6.35706 7.24902 6.81764
#
# Compressibility (1/GPa) = 0.02011123
#
# Stress axis : x y z
#
# Youngs Moduli (GPa) = 65.75328 23.24340 64.32599
#
# Poissons Ratio (x) = 0.33509 0.18259
# Poissons Ratio (y) = 0.94794 0.61610
# Poissons Ratio (z) = 0.18664 0.22262
#
# Static dielectric constant tensor:
#      x y z
#    x 1.711620 0.000000 0.000000 
#    y 0.000000 1.744390 0.000000 
#    z 0.000000 0.000000 1.618830 
# 
# From -- ./inp_files/24725.got.cif
#   From: 2010.05.17/outbox.cif.g08.bks.cpg/sg23_13_cif.got.tgz:24725.got - 2010.06.04 12:02:01.
