data_PCOD9330506
_publ_section_title
;
Structure prediction by ZEFSAII (Michael W. Deem and Ramdas Pophale) SiO2 
 PCOD9330506
Probable space group: I 2 2 2
;
_chemical_formula_sum "Si O2"
_cell_formula_units_Z 38
_cell_length_a 15.556877
_cell_length_b 23.079123
_cell_length_c 5.043536
_cell_angle_alpha 90.000000
_cell_angle_beta 90.000000
_cell_angle_gamma 90.000000
_cell_volume 1810.826514
_symmetry_space_group_name_H-M "I 2 2 2"
_symmetry_group_IT_number 23
_symmetry_cell_setting 'orthorhombic'
loop_
_space_group_symop_operation_xyz
x,y,z
-x,-y,z
x,-y,-z
-x,y,-z
1/2+x,1/2+y,1/2+z
1/2-x,1/2-y,1/2+z
1/2+x,1/2-y,1/2-z
1/2-x,1/2+y,1/2-z
loop_
_atom_site_type_symbol
_atom_site_label
_atom_site_fract_x
_atom_site_fract_y
_atom_site_fract_z
Si Si1 0.629194 0.909695 0.110435
Si Si2 0.366817 0.748039 0.347324
Si Si3 0.691927 0.681172 0.151047
Si Si4 0.758199 0.565039 0.097206
Si Si5 0.000000 0.691566 0.500000
Si Si6 0.000000 0.500000 0.500000
O O1 0.699008 0.907250 0.337276
O O2 0.558246 0.958057 0.175567
O O3 0.673047 0.931720 0.837644
O O4 0.577234 0.850186 0.093966
O O5 0.360201 0.718875 0.634359
O O6 0.291160 0.796654 0.324303
O O7 0.339542 0.699049 0.137384
O O8 0.455717 0.772959 0.235882
O O9 0.687603 0.612068 0.187775
O O10 0.735163 0.500000 0.000000
#
# Coordination Sequence:
#
# PCOD9330506 Si02
#       6
#     8   8   8   8   4   2
#     4  11  24  34  56  84 126 164 215 252 303 375
#     4  10  22  38  60  81 120 161 211 259 316 365
#     4  10  22  39  57  83 117 167 207 261 307 369
#     4  12  22  40  58  86 122 172 215 255 308 375
#     4  11  24  39  60  92 121 170 213 262 316 384
#     4  10  20  38  44  82 124 170 202 256 290 354
#
# _framework density 20.984893
#
# number of rings (size 3 to 8) (size 9 to 14) (size 15 to 20)
#    0.000    1.263    4.211    1.263    5.895    6.737 
#    0.000    0.000    0.000    0.000    0.000    0.737 
#    0.000    3.368    0.000    0.211    0.000    0.000 
#
# Total GULP energy -106147.889461 kJ/mol
# GULP energy per Si atom -5586.731024 kJ/mol
# Density = 2.093713 g / cm^3
# Si number density = 20.984893 Si / 1000 Ang^3
#
#
#
# Elastic Constant Matrix: (Units=GPa)
#
#
# Indices 1 2 3 4 5 6 
#
# 1 33.5406 35.0477 12.8080 0.0000 0.0000 0.0000
# 2 35.0477 138.3385 16.3487 0.0000 0.0000 0.0000
# 3 12.8080 16.3487 76.8361 0.0000 0.0000 0.0000
# 4 0.0000 0.0000 0.0000 16.9701 0.0000 0.0000
# 5 0.0000 0.0000 0.0000 0.0000 22.0281 0.0000
# 6 0.0000 0.0000 0.0000 0.0000 0.0000 25.2341
#
#
#
# Elastic Compliance Matrix: (Units=1/GPa)
#
#
# Indices 1 2 3 4 5 6 
#
# 1 0.042268 -0.010130 -0.004890 0.000000 0.000000 0.000000
# 2 -0.010130 0.009843 -0.000406 0.000000 0.000000 0.000000
# 3 -0.004890 -0.000406 0.013916 0.000000 0.000000 0.000000
# 4 0.000000 0.000000 0.000000 0.058927 0.000000 0.000000
# 5 0.000000 0.000000 0.000000 0.000000 0.045397 0.000000
# 6 0.000000 0.000000 0.000000 0.000000 0.000000 0.039629
#
#
# Mechanical properties :
#
#
# Convention : Reuss Voigt Hill
#
# Bulk Modulus (GPa) = 28.42986 41.90266 35.16626
# Shear Modulus (GPa) = 19.79749 25.14718 22.47233
#
# Velocity S-wave (km/s) = 3.07484 3.46547 3.27598
# Velocity P-wave (km/s) = 5.11697 6.00200 5.57707
#
# Compressibility (1/GPa) = 0.03517428
#
# Stress axis : x y z
#
# Youngs Moduli (GPa) = 23.65870 101.59382 71.85873
#
# Poissons Ratio (x) = 1.02920 0.35141
# Poissons Ratio (y) = 0.23967 0.02915
# Poissons Ratio (z) = 0.11570 0.04121
#
# Static dielectric constant tensor:
#      x y z
#    x 1.797320 0.000000 0.000000 
#    y 0.000000 1.848750 0.000000 
#    z 0.000000 0.000000 1.809250 
# 
# From -- ./inp_files/2430.got.cif
#   From: 2010.05.17/outbox.cif.g08.bks.cpg/sg23_2_cif.got.tgz:2430.got - 2010.06.04 12:02:01.
