data_PCOD9330758
_publ_section_title
;
Structure prediction by ZEFSAII (Michael W. Deem and Ramdas Pophale) SiO2 
 PCOD9330758
Probable space group: I 2 2 2
;
_chemical_formula_sum "Si O2"
_cell_formula_units_Z 50
_cell_length_a 13.409497
_cell_length_b 9.764008
_cell_length_c 16.822479
_cell_angle_alpha 90.000000
_cell_angle_beta 90.000000
_cell_angle_gamma 90.000000
_cell_volume 2202.574510
_symmetry_space_group_name_H-M "I 2 2 2"
_symmetry_group_IT_number 23
_symmetry_cell_setting 'orthorhombic'
loop_
_space_group_symop_operation_xyz
x,y,z
-x,-y,z
x,-y,-z
-x,y,-z
1/2+x,1/2+y,1/2+z
1/2-x,1/2-y,1/2+z
1/2+x,1/2-y,1/2-z
1/2-x,1/2+y,1/2-z
loop_
_atom_site_type_symbol
_atom_site_label
_atom_site_fract_x
_atom_site_fract_y
_atom_site_fract_z
Si Si1 0.500000 0.500000 0.000000
Si Si2 0.601185 0.279516 0.536590
Si Si3 0.085064 0.898547 0.773681
Si Si4 0.159381 0.943416 0.379563
Si Si5 0.230917 0.500000 0.500000
Si Si6 0.699205 0.133677 0.841420
Si Si7 0.045330 0.356749 0.799704
Si Si8 0.178127 0.500000 0.000000
O O1 0.572577 0.584798 0.056470
O O2 0.500000 0.340552 0.500000
O O3 0.695766 0.376161 0.525327
O O4 0.589222 0.229255 0.626884
O O5 0.618210 0.138363 0.488125
O O6 0.185448 0.901291 0.824549
O O7 0.038342 0.747514 0.765622
O O8 0.115849 0.962420 0.689212
O O9 0.000000 0.000000 0.807034
O O10 0.194643 0.797397 0.349461
O O11 0.249002 0.017907 0.424842
O O12 0.171888 0.555355 0.422944
O O13 0.626585 0.104969 0.767329
O O14 0.000000 0.500000 0.828667
#
# Coordination Sequence:
#
# PCOD9330758 Si02
#       8
#     2   8   8   8   4   8   8   4
#     4  10  20  44  78  98 142 182 254 298 368 454
#     4  12  25  46  72 107 151 190 249 308 383 456
#     4  12  25  46  76 105 145 201 252 306 382 458
#     4  11  23  46  72 106 140 193 250 304 372 452
#     4  12  27  48  73 106 144 206 246 313 383 448
#     4  12  27  49  73 108 156 193 259 315 385 463
#     4  12  28  46  75 114 150 198 252 318 387 452
#     4  11  23  41  71 104 136 192 239 307 371 443
#
# _framework density 22.700709
#
# number of rings (size 3 to 8) (size 9 to 14) (size 15 to 20)
#    0.000    0.320    4.000    4.320    4.480    1.280 
#    2.880    0.000    0.000    0.000    0.000    0.000 
#    0.000    0.000    0.000    0.000    0.000    0.000 
#
# Total GULP energy -139967.302499 kJ/mol
# GULP energy per Si atom -5598.692100 kJ/mol
# Density = 2.264904 g / cm^3
# Si number density = 22.700709 Si / 1000 Ang^3
#
#
#
# Elastic Constant Matrix: (Units=GPa)
#
#
# Indices 1 2 3 4 5 6 
#
# 1 53.3121 2.2288 28.7256 0.0000 0.0000 0.0000
# 2 2.2288 111.4152 24.5666 0.0000 0.0000 0.0000
# 3 28.7256 24.5666 129.9519 0.0000 0.0000 0.0000
# 4 0.0000 0.0000 0.0000 32.3107 0.0000 0.0000
# 5 0.0000 0.0000 0.0000 0.0000 32.0031 0.0000
# 6 0.0000 0.0000 0.0000 0.0000 0.0000 28.2336
#
#
#
# Elastic Compliance Matrix: (Units=1/GPa)
#
#
# Indices 1 2 3 4 5 6 
#
# 1 0.021337 0.000640 -0.004838 0.000000 0.000000 0.000000
# 2 0.000640 0.009385 -0.001916 0.000000 0.000000 0.000000
# 3 -0.004838 -0.001916 0.009127 0.000000 0.000000 0.000000
# 4 0.000000 0.000000 0.000000 0.030949 0.000000 0.000000
# 5 0.000000 0.000000 0.000000 0.000000 0.031247 0.000000
# 6 0.000000 0.000000 0.000000 0.000000 0.000000 0.035419
#
#
# Mechanical properties :
#
#
# Convention : Reuss Voigt Hill
#
# Bulk Modulus (GPa) = 36.20266 45.08014 40.64140
# Shear Modulus (GPa) = 31.46671 34.45338 32.96004
#
# Velocity S-wave (km/s) = 3.72715 3.90002 3.81457
# Velocity P-wave (km/s) = 5.87406 6.33891 6.11091
#
# Compressibility (1/GPa) = 0.02762228
#
# Stress axis : x y z
#
# Youngs Moduli (GPa) = 46.86634 106.55275 109.56962
#
# Poissons Ratio (x) = -0.06817 0.53005
# Poissons Ratio (y) = -0.02999 0.20989
# Poissons Ratio (z) = 0.22672 0.20411
#
# Static dielectric constant tensor:
#      x y z
#    x 1.901390 0.000000 0.000000 
#    y 0.000000 1.827690 0.000000 
#    z 0.000000 0.000000 1.898080 
# 
# From -- ./inp_files/24778.got.cif
#   From: 2010.05.17/outbox.cif.g08.bks.cpg/sg23_13_cif.got.tgz:24778.got - 2010.06.04 12:02:01.
