data_PCOD9330747
_publ_section_title
;
Structure prediction by ZEFSAII (Michael W. Deem and Ramdas Pophale) SiO2 
 PCOD9330747
Probable space group: I 2 2 2
;
_chemical_formula_sum "Si O2"
_cell_formula_units_Z 38
_cell_length_a 11.620505
_cell_length_b 9.108369
_cell_length_c 16.001614
_cell_angle_alpha 90.000000
_cell_angle_beta 90.000000
_cell_angle_gamma 90.000000
_cell_volume 1693.672392
_symmetry_space_group_name_H-M "I 2 2 2"
_symmetry_group_IT_number 23
_symmetry_cell_setting 'orthorhombic'
loop_
_space_group_symop_operation_xyz
x,y,z
-x,-y,z
x,-y,-z
-x,y,-z
1/2+x,1/2+y,1/2+z
1/2-x,1/2-y,1/2+z
1/2+x,1/2-y,1/2-z
1/2-x,1/2+y,1/2-z
loop_
_atom_site_type_symbol
_atom_site_label
_atom_site_fract_x
_atom_site_fract_y
_atom_site_fract_z
Si Si1 0.387945 0.162176 0.960795
Si Si2 0.381718 0.950166 0.219617
Si Si3 0.000000 0.500000 0.000000
Si Si4 0.786568 0.174534 0.764546
Si Si5 0.152961 0.735563 0.093218
Si Si6 0.000000 0.000000 0.831060
O O1 0.412631 0.146000 0.861634
O O2 0.259976 0.226293 0.967421
O O3 0.500000 0.239354 0.000000
O O4 0.383891 0.000000 0.000000
O O5 0.310688 0.844999 0.280925
O O6 0.500000 0.000000 0.258442
O O7 0.304169 0.080599 0.183119
O O8 0.922988 0.608572 0.944974
O O9 0.717069 0.179636 0.677128
O O10 0.906957 0.089795 0.775823
O O11 0.074121 0.878719 0.116386
#
# Coordination Sequence:
#
# PCOD9330747 Si02
#       6
#     8   8   2   8   8   4
#     4  10  20  43  71 101 131 180 240 281 344 426
#     4  11  22  41  68 102 140 175 234 303 350 424
#     4  12  32  50  66 104 156 190 238 298 360 434
#     4  11  24  44  69 106 137 179 244 292 370 414
#     4  11  28  48  70 107 141 196 235 298 364 425
#     4  12  24  47  80 103 142 190 240 300 368 434
#
# _framework density 22.436453
#
# number of rings (size 3 to 8) (size 9 to 14) (size 15 to 20)
#    0.000    1.053    6.316    1.263    7.368    0.000 
#    7.579    0.000    0.000    0.000    0.000    0.000 
#    0.000    0.000    0.000    0.000    0.000    0.000 
#
# Total GULP energy -105980.706293 kJ/mol
# GULP energy per Si atom -5577.931910 kJ/mol
# Density = 2.238539 g / cm^3
# Si number density = 22.436453 Si / 1000 Ang^3
#
#
#
# Elastic Constant Matrix: (Units=GPa)
#
#
# Indices 1 2 3 4 5 6 
#
# 1 213.1299 91.1424 45.9739 0.0000 0.0000 0.0000
# 2 91.1424 133.4596 33.9266 0.0000 0.0000 0.0000
# 3 45.9739 33.9266 46.4098 0.0000 0.0000 0.0000
# 4 0.0000 0.0000 0.0000 24.6197 0.0000 0.0000
# 5 0.0000 0.0000 0.0000 0.0000 6.5784 0.0000
# 6 0.0000 0.0000 0.0000 0.0000 0.0000 60.1556
#
#
#
# Elastic Compliance Matrix: (Units=1/GPa)
#
#
# Indices 1 2 3 4 5 6 
#
# 1 0.007293 -0.003861 -0.004401 0.000000 0.000000 0.000000
# 2 -0.003861 0.011248 -0.004397 0.000000 0.000000 0.000000
# 3 -0.004401 -0.004397 0.029122 0.000000 0.000000 0.000000
# 4 0.000000 0.000000 0.000000 0.040618 0.000000 0.000000
# 5 0.000000 0.000000 0.000000 0.000000 0.152013 0.000000
# 6 0.000000 0.000000 0.000000 0.000000 0.000000 0.016624
#
#
# Mechanical properties :
#
#
# Convention : Reuss Voigt Hill
#
# Bulk Modulus (GPa) = 44.75859 81.67613 63.21736
# Shear Modulus (GPa) = 17.26020 33.06784 25.16402
#
# Velocity S-wave (km/s) = 2.77662 3.84323 3.35262
# Velocity P-wave (km/s) = 5.50199 7.49508 6.57450
#
# Compressibility (1/GPa) = 0.02234208
#
# Stress axis : x y z
#
# Youngs Moduli (GPa) = 137.12340 88.90639 34.33868
#
# Poissons Ratio (x) = 0.34331 0.15114
# Poissons Ratio (y) = 0.52950 0.15099
# Poissons Ratio (z) = 0.60353 0.39094
#
# Static dielectric constant tensor:
#      x y z
#    x 1.934010 0.000000 0.000000 
#    y 0.000000 1.894800 0.000000 
#    z 0.000000 0.000000 1.893960 
# 
# From -- ./inp_files/14485.got.cif
#   From: 2010.05.17/outbox.cif.g08.bks.cpg/sg23_8_cif.got.tgz:14485.got - 2010.06.04 12:02:01.
