data_PCOD9330372
_publ_section_title
;
Structure prediction by ZEFSAII (Michael W. Deem and Ramdas Pophale) SiO2 
 PCOD9330372
Probable space group: I 2 2 2
;
_chemical_formula_sum "Si O2"
_cell_formula_units_Z 56
_cell_length_a 7.131583
_cell_length_b 15.060993
_cell_length_c 21.252096
_cell_angle_alpha 90.000000
_cell_angle_beta 90.000000
_cell_angle_gamma 90.000000
_cell_volume 2282.660464
_symmetry_space_group_name_H-M "I 2 2 2"
_symmetry_group_IT_number 23
_symmetry_cell_setting 'orthorhombic'
loop_
_space_group_symop_operation_xyz
x,y,z
-x,-y,z
x,-y,-z
-x,y,-z
1/2+x,1/2+y,1/2+z
1/2-x,1/2-y,1/2+z
1/2+x,1/2-y,1/2-z
1/2-x,1/2+y,1/2-z
loop_
_atom_site_type_symbol
_atom_site_label
_atom_site_fract_x
_atom_site_fract_y
_atom_site_fract_z
Si Si1 0.750691 0.588697 0.899754
Si Si2 0.335104 0.874704 0.237479
Si Si3 0.727845 0.218439 0.492308
Si Si4 0.267330 0.667327 0.231345
Si Si5 0.296898 0.104635 0.619250
Si Si6 0.812866 0.955475 0.160633
Si Si7 0.280668 0.592332 0.476309
O O1 0.671983 0.623655 0.834000
O O2 0.716328 0.485411 0.909439
O O3 0.976951 0.599011 0.889583
O O4 0.696212 0.648482 0.958071
O O5 0.272007 0.773505 0.222423
O O6 0.558213 0.863427 0.248357
O O7 0.257318 0.894638 0.307085
O O8 0.292517 0.959621 0.192832
O O9 0.500000 0.216599 0.500000
O O10 0.766629 0.188114 0.421181
O O11 0.793129 0.317133 0.505713
O O12 0.375497 0.619241 0.288477
O O13 0.737136 0.907390 0.098511
O O14 0.000000 0.000000 0.134146
O O15 0.203716 0.500000 0.500000
O O16 0.500000 0.593361 0.500000
#
# Coordination Sequence:
#
# PCOD9330372 Si02
#       7
#     8   8   8   8   8   8   8
#     4   9  17  30  53  82 121 150 195 251 316 372
#     4  11  23  38  62  88 132 171 211 271 327 393
#     4   9  17  27  52  80 116 156 196 255 313 366
#     4  11  23  40  59  94 129 167 215 266 326 396
#     4   9  16  32  50  84 117 154 191 252 315 373
#     4  12  23  39  65  93 124 171 214 269 335 383
#     4  10  20  36  54  88 123 156 210 270 312 376
#
# _framework density 24.532778
#
# number of rings (size 3 to 8) (size 9 to 14) (size 15 to 20)
#    0.000    1.857    2.857    2.571    2.000    4.000 
#    0.000    0.000    0.000    1.714    0.000    4.000 
#    0.000    0.000    0.000    0.000    0.000    0.000 
#
# Total GULP energy -156431.108721 kJ/mol
# GULP energy per Si atom -5586.825311 kJ/mol
# Density = 2.447694 g / cm^3
# Si number density = 24.532778 Si / 1000 Ang^3
#
#
#
# Elastic Constant Matrix: (Units=GPa)
#
#
# Indices 1 2 3 4 5 6 
#
# 1 78.9646 -14.0686 -19.9879 0.0000 0.0000 0.0000
# 2 -14.0686 170.8998 38.2801 0.0000 0.0000 0.0000
# 3 -19.9879 38.2801 111.4093 0.0000 0.0000 0.0000
# 4 0.0000 0.0000 0.0000 15.5307 0.0000 0.0000
# 5 0.0000 0.0000 0.0000 0.0000 12.6518 0.0000
# 6 0.0000 0.0000 0.0000 0.0000 0.0000 10.2403
#
#
#
# Elastic Compliance Matrix: (Units=1/GPa)
#
#
# Indices 1 2 3 4 5 6 
#
# 1 0.013324 0.000608 0.002182 0.000000 0.000000 0.000000
# 2 0.000608 0.006367 -0.002079 0.000000 0.000000 0.000000
# 3 0.002182 -0.002079 0.010082 0.000000 0.000000 0.000000
# 4 0.000000 0.000000 0.000000 0.064389 0.000000 0.000000
# 5 0.000000 0.000000 0.000000 0.000000 0.079040 0.000000
# 6 0.000000 0.000000 0.000000 0.000000 0.000000 0.097654
#
#
# Mechanical properties :
#
#
# Convention : Reuss Voigt Hill
#
# Bulk Modulus (GPa) = 32.05602 41.08011 36.56807
# Shear Modulus (GPa) = 17.86788 31.48789 24.67788
#
# Velocity S-wave (km/s) = 2.70168 3.58649 3.17506
# Velocity P-wave (km/s) = 4.77777 5.82511 5.32724
#
# Compressibility (1/GPa) = 0.03119539
#
# Stress axis : x y z
#
# Youngs Moduli (GPa) = 75.04993 157.05892 99.19155
#
# Poissons Ratio (x) = -0.09553 -0.21639
# Poissons Ratio (y) = -0.04565 0.20618
# Poissons Ratio (z) = -0.16372 0.32646
#
# Static dielectric constant tensor:
#      x y z
#    x 2.115860 0.000000 0.000000 
#    y 0.000000 1.891470 0.000000 
#    z 0.000000 0.000000 1.905360 
# 
# From -- ./inp_files/26273.got.cif
#   From: 2010.05.17/outbox.cif.g08.bks.cpg/sg23_14_cif.got.tgz:26273.got - 2010.06.04 12:02:01.
