data_PCOD9330048
_publ_section_title
;
Structure prediction by ZEFSAII (Michael W. Deem and Ramdas Pophale) SiO2 
 PCOD9330048
Probable space group: I 2 2 2
;
_chemical_formula_sum "Si O2"
_cell_formula_units_Z 40
_cell_length_a 12.590675
_cell_length_b 5.146448
_cell_length_c 28.202875
_cell_angle_alpha 90.000000
_cell_angle_beta 90.000000
_cell_angle_gamma 90.000000
_cell_volume 1827.468860
_symmetry_space_group_name_H-M "I 2 2 2"
_symmetry_group_IT_number 23
_symmetry_cell_setting 'orthorhombic'
loop_
_space_group_symop_operation_xyz
x,y,z
-x,-y,z
x,-y,-z
-x,y,-z
1/2+x,1/2+y,1/2+z
1/2-x,1/2-y,1/2+z
1/2+x,1/2-y,1/2-z
1/2-x,1/2+y,1/2-z
loop_
_atom_site_type_symbol
_atom_site_label
_atom_site_fract_x
_atom_site_fract_y
_atom_site_fract_z
Si Si1 0.950768 0.238585 0.553648
Si Si2 0.111145 0.583715 0.263657
Si Si3 0.714835 0.001222 0.446670
Si Si4 0.157645 0.086484 0.202619
Si Si5 0.880986 0.989653 0.905463
O O1 0.829052 0.148185 0.549588
O O2 0.000000 0.500000 0.574671
O O3 0.000000 0.243748 0.500000
O O4 0.000000 0.000000 0.581879
O O5 0.128649 0.367220 0.222998
O O6 0.214069 0.564431 0.296839
O O7 0.000000 0.500000 0.286610
O O8 0.114335 0.863766 0.238148
O O9 0.653358 0.806864 0.412561
O O10 0.671275 0.000000 0.500000
O O11 0.699472 0.297442 0.428795
O O12 0.117099 0.051697 0.149964
O O13 0.000000 0.000000 0.925909
#
# Coordination Sequence:
#
# PCOD9330048 Si02
#       5
#     8   8   8   8   8
#     4  10  19  36  65  88 110 147 202 270 309 389
#     4  10  19  37  68  93 126 163 205 254 307 385
#     4  12  25  42  65  92 121 167 225 271 313 387
#     4  10  22  39  62  97 125 167 209 249 315 386
#     4  12  26  42  62  90 133 169 213 272 324 381
#
# _framework density 21.888200000000001
#
# number of rings (size 3 to 8) (size 9 to 14) (size 15 to 20)
#    0.000    1.200    2.000    5.400    2.800    2.400 
#    0.000    3.000    0.000    2.400    0.000    0.000 
#    0.000    0.000    0.000    0.000    0.000    0.000 
#
# Total GULP energy -111499.296573 kJ/mol
# GULP energy per Si atom -5574.964829 kJ/mol
# Density = 2.183838 g / cm^3
# Si number density = 21.888200 Si / 1000 Ang^3
#
#
#
# Elastic Constant Matrix: (Units=GPa)
#
#
# Indices 1 2 3 4 5 6 
#
# 1 110.3340 0.8465 -9.0100 0.0000 0.0000 0.0000
# 2 0.8465 140.4940 -0.0493 0.0000 0.0000 0.0000
# 3 -9.0100 -0.0493 35.8191 0.0000 0.0000 0.0000
# 4 0.0000 0.0000 0.0000 15.2899 0.0000 0.0000
# 5 0.0000 0.0000 0.0000 0.0000 11.7484 0.0000
# 6 0.0000 0.0000 0.0000 0.0000 0.0000 28.9242
#
#
#
# Elastic Compliance Matrix: (Units=1/GPa)
#
#
# Indices 1 2 3 4 5 6 
#
# 1 0.009254 -0.000055 0.002328 0.000000 0.000000 0.000000
# 2 -0.000055 0.007118 -0.000004 0.000000 0.000000 0.000000
# 3 0.002328 -0.000004 0.028504 0.000000 0.000000 0.000000
# 4 0.000000 0.000000 0.000000 0.065403 0.000000 0.000000
# 5 0.000000 0.000000 0.000000 0.000000 0.085118 0.000000
# 6 0.000000 0.000000 0.000000 0.000000 0.000000 0.034573
#
#
# Mechanical properties :
#
#
# Convention : Reuss Voigt Hill
#
# Bulk Modulus (GPa) = 20.23763 30.02462 25.13112
# Shear Modulus (GPa) = 20.66945 30.84983 25.75964
#
# Velocity S-wave (km/s) = 3.07631 3.75831 3.43428
# Velocity P-wave (km/s) = 4.67806 5.70791 5.21845
#
# Compressibility (1/GPa) = 0.04941291
#
# Stress axis : x y z
#
# Youngs Moduli (GPa) = 108.06267 140.48751 35.08335
#
# Poissons Ratio (x) = 0.00772 -0.08166
# Poissons Ratio (y) = 0.00594 0.00014
# Poissons Ratio (z) = -0.25153 0.00056
#
# Static dielectric constant tensor:
#      x y z
#    x 2.075120 0.000000 0.000000 
#    y 0.000000 1.575100 0.000000 
#    z 0.000000 0.000000 1.540660 
# 
# From -- ./inp_files/28856.got.cif
#   From: 2010.05.17/outbox.cif.g08.bks.cpg/sg23_15_cif.got.tgz:28856.got - 2010.06.04 12:02:01.
