data_PCOD9330072
_publ_section_title
;
Structure prediction by ZEFSAII (Michael W. Deem and Ramdas Pophale) SiO2 
 PCOD9330072
Probable space group: I 2 2 2
;
_chemical_formula_sum "Si O2"
_cell_formula_units_Z 48
_cell_length_a 7.719719
_cell_length_b 18.592384
_cell_length_c 14.232881
_cell_angle_alpha 90.000000
_cell_angle_beta 90.000000
_cell_angle_gamma 90.000000
_cell_volume 2042.816660
_symmetry_space_group_name_H-M "I 2 2 2"
_symmetry_group_IT_number 23
_symmetry_cell_setting 'orthorhombic'
loop_
_space_group_symop_operation_xyz
x,y,z
-x,-y,z
x,-y,-z
-x,y,-z
1/2+x,1/2+y,1/2+z
1/2-x,1/2-y,1/2+z
1/2+x,1/2-y,1/2-z
1/2-x,1/2+y,1/2-z
loop_
_atom_site_type_symbol
_atom_site_label
_atom_site_fract_x
_atom_site_fract_y
_atom_site_fract_z
Si Si1 0.500000 0.625342 0.500000
Si Si2 0.500000 0.500000 0.000000
Si Si3 0.378072 0.150832 0.736753
Si Si4 0.232919 0.807059 0.768612
Si Si5 0.000000 0.500000 0.000000
Si Si6 0.954809 0.077958 0.201885
Si Si7 0.196155 0.274046 0.513137
Si Si8 0.755212 0.613803 0.029478
O O1 0.526256 0.580186 0.594108
O O2 0.656606 0.677325 0.468133
O O3 0.605382 0.441195 0.940572
O O4 0.585131 0.154817 0.746807
O O5 0.309899 0.228816 0.773515
O O6 0.346292 0.136139 0.626242
O O7 0.249909 0.094362 0.787471
O O8 0.069106 0.858592 0.751206
O O9 0.254109 0.785454 0.878027
O O10 0.134678 0.439902 0.962116
O O11 0.000000 0.000000 0.239898
O O12 0.207128 0.189993 0.484711
O O13 0.000000 0.298935 0.500000
#
# Coordination Sequence:
#
# PCOD9330072 Si02
#       8
#     4   2   8   8   2   8   8   8
#     4  10  22  40  64  90 126 160 210 254 305 373
#     4  10  20  42  56  86 128 160 194 270 304 390
#     4  11  22  42  63  94 122 170 206 263 304 381
#     4  10  22  40  63  91 126 161 212 255 309 369
#     4  10  22  42  52  84 120 166 196 262 302 390
#     4  11  24  41  65  96 130 165 206 259 322 367
#     4  10  19  37  61  91 111 160 208 258 297 367
#     4  10  22  37  59  84 122 158 210 246 323 361
#
# _framework density 23.496970000000001
#
# number of rings (size 3 to 8) (size 9 to 14) (size 15 to 20)
#    0.000    1.667    2.500    1.750    1.167    2.000 
#    6.000    0.000    0.000    3.000    0.000    0.000 
#    0.000    0.000    0.000    0.000    0.000    0.000 
#
# Total GULP energy -133712.024086 kJ/mol
# GULP energy per Si atom -5571.334337 kJ/mol
# Density = 2.344349 g / cm^3
# Si number density = 23.496970 Si / 1000 Ang^3
#
#
#
# Elastic Constant Matrix: (Units=GPa)
#
#
# Indices 1 2 3 4 5 6 
#
# 1 113.2542 45.7343 -6.0519 0.0000 0.0000 0.0000
# 2 45.7343 146.7850 5.4510 0.0000 0.0000 0.0000
# 3 -6.0519 5.4510 38.2401 0.0000 0.0000 0.0000
# 4 0.0000 0.0000 0.0000 16.5638 0.0000 0.0000
# 5 0.0000 0.0000 0.0000 0.0000 24.7196 0.0000
# 6 0.0000 0.0000 0.0000 0.0000 0.0000 20.7686
#
#
#
# Elastic Compliance Matrix: (Units=1/GPa)
#
#
# Indices 1 2 3 4 5 6 
#
# 1 0.010264 -0.003276 0.002091 0.000000 0.000000 0.000000
# 2 -0.003276 0.007894 -0.001644 0.000000 0.000000 0.000000
# 3 0.002091 -0.001644 0.026716 0.000000 0.000000 0.000000
# 4 0.000000 0.000000 0.000000 0.060373 0.000000 0.000000
# 5 0.000000 0.000000 0.000000 0.000000 0.040454 0.000000
# 6 0.000000 0.000000 0.000000 0.000000 0.000000 0.048150
#
#
# Mechanical properties :
#
#
# Convention : Reuss Voigt Hill
#
# Bulk Modulus (GPa) = 25.49832 43.17180 34.33506
# Shear Modulus (GPa) = 23.52063 29.28679 26.40371
#
# Velocity S-wave (km/s) = 3.16730 3.53428 3.35581
# Velocity P-wave (km/s) = 4.92453 5.92183 5.44606
#
# Compressibility (1/GPa) = 0.03921827
#
# Stress axis : x y z
#
# Youngs Moduli (GPa) = 97.42551 126.67274 37.43095
#
# Poissons Ratio (x) = 0.41495 -0.07828
# Poissons Ratio (y) = 0.31914 0.06153
# Poissons Ratio (z) = -0.20375 0.20822
#
# Static dielectric constant tensor:
#      x y z
#    x 2.007790 0.000000 0.000000 
#    y 0.000000 1.869300 0.000000 
#    z 0.000000 0.000000 2.073700 
# 
# From -- ./inp_files/20048.got.cif
#   From: 2010.05.17/outbox.cif.g08.bks.cpg/sg23_11_cif.got.tgz:20048.got - 2010.06.04 12:02:01.
