data_PCOD9330106
_publ_section_title
;
Structure prediction by ZEFSAII (Michael W. Deem and Ramdas Pophale) SiO2 
 PCOD9330106
Probable space group: I 2 2 2
;
_chemical_formula_sum "Si O2"
_cell_formula_units_Z 64
_cell_length_a 19.473983
_cell_length_b 17.503242
_cell_length_c 9.670571
_cell_angle_alpha 90.000000
_cell_angle_beta 90.000000
_cell_angle_gamma 90.000000
_cell_volume 3296.289915
_symmetry_space_group_name_H-M "I 2 2 2"
_symmetry_group_IT_number 23
_symmetry_cell_setting 'orthorhombic'
loop_
_space_group_symop_operation_xyz
x,y,z
-x,-y,z
x,-y,-z
-x,y,-z
1/2+x,1/2+y,1/2+z
1/2-x,1/2-y,1/2+z
1/2+x,1/2-y,1/2-z
1/2-x,1/2+y,1/2-z
loop_
_atom_site_type_symbol
_atom_site_label
_atom_site_fract_x
_atom_site_fract_y
_atom_site_fract_z
Si Si1 0.223542 0.167054 0.768660
Si Si2 0.496373 0.721266 0.833796
Si Si3 0.853301 0.279104 0.393661
Si Si4 0.289476 0.940077 0.884603
Si Si5 0.447185 0.569125 0.309445
Si Si6 0.864731 0.274611 0.713385
Si Si7 0.189435 0.002244 0.665877
Si Si8 0.843135 0.846908 0.043436
O O1 0.211750 0.235355 0.663804
O O2 0.306320 0.160236 0.777470
O O3 0.188769 0.089833 0.716490
O O4 0.182158 0.193594 0.904993
O O5 0.419867 0.750712 0.811725
O O6 0.515566 0.639573 0.768570
O O7 0.552837 0.782374 0.778200
O O8 0.500000 0.714705 0.000000
O O9 0.841282 0.369171 0.377966
O O10 0.857204 0.252330 0.552729
O O11 0.218644 0.907019 0.946525
O O12 0.259397 0.969774 0.738104
O O13 0.314291 0.000000 0.000000
O O14 0.500000 0.500000 0.325171
O O15 0.379387 0.540259 0.222856
O O16 0.413628 0.604802 0.449282
O O17 0.848572 0.209018 0.825171
O O18 0.191393 0.000000 0.500000
#
# Coordination Sequence:
#
# PCOD9330106 Si02
#       8
#     8   8   8   8   8   8   8   8
#     4  12  21  37  61  91 117 163 209 254 306 367
#     4   9  21  36  57  88 121 154 203 255 307 363
#     4  11  22  36  64  89 119 162 213 256 303 373
#     4  11  20  40  59  86 124 157 196 264 316 355
#     4  10  22  38  57  82 129 170 197 244 311 382
#     4  10  19  38  61  86 118 153 201 257 308 358
#     4  11  26  36  58  89 124 159 207 251 306 372
#     4  10  21  37  57  87 117 162 200 250 308 364
#
# _framework density 19.415769000000001
#
# number of rings (size 3 to 8) (size 9 to 14) (size 15 to 20)
#    0.000    1.500    3.750    0.750    8.750    1.000 
#    0.000    7.500    0.000    8.625    0.000    0.875 
#    0.000    0.000    0.000    0.000    0.000    0.000 
#
# Total GULP energy -178156.487144 kJ/mol
# GULP energy per Si atom -5567.390223 kJ/mol
# Density = 1.937158 g / cm^3
# Si number density = 19.415769 Si / 1000 Ang^3
#
#
#
# Elastic Constant Matrix: (Units=GPa)
#
#
# Indices 1 2 3 4 5 6 
#
# 1 114.4058 43.3434 21.9419 0.0000 0.0000 0.0000
# 2 43.3434 80.6796 25.7978 0.0000 0.0000 0.0000
# 3 21.9419 25.7978 72.8097 0.0000 0.0000 0.0000
# 4 0.0000 0.0000 0.0000 22.9947 0.0000 0.0000
# 5 0.0000 0.0000 0.0000 0.0000 -5.2872 0.0000
# 6 0.0000 0.0000 0.0000 0.0000 0.0000 43.8151
#
#
#
# Elastic Compliance Matrix: (Units=1/GPa)
#
#
# Indices 1 2 3 4 5 6 
#
# 1 0.011098 -0.005518 -0.001389 0.000000 0.000000 0.000000
# 2 -0.005518 0.016722 -0.004262 0.000000 0.000000 0.000000
# 3 -0.001389 -0.004262 0.015663 0.000000 0.000000 0.000000
# 4 0.000000 0.000000 0.000000 0.043488 0.000000 0.000000
# 5 0.000000 0.000000 0.000000 0.000000 -0.189134 0.000000
# 6 0.000000 0.000000 0.000000 0.000000 0.000000 0.022823
#
#
# Mechanical properties :
#
#
# Convention : Reuss Voigt Hill
#
# Bulk Modulus (GPa) = 47.29363 50.00683 48.65023
# Shear Modulus (GPa) = -100.09273 24.09198 -38.00038
#
# Velocity S-wave (km/s) = -7.18778 3.52639 -4.42882
# Velocity P-wave (km/s) = 6.66891 6.51093 1.02033
#
# Compressibility (1/GPa) = 0.02114450
#
# Stress axis : x y z
#
# Youngs Moduli (GPa) = 90.10860 59.80212 63.84378
#
# Poissons Ratio (x) = 0.32997 0.08870
# Poissons Ratio (y) = 0.49720 0.27210
# Poissons Ratio (z) = 0.12519 0.25488
#
# Static dielectric constant tensor:
#      x y z
#    x 1.750190 0.000000 0.000000 
#    y 0.000000 1.700300 0.000000 
#    z 0.000000 0.000000 1.748050 
# 
# From -- ./inp_files/12180.got.cif
#   From: 2010.05.17/outbox.cif.g08.bks.cpg/sg23_7_cif.got.tgz:12180.got - 2010.06.04 12:02:01.
