data_PCOD9330549
_publ_section_title
;
Structure prediction by ZEFSAII (Michael W. Deem and Ramdas Pophale) SiO2 
 PCOD9330549
Probable space group: I 2 2 2
;
_chemical_formula_sum "Si O2"
_cell_formula_units_Z 54
_cell_length_a 5.370435
_cell_length_b 32.337745
_cell_length_c 14.862863
_cell_angle_alpha 90.000000
_cell_angle_beta 90.000000
_cell_angle_gamma 90.000000
_cell_volume 2581.200088
_symmetry_space_group_name_H-M "I 2 2 2"
_symmetry_group_IT_number 23
_symmetry_cell_setting 'orthorhombic'
loop_
_space_group_symop_operation_xyz
x,y,z
-x,-y,z
x,-y,-z
-x,y,-z
1/2+x,1/2+y,1/2+z
1/2-x,1/2-y,1/2+z
1/2+x,1/2-y,1/2-z
1/2-x,1/2+y,1/2-z
loop_
_atom_site_type_symbol
_atom_site_label
_atom_site_fract_x
_atom_site_fract_y
_atom_site_fract_z
Si Si1 0.751582 0.882374 0.039161
Si Si2 0.731126 0.845826 0.647911
Si Si3 0.249388 0.287607 0.533524
Si Si4 0.000000 0.607057 0.000000
Si Si5 0.837148 0.746812 0.201442
Si Si6 0.352609 0.958527 0.642176
Si Si7 0.230223 0.881278 0.745474
Si Si8 0.500000 0.500000 0.000000
O O1 0.750127 0.834967 0.001002
O O2 0.764221 0.879216 0.146671
O O3 0.500000 0.901731 0.000000
O O4 0.000000 0.902505 0.000000
O O5 0.703779 0.862046 0.544668
O O6 0.722000 0.796321 0.652911
O O7 0.480408 0.860217 0.703366
O O8 0.981676 0.862391 0.698006
O O9 0.500000 0.266840 0.500000
O O10 0.258140 0.285208 0.639927
O O11 0.000000 0.266990 0.500000
O O12 0.002844 0.574663 0.916996
O O13 0.630789 0.748908 0.280014
O O14 0.239692 0.930183 0.719750
O O15 0.500000 0.000000 0.669272
O O16 0.155906 0.972583 0.567923
#
# Coordination Sequence:
#
# PCOD9330549 Si02
#       8
#     8   8   8   4   8   8   8   2
#     4  10  20  38  63  88 117 158 208 270 319 379
#     4  11  24  40  62  90 134 172 215 272 327 395
#     4  10  21  36  57  82 111 151 209 261 308 366
#     4  10  21  42  58  94 132 174 218 256 328 388
#     4  12  24  40  61  86 122 171 216 269 326 381
#     4  11  22  38  64  95 130 169 209 264 308 401
#     4  11  24  41  63  97 126 167 214 270 333 388
#     4  12  18  36  68  90 134 160 222 236 318 368
#
# _framework density 20.920500000000001
#
# number of rings (size 3 to 8) (size 9 to 14) (size 15 to 20)
#    0.000    1.185    1.481    5.333    3.111    4.148 
#    2.667    0.000    0.000    0.444    0.000    0.000 
#    0.000    0.000    0.000    0.000    0.000    0.000 
#
# Total GULP energy -150325.712567 kJ/mol
# GULP energy per Si atom -5567.618984 kJ/mol
# Density = 2.087288 g / cm^3
# Si number density = 20.920500 Si / 1000 Ang^3
#
#
#
# Elastic Constant Matrix: (Units=GPa)
#
#
# Indices 1 2 3 4 5 6 
#
# 1 151.5166 16.1603 32.8850 0.0000 0.0000 0.0000
# 2 16.1603 96.9487 1.0862 0.0000 0.0000 0.0000
# 3 32.8850 1.0862 61.7401 0.0000 0.0000 0.0000
# 4 0.0000 0.0000 0.0000 30.8742 0.0000 0.0000
# 5 0.0000 0.0000 0.0000 0.0000 38.5238 0.0000
# 6 0.0000 0.0000 0.0000 0.0000 0.0000 38.3110
#
#
#
# Elastic Compliance Matrix: (Units=1/GPa)
#
#
# Indices 1 2 3 4 5 6 
#
# 1 0.007605 -0.001223 -0.004029 0.000000 0.000000 0.000000
# 2 -0.001223 0.010513 0.000466 0.000000 0.000000 0.000000
# 3 -0.004029 0.000466 0.018335 0.000000 0.000000 0.000000
# 4 0.000000 0.000000 0.000000 0.032389 0.000000 0.000000
# 5 0.000000 0.000000 0.000000 0.000000 0.025958 0.000000
# 6 0.000000 0.000000 0.000000 0.000000 0.000000 0.026102
#
#
# Mechanical properties :
#
#
# Convention : Reuss Voigt Hill
#
# Bulk Modulus (GPa) = 37.19950 45.60758 41.40354
# Shear Modulus (GPa) = 35.85927 38.88006 37.36966
#
# Velocity S-wave (km/s) = 4.14463 4.31567 4.23101
# Velocity P-wave (km/s) = 6.38153 6.83236 6.61079
#
# Compressibility (1/GPa) = 0.02688208
#
# Stress axis : x y z
#
# Youngs Moduli (GPa) = 131.49601 95.11769 54.54118
#
# Poissons Ratio (x) = 0.11628 0.21975
# Poissons Ratio (y) = 0.16075 -0.02543
# Poissons Ratio (z) = 0.52981 -0.04434
#
# Static dielectric constant tensor:
#      x y z
#    x 1.837350 0.000000 0.000000 
#    y 0.000000 1.722830 0.000000 
#    z 0.000000 0.000000 1.763990 
# 
# From -- ./inp_files/5384.got.cif
#   From: 2010.05.17/outbox.cif.g08.bks.cpg/sg23_3_cif.got.tgz:5384.got - 2010.06.04 12:02:01.
