data_PCOD9330832
_publ_section_title
;
Structure prediction by ZEFSAII (Michael W. Deem and Ramdas Pophale) SiO2 
 PCOD9330832
Probable space group: I 2 2 2
;
_chemical_formula_sum "Si O2"
_cell_formula_units_Z 32
_cell_length_a 26.223020
_cell_length_b 11.153093
_cell_length_c 4.917767
_cell_angle_alpha 90.000000
_cell_angle_beta 90.000000
_cell_angle_gamma 90.000000
_cell_volume 1438.288401
_symmetry_space_group_name_H-M "I 2 2 2"
_symmetry_group_IT_number 23
_symmetry_cell_setting 'orthorhombic'
loop_
_space_group_symop_operation_xyz
x,y,z
-x,-y,z
x,-y,-z
-x,y,-z
1/2+x,1/2+y,1/2+z
1/2-x,1/2-y,1/2+z
1/2+x,1/2-y,1/2-z
1/2-x,1/2+y,1/2-z
loop_
_atom_site_type_symbol
_atom_site_label
_atom_site_fract_x
_atom_site_fract_y
_atom_site_fract_z
Si Si1 0.175555 0.085849 0.756962
Si Si2 0.716349 0.090302 0.252829
Si Si3 0.440207 0.865226 0.931766
Si Si4 0.885691 0.727763 0.081236
O O1 0.228733 0.159315 0.727566
O O2 0.130431 0.161099 0.891774
O O3 0.163405 0.000000 0.500000
O O4 0.191686 0.000000 0.000000
O O5 0.667870 0.171558 0.319490
O O6 0.721802 0.000000 0.500000
O O7 0.705849 0.000000 0.000000
O O8 0.415448 0.767207 0.134587
O O9 0.500000 0.861937 0.000000
O O10 0.422209 0.845646 0.623174
O O11 0.421905 0.000000 0.000000
#
# Coordination Sequence:
#
# PCOD9330832 Si02
#       4
#     8   8   8   8
#     4  10  23  40  58  88 129 166 203 250 295 353
#     4  10  21  36  56  89 128 160 199 246 298 366
#     4  11  24  41  62  92 124 153 197 258 316 368
#     4  12  22  38  65  88 119 167 206 241 304 370
#
# _framework density 22.248670000000001
#
# number of rings (size 3 to 8) (size 9 to 14) (size 15 to 20)
#    0.000    1.250    0.000    6.750    0.000   10.000 
#    0.000    0.000    0.000   11.250    0.000    0.000 
#    0.000    0.000    0.000    0.000    0.000    0.000 
#
# Total GULP energy -89169.224204 kJ/mol
# GULP energy per Si atom -5573.076513 kJ/mol
# Density = 2.219803 g / cm^3
# Si number density = 22.248670 Si / 1000 Ang^3
#
#
#
# Elastic Constant Matrix: (Units=GPa)
#
#
# Indices 1 2 3 4 5 6 
#
# 1 76.8737 19.1183 9.5170 0.0001 -0.0002 0.0002
# 2 19.1183 33.4253 13.5346 0.0001 -0.0001 0.0001
# 3 9.5170 13.5346 150.8309 0.0007 0.0005 -0.0002
# 4 0.0001 0.0001 0.0007 42.9177 0.0001 -0.0001
# 5 -0.0002 -0.0001 0.0005 0.0001 21.2281 -0.0004
# 6 0.0002 0.0001 -0.0002 -0.0001 -0.0004 12.0179
#
#
#
# Elastic Compliance Matrix: (Units=1/GPa)
#
#
# Indices 1 2 3 4 5 6 
#
# 1 0.015171 -0.008602 -0.000185 0.000000 0.000000 0.000000
# 2 -0.008602 0.035923 -0.002681 0.000000 0.000000 0.000000
# 3 -0.000185 -0.002681 0.006882 0.000000 0.000000 0.000000
# 4 0.000000 0.000000 0.000000 0.023300 0.000000 0.000000
# 5 0.000000 0.000000 0.000000 0.000000 0.047107 0.000002
# 6 0.000000 0.000000 0.000000 0.000000 0.000002 0.083209
#
#
# Mechanical properties :
#
#
# Convention : Reuss Voigt Hill
#
# Bulk Modulus (GPa) = 28.53915 38.38551 33.46233
# Shear Modulus (GPa) = 20.30796 29.83008 25.06902
#
# Velocity S-wave (km/s) = 3.02449 3.66561 3.36037
# Velocity P-wave (km/s) = 5.00519 5.93346 5.48898
#
# Compressibility (1/GPa) = 0.03503959
#
# Stress axis : x y z
#
# Youngs Moduli (GPa) = 65.91691 27.83723 145.30267
#
# Poissons Ratio (x) = 0.23946 0.02693
# Poissons Ratio (y) = 0.56702 0.38952
# Poissons Ratio (z) = 0.01222 0.07462
#
# Static dielectric constant tensor:
#      x y z
#    x 1.972600 0.000000 0.000000 
#    y 0.000000 1.870570 0.000000 
#    z 0.000000 0.000000 1.850130 
# 
# From -- ./inp_files/4234.got.cif
#   From: 2010.05.17/outbox.cif.g08.bks.cpg/sg23_3_cif.got.tgz:4234.got - 2010.06.04 12:02:01.
