data_PCOD9330018
_publ_section_title
;
Structure prediction by ZEFSAII (Michael W. Deem and Ramdas Pophale) SiO2 
 PCOD9330018
Probable space group: I 2 2 2
;
_chemical_formula_sum "Si O2"
_cell_formula_units_Z 64
_cell_length_a 7.966371
_cell_length_b 24.860099
_cell_length_c 15.707843
_cell_angle_alpha 90.000000
_cell_angle_beta 90.000000
_cell_angle_gamma 90.000000
_cell_volume 3110.856181
_symmetry_space_group_name_H-M "I 2 2 2"
_symmetry_group_IT_number 23
_symmetry_cell_setting 'orthorhombic'
loop_
_space_group_symop_operation_xyz
x,y,z
-x,-y,z
x,-y,-z
-x,y,-z
1/2+x,1/2+y,1/2+z
1/2-x,1/2-y,1/2+z
1/2+x,1/2-y,1/2-z
1/2-x,1/2+y,1/2-z
loop_
_atom_site_type_symbol
_atom_site_label
_atom_site_fract_x
_atom_site_fract_y
_atom_site_fract_z
Si Si1 0.795270 0.762731 0.907242
Si Si2 0.346991 0.611747 0.364376
Si Si3 0.802530 0.064983 0.198335
Si Si4 0.326938 0.221580 0.587000
Si Si5 0.184659 0.379613 0.458852
Si Si6 0.704838 0.788968 0.231280
Si Si7 0.656803 0.961415 0.247646
Si Si8 0.952879 0.369192 0.810093
O O1 0.732062 0.823712 0.911996
O O2 0.735351 0.733831 0.821596
O O3 0.998743 0.755954 0.906869
O O4 0.747844 0.733212 0.995392
O O5 0.515826 0.585005 0.330589
O O6 0.318710 0.617778 0.464139
O O7 0.321338 0.666224 0.311890
O O8 0.194933 0.573922 0.334227
O O9 0.703240 0.071615 0.108052
O O10 0.703743 0.104476 0.262060
O O11 0.800829 0.007032 0.245113
O O12 0.204070 0.241774 0.661761
O O13 0.388559 0.160981 0.605722
O O14 0.000000 0.375834 0.500000
O O15 0.535068 0.821405 0.253628
O O16 0.596920 0.916007 0.316175
O O17 0.500000 0.000000 0.239114
#
# Coordination Sequence:
#
# PCOD9330018 Si02
#       8
#     8   8   8   8   8   8   8   8
#     4  10  22  36  58  84 119 167 210 258 314 383
#     4  11  22  37  58  82 121 156 205 259 312 379
#     4  11  22  36  58  85 116 158 205 255 320 377
#     4  10  19  36  60  85 120 161 211 256 313 378
#     4  12  23  37  54  83 122 166 211 257 312 377
#     4  10  19  36  58  82 118 157 205 256 313 374
#     4   9  19  38  59  84 114 151 201 249 309 368
#     4   9  20  37  58  85 116 157 197 257 311 370
#
# _framework density 20.573114
#
# number of rings (size 3 to 8) (size 9 to 14) (size 15 to 20)
#    0.000    1.750    1.250    4.500    1.750    2.500 
#    2.250    3.750    0.000    0.000    0.000  111.125 
#    0.000   20.000    0.000    0.000    0.000    0.000 
#
# Total GULP energy -178291.626675 kJ/mol
# GULP energy per Si atom -5571.613334 kJ/mol
# Density = 2.052629 g / cm^3
# Si number density = 20.573114 Si / 1000 Ang^3
#
#
#
# Elastic Constant Matrix: (Units=GPa)
#
#
# Indices 1 2 3 4 5 6 
#
# 1 47.4590 7.5903 -3.8106 0.0000 0.0000 0.0000
# 2 7.5903 101.3372 35.5823 0.0000 0.0000 0.0000
# 3 -3.8106 35.5823 91.1188 0.0001 0.0000 0.0000
# 4 0.0000 0.0000 0.0001 24.4853 0.0000 0.0000
# 5 0.0000 0.0000 0.0000 0.0000 20.3716 0.0000
# 6 0.0000 0.0000 0.0000 0.0000 0.0000 29.1152
#
#
#
# Elastic Compliance Matrix: (Units=1/GPa)
#
#
# Indices 1 2 3 4 5 6 
#
# 1 0.021572 -0.002240 0.001777 0.000000 0.000000 0.000000
# 2 -0.002240 0.011669 -0.004650 0.000000 0.000000 0.000000
# 3 0.001777 -0.004650 0.012865 0.000000 0.000000 0.000000
# 4 0.000000 0.000000 0.000000 0.040841 0.000000 0.000000
# 5 0.000000 0.000000 0.000000 0.000000 0.049088 0.000000
# 6 0.000000 0.000000 0.000000 0.000000 0.000000 0.034346
#
#
# Mechanical properties :
#
#
# Convention : Reuss Voigt Hill
#
# Bulk Modulus (GPa) = 27.87159 35.40433 31.63796
# Shear Modulus (GPa) = 25.96509 28.16464 27.06486
#
# Velocity S-wave (km/s) = 3.55644 3.70402 3.63098
# Velocity P-wave (km/s) = 5.51737 5.96149 5.74372
#
# Compressibility (1/GPa) = 0.03587883
#
# Stress axis : x y z
#
# Youngs Moduli (GPa) = 46.35712 85.69980 77.73059
#
# Poissons Ratio (x) = 0.19193 -0.13810
# Poissons Ratio (y) = 0.10382 0.36147
# Poissons Ratio (z) = -0.08236 0.39853
#
# Static dielectric constant tensor:
#      x y z
#    x 1.837230 0.000000 0.000000 
#    y 0.000000 1.808010 0.000000 
#    z 0.000000 0.000000 1.716310 
# 
# From -- ./inp_files/20330.got.cif
#   From: 2010.05.17/outbox.cif.g08.bks.cpg/sg23_11_cif.got.tgz:20330.got - 2010.06.04 12:02:01.
