data_PCOD9330810
_publ_section_title
;
Structure prediction by ZEFSAII (Michael W. Deem and Ramdas Pophale) SiO2 
 PCOD9330810
Probable space group: I 2 2 2
;
_chemical_formula_sum "Si O2"
_cell_formula_units_Z 56
_cell_length_a 12.158848
_cell_length_b 14.483295
_cell_length_c 13.670007
_cell_angle_alpha 90.000000
_cell_angle_beta 90.000000
_cell_angle_gamma 90.000000
_cell_volume 2407.290727
_symmetry_space_group_name_H-M "I 2 2 2"
_symmetry_group_IT_number 23
_symmetry_cell_setting 'orthorhombic'
loop_
_space_group_symop_operation_xyz
x,y,z
-x,-y,z
x,-y,-z
-x,y,-z
1/2+x,1/2+y,1/2+z
1/2-x,1/2-y,1/2+z
1/2+x,1/2-y,1/2-z
1/2-x,1/2+y,1/2-z
loop_
_atom_site_type_symbol
_atom_site_label
_atom_site_fract_x
_atom_site_fract_y
_atom_site_fract_z
Si Si1 0.313724 0.995574 0.886330
Si Si2 0.784471 0.298504 0.878269
Si Si3 0.916842 0.822702 0.258391
Si Si4 0.724848 0.800106 0.389532
Si Si5 0.997114 0.608198 0.889874
Si Si6 0.649358 0.384199 0.718052
Si Si7 0.496763 0.847310 0.886189
O O1 0.213496 0.023985 0.815647
O O2 0.408473 0.074662 0.876778
O O3 0.381128 0.900442 0.870785
O O4 0.276830 0.000000 0.000000
O O5 0.834080 0.206062 0.829651
O O6 0.683380 0.346196 0.824576
O O7 0.886472 0.364049 0.849246
O O8 0.767070 0.295214 0.993522
O O9 0.832093 0.848335 0.344330
O O10 0.017104 0.883426 0.217758
O O11 0.976878 0.733905 0.310441
O O12 0.618088 0.855655 0.352955
O O13 0.701223 0.696591 0.351052
O O14 0.000000 0.500000 0.892138
O O15 0.000000 0.647691 0.000000
O O16 0.500000 0.815261 0.000000
#
# Coordination Sequence:
#
# PCOD9330810 Si02
#       7
#     8   8   8   8   8   8   8
#     4   9  18  35  58  91 138 178 225 277 342 412
#     4  10  21  35  57  92 128 171 218 280 336 411
#     4  11  22  36  60  98 134 176 231 284 348 419
#     4  10  21  38  58  92 133 168 221 284 358 407
#     4   9  18  36  62  90 118 160 217 272 339 408
#     4  11  22  36  58  98 136 175 228 279 345 424
#     4   9  18  33  58  93 135 180 221 282 347 402
#
# _framework density 23.262665999999999
#
# number of rings (size 3 to 8) (size 9 to 14) (size 15 to 20)
#    0.000    2.143    4.286    0.857    2.000    1.143 
#    0.000    0.000    0.000    0.857    7.429    4.000 
#    4.286    0.000    0.000    0.000    0.000    0.000 
#
# Total GULP energy -156322.836412 kJ/mol
# GULP energy per Si atom -5582.958443 kJ/mol
# Density = 2.320972 g / cm^3
# Si number density = 23.262666 Si / 1000 Ang^3
#
#
#
# Elastic Constant Matrix: (Units=GPa)
#
#
# Indices 1 2 3 4 5 6 
#
# 1 153.8085 25.5216 23.6971 0.0000 0.0000 0.0000
# 2 25.5216 32.1538 0.0565 0.0000 0.0000 0.0000
# 3 23.6971 0.0565 130.2787 0.0000 0.0000 0.0000
# 4 0.0000 0.0000 0.0000 16.5028 0.0000 0.0000
# 5 0.0000 0.0000 0.0000 0.0000 27.0133 0.0000
# 6 0.0000 0.0000 0.0000 0.0000 0.0000 32.8405
#
#
#
# Elastic Compliance Matrix: (Units=1/GPa)
#
#
# Indices 1 2 3 4 5 6 
#
# 1 0.007737 -0.006138 -0.001405 0.000000 0.000000 0.000000
# 2 -0.006138 0.035971 0.001101 0.000000 0.000000 0.000000
# 3 -0.001405 0.001101 0.007931 0.000000 0.000000 0.000000
# 4 0.000000 0.000000 0.000000 0.060596 0.000000 0.000000
# 5 0.000000 0.000000 0.000000 0.000000 0.037019 0.000000
# 6 0.000000 0.000000 0.000000 0.000000 0.000000 0.030450
#
#
# Mechanical properties :
#
#
# Convention : Reuss Voigt Hill
#
# Bulk Modulus (GPa) = 25.80362 46.08794 35.94578
# Shear Modulus (GPa) = 24.33033 33.06904 28.69969
#
# Velocity S-wave (km/s) = 3.23754 3.77443 3.51625
# Velocity P-wave (km/s) = 5.00918 6.23299 5.65429
#
# Compressibility (1/GPa) = 0.03875426
#
# Stress axis : x y z
#
# Youngs Moduli (GPa) = 129.25708 27.80039 126.08969
#
# Poissons Ratio (x) = 0.17065 0.17710
# Poissons Ratio (y) = 0.79341 -0.13881
# Poissons Ratio (z) = 0.18155 -0.03061
#
# Static dielectric constant tensor:
#      x y z
#    x 1.903560 0.000000 0.000000 
#    y 0.000000 1.932950 0.000000 
#    z 0.000000 0.000000 1.918860 
# 
# From -- ./inp_files/20907.got.cif
#   From: 2010.05.17/outbox.cif.g08.bks.cpg/sg23_11_cif.got.tgz:20907.got - 2010.06.04 12:02:01.
