data_PCOD9330856
_publ_section_title
;
Structure prediction by ZEFSAII (Michael W. Deem and Ramdas Pophale) SiO2 
 PCOD9330856
Probable space group: I 2 2 2
;
_chemical_formula_sum "Si O2"
_cell_formula_units_Z 60
_cell_length_a 9.920146
_cell_length_b 23.140894
_cell_length_c 12.163026
_cell_angle_alpha 90.000000
_cell_angle_beta 90.000000
_cell_angle_gamma 90.000000
_cell_volume 2792.156984
_symmetry_space_group_name_H-M "I 2 2 2"
_symmetry_group_IT_number 23
_symmetry_cell_setting 'orthorhombic'
loop_
_space_group_symop_operation_xyz
x,y,z
-x,-y,z
x,-y,-z
-x,y,-z
1/2+x,1/2+y,1/2+z
1/2-x,1/2-y,1/2+z
1/2+x,1/2-y,1/2-z
1/2-x,1/2+y,1/2-z
loop_
_atom_site_type_symbol
_atom_site_label
_atom_site_fract_x
_atom_site_fract_y
_atom_site_fract_z
Si Si1 0.000000 0.898199 0.000000
Si Si2 0.918918 0.680889 0.779240
Si Si3 0.353326 0.813540 0.968412
Si Si4 0.211123 0.558595 0.449510
Si Si5 0.880888 0.196688 0.140011
Si Si6 0.661137 0.008312 0.720972
Si Si7 0.206421 0.378977 0.204343
Si Si8 0.843631 0.405089 0.038841
O O1 0.020010 0.853399 0.099555
O O2 0.867047 0.934745 0.018192
O O3 0.843555 0.689960 0.663510
O O4 0.950748 0.744041 0.827170
O O5 0.838238 0.645975 0.871950
O O6 0.055972 0.643785 0.766647
O O7 0.353132 0.882496 0.992418
O O8 0.500000 0.789102 0.000000
O O9 0.229404 0.791446 0.042543
O O10 0.154414 0.500000 0.500000
O O11 0.195537 0.551418 0.319406
O O12 0.802330 0.167525 0.240670
O O13 0.700695 0.037938 0.605667
O O14 0.500000 0.000000 0.716932
O O15 0.721738 0.945116 0.745371
O O16 0.225664 0.385904 0.073612
O O17 0.000000 0.413779 0.000000
#
# Coordination Sequence:
#
# PCOD9330856 Si02
#       8
#     4   8   8   8   8   8   8   8
#     4  10  25  48  62  96 130 183 230 266 332 414
#     4  11  23  40  61  92 131 176 216 274 329 394
#     4  11  22  43  60  98 130 162 221 279 330 391
#     4  11  24  37  67  93 135 173 214 272 339 398
#     4  11  26  42  70  91 132 182 226 276 329 405
#     4  12  20  36  62 104 133 170 209 279 334 394
#     4  11  23  39  63  96 134 170 222 265 336 387
#     4  10  21  36  62  95 135 165 205 266 339 398
#
# _framework density 21.488762999999999
#
# number of rings (size 3 to 8) (size 9 to 14) (size 15 to 20)
#    0.000    1.067    5.333    2.200    6.533    1.067 
#    0.000    0.000    0.000    0.000    0.000    1.867 
#    0.000    0.000    0.000    0.000    0.000    0.000 
#
# Total GULP energy -167616.759532 kJ/mol
# GULP energy per Si atom -5587.225318 kJ/mol
# Density = 2.143985 g / cm^3
# Si number density = 21.488763 Si / 1000 Ang^3
#
#
#
# Elastic Constant Matrix: (Units=GPa)
#
#
# Indices 1 2 3 4 5 6 
#
# 1 36.0518 3.9001 4.3086 0.0000 0.0000 0.0000
# 2 3.9001 94.6763 14.8031 0.0000 0.0000 0.0000
# 3 4.3086 14.8031 97.6421 0.0001 -0.0001 0.0000
# 4 0.0000 0.0000 0.0001 21.0523 0.0000 0.0000
# 5 0.0000 0.0000 -0.0001 0.0000 15.7555 0.0000
# 6 0.0000 0.0000 0.0000 0.0000 0.0000 11.7690
#
#
#
# Elastic Compliance Matrix: (Units=1/GPa)
#
#
# Indices 1 2 3 4 5 6 
#
# 1 0.027974 -0.000983 -0.001085 0.000000 0.000000 0.000000
# 2 -0.000983 0.010853 -0.001602 0.000000 0.000000 0.000000
# 3 -0.001085 -0.001602 0.010532 0.000000 0.000000 0.000000
# 4 0.000000 0.000000 0.000000 0.047501 0.000000 0.000000
# 5 0.000000 0.000000 0.000000 0.000000 0.063470 0.000000
# 6 0.000000 0.000000 0.000000 0.000000 0.000000 0.084969
#
#
# Mechanical properties :
#
#
# Convention : Reuss Voigt Hill
#
# Bulk Modulus (GPa) = 23.79864 30.48820 27.14342
# Shear Modulus (GPa) = 18.75150 23.40594 21.07872
#
# Velocity S-wave (km/s) = 2.95722 3.30391 3.13536
# Velocity P-wave (km/s) = 4.77065 5.36407 5.07604
#
# Compressibility (1/GPa) = 0.04201920
#
# Stress axis : x y z
#
# Youngs Moduli (GPa) = 35.74760 92.13811 94.94640
#
# Poissons Ratio (x) = 0.09054 0.10306
# Poissons Ratio (y) = 0.03513 0.15211
# Poissons Ratio (z) = 0.03880 0.14761
#
# Static dielectric constant tensor:
#      x y z
#    x 1.769180 0.000000 0.000000 
#    y 0.000000 1.789910 0.000000 
#    z 0.000000 0.000000 1.846240 
# 
# From -- ./inp_files/15962.got.cif
#   From: 2010.05.17/outbox.cif.g08.bks.cpg/sg23_8_cif.got.tgz:15962.got - 2010.06.04 12:02:01.
