data_PCOD9330557
_publ_section_title
;
Structure prediction by ZEFSAII (Michael W. Deem and Ramdas Pophale) SiO2 
 PCOD9330557
Probable space group: I 2 2 2
;
_chemical_formula_sum "Si O2"
_cell_formula_units_Z 36
_cell_length_a 8.775344
_cell_length_b 13.917539
_cell_length_c 12.453618
_cell_angle_alpha 90.000000
_cell_angle_beta 90.000000
_cell_angle_gamma 90.000000
_cell_volume 1520.975216
_symmetry_space_group_name_H-M "I 2 2 2"
_symmetry_group_IT_number 23
_symmetry_cell_setting 'orthorhombic'
loop_
_space_group_symop_operation_xyz
x,y,z
-x,-y,z
x,-y,-z
-x,y,-z
1/2+x,1/2+y,1/2+z
1/2-x,1/2-y,1/2+z
1/2+x,1/2-y,1/2-z
1/2-x,1/2+y,1/2-z
loop_
_atom_site_type_symbol
_atom_site_label
_atom_site_fract_x
_atom_site_fract_y
_atom_site_fract_z
Si Si1 0.000000 0.000000 0.500000
Si Si2 0.277502 0.686178 0.710410
Si Si3 0.907012 0.217555 0.892979
Si Si4 0.821655 0.024853 0.840152
Si Si5 0.253238 0.617726 0.123398
Si Si6 0.500000 0.000000 0.500000
O O1 0.896397 0.066661 0.571968
O O2 0.209313 0.710286 0.830037
O O3 0.460763 0.700867 0.697822
O O4 0.243257 0.579281 0.667926
O O5 0.222349 0.768751 0.628665
O O6 0.834242 0.112844 0.925259
O O7 0.000000 0.247038 0.000000
O O8 0.745546 0.084577 0.745407
O O9 0.000000 0.000000 0.822664
O O10 0.108238 0.569336 0.068347
#
# Coordination Sequence:
#
# PCOD9330557 Si02
#       6
#     2   8   8   8   8   2
#     4  10  20  38  64  82 142 180 224 282 364 426
#     4  10  23  40  67 100 134 181 239 290 348 435
#     4  10  23  44  68 105 139 190 234 296 361 431
#     4   9  19  40  64  88 131 176 223 275 342 417
#     4  10  21  38  57  96 126 177 219 287 343 422
#     4  10  24  34  56  94 138 164 220 298 364 394
#
# _framework density 23.669025000000001
#
# number of rings (size 3 to 8) (size 9 to 14) (size 15 to 20)
#    0.000    2.222    1.111    0.000    4.667    5.778 
#    0.000    0.000    0.000    0.000   11.556    0.000 
#    0.000    0.000    0.000    0.000    0.000    0.000 
#
# Total GULP energy -100240.426318 kJ/mol
# GULP energy per Si atom -5568.912573 kJ/mol
# Density = 2.361515 g / cm^3
# Si number density = 23.669025 Si / 1000 Ang^3
#
#
#
# Elastic Constant Matrix: (Units=GPa)
#
#
# Indices 1 2 3 4 5 6 
#
# 1 60.5041 27.7637 28.4337 0.0000 0.0000 0.0000
# 2 27.7637 215.7538 38.4950 0.0000 0.0000 0.0000
# 3 28.4337 38.4950 85.8509 0.0000 0.0000 0.0000
# 4 0.0000 0.0000 0.0000 21.4959 0.0000 0.0000
# 5 0.0000 0.0000 0.0000 0.0000 42.6680 0.0000
# 6 0.0000 0.0000 0.0000 0.0000 0.0000 10.5318
#
#
#
# Elastic Compliance Matrix: (Units=1/GPa)
#
#
# Indices 1 2 3 4 5 6 
#
# 1 0.020020 -0.001514 -0.005951 0.000000 0.000000 0.000000
# 2 -0.001514 0.005153 -0.001809 0.000000 0.000000 0.000000
# 3 -0.005951 -0.001809 0.014430 0.000000 0.000000 0.000000
# 4 0.000000 0.000000 0.000000 0.046520 0.000000 0.000000
# 5 0.000000 0.000000 0.000000 0.000000 0.023437 0.000000
# 6 0.000000 0.000000 0.000000 0.000000 0.000000 0.094950
#
#
# Mechanical properties :
#
#
# Convention : Reuss Voigt Hill
#
# Bulk Modulus (GPa) = 47.49870 61.27705 54.38788
# Shear Modulus (GPa) = 21.73186 32.76689 27.24938
#
# Velocity S-wave (km/s) = 3.03340 3.72476 3.39671
# Velocity P-wave (km/s) = 5.69035 6.66662 6.19774
#
# Compressibility (1/GPa) = 0.02105321
#
# Stress axis : x y z
#
# Youngs Moduli (GPa) = 49.95119 194.08025 69.29875
#
# Poissons Ratio (x) = 0.29390 0.41243
# Poissons Ratio (y) = 0.07564 0.12535
# Poissons Ratio (z) = 0.29728 0.35106
#
# Static dielectric constant tensor:
#      x y z
#    x 1.915960 0.000000 0.000000 
#    y 0.000000 1.978800 0.000000 
#    z 0.000000 0.000000 2.007460 
# 
# From -- ./inp_files/19732.got.cif
#   From: 2010.05.17/outbox.cif.g08.bks.cpg/sg23_10_cif.got.tgz:19732.got - 2010.06.04 12:02:01.
