data_PCOD9330394
_publ_section_title
;
Structure prediction by ZEFSAII (Michael W. Deem and Ramdas Pophale) SiO2 
 PCOD9330394
Probable space group: I 2 2 2
;
_chemical_formula_sum "Si O2"
_cell_formula_units_Z 48
_cell_length_a 8.972927
_cell_length_b 23.947718
_cell_length_c 10.321078
_cell_angle_alpha 90.000000
_cell_angle_beta 90.000000
_cell_angle_gamma 90.000000
_cell_volume 2217.804856
_symmetry_space_group_name_H-M "I 2 2 2"
_symmetry_group_IT_number 23
_symmetry_cell_setting 'orthorhombic'
loop_
_space_group_symop_operation_xyz
x,y,z
-x,-y,z
x,-y,-z
-x,y,-z
1/2+x,1/2+y,1/2+z
1/2-x,1/2-y,1/2+z
1/2+x,1/2-y,1/2-z
1/2-x,1/2+y,1/2-z
loop_
_atom_site_type_symbol
_atom_site_label
_atom_site_fract_x
_atom_site_fract_y
_atom_site_fract_z
Si Si1 0.642806 0.967712 0.365212
Si Si2 0.082237 0.054073 0.181865
Si Si3 0.723115 0.852410 0.073618
Si Si4 0.321477 0.357379 0.284083
Si Si5 0.036300 0.229851 0.151156
Si Si6 0.010524 0.360186 0.210568
O O1 0.798973 0.965563 0.290087
O O2 0.589786 0.902939 0.371846
O O3 0.500000 0.000000 0.299605
O O4 0.661540 0.000000 0.500000
O O5 0.182001 0.090638 0.085988
O O6 0.949444 0.096268 0.218861
O O7 0.000000 0.000000 0.132837
O O8 0.807640 0.803975 0.157495
O O9 0.568423 0.862133 0.147453
O O10 0.739977 0.841844 0.921196
O O11 0.415975 0.301229 0.257777
O O12 0.182303 0.378669 0.202728
O O13 0.024794 0.295349 0.172816
O O14 0.000000 0.219394 0.000000
#
# Coordination Sequence:
#
# PCOD9330394 Si02
#       6
#     8   8   8   8   8   8
#     4  10  23  40  58  82 117 154 205 256 297 370
#     4  10  20  37  59  83 111 155 195 241 317 366
#     4   9  20  36  55  88 122 150 202 257 303 369
#     4  10  20  36  58  89 122 151 203 259 304 372
#     4   9  19  34  56  85 117 161 205 248 308 368
#     4  11  20  35  61  85 116 167 200 249 317 367
#
# _framework density 21.643021999999998
#
# number of rings (size 3 to 8) (size 9 to 14) (size 15 to 20)
#    0.000    2.167    0.000    4.000    2.333    1.667 
#    0.000    0.833    0.000    3.000    0.000    0.000 
#    0.000    0.000    0.000    0.000    0.000    0.000 
#
# Total GULP energy -133612.207806 kJ/mol
# GULP energy per Si atom -5567.175325 kJ/mol
# Density = 2.159376 g / cm^3
# Si number density = 21.643022 Si / 1000 Ang^3
#
#
#
# Elastic Constant Matrix: (Units=GPa)
#
#
# Indices 1 2 3 4 5 6 
#
# 1 151.3148 37.6141 23.5646 -0.0002 -0.0002 -0.0003
# 2 37.6141 126.0561 4.5355 -0.0001 -0.0008 -0.0002
# 3 23.5646 4.5355 40.7607 -0.0023 -0.0018 -0.0024
# 4 -0.0002 -0.0001 -0.0023 20.4692 0.0000 -0.0009
# 5 -0.0002 -0.0008 -0.0018 0.0000 9.8485 0.0001
# 6 -0.0003 -0.0002 -0.0024 -0.0009 0.0001 22.1034
#
#
#
# Elastic Compliance Matrix: (Units=1/GPa)
#
#
# Indices 1 2 3 4 5 6 
#
# 1 0.007816 -0.002178 -0.004276 0.000000 -0.000001 0.000000
# 2 -0.002178 0.008572 0.000306 0.000000 0.000001 0.000000
# 3 -0.004276 0.000306 0.026972 0.000003 0.000005 0.000003
# 4 0.000000 0.000000 0.000003 0.048854 0.000000 0.000002
# 5 -0.000001 0.000001 0.000005 0.000000 0.101538 -0.000001
# 6 0.000000 0.000000 0.000003 0.000002 -0.000001 0.045242
#
#
# Mechanical properties :
#
#
# Convention : Reuss Voigt Hill
#
# Bulk Modulus (GPa) = 32.19418 49.95111 41.07265
# Shear Modulus (GPa) = 19.10979 27.31206 23.21093
#
# Velocity S-wave (km/s) = 2.97468 3.55622 3.27837
# Velocity P-wave (km/s) = 5.16775 6.32392 5.77484
#
# Compressibility (1/GPa) = 0.03106152
#
# Stress axis : x y z
#
# Youngs Moduli (GPa) = 127.93911 116.65884 37.07599
#
# Poissons Ratio (x) = 0.25413 0.15855
# Poissons Ratio (y) = 0.27871 -0.01133
# Poissons Ratio (z) = 0.54711 -0.03565
#
# Static dielectric constant tensor:
#      x y z
#    x 1.843200 0.000000 0.000000 
#    y 0.000000 1.826310 0.000000 
#    z 0.000000 0.000000 1.826900 
# 
# From -- ./inp_files/14760.got.cif
#   From: 2010.05.17/outbox.cif.g08.bks.cpg/sg23_8_cif.got.tgz:14760.got - 2010.06.04 12:02:01.
