data_PCOD9330570
_publ_section_title
;
Structure prediction by ZEFSAII (Michael W. Deem and Ramdas Pophale) SiO2 
 PCOD9330570
Probable space group: I 2 2 2
;
_chemical_formula_sum "Si O2"
_cell_formula_units_Z 64
_cell_length_a 17.016337
_cell_length_b 21.589630
_cell_length_c 8.776819
_cell_angle_alpha 90.000000
_cell_angle_beta 90.000000
_cell_angle_gamma 90.000000
_cell_volume 3224.396341
_symmetry_space_group_name_H-M "I 2 2 2"
_symmetry_group_IT_number 23
_symmetry_cell_setting 'orthorhombic'
loop_
_space_group_symop_operation_xyz
x,y,z
-x,-y,z
x,-y,-z
-x,y,-z
1/2+x,1/2+y,1/2+z
1/2-x,1/2-y,1/2+z
1/2+x,1/2-y,1/2-z
1/2-x,1/2+y,1/2-z
loop_
_atom_site_type_symbol
_atom_site_label
_atom_site_fract_x
_atom_site_fract_y
_atom_site_fract_z
Si Si1 0.299256 0.090615 0.136310
Si Si2 0.290369 0.051010 0.782521
Si Si3 0.009605 0.198613 0.681817
Si Si4 0.369022 0.602772 0.679518
Si Si5 0.539523 0.163579 0.833508
Si Si6 0.365778 0.360155 0.673071
Si Si7 0.409034 0.484731 0.834238
Si Si8 0.458557 0.939933 0.337409
O O1 0.380690 0.123730 0.176730
O O2 0.229102 0.138438 0.177852
O O3 0.276975 0.023832 0.210794
O O4 0.307385 0.072525 0.957099
O O5 0.218698 0.098463 0.747900
O O6 0.365176 0.054960 0.672640
O O7 0.925604 0.192800 0.769570
O O8 0.000000 0.193648 0.500000
O O9 0.068815 0.144203 0.731020
O O10 0.047560 0.265435 0.716424
O O11 0.377314 0.623533 0.505083
O O12 0.386459 0.530225 0.696985
O O13 0.478439 0.124989 0.736153
O O14 0.500000 0.164829 0.000000
O O15 0.392931 0.415975 0.782232
O O16 0.500000 0.500000 0.851066
O O17 0.371750 0.500000 0.000000
O O18 0.500000 0.938858 0.500000
O O19 0.500000 0.000000 0.256551
#
# Coordination Sequence:
#
# PCOD9330570 Si02
#       8
#     8   8   8   8   8   8   8   8
#     4  10  20  38  67 100 123 162 217 268 315 386
#     4  10  20  38  66  98 130 157 211 268 327 387
#     4  11  25  44  61  90 130 175 224 265 325 391
#     4  11  22  39  64  92 128 171 213 267 326 387
#     4  11  23  44  70  86 121 180 227 258 312 383
#     4  11  22  39  63  94 129 167 220 267 320 395
#     4  11  21  34  58  91 131 170 208 258 332 388
#     4  11  23  40  62  96 132 162 206 270 334 382
#
# _framework density 19.848676999999999
#
# number of rings (size 3 to 8) (size 9 to 14) (size 15 to 20)
#    0.000    1.250    5.000    1.500    0.000    1.750 
#    9.000    0.000    0.000    0.000    0.000    0.000 
#    0.000    0.000    0.000    0.000    0.000    0.000 
#
# Total GULP energy -178145.000962 kJ/mol
# GULP energy per Si atom -5567.031280 kJ/mol
# Density = 1.980350 g / cm^3
# Si number density = 19.848677 Si / 1000 Ang^3
#
#
#
# Elastic Constant Matrix: (Units=GPa)
#
#
# Indices 1 2 3 4 5 6 
#
# 1 109.7403 18.4465 24.2120 0.0000 0.0000 0.0000
# 2 18.4465 73.8337 8.4587 0.0000 0.0000 0.0000
# 3 24.2120 8.4587 52.9189 0.0000 0.0000 0.0000
# 4 0.0000 0.0000 0.0000 43.5625 0.0000 0.0000
# 5 0.0000 0.0000 0.0000 0.0000 14.5979 0.0000
# 6 0.0000 0.0000 0.0000 0.0000 0.0000 25.0409
#
#
#
# Elastic Compliance Matrix: (Units=1/GPa)
#
#
# Indices 1 2 3 4 5 6 
#
# 1 0.010446 -0.002101 -0.004444 0.000000 0.000000 0.000000
# 2 -0.002101 0.014219 -0.001312 0.000000 0.000000 0.000000
# 3 -0.004444 -0.001312 0.021140 0.000000 0.000000 0.000000
# 4 0.000000 0.000000 0.000000 0.022956 0.000000 0.000000
# 5 0.000000 0.000000 0.000000 0.000000 0.068503 0.000000
# 6 0.000000 0.000000 0.000000 0.000000 0.000000 0.039935
#
#
# Mechanical properties :
#
#
# Convention : Reuss Voigt Hill
#
# Bulk Modulus (GPa) = 33.23070 37.63639 35.43355
# Shear Modulus (GPa) = 24.63773 28.99862 26.81818
#
# Velocity S-wave (km/s) = 3.52700 3.82643 3.67976
# Velocity P-wave (km/s) = 5.77622 6.20684 5.99540
#
# Compressibility (1/GPa) = 0.03009265
#
# Stress axis : x y z
#
# Youngs Moduli (GPa) = 95.73119 70.32809 47.30468
#
# Poissons Ratio (x) = 0.14774 0.21020
# Poissons Ratio (y) = 0.20110 0.06205
# Poissons Ratio (z) = 0.42539 0.09225
#
# Static dielectric constant tensor:
#      x y z
#    x 1.739770 0.000000 0.000000 
#    y 0.000000 1.700990 0.000000 
#    z 0.000000 0.000000 1.705500 
# 
# From -- ./inp_files/11439.got.cif
#   From: 2010.05.17/outbox.cif.g08.bks.cpg/sg23_6_cif.got.tgz:11439.got - 2010.06.04 12:02:01.
