data_PCOD9330948
_publ_section_title
;
Structure prediction by ZEFSAII (Michael W. Deem and Ramdas Pophale) SiO2 
 PCOD9330948
Probable space group: I 2 2 2
;
_chemical_formula_sum "Si O2"
_cell_formula_units_Z 52
_cell_length_a 14.791928
_cell_length_b 29.015057
_cell_length_c 6.389958
_cell_angle_alpha 90.000000
_cell_angle_beta 90.000000
_cell_angle_gamma 90.000000
_cell_volume 2742.497346
_symmetry_space_group_name_H-M "I 2 2 2"
_symmetry_group_IT_number 23
_symmetry_cell_setting 'orthorhombic'
loop_
_space_group_symop_operation_xyz
x,y,z
-x,-y,z
x,-y,-z
-x,y,-z
1/2+x,1/2+y,1/2+z
1/2-x,1/2-y,1/2+z
1/2+x,1/2-y,1/2-z
1/2-x,1/2+y,1/2-z
loop_
_atom_site_type_symbol
_atom_site_label
_atom_site_fract_x
_atom_site_fract_y
_atom_site_fract_z
Si Si1 0.230607 0.881719 0.275957
Si Si2 0.641986 0.778809 0.175511
Si Si3 0.396241 0.554130 0.045678
Si Si4 0.916145 0.363491 0.621648
Si Si5 0.500000 0.805418 0.500000
Si Si6 0.179188 0.194811 0.402287
Si Si7 0.598134 0.377863 0.396845
O O1 0.176026 0.921202 0.396935
O O2 0.330864 0.893017 0.196504
O O3 0.231415 0.838490 0.434350
O O4 0.171089 0.869046 0.075674
O O5 0.575214 0.776948 0.373817
O O6 0.744909 0.782797 0.253883
O O7 0.619251 0.824195 0.039268
O O8 0.630445 0.734754 0.029503
O O9 0.381142 0.573769 0.279024
O O10 0.391561 0.500000 0.000000
O O11 0.500000 0.568997 0.000000
O O12 0.000000 0.386739 0.500000
O O13 0.953089 0.337331 0.825908
O O14 0.111417 0.162199 0.274263
O O15 0.500000 0.378772 0.500000
#
# Coordination Sequence:
#
# PCOD9330948 Si02
#       7
#     8   8   8   8   4   8   8
#     4  11  21  41  61  86 123 159 201 252 314 367
#     4  11  22  40  55  83 115 164 209 263 306 351
#     4  10  22  40  63  96 126 157 203 244 303 392
#     4  10  21  38  61  87 114 157 213 260 305 360
#     4  10  22  40  56  80 115 150 220 261 298 356
#     4  11  24  37  59  81 122 163 214 256 311 369
#     4  11  23  42  60  88 125 165 199 252 313 374
#
# _framework density 18.960819999999998
#
# number of rings (size 3 to 8) (size 9 to 14) (size 15 to 20)
#    0.000    1.385    4.615    0.923    0.000    0.615 
#   11.077    0.000    0.000    0.000    0.000    8.077 
#    0.000    0.000    0.000    0.000    0.000    0.000 
#
# Total GULP energy -145230.218551 kJ/mol
# GULP energy per Si atom -5585.777637 kJ/mol
# Density = 1.891766 g / cm^3
# Si number density = 18.960820 Si / 1000 Ang^3
#
#
#
# Elastic Constant Matrix: (Units=GPa)
#
#
# Indices 1 2 3 4 5 6 
#
# 1 122.7438 34.0976 43.5047 0.0053 -0.0029 0.0035
# 2 34.0976 59.3352 25.7775 0.0155 0.0023 0.0019
# 3 43.5047 25.7775 101.6009 0.0156 0.0132 -0.0112
# 4 0.0053 0.0155 0.0156 5.5306 0.0032 0.0002
# 5 -0.0029 0.0023 0.0132 0.0032 38.1791 0.0040
# 6 0.0035 0.0019 -0.0112 0.0002 0.0040 20.3954
#
#
#
# Elastic Compliance Matrix: (Units=1/GPa)
#
#
# Indices 1 2 3 4 5 6 
#
# 1 0.010633 -0.004644 -0.003375 0.000012 0.000002 -0.000003
# 2 -0.004644 0.020970 -0.003332 -0.000045 0.000000 -0.000003
# 3 -0.003375 -0.003332 0.012133 -0.000022 -0.000004 0.000008
# 4 0.000012 -0.000045 -0.000022 0.180811 -0.000015 -0.000002
# 5 0.000002 0.000000 -0.000004 -0.000015 0.026192 -0.000005
# 6 -0.000003 -0.000003 0.000008 -0.000002 -0.000005 0.049031
#
#
# Mechanical properties :
#
#
# Convention : Reuss Voigt Hill
#
# Bulk Modulus (GPa) = 47.54142 54.49326 51.01734
# Shear Modulus (GPa) = 15.17527 24.84104 20.00816
#
# Velocity S-wave (km/s) = 2.83211 3.62349 3.25197
# Velocity P-wave (km/s) = 5.98518 6.80504 6.40824
#
# Compressibility (1/GPa) = 0.02103429
#
# Stress axis : x y z
#
# Youngs Moduli (GPa) = 94.04325 47.68770 82.42152
#
# Poissons Ratio (x) = 0.22148 0.27815
# Poissons Ratio (y) = 0.43678 0.27459
# Poissons Ratio (z) = 0.31738 0.15887
#
# Static dielectric constant tensor:
#      x y z
#    x 1.682280 0.000000 -0.000010 
#    y 0.000000 1.629020 0.000000 
#    z -0.000010 0.000000 1.642520 
# 
# From -- ./inp_files/2720.got.cif
#   From: 2010.05.17/outbox.cif.g08.bks.cpg/sg23_2_cif.got.tgz:2720.got - 2010.06.04 12:02:01.
