data_PCOD9330282
_publ_section_title
;
Structure prediction by ZEFSAII (Michael W. Deem and Ramdas Pophale) SiO2 
 PCOD9330282
Probable space group: I 2 2 2
;
_chemical_formula_sum "Si O2"
_cell_formula_units_Z 40
_cell_length_a 12.390555
_cell_length_b 18.159852
_cell_length_c 9.731939
_cell_angle_alpha 90.000000
_cell_angle_beta 90.000000
_cell_angle_gamma 90.000000
_cell_volume 2189.789871
_symmetry_space_group_name_H-M "I 2 2 2"
_symmetry_group_IT_number 23
_symmetry_cell_setting 'orthorhombic'
loop_
_space_group_symop_operation_xyz
x,y,z
-x,-y,z
x,-y,-z
-x,y,-z
1/2+x,1/2+y,1/2+z
1/2-x,1/2-y,1/2+z
1/2+x,1/2-y,1/2-z
1/2-x,1/2+y,1/2-z
loop_
_atom_site_type_symbol
_atom_site_label
_atom_site_fract_x
_atom_site_fract_y
_atom_site_fract_z
Si Si1 0.622532 0.977847 0.660816
Si Si2 0.791428 0.670525 0.059899
Si Si3 0.425566 0.754291 0.865239
Si Si4 0.721031 0.882445 0.245369
Si Si5 0.570089 0.688756 0.621273
O O1 0.657504 0.892734 0.657473
O O2 0.500000 0.000000 0.696951
O O3 0.633578 0.000000 0.500000
O O4 0.695929 0.031074 0.752129
O O5 0.676300 0.700409 0.109900
O O6 0.871747 0.739354 0.058209
O O7 0.778076 0.641951 0.905043
O O8 0.372511 0.832719 0.824196
O O9 0.496484 0.719158 0.744270
O O10 0.500000 0.760600 0.000000
O O11 0.834710 0.862157 0.178291
O O12 0.500000 0.653824 0.500000
#
# Coordination Sequence:
#
# PCOD9330282 Si02
#       5
#     8   8   8   8   8
#     4   9  18  33  57  86 118 146 190 248 299 346
#     4  10  20  34  58  89 114 153 198 248 290 355
#     4  11  21  35  57  86 119 152 198 245 295 347
#     4  10  20  35  57  89 116 150 202 242 295 355
#     4  11  21  35  59  85 120 156 194 244 299 347
#
# _framework density 18.266594000000001
#
# number of rings (size 3 to 8) (size 9 to 14) (size 15 to 20)
#    0.000    1.800    4.000    1.200    2.800    0.000 
#    0.000    1.000    0.000   12.600    0.000    0.000 
#    0.000    0.000    0.000    0.000    0.000    0.000 
#
# Total GULP energy -111573.637406 kJ/mol
# GULP energy per Si atom -5578.681870 kJ/mol
# Density = 1.822502 g / cm^3
# Si number density = 18.266594 Si / 1000 Ang^3
#
#
#
# Elastic Constant Matrix: (Units=GPa)
#
#
# Indices 1 2 3 4 5 6 
#
# 1 115.8976 34.9517 42.3811 0.0000 0.0000 0.0000
# 2 34.9517 83.0987 11.4737 0.0000 0.0000 0.0000
# 3 42.3811 11.4737 74.4536 0.0000 0.0000 0.0000
# 4 0.0000 0.0000 0.0000 16.5325 0.0000 0.0000
# 5 0.0000 0.0000 0.0000 0.0000 27.4644 0.0000
# 6 0.0000 0.0000 0.0000 0.0000 0.0000 14.8065
#
#
#
# Elastic Compliance Matrix: (Units=1/GPa)
#
#
# Indices 1 2 3 4 5 6 
#
# 1 0.012219 -0.004270 -0.006297 0.000000 0.000000 0.000000
# 2 -0.004270 0.013788 0.000306 0.000000 0.000000 0.000000
# 3 -0.006297 0.000306 0.016969 0.000000 0.000000 0.000000
# 4 0.000000 0.000000 0.000000 0.060487 0.000000 0.000000
# 5 0.000000 0.000000 0.000000 0.000000 0.036411 0.000000
# 6 0.000000 0.000000 0.000000 0.000000 0.000000 0.067538
#
#
# Mechanical properties :
#
#
# Convention : Reuss Voigt Hill
#
# Bulk Modulus (GPa) = 44.53876 50.11811 47.32844
# Shear Modulus (GPa) = 21.23893 24.07027 22.65460
#
# Velocity S-wave (km/s) = 3.41357 3.63398 3.52550
# Velocity P-wave (km/s) = 6.32235 6.71598 6.52214
#
# Compressibility (1/GPa) = 0.02245235
#
# Stress axis : x y z
#
# Youngs Moduli (GPa) = 81.84169 72.52918 58.93230
#
# Poissons Ratio (x) = 0.30968 0.37111
# Poissons Ratio (y) = 0.34945 -0.01802
# Poissons Ratio (z) = 0.51538 -0.02218
#
# Static dielectric constant tensor:
#      x y z
#    x 1.632950 0.000000 0.000000 
#    y 0.000000 1.630800 0.000000 
#    z 0.000000 0.000000 1.620450 
# 
# From -- ./inp_files/8173.got.cif
#   From: 2010.05.17/outbox.cif.g08.bks.cpg/sg23_5_cif.got.tgz:8173.got - 2010.06.04 12:02:01.
