data_PCOD9330329
_publ_section_title
;
Structure prediction by ZEFSAII (Michael W. Deem and Ramdas Pophale) SiO2 
 PCOD9330329
Probable space group: I 2 2 2
;
_chemical_formula_sum "Si O2"
_cell_formula_units_Z 48
_cell_length_a 21.266459
_cell_length_b 14.452830
_cell_length_c 7.167359
_cell_angle_alpha 90.000000
_cell_angle_beta 90.000000
_cell_angle_gamma 90.000000
_cell_volume 2202.963165
_symmetry_space_group_name_H-M "I 2 2 2"
_symmetry_group_IT_number 23
_symmetry_cell_setting 'orthorhombic'
loop_
_space_group_symop_operation_xyz
x,y,z
-x,-y,z
x,-y,-z
-x,y,-z
1/2+x,1/2+y,1/2+z
1/2-x,1/2-y,1/2+z
1/2+x,1/2-y,1/2-z
1/2-x,1/2+y,1/2-z
loop_
_atom_site_type_symbol
_atom_site_label
_atom_site_fract_x
_atom_site_fract_y
_atom_site_fract_z
Si Si1 0.249136 0.757070 0.733081
Si Si2 0.890741 0.778753 0.879614
Si Si3 0.427535 0.480478 0.279008
Si Si4 0.797005 0.395990 0.544108
Si Si5 0.065706 0.330975 0.557465
Si Si6 0.116346 0.828138 0.686451
O O1 0.318820 0.750674 0.650724
O O2 0.223651 0.650162 0.741583
O O3 0.260846 0.826680 0.904415
O O4 0.188177 0.803373 0.636665
O O5 0.930478 0.699699 0.774030
O O6 0.904945 0.875057 0.770976
O O7 0.898976 0.797020 0.099404
O O8 0.500000 0.500000 0.229633
O O9 0.421663 0.500000 0.500000
O O10 0.391445 0.562372 0.175699
O O11 0.777155 0.500000 0.500000
O O12 0.871361 0.385842 0.503167
O O13 0.072347 0.235460 0.439881
O O14 0.000000 0.375425 0.500000
#
# Coordination Sequence:
#
# PCOD9330329 Si02
#       6
#     8   8   8   8   8   8
#     4  10  20  36  60  90 120 160 212 244 318 384
#     4  10  20  35  57  82 119 159 198 258 310 372
#     4   9  18  31  53  85 114 157 203 241 315 380
#     4  10  22  39  64  90 124 163 203 268 315 372
#     4  10  22  38  58  86 116 158 209 249 305 369
#     4  10  20  35  57  82 119 159 198 258 310 372
#
# _framework density 21.788833
#
# number of rings (size 3 to 8) (size 9 to 14) (size 15 to 20)
#    0.000    2.167    1.667    1.000    2.333    3.000 
#    0.000    2.500    0.000    0.000    0.000    4.667 
#    0.000    0.000    0.000    0.000    0.000    0.000 
#
# Total GULP energy -133715.545786 kJ/mol
# GULP energy per Si atom -5571.481074 kJ/mol
# Density = 2.173924 g / cm^3
# Si number density = 21.788833 Si / 1000 Ang^3
#
#
#
# Elastic Constant Matrix: (Units=GPa)
#
#
# Indices 1 2 3 4 5 6 
#
# 1 88.6498 24.1536 -0.7891 0.0000 0.0000 0.0000
# 2 24.1536 115.0532 35.4455 0.0000 0.0000 0.0000
# 3 -0.7891 35.4455 71.9524 0.0000 0.0000 0.0000
# 4 0.0000 0.0000 0.0000 16.7834 0.0000 0.0000
# 5 0.0000 0.0000 0.0000 0.0000 24.5220 0.0000
# 6 0.0000 0.0000 0.0000 0.0000 0.0000 7.0558
#
#
#
# Elastic Compliance Matrix: (Units=1/GPa)
#
#
# Indices 1 2 3 4 5 6 
#
# 1 0.012126 -0.003049 0.001635 0.000000 0.000000 0.000000
# 2 -0.003049 0.011014 -0.005459 0.000000 0.000000 0.000000
# 3 0.001635 -0.005459 0.016605 0.000000 0.000000 0.000000
# 4 0.000000 0.000000 0.000000 0.059583 0.000000 0.000000
# 5 0.000000 0.000000 0.000000 0.000000 0.040780 0.000000
# 6 0.000000 0.000000 0.000000 0.000000 0.000000 0.141727
#
#
# Mechanical properties :
#
#
# Convention : Reuss Voigt Hill
#
# Bulk Modulus (GPa) = 38.46423 43.69727 41.08075
# Shear Modulus (GPa) = 16.43407 24.12861 20.28134
#
# Velocity S-wave (km/s) = 2.74933 3.33135 3.05423
# Velocity P-wave (km/s) = 5.26972 5.90725 5.59757
#
# Compressibility (1/GPa) = 0.02599818
#
# Stress axis : x y z
#
# Youngs Moduli (GPa) = 82.46929 90.79672 60.22186
#
# Poissons Ratio (x) = 0.27687 -0.09847
# Poissons Ratio (y) = 0.25148 0.32875
# Poissons Ratio (z) = -0.13485 0.49566
#
# Static dielectric constant tensor:
#      x y z
#    x 1.798210 0.000000 0.000000 
#    y 0.000000 1.806430 0.000000 
#    z 0.000000 0.000000 2.106670 
# 
# From -- ./inp_files/11915.got.cif
#   From: 2010.05.17/outbox.cif.g08.bks.cpg/sg23_6_cif.got.tgz:11915.got - 2010.06.04 12:02:01.
