data_PCOD9330024
_publ_section_title
;
Structure prediction by ZEFSAII (Michael W. Deem and Ramdas Pophale) SiO2 
 PCOD9330024
Probable space group: I 2 2 2
;
_chemical_formula_sum "Si O2"
_cell_formula_units_Z 58
_cell_length_a 12.535321
_cell_length_b 14.067043
_cell_length_c 17.020123
_cell_angle_alpha 90.000000
_cell_angle_beta 90.000000
_cell_angle_gamma 90.000000
_cell_volume 3001.241679
_symmetry_space_group_name_H-M "I 2 2 2"
_symmetry_group_IT_number 23
_symmetry_cell_setting 'orthorhombic'
loop_
_space_group_symop_operation_xyz
x,y,z
-x,-y,z
x,-y,-z
-x,y,-z
1/2+x,1/2+y,1/2+z
1/2-x,1/2-y,1/2+z
1/2+x,1/2-y,1/2-z
1/2-x,1/2+y,1/2-z
loop_
_atom_site_type_symbol
_atom_site_label
_atom_site_fract_x
_atom_site_fract_y
_atom_site_fract_z
Si Si1 0.839927 0.107484 0.485104
Si Si2 0.084759 0.771867 0.631608
Si Si3 0.610280 0.161380 0.529990
Si Si4 0.500000 0.500000 0.500000
Si Si5 0.353611 0.654800 0.422285
Si Si6 0.361113 0.222601 0.131281
Si Si7 0.492885 0.386681 0.719597
Si Si8 0.178423 0.754084 0.187346
O O1 0.893434 0.174401 0.550561
O O2 0.714496 0.105310 0.504410
O O3 0.849639 0.169221 0.404704
O O4 0.879282 0.000000 0.500000
O O5 0.040405 0.847300 0.695364
O O6 0.198982 0.733446 0.661229
O O7 0.986169 0.699535 0.622235
O O8 0.500000 0.117901 0.500000
O O9 0.618591 0.260762 0.482039
O O10 0.623174 0.185796 0.622181
O O11 0.418423 0.564238 0.451613
O O12 0.225919 0.658537 0.413697
O O13 0.406223 0.664273 0.336695
O O14 0.331339 0.218035 0.223282
O O15 0.500000 0.500000 0.719113
O O16 0.607231 0.348809 0.689834
#
# Coordination Sequence:
#
# PCOD9330024 Si02
#       8
#     8   8   8   2   8   8   8   8
#     4  10  23  37  55  87 118 157 199 239 291 344
#     4  10  22  38  59  84 119 160 191 239 285 362
#     4  10  19  36  59  84 122 149 192 243 291 360
#     4  12  20  32  64  92 120 144 194 268 286 340
#     4  11  20  36  56  93 116 150 192 245 302 339
#     4  10  22  37  59  82 122 157 194 241 288 362
#     4  11  21  34  60  93 116 144 195 251 292 336
#     4  10  20  37  58  89 113 154 194 235 297 350
#
# _framework density 19.325334999999999
#
# number of rings (size 3 to 8) (size 9 to 14) (size 15 to 20)
#    0.000    1.655    4.138    0.414    3.862    0.828 
#    0.000    0.000    0.000    0.828    7.172    0.000 
#    0.000    0.000    0.000    0.000    0.000    0.000 
#
# Total GULP energy -161546.927142 kJ/mol
# GULP energy per Si atom -5570.583695 kJ/mol
# Density = 1.928135 g / cm^3
# Si number density = 19.325335 Si / 1000 Ang^3
#
#
#
# Elastic Constant Matrix: (Units=GPa)
#
#
# Indices 1 2 3 4 5 6 
#
# 1 197.9481 34.4876 34.2053 0.0000 0.0000 0.0000
# 2 34.4876 52.9869 13.9877 0.0000 0.0000 0.0000
# 3 34.2053 13.9877 113.9259 0.0000 0.0000 0.0000
# 4 0.0000 0.0000 0.0000 11.4613 0.0000 0.0000
# 5 0.0000 0.0000 0.0000 0.0000 34.2879 0.0000
# 6 0.0000 0.0000 0.0000 0.0000 0.0000 16.2842
#
#
#
# Elastic Compliance Matrix: (Units=1/GPa)
#
#
# Indices 1 2 3 4 5 6 
#
# 1 0.005890 -0.003479 -0.001341 0.000000 0.000000 0.000000
# 2 -0.003479 0.021560 -0.001602 0.000000 0.000000 0.000000
# 3 -0.001341 -0.001602 0.009377 0.000000 0.000000 0.000000
# 4 0.000000 0.000000 0.000000 0.087250 0.000000 0.000000
# 5 0.000000 0.000000 0.000000 0.000000 0.029165 0.000000
# 6 0.000000 0.000000 0.000000 0.000000 0.000000 0.061409
#
#
# Mechanical properties :
#
#
# Convention : Reuss Voigt Hill
#
# Bulk Modulus (GPa) = 41.69971 58.91358 50.30665
# Shear Modulus (GPa) = 21.23224 31.21870 26.22547
#
# Velocity S-wave (km/s) = 3.31822 4.02360 3.68781
# Velocity P-wave (km/s) = 6.02539 7.22061 6.64991
#
# Compressibility (1/GPa) = 0.02398098
#
# Stress axis : x y z
#
# Youngs Moduli (GPa) = 169.78535 46.38153 106.64321
#
# Poissons Ratio (x) = 0.16138 0.14303
# Poissons Ratio (y) = 0.59076 0.17089
# Poissons Ratio (z) = 0.22771 0.07433
#
# Static dielectric constant tensor:
#      x y z
#    x 1.736000 0.000000 0.000000 
#    y 0.000000 1.661900 0.000000 
#    z 0.000000 0.000000 1.745780 
# 
# From -- ./inp_files/24412.got.cif
#   From: 2010.05.17/outbox.cif.g08.bks.cpg/sg23_13_cif.got.tgz:24412.got - 2010.06.04 12:02:01.
