data_PCOD9330635
_publ_section_title
;
Structure prediction by ZEFSAII (Michael W. Deem and Ramdas Pophale) SiO2 
 PCOD9330635
Probable space group: I 2 2 2
;
_chemical_formula_sum "Si O2"
_cell_formula_units_Z 44
_cell_length_a 7.888872
_cell_length_b 18.984929
_cell_length_c 14.164183
_cell_angle_alpha 90.000000
_cell_angle_beta 90.000000
_cell_angle_gamma 90.000000
_cell_volume 2121.365082
_symmetry_space_group_name_H-M "I 2 2 2"
_symmetry_group_IT_number 23
_symmetry_cell_setting 'orthorhombic'
loop_
_space_group_symop_operation_xyz
x,y,z
-x,-y,z
x,-y,-z
-x,y,-z
1/2+x,1/2+y,1/2+z
1/2-x,1/2-y,1/2+z
1/2+x,1/2-y,1/2-z
1/2-x,1/2+y,1/2-z
loop_
_atom_site_type_symbol
_atom_site_label
_atom_site_fract_x
_atom_site_fract_y
_atom_site_fract_z
Si Si1 0.500000 0.500000 0.000000
Si Si2 0.500000 0.500000 0.500000
Si Si3 0.500000 0.279958 0.500000
Si Si4 0.990724 0.374398 0.611174
Si Si5 0.190688 0.918036 0.662478
Si Si6 0.160721 0.226423 0.433492
Si Si7 0.879482 0.888438 0.140950
Si Si8 0.000000 0.500000 0.255983
O O1 0.612032 0.546499 0.929422
O O2 0.386808 0.451934 0.566951
O O3 0.326726 0.237820 0.496898
O O4 0.493754 0.329056 0.592950
O O5 0.185128 0.362492 0.643600
O O6 0.000000 0.393315 0.500000
O O7 0.889327 0.300969 0.614865
O O8 0.925434 0.438816 0.675186
O O9 0.208962 0.835865 0.637011
O O10 0.073046 0.915753 0.755939
O O11 0.357311 0.961418 0.693652
O O12 0.000000 0.208592 0.500000
#
# Coordination Sequence:
#
# PCOD9330635 Si02
#       8
#     2   2   4   8   8   8   8   4
#     4  12  26  46  68  82 140 196 230 316 348 432
#     4  10  22  36  62 102 144 172 234 294 362 468
#     4  11  22  41  70 103 138 181 232 304 374 427
#     4  10  20  39  70 102 149 181 223 301 378 443
#     4  11  26  46  67 101 139 191 251 298 371 445
#     4  11  23  45  70 100 142 196 241 298 370 448
#     4  10  22  38  65 104 135 182 235 293 371 441
#     4  10  25  41  70 112 136 184 252 306 372 450
#
# _framework density 20.741361000000001
#
# number of rings (size 3 to 8) (size 9 to 14) (size 15 to 20)
#    0.000    1.455    4.545    0.818    5.091    6.182 
#    0.000    0.000    0.000    0.000    0.000    0.000 
#    0.000    0.000    0.000    0.000    0.000    0.000 
#
# Total GULP energy -122780.399684 kJ/mol
# GULP energy per Si atom -5580.927258 kJ/mol
# Density = 2.069415 g / cm^3
# Si number density = 20.741361 Si / 1000 Ang^3
#
#
#
# Elastic Constant Matrix: (Units=GPa)
#
#
# Indices 1 2 3 4 5 6 
#
# 1 96.2036 49.1559 36.0699 0.0000 0.0000 0.0000
# 2 49.1559 138.2104 68.2679 0.0000 0.0000 0.0000
# 3 36.0699 68.2679 149.6518 0.0000 0.0000 0.0000
# 4 0.0000 0.0000 0.0000 30.0579 0.0000 0.0000
# 5 0.0000 0.0000 0.0000 0.0000 27.7231 0.0000
# 6 0.0000 0.0000 0.0000 0.0000 0.0000 14.4146
#
#
#
# Elastic Compliance Matrix: (Units=1/GPa)
#
#
# Indices 1 2 3 4 5 6 
#
# 1 0.012900 -0.003940 -0.001312 0.000000 0.000000 0.000000
# 2 -0.003940 0.010543 -0.003860 0.000000 0.000000 0.000000
# 3 -0.001312 -0.003860 0.008759 0.000000 0.000000 0.000000
# 4 0.000000 0.000000 0.000000 0.033269 0.000000 0.000000
# 5 0.000000 0.000000 0.000000 0.000000 0.036071 0.000000
# 6 0.000000 0.000000 0.000000 0.000000 0.000000 0.069374
#
#
# Mechanical properties :
#
#
# Convention : Reuss Voigt Hill
#
# Bulk Modulus (GPa) = 71.53795 76.78370 74.16082
# Shear Modulus (GPa) = 25.79988 29.81058 27.80523
#
# Velocity S-wave (km/s) = 3.53070 3.79522 3.66535
# Velocity P-wave (km/s) = 7.15447 7.50366 7.33115
#
# Compressibility (1/GPa) = 0.01397859
#
# Stress axis : x y z
#
# Youngs Moduli (GPa) = 77.52188 94.84787 114.16568
#
# Poissons Ratio (x) = 0.37369 0.14977
# Poissons Ratio (y) = 0.30543 0.44068
# Poissons Ratio (z) = 0.10170 0.36611
#
# Static dielectric constant tensor:
#      x y z
#    x 1.757530 0.000000 0.000000 
#    y 0.000000 1.802110 0.000000 
#    z 0.000000 0.000000 1.757110 
# 
# From -- ./inp_files/19983.got.cif
#   From: 2010.05.17/outbox.cif.g08.bks.cpg/sg23_10_cif.got.tgz:19983.got - 2010.06.04 12:02:01.
