data_PCOD9330689
_publ_section_title
;
Structure prediction by ZEFSAII (Michael W. Deem and Ramdas Pophale) SiO2 
 PCOD9330689
Probable space group: I 2 2 2
;
_chemical_formula_sum "Si O2"
_cell_formula_units_Z 38
_cell_length_a 10.784922
_cell_length_b 16.329597
_cell_length_c 8.906704
_cell_angle_alpha 90.000000
_cell_angle_beta 90.000000
_cell_angle_gamma 90.000000
_cell_volume 1568.590191
_symmetry_space_group_name_H-M "I 2 2 2"
_symmetry_group_IT_number 23
_symmetry_cell_setting 'orthorhombic'
loop_
_space_group_symop_operation_xyz
x,y,z
-x,-y,z
x,-y,-z
-x,y,-z
1/2+x,1/2+y,1/2+z
1/2-x,1/2-y,1/2+z
1/2+x,1/2-y,1/2-z
1/2-x,1/2+y,1/2-z
loop_
_atom_site_type_symbol
_atom_site_label
_atom_site_fract_x
_atom_site_fract_y
_atom_site_fract_z
Si Si1 0.369639 0.767640 0.945965
Si Si2 0.500000 0.000000 0.500000
Si Si3 0.000000 0.769771 0.000000
Si Si4 0.356289 0.482089 0.823364
Si Si5 0.651575 0.134174 0.661043
Si Si6 0.807306 0.852513 0.809703
O O1 0.399431 0.834929 0.818936
O O2 0.304098 0.697788 0.845761
O O3 0.500000 0.732564 0.000000
O O4 0.293045 0.812961 0.076744
O O5 0.586025 0.053777 0.604641
O O6 0.892563 0.701967 0.960582
O O7 0.945319 0.833990 0.877169
O O8 0.500000 0.500000 0.789109
O O9 0.294433 0.391982 0.808149
O O10 0.288005 0.552145 0.725317
O O11 0.343208 0.500000 0.000000
#
# Coordination Sequence:
#
# PCOD9330689 Si02
#       6
#     8   2   4   8   8   8
#     4  11  29  47  78 113 155 201 277 332 402 485
#     4  10  20  40  80 100 154 204 264 316 400 476
#     4   9  24  47  77 108 149 210 272 319 388 479
#     4  11  27  46  75 109 158 206 262 321 413 483
#     4  10  23  45  75 109 151 206 264 321 403 485
#     4  11  28  47  80 110 159 201 269 334 406 478
#
# _framework density 24.225573000000001
#
# number of rings (size 3 to 8) (size 9 to 14) (size 15 to 20)
#    0.000    1.474    1.053    0.000   20.632    0.842 
#    0.000    0.000    0.000    0.000    0.000    0.000 
#    0.000    0.000    0.000    0.000    0.000    0.000 
#
# Total GULP energy -105806.580262 kJ/mol
# GULP energy per Si atom -5568.767382 kJ/mol
# Density = 2.417043 g / cm^3
# Si number density = 24.225573 Si / 1000 Ang^3
#
#
#
# Elastic Constant Matrix: (Units=GPa)
#
#
# Indices 1 2 3 4 5 6 
#
# 1 102.3141 24.5098 67.9845 0.0000 0.0000 0.0000
# 2 24.5098 75.0951 11.7849 0.0000 0.0000 0.0000
# 3 67.9845 11.7849 100.9833 0.0001 0.0001 -0.0001
# 4 0.0000 0.0000 0.0001 41.8646 0.0000 0.0000
# 5 0.0000 0.0000 0.0001 0.0000 35.6589 0.0000
# 6 0.0000 0.0000 -0.0001 0.0000 0.0000 18.2651
#
#
#
# Elastic Compliance Matrix: (Units=1/GPa)
#
#
# Indices 1 2 3 4 5 6 
#
# 1 0.018933 -0.004257 -0.012249 0.000000 0.000000 0.000000
# 2 -0.004257 0.014522 0.001171 0.000000 0.000000 0.000000
# 3 -0.012249 0.001171 0.018012 0.000000 0.000000 0.000000
# 4 0.000000 0.000000 0.000000 0.023887 0.000000 0.000000
# 5 0.000000 0.000000 0.000000 0.000000 0.028043 0.000000
# 6 0.000000 0.000000 0.000000 0.000000 0.000000 0.054749
#
#
# Mechanical properties :
#
#
# Convention : Reuss Voigt Hill
#
# Bulk Modulus (GPa) = 48.08346 54.10564 51.09455
# Shear Modulus (GPa) = 25.54287 30.76529 28.15408
#
# Velocity S-wave (km/s) = 3.25064 3.56750 3.41275
# Velocity P-wave (km/s) = 5.82925 6.27312 6.05525
#
# Compressibility (1/GPa) = 0.02079717
#
# Stress axis : x y z
#
# Youngs Moduli (GPa) = 52.81809 68.86064 55.51702
#
# Poissons Ratio (x) = 0.29314 0.68005
# Poissons Ratio (y) = 0.22485 -0.06502
# Poissons Ratio (z) = 0.64699 -0.08065
#
# Static dielectric constant tensor:
#      x y z
#    x 2.053990 0.000000 0.000000 
#    y 0.000000 1.966380 0.000000 
#    z 0.000000 0.000000 1.885840 
# 
# From -- ./inp_files/8247.got.cif
#   From: 2010.05.17/outbox.cif.g08.bks.cpg/sg23_5_cif.got.tgz:8247.got - 2010.06.04 12:02:01.
