data_PCOD9330911
_publ_section_title
;
Structure prediction by ZEFSAII (Michael W. Deem and Ramdas Pophale) SiO2 
 PCOD9330911
Probable space group: I 2 2 2
;
_chemical_formula_sum "Si O2"
_cell_formula_units_Z 64
_cell_length_a 15.960802
_cell_length_b 17.943606
_cell_length_c 11.417176
_cell_angle_alpha 90.000000
_cell_angle_beta 90.000000
_cell_angle_gamma 90.000000
_cell_volume 3269.814614
_symmetry_space_group_name_H-M "I 2 2 2"
_symmetry_group_IT_number 23
_symmetry_cell_setting 'orthorhombic'
loop_
_space_group_symop_operation_xyz
x,y,z
-x,-y,z
x,-y,-z
-x,y,-z
1/2+x,1/2+y,1/2+z
1/2-x,1/2-y,1/2+z
1/2+x,1/2-y,1/2-z
1/2-x,1/2+y,1/2-z
loop_
_atom_site_type_symbol
_atom_site_label
_atom_site_fract_x
_atom_site_fract_y
_atom_site_fract_z
Si Si1 0.408092 0.184525 0.866876
Si Si2 0.780355 0.560327 0.304976
Si Si3 0.674140 0.569495 0.085746
Si Si4 0.362924 0.343546 0.863805
Si Si5 0.044768 0.129367 0.742526
Si Si6 0.247825 0.891824 0.829182
Si Si7 0.377268 0.414014 0.467479
Si Si8 0.406662 0.212508 0.145147
O O1 0.358497 0.109699 0.842489
O O2 0.358478 0.257531 0.821898
O O3 0.502417 0.179301 0.818213
O O4 0.412200 0.206820 0.003969
O O5 0.755690 0.571526 0.168717
O O6 0.786441 0.474184 0.343843
O O7 0.700721 0.589233 0.377552
O O8 0.596955 0.565128 0.176832
O O9 0.675570 0.500000 0.000000
O O10 0.654572 0.639222 0.999764
O O11 0.454843 0.367407 0.819795
O O12 0.294276 0.390586 0.796648
O O13 0.048660 0.117542 0.883195
O O14 0.090441 0.207039 0.707649
O O15 0.322081 0.832313 0.830164
O O16 0.169168 0.879304 0.918377
O O17 0.395821 0.500000 0.500000
#
# Coordination Sequence:
#
# PCOD9330911 Si02
#       8
#     8   8   8   8   8   8   8   8
#     4  10  21  39  61  89 122 158 201 255 315 365
#     4  10  21  39  60  87 125 158 202 256 312 369
#     4  11  21  39  59  89 120 157 205 255 303 368
#     4  11  23  37  60  92 121 161 208 251 307 371
#     4  10  22  40  60  88 126 163 204 257 307 373
#     4  11  22  37  59  90 123 159 206 256 302 378
#     4   9  20  38  56  84 124 165 202 245 309 371
#     4  10  21  37  63  91 119 155 205 259 306 369
#
# _framework density 19.572976000000001
#
# number of rings (size 3 to 8) (size 9 to 14) (size 15 to 20)
#    0.000    1.750    3.750    0.375    3.500    2.000 
#    0.000    3.125    0.000    2.250    0.000    0.000 
#    0.000    0.000    0.000    0.000    0.000    0.000 
#
# Total GULP energy -178218.511803 kJ/mol
# GULP energy per Si atom -5569.328494 kJ/mol
# Density = 1.952843 g / cm^3
# Si number density = 19.572976 Si / 1000 Ang^3
#
#
#
# Elastic Constant Matrix: (Units=GPa)
#
#
# Indices 1 2 3 4 5 6 
#
# 1 23.3157 17.2245 15.3556 0.0000 0.0000 0.0000
# 2 17.2245 50.0576 15.0581 0.0000 0.0000 0.0000
# 3 15.3556 15.0581 100.0394 0.0000 0.0000 0.0000
# 4 0.0000 0.0000 0.0000 24.7119 0.0000 0.0000
# 5 0.0000 0.0000 0.0000 0.0000 13.3980 0.0000
# 6 0.0000 0.0000 0.0000 0.0000 0.0000 15.9809
#
#
#
# Elastic Compliance Matrix: (Units=1/GPa)
#
#
# Indices 1 2 3 4 5 6 
#
# 1 0.061331 -0.019138 -0.006533 0.000000 0.000000 0.000000
# 2 -0.019138 0.026896 -0.001111 0.000000 0.000000 0.000000
# 3 -0.006533 -0.001111 0.011166 0.000000 0.000000 0.000000
# 4 0.000000 0.000000 0.000000 0.040466 0.000000 0.000000
# 5 0.000000 0.000000 0.000000 0.000000 0.074638 0.000000
# 6 0.000000 0.000000 0.000000 0.000000 0.000000 0.062575
#
#
# Mechanical properties :
#
#
# Convention : Reuss Voigt Hill
#
# Bulk Modulus (GPa) = 21.82043 29.85435 25.83739
# Shear Modulus (GPa) = 14.45450 19.20312 16.82881
#
# Velocity S-wave (km/s) = 2.72047 3.13566 2.93541
# Velocity P-wave (km/s) = 4.58698 5.32877 4.97173
#
# Compressibility (1/GPa) = 0.04582860
#
# Stress axis : x y z
#
# Youngs Moduli (GPa) = 16.30506 37.17964 89.55675
#
# Poissons Ratio (x) = 0.71155 0.58510
# Poissons Ratio (y) = 0.31205 0.09949
# Poissons Ratio (z) = 0.10653 0.04130
#
# Static dielectric constant tensor:
#      x y z
#    x 1.704950 0.000000 0.000000 
#    y 0.000000 1.732300 0.000000 
#    z 0.000000 0.000000 1.756950 
# 
# From -- ./inp_files/16975.got.cif
#   From: 2010.05.17/outbox.cif.g08.bks.cpg/sg23_9_cif.got.tgz:16975.got - 2010.06.04 12:02:01.
