data_PCOD9330292
_publ_section_title
;
Structure prediction by ZEFSAII (Michael W. Deem and Ramdas Pophale) SiO2 
 PCOD9330292
Probable space group: I 2 2 2
;
_chemical_formula_sum "Si O2"
_cell_formula_units_Z 48
_cell_length_a 7.645620
_cell_length_b 14.755251
_cell_length_c 18.244372
_cell_angle_alpha 90.000000
_cell_angle_beta 90.000000
_cell_angle_gamma 90.000000
_cell_volume 2058.203107
_symmetry_space_group_name_H-M "I 2 2 2"
_symmetry_group_IT_number 23
_symmetry_cell_setting 'orthorhombic'
loop_
_space_group_symop_operation_xyz
x,y,z
-x,-y,z
x,-y,-z
-x,y,-z
1/2+x,1/2+y,1/2+z
1/2-x,1/2-y,1/2+z
1/2+x,1/2-y,1/2-z
1/2-x,1/2+y,1/2-z
loop_
_atom_site_type_symbol
_atom_site_label
_atom_site_fract_x
_atom_site_fract_y
_atom_site_fract_z
Si Si1 0.805711 0.454600 0.228447
Si Si2 0.111902 0.781683 0.768433
Si Si3 0.707780 0.400264 0.518890
Si Si4 0.277521 0.622639 0.691102
Si Si5 0.708177 0.972004 0.576851
Si Si6 0.154276 0.734103 0.937677
O O1 0.766903 0.350281 0.244691
O O2 0.726208 0.516147 0.292089
O O3 0.725499 0.479063 0.149430
O O4 0.000000 0.500000 0.225582
O O5 0.128072 0.689645 0.722183
O O6 0.102893 0.763212 0.855583
O O7 0.937049 0.839738 0.760014
O O8 0.780798 0.500000 0.500000
O O9 0.500000 0.405460 0.500000
O O10 0.721599 0.373292 0.603583
O O11 0.771292 0.315708 0.469903
O O12 0.729092 0.864637 0.577426
O O13 0.500000 0.000000 0.574664
O O14 0.787200 0.000000 0.500000
O O15 0.000000 0.720903 0.000000
#
# Coordination Sequence:
#
# PCOD9330292 Si02
#       6
#     8   8   8   8   8   8
#     4  11  25  42  65  98 144 179 232 289 358 418
#     4  12  25  40  69 101 143 179 227 294 354 415
#     4  10  21  36  66  96 128 176 247 283 322 406
#     4  12  24  42  66 107 136 179 233 291 353 411
#     4  10  20  34  62  93 127 169 230 286 334 405
#     4  11  19  38  64  99 126 173 243 279 320 419
#
# _framework density 23.321314999999998
#
# number of rings (size 3 to 8) (size 9 to 14) (size 15 to 20)
#    0.000    1.000    6.667    2.500    7.000    0.000 
#    0.000    0.000    0.000   13.500    0.000    0.000 
#    0.000    0.000    0.000    0.000    0.000    0.000 
#
# Total GULP energy -133820.586470 kJ/mol
# GULP energy per Si atom -5575.857770 kJ/mol
# Density = 2.326823 g / cm^3
# Si number density = 23.321315 Si / 1000 Ang^3
#
#
#
# Elastic Constant Matrix: (Units=GPa)
#
#
# Indices 1 2 3 4 5 6 
#
# 1 42.1538 -3.3301 -4.8573 0.0000 0.0000 0.0000
# 2 -3.3301 133.9367 17.9454 0.0000 0.0000 0.0000
# 3 -4.8573 17.9454 148.4141 0.0000 0.0000 0.0000
# 4 0.0000 0.0000 0.0000 54.9771 0.0000 0.0000
# 5 0.0000 0.0000 0.0000 0.0000 12.5157 0.0000
# 6 0.0000 0.0000 0.0000 0.0000 0.0000 3.4582
#
#
#
# Elastic Compliance Matrix: (Units=1/GPa)
#
#
# Indices 1 2 3 4 5 6 
#
# 1 0.023845 0.000496 0.000720 0.000000 0.000000 0.000000
# 2 0.000496 0.007599 -0.000903 0.000000 0.000000 0.000000
# 3 0.000720 -0.000903 0.006871 0.000000 0.000000 0.000000
# 4 0.000000 0.000000 0.000000 0.018189 0.000000 0.000000
# 5 0.000000 0.000000 0.000000 0.000000 0.079899 0.000000
# 6 0.000000 0.000000 0.000000 0.000000 0.000000 0.289171
#
#
# Mechanical properties :
#
#
# Convention : Reuss Voigt Hill
#
# Bulk Modulus (GPa) = 25.67850 38.22454 31.95152
# Shear Modulus (GPa) = 11.41742 35.17330 23.29536
#
# Velocity S-wave (km/s) = 2.21502 3.88777 3.16395
# Velocity P-wave (km/s) = 4.19242 6.04806 5.20362
#
# Compressibility (1/GPa) = 0.03894309
#
# Stress axis : x y z
#
# Youngs Moduli (GPa) = 41.93779 131.58771 145.54720
#
# Poissons Ratio (x) = -0.06531 -0.10485
# Poissons Ratio (y) = -0.02082 0.13138
# Poissons Ratio (z) = -0.03021 0.11878
#
# Static dielectric constant tensor:
#      x y z
#    x 2.084030 0.000000 0.000000 
#    y 0.000000 1.905620 0.000000 
#    z 0.000000 0.000000 1.854610 
# 
# From -- ./inp_files/23745.got.cif
#   From: 2010.05.17/outbox.cif.g08.bks.cpg/sg23_12_cif.got.tgz:23745.got - 2010.06.04 12:02:01.
