data_PCOD9330496
_publ_section_title
;
Structure prediction by ZEFSAII (Michael W. Deem and Ramdas Pophale) SiO2 
 PCOD9330496
Probable space group: I 2 2 2
;
_chemical_formula_sum "Si O2"
_cell_formula_units_Z 56
_cell_length_a 14.577669
_cell_length_b 11.626302
_cell_length_c 16.195327
_cell_angle_alpha 90.000000
_cell_angle_beta 90.000000
_cell_angle_gamma 90.000000
_cell_volume 2744.854992
_symmetry_space_group_name_H-M "I 2 2 2"
_symmetry_group_IT_number 23
_symmetry_cell_setting 'orthorhombic'
loop_
_space_group_symop_operation_xyz
x,y,z
-x,-y,z
x,-y,-z
-x,y,-z
1/2+x,1/2+y,1/2+z
1/2-x,1/2-y,1/2+z
1/2+x,1/2-y,1/2-z
1/2-x,1/2+y,1/2-z
loop_
_atom_site_type_symbol
_atom_site_label
_atom_site_fract_x
_atom_site_fract_y
_atom_site_fract_z
Si Si1 0.203896 0.455072 0.906943
Si Si2 0.267942 0.588128 0.574734
Si Si3 0.650132 0.970967 0.767572
Si Si4 0.042132 0.128246 0.613731
Si Si5 0.017888 0.306902 0.743221
Si Si6 0.857481 0.803736 0.458095
Si Si7 0.440194 0.251039 0.417683
O O1 0.188971 0.533604 0.826511
O O2 0.298680 0.385735 0.898389
O O3 0.120881 0.364404 0.913647
O O4 0.206757 0.500000 0.000000
O O5 0.276519 0.500000 0.500000
O O6 0.224782 0.537562 0.659408
O O7 0.198121 0.686327 0.541324
O O8 0.366430 0.646919 0.589570
O O9 0.576787 0.869046 0.782517
O O10 0.593730 0.091721 0.768081
O O11 0.124889 0.140296 0.548571
O O12 0.058252 0.194387 0.698048
O O13 0.958619 0.204779 0.577854
O O14 0.000000 0.000000 0.617313
O O15 0.999891 0.264177 0.836182
O O16 0.500000 0.258932 0.500000
#
# Coordination Sequence:
#
# PCOD9330496 Si02
#       7
#     8   8   8   8   8   8   8
#     4  10  20  37  65  91 122 162 213 271 318 366
#     4  11  23  42  63  91 132 172 218 261 320 392
#     4  10  21  40  67  97 125 165 219 274 323 383
#     4  11  21  37  61  93 131 163 204 257 328 392
#     4  10  21  41  65  95 127 163 218 272 331 378
#     4  10  21  38  58  92 128 161 208 255 320 389
#     4  10  23  42  60  89 128 171 217 261 314 389
#
# _framework density 20.401807000000002
#
# number of rings (size 3 to 8) (size 9 to 14) (size 15 to 20)
#    0.000    1.714    1.429    3.429    0.000    4.000 
#    5.143    2.857    0.000    0.000    0.000    0.000 
#    0.000    0.000    0.000    0.000    0.000    0.000 
#
# Total GULP energy -156048.616801 kJ/mol
# GULP energy per Si atom -5573.164886 kJ/mol
# Density = 2.035537 g / cm^3
# Si number density = 20.401807 Si / 1000 Ang^3
#
#
#
# Elastic Constant Matrix: (Units=GPa)
#
#
# Indices 1 2 3 4 5 6 
#
# 1 65.6459 10.0462 31.8909 0.0000 0.0000 0.0000
# 2 10.0462 79.7494 42.8264 0.0000 0.0000 0.0000
# 3 31.8909 42.8264 138.3236 0.0000 0.0000 0.0000
# 4 0.0000 0.0000 0.0000 34.2521 0.0000 0.0000
# 5 0.0000 0.0000 0.0000 0.0000 19.4703 0.0000
# 6 0.0000 0.0000 0.0000 0.0000 0.0000 -3.0752
#
#
#
# Elastic Compliance Matrix: (Units=1/GPa)
#
#
# Indices 1 2 3 4 5 6 
#
# 1 0.017155 -0.000045 -0.003941 0.000000 0.000000 0.000000
# 2 -0.000045 0.015040 -0.004646 0.000000 0.000000 0.000000
# 3 -0.003941 -0.004646 0.009577 0.000000 0.000000 0.000000
# 4 0.000000 0.000000 0.000000 0.029195 0.000000 0.000000
# 5 0.000000 0.000000 0.000000 0.000000 0.051360 0.000000
# 6 0.000000 0.000000 0.000000 0.000000 0.000000 -0.325177
#
#
# Mechanical properties :
#
#
# Convention : Reuss Voigt Hill
#
# Bulk Modulus (GPa) = 40.80430 50.36067 45.58248
# Shear Modulus (GPa) = -28.18222 23.39312 -2.39455
#
# Velocity S-wave (km/s) = -3.72070 3.38985 -1.08455
# Velocity P-wave (km/s) = 1.25922 6.32925 4.56317
#
# Compressibility (1/GPa) = 0.02450722
#
# Stress axis : x y z
#
# Youngs Moduli (GPa) = 58.29290 66.48943 104.42086
#
# Poissons Ratio (x) = 0.00296 0.41155
# Poissons Ratio (y) = 0.00259 0.48517
# Poissons Ratio (z) = 0.22975 0.30893
#
# Static dielectric constant tensor:
#      x y z
#    x 1.723300 0.000000 0.000000 
#    y 0.000000 1.758140 0.000000 
#    z 0.000000 0.000000 1.821710 
# 
# From -- ./inp_files/21600.got.cif
#   From: 2010.05.17/outbox.cif.g08.bks.cpg/sg23_11_cif.got.tgz:21600.got - 2010.06.04 12:02:01.
