data_PCOD9330307
_publ_section_title
;
Structure prediction by ZEFSAII (Michael W. Deem and Ramdas Pophale) SiO2 
 PCOD9330307
Probable space group: I 2 2 2
;
_chemical_formula_sum "Si O2"
_cell_formula_units_Z 54
_cell_length_a 5.406955
_cell_length_b 26.355236
_cell_length_c 21.989269
_cell_angle_alpha 90.000000
_cell_angle_beta 90.000000
_cell_angle_gamma 90.000000
_cell_volume 3133.505467
_symmetry_space_group_name_H-M "I 2 2 2"
_symmetry_group_IT_number 23
_symmetry_cell_setting 'orthorhombic'
loop_
_space_group_symop_operation_xyz
x,y,z
-x,-y,z
x,-y,-z
-x,y,-z
1/2+x,1/2+y,1/2+z
1/2-x,1/2-y,1/2+z
1/2+x,1/2-y,1/2-z
1/2-x,1/2+y,1/2-z
loop_
_atom_site_type_symbol
_atom_site_label
_atom_site_fract_x
_atom_site_fract_y
_atom_site_fract_z
Si Si1 0.206927 0.775302 0.776670
Si Si2 0.292083 0.210246 0.617181
Si Si3 0.500000 0.326013 0.000000
Si Si4 0.822365 0.367336 0.102929
Si Si5 0.246235 0.028757 0.735378
Si Si6 0.317559 0.042510 0.594479
Si Si7 0.000000 0.000000 0.500000
Si Si8 0.520234 0.366959 0.789267
O O1 0.472250 0.758491 0.748194
O O2 0.221429 0.763781 0.848621
O O3 0.131936 0.832191 0.757656
O O4 0.570968 0.189057 0.614763
O O5 0.159323 0.204670 0.551613
O O6 0.166514 0.172067 0.666717
O O7 0.324316 0.360076 0.958583
O O8 0.672259 0.389104 0.160708
O O9 0.052411 0.403915 0.094468
O O10 0.255926 0.025577 0.662155
O O11 0.189808 0.089606 0.741333
O O12 0.500000 0.000000 0.756346
O O13 0.000000 0.000000 0.757713
O O14 0.500000 0.000000 0.568438
O O15 0.096235 0.040038 0.549395
#
# Coordination Sequence:
#
# PCOD9330307 Si02
#       8
#     8   8   4   8   8   8   2   8
#     4  10  20  35  58  82 103 131 175 234 280 326
#     4  10  20  35  53  75 102 134 178 227 276 332
#     4  10  24  35  52  71 102 142 176 227 282 337
#     4  11  21  38  50  69  97 133 180 228 277 327
#     4  11  22  37  53  70  97 131 173 220 278 329
#     4  11  24  37  45  59  88 125 179 231 276 312
#     4  12  26  38  40  58  84 128 182 240 274 304
#     4  10  20  36  56  74 101 131 176 234 281 322
#
# _framework density 17.233094999999999
#
# number of rings (size 3 to 8) (size 9 to 14) (size 15 to 20)
#    0.000    1.481    3.704    2.444    0.000    3.556 
#    2.667    0.000    0.000    0.000    0.000    0.000 
#    0.000    0.000    0.000    0.000    0.000    4.444 
#
# Total GULP energy -150428.355704 kJ/mol
# GULP energy per Si atom -5571.420582 kJ/mol
# Density = 1.719387 g / cm^3
# Si number density = 17.233095 Si / 1000 Ang^3
#
#
#
# Elastic Constant Matrix: (Units=GPa)
#
#
# Indices 1 2 3 4 5 6 
#
# 1 67.0163 15.7232 16.2308 0.0000 0.0000 0.0000
# 2 15.7232 60.9439 33.1116 0.0000 0.0000 0.0000
# 3 16.2308 33.1116 49.8316 0.0000 0.0000 0.0000
# 4 0.0000 0.0000 0.0000 -23.8483 0.0000 0.0000
# 5 0.0000 0.0000 0.0000 0.0000 23.0632 0.0000
# 6 0.0000 0.0000 0.0000 0.0000 0.0000 30.2730
#
#
#
# Elastic Compliance Matrix: (Units=1/GPa)
#
#
# Indices 1 2 3 4 5 6 
#
# 1 0.016366 -0.002075 -0.003951 0.000000 0.000000 0.000000
# 2 -0.002075 0.025942 -0.016562 0.000000 0.000000 0.000000
# 3 -0.003951 -0.016562 0.032359 0.000000 0.000000 0.000000
# 4 0.000000 0.000000 0.000000 -0.041932 0.000000 0.000000
# 5 0.000000 0.000000 0.000000 0.000000 0.043359 0.000000
# 6 0.000000 0.000000 0.000000 0.000000 0.000000 0.033033
#
#
# Mechanical properties :
#
#
# Convention : Reuss Voigt Hill
#
# Bulk Modulus (GPa) = 33.90983 34.21366 34.06175
# Shear Modulus (GPa) = 30.46275 13.41266 21.93771
#
# Velocity S-wave (km/s) = 4.20895 2.79284 3.57178
# Velocity P-wave (km/s) = 6.58333 5.50423 6.06782
#
# Compressibility (1/GPa) = 0.02948998
#
# Stress axis : x y z
#
# Youngs Moduli (GPa) = 61.10351 38.54718 30.90285
#
# Poissons Ratio (x) = 0.08000 0.12211
# Poissons Ratio (y) = 0.12681 0.51181
# Poissons Ratio (z) = 0.24145 0.63841
#
# Static dielectric constant tensor:
#      x y z
#    x 2.281950 0.000000 0.000000 
#    y 0.000000 1.663540 0.000000 
#    z 0.000000 0.000000 1.570660 
# 
# From -- ./inp_files/25796.got.cif
#   From: 2010.05.17/outbox.cif.g08.bks.cpg/sg23_13_cif.got.tgz:25796.got - 2010.06.04 12:02:01.
