data_PCOD9330448
_publ_section_title
;
Structure prediction by ZEFSAII (Michael W. Deem and Ramdas Pophale) SiO2 
 PCOD9330448
Probable space group: I 2 2 2
;
_chemical_formula_sum "Si O2"
_cell_formula_units_Z 52
_cell_length_a 15.441224
_cell_length_b 7.369518
_cell_length_c 22.744214
_cell_angle_alpha 90.000000
_cell_angle_beta 90.000000
_cell_angle_gamma 90.000000
_cell_volume 2588.163690
_symmetry_space_group_name_H-M "I 2 2 2"
_symmetry_group_IT_number 23
_symmetry_cell_setting 'orthorhombic'
loop_
_space_group_symop_operation_xyz
x,y,z
-x,-y,z
x,-y,-z
-x,y,-z
1/2+x,1/2+y,1/2+z
1/2-x,1/2-y,1/2+z
1/2+x,1/2-y,1/2-z
1/2-x,1/2+y,1/2-z
loop_
_atom_site_type_symbol
_atom_site_label
_atom_site_fract_x
_atom_site_fract_y
_atom_site_fract_z
Si Si1 0.000000 0.500000 0.284008
Si Si2 0.098653 0.853935 0.852751
Si Si3 0.964109 0.295882 0.060896
Si Si4 0.754693 0.736278 0.211948
Si Si5 0.820393 0.382278 0.668460
Si Si6 0.074500 0.884562 0.259411
Si Si7 0.292116 0.401053 0.439302
O O1 0.077966 0.414443 0.322144
O O2 0.040674 0.676523 0.250597
O O3 0.158200 0.692990 0.824746
O O4 0.009757 0.792721 0.882581
O O5 0.089671 0.997162 0.799457
O O6 0.152209 0.947073 0.904715
O O7 0.861408 0.263663 0.057199
O O8 0.000000 0.500000 0.062145
O O9 0.000000 0.213147 0.000000
O O10 0.782316 0.744619 0.280130
O O11 0.666128 0.624623 0.207996
O O12 0.723891 0.928580 0.187593
O O13 0.786659 0.344045 0.603227
O O14 0.000000 0.000000 0.291704
O O15 0.267088 0.500000 0.500000
#
# Coordination Sequence:
#
# PCOD9330448 Si02
#       7
#     4   8   8   8   8   8   8
#     4  10  24  40  65  92 133 164 218 278 314 400
#     4  11  22  39  61  90 128 172 210 256 324 389
#     4  11  24  40  59  93 128 165 218 263 312 390
#     4  10  20  37  57  86 127 161 211 253 316 394
#     4  10  22  38  59  90 123 164 214 265 324 386
#     4  11  21  40  61  90 130 175 212 260 331 391
#     4  11  21  39  64  85 122 172 213 261 326 381
#
# _framework density 20.091464999999999
#
# number of rings (size 3 to 8) (size 9 to 14) (size 15 to 20)
#    0.000    1.385    4.615    2.308    0.000    1.231 
#    9.692    0.385    0.000    0.000    0.000    0.000 
#    0.000    4.923    0.000    0.000    0.000    0.000 
#
# Total GULP energy -144889.955574 kJ/mol
# GULP energy per Si atom -5572.690599 kJ/mol
# Density = 2.004574 g / cm^3
# Si number density = 20.091465 Si / 1000 Ang^3
#
#
#
# Elastic Constant Matrix: (Units=GPa)
#
#
# Indices 1 2 3 4 5 6 
#
# 1 131.4719 17.8700 40.3081 0.0000 0.0000 0.0000
# 2 17.8700 73.6873 8.9405 0.0000 0.0000 0.0000
# 3 40.3081 8.9405 81.5593 0.0000 0.0000 0.0000
# 4 0.0000 0.0000 0.0000 21.7734 0.0000 0.0000
# 5 0.0000 0.0000 0.0000 0.0000 -3.8618 0.0000
# 6 0.0000 0.0000 0.0000 0.0000 0.0000 31.7846
#
#
#
# Elastic Compliance Matrix: (Units=1/GPa)
#
#
# Indices 1 2 3 4 5 6 
#
# 1 0.009169 -0.001696 -0.004346 0.000000 0.000000 0.000000
# 2 -0.001696 0.014068 -0.000704 0.000000 0.000000 0.000000
# 3 -0.004346 -0.000704 0.014486 0.000000 0.000000 0.000000
# 4 0.000000 0.000000 0.000000 0.045928 0.000000 0.000000
# 5 0.000000 0.000000 0.000000 0.000000 -0.258948 0.000000
# 6 0.000000 0.000000 0.000000 0.000000 0.000000 0.031462
#
#
# Mechanical properties :
#
#
# Convention : Reuss Voigt Hill
#
# Bulk Modulus (GPa) = 41.26905 46.77286 44.02095
# Shear Modulus (GPa) = -40.89392 24.57923 -8.15735
#
# Velocity S-wave (km/s) = -4.51642 3.50146 -2.01716
# Velocity P-wave (km/s) = 2.57143 6.29901 4.06603
#
# Compressibility (1/GPa) = 0.02423124
#
# Stress axis : x y z
#
# Youngs Moduli (GPa) = 109.06227 71.08518 69.03308
#
# Poissons Ratio (x) = 0.12059 0.29999
# Poissons Ratio (y) = 0.18501 0.04858
# Poissons Ratio (z) = 0.47394 0.05002
#
# Static dielectric constant tensor:
#      x y z
#    x 1.829200 0.000000 0.000000 
#    y 0.000000 1.946470 0.000000 
#    z 0.000000 0.000000 1.732060 
# 
# From -- ./inp_files/10301.got.cif
#   From: 2010.05.17/outbox.cif.g08.bks.cpg/sg23_6_cif.got.tgz:10301.got - 2010.06.04 12:02:01.
