data_PCOD9330986
_publ_section_title
;
Structure prediction by ZEFSAII (Michael W. Deem and Ramdas Pophale) SiO2 
 PCOD9330986
Probable space group: I 2 2 2
;
_chemical_formula_sum "Si O2"
_cell_formula_units_Z 58
_cell_length_a 29.437834
_cell_length_b 11.321514
_cell_length_c 8.145971
_cell_angle_alpha 90.000000
_cell_angle_beta 90.000000
_cell_angle_gamma 90.000000
_cell_volume 2714.896137
_symmetry_space_group_name_H-M "I 2 2 2"
_symmetry_group_IT_number 23
_symmetry_cell_setting 'orthorhombic'
loop_
_space_group_symop_operation_xyz
x,y,z
-x,-y,z
x,-y,-z
-x,y,-z
1/2+x,1/2+y,1/2+z
1/2-x,1/2-y,1/2+z
1/2+x,1/2-y,1/2-z
1/2-x,1/2+y,1/2-z
loop_
_atom_site_type_symbol
_atom_site_label
_atom_site_fract_x
_atom_site_fract_y
_atom_site_fract_z
Si Si1 0.880458 0.580128 0.162594
Si Si2 0.191447 0.214429 0.145007
Si Si3 0.079480 0.367981 0.680166
Si Si4 0.632525 0.652922 0.077428
Si Si5 0.386674 0.442063 0.708109
Si Si6 0.000000 0.500000 0.500000
Si Si7 0.446491 0.258615 0.523571
Si Si8 0.265552 0.636297 0.021513
O O1 0.840922 0.674409 0.189905
O O2 0.889669 0.482918 0.296759
O O3 0.871870 0.500000 0.000000
O O4 0.926685 0.656544 0.143014
O O5 0.156321 0.109391 0.107422
O O6 0.226900 0.269871 0.020349
O O7 0.219800 0.163128 0.294624
O O8 0.108663 0.278024 0.575868
O O9 0.071225 0.296508 0.850679
O O10 0.032397 0.414985 0.607255
O O11 0.614723 0.578662 0.236684
O O12 0.687419 0.651549 0.081695
O O13 0.619183 0.605091 0.896158
O O14 0.427457 0.380244 0.606816
O O15 0.500000 0.267362 0.500000
O O16 0.250857 0.500000 0.000000
#
# Coordination Sequence:
#
# PCOD9330986 Si02
#       8
#     8   8   8   8   8   2   8   8
#     4   9  20  40  63  93 128 172 214 273 344 398
#     4  10  21  38  67  91 128 174 218 279 327 398
#     4  11  25  39  64  99 125 179 223 279 340 410
#     4  10  21  43  68  89 129 182 217 270 351 408
#     4   9  20  43  67  88 128 179 214 275 343 404
#     4  12  28  40  66 102 152 172 238 296 346 428
#     4  10  21  39  67  93 130 165 219 276 342 408
#     4  11  22  41  63  94 132 176 226 275 339 404
#
# _framework density 21.363616
#
# number of rings (size 3 to 8) (size 9 to 14) (size 15 to 20)
#    0.000    1.931    2.759    1.241    7.724    6.897 
#    0.000    4.828    0.000    0.000    0.000    0.000 
#    0.000    0.000    0.000    0.000    0.000    0.000 
#
# Total GULP energy -161594.520223 kJ/mol
# GULP energy per Si atom -5572.224835 kJ/mol
# Density = 2.131499 g / cm^3
# Si number density = 21.363616 Si / 1000 Ang^3
#
#
#
# Elastic Constant Matrix: (Units=GPa)
#
#
# Indices 1 2 3 4 5 6 
#
# 1 53.0638 16.6932 10.4842 0.0000 0.0000 0.0000
# 2 16.6932 106.0278 27.3236 0.0000 0.0000 0.0000
# 3 10.4842 27.3236 55.3622 0.0000 0.0000 0.0000
# 4 0.0000 0.0000 0.0000 38.1724 0.0000 0.0000
# 5 0.0000 0.0000 0.0000 0.0000 13.8312 0.0000
# 6 0.0000 0.0000 0.0000 0.0000 0.0000 6.7477
#
#
#
# Elastic Compliance Matrix: (Units=1/GPa)
#
#
# Indices 1 2 3 4 5 6 
#
# 1 0.020143 -0.002507 -0.002577 0.000000 0.000000 0.000000
# 2 -0.002507 0.011118 -0.005012 0.000000 0.000000 0.000000
# 3 -0.002577 -0.005012 0.021025 0.000000 0.000000 0.000000
# 4 0.000000 0.000000 0.000000 0.026197 0.000000 0.000000
# 5 0.000000 0.000000 0.000000 0.000000 0.072300 0.000000
# 6 0.000000 0.000000 0.000000 0.000000 0.000000 0.148200
#
#
# Mechanical properties :
#
#
# Convention : Reuss Voigt Hill
#
# Bulk Modulus (GPa) = 31.16016 35.93954 33.54985
# Shear Modulus (GPa) = 15.15733 22.41378 18.78555
#
# Velocity S-wave (km/s) = 2.66652 3.24258 2.96856
# Velocity P-wave (km/s) = 4.90894 5.55684 5.24291
#
# Compressibility (1/GPa) = 0.03209226
#
# Stress axis : x y z
#
# Youngs Moduli (GPa) = 49.64464 89.94487 47.56304
#
# Poissons Ratio (x) = 0.22551 0.12258
# Poissons Ratio (y) = 0.12447 0.23840
# Poissons Ratio (z) = 0.12794 0.45084
#
# Static dielectric constant tensor:
#      x y z
#    x 1.771150 0.000000 0.000000 
#    y 0.000000 1.567660 0.000000 
#    z 0.000000 0.000000 1.836730 
# 
# From -- ./inp_files/13064.got.cif
#   From: 2010.05.17/outbox.cif.g08.bks.cpg/sg23_7_cif.got.tgz:13064.got - 2010.06.04 12:02:01.
