data_PCOD9330925
_publ_section_title
;
Structure prediction by ZEFSAII (Michael W. Deem and Ramdas Pophale) SiO2 
 PCOD9330925
Probable space group: I 2 2 2
;
_chemical_formula_sum "Si O2"
_cell_formula_units_Z 64
_cell_length_a 23.633625
_cell_length_b 8.620656
_cell_length_c 15.123366
_cell_angle_alpha 90.000000
_cell_angle_beta 90.000000
_cell_angle_gamma 90.000000
_cell_volume 3081.194529
_symmetry_space_group_name_H-M "I 2 2 2"
_symmetry_group_IT_number 23
_symmetry_cell_setting 'orthorhombic'
loop_
_space_group_symop_operation_xyz
x,y,z
-x,-y,z
x,-y,-z
-x,y,-z
1/2+x,1/2+y,1/2+z
1/2-x,1/2-y,1/2+z
1/2+x,1/2-y,1/2-z
1/2-x,1/2+y,1/2-z
loop_
_atom_site_type_symbol
_atom_site_label
_atom_site_fract_x
_atom_site_fract_y
_atom_site_fract_z
Si Si1 0.302757 0.648609 0.886194
Si Si2 0.189066 0.812074 0.844068
Si Si3 0.724058 0.699053 0.860584
Si Si4 0.056169 0.307001 0.891437
Si Si5 0.134677 0.665981 0.534222
Si Si6 0.165685 0.837884 0.179592
Si Si7 0.569028 0.173331 0.397218
Si Si8 0.458172 0.378769 0.931367
O O1 0.241006 0.729801 0.894595
O O2 0.295409 0.464685 0.900430
O O3 0.323366 0.663035 0.784597
O O4 0.346967 0.734651 0.948788
O O5 0.205062 0.793891 0.741005
O O6 0.127588 0.740856 0.862646
O O7 0.183450 0.995583 0.858657
O O8 0.692214 0.838654 0.909407
O O9 0.791309 0.714291 0.862859
O O10 0.102014 0.204163 0.842589
O O11 0.066674 0.490057 0.875630
O O12 0.991993 0.264522 0.864715
O O13 0.065395 0.296356 0.997263
O O14 0.115122 0.500000 0.500000
O O15 0.089196 0.758380 0.595541
O O16 0.500000 0.500000 0.878876
O O17 0.429657 0.500000 0.000000
O O18 0.500000 0.290088 0.000000
#
# Coordination Sequence:
#
# PCOD9330925 Si02
#       8
#     8   8   8   8   8   8   8   8
#     4  10  22  38  59  81 117 160 190 238 296 355
#     4  10  21  38  57  85 117 151 194 242 297 342
#     4  10  22  38  59  81 117 160 190 238 296 355
#     4   9  19  36  59  84 115 157 198 235 284 354
#     4  12  22  35  60  92 115 143 202 248 282 343
#     4  10  21  38  57  85 117 151 194 242 297 342
#     4   9  19  36  59  84 115 157 198 235 284 354
#     4   6  16  35  56  74 106 147 173 226 280 337
#
# _framework density 20.771165
#
# number of rings (size 3 to 8) (size 9 to 14) (size 15 to 20)
#    0.750    1.750    0.000    3.375    1.750    4.250 
#    0.000    2.500    0.000    0.000    0.000    0.000 
#    0.000    0.000    0.000    0.000    0.000    0.000 
#
# Total GULP energy -178191.990752 kJ/mol
# GULP energy per Si atom -5568.499711 kJ/mol
# Density = 2.072389 g / cm^3
# Si number density = 20.771165 Si / 1000 Ang^3
#
#
#
# Elastic Constant Matrix: (Units=GPa)
#
#
# Indices 1 2 3 4 5 6 
#
# 1 146.1116 47.2107 15.0380 0.0000 0.0000 0.0000
# 2 47.2107 67.6999 16.0557 0.0000 0.0000 0.0000
# 3 15.0380 16.0557 7.6112 0.0000 0.0000 0.0000
# 4 0.0000 0.0000 0.0000 17.1498 0.0000 0.0000
# 5 0.0000 0.0000 0.0000 0.0000 20.2507 0.0000
# 6 0.0000 0.0000 0.0000 0.0000 0.0000 30.4873
#
#
#
# Elastic Compliance Matrix: (Units=1/GPa)
#
#
# Indices 1 2 3 4 5 6 
#
# 1 0.009148 -0.004188 -0.009240 0.000000 0.000000 0.000000
# 2 -0.004188 0.031476 -0.058124 0.000000 0.000000 0.000000
# 3 -0.009240 -0.058124 0.272251 0.000000 0.000000 0.000000
# 4 0.000000 0.000000 0.000000 0.058310 0.000000 0.000000
# 5 0.000000 0.000000 0.000000 0.000000 0.049381 0.000000
# 6 0.000000 0.000000 0.000000 0.000000 0.000000 0.032801
#
#
# Mechanical properties :
#
#
# Convention : Reuss Voigt Hill
#
# Bulk Modulus (GPa) = 5.89025 42.00350 23.94688
# Shear Modulus (GPa) = 7.65625 23.11877 15.38751
#
# Velocity S-wave (km/s) = 1.92198 3.33982 2.72474
# Velocity P-wave (km/s) = 2.78698 5.92777 4.63172
#
# Compressibility (1/GPa) = 0.16977213
#
# Stress axis : x y z
#
# Youngs Moduli (GPa) = 109.30906 31.76988 3.67308
#
# Poissons Ratio (x) = 0.13306 0.03394
# Poissons Ratio (y) = 0.45782 0.21349
# Poissons Ratio (z) = 1.01002 1.84658
#
# Static dielectric constant tensor:
#      x y z
#    x 1.759900 0.000000 0.000000 
#    y 0.000000 1.752670 0.000000 
#    z 0.000000 0.000000 1.770750 
# 
# From -- ./inp_files/25261.got.cif
#   From: 2010.05.17/outbox.cif.g08.bks.cpg/sg23_13_cif.got.tgz:25261.got - 2010.06.04 12:02:01.
