data_PCOD9330318
_publ_section_title
;
Structure prediction by ZEFSAII (Michael W. Deem and Ramdas Pophale) SiO2 
 PCOD9330318
Probable space group: I 2 2 2
;
_chemical_formula_sum "Si O2"
_cell_formula_units_Z 64
_cell_length_a 8.657714
_cell_length_b 25.281594
_cell_length_c 16.074002
_cell_angle_alpha 90.000000
_cell_angle_beta 90.000000
_cell_angle_gamma 90.000000
_cell_volume 3518.290583
_symmetry_space_group_name_H-M "I 2 2 2"
_symmetry_group_IT_number 23
_symmetry_cell_setting 'orthorhombic'
loop_
_space_group_symop_operation_xyz
x,y,z
-x,-y,z
x,-y,-z
-x,y,-z
1/2+x,1/2+y,1/2+z
1/2-x,1/2-y,1/2+z
1/2+x,1/2-y,1/2-z
1/2-x,1/2+y,1/2-z
loop_
_atom_site_type_symbol
_atom_site_label
_atom_site_fract_x
_atom_site_fract_y
_atom_site_fract_z
Si Si1 0.500000 0.438659 0.599645
Si Si2 0.499999 0.796420 0.095770
Si Si3 0.247111 0.137536 0.182003
Si Si4 0.247110 0.137536 0.817996
Si Si5 0.500000 0.694482 0.212097
Si Si6 0.330091 0.940121 0.326267
Si Si7 0.330091 0.940121 0.673733
Si Si8 0.500000 0.591564 0.901660
O O1 0.500000 0.500000 0.626884
O O2 0.500000 0.437537 0.500000
O O3 0.357243 0.405916 0.636143
O O4 0.642756 0.405916 0.636143
O O5 0.645118 0.833307 0.116869
O O6 0.354881 0.833307 0.116868
O O7 0.499999 0.748957 0.162708
O O8 0.500000 0.778427 0.000000
O O9 0.328134 0.104147 0.254894
O O10 0.145269 0.182106 0.228657
O O11 0.145269 0.182106 0.771342
O O12 0.328134 0.104147 0.745106
O O13 0.500000 0.648091 0.143510
O O14 0.500000 0.934935 0.370463
O O15 0.165400 0.933870 0.374111
O O16 0.327363 0.000000 0.292107
O O17 0.165400 0.933871 0.625889
O O18 0.500000 0.595202 0.000000
#
# Coordination Sequence:
#
# PCOD9330318 Si02
#       8
#     8   8   8   8   8   8   8   8
#     4  10  20  35  55  82 116 152 189 233 288 342
#     4  12  22  35  57  86 114 139 181 242 297 333
#     4  10  20  37  57  80 109 149 190 232 277 344
#     4  10  20  37  57  80 109 149 190 232 277 344
#     4   9  21  38  60  78 106 152 193 227 278 344
#     4  10  20  35  56  81 112 151 192 233 281 344
#     4  10  20  35  56  81 112 151 192 233 281 344
#     4  10  21  37  57  85 117 149 191 240 295 346
#
# _framework density 18.190652
#
# number of rings (size 3 to 8) (size 9 to 14) (size 15 to 20)
#    0.000    1.875    1.250    3.750    0.000    1.500 
#    0.000    1.250    0.000    3.000    0.000    0.000 
#    0.000    0.000    0.000    0.000    0.000    0.000 
#
# Total GULP energy -178204.201461 kJ/mol
# GULP energy per Si atom -5568.881296 kJ/mol
# Density = 1.814925 g / cm^3
# Si number density = 18.190652 Si / 1000 Ang^3
#
#
#
# Elastic Constant Matrix: (Units=GPa)
#
#
# Indices 1 2 3 4 5 6 
#
# 1 140.4039 41.4799 40.4154 0.0000 0.0000 0.0000
# 2 41.4799 86.0528 18.0254 0.0000 0.0000 0.0000
# 3 40.4154 18.0254 78.3991 0.0000 0.0000 0.0001
# 4 0.0000 0.0000 0.0000 23.2344 0.0000 0.0000
# 5 0.0000 0.0000 0.0000 0.0000 15.5355 0.0000
# 6 0.0000 0.0000 0.0001 0.0000 0.0000 3.5813
#
#
#
# Elastic Compliance Matrix: (Units=1/GPa)
#
#
# Indices 1 2 3 4 5 6 
#
# 1 0.009353 -0.003675 -0.003976 0.000000 0.000000 0.000000
# 2 -0.003675 0.013653 -0.001244 0.000000 0.000000 0.000000
# 3 -0.003976 -0.001244 0.015091 0.000000 0.000000 0.000000
# 4 0.000000 0.000000 0.000000 0.043040 0.000000 -0.000001
# 5 0.000000 0.000000 0.000000 0.000000 0.064369 0.000000
# 6 0.000000 0.000000 0.000000 -0.000001 0.000000 0.279228
#
#
# Mechanical properties :
#
#
# Convention : Reuss Voigt Hill
#
# Bulk Modulus (GPa) = 49.24964 56.07745 52.66354
# Shear Modulus (GPa) = 11.12857 22.13259 16.63058
#
# Velocity S-wave (km/s) = 2.47609 3.49191 3.02692
# Velocity P-wave (km/s) = 5.94202 6.86676 6.42106
#
# Compressibility (1/GPa) = 0.02030472
#
# Stress axis : x y z
#
# Youngs Moduli (GPa) = 106.92066 73.24369 66.26374
#
# Poissons Ratio (x) = 0.26920 0.26349
# Poissons Ratio (y) = 0.39297 0.08246
# Poissons Ratio (z) = 0.42516 0.09115
#
# Static dielectric constant tensor:
#      x y z
#    x 1.641090 0.000000 0.000000 
#    y 0.000000 1.596650 0.000000 
#    z 0.000000 0.000000 1.587190 
# 
# From -- ./inp_files/20353.got.cif
#   From: 2010.05.17/outbox.cif.g08.bks.cpg/sg23_11_cif.got.tgz:20353.got - 2010.06.04 12:02:01.
