data_PCOD9330467
_publ_section_title
;
Structure prediction by ZEFSAII (Michael W. Deem and Ramdas Pophale) SiO2 
 PCOD9330467
Probable space group: I 2 2 2
;
_chemical_formula_sum "Si O2"
_cell_formula_units_Z 48
_cell_length_a 5.220635
_cell_length_b 29.392544
_cell_length_c 16.543314
_cell_angle_alpha 90.000000
_cell_angle_beta 90.000000
_cell_angle_gamma 90.000000
_cell_volume 2538.534211
_symmetry_space_group_name_H-M "I 2 2 2"
_symmetry_group_IT_number 23
_symmetry_cell_setting 'orthorhombic'
loop_
_space_group_symop_operation_xyz
x,y,z
-x,-y,z
x,-y,-z
-x,y,-z
1/2+x,1/2+y,1/2+z
1/2-x,1/2-y,1/2+z
1/2+x,1/2-y,1/2-z
1/2-x,1/2+y,1/2-z
loop_
_atom_site_type_symbol
_atom_site_label
_atom_site_fract_x
_atom_site_fract_y
_atom_site_fract_z
Si Si1 0.482094 0.555718 0.593799
Si Si2 0.751473 0.307640 0.946794
Si Si3 0.688567 0.365515 0.294767
Si Si4 0.246239 0.530465 0.745250
Si Si5 0.710157 0.237603 0.802894
Si Si6 0.191093 0.620938 0.810711
O O1 0.500000 0.500000 0.588474
O O2 0.500000 0.570009 0.500000
O O3 0.661102 0.592031 0.642673
O O4 0.244633 0.556182 0.657460
O O5 0.699801 0.267907 0.882574
O O6 0.806913 0.352181 0.893453
O O7 0.500000 0.314210 0.000000
O O8 0.000000 0.297004 0.000000
O O9 0.753134 0.315240 0.327016
O O10 0.419356 0.360473 0.246821
O O11 0.915415 0.375483 0.231717
O O12 0.500000 0.500000 0.749149
O O13 0.252611 0.567733 0.814639
O O14 0.000000 0.500000 0.750287
O O15 0.453326 0.245518 0.750322
#
# Coordination Sequence:
#
# PCOD9330467 Si02
#       6
#     8   8   8   8   8   8
#     4   9  19  36  56  88 129 166 204 258 312 358
#     4  12  25  40  63  95 124 157 206 261 321 374
#     4  11  21  38  64  88 118 171 219 248 301 379
#     4  10  20  37  61  89 117 160 214 254 298 372
#     4  12  22  42  65  89 123 168 208 256 312 377
#     4  11  21  39  63  88 120 161 207 255 305 373
#
# _framework density 18.908549000000001
#
# number of rings (size 3 to 8) (size 9 to 14) (size 15 to 20)
#    0.000    1.167    3.333    5.000    0.000    0.667 
#    0.000   23.333    0.000    3.000    0.000    0.000 
#    0.000    0.000    0.000    0.000    0.000    0.000 
#
# Total GULP energy -133657.836585 kJ/mol
# GULP energy per Si atom -5569.076524 kJ/mol
# Density = 1.886551 g / cm^3
# Si number density = 18.908549 Si / 1000 Ang^3
#
#
#
# Elastic Constant Matrix: (Units=GPa)
#
#
# Indices 1 2 3 4 5 6 
#
# 1 87.4929 31.8213 32.1406 0.0000 0.0000 0.0000
# 2 31.8213 122.2101 53.6176 0.0000 0.0000 0.0000
# 3 32.1406 53.6176 105.1349 0.0000 0.0000 0.0000
# 4 0.0000 0.0000 0.0000 107.7618 0.0000 0.0000
# 5 0.0000 0.0000 0.0000 0.0000 24.6535 0.0000
# 6 0.0000 0.0000 0.0000 0.0000 0.0000 29.8863
#
#
#
# Elastic Compliance Matrix: (Units=1/GPa)
#
#
# Indices 1 2 3 4 5 6 
#
# 1 0.013305 -0.002164 -0.002964 0.000000 0.000000 0.000000
# 2 -0.002164 0.010893 -0.004894 0.000000 0.000000 0.000000
# 3 -0.002964 -0.004894 0.012913 0.000000 0.000000 0.000000
# 4 0.000000 0.000000 0.000000 0.009280 0.000000 0.000000
# 5 0.000000 0.000000 0.000000 0.000000 0.040562 0.000000
# 6 0.000000 0.000000 0.000000 0.000000 0.000000 0.033460
#
#
# Mechanical properties :
#
#
# Convention : Reuss Voigt Hill
#
# Bulk Modulus (GPa) = 58.58782 61.11075 59.84929
# Shear Modulus (GPa) = 34.21205 45.61086 39.91146
#
# Velocity S-wave (km/s) = 4.25825 4.91673 4.59929
# Velocity P-wave (km/s) = 7.43162 8.03875 7.74114
#
# Compressibility (1/GPa) = 0.01706839
#
# Stress axis : x y z
#
# Youngs Moduli (GPa) = 75.15756 91.80030 77.43853
#
# Poissons Ratio (x) = 0.19867 0.22952
# Poissons Ratio (y) = 0.16265 0.37897
# Poissons Ratio (z) = 0.22276 0.44925
#
# Static dielectric constant tensor:
#      x y z
#    x 1.662030 0.000000 0.000000 
#    y 0.000000 1.729790 0.000000 
#    z 0.000000 0.000000 1.650480 
# 
# From -- ./inp_files/19297.got.cif
#   From: 2010.05.17/outbox.cif.g08.bks.cpg/sg23_10_cif.got.tgz:19297.got - 2010.06.04 12:02:01.
