data_PCOD9330009
_publ_section_title
;
Structure prediction by ZEFSAII (Michael W. Deem and Ramdas Pophale) SiO2 
 PCOD9330009
Probable space group: I 2 2 2
;
_chemical_formula_sum "Si O2"
_cell_formula_units_Z 64
_cell_length_a 18.210080
_cell_length_b 5.397274
_cell_length_c 34.006985
_cell_angle_alpha 90.000000
_cell_angle_beta 90.000000
_cell_angle_gamma 90.000000
_cell_volume 3342.369424
_symmetry_space_group_name_H-M "I 2 2 2"
_symmetry_group_IT_number 23
_symmetry_cell_setting 'orthorhombic'
loop_
_space_group_symop_operation_xyz
x,y,z
-x,-y,z
x,-y,-z
-x,y,-z
1/2+x,1/2+y,1/2+z
1/2-x,1/2-y,1/2+z
1/2+x,1/2-y,1/2-z
1/2-x,1/2+y,1/2-z
loop_
_atom_site_type_symbol
_atom_site_label
_atom_site_fract_x
_atom_site_fract_y
_atom_site_fract_z
Si Si1 0.870312 0.000000 0.591103
Si Si2 0.820104 0.500000 0.691151
Si Si3 0.172354 1.000000 0.136399
Si Si4 0.411781 0.000000 0.046400
Si Si5 0.083859 1.000000 0.675703
Si Si6 0.414673 0.500000 0.288029
Si Si7 0.711647 0.000000 0.370093
Si Si8 0.828543 0.500000 0.776639
O O1 0.881614 0.750203 0.566344
O O2 0.792328 1.000000 0.612869
O O3 0.881614 0.249797 0.566344
O O4 0.922950 0.000000 0.628664
O O5 0.751569 0.500000 0.660657
O O6 0.870255 0.252328 0.685989
O O7 0.785039 0.500000 0.735208
O O8 0.870255 0.747672 0.685989
O O9 0.105191 1.000000 0.166099
O O10 0.172934 0.744362 0.114616
O O11 0.172934 0.255638 0.114616
O O12 0.500000 0.000000 0.051274
O O13 0.395710 0.000000 0.000000
O O14 0.000000 0.000000 0.691979
O O15 0.500000 0.500000 0.280702
O O16 0.377561 0.753233 0.273734
O O17 0.377561 0.246767 0.273734
O O18 0.705959 1.000000 0.321167
#
# Coordination Sequence:
#
# PCOD9330009 Si02
#       8
#     8   8   8   8   8   8   8   8
#     4  12  21  40  60  79 112 142 180 234 279 319
#     4  12  22  38  53  72 101 142 187 235 276 331
#     4  10  19  36  53  73  99 130 182 225 264 335
#     4  11  24  40  61  87 111 143 180 215 269 337
#     4  12  25  37  53  79 108 143 189 241 293 325
#     4  10  21  35  52  72  94 128 174 226 284 325
#     4  10  20  36  54  80  94 137 182 222 271 327
#     4  10  23  35  56  70 104 136 186 231 277 323
#
# _framework density 19.148091999999998
#
# number of rings (size 3 to 8) (size 9 to 14) (size 15 to 20)
#    0.000    1.125    2.500    4.500    0.000    8.000 
#    0.000    0.000    0.000    0.000    0.000    0.000 
#    0.000    0.000    0.000    0.000    0.000  700.000 
#
# Total GULP energy -178564.287683 kJ/mol
# GULP energy per Si atom -5580.133990 kJ/mol
# Density = 1.910451 g / cm^3
# Si number density = 19.148092 Si / 1000 Ang^3
#
#
#
# Elastic Constant Matrix: (Units=GPa)
#
#
# Indices 1 2 3 4 5 6 
#
# 1 64.3271 41.4030 36.2366 0.0000 0.0000 0.0000
# 2 41.4030 213.3903 50.3515 0.0000 0.0000 0.0000
# 3 36.2366 50.3515 94.0019 0.0000 0.0000 0.0000
# 4 0.0000 0.0000 0.0000 25.7700 0.0000 0.0000
# 5 0.0000 0.0000 0.0000 0.0000 11.1172 0.0000
# 6 0.0000 0.0000 0.0000 0.0000 0.0000 46.4551
#
#
#
# Elastic Compliance Matrix: (Units=1/GPa)
#
#
# Indices 1 2 3 4 5 6 
#
# 1 0.020936 -0.002470 -0.006748 0.000000 0.000000 0.000000
# 2 -0.002470 0.005656 -0.002077 0.000000 0.000000 0.000000
# 3 -0.006748 -0.002077 0.014352 0.000000 0.000000 0.000000
# 4 0.000000 0.000000 0.000000 0.038805 0.000000 0.000000
# 5 0.000000 0.000000 0.000000 0.000000 0.089950 0.000000
# 6 0.000000 0.000000 0.000000 0.000000 0.000000 0.021526
#
#
# Mechanical properties :
#
#
# Convention : Reuss Voigt Hill
#
# Bulk Modulus (GPa) = 54.48381 69.74460 62.11420
# Shear Modulus (GPa) = 22.73417 32.91702 27.82560
#
# Velocity S-wave (km/s) = 3.44943 4.15067 3.81619
# Velocity P-wave (km/s) = 6.66187 7.71191 7.20604
#
# Compressibility (1/GPa) = 0.01835408
#
# Stress axis : x y z
#
# Youngs Moduli (GPa) = 47.76364 176.81476 69.67724
#
# Poissons Ratio (x) = 0.43673 0.47016
# Poissons Ratio (y) = 0.11798 0.14474
# Poissons Ratio (z) = 0.32229 0.36729
#
# Static dielectric constant tensor:
#      x y z
#    x 1.676030 0.000000 0.000000 
#    y 0.000000 1.772850 0.000000 
#    z 0.000000 0.000000 1.661260 
# 
# From -- ./inp_files/30645.got.cif
#   From: 2010.05.17/outbox.cif.g08.bks.cpg/sg23_16_cif.got.tgz:30645.got - 2010.06.04 12:02:01.
