data_PCOD9330269
_publ_section_title
;
Structure prediction by ZEFSAII (Michael W. Deem and Ramdas Pophale) SiO2 
 PCOD9330269
Probable space group: I 2 2 2
;
_chemical_formula_sum "Si O2"
_cell_formula_units_Z 40
_cell_length_a 20.408878
_cell_length_b 22.452711
_cell_length_c 5.056875
_cell_angle_alpha 90.000000
_cell_angle_beta 90.000000
_cell_angle_gamma 90.000000
_cell_volume 2317.235293
_symmetry_space_group_name_H-M "I 2 2 2"
_symmetry_group_IT_number 23
_symmetry_cell_setting 'orthorhombic'
loop_
_space_group_symop_operation_xyz
x,y,z
-x,-y,z
x,-y,-z
-x,y,-z
1/2+x,1/2+y,1/2+z
1/2-x,1/2-y,1/2+z
1/2+x,1/2-y,1/2-z
1/2-x,1/2+y,1/2-z
loop_
_atom_site_type_symbol
_atom_site_label
_atom_site_fract_x
_atom_site_fract_y
_atom_site_fract_z
Si Si1 0.743473 0.669057 0.339837
Si Si2 0.827091 0.208804 0.663039
Si Si3 0.158028 0.566000 0.486088
Si Si4 0.423427 0.899824 0.462350
Si Si5 0.543353 0.228546 0.254155
O O1 0.789457 0.727699 0.349043
O O2 0.688146 0.679663 0.557514
O O3 0.788592 0.613961 0.419847
O O4 0.707104 0.668673 0.059667
O O5 0.903132 0.225355 0.646517
O O6 0.187338 0.500000 0.500000
O O7 0.102309 0.565092 0.710170
O O8 0.122897 0.585751 0.212659
O O9 0.500000 0.913183 0.500000
O O10 0.421619 0.829763 0.380883
O O11 0.500000 0.251906 0.500000
O O12 0.500000 0.209456 0.000000
#
# Coordination Sequence:
#
# PCOD9330269 Si02
#       5
#     8   8   8   8   8
#     4  10  21  34  53  77 102 140 183 220 270 317
#     4  10  20  34  56  76 105 137 178 221 269 334
#     4  12  24  38  54  75 108 145 193 232 261 308
#     4  11  23  36  53  73 106 148 191 229 259 303
#     4  11  21  34  56  82 112 142 178 223 274 323
#
# _framework density 17.261948
#
# number of rings (size 3 to 8) (size 9 to 14) (size 15 to 20)
#    0.000    1.200    2.000    6.000    5.600    2.400 
#    0.000    0.000    0.000    0.000    0.000    0.000 
#    0.000   12.000    0.000    0.000    0.000    0.000 
#
# Total GULP energy -111622.013696 kJ/mol
# GULP energy per Si atom -5581.100685 kJ/mol
# Density = 1.722266 g / cm^3
# Si number density = 17.261948 Si / 1000 Ang^3
#
#
#
# Elastic Constant Matrix: (Units=GPa)
#
#
# Indices 1 2 3 4 5 6 
#
# 1 43.4483 18.2353 13.4978 0.0000 0.0000 0.0000
# 2 18.2353 41.1544 -9.2712 0.0000 0.0000 0.0000
# 3 13.4978 -9.2712 79.4439 0.0000 0.0000 0.0000
# 4 0.0000 0.0000 0.0000 1.9043 0.0000 0.0000
# 5 0.0000 0.0000 0.0000 0.0000 25.8490 0.0000
# 6 0.0000 0.0000 0.0000 0.0000 0.0000 13.7909
#
#
#
# Elastic Compliance Matrix: (Units=1/GPa)
#
#
# Indices 1 2 3 4 5 6 
#
# 1 0.031886 -0.015764 -0.007257 0.000000 0.000000 0.000000
# 2 -0.015764 0.032748 0.006500 0.000000 0.000000 0.000000
# 3 -0.007257 0.006500 0.014579 0.000000 0.000000 0.000000
# 4 0.000000 0.000000 0.000000 0.525141 0.000000 0.000000
# 5 0.000000 0.000000 0.000000 0.000000 0.038686 0.000000
# 6 0.000000 0.000000 0.000000 0.000000 0.000000 0.072512
#
#
# Mechanical properties :
#
#
# Convention : Reuss Voigt Hill
#
# Bulk Modulus (GPa) = 21.65831 23.21891 22.43861
# Shear Modulus (GPa) = 6.54464 17.74781 12.14622
#
# Velocity S-wave (km/s) = 1.94926 3.20995 2.65550
# Velocity P-wave (km/s) = 4.20003 5.21714 4.73596
#
# Compressibility (1/GPa) = 0.04617166
#
# Stress axis : x y z
#
# Youngs Moduli (GPa) = 31.36134 30.53642 68.59143
#
# Poissons Ratio (x) = 0.48136 0.49778
# Poissons Ratio (y) = 0.49437 -0.44584
# Poissons Ratio (z) = 0.22760 -0.19849
#
# Static dielectric constant tensor:
#      x y z
#    x 1.597800 0.000000 0.000000 
#    y 0.000000 1.627410 0.000000 
#    z 0.000000 0.000000 1.608650 
# 
# From -- ./inp_files/3117.got.cif
#   From: 2010.05.17/outbox.cif.g08.bks.cpg/sg23_2_cif.got.tgz:3117.got - 2010.06.04 12:02:01.
