data_PCOD9330617
_publ_section_title
;
Structure prediction by ZEFSAII (Michael W. Deem and Ramdas Pophale) SiO2 
 PCOD9330617
Probable space group: I 2 2 2
;
_chemical_formula_sum "Si O2"
_cell_formula_units_Z 42
_cell_length_a 13.455050
_cell_length_b 8.069253
_cell_length_c 16.285177
_cell_angle_alpha 90.000000
_cell_angle_beta 90.000000
_cell_angle_gamma 90.000000
_cell_volume 1768.117536
_symmetry_space_group_name_H-M "I 2 2 2"
_symmetry_group_IT_number 23
_symmetry_cell_setting 'orthorhombic'
loop_
_space_group_symop_operation_xyz
x,y,z
-x,-y,z
x,-y,-z
-x,y,-z
1/2+x,1/2+y,1/2+z
1/2-x,1/2-y,1/2+z
1/2+x,1/2-y,1/2-z
1/2-x,1/2+y,1/2-z
loop_
_atom_site_type_symbol
_atom_site_label
_atom_site_fract_x
_atom_site_fract_y
_atom_site_fract_z
Si Si1 0.500000 0.000000 0.790390
Si Si2 0.289159 0.752363 0.658181
Si Si3 0.500000 0.500000 0.253682
Si Si4 0.471106 0.221641 0.644459
Si Si5 0.826104 0.558032 0.586748
Si Si6 0.500000 0.000000 0.500000
Si Si7 0.693263 0.385577 0.836148
O O1 0.448048 0.119321 0.725846
O O2 0.586206 0.064635 0.847292
O O3 0.407635 0.768200 0.641950
O O4 0.246510 0.595283 0.608433
O O5 0.268913 0.701794 0.752635
O O6 0.239657 0.933558 0.644891
O O7 0.436300 0.602817 0.321697
O O8 0.578659 0.582146 0.191948
O O9 0.442732 0.124698 0.562309
O O10 0.867966 0.500000 0.500000
O O11 0.787777 0.747761 0.593213
#
# Coordination Sequence:
#
# PCOD9330617 Si02
#       7
#     4   8   4   8   8   2   8
#     4  11  19  45  65  88 132 182 225 261 343 421
#     4  11  22  43  68  96 132 176 228 273 342 407
#     4  10  20  39  64  97 124 174 232 258 333 415
#     4  10  22  41  68  95 128 180 221 281 339 407
#     4  12  26  42  66 105 137 177 226 291 347 408
#     4  10  24  42  62 104 134 168 230 284 344 396
#     4  11  22  42  70  99 126 178 226 277 332 412
#
# _framework density 23.754078
#
# number of rings (size 3 to 8) (size 9 to 14) (size 15 to 20)
#    0.000    1.143    5.714    1.429    0.000    4.190 
#    6.857    0.000    0.000    0.000    0.000    0.000 
#    0.000    0.000    0.000    0.000    0.000    0.000 
#
# Total GULP energy -117018.569478 kJ/mol
# GULP energy per Si atom -5572.312832 kJ/mol
# Density = 2.370001 g / cm^3
# Si number density = 23.754078 Si / 1000 Ang^3
#
#
#
# Elastic Constant Matrix: (Units=GPa)
#
#
# Indices 1 2 3 4 5 6 
#
# 1 103.0523 38.2551 19.5810 0.0000 0.0000 0.0000
# 2 38.2551 182.5504 44.0253 0.0000 0.0000 0.0000
# 3 19.5810 44.0253 106.4699 0.0000 0.0000 0.0000
# 4 0.0000 0.0000 0.0000 257.0375 0.0000 0.0000
# 5 0.0000 0.0000 0.0000 0.0000 -190.3594 0.0000
# 6 0.0000 0.0000 0.0000 0.0000 0.0000 34.4392
#
#
#
# Elastic Compliance Matrix: (Units=1/GPa)
#
#
# Indices 1 2 3 4 5 6 
#
# 1 0.010648 -0.001954 -0.001150 0.000000 0.000000 0.000000
# 2 -0.001954 0.006443 -0.002305 0.000000 0.000000 0.000000
# 3 -0.001150 -0.002305 0.010557 0.000000 0.000000 0.000000
# 4 0.000000 0.000000 0.000000 0.003890 0.000000 0.000000
# 5 0.000000 0.000000 0.000000 0.000000 -0.005253 0.000000
# 6 0.000000 0.000000 0.000000 0.000000 0.000000 0.029037
#
#
# Mechanical properties :
#
#
# Convention : Reuss Voigt Hill
#
# Bulk Modulus (GPa) = 59.41889 66.19947 62.80918
# Shear Modulus (GPa) = 69.68632 39.57087 54.62860
#
# Velocity S-wave (km/s) = 5.42220 4.08592 4.80078
# Velocity P-wave (km/s) = 8.01678 7.08441 7.56497
#
# Compressibility (1/GPa) = 0.01682967
#
# Stress axis : x y z
#
# Youngs Moduli (GPa) = 93.91692 155.20041 94.72409
#
# Poissons Ratio (x) = 0.30325 0.10896
# Poissons Ratio (y) = 0.18351 0.21833
# Poissons Ratio (z) = 0.10803 0.35773
#
# Static dielectric constant tensor:
#      x y z
#    x 1.806210 0.000000 0.000000 
#    y 0.000000 2.852470 0.000000 
#    z 0.000000 0.000000 1.864420 
# 
# From -- ./inp_files/21395.got.cif
#   From: 2010.05.17/outbox.cif.g08.bks.cpg/sg23_11_cif.got.tgz:21395.got - 2010.06.04 12:02:01.
