data_PCOD9330841
_publ_section_title
;
Structure prediction by ZEFSAII (Michael W. Deem and Ramdas Pophale) SiO2 
 PCOD9330841
Probable space group: I 2 2 2
;
_chemical_formula_sum "Si O2"
_cell_formula_units_Z 58
_cell_length_a 8.887100
_cell_length_b 12.625603
_cell_length_c 26.519915
_cell_angle_alpha 90.000000
_cell_angle_beta 90.000000
_cell_angle_gamma 90.000000
_cell_volume 2975.666968
_symmetry_space_group_name_H-M "I 2 2 2"
_symmetry_group_IT_number 23
_symmetry_cell_setting 'orthorhombic'
loop_
_space_group_symop_operation_xyz
x,y,z
-x,-y,z
x,-y,-z
-x,y,-z
1/2+x,1/2+y,1/2+z
1/2-x,1/2-y,1/2+z
1/2+x,1/2-y,1/2-z
1/2-x,1/2+y,1/2-z
loop_
_atom_site_type_symbol
_atom_site_label
_atom_site_fract_x
_atom_site_fract_y
_atom_site_fract_z
Si Si1 0.173093 0.772798 0.341592
Si Si2 0.681516 0.242921 0.555974
Si Si3 0.822190 0.476261 0.800034
Si Si4 0.000000 0.500000 0.500000
Si Si5 0.651943 0.284633 0.442232
Si Si6 0.724977 0.484567 0.579736
Si Si7 0.669542 0.040537 0.810289
Si Si8 0.893176 0.902481 0.377105
O O1 0.283233 0.857708 0.316644
O O2 0.237216 0.743398 0.396871
O O3 0.166696 0.667281 0.308931
O O4 0.009520 0.823664 0.349734
O O5 0.717386 0.254713 0.496694
O O6 0.503615 0.219344 0.562180
O O7 0.685229 0.361341 0.577886
O O8 0.795913 0.162433 0.582174
O O9 0.772204 0.495308 0.742396
O O10 0.724763 0.549096 0.837406
O O11 0.000000 0.500000 0.803547
O O12 0.128536 0.513409 0.544166
O O13 0.630689 0.413173 0.440739
O O14 0.745745 0.508847 0.638867
O O15 0.500000 0.000000 0.816628
O O16 0.000000 0.000000 0.396122
#
# Coordination Sequence:
#
# PCOD9330841 Si02
#       8
#     8   8   8   2   8   8   8   8
#     4  10  22  40  61  86 121 154 200 256 307 362
#     4  11  21  37  61  87 125 163 198 249 308 366
#     4  10  22  42  61  83 118 157 199 255 307 359
#     4  12  20  32  58  92 142 164 190 252 294 356
#     4  10  22  37  58  91 125 159 199 245 308 380
#     4  11  21  34  58  95 131 165 196 239 304 369
#     4  10  21  36  59  90 121 156 205 245 297 365
#     4  10  23  41  62  86 114 156 209 259 305 366
#
# _framework density 19.491427999999999
#
# number of rings (size 3 to 8) (size 9 to 14) (size 15 to 20)
#    0.000    1.655    2.069    2.069    1.931    4.966 
#    0.000   13.103    0.000    7.448    0.000    0.000 
#    0.000    0.000    0.000    0.000    0.000    0.000 
#
# Total GULP energy -161494.809119 kJ/mol
# GULP energy per Si atom -5568.786521 kJ/mol
# Density = 1.944706 g / cm^3
# Si number density = 19.491428 Si / 1000 Ang^3
#
#
#
# Elastic Constant Matrix: (Units=GPa)
#
#
# Indices 1 2 3 4 5 6 
#
# 1 73.5208 35.9357 35.6825 0.0000 0.0000 0.0000
# 2 35.9357 84.9283 57.2320 0.0000 0.0000 0.0000
# 3 35.6825 57.2320 114.4123 0.0000 0.0000 0.0000
# 4 0.0000 0.0000 0.0000 4.7381 0.0000 0.0000
# 5 0.0000 0.0000 0.0000 0.0000 11.7148 0.0000
# 6 0.0000 0.0000 0.0000 0.0000 0.0000 -4.0547
#
#
#
# Elastic Compliance Matrix: (Units=1/GPa)
#
#
# Indices 1 2 3 4 5 6 
#
# 1 0.017673 -0.005678 -0.002672 0.000000 0.000000 0.000000
# 2 -0.005678 0.019586 -0.008027 0.000000 0.000000 0.000000
# 3 -0.002672 -0.008027 0.013589 0.000000 0.000000 0.000000
# 4 0.000000 0.000000 0.000000 0.211054 0.000000 0.000000
# 5 0.000000 0.000000 0.000000 0.000000 0.085362 0.000000
# 6 0.000000 0.000000 0.000000 0.000000 0.000000 -0.246624
#
#
# Mechanical properties :
#
#
# Convention : Reuss Voigt Hill
#
# Bulk Modulus (GPa) = 55.26112 58.95130 57.10621
# Shear Modulus (GPa) = 35.86179 12.08038 23.97109
#
# Velocity S-wave (km/s) = 4.29403 2.49224 3.51069
# Velocity P-wave (km/s) = 7.27997 6.21225 6.76720
#
# Compressibility (1/GPa) = 0.01809591
#
# Stress axis : x y z
#
# Youngs Moduli (GPa) = 56.58193 51.05654 73.59001
#
# Poissons Ratio (x) = 0.28988 0.19662
# Poissons Ratio (y) = 0.32125 0.59069
# Poissons Ratio (z) = 0.15118 0.40982
#
# Static dielectric constant tensor:
#      x y z
#    x 1.763540 0.000000 0.000000 
#    y 0.000000 1.697830 0.000000 
#    z 0.000000 0.000000 1.659310 
# 
# From -- ./inp_files/29271.got.cif
#   From: 2010.05.17/outbox.cif.g08.bks.cpg/sg23_15_cif.got.tgz:29271.got - 2010.06.04 12:02:01.
