data_PCOD9330098
_publ_section_title
;
Structure prediction by ZEFSAII (Michael W. Deem and Ramdas Pophale) SiO2 
 PCOD9330098
Probable space group: I 2 2 2
;
_chemical_formula_sum "Si O2"
_cell_formula_units_Z 52
_cell_length_a 5.072835
_cell_length_b 21.438585
_cell_length_c 20.964553
_cell_angle_alpha 90.000000
_cell_angle_beta 90.000000
_cell_angle_gamma 90.000000
_cell_volume 2279.987474
_symmetry_space_group_name_H-M "I 2 2 2"
_symmetry_group_IT_number 23
_symmetry_cell_setting 'orthorhombic'
loop_
_space_group_symop_operation_xyz
x,y,z
-x,-y,z
x,-y,-z
-x,y,-z
1/2+x,1/2+y,1/2+z
1/2-x,1/2-y,1/2+z
1/2+x,1/2-y,1/2-z
1/2-x,1/2+y,1/2-z
loop_
_atom_site_type_symbol
_atom_site_label
_atom_site_fract_x
_atom_site_fract_y
_atom_site_fract_z
Si Si1 0.861558 0.114723 0.087504
Si Si2 0.858102 0.179977 0.359191
Si Si3 0.483521 0.936632 0.261759
Si Si4 0.000000 0.500000 0.000000
Si Si5 0.364721 0.804271 0.936174
Si Si6 0.000000 0.000000 0.000000
Si Si7 0.515241 0.371868 0.265365
Si Si8 0.652840 0.903827 0.393548
O O1 0.572995 0.142621 0.080844
O O2 0.866402 0.049111 0.049701
O O3 0.924656 0.118653 0.162585
O O4 0.086372 0.161061 0.060008
O O5 0.093124 0.139867 0.390587
O O6 0.845433 0.249329 0.385595
O O7 0.929874 0.183209 0.283048
O O8 0.594399 0.143426 0.381897
O O9 0.176969 0.922557 0.268845
O O10 0.630431 0.944549 0.329294
O O11 0.671220 0.882637 0.234255
O O12 0.500000 0.000000 0.222371
O O13 0.852737 0.451210 0.047235
O O14 0.500000 0.776342 0.000000
#
# Coordination Sequence:
#
# PCOD9330098 Si02
#       8
#     8   8   8   2   8   2   8   8
#     4  12  27  47  72  99 135 174 228 271 353 399
#     4  10  24  44  69  97 134 169 236 279 342 387
#     4  10  19  38  57  90 132 167 216 273 331 380
#     4  12  24  38  58  94 136 190 224 266 328 402
#     4  12  25  47  69 100 136 180 218 284 331 413
#     4  12  28  50  66 102 140 178 214 284 324 450
#     4  10  23  41  66 100 124 172 224 277 338 393
#     4  10  23  38  60  95 133 180 219 280 322 399
#
# _framework density 22.807144000000001
#
# number of rings (size 3 to 8) (size 9 to 14) (size 15 to 20)
#    0.000    1.231    2.308    2.308    4.308    3.692 
#    0.000    0.000    0.000    0.000    0.000    0.000 
#    0.000    0.000    0.000    0.000    0.000    0.000 
#
# Total GULP energy -144783.748381 kJ/mol
# GULP energy per Si atom -5568.605707 kJ/mol
# Density = 2.275523 g / cm^3
# Si number density = 22.807144 Si / 1000 Ang^3
#
#
#
# Elastic Constant Matrix: (Units=GPa)
#
#
# Indices 1 2 3 4 5 6 
#
# 1 90.6774 14.0064 11.6934 0.0000 0.0000 0.0000
# 2 14.0064 106.8544 38.9190 0.0000 0.0000 0.0000
# 3 11.6934 38.9190 142.6532 0.0000 0.0000 0.0000
# 4 0.0000 0.0000 0.0000 -4.9019 0.0000 0.0000
# 5 0.0000 0.0000 0.0000 0.0000 20.2466 0.0000
# 6 0.0000 0.0000 0.0000 0.0000 0.0000 6.8510
#
#
#
# Elastic Compliance Matrix: (Units=1/GPa)
#
#
# Indices 1 2 3 4 5 6 
#
# 1 0.011299 -0.001270 -0.000580 0.000000 0.000000 0.000000
# 2 -0.001270 0.010534 -0.002770 0.000000 0.000000 0.000000
# 3 -0.000580 -0.002770 0.007813 0.000000 0.000000 0.000000
# 4 0.000000 0.000000 0.000000 -0.204005 0.000000 0.000000
# 5 0.000000 0.000000 0.000000 0.000000 0.049391 0.000000
# 6 0.000000 0.000000 0.000000 0.000000 0.000000 0.145964
#
#
# Mechanical properties :
#
#
# Convention : Reuss Voigt Hill
#
# Bulk Modulus (GPa) = 49.00230 52.15804 50.58017
# Shear Modulus (GPa) = 134.99666 22.81023 78.90344
#
# Velocity S-wave (km/s) = 7.70188 3.16592 5.88821
# Velocity P-wave (km/s) = 10.03116 6.02353 8.27366
#
# Compressibility (1/GPa) = 0.02040720
#
# Stress axis : x y z
#
# Youngs Moduli (GPa) = 88.50323 94.93246 127.98888
#
# Poissons Ratio (x) = 0.12056 0.07420
# Poissons Ratio (y) = 0.11239 0.35450
# Poissons Ratio (z) = 0.05131 0.26294
#
# Static dielectric constant tensor:
#      x y z
#    x 1.856460 0.000000 0.000000 
#    y 0.000000 1.915810 0.000000 
#    z 0.000000 0.000000 1.978980 
# 
# From -- ./inp_files/25752.got.cif
#   From: 2010.05.17/outbox.cif.g08.bks.cpg/sg23_13_cif.got.tgz:25752.got - 2010.06.04 12:02:01.
