data_PCOD9330794
_publ_section_title
;
Structure prediction by ZEFSAII (Michael W. Deem and Ramdas Pophale) SiO2 
 PCOD9330794
Probable space group: I 2 2 2
;
_chemical_formula_sum "Si O2"
_cell_formula_units_Z 64
_cell_length_a 16.585969
_cell_length_b 9.240996
_cell_length_c 20.709889
_cell_angle_alpha 90.000000
_cell_angle_beta 90.000000
_cell_angle_gamma 90.000000
_cell_volume 3174.222771
_symmetry_space_group_name_H-M "I 2 2 2"
_symmetry_group_IT_number 23
_symmetry_cell_setting 'orthorhombic'
loop_
_space_group_symop_operation_xyz
x,y,z
-x,-y,z
x,-y,-z
-x,y,-z
1/2+x,1/2+y,1/2+z
1/2-x,1/2-y,1/2+z
1/2+x,1/2-y,1/2-z
1/2-x,1/2+y,1/2-z
loop_
_atom_site_type_symbol
_atom_site_label
_atom_site_fract_x
_atom_site_fract_y
_atom_site_fract_z
Si Si1 0.878584 0.714432 0.246505
Si Si2 0.294591 0.651347 0.127433
Si Si3 0.542833 0.360881 0.729341
Si Si4 0.755428 0.664011 0.659170
Si Si5 0.979961 0.341313 0.576036
Si Si6 0.389098 0.619212 0.868529
Si Si7 0.850532 0.399089 0.209612
Si Si8 0.707446 0.090373 0.065371
O O1 0.826597 0.753114 0.310547
O O2 0.830669 0.785460 0.186035
O O3 0.892461 0.548108 0.228320
O O4 0.966152 0.777736 0.257451
O O5 0.363212 0.538046 0.105053
O O6 0.219740 0.566325 0.159048
O O7 0.253472 0.752864 0.073304
O O8 0.500000 0.500000 0.696664
O O9 0.594599 0.409637 0.792045
O O10 0.595547 0.240974 0.692116
O O11 0.810905 0.779391 0.621446
O O12 0.806874 0.641023 0.723719
O O13 0.756802 0.517205 0.618685
O O14 0.883554 0.351062 0.578353
O O15 0.000000 0.500000 0.605404
O O16 0.000000 0.342017 0.500000
O O17 0.034566 0.211384 0.604892
O O18 0.708320 0.000000 0.000000
#
# Coordination Sequence:
#
# PCOD9330794 Si02
#       8
#     8   8   8   8   8   8   8   8
#     4  11  20  37  57  85 122 156 198 248 311 372
#     4  11  23  38  58  87 119 162 209 256 304 364
#     4  11  23  33  55  92 120 147 193 245 310 374
#     4  10  21  34  59  81 115 160 203 244 300 360
#     4  11  21  38  58  77 113 160 214 254 294 343
#     4  11  21  37  57  83 119 160 206 253 295 352
#     4  10  22  37  58  84 119 159 196 246 312 371
#     4  12  23  39  58  85 116 164 211 253 299 360
#
# _framework density 20.162414999999999
#
# number of rings (size 3 to 8) (size 9 to 14) (size 15 to 20)
#    0.000    1.125    6.250    1.125    1.750    0.000 
#    0.000    3.125    0.000    0.000    0.000    1.750 
#    0.000    2.000    0.000    0.000    0.000    0.000 
#
# Total GULP energy -178176.587446 kJ/mol
# GULP energy per Si atom -5568.018358 kJ/mol
# Density = 2.011652 g / cm^3
# Si number density = 20.162415 Si / 1000 Ang^3
#
#
#
# Elastic Constant Matrix: (Units=GPa)
#
#
# Indices 1 2 3 4 5 6 
#
# 1 41.9538 18.6972 14.3691 0.0000 0.0000 0.0000
# 2 18.6972 130.2014 25.0653 0.0000 0.0000 0.0000
# 3 14.3691 25.0653 44.3148 0.0000 0.0000 0.0000
# 4 0.0000 0.0000 0.0000 18.3484 0.0000 0.0000
# 5 0.0000 0.0000 0.0000 0.0000 15.7301 0.0000
# 6 0.0000 0.0000 0.0000 0.0000 0.0000 38.9895
#
#
#
# Elastic Compliance Matrix: (Units=1/GPa)
#
#
# Indices 1 2 3 4 5 6 
#
# 1 0.027524 -0.002507 -0.007506 0.000000 0.000000 0.000000
# 2 -0.002507 0.008847 -0.004191 0.000000 0.000000 0.000000
# 3 -0.007506 -0.004191 0.027370 0.000000 0.000000 0.000000
# 4 0.000000 0.000000 0.000000 0.054501 0.000000 0.000000
# 5 0.000000 0.000000 0.000000 0.000000 0.063572 0.000000
# 6 0.000000 0.000000 0.000000 0.000000 0.000000 0.025648
#
#
# Mechanical properties :
#
#
# Convention : Reuss Voigt Hill
#
# Bulk Modulus (GPa) = 28.30316 36.97036 32.63676
# Shear Modulus (GPa) = 20.18974 25.16949 22.67961
#
# Velocity S-wave (km/s) = 3.16785 3.53701 3.35751
# Velocity P-wave (km/s) = 5.23913 5.92087 5.59040
#
# Compressibility (1/GPa) = 0.03533174
#
# Stress axis : x y z
#
# Youngs Moduli (GPa) = 36.33170 113.02835 36.53576
#
# Poissons Ratio (x) = 0.28341 0.27425
# Poissons Ratio (y) = 0.09110 0.15313
# Poissons Ratio (z) = 0.27272 0.47372
#
# Static dielectric constant tensor:
#      x y z
#    x 1.841610 0.000000 0.000000 
#    y 0.000000 2.401660 0.000000 
#    z 0.000000 0.000000 1.741750 
# 
# From -- ./inp_files/11473.got.cif
#   From: 2010.05.17/outbox.cif.g08.bks.cpg/sg23_6_cif.got.tgz:11473.got - 2010.06.04 12:02:01.
