data_PCOD9330170
_publ_section_title
;
Structure prediction by ZEFSAII (Michael W. Deem and Ramdas Pophale) SiO2 
 PCOD9330170
Probable space group: I 2 2 2
;
_chemical_formula_sum "Si O2"
_cell_formula_units_Z 52
_cell_length_a 13.663762
_cell_length_b 26.002137
_cell_length_c 8.385504
_cell_angle_alpha 90.000000
_cell_angle_beta 90.000000
_cell_angle_gamma 90.000000
_cell_volume 2979.260656
_symmetry_space_group_name_H-M "I 2 2 2"
_symmetry_group_IT_number 23
_symmetry_cell_setting 'orthorhombic'
loop_
_space_group_symop_operation_xyz
x,y,z
-x,-y,z
x,-y,-z
-x,y,-z
1/2+x,1/2+y,1/2+z
1/2-x,1/2-y,1/2+z
1/2+x,1/2-y,1/2-z
1/2-x,1/2+y,1/2-z
loop_
_atom_site_type_symbol
_atom_site_label
_atom_site_fract_x
_atom_site_fract_y
_atom_site_fract_z
Si Si1 0.338599 0.000000 0.000000
Si Si2 0.863014 0.288936 0.665858
Si Si3 0.000000 0.592064 0.000000
Si Si4 0.000000 0.500000 0.760286
Si Si5 0.047073 0.236448 0.831154
Si Si6 0.117744 0.391840 0.521449
Si Si7 0.688781 0.703576 0.086087
Si Si8 0.166099 0.340183 0.865970
O O1 0.404360 0.993907 0.843772
O O2 0.308448 0.939891 0.012725
O O3 0.872364 0.346981 0.607504
O O4 0.781074 0.286503 0.800513
O O5 0.837100 0.254310 0.513678
O O6 0.961925 0.265801 0.736534
O O7 0.093502 0.627787 0.021229
O O8 0.988549 0.552197 0.143027
O O9 0.099131 0.195809 0.711452
O O10 0.126388 0.281615 0.862237
O O11 0.000000 0.218439 0.000000
O O12 0.148474 0.366528 0.692400
O O13 0.000000 0.406390 0.500000
O O14 0.727302 0.663315 0.950810
#
# Coordination Sequence:
#
# PCOD9330170 Si02
#       8
#     4   8   4   4   8   8   8   8
#     4  11  20  30  46  74 102 134 187 230 257 324
#     4  12  21  36  55  74 111 149 189 229 276 328
#     4  11  20  34  50  76 102 156 184 223 272 320
#     4  10  20  30  50  74 106 136 200 222 250 324
#     4  12  22  36  54  74 105 148 194 233 272 328
#     4  12  20  33  51  73 103 150 190 225 274 326
#     4  12  23  35  51  82 104 143 203 230 271 333
#     4  12  21  34  50  74 108 141 196 230 272 326
#
# _framework density 17.453994000000002
#
# number of rings (size 3 to 8) (size 9 to 14) (size 15 to 20)
#    0.000    0.308   10.000    0.462    2.154    0.000 
#    0.000    0.000    0.000    0.000    0.000    0.000 
#    0.000    0.000    0.000  105.923    0.000    2.692 
#
# Total GULP energy -144776.722002 kJ/mol
# GULP energy per Si atom -5568.335462 kJ/mol
# Density = 1.741427 g / cm^3
# Si number density = 17.453994 Si / 1000 Ang^3
#
#
#
# Elastic Constant Matrix: (Units=GPa)
#
#
# Indices 1 2 3 4 5 6 
#
# 1 52.7707 23.1870 32.7491 0.0008 0.0001 0.0000
# 2 23.1870 64.1918 22.5524 0.0013 -0.0003 0.0000
# 3 32.7491 22.5524 105.0202 0.0158 -0.0008 0.0003
# 4 0.0008 0.0013 0.0158 -21.8229 -0.0021 0.0002
# 5 0.0001 -0.0003 -0.0008 -0.0021 37.8756 0.0002
# 6 0.0000 0.0000 0.0003 0.0002 0.0002 13.5558
#
#
#
# Elastic Compliance Matrix: (Units=1/GPa)
#
#
# Indices 1 2 3 4 5 6 
#
# 1 0.026205 -0.007133 -0.006640 -0.000004 0.000000 0.000000
# 2 -0.007133 0.018791 -0.001811 0.000000 0.000000 0.000000
# 3 -0.006640 -0.001811 0.011981 0.000008 0.000000 0.000000
# 4 -0.000004 0.000000 0.000008 -0.045823 -0.000003 0.000001
# 5 0.000000 0.000000 0.000000 -0.000003 0.026402 0.000000
# 6 0.000000 0.000000 0.000000 0.000001 0.000000 0.073769
#
#
# Mechanical properties :
#
#
# Convention : Reuss Voigt Hill
#
# Bulk Modulus (GPa) = 38.74480 42.10663 40.42572
# Shear Modulus (GPa) = 33.09164 15.48797 24.28981
#
# Velocity S-wave (km/s) = 4.35896 2.98209 3.73453
# Velocity P-wave (km/s) = 6.89786 6.00282 6.46585
#
# Compressibility (1/GPa) = 0.02580991
#
# Stress axis : x y z
#
# Youngs Moduli (GPa) = 38.16125 53.21698 83.46249
#
# Poissons Ratio (x) = 0.37958 0.55418
# Poissons Ratio (y) = 0.27219 0.15115
# Poissons Ratio (z) = 0.25339 0.09638
#
# Static dielectric constant tensor:
#      x y z
#    x 1.624580 0.000000 0.000000 
#    y 0.000000 1.646090 0.000000 
#    z 0.000000 0.000000 1.717340 
# 
# From -- ./inp_files/8841.got.cif
#   From: 2010.05.17/outbox.cif.g08.bks.cpg/sg23_5_cif.got.tgz:8841.got - 2010.06.04 12:02:01.
