data_PCOD9330987
_publ_section_title
;
Structure prediction by ZEFSAII (Michael W. Deem and Ramdas Pophale) SiO2 
 PCOD9330987
Probable space group: I 2 2 2
;
_chemical_formula_sum "Si O2"
_cell_formula_units_Z 46
_cell_length_a 17.814720
_cell_length_b 11.764839
_cell_length_c 10.192796
_cell_angle_alpha 90.000000
_cell_angle_beta 90.000000
_cell_angle_gamma 90.000000
_cell_volume 2136.280722
_symmetry_space_group_name_H-M "I 2 2 2"
_symmetry_group_IT_number 23
_symmetry_cell_setting 'orthorhombic'
loop_
_space_group_symop_operation_xyz
x,y,z
-x,-y,z
x,-y,-z
-x,y,-z
1/2+x,1/2+y,1/2+z
1/2-x,1/2-y,1/2+z
1/2+x,1/2-y,1/2-z
1/2-x,1/2+y,1/2-z
loop_
_atom_site_type_symbol
_atom_site_label
_atom_site_fract_x
_atom_site_fract_y
_atom_site_fract_z
Si Si1 0.589499 0.312004 0.157631
Si Si2 0.220185 0.721526 0.492123
Si Si3 0.590784 0.489955 0.350674
Si Si4 0.130980 0.500000 0.500000
Si Si5 0.472601 0.885636 0.776528
Si Si6 0.659681 0.724647 0.292170
Si Si7 0.500000 0.500000 0.000000
O O1 0.658458 0.300525 0.060571
O O2 0.612473 0.366672 0.295526
O O3 0.539762 0.197649 0.174471
O O4 0.542601 0.413404 0.093635
O O5 0.188072 0.599303 0.538064
O O6 0.296400 0.739349 0.571456
O O7 0.210157 0.740159 0.335470
O O8 0.500000 0.500000 0.350301
O O9 0.615799 0.500000 0.500000
O O10 0.629775 0.595420 0.276531
O O11 0.076209 0.558778 0.394578
O O12 0.413882 0.803988 0.705280
O O13 0.500000 0.000000 0.703645
#
# Coordination Sequence:
#
# PCOD9330987 Si02
#       7
#     8   8   8   4   8   8   2
#     4  12  22  40  68 106 138 185 240 304 349 413
#     4  11  26  42  69 106 151 188 236 287 364 439
#     4  11  24  44  74 103 138 186 244 309 371 422
#     4  10  21  38  68 106 137 188 226 288 355 420
#     4  11  21  40  71 104 138 180 245 291 349 425
#     4  11  26  46  70 110 143 194 238 293 361 439
#     4  12  20  36  68 104 140 168 246 312 336 400
#
# _framework density 21.532751000000001
#
# number of rings (size 3 to 8) (size 9 to 14) (size 15 to 20)
#    0.000    0.870    4.348    3.391    6.087    1.391 
#    0.000    0.000    0.000    8.348    0.000    0.000 
#    0.000    0.000    0.000    0.000    0.000    0.000 
#
# Total GULP energy -128367.579686 kJ/mol
# GULP energy per Si atom -5581.199117 kJ/mol
# Density = 2.148374 g / cm^3
# Si number density = 21.532751 Si / 1000 Ang^3
#
#
#
# Elastic Constant Matrix: (Units=GPa)
#
#
# Indices 1 2 3 4 5 6 
#
# 1 70.3441 25.0026 16.8553 0.0000 0.0000 0.0000
# 2 25.0026 125.5348 20.4204 0.0000 0.0000 0.0000
# 3 16.8553 20.4204 82.8721 0.0000 0.0000 0.0000
# 4 0.0000 0.0000 0.0000 23.1338 0.0000 0.0000
# 5 0.0000 0.0000 0.0000 0.0000 22.3161 0.0000
# 6 0.0000 0.0000 0.0000 0.0000 0.0000 16.8473
#
#
#
# Elastic Compliance Matrix: (Units=1/GPa)
#
#
# Indices 1 2 3 4 5 6 
#
# 1 0.015796 -0.002733 -0.002539 0.000000 0.000000 0.000000
# 2 -0.002733 0.008771 -0.001605 0.000000 0.000000 0.000000
# 3 -0.002539 -0.001605 0.012979 0.000000 0.000000 0.000000
# 4 0.000000 0.000000 0.000000 0.043227 0.000000 0.000000
# 5 0.000000 0.000000 0.000000 0.000000 0.044811 0.000000
# 6 0.000000 0.000000 0.000000 0.000000 0.000000 0.059357
#
#
# Mechanical properties :
#
#
# Convention : Reuss Voigt Hill
#
# Bulk Modulus (GPa) = 42.03355 44.81195 43.42275
# Shear Modulus (GPa) = 24.19835 26.89094 25.54465
#
# Velocity S-wave (km/s) = 3.35594 3.53773 3.44803
# Velocity P-wave (km/s) = 5.88044 6.12728 6.00513
#
# Compressibility (1/GPa) = 0.02379052
#
# Stress axis : x y z
#
# Youngs Moduli (GPa) = 63.30856 114.00691 77.04837
#
# Poissons Ratio (x) = 0.31157 0.19565
# Poissons Ratio (y) = 0.17302 0.12370
# Poissons Ratio (z) = 0.16076 0.18304
#
# Static dielectric constant tensor:
#      x y z
#    x 1.842060 0.000000 0.000000 
#    y 0.000000 1.891280 0.000000 
#    z 0.000000 0.000000 2.006560 
# 
# From -- ./inp_files/17425.got.cif
#   From: 2010.05.17/outbox.cif.g08.bks.cpg/sg23_9_cif.got.tgz:17425.got - 2010.06.04 12:02:01.
