data_PCOD9330224
_publ_section_title
;
Structure prediction by ZEFSAII (Michael W. Deem and Ramdas Pophale) SiO2 
 PCOD9330224
Probable space group: I 2 2 2
;
_chemical_formula_sum "Si O2"
_cell_formula_units_Z 44
_cell_length_a 14.557545
_cell_length_b 5.102785
_cell_length_c 29.537182
_cell_angle_alpha 90.000000
_cell_angle_beta 90.000000
_cell_angle_gamma 90.000000
_cell_volume 2194.140685
_symmetry_space_group_name_H-M "I 2 2 2"
_symmetry_group_IT_number 23
_symmetry_cell_setting 'orthorhombic'
loop_
_space_group_symop_operation_xyz
x,y,z
-x,-y,z
x,-y,-z
-x,y,-z
1/2+x,1/2+y,1/2+z
1/2-x,1/2-y,1/2+z
1/2+x,1/2-y,1/2-z
1/2-x,1/2+y,1/2-z
loop_
_atom_site_type_symbol
_atom_site_label
_atom_site_fract_x
_atom_site_fract_y
_atom_site_fract_z
Si Si1 0.062204 0.241547 0.855941
Si Si2 0.755624 0.916286 0.374776
Si Si3 0.900956 0.893985 0.449522
Si Si4 0.000000 0.500000 0.399622
Si Si5 0.937268 0.756681 0.752245
Si Si6 0.662754 0.898281 0.165864
O O1 0.154820 0.304666 0.882516
O O2 0.092222 0.184348 0.803719
O O3 0.000000 0.500000 0.855893
O O4 0.000000 0.000000 0.871621
O O5 0.812949 0.960046 0.420403
O O6 0.809375 0.697605 0.344674
O O7 0.759227 0.197519 0.350734
O O8 0.922288 0.594781 0.436137
O O9 0.893108 0.000000 0.500000
O O10 0.000000 0.000000 0.431760
O O11 0.068194 0.644419 0.363201
O O12 0.858580 0.681389 0.717119
O O13 0.000000 0.500000 0.754039
O O14 0.000000 0.000000 0.736327
#
# Coordination Sequence:
#
# PCOD9330224 Si02
#       6
#     8   8   8   4   8   8
#     4  10  22  41  61  81 114 157 211 264 308 344
#     4  11  23  38  58  88 115 158 206 247 300 367
#     4  10  21  37  56  86 126 155 189 231 304 373
#     4  10  20  35  54  84 126 168 196 224 297 370
#     4  10  20  33  54  82 116 162 203 247 301 353
#     4  11  21  33  56  83 124 154 201 240 292 363
#
# _framework density 20.053408999999998
#
# number of rings (size 3 to 8) (size 9 to 14) (size 15 to 20)
#    0.000    1.636    2.727    2.182    2.545    2.909 
#    0.000    0.000    0.000    0.545    0.000    1.273 
#    0.000    0.000    0.000    0.000    0.000    0.000 
#
# Total GULP energy -122539.194562 kJ/mol
# GULP energy per Si atom -5569.963389 kJ/mol
# Density = 2.000777 g / cm^3
# Si number density = 20.053409 Si / 1000 Ang^3
#
#
#
# Elastic Constant Matrix: (Units=GPa)
#
#
# Indices 1 2 3 4 5 6 
#
# 1 103.6625 9.5089 38.6549 0.0000 0.0000 0.0000
# 2 9.5089 72.1164 2.4971 0.0000 0.0000 0.0000
# 3 38.6549 2.4971 43.8268 0.0000 0.0000 0.0000
# 4 0.0000 0.0000 0.0000 18.5506 0.0000 0.0000
# 5 0.0000 0.0000 0.0000 0.0000 18.5613 0.0000
# 6 0.0000 0.0000 0.0000 0.0000 0.0000 34.4542
#
#
#
# Elastic Compliance Matrix: (Units=1/GPa)
#
#
# Indices 1 2 3 4 5 6 
#
# 1 0.014529 -0.001475 -0.012730 0.000000 0.000000 0.000000
# 2 -0.001475 0.014044 0.000501 0.000000 0.000000 0.000000
# 3 -0.012730 0.000501 0.034017 0.000000 0.000000 0.000000
# 4 0.000000 0.000000 0.000000 0.053907 0.000000 0.000000
# 5 0.000000 0.000000 0.000000 0.000000 0.053875 0.000000
# 6 0.000000 0.000000 0.000000 0.000000 0.000000 0.029024
#
#
# Mechanical properties :
#
#
# Convention : Reuss Voigt Hill
#
# Bulk Modulus (GPa) = 28.42522 35.65859 32.04191
# Shear Modulus (GPa) = 20.96158 25.57621 23.26890
#
# Velocity S-wave (km/s) = 3.23660 3.57516 3.41008
# Velocity P-wave (km/s) = 5.30782 5.90447 5.61408
#
# Compressibility (1/GPa) = 0.03518002
#
# Stress axis : x y z
#
# Youngs Moduli (GPa) = 68.82749 71.20674 29.39727
#
# Poissons Ratio (x) = 0.10502 0.37424
# Poissons Ratio (y) = 0.10151 -0.01472
# Poissons Ratio (z) = 0.87621 -0.03565
#
# Static dielectric constant tensor:
#      x y z
#    x 1.746100 0.000000 0.000000 
#    y 0.000000 2.935500 0.000000 
#    z 0.000000 0.000000 1.722590 
# 
# From -- ./inp_files/29545.got.cif
#   From: 2010.05.17/outbox.cif.g08.bks.cpg/sg23_15_cif.got.tgz:29545.got - 2010.06.04 12:02:01.
