data_PCOD9330834
_publ_section_title
;
Structure prediction by ZEFSAII (Michael W. Deem and Ramdas Pophale) SiO2 
 PCOD9330834
Probable space group: I 2 2 2
;
_chemical_formula_sum "Si O2"
_cell_formula_units_Z 38
_cell_length_a 25.464804
_cell_length_b 13.591279
_cell_length_c 5.016380
_cell_angle_alpha 90.000000
_cell_angle_beta 90.000000
_cell_angle_gamma 90.000000
_cell_volume 1736.165385
_symmetry_space_group_name_H-M "I 2 2 2"
_symmetry_group_IT_number 23
_symmetry_cell_setting 'orthorhombic'
loop_
_space_group_symop_operation_xyz
x,y,z
-x,-y,z
x,-y,-z
-x,y,-z
1/2+x,1/2+y,1/2+z
1/2-x,1/2-y,1/2+z
1/2+x,1/2-y,1/2-z
1/2-x,1/2+y,1/2-z
loop_
_atom_site_type_symbol
_atom_site_label
_atom_site_fract_x
_atom_site_fract_y
_atom_site_fract_z
Si Si1 0.208338 0.899698 0.142594
Si Si2 0.552814 0.339645 0.873690
Si Si3 0.620424 0.500000 0.000000
Si Si4 0.857271 0.722901 0.916809
Si Si5 0.823847 0.610933 0.393501
Si Si6 0.500000 0.500000 0.500000
O O1 0.180394 0.812061 0.984928
O O2 0.266231 0.871734 0.241660
O O3 0.160888 0.938943 0.321105
O O4 0.222987 0.000000 0.000000
O O5 0.584953 0.406086 0.090528
O O6 0.588993 0.265463 0.708935
O O7 0.534533 0.427142 0.678877
O O8 0.500000 0.295934 0.000000
O O9 0.828293 0.676093 0.659941
O O10 0.863041 0.648168 0.162435
O O11 0.833189 0.500000 0.500000
#
# Coordination Sequence:
#
# PCOD9330834 Si02
#       6
#     8   8   4   8   8   2
#     4  10  24  35  66  96 150 185 231 272 353 426
#     4  11  24  39  65 101 149 181 227 282 350 440
#     4  10  21  36  58 100 144 188 219 258 344 434
#     4  11  26  41  69 101 139 186 241 285 354 412
#     4  11  25  46  67  95 137 194 244 301 332 397
#     4  12  22  40  68  98 150 180 222 268 378 432
#
# _framework density 21.887316999999999
#
# number of rings (size 3 to 8) (size 9 to 14) (size 15 to 20)
#    0.000    1.263    2.105    1.895   20.632    0.000 
#    0.000    0.000    0.000    0.632    0.000    0.000 
#    0.000    0.000    0.000    0.000    0.000    0.000 
#
# Total GULP energy -105837.167424 kJ/mol
# GULP energy per Si atom -5570.377233 kJ/mol
# Density = 2.183750 g / cm^3
# Si number density = 21.887317 Si / 1000 Ang^3
#
#
#
# Elastic Constant Matrix: (Units=GPa)
#
#
# Indices 1 2 3 4 5 6 
#
# 1 96.3988 58.4749 29.7723 0.0000 0.0000 0.0000
# 2 58.4749 101.0224 36.4160 0.0000 0.0000 0.0000
# 3 29.7723 36.4160 75.0856 0.0000 0.0000 0.0000
# 4 0.0000 0.0000 0.0000 47.0462 0.0000 0.0000
# 5 0.0000 0.0000 0.0000 0.0000 34.6503 0.0000
# 6 0.0000 0.0000 0.0000 0.0000 0.0000 18.7924
#
#
#
# Elastic Compliance Matrix: (Units=1/GPa)
#
#
# Indices 1 2 3 4 5 6 
#
# 1 0.016305 -0.008613 -0.002288 0.000000 0.000000 0.000000
# 2 -0.008613 0.016546 -0.004609 0.000000 0.000000 0.000000
# 3 -0.002288 -0.004609 0.016461 0.000000 0.000000 0.000000
# 4 0.000000 0.000000 0.000000 0.021256 0.000000 0.000000
# 5 0.000000 0.000000 0.000000 0.000000 0.028860 0.000000
# 6 0.000000 0.000000 0.000000 0.000000 0.000000 0.053213
#
#
# Mechanical properties :
#
#
# Convention : Reuss Voigt Hill
#
# Bulk Modulus (GPa) = 54.67191 57.98147 56.32669
# Shear Modulus (GPa) = 26.34945 29.95403 28.15174
#
# Velocity S-wave (km/s) = 3.47344 3.70341 3.59027
# Velocity P-wave (km/s) = 6.41245 6.69593 6.55572
#
# Compressibility (1/GPa) = 0.01829093
#
# Stress axis : x y z
#
# Youngs Moduli (GPa) = 61.33193 60.43812 60.75031
#
# Poissons Ratio (x) = 0.52055 0.13898
# Poissons Ratio (y) = 0.52825 0.28003
# Poissons Ratio (z) = 0.14031 0.27859
#
# Static dielectric constant tensor:
#      x y z
#    x 2.107320 0.000000 0.000000 
#    y 0.000000 1.872130 0.000000 
#    z 0.000000 0.000000 1.884210 
# 
# From -- ./inp_files/4795.got.cif
#   From: 2010.05.17/outbox.cif.g08.bks.cpg/sg23_3_cif.got.tgz:4795.got - 2010.06.04 12:02:01.
