data_PCOD9330393
_publ_section_title
;
Structure prediction by ZEFSAII (Michael W. Deem and Ramdas Pophale) SiO2 
 PCOD9330393
Probable space group: I 2 2 2
;
_chemical_formula_sum "Si O2"
_cell_formula_units_Z 48
_cell_length_a 7.727632
_cell_length_b 22.010424
_cell_length_c 13.730855
_cell_angle_alpha 90.000000
_cell_angle_beta 90.000000
_cell_angle_gamma 90.000000
_cell_volume 2335.459938
_symmetry_space_group_name_H-M "I 2 2 2"
_symmetry_group_IT_number 23
_symmetry_cell_setting 'orthorhombic'
loop_
_space_group_symop_operation_xyz
x,y,z
-x,-y,z
x,-y,-z
-x,y,-z
1/2+x,1/2+y,1/2+z
1/2-x,1/2-y,1/2+z
1/2+x,1/2-y,1/2-z
1/2-x,1/2+y,1/2-z
loop_
_atom_site_type_symbol
_atom_site_label
_atom_site_fract_x
_atom_site_fract_y
_atom_site_fract_z
Si Si1 0.823177 0.215654 0.512616
Si Si2 0.313278 0.828517 0.332872
Si Si3 0.914009 0.433663 0.712894
Si Si4 0.076894 0.788621 0.729071
Si Si5 0.321702 0.158545 0.106360
Si Si6 0.805972 0.938758 0.961555
O O1 0.679640 0.184218 0.447681
O O2 0.812691 0.220276 0.628606
O O3 0.856680 0.276384 0.445325
O O4 0.000000 0.177844 0.500000
O O5 0.370956 0.896220 0.309024
O O6 0.429400 0.778659 0.276153
O O7 0.115220 0.814696 0.293895
O O8 0.735998 0.438460 0.651553
O O9 0.000000 0.500000 0.722449
O O10 0.034397 0.386070 0.652304
O O11 0.179503 0.828536 0.809431
O O12 0.260200 0.120725 0.013682
O O13 0.000000 0.941528 0.000000
O O14 0.714979 0.000000 0.000000
#
# Coordination Sequence:
#
# PCOD9330393 Si02
#       6
#     8   8   8   8   8   8
#     4   9  18  34  58  83 114 153 199 251 302 354
#     4  10  20  36  58  87 120 160 204 252 310 364
#     4  12  23  38  58  87 126 166 199 245 309 374
#     4  10  20  37  59  89 120 157 204 258 307 362
#     4  11  21  35  58  87 122 160 197 243 306 369
#     4  11  22  36  55  85 118 155 200 240 289 357
#
# _framework density 20.552695
#
# number of rings (size 3 to 8) (size 9 to 14) (size 15 to 20)
#    0.000    1.500    1.667    6.500    0.000    0.000 
#    0.000    6.667    0.000    2.000    0.000    3.500 
#    0.000    0.000    0.000    0.000    0.000    0.000 
#
# Total GULP energy -133605.405288 kJ/mol
# GULP energy per Si atom -5566.891887 kJ/mol
# Density = 2.050592 g / cm^3
# Si number density = 20.552695 Si / 1000 Ang^3
#
#
#
# Elastic Constant Matrix: (Units=GPa)
#
#
# Indices 1 2 3 4 5 6 
#
# 1 81.1822 30.4495 22.0162 -0.0001 0.0000 0.0000
# 2 30.4495 112.2787 35.5739 -0.0001 0.0000 0.0000
# 3 22.0162 35.5739 84.6321 -0.0006 0.0000 -0.0001
# 4 -0.0001 -0.0001 -0.0006 24.6247 0.0000 0.0000
# 5 0.0000 0.0000 0.0000 0.0000 22.7118 0.0000
# 6 0.0000 0.0000 -0.0001 0.0000 0.0000 10.7033
#
#
#
# Elastic Compliance Matrix: (Units=1/GPa)
#
#
# Indices 1 2 3 4 5 6 
#
# 1 0.014117 -0.003074 -0.002380 0.000000 0.000000 0.000000
# 2 -0.003074 0.010944 -0.003801 0.000000 0.000000 0.000000
# 3 -0.002380 -0.003801 0.014033 0.000000 0.000000 0.000000
# 4 0.000000 0.000000 0.000000 0.040610 0.000000 0.000000
# 5 0.000000 0.000000 0.000000 0.000000 0.044030 0.000000
# 6 0.000000 0.000000 0.000000 0.000000 0.000000 0.093429
#
#
# Mechanical properties :
#
#
# Convention : Reuss Voigt Hill
#
# Bulk Modulus (GPa) = 48.58235 50.46357 49.52296
# Shear Modulus (GPa) = 20.61577 24.27819 22.44698
#
# Velocity S-wave (km/s) = 3.17056 3.44068 3.30838
# Velocity P-wave (km/s) = 6.09037 6.35539 6.22429
#
# Compressibility (1/GPa) = 0.02058361
#
# Stress axis : x y z
#
# Youngs Moduli (GPa) = 70.83903 91.37195 71.26313
#
# Poissons Ratio (x) = 0.28090 0.16961
# Poissons Ratio (y) = 0.21778 0.27084
# Poissons Ratio (z) = 0.16860 0.34726
#
# Static dielectric constant tensor:
#      x y z
#    x 1.725690 0.000000 0.000000 
#    y 0.000000 1.892310 0.000000 
#    z 0.000000 0.000000 1.768720 
# 
# From -- ./inp_files/14756.got.cif
#   From: 2010.05.17/outbox.cif.g08.bks.cpg/sg23_8_cif.got.tgz:14756.got - 2010.06.04 12:02:01.
