data_PCOD9330465
_publ_section_title
;
Structure prediction by ZEFSAII (Michael W. Deem and Ramdas Pophale) SiO2 
 PCOD9330465
Probable space group: I 2 2 2
;
_chemical_formula_sum "Si O2"
_cell_formula_units_Z 34
_cell_length_a 31.179312
_cell_length_b 4.937444
_cell_length_c 10.757640
_cell_angle_alpha 90.000000
_cell_angle_beta 90.000000
_cell_angle_gamma 90.000000
_cell_volume 1656.096798
_symmetry_space_group_name_H-M "I 2 2 2"
_symmetry_group_IT_number 23
_symmetry_cell_setting 'orthorhombic'
loop_
_space_group_symop_operation_xyz
x,y,z
-x,-y,z
x,-y,-z
-x,y,-z
1/2+x,1/2+y,1/2+z
1/2-x,1/2-y,1/2+z
1/2+x,1/2-y,1/2-z
1/2-x,1/2+y,1/2-z
loop_
_atom_site_type_symbol
_atom_site_label
_atom_site_fract_x
_atom_site_fract_y
_atom_site_fract_z
Si Si1 0.417209 0.347783 0.622249
Si Si2 0.845715 0.500000 0.500000
Si Si3 0.878281 0.670479 0.755993
Si Si4 0.000000 0.000000 0.000000
Si Si5 0.201318 0.732822 0.084881
Si Si6 0.782082 0.000000 0.500000
O O1 0.397233 0.500000 0.500000
O O2 0.398114 0.059714 0.655241
O O3 0.467160 0.331490 0.585328
O O4 0.407239 0.562287 0.731206
O O5 0.874042 0.530352 0.622839
O O6 0.813675 0.248574 0.490016
O O7 0.830549 0.763256 0.800665
O O8 0.180297 0.500000 0.000000
O O9 0.248019 0.594485 0.107294
O O10 0.207236 0.000000 0.000000
#
# Coordination Sequence:
#
# PCOD9330465 Si02
#       6
#     8   4   8   2   8   4
#     4  10  22  40  67 100 116 153 186 265 311 366
#     4  12  26  40  55  89 122 188 200 251 283 388
#     4  12  23  38  64  86 133 158 213 233 313 366
#     4   8  24  38  74 104 124 134 192 254 340 338
#     4  10  20  37  61  86 111 160 206 286 307 337
#     4  10  22  40  56  82 122 156 238 254 324 318
#
# _framework density 20.530201999999999
#
# number of rings (size 3 to 8) (size 9 to 14) (size 15 to 20)
#    1.412    0.000    1.176    5.647    0.000    3.765 
#    0.000    0.000    0.000    4.235    0.000    0.000 
#    0.000    0.000    0.000    0.000    0.000    0.000 
#
# Total GULP energy -94679.640766 kJ/mol
# GULP energy per Si atom -5569.390633 kJ/mol
# Density = 2.048347 g / cm^3
# Si number density = 20.530202 Si / 1000 Ang^3
#
#
#
# Elastic Constant Matrix: (Units=GPa)
#
#
# Indices 1 2 3 4 5 6 
#
# 1 101.1842 34.6339 29.2582 0.0000 0.0000 0.0000
# 2 34.6339 146.5271 10.0944 0.0000 0.0000 0.0000
# 3 29.2582 10.0944 68.4145 0.0000 0.0000 0.0000
# 4 0.0000 0.0000 0.0000 7.4234 0.0000 0.0000
# 5 0.0000 0.0000 0.0000 0.0000 10.1055 0.0000
# 6 0.0000 0.0000 0.0000 0.0000 0.0000 28.0867
#
#
#
# Elastic Compliance Matrix: (Units=1/GPa)
#
#
# Indices 1 2 3 4 5 6 
#
# 1 0.012146 -0.002539 -0.004820 0.000000 0.000000 0.000000
# 2 -0.002539 0.007425 -0.000010 0.000000 0.000000 0.000000
# 3 -0.004820 -0.000010 0.016679 0.000000 0.000000 0.000000
# 4 0.000000 0.000000 0.000000 0.134709 0.000000 0.000000
# 5 0.000000 0.000000 0.000000 0.000000 0.098956 0.000000
# 6 0.000000 0.000000 0.000000 0.000000 0.000000 0.035604
#
#
# Mechanical properties :
#
#
# Convention : Reuss Voigt Hill
#
# Bulk Modulus (GPa) = 46.48152 51.56655 49.02404
# Shear Modulus (GPa) = 15.27058 25.26576 20.26817
#
# Velocity S-wave (km/s) = 2.73025 3.51189 3.14544
# Velocity P-wave (km/s) = 5.71216 6.45108 6.09283
#
# Compressibility (1/GPa) = 0.02151392
#
# Stress axis : x y z
#
# Youngs Moduli (GPa) = 82.33458 134.67231 59.95426
#
# Poissons Ratio (x) = 0.34190 0.28895
# Poissons Ratio (y) = 0.20903 0.00059
# Poissons Ratio (z) = 0.39682 0.00133
#
# Static dielectric constant tensor:
#      x y z
#    x 1.764230 0.000000 0.000000 
#    y 0.000000 1.732730 0.000000 
#    z 0.000000 0.000000 1.802010 
# 
# From -- ./inp_files/18703.got.cif
#   From: 2010.05.17/outbox.cif.g08.bks.cpg/sg23_10_cif.got.tgz:18703.got - 2010.06.04 12:02:01.
