data_PCOD9330023
_publ_section_title
;
Structure prediction by ZEFSAII (Michael W. Deem and Ramdas Pophale) SiO2 
 PCOD9330023
Probable space group: I 2 2 2
;
_chemical_formula_sum "Si O2"
_cell_formula_units_Z 26
_cell_length_a 18.906423
_cell_length_b 13.941392
_cell_length_c 5.242543
_cell_angle_alpha 90.000000
_cell_angle_beta 90.000000
_cell_angle_gamma 90.000000
_cell_volume 1381.839206
_symmetry_space_group_name_H-M "I 2 2 2"
_symmetry_group_IT_number 23
_symmetry_cell_setting 'orthorhombic'
loop_
_space_group_symop_operation_xyz
x,y,z
-x,-y,z
x,-y,-z
-x,y,-z
1/2+x,1/2+y,1/2+z
1/2-x,1/2-y,1/2+z
1/2+x,1/2-y,1/2-z
1/2-x,1/2+y,1/2-z
loop_
_atom_site_type_symbol
_atom_site_label
_atom_site_fract_x
_atom_site_fract_y
_atom_site_fract_z
Si Si1 0.500000 0.000000 0.000000
Si Si2 0.339555 0.765224 0.345156
Si Si3 0.115982 0.638158 0.327853
Si Si4 0.738059 0.599157 0.884816
O O1 0.449187 0.933320 0.832341
O O2 0.384802 0.785302 0.598012
O O3 0.317205 0.657345 0.284675
O O4 0.266433 0.824735 0.401586
O O5 0.376463 0.811318 0.100061
O O6 0.189074 0.581262 0.270093
O O7 0.712568 0.500000 0.000000
#
# Coordination Sequence:
#
# PCOD9330023 Si02
#       4
#     2   8   8   8
#     4  12  24  38  60  86 126 182 200 240 316 386
#     4  10  20  38  53  84 125 156 209 262 290 373
#     4  10  22  36  52  84 123 159 208 242 303 369
#     4  10  19  36  59  82 120 167 201 253 311 359
#
# _framework density 18.815503
#
# number of rings (size 3 to 8) (size 9 to 14) (size 15 to 20)
#    1.846    0.000    3.077    1.846    0.000    2.462 
#    0.000    0.000    0.000    0.000    0.000    1.077 
#    0.000   14.769    0.000    0.000    0.000    0.000 
#
# Total GULP energy -72459.660464 kJ/mol
# GULP energy per Si atom -5573.820036 kJ/mol
# Density = 1.877268 g / cm^3
# Si number density = 18.815503 Si / 1000 Ang^3
#
#
#
# Elastic Constant Matrix: (Units=GPa)
#
#
# Indices 1 2 3 4 5 6 
#
# 1 75.1462 43.3387 32.6472 0.0000 0.0000 0.0000
# 2 43.3387 102.6494 31.3260 0.0000 0.0000 0.0000
# 3 32.6472 31.3260 118.5418 0.0000 0.0000 0.0000
# 4 0.0000 0.0000 0.0000 33.0885 0.0000 0.0000
# 5 0.0000 0.0000 0.0000 0.0000 -13.1592 0.0000
# 6 0.0000 0.0000 0.0000 0.0000 0.0000 35.9169
#
#
#
# Elastic Compliance Matrix: (Units=1/GPa)
#
#
# Indices 1 2 3 4 5 6 
#
# 1 0.018731 -0.006890 -0.003338 0.000000 0.000000 0.000000
# 2 -0.006890 0.013131 -0.001572 0.000000 0.000000 0.000000
# 3 -0.003338 -0.001572 0.009771 0.000000 0.000000 0.000000
# 4 0.000000 0.000000 0.000000 0.030222 0.000000 0.000000
# 5 0.000000 0.000000 0.000000 0.000000 -0.075993 0.000000
# 6 0.000000 0.000000 0.000000 0.000000 0.000000 0.027842
#
#
# Mechanical properties :
#
#
# Convention : Reuss Voigt Hill
#
# Bulk Modulus (GPa) = 55.45644 56.77348 56.11496
# Shear Modulus (GPa) = 93.78338 23.77095 58.77717
#
# Velocity S-wave (km/s) = 7.06766 3.55825 5.59522
# Velocity P-wave (km/s) = 9.80512 6.86446 8.46348
#
# Compressibility (1/GPa) = 0.01803217
#
# Stress axis : x y z
#
# Youngs Moduli (GPa) = 53.38758 76.15820 102.34698
#
# Poissons Ratio (x) = 0.52470 0.34163
# Poissons Ratio (y) = 0.36782 0.16094
# Poissons Ratio (z) = 0.17821 0.11976
#
# Static dielectric constant tensor:
#      x y z
#    x 1.656940 0.000000 0.000000 
#    y 0.000000 1.655430 0.000000 
#    z 0.000000 0.000000 1.730160 
# 
# From -- ./inp_files/1203.got.cif
#   From: 2010.05.17/outbox.cif.g08.bks.cpg/sg23_1_cif.got.tgz:1203.got - 2010.06.04 12:02:01.
