data_PCOD9330321
_publ_section_title
;
Structure prediction by ZEFSAII (Michael W. Deem and Ramdas Pophale) SiO2 
 PCOD9330321
Probable space group: I 2 2 2
;
_chemical_formula_sum "Si O2"
_cell_formula_units_Z 64
_cell_length_a 12.612449
_cell_length_b 17.390481
_cell_length_c 16.370030
_cell_angle_alpha 90.000000
_cell_angle_beta 90.000000
_cell_angle_gamma 90.000000
_cell_volume 3590.545981
_symmetry_space_group_name_H-M "I 2 2 2"
_symmetry_group_IT_number 23
_symmetry_cell_setting 'orthorhombic'
loop_
_space_group_symop_operation_xyz
x,y,z
-x,-y,z
x,-y,-z
-x,y,-z
1/2+x,1/2+y,1/2+z
1/2-x,1/2-y,1/2+z
1/2+x,1/2-y,1/2-z
1/2-x,1/2+y,1/2-z
loop_
_atom_site_type_symbol
_atom_site_label
_atom_site_fract_x
_atom_site_fract_y
_atom_site_fract_z
Si Si1 0.277340 0.923420 0.748956
Si Si2 0.863610 0.807925 0.700363
Si Si3 0.722081 0.183504 0.905337
Si Si4 0.971257 0.191962 0.910718
Si Si5 0.543612 0.172984 0.686488
Si Si6 0.380258 0.916205 0.034396
Si Si7 0.836753 0.600806 0.272328
Si Si8 0.471193 0.587855 0.255214
O O1 0.302997 0.881898 0.836251
O O2 0.357666 0.884850 0.684830
O O3 0.153305 0.905311 0.735540
O O4 0.299558 0.014131 0.751416
O O5 0.830165 0.763874 0.618996
O O6 0.920231 0.739903 0.751009
O O7 0.761220 0.842405 0.748568
O O8 0.950951 0.873517 0.689927
O O9 0.845974 0.198137 0.903271
O O10 0.687374 0.149219 0.990767
O O11 0.999946 0.131553 0.839725
O O12 0.019656 0.276092 0.893073
O O13 0.000000 0.163420 0.000000
O O14 0.439654 0.130028 0.721867
O O15 0.368987 0.905226 0.131663
O O16 0.500000 0.908343 0.000000
O O17 0.344196 0.000000 0.000000
O O18 0.500000 0.500000 0.265238
#
# Coordination Sequence:
#
# PCOD9330321 Si02
#       8
#     8   8   8   8   8   8   8   8
#     4  10  20  35  59  85 116 150 196 248 283 351
#     4  10  21  36  56  81 119 163 198 235 287 356
#     4  10  20  39  53  83 124 152 194 239 291 357
#     4  10  22  37  55  80 118 157 193 247 293 344
#     4  10  22  37  57  83 116 154 204 241 287 357
#     4  11  23  35  55  88 125 154 186 242 306 362
#     4  12  21  37  62  87 116 160 197 240 302 358
#     4  10  20  35  55  88 121 150 196 236 292 359
#
# _framework density 17.824586
#
# number of rings (size 3 to 8) (size 9 to 14) (size 15 to 20)
#    0.000    1.625    3.750    1.875    7.000    0.250 
#    0.000    0.000    0.000    1.500    0.000    0.000 
#    0.000    0.000    0.000    0.000    0.000    0.000 
#
# Total GULP energy -178313.900734 kJ/mol
# GULP energy per Si atom -5572.309398 kJ/mol
# Density = 1.778402 g / cm^3
# Si number density = 17.824586 Si / 1000 Ang^3
#
#
#
# Elastic Constant Matrix: (Units=GPa)
#
#
# Indices 1 2 3 4 5 6 
#
# 1 77.3878 34.5051 5.9507 0.0000 0.0000 0.0000
# 2 34.5051 87.7554 22.3311 0.0000 0.0000 0.0000
# 3 5.9507 22.3311 13.2521 0.0000 0.0000 0.0000
# 4 0.0000 0.0000 0.0000 20.5142 0.0000 0.0000
# 5 0.0000 0.0000 0.0000 0.0000 18.1491 0.0000
# 6 0.0000 0.0000 0.0000 0.0000 0.0000 -1.4435
#
#
#
# Elastic Compliance Matrix: (Units=1/GPa)
#
#
# Indices 1 2 3 4 5 6 
#
# 1 0.015933 -0.007781 0.005956 0.000000 0.000000 0.000000
# 2 -0.007781 0.023749 -0.036526 0.000000 0.000000 0.000000
# 3 0.005956 -0.036526 0.134336 0.000000 0.000000 0.000001
# 4 0.000000 0.000000 0.000000 0.048747 0.000000 0.000000
# 5 0.000000 0.000000 0.000000 0.000000 0.055099 0.000000
# 6 0.000000 0.000000 0.000001 0.000000 0.000000 -0.692779
#
#
# Mechanical properties :
#
#
# Convention : Reuss Voigt Hill
#
# Bulk Modulus (GPa) = 10.27569 33.77435 22.02502
# Shear Modulus (GPa) = -16.35189 15.15119 -0.60035
#
# Velocity S-wave (km/s) = -3.03211 2.91867 -0.58098
# Velocity P-wave (km/s) = 2.54575 5.50885 3.45446
#
# Compressibility (1/GPa) = 0.09731703
#
# Stress axis : x y z
#
# Youngs Moduli (GPa) = 62.76265 42.10631 7.44405
#
# Poissons Ratio (x) = 0.32761 -0.04434
# Poissons Ratio (y) = 0.48833 0.27190
# Poissons Ratio (z) = -0.37384 1.53799
#
# Static dielectric constant tensor:
#      x y z
#    x 1.657450 0.000000 0.000000 
#    y 0.000000 1.626760 0.000000 
#    z 0.000000 0.000000 1.781280 
# 
# From -- ./inp_files/24492.got.cif
#   From: 2010.05.17/outbox.cif.g08.bks.cpg/sg23_13_cif.got.tgz:24492.got - 2010.06.04 12:02:01.
