data_PCOD9330508
_publ_section_title
;
Structure prediction by ZEFSAII (Michael W. Deem and Ramdas Pophale) SiO2 
 PCOD9330508
Probable space group: I 2 2 2
;
_chemical_formula_sum "Si O2"
_cell_formula_units_Z 54
_cell_length_a 5.213204
_cell_length_b 14.401228
_cell_length_c 36.009674
_cell_angle_alpha 90.000000
_cell_angle_beta 90.000000
_cell_angle_gamma 90.000000
_cell_volume 2703.481709
_symmetry_space_group_name_H-M "I 2 2 2"
_symmetry_group_IT_number 23
_symmetry_cell_setting 'orthorhombic'
loop_
_space_group_symop_operation_xyz
x,y,z
-x,-y,z
x,-y,-z
-x,y,-z
1/2+x,1/2+y,1/2+z
1/2-x,1/2-y,1/2+z
1/2+x,1/2-y,1/2-z
1/2-x,1/2+y,1/2-z
loop_
_atom_site_type_symbol
_atom_site_label
_atom_site_fract_x
_atom_site_fract_y
_atom_site_fract_z
Si Si1 0.510736 0.112645 0.135429
Si Si2 0.508509 0.390983 0.323024
Si Si3 0.121437 0.103729 0.334057
Si Si4 0.857531 0.192634 0.745861
Si Si5 0.500000 0.000000 0.372003
Si Si6 0.000000 0.500000 0.000000
Si Si7 0.356738 0.720460 0.092351
Si Si8 0.673404 0.122448 0.433788
O O1 0.721841 0.139449 0.166819
O O2 0.615064 0.170097 0.100271
O O3 0.230218 0.145127 0.149339
O O4 0.500000 0.000000 0.130638
O O5 0.500000 0.500000 0.328968
O O6 0.586494 0.371932 0.281063
O O7 0.088677 0.146314 0.293761
O O8 0.416139 0.081222 0.344551
O O9 0.062435 0.172756 0.368021
O O10 0.000000 0.000000 0.335200
O O11 0.563796 0.225236 0.748335
O O12 0.698374 0.043429 0.401563
O O13 0.149202 0.567426 0.972037
O O14 0.580145 0.686749 0.065396
O O15 0.084226 0.679920 0.078152
#
# Coordination Sequence:
#
# PCOD9330508 Si02
#       8
#     8   8   8   8   4   2   8   8
#     4  10  21  38  63  83 114 151 197 252 309 339
#     4  10  20  38  54  76 104 145 194 252 307 359
#     4  11  22  36  57  78 112 148 192 239 305 351
#     4  12  26  38  51  74 105 148 196 249 298 362
#     4   9  20  37  54  84 110 146 190 230 288 338
#     4  10  24  42  64  94 134 174 188 222 284 354
#     4  11  21  37  59  90 118 152 195 245 283 342
#     4  10  22  37  61  88 126 154 192 229 275 348
#
# _framework density 19.974242
#
# number of rings (size 3 to 8) (size 9 to 14) (size 15 to 20)
#    0.000    1.481    1.481    4.000    2.074    2.370 
#    4.000    0.000    0.000    0.000    0.000    3.111 
#    0.000    0.000    0.000    0.000    0.000    0.000 
#
# Total GULP energy -150501.361752 kJ/mol
# GULP energy per Si atom -5574.124509 kJ/mol
# Density = 1.992878 g / cm^3
# Si number density = 19.974242 Si / 1000 Ang^3
#
#
#
# Elastic Constant Matrix: (Units=GPa)
#
#
# Indices 1 2 3 4 5 6 
#
# 1 73.2621 23.4270 19.2489 0.0000 0.0000 0.0000
# 2 23.4270 56.3051 29.6590 0.0000 0.0000 0.0000
# 3 19.2489 29.6590 83.7318 0.0000 0.0000 0.0000
# 4 0.0000 0.0000 0.0000 27.8030 0.0000 0.0000
# 5 0.0000 0.0000 0.0000 0.0000 14.4128 0.0000
# 6 0.0000 0.0000 0.0000 0.0000 0.0000 8.1689
#
#
#
# Elastic Compliance Matrix: (Units=1/GPa)
#
#
# Indices 1 2 3 4 5 6 
#
# 1 0.015920 -0.005773 -0.001615 0.000000 0.000000 0.000000
# 2 -0.005773 0.023928 -0.007148 0.000000 0.000000 0.000000
# 3 -0.001615 -0.007148 0.014846 0.000000 0.000000 0.000000
# 4 0.000000 0.000000 0.000000 0.035967 0.000000 0.000000
# 5 0.000000 0.000000 0.000000 0.000000 0.069383 0.000000
# 6 0.000000 0.000000 0.000000 0.000000 0.000000 0.122416
#
#
# Mechanical properties :
#
#
# Convention : Reuss Voigt Hill
#
# Bulk Modulus (GPa) = 39.03030 39.77431 39.40231
# Shear Modulus (GPa) = 15.62141 19.47454 17.54798
#
# Velocity S-wave (km/s) = 2.79960 3.12586 2.96722
# Velocity P-wave (km/s) = 5.48024 5.74317 5.61325
#
# Compressibility (1/GPa) = 0.02562112
#
# Stress axis : x y z
#
# Youngs Moduli (GPa) = 62.81399 41.79218 67.35729
#
# Poissons Ratio (x) = 0.24128 0.10877
# Poissons Ratio (y) = 0.36264 0.48150
# Poissons Ratio (z) = 0.10144 0.29875
#
# Static dielectric constant tensor:
#      x y z
#    x 1.831350 0.000000 0.000000 
#    y 0.000000 1.797760 0.000000 
#    z 0.000000 0.000000 1.710810 
# 
# From -- ./inp_files/29974.got.cif
#   From: 2010.05.17/outbox.cif.g08.bks.cpg/sg23_15_cif.got.tgz:29974.got - 2010.06.04 12:02:01.
