data_PCOD9330043
_publ_section_title
;
Structure prediction by ZEFSAII (Michael W. Deem and Ramdas Pophale) SiO2 
 PCOD9330043
Probable space group: I 2 2 2
;
_chemical_formula_sum "Si O2"
_cell_formula_units_Z 48
_cell_length_a 5.168629
_cell_length_b 13.745540
_cell_length_c 33.434273
_cell_angle_alpha 90.000000
_cell_angle_beta 90.000000
_cell_angle_gamma 90.000000
_cell_volume 2375.357874
_symmetry_space_group_name_H-M "I 2 2 2"
_symmetry_group_IT_number 23
_symmetry_cell_setting 'orthorhombic'
loop_
_space_group_symop_operation_xyz
x,y,z
-x,-y,z
x,-y,-z
-x,y,-z
1/2+x,1/2+y,1/2+z
1/2-x,1/2-y,1/2+z
1/2+x,1/2-y,1/2-z
1/2-x,1/2+y,1/2-z
loop_
_atom_site_type_symbol
_atom_site_label
_atom_site_fract_x
_atom_site_fract_y
_atom_site_fract_z
Si Si1 0.753085 0.109526 0.981790
Si Si2 0.092806 0.388912 0.349455
Si Si3 0.107163 0.824779 0.897303
Si Si4 0.977273 0.896109 0.337187
Si Si5 0.024100 0.607618 0.893469
Si Si6 0.643834 0.234806 0.225376
O O1 0.789841 0.111423 0.934560
O O2 0.500000 0.157282 0.000000
O O3 0.000000 0.160844 0.000000
O O4 0.751001 0.000000 0.000000
O O5 0.847344 0.327597 0.366362
O O6 0.156448 0.358729 0.303759
O O7 0.000000 0.500000 0.352078
O O8 0.347992 0.366589 0.376314
O O9 0.045024 0.715092 0.912900
O O10 0.719211 0.886320 0.363580
O O11 0.216910 0.895598 0.367215
O O12 0.971178 0.815641 0.303982
O O13 0.000000 0.000000 0.316137
O O14 0.000000 0.500000 0.914082
O O15 0.927054 0.268780 0.240037
#
# Coordination Sequence:
#
# PCOD9330043 Si02
#       6
#     8   8   8   8   8   8
#     4  10  23  38  59  94 135 166 218 246 319 393
#     4  12  27  41  63  97 128 175 230 261 341 400
#     4  12  22  42  68  91 136 177 206 284 324 390
#     4  10  20  37  59  87 114 152 211 270 322 386
#     4  10  19  36  64  93 118 151 217 271 315 373
#     4  12  24  40  61  83 127 168 215 278 329 402
#
# _framework density 20.207483
#
# number of rings (size 3 to 8) (size 9 to 14) (size 15 to 20)
#    0.000    1.000    3.333    3.500    7.000    1.333 
#    0.000    0.000    0.000    0.500    0.000    1.167 
#    0.000    0.000    0.000    0.000    0.000    0.000 
#
# Total GULP energy -133767.391811 kJ/mol
# GULP energy per Si atom -5573.641325 kJ/mol
# Density = 2.016149 g / cm^3
# Si number density = 20.207483 Si / 1000 Ang^3
#
#
#
# Elastic Constant Matrix: (Units=GPa)
#
#
# Indices 1 2 3 4 5 6 
#
# 1 166.8029 -0.0290 29.5591 0.0000 0.0000 0.0000
# 2 -0.0290 115.5975 27.7691 0.0000 0.0000 0.0000
# 3 29.5591 27.7691 71.2805 0.0000 0.0000 0.0000
# 4 0.0000 0.0000 0.0000 28.9213 0.0000 0.0000
# 5 0.0000 0.0000 0.0000 0.0000 28.0784 0.0000
# 6 0.0000 0.0000 0.0000 0.0000 0.0000 19.5708
#
#
#
# Elastic Compliance Matrix: (Units=1/GPa)
#
#
# Indices 1 2 3 4 5 6 
#
# 1 0.006524 0.000719 -0.002986 0.000000 0.000000 0.000000
# 2 0.000719 0.009623 -0.004047 0.000000 0.000000 0.000000
# 3 -0.002986 -0.004047 0.016844 0.000000 0.000000 0.000000
# 4 0.000000 0.000000 0.000000 0.034577 0.000000 0.000000
# 5 0.000000 0.000000 0.000000 0.000000 0.035615 0.000000
# 6 0.000000 0.000000 0.000000 0.000000 0.000000 0.051097
#
#
# Mechanical properties :
#
#
# Convention : Reuss Voigt Hill
#
# Bulk Modulus (GPa) = 49.10711 52.03105 50.56908
# Shear Modulus (GPa) = 28.78622 35.07289 31.92956
#
# Velocity S-wave (km/s) = 3.77839 4.17062 3.97934
# Velocity P-wave (km/s) = 6.58705 6.99974 6.79653
#
# Compressibility (1/GPa) = 0.02036365
#
# Stress axis : x y z
#
# Youngs Moduli (GPa) = 153.27314 103.91699 59.36904
#
# Poissons Ratio (x) = -0.07470 0.17725
# Poissons Ratio (y) = -0.11018 0.24027
# Poissons Ratio (z) = 0.45761 0.42055
#
# Static dielectric constant tensor:
#      x y z
#    x 1.733370 0.000000 0.000000 
#    y 0.000000 1.805400 0.000000 
#    z 0.000000 0.000000 1.739340 
# 
# From -- ./inp_files/28945.got.cif
#   From: 2010.05.17/outbox.cif.g08.bks.cpg/sg23_15_cif.got.tgz:28945.got - 2010.06.04 12:02:01.
