data_PCOD9330008
_publ_section_title
;
Structure prediction by ZEFSAII (Michael W. Deem and Ramdas Pophale) SiO2 
 PCOD9330008
Probable space group: I 2 2 2
;
_chemical_formula_sum "Si O2"
_cell_formula_units_Z 64
_cell_length_a 24.954763
_cell_length_b 5.345019
_cell_length_c 26.311538
_cell_angle_alpha 90.000000
_cell_angle_beta 90.000000
_cell_angle_gamma 90.000000
_cell_volume 3509.529827
_symmetry_space_group_name_H-M "I 2 2 2"
_symmetry_group_IT_number 23
_symmetry_cell_setting 'orthorhombic'
loop_
_space_group_symop_operation_xyz
x,y,z
-x,-y,z
x,-y,-z
-x,y,-z
1/2+x,1/2+y,1/2+z
1/2-x,1/2-y,1/2+z
1/2+x,1/2-y,1/2-z
1/2-x,1/2+y,1/2-z
loop_
_atom_site_type_symbol
_atom_site_label
_atom_site_fract_x
_atom_site_fract_y
_atom_site_fract_z
Si Si1 0.971225 0.256967 0.108894
Si Si2 0.609170 0.660519 0.720166
Si Si3 0.799964 0.744221 0.480192
Si Si4 0.046740 0.664787 0.226808
Si Si5 0.812811 0.689668 0.038749
Si Si6 0.743336 0.150723 0.620159
Si Si7 0.222840 0.031657 0.268911
Si Si8 0.861104 0.950625 0.887498
O O1 0.975658 0.276847 0.170315
O O2 0.907432 0.248831 0.100789
O O3 0.000000 0.500000 0.086985
O O4 0.000000 0.000000 0.092808
O O5 0.592822 0.951465 0.725179
O O6 0.664852 0.605459 0.747903
O O7 0.615615 0.610377 0.659516
O O8 0.569050 0.440539 0.741331
O O9 0.829208 0.500000 0.500000
O O10 0.741564 0.742246 0.508432
O O11 0.785922 0.745574 0.420821
O O12 0.825512 0.000000 0.500000
O O13 0.000000 0.500000 0.253852
O O14 0.789429 0.559380 0.089285
O O15 0.848710 0.907982 0.060303
O O16 0.840863 0.500000 0.000000
O O17 0.771027 0.053895 0.670476
O O18 0.696086 0.347295 0.631329
O O19 0.261589 0.250464 0.247130
#
# Coordination Sequence:
#
# PCOD9330008 Si02
#       8
#     8   8   8   8   8   8   8   8
#     4  10  21  33  47  73  98 118 159 212 270 315
#     4  11  22  32  51  77 104 134 176 205 258 312
#     4   9  17  32  47  70  93 111 167 210 242 279
#     4  10  19  36  53  71  97 129 171 225 258 291
#     4   9  20  32  51  76  96 121 172 219 252 303
#     4  10  21  32  51  70 100 135 165 206 251 295
#     4  12  24  36  47  73 112 146 172 199 248 323
#     4  11  19  31  54  69  97 132 163 214 266 308
#
# _framework density 18.236060999999999
#
# number of rings (size 3 to 8) (size 9 to 14) (size 15 to 20)
#    0.000    2.000    2.500    4.875    7.000    0.000 
#    0.000    0.000    0.000    0.000    0.000   10.500 
#    0.000    0.000    0.000    0.000    0.000   80.625 
#
# Total GULP energy -178307.710549 kJ/mol
# GULP energy per Si atom -5572.115955 kJ/mol
# Density = 1.819455 g / cm^3
# Si number density = 18.236061 Si / 1000 Ang^3
#
#
#
# Elastic Constant Matrix: (Units=GPa)
#
#
# Indices 1 2 3 4 5 6 
#
# 1 31.4947 3.3102 12.2794 0.0000 0.0000 0.0000
# 2 3.3102 93.3396 6.7360 0.0000 0.0000 0.0000
# 3 12.2794 6.7360 72.2136 0.0000 0.0000 0.0000
# 4 0.0000 0.0000 0.0000 13.0962 0.0000 0.0000
# 5 0.0000 0.0000 0.0000 0.0000 1.3017 0.0000
# 6 0.0000 0.0000 0.0000 0.0000 0.0000 22.8520
#
#
#
# Elastic Compliance Matrix: (Units=1/GPa)
#
#
# Indices 1 2 3 4 5 6 
#
# 1 0.034064 -0.000795 -0.005718 0.000000 0.000000 0.000000
# 2 -0.000795 0.010805 -0.000873 0.000000 0.000000 0.000000
# 3 -0.005718 -0.000873 0.014902 0.000000 0.000000 0.000000
# 4 0.000000 0.000000 0.000000 0.076358 0.000000 0.000000
# 5 0.000000 0.000000 0.000000 0.000000 0.768244 0.000000
# 6 0.000000 0.000000 0.000000 0.000000 0.000000 0.043760
#
#
# Mechanical properties :
#
#
# Convention : Reuss Voigt Hill
#
# Bulk Modulus (GPa) = 22.22305 26.85546 24.53925
# Shear Modulus (GPa) = 5.11298 19.09813 12.10555
#
# Velocity S-wave (km/s) = 1.67626 3.23967 2.57928
# Velocity P-wave (km/s) = 3.99490 5.36213 4.72820
#
# Compressibility (1/GPa) = 0.04499832
#
# Stress axis : x y z
#
# Youngs Moduli (GPa) = 29.35611 92.55195 67.10719
#
# Poissons Ratio (x) = 0.07362 0.38373
# Poissons Ratio (y) = 0.02335 0.05856
# Poissons Ratio (z) = 0.16786 0.08076
#
# Static dielectric constant tensor:
#      x y z
#    x 1.639640 0.000000 0.000000 
#    y 0.000000 1.777290 0.000000 
#    z 0.000000 0.000000 1.612800 
# 
# From -- ./inp_files/28765.got.cif
#   From: 2010.05.17/outbox.cif.g08.bks.cpg/sg23_15_cif.got.tgz:28765.got - 2010.06.04 12:02:01.
