data_PCOD9330176
_publ_section_title
;
Structure prediction by ZEFSAII (Michael W. Deem and Ramdas Pophale) SiO2 
 PCOD9330176
Probable space group: I 2 2 2
;
_chemical_formula_sum "Si O2"
_cell_formula_units_Z 64
_cell_length_a 7.846219
_cell_length_b 18.281492
_cell_length_c 24.349761
_cell_angle_alpha 90.000000
_cell_angle_beta 90.000000
_cell_angle_gamma 90.000000
_cell_volume 3492.744081
_symmetry_space_group_name_H-M "I 2 2 2"
_symmetry_group_IT_number 23
_symmetry_cell_setting 'orthorhombic'
loop_
_space_group_symop_operation_xyz
x,y,z
-x,-y,z
x,-y,-z
-x,y,-z
1/2+x,1/2+y,1/2+z
1/2-x,1/2-y,1/2+z
1/2+x,1/2-y,1/2-z
1/2-x,1/2+y,1/2-z
loop_
_atom_site_type_symbol
_atom_site_label
_atom_site_fract_x
_atom_site_fract_y
_atom_site_fract_z
Si Si1 0.871485 0.050785 0.747256
Si Si2 0.636962 0.142367 0.321643
Si Si3 0.539454 0.793018 0.829334
Si Si4 0.038368 0.838652 0.392967
Si Si5 0.192758 0.578782 0.137940
Si Si6 0.174261 0.207770 0.229635
Si Si7 0.189313 0.966249 0.444093
Si Si8 0.352538 0.058841 0.794955
O O1 0.726313 0.068039 0.702782
O O2 0.920707 0.129998 0.769825
O O3 0.811796 0.993216 0.793125
O O4 0.000000 0.000000 0.713362
O O5 0.830914 0.141536 0.343496
O O6 0.490353 0.116925 0.363335
O O7 0.599918 0.227010 0.306954
O O8 0.636494 0.095390 0.265762
O O9 0.490849 0.747763 0.883971
O O10 0.364697 0.804532 0.793887
O O11 0.657882 0.740817 0.791070
O O12 0.627152 0.871770 0.834601
O O13 0.143943 0.879736 0.441417
O O14 0.852226 0.874365 0.385168
O O15 0.206768 0.502313 0.105797
O O16 0.262848 0.000000 0.500000
O O17 0.000000 0.000000 0.439241
O O18 0.500000 0.000000 0.803902
#
# Coordination Sequence:
#
# PCOD9330176 Si02
#       8
#     8   8   8   8   8   8   8   8
#     4  12  21  28  44  66  90 122 172 202 239 282
#     4  10  21  32  47  65  95 122 165 203 242 273
#     4  10  20  31  44  61  88 120 167 203 243 284
#     4  10  20  32  49  67  86 124 164 199 244 301
#     4  11  19  32  49  67  90 124 161 203 240 288
#     4  10  20  31  42  64  89 124 162 208 237 273
#     4   9  19  34  51  73  97 122 159 207 248 286
#     4  11  19  30  41  60  90 124 155 209 237 267
#
# _framework density 18.323702999999998
#
# number of rings (size 3 to 8) (size 9 to 14) (size 15 to 20)
#    0.000    1.625    3.750    3.375    3.500    0.000 
#    0.000    1.250    0.000    0.000    0.000    0.000 
#    0.000    0.000    0.000    9.000    5.000   15.000 
#
# Total GULP energy -178146.014326 kJ/mol
# GULP energy per Si atom -5567.062948 kJ/mol
# Density = 1.828200 g / cm^3
# Si number density = 18.323703 Si / 1000 Ang^3
#
#
#
# Elastic Constant Matrix: (Units=GPa)
#
#
# Indices 1 2 3 4 5 6 
#
# 1 62.3445 16.5353 -3.1871 0.0000 0.0000 0.0000
# 2 16.5353 148.6274 17.2950 0.0000 0.0000 0.0000
# 3 -3.1871 17.2950 25.8537 0.0000 0.0000 0.0000
# 4 0.0000 0.0000 0.0000 15.8441 0.0000 0.0000
# 5 0.0000 0.0000 0.0000 0.0000 4.8966 0.0000
# 6 0.0000 0.0000 0.0000 0.0000 0.0000 28.8448
#
#
#
# Elastic Compliance Matrix: (Units=1/GPa)
#
#
# Indices 1 2 3 4 5 6 
#
# 1 0.016832 -0.002293 0.003609 0.000000 0.000000 0.000000
# 2 -0.002293 0.007608 -0.005372 0.000000 0.000000 0.000000
# 3 0.003609 -0.005372 0.042718 0.000000 0.000000 0.000000
# 4 0.000000 0.000000 0.000000 0.063115 0.000000 0.000000
# 5 0.000000 0.000000 0.000000 0.000000 0.204225 0.000000
# 6 0.000000 0.000000 0.000000 0.000000 0.000000 0.034668
#
#
# Mechanical properties :
#
#
# Convention : Reuss Voigt Hill
#
# Bulk Modulus (GPa) = 16.93588 33.12356 25.02972
# Shear Modulus (GPa) = 12.59566 23.66258 18.12912
#
# Velocity S-wave (km/s) = 2.62467 3.59746 3.14886
# Velocity P-wave (km/s) = 4.29510 5.94741 5.18746
#
# Compressibility (1/GPa) = 0.05904623
#
# Stress axis : x y z
#
# Youngs Moduli (GPa) = 59.40915 131.43299 23.40940
#
# Poissons Ratio (x) = 0.30132 -0.08448
# Poissons Ratio (y) = 0.13620 0.12576
# Poissons Ratio (z) = -0.21439 0.70610
#
# Static dielectric constant tensor:
#      x y z
#    x 1.776110 0.000000 0.000000 
#    y 0.000000 1.710940 0.000000 
#    z 0.000000 0.000000 1.660130 
# 
# From -- ./inp_files/29327.got.cif
#   From: 2010.05.17/outbox.cif.g08.bks.cpg/sg23_15_cif.got.tgz:29327.got - 2010.06.04 12:02:01.
