data_PCOD9330821
_publ_section_title
;
Structure prediction by ZEFSAII (Michael W. Deem and Ramdas Pophale) SiO2 
 PCOD9330821
Probable space group: I 2 2 2
;
_chemical_formula_sum "Si O2"
_cell_formula_units_Z 56
_cell_length_a 8.736968
_cell_length_b 20.581664
_cell_length_c 16.679019
_cell_angle_alpha 90.000000
_cell_angle_beta 90.000000
_cell_angle_gamma 90.000000
_cell_volume 2999.243542
_symmetry_space_group_name_H-M "I 2 2 2"
_symmetry_group_IT_number 23
_symmetry_cell_setting 'orthorhombic'
loop_
_space_group_symop_operation_xyz
x,y,z
-x,-y,z
x,-y,-z
-x,y,-z
1/2+x,1/2+y,1/2+z
1/2-x,1/2-y,1/2+z
1/2+x,1/2-y,1/2-z
1/2-x,1/2+y,1/2-z
loop_
_atom_site_type_symbol
_atom_site_label
_atom_site_fract_x
_atom_site_fract_y
_atom_site_fract_z
Si Si1 0.980483 0.261371 0.268477
Si Si2 0.813927 0.590587 0.164426
Si Si3 0.660842 0.275304 0.537196
Si Si4 0.279418 0.335118 0.305660
Si Si5 0.351718 0.853012 0.647682
Si Si6 0.829586 0.025443 0.591911
Si Si7 0.616024 0.697948 0.070010
O O1 0.940979 0.197804 0.216475
O O2 0.865419 0.317862 0.235486
O O3 0.966151 0.235800 0.358320
O O4 0.149924 0.289904 0.262852
O O5 0.755457 0.600658 0.255920
O O6 0.787345 0.517228 0.141946
O O7 0.708146 0.637774 0.108593
O O8 0.987438 0.609589 0.145452
O O9 0.500000 0.296105 0.500000
O O10 0.730476 0.327783 0.599186
O O11 0.639670 0.208699 0.588468
O O12 0.772183 0.251367 0.467937
O O13 0.215859 0.900619 0.616889
O O14 0.809394 0.000000 0.500000
O O15 0.000000 0.000000 0.613408
O O16 0.500000 0.676480 0.000000
#
# Coordination Sequence:
#
# PCOD9330821 Si02
#       7
#     8   8   8   8   8   8   8
#     4   9  19  33  49  75 104 141 173 214 268 322
#     4  10  21  36  53  73 104 147 179 214 266 317
#     4  11  20  33  52  81 110 139 176 220 273 322
#     4   9  19  33  50  74 106 138 176 214 265 327
#     4  10  21  37  52  71 108 144 180 219 259 325
#     4  11  25  37  52  76 104 140 186 224 264 313
#     4  11  20  31  54  79 111 140 172 221 271 320
#
# _framework density 18.671374
#
# number of rings (size 3 to 8) (size 9 to 14) (size 15 to 20)
#    0.000    1.857    2.857    1.286    6.000    1.714 
#    0.000    0.000    0.000    0.000    0.000    1.000 
#    0.000    0.000    0.000    0.000    0.000    0.000 
#
# Total GULP energy -155919.793786 kJ/mol
# GULP energy per Si atom -5568.564064 kJ/mol
# Density = 1.862888 g / cm^3
# Si number density = 18.671374 Si / 1000 Ang^3
#
#
#
# Elastic Constant Matrix: (Units=GPa)
#
#
# Indices 1 2 3 4 5 6 
#
# 1 54.3534 18.3660 2.6212 0.0000 0.0000 0.0000
# 2 18.3660 46.9625 29.1891 0.0000 0.0000 0.0000
# 3 2.6212 29.1891 53.7540 0.0000 0.0000 0.0000
# 4 0.0000 0.0000 0.0000 24.3469 0.0000 0.0000
# 5 0.0000 0.0000 0.0000 0.0000 22.6064 0.0000
# 6 0.0000 0.0000 0.0000 0.0000 0.0000 23.8446
#
#
#
# Elastic Compliance Matrix: (Units=1/GPa)
#
#
# Indices 1 2 3 4 5 6 
#
# 1 0.022223 -0.012102 0.005488 0.000000 0.000000 0.000000
# 2 -0.012102 0.038731 -0.020442 0.000000 0.000000 0.000000
# 3 0.005488 -0.020442 0.029436 0.000000 0.000000 0.000000
# 4 0.000000 0.000000 0.000000 0.041073 0.000000 0.000000
# 5 0.000000 0.000000 0.000000 0.000000 0.044235 0.000000
# 6 0.000000 0.000000 0.000000 0.000000 0.000000 0.041938
#
#
# Mechanical properties :
#
#
# Convention : Reuss Voigt Hill
#
# Bulk Modulus (GPa) = 27.56429 28.38028 27.97228
# Shear Modulus (GPa) = 17.61555 21.15249 19.38402
#
# Velocity S-wave (km/s) = 3.07490 3.36949 3.22556
# Velocity P-wave (km/s) = 5.23465 5.51097 5.37459
#
# Compressibility (1/GPa) = 0.03627883
#
# Stress axis : x y z
#
# Youngs Moduli (GPa) = 44.99929 25.81878 33.97231
#
# Poissons Ratio (x) = 0.31245 -0.18643
# Poissons Ratio (y) = 0.54456 0.69445
# Poissons Ratio (z) = -0.24694 0.52778
#
# Static dielectric constant tensor:
#      x y z
#    x 1.710690 0.000000 0.000000 
#    y 0.000000 1.660160 0.000000 
#    z 0.000000 0.000000 1.710620 
# 
# From -- ./inp_files/10210.got.cif
#   From: 2010.05.17/outbox.cif.g08.bks.cpg/sg23_6_cif.got.tgz:10210.got - 2010.06.04 12:02:01.
