data_PCOD9330422
_publ_section_title
;
Structure prediction by ZEFSAII (Michael W. Deem and Ramdas Pophale) SiO2 
 PCOD9330422
Probable space group: I 2 2 2
;
_chemical_formula_sum "Si O2"
_cell_formula_units_Z 44
_cell_length_a 8.574871
_cell_length_b 11.494224
_cell_length_c 23.962277
_cell_angle_alpha 90.000000
_cell_angle_beta 90.000000
_cell_angle_gamma 90.000000
_cell_volume 2361.757678
_symmetry_space_group_name_H-M "I 2 2 2"
_symmetry_group_IT_number 23
_symmetry_cell_setting 'orthorhombic'
loop_
_space_group_symop_operation_xyz
x,y,z
-x,-y,z
x,-y,-z
-x,y,-z
1/2+x,1/2+y,1/2+z
1/2-x,1/2-y,1/2+z
1/2+x,1/2-y,1/2-z
1/2-x,1/2+y,1/2-z
loop_
_atom_site_type_symbol
_atom_site_label
_atom_site_fract_x
_atom_site_fract_y
_atom_site_fract_z
Si Si1 0.545295 0.376074 0.405525
Si Si2 0.500000 0.500000 0.899851
Si Si3 0.500000 0.809414 0.500000
Si Si4 0.855612 0.428019 0.342990
Si Si5 0.259654 0.500000 0.000000
Si Si6 0.671568 0.362179 0.703728
Si Si7 0.464126 0.301273 0.806821
O O1 0.500000 0.500000 0.431583
O O2 0.526078 0.271350 0.447096
O O3 0.721385 0.389430 0.384743
O O4 0.430839 0.359190 0.352593
O O5 0.359534 0.519752 0.943786
O O6 0.467387 0.390053 0.859085
O O7 0.350987 0.890141 0.509300
O O8 0.773749 0.518967 0.300047
O O9 0.929903 0.312141 0.318378
O O10 0.000000 0.500000 0.368992
O O11 0.549789 0.360440 0.754320
O O12 0.793057 0.253785 0.705226
#
# Coordination Sequence:
#
# PCOD9330422 Si02
#       7
#     8   4   4   8   4   8   8
#     4  10  20  36  62  86 119 152 200 250 310 360
#     4  11  24  40  62  86 118 165 204 252 314 371
#     4  11  21  40  64  86 117 161 204 252 308 365
#     4   9  20  38  56  86 122 159 196 259 310 364
#     4  10  24  42  58  86 122 156 206 258 298 368
#     4  10  22  36  58  87 121 159 199 260 309 364
#     4  11  22  36  60  85 119 159 211 245 316 379
#
# _framework density 18.630192999999998
#
# number of rings (size 3 to 8) (size 9 to 14) (size 15 to 20)
#    0.000    1.818    0.000    3.545    6.364    0.000 
#    0.000    0.000    0.000    8.727    0.000    0.000 
#    0.000    0.000    0.000    0.000    0.000    0.000 
#
# Total GULP energy -122771.669925 kJ/mol
# GULP energy per Si atom -5580.530451 kJ/mol
# Density = 1.858779 g / cm^3
# Si number density = 18.630193 Si / 1000 Ang^3
#
#
#
# Elastic Constant Matrix: (Units=GPa)
#
#
# Indices 1 2 3 4 5 6 
#
# 1 123.6253 50.5777 43.2884 0.0000 0.0000 0.0000
# 2 50.5777 112.4456 48.6057 0.0000 0.0000 0.0000
# 3 43.2884 48.6057 92.2052 0.0000 0.0000 0.0000
# 4 0.0000 0.0000 0.0000 7.9732 0.0000 0.0000
# 5 0.0000 0.0000 0.0000 0.0000 13.1685 0.0000
# 6 0.0000 0.0000 0.0000 0.0000 0.0000 180.6952
#
#
#
# Elastic Compliance Matrix: (Units=1/GPa)
#
#
# Indices 1 2 3 4 5 6 
#
# 1 0.010590 -0.003386 -0.003187 0.000000 0.000000 0.000000
# 2 -0.003386 0.012600 -0.005053 0.000000 0.000000 0.000000
# 3 -0.003187 -0.005053 0.015005 0.000000 0.000000 0.000000
# 4 0.000000 0.000000 0.000000 0.125420 0.000000 0.000000
# 5 0.000000 0.000000 0.000000 0.000000 0.075939 0.000000
# 6 0.000000 0.000000 0.000000 0.000000 0.000000 0.005534
#
#
# Mechanical properties :
#
#
# Convention : Reuss Voigt Hill
#
# Bulk Modulus (GPa) = 66.91403 68.13552 67.52477
# Shear Modulus (GPa) = 18.29358 52.75435 35.52396
#
# Velocity S-wave (km/s) = 3.13698 5.32711 4.37142
# Velocity P-wave (km/s) = 7.00827 8.63073 7.86146
#
# Compressibility (1/GPa) = 0.01494455
#
# Stress axis : x y z
#
# Youngs Moduli (GPa) = 94.42762 79.36428 66.64415
#
# Poissons Ratio (x) = 0.26871 0.21240
# Poissons Ratio (y) = 0.31971 0.33672
# Poissons Ratio (z) = 0.30094 0.40099
#
# Static dielectric constant tensor:
#      x y z
#    x 1.705870 0.000000 0.000000 
#    y 0.000000 1.653830 0.000000 
#    z 0.000000 0.000000 1.600980 
# 
# From -- ./inp_files/27955.got.cif
#   From: 2010.05.17/outbox.cif.g08.bks.cpg/sg23_14_cif.got.tgz:27955.got - 2010.06.04 12:02:01.
