data_PCOD9330783
_publ_section_title
;
Structure prediction by ZEFSAII (Michael W. Deem and Ramdas Pophale) SiO2 
 PCOD9330783
Probable space group: I 2 2 2
;
_chemical_formula_sum "Si O2"
_cell_formula_units_Z 58
_cell_length_a 16.517765
_cell_length_b 25.753469
_cell_length_c 5.429737
_cell_angle_alpha 90.000000
_cell_angle_beta 90.000000
_cell_angle_gamma 90.000000
_cell_volume 2309.754459
_symmetry_space_group_name_H-M "I 2 2 2"
_symmetry_group_IT_number 23
_symmetry_cell_setting 'orthorhombic'
loop_
_space_group_symop_operation_xyz
x,y,z
-x,-y,z
x,-y,-z
-x,y,-z
1/2+x,1/2+y,1/2+z
1/2-x,1/2-y,1/2+z
1/2+x,1/2-y,1/2-z
1/2-x,1/2+y,1/2-z
loop_
_atom_site_type_symbol
_atom_site_label
_atom_site_fract_x
_atom_site_fract_y
_atom_site_fract_z
Si Si1 0.786011 0.076392 0.480532
Si Si2 0.000000 0.500000 0.000000
Si Si3 0.451038 0.292203 0.250109
Si Si4 0.166899 0.360141 0.368434
Si Si5 0.212350 0.179848 0.264034
Si Si6 0.358938 0.046227 0.193452
Si Si7 0.856832 0.724040 0.041672
Si Si8 0.052683 0.086176 0.750599
O O1 0.718959 0.101076 0.301242
O O2 0.820031 0.123918 0.651948
O O3 0.727756 0.044894 0.665481
O O4 0.862142 0.057512 0.316519
O O5 0.937680 0.535732 0.853869
O O6 0.500000 0.281913 0.500000
O O7 0.611023 0.244755 0.719190
O O8 0.423684 0.352384 0.276362
O O9 0.500000 0.289235 0.000000
O O10 0.232446 0.327601 0.524022
O O11 0.128458 0.397968 0.568773
O O12 0.109566 0.323358 0.204060
O O13 0.149688 0.224126 0.202227
O O14 0.268286 0.201443 0.481118
O O15 0.356715 0.000000 0.000000
O O16 0.000000 0.080152 0.500000
O O17 0.000000 0.072886 0.000000
#
# Coordination Sequence:
#
# PCOD9330783 Si02
#       8
#     8   2   8   8   8   8   8   8
#     4  10  23  41  70 111 153 195 264 320 394 487
#     4  12  26  52  88 126 142 196 262 356 458 516
#     4  10  24  38  60  87 139 212 270 313 374 448
#     4  10  22  40  68 107 145 192 255 320 395 488
#     4  10  21  33  62  97 137 198 251 317 375 454
#     4  11  25  48  85 115 150 191 260 348 436 515
#     4  11  21  35  62  94 140 196 259 310 383 461
#     4  10  23  39  65 109 158 215 266 322 374 454
#
# _framework density 25.110897000000001
#
# number of rings (size 3 to 8) (size 9 to 14) (size 15 to 20)
#    0.000    1.655    1.379    1.862   13.517    0.000 
#    0.000    0.000   36.414    0.000    1.793    7.241 
#    0.000    0.000    0.000    0.000    0.000    0.000 
#
# Total GULP energy -162022.267348 kJ/mol
# GULP energy per Si atom -5586.974736 kJ/mol
# Density = 2.505374 g / cm^3
# Si number density = 25.110897 Si / 1000 Ang^3
#
#
#
# Elastic Constant Matrix: (Units=GPa)
#
#
# Indices 1 2 3 4 5 6 
#
# 1 106.2488 34.4946 52.6376 0.0000 -0.0001 0.0000
# 2 34.4946 57.0228 34.1324 0.0001 -0.0001 0.0000
# 3 52.6376 34.1324 139.6284 0.0006 -0.0017 0.0000
# 4 0.0000 0.0001 0.0006 -60.3084 -0.0009 -0.0001
# 5 -0.0001 -0.0001 -0.0017 -0.0009 82.8617 0.0000
# 6 0.0000 0.0000 0.0000 -0.0001 0.0000 18.5629
#
#
#
# Elastic Compliance Matrix: (Units=1/GPa)
#
#
# Indices 1 2 3 4 5 6 
#
# 1 0.013021 -0.005785 -0.003495 0.000000 0.000000 0.000000
# 2 -0.005785 0.023113 -0.003469 0.000000 0.000000 0.000000
# 3 -0.003495 -0.003469 0.009327 0.000000 0.000000 0.000000
# 4 0.000000 0.000000 0.000000 -0.016581 0.000000 0.000000
# 5 0.000000 0.000000 0.000000 0.000000 0.012068 0.000000
# 6 0.000000 0.000000 0.000000 0.000000 0.000000 0.053871
#
#
# Mechanical properties :
#
#
# Convention : Reuss Voigt Hill
#
# Bulk Modulus (GPa) = 50.09054 60.60322 55.34688
# Shear Modulus (GPa) = 39.37878 20.33228 29.85553
#
# Velocity S-wave (km/s) = 3.96434 2.84861 3.45185
# Velocity P-wave (km/s) = 6.39888 5.91659 6.16246
#
# Compressibility (1/GPa) = 0.01996385
#
# Stress axis : x y z
#
# Youngs Moduli (GPa) = 76.79667 43.26575 107.21204
#
# Poissons Ratio (x) = 0.25030 0.37467
# Poissons Ratio (y) = 0.44428 0.37193
# Poissons Ratio (z) = 0.26838 0.15009
#
# Static dielectric constant tensor:
#      x y z
#    x 2.030720 0.000000 0.000000 
#    y 0.000000 1.596900 0.000000 
#    z 0.000000 0.000000 2.084650 
# 
# From -- ./inp_files/3482.got.cif
#   From: 2010.05.17/outbox.cif.g08.bks.cpg/sg23_2_cif.got.tgz:3482.got - 2010.06.04 12:02:01.
