data_PCOD9330274
_publ_section_title
;
Structure prediction by ZEFSAII (Michael W. Deem and Ramdas Pophale) SiO2 
 PCOD9330274
Probable space group: I 2 2 2
;
_chemical_formula_sum "Si O2"
_cell_formula_units_Z 56
_cell_length_a 19.832234
_cell_length_b 7.549663
_cell_length_c 18.906487
_cell_angle_alpha 90.000000
_cell_angle_beta 90.000000
_cell_angle_gamma 90.000000
_cell_volume 2830.805590
_symmetry_space_group_name_H-M "I 2 2 2"
_symmetry_group_IT_number 23
_symmetry_cell_setting 'orthorhombic'
loop_
_space_group_symop_operation_xyz
x,y,z
-x,-y,z
x,-y,-z
-x,y,-z
1/2+x,1/2+y,1/2+z
1/2-x,1/2-y,1/2+z
1/2+x,1/2-y,1/2-z
1/2-x,1/2+y,1/2-z
loop_
_atom_site_type_symbol
_atom_site_label
_atom_site_fract_x
_atom_site_fract_y
_atom_site_fract_z
Si Si1 0.330502 0.687408 0.485803
Si Si2 0.754315 0.740145 0.638378
Si Si3 0.844061 0.174037 0.730638
Si Si4 0.635939 0.755100 0.242673
Si Si5 0.034854 0.308155 0.069804
Si Si6 0.268838 0.148620 0.373109
Si Si7 0.512095 0.704518 0.728819
O O1 0.366102 0.500000 0.500000
O O2 0.272607 0.639129 0.429454
O O3 0.385924 0.812340 0.448520
O O4 0.298988 0.770828 0.555746
O O5 0.700392 0.724364 0.701581
O O6 0.824495 0.681643 0.672963
O O7 0.751506 0.944908 0.615522
O O8 0.799347 0.225412 0.662785
O O9 0.917699 0.259365 0.735569
O O10 0.853312 0.959763 0.738335
O O11 0.674923 0.826919 0.311699
O O12 0.557301 0.798423 0.249751
O O13 0.000000 0.500000 0.077691
O O14 0.022883 0.214705 0.144317
O O15 0.000000 0.228481 0.000000
O O16 0.500000 0.500000 0.747950
#
# Coordination Sequence:
#
# PCOD9330274 Si02
#       7
#     8   8   8   8   8   8   8
#     4  12  25  38  56  79 114 152 192 230 279 337
#     4  10  20  35  55  78 109 145 193 236 278 334
#     4   9  18  36  54  81 108 146 189 234 282 336
#     4   9  19  34  55  81 108 145 188 235 285 335
#     4  11  26  36  50  78 118 149 184 216 274 340
#     4  10  21  34  56  78 110 148 191 237 279 328
#     4  10  20  34  57  80 113 146 182 226 282 342
#
# _framework density 19.782354999999999
#
# number of rings (size 3 to 8) (size 9 to 14) (size 15 to 20)
#    0.000    1.857    1.429    2.143   10.000    1.143 
#    0.000    0.000    0.000    0.857    0.000    6.000 
#    0.000    0.000    0.000    0.000    0.000    0.000 
#
# Total GULP energy -156292.171843 kJ/mol
# GULP energy per Si atom -5581.863280 kJ/mol
# Density = 1.973733 g / cm^3
# Si number density = 19.782355 Si / 1000 Ang^3
#
#
#
# Elastic Constant Matrix: (Units=GPa)
#
#
# Indices 1 2 3 4 5 6 
#
# 1 213.7553 -2.4544 76.5772 0.0000 0.0000 0.0000
# 2 -2.4544 40.7590 -2.9649 0.0000 0.0000 0.0000
# 3 76.5772 -2.9649 86.0100 0.0000 0.0000 0.0000
# 4 0.0000 0.0000 0.0000 21.4205 0.0000 0.0000
# 5 0.0000 0.0000 0.0000 0.0000 30.2631 0.0000
# 6 0.0000 0.0000 0.0000 0.0000 0.0000 18.3892
#
#
#
# Elastic Compliance Matrix: (Units=1/GPa)
#
#
# Indices 1 2 3 4 5 6 
#
# 1 0.006869 -0.000031 -0.006117 0.000000 0.000000 0.000000
# 2 -0.000031 0.024596 0.000876 0.000000 0.000000 0.000000
# 3 -0.006117 0.000876 0.017103 0.000000 0.000000 0.000000
# 4 0.000000 0.000000 0.000000 0.046684 0.000000 0.000000
# 5 0.000000 0.000000 0.000000 0.000000 0.033043 0.000000
# 6 0.000000 0.000000 0.000000 0.000000 0.000000 0.054380
#
#
# Mechanical properties :
#
#
# Convention : Reuss Voigt Hill
#
# Bulk Modulus (GPa) = 26.29967 53.64891 39.97429
# Shear Modulus (GPa) = 24.28416 31.97233 28.12825
#
# Velocity S-wave (km/s) = 3.50747 4.02457 3.77488
# Velocity P-wave (km/s) = 5.45220 6.98388 6.26503
#
# Compressibility (1/GPa) = 0.03802329
#
# Stress axis : x y z
#
# Youngs Moduli (GPa) = 145.57569 40.65656 58.46971
#
# Poissons Ratio (x) = 0.00127 0.35766
# Poissons Ratio (y) = 0.00456 -0.05120
# Poissons Ratio (z) = 0.89049 -0.03560
#
# Static dielectric constant tensor:
#      x y z
#    x 1.739170 0.000000 0.000000 
#    y 0.000000 1.771470 0.000000 
#    z 0.000000 0.000000 1.664130 
# 
# From -- ./inp_files/25225.got.cif
#   From: 2010.05.17/outbox.cif.g08.bks.cpg/sg23_13_cif.got.tgz:25225.got - 2010.06.04 12:02:01.
