data_PCOD9330469
_publ_section_title
;
Structure prediction by ZEFSAII (Michael W. Deem and Ramdas Pophale) SiO2 
 PCOD9330469
Probable space group: I 2 2 2
;
_chemical_formula_sum "Si O2"
_cell_formula_units_Z 64
_cell_length_a 30.946135
_cell_length_b 11.692564
_cell_length_c 8.134792
_cell_angle_alpha 90.000000
_cell_angle_beta 90.000000
_cell_angle_gamma 90.000000
_cell_volume 2943.490404
_symmetry_space_group_name_H-M "I 2 2 2"
_symmetry_group_IT_number 23
_symmetry_cell_setting 'orthorhombic'
loop_
_space_group_symop_operation_xyz
x,y,z
-x,-y,z
x,-y,-z
-x,y,-z
1/2+x,1/2+y,1/2+z
1/2-x,1/2-y,1/2+z
1/2+x,1/2-y,1/2-z
1/2-x,1/2+y,1/2-z
loop_
_atom_site_type_symbol
_atom_site_label
_atom_site_fract_x
_atom_site_fract_y
_atom_site_fract_z
Si Si1 0.892541 0.145433 0.341401
Si Si2 0.728662 0.746570 0.363187
Si Si3 0.955921 0.745555 0.394633
Si Si4 0.877276 0.615450 0.325391
Si Si5 0.954646 0.961233 0.189487
Si Si6 0.849689 0.368596 0.294036
Si Si7 0.696560 0.461560 0.836148
Si Si8 0.185851 0.797984 0.788882
O O1 0.924124 0.185316 0.483978
O O2 0.880112 0.260898 0.239260
O O3 0.845819 0.104615 0.400990
O O4 0.915792 0.037467 0.259826
O O5 0.698480 0.837179 0.264836
O O6 0.722558 0.625024 0.274771
O O7 0.779012 0.772094 0.352769
O O8 0.709710 0.735518 0.543889
O O9 0.928590 0.632404 0.349981
O O10 0.956373 0.827040 0.233503
O O11 0.000000 0.729036 0.500000
O O12 0.864609 0.495264 0.243292
O O13 0.856102 0.625138 0.508096
O O14 0.856594 0.722386 0.230217
O O15 0.000000 0.000000 0.269309
O O16 0.955543 0.000000 0.000000
O O17 0.680186 0.566735 0.726104
O O18 0.721339 0.500000 0.000000
#
# Coordination Sequence:
#
# PCOD9330469 Si02
#       8
#     8   8   8   8   8   8   8   8
#     4  10  20  37  61  89 124 163 203 258 323 388
#     4  11  25  41  64  93 127 174 219 272 326 397
#     4  11  21  38  65  94 126 167 215 266 329 401
#     4  10  22  41  65  91 127 172 216 278 327 391
#     4  11  22  34  55  89 125 160 199 258 324 385
#     4   9  21  42  62  88 128 166 218 268 324 383
#     4  11  22  40  63  91 127 162 210 265 327 383
#     4  12  24  41  63  94 129 170 221 268 334 387
#
# _framework density 21.742894
#
# number of rings (size 3 to 8) (size 9 to 14) (size 15 to 20)
#    0.000    1.375    1.250    6.000    1.750    4.500 
#    0.000    5.000    0.000    0.000    0.000    1.750 
#    0.000    0.000    0.000    0.000    0.000    0.000 
#
# Total GULP energy -178580.979320 kJ/mol
# GULP energy per Si atom -5580.655604 kJ/mol
# Density = 2.169341 g / cm^3
# Si number density = 21.742894 Si / 1000 Ang^3
#
#
#
# Elastic Constant Matrix: (Units=GPa)
#
#
# Indices 1 2 3 4 5 6 
#
# 1 102.4546 35.9145 10.3280 0.0000 0.0000 0.0000
# 2 35.9145 130.8210 0.9351 0.0000 0.0000 0.0000
# 3 10.3280 0.9351 46.0491 0.0000 0.0000 0.0000
# 4 0.0000 0.0000 0.0000 22.0475 0.0000 0.0000
# 5 0.0000 0.0000 0.0000 0.0000 23.6643 0.0000
# 6 0.0000 0.0000 0.0000 0.0000 0.0000 12.7416
#
#
#
# Elastic Compliance Matrix: (Units=1/GPa)
#
#
# Indices 1 2 3 4 5 6 
#
# 1 0.011063 -0.003020 -0.002420 0.000000 0.000000 0.000000
# 2 -0.003020 0.008469 0.000505 0.000000 0.000000 0.000000
# 3 -0.002420 0.000505 0.022248 0.000000 0.000000 0.000000
# 4 0.000000 0.000000 0.000000 0.045357 0.000000 0.000000
# 5 0.000000 0.000000 0.000000 0.000000 0.042258 0.000000
# 6 0.000000 0.000000 0.000000 0.000000 0.000000 0.078483
#
#
# Mechanical properties :
#
#
# Convention : Reuss Voigt Hill
#
# Bulk Modulus (GPa) = 31.33620 41.51999 36.42809
# Shear Modulus (GPa) = 21.89294 27.16716 24.53005
#
# Velocity S-wave (km/s) = 3.17661 3.53862 3.36249
# Velocity P-wave (km/s) = 5.28185 5.98608 5.64496
#
# Compressibility (1/GPa) = 0.03191198
#
# Stress axis : x y z
#
# Youngs Moduli (GPa) = 90.39196 118.07135 44.94701
#
# Poissons Ratio (x) = 0.35655 0.10877
# Poissons Ratio (y) = 0.27297 -0.02271
# Poissons Ratio (z) = 0.21874 -0.05966
#
# Static dielectric constant tensor:
#      x y z
#    x 1.797420 0.000000 0.000000 
#    y 0.000000 1.915000 0.000000 
#    z 0.000000 0.000000 1.855710 
# 
# From -- ./inp_files/13497.got.cif
#   From: 2010.05.17/outbox.cif.g08.bks.cpg/sg23_7_cif.got.tgz:13497.got - 2010.06.04 12:02:01.
