data_PCOD9330165
_publ_section_title
;
Structure prediction by ZEFSAII (Michael W. Deem and Ramdas Pophale) SiO2 
 PCOD9330165
Probable space group: I 2 2 2
;
_chemical_formula_sum "Si O2"
_cell_formula_units_Z 28
_cell_length_a 6.631544
_cell_length_b 9.459633
_cell_length_c 19.385937
_cell_angle_alpha 90.000000
_cell_angle_beta 90.000000
_cell_angle_gamma 90.000000
_cell_volume 1216.118066
_symmetry_space_group_name_H-M "I 2 2 2"
_symmetry_group_IT_number 23
_symmetry_cell_setting 'orthorhombic'
loop_
_space_group_symop_operation_xyz
x,y,z
-x,-y,z
x,-y,-z
-x,y,-z
1/2+x,1/2+y,1/2+z
1/2-x,1/2-y,1/2+z
1/2+x,1/2-y,1/2-z
1/2-x,1/2+y,1/2-z
loop_
_atom_site_type_symbol
_atom_site_label
_atom_site_fract_x
_atom_site_fract_y
_atom_site_fract_z
Si Si1 0.000000 0.000000 0.337089
Si Si2 0.856382 0.634981 0.237393
Si Si3 0.595019 0.343721 0.636772
Si Si4 0.790351 0.143423 0.539087
O O1 0.863352 0.098820 0.291645
O O2 0.146747 0.082166 0.387177
O O3 0.802720 0.654910 0.318005
O O4 0.000000 0.500000 0.231733
O O5 0.943793 0.751128 0.184744
O O6 0.500000 0.500000 0.629060
O O7 0.641219 0.267564 0.563375
O O8 0.000000 0.187621 0.500000
O O9 0.718769 0.000000 0.500000
#
# Coordination Sequence:
#
# PCOD9330165 Si02
#       4
#     4   8   8   8
#     4  10  19  44  72 108 138 207 254 290 374 468
#     4  12  23  43  73 112 162 194 240 308 404 467
#     4  12  24  41  72 121 154 194 248 318 389 444
#     4   9  21  44  76 100 143 206 268 297 347 450
#
# _framework density 23.024080999999999
#
# number of rings (size 3 to 8) (size 9 to 14) (size 15 to 20)
#    0.000    1.429    4.286    3.429    0.000    0.000 
#    0.000   11.429    0.000   38.571    0.000    0.000 
#    0.000    0.000    0.000    0.000    0.000    0.000 
#
# Total GULP energy -78092.266045 kJ/mol
# GULP energy per Si atom -5578.019003 kJ/mol
# Density = 2.297168 g / cm^3
# Si number density = 23.024081 Si / 1000 Ang^3
#
#
#
# Elastic Constant Matrix: (Units=GPa)
#
#
# Indices 1 2 3 4 5 6 
#
# 1 99.1607 72.0320 48.1423 0.0000 0.0000 0.0000
# 2 72.0320 196.7671 82.2646 0.0000 0.0000 0.0000
# 3 48.1423 82.2646 130.2597 0.0000 0.0000 0.0000
# 4 0.0000 0.0000 0.0000 86.5140 0.0000 0.0000
# 5 0.0000 0.0000 0.0000 0.0000 35.3709 0.0000
# 6 0.0000 0.0000 0.0000 0.0000 0.0000 36.0954
#
#
#
# Elastic Compliance Matrix: (Units=1/GPa)
#
#
# Indices 1 2 3 4 5 6 
#
# 1 0.014409 -0.004142 -0.002710 0.000000 0.000000 0.000000
# 2 -0.004142 0.008096 -0.003582 0.000000 0.000000 0.000000
# 3 -0.002710 -0.003582 0.010941 0.000000 0.000000 0.000000
# 4 0.000000 0.000000 0.000000 0.011559 0.000000 0.000000
# 5 0.000000 0.000000 0.000000 0.000000 0.028272 0.000000
# 6 0.000000 0.000000 0.000000 0.000000 0.000000 0.027704
#
#
# Mechanical properties :
#
#
# Convention : Reuss Voigt Hill
#
# Bulk Modulus (GPa) = 79.50205 92.34060 85.92133
# Shear Modulus (GPa) = 39.66967 46.51262 43.09114
#
# Velocity S-wave (km/s) = 4.15536 4.49951 4.33086
# Velocity P-wave (km/s) = 7.59129 8.19678 7.89984
#
# Compressibility (1/GPa) = 0.01257829
#
# Stress axis : x y z
#
# Youngs Moduli (GPa) = 69.40152 123.51641 91.40189
#
# Poissons Ratio (x) = 0.51160 0.24765
# Poissons Ratio (y) = 0.28746 0.32742
# Poissons Ratio (z) = 0.18804 0.44246
#
# Static dielectric constant tensor:
#      x y z
#    x 1.960900 0.000000 0.000000 
#    y 0.000000 1.964100 0.000000 
#    z 0.000000 0.000000 1.855270 
# 
# From -- ./inp_files/25890.got.cif
#   From: 2010.05.17/outbox.cif.g08.bks.cpg/sg23_13_cif.got.tgz:25890.got - 2010.06.04 12:02:01.
