data_PCOD9330324
_publ_section_title
;
Structure prediction by ZEFSAII (Michael W. Deem and Ramdas Pophale) SiO2 
 PCOD9330324
Probable space group: I 2 2 2
;
_chemical_formula_sum "Si O2"
_cell_formula_units_Z 64
_cell_length_a 8.142504
_cell_length_b 20.347159
_cell_length_c 16.878510
_cell_angle_alpha 90.000000
_cell_angle_beta 90.000000
_cell_angle_gamma 90.000000
_cell_volume 2796.377923
_symmetry_space_group_name_H-M "I 2 2 2"
_symmetry_group_IT_number 23
_symmetry_cell_setting 'orthorhombic'
loop_
_space_group_symop_operation_xyz
x,y,z
-x,-y,z
x,-y,-z
-x,y,-z
1/2+x,1/2+y,1/2+z
1/2-x,1/2-y,1/2+z
1/2+x,1/2-y,1/2-z
1/2-x,1/2+y,1/2-z
loop_
_atom_site_type_symbol
_atom_site_label
_atom_site_fract_x
_atom_site_fract_y
_atom_site_fract_z
Si Si1 0.443808 0.322722 0.752328
Si Si2 0.964012 0.108527 0.410400
Si Si3 0.657625 0.359051 0.606272
Si Si4 0.771750 0.506820 0.911278
Si Si5 0.824009 0.362616 0.454015
Si Si6 0.803158 0.503269 0.628387
Si Si7 0.356868 0.083556 0.273339
Si Si8 0.474841 0.184496 0.811615
O O1 0.530978 0.343768 0.835126
O O2 0.509506 0.350192 0.668369
O O3 0.265280 0.354214 0.769588
O O4 0.468408 0.244875 0.752202
O O5 0.000000 0.136782 0.500000
O O6 0.800185 0.065596 0.396326
O O7 0.111644 0.055147 0.406087
O O8 0.683143 0.338987 0.514124
O O9 0.712188 0.436032 0.608962
O O10 0.801621 0.315553 0.645052
O O11 0.888840 0.549554 0.855779
O O12 0.828737 0.500000 0.000000
O O13 0.760557 0.433263 0.423872
O O14 0.881602 0.318876 0.378803
O O15 0.000000 0.371353 0.500000
O O16 0.777438 0.526941 0.718701
O O17 0.000000 0.500000 0.616774
O O18 0.514882 0.113986 0.231819
#
# Coordination Sequence:
#
# PCOD9330324 Si02
#       8
#     8   8   8   8   8   8   8   8
#     4  11  22  35  53  84 119 150 195 248 285 342
#     4   8  15  28  48  76 106 142 178 231 288 328
#     4  11  21  34  59  88 112 148 193 248 301 344
#     4   8  14  28  50  77 105 136 180 236 283 332
#     4   9  18  33  58  86 110 144 197 240 288 344
#     4  11  18  33  59  86 111 144 183 239 297 362
#     4  10  20  35  56  83 114 151 192 238 300 353
#     4  10  21  37  54  78 115 162 197 229 281 356
#
# _framework density 22.886748999999998
#
# number of rings (size 3 to 8) (size 9 to 14) (size 15 to 20)
#    0.000    2.250    3.750    2.625    0.000    3.000 
#    0.000    3.750    0.000    3.375    3.250    6.125 
#    0.000    0.000    0.000    0.000    0.000    0.000 
#
# Total GULP energy -178254.224207 kJ/mol
# GULP energy per Si atom -5570.444506 kJ/mol
# Density = 2.283466 g / cm^3
# Si number density = 22.886749 Si / 1000 Ang^3
#
#
#
# Elastic Constant Matrix: (Units=GPa)
#
#
# Indices 1 2 3 4 5 6 
#
# 1 49.0845 20.5686 -0.7436 0.0000 0.0000 0.0000
# 2 20.5686 54.5967 30.8106 0.0000 0.0000 0.0000
# 3 -0.7436 30.8106 110.9236 0.0000 0.0000 0.0000
# 4 0.0000 0.0000 0.0000 24.5277 0.0000 0.0000
# 5 0.0000 0.0000 0.0000 0.0000 19.5036 0.0000
# 6 0.0000 0.0000 0.0000 0.0000 0.0000 17.8905
#
#
#
# Elastic Compliance Matrix: (Units=1/GPa)
#
#
# Indices 1 2 3 4 5 6 
#
# 1 0.025186 -0.011365 0.003326 0.000000 0.000000 0.000000
# 2 -0.011365 0.026850 -0.007534 0.000000 0.000000 0.000000
# 3 0.003326 -0.007534 0.011130 0.000000 0.000000 0.000000
# 4 0.000000 0.000000 0.000000 0.040770 0.000000 0.000000
# 5 0.000000 0.000000 0.000000 0.000000 0.051273 0.000000
# 6 0.000000 0.000000 0.000000 0.000000 0.000000 0.055895
#
#
# Mechanical properties :
#
#
# Convention : Reuss Voigt Hill
#
# Bulk Modulus (GPa) = 31.23197 35.09734 33.16465
# Shear Modulus (GPa) = 19.76878 23.31565 21.54222
#
# Velocity S-wave (km/s) = 2.94218 3.19523 3.07131
# Velocity P-wave (km/s) = 5.02173 5.38342 5.20572
#
# Compressibility (1/GPa) = 0.03201848
#
# Stress axis : x y z
#
# Youngs Moduli (GPa) = 39.70461 37.24462 89.84573
#
# Poissons Ratio (x) = 0.42330 -0.29880
# Poissons Ratio (y) = 0.45125 0.67690
# Poissons Ratio (z) = -0.13205 0.28060
#
# Static dielectric constant tensor:
#      x y z
#    x 1.969630 0.000000 0.000000 
#    y 0.000000 1.885050 0.000000 
#    z 0.000000 0.000000 1.939560 
# 
# From -- ./inp_files/24008.got.cif
#   From: 2010.05.17/outbox.cif.g08.bks.cpg/sg23_13_cif.got.tgz:24008.got - 2010.06.04 12:02:01.
