data_PCOD9330585
_publ_section_title
;
Structure prediction by ZEFSAII (Michael W. Deem and Ramdas Pophale) SiO2 
 PCOD9330585
Probable space group: I 2 2 2
;
_chemical_formula_sum "Si O2"
_cell_formula_units_Z 42
_cell_length_a 16.247653
_cell_length_b 9.031116
_cell_length_c 12.197667
_cell_angle_alpha 90.000000
_cell_angle_beta 90.000000
_cell_angle_gamma 90.000000
_cell_volume 1789.817824
_symmetry_space_group_name_H-M "I 2 2 2"
_symmetry_group_IT_number 23
_symmetry_cell_setting 'orthorhombic'
loop_
_space_group_symop_operation_xyz
x,y,z
-x,-y,z
x,-y,-z
-x,y,-z
1/2+x,1/2+y,1/2+z
1/2-x,1/2-y,1/2+z
1/2+x,1/2-y,1/2-z
1/2-x,1/2+y,1/2-z
loop_
_atom_site_type_symbol
_atom_site_label
_atom_site_fract_x
_atom_site_fract_y
_atom_site_fract_z
Si Si1 0.500000 0.500000 0.500000
Si Si2 0.961905 0.274633 0.642362
Si Si3 0.401331 0.738620 0.364000
Si Si4 0.500000 0.500000 0.000000
Si Si5 0.500000 0.000000 0.000000
Si Si6 0.812137 0.500000 0.000000
Si Si7 0.246560 0.669207 0.208706
Si Si8 0.794451 0.453381 0.620604
O O1 0.440837 0.607898 0.432101
O O2 0.968465 0.283655 0.772564
O O3 0.031435 0.375611 0.586108
O O4 0.877545 0.358478 0.609251
O O5 0.958269 0.114576 0.585642
O O6 0.366431 0.872397 0.438973
O O7 0.328868 0.679444 0.283602
O O8 0.757867 0.577497 0.904626
O O9 0.189623 0.583585 0.293779
O O10 0.230090 0.838764 0.175657
O O11 0.767748 0.500000 0.500000
#
# Coordination Sequence:
#
# PCOD9330585 Si02
#       8
#     2   8   8   2   2   4   8   8
#     4  12  30  50  70 102 144 198 238 294 350 438
#     4  10  21  43  64 103 136 179 244 279 365 409
#     4  11  27  47  70 103 145 191 239 292 357 433
#     4  10  22  40  72 100 138 198 226 308 336 436
#     4  10  20  38  74  92 140 186 228 296 330 434
#     4  12  24  46  76 111 141 192 236 306 364 428
#     4  11  24  45  71 108 144 179 241 292 373 418
#     4  11  23  42  68 103 139 183 225 302 357 423
#
# _framework density 23.466075
#
# number of rings (size 3 to 8) (size 9 to 14) (size 15 to 20)
#    0.000    1.143    4.762    1.714    4.000    4.952 
#    0.000    0.000    0.000    0.000    0.000    0.000 
#    0.000    0.000    0.000    0.000    0.000    0.000 
#
# Total GULP energy -117012.407789 kJ/mol
# GULP energy per Si atom -5572.019419 kJ/mol
# Density = 2.341266 g / cm^3
# Si number density = 23.466075 Si / 1000 Ang^3
#
#
#
# Elastic Constant Matrix: (Units=GPa)
#
#
# Indices 1 2 3 4 5 6 
#
# 1 48.4620 58.0779 55.4612 0.0000 0.0000 0.0000
# 2 58.0779 185.5127 111.5970 0.0000 0.0000 0.0000
# 3 55.4612 111.5970 229.0842 0.0000 0.0000 0.0000
# 4 0.0000 0.0000 0.0000 71.1944 0.0000 0.0000
# 5 0.0000 0.0000 0.0000 0.0000 35.2629 0.0000
# 6 0.0000 0.0000 0.0000 0.0000 0.0000 23.9892
#
#
#
# Elastic Compliance Matrix: (Units=1/GPa)
#
#
# Indices 1 2 3 4 5 6 
#
# 1 0.036129 -0.008556 -0.004579 0.000000 0.000000 0.000000
# 2 -0.008556 0.009651 -0.002630 0.000000 0.000000 0.000000
# 3 -0.004579 -0.002630 0.006755 0.000000 0.000000 0.000000
# 4 0.000000 0.000000 0.000000 0.014046 0.000000 0.000000
# 5 0.000000 0.000000 0.000000 0.000000 0.028358 0.000000
# 6 0.000000 0.000000 0.000000 0.000000 0.000000 0.041685
#
#
# Mechanical properties :
#
#
# Convention : Reuss Voigt Hill
#
# Bulk Modulus (GPa) = 47.60802 101.48123 74.54463
# Shear Modulus (GPa) = 28.54588 41.95082 35.24835
#
# Velocity S-wave (km/s) = 3.49158 4.23273 3.87990
# Velocity P-wave (km/s) = 6.04871 8.19926 7.20468
#
# Compressibility (1/GPa) = 0.02100487
#
# Stress axis : x y z
#
# Youngs Moduli (GPa) = 27.67879 103.61232 148.04054
#
# Poissons Ratio (x) = 0.88655 0.67781
# Poissons Ratio (y) = 0.23683 0.38936
# Poissons Ratio (z) = 0.12673 0.27251
#
# Static dielectric constant tensor:
#      x y z
#    x 2.509550 0.000000 0.000000 
#    y 0.000000 1.995960 0.000000 
#    z 0.000000 0.000000 2.029560 
# 
# From -- ./inp_files/18276.got.cif
#   From: 2010.05.17/outbox.cif.g08.bks.cpg/sg23_10_cif.got.tgz:18276.got - 2010.06.04 12:02:01.
