data_PCOD9330558
_publ_section_title
;
Structure prediction by ZEFSAII (Michael W. Deem and Ramdas Pophale) SiO2 
 PCOD9330558
Probable space group: I 2 2 2
;
_chemical_formula_sum "Si O2"
_cell_formula_units_Z 58
_cell_length_a 17.124416
_cell_length_b 12.160908
_cell_length_c 13.382044
_cell_angle_alpha 90.000000
_cell_angle_beta 90.000000
_cell_angle_gamma 90.000000
_cell_volume 2786.789888
_symmetry_space_group_name_H-M "I 2 2 2"
_symmetry_group_IT_number 23
_symmetry_cell_setting 'orthorhombic'
loop_
_space_group_symop_operation_xyz
x,y,z
-x,-y,z
x,-y,-z
-x,y,-z
1/2+x,1/2+y,1/2+z
1/2-x,1/2-y,1/2+z
1/2+x,1/2-y,1/2-z
1/2-x,1/2+y,1/2-z
loop_
_atom_site_type_symbol
_atom_site_label
_atom_site_fract_x
_atom_site_fract_y
_atom_site_fract_z
Si Si1 0.774221 0.091656 0.074948
Si Si2 0.457579 0.848048 0.169152
Si Si3 0.223115 0.756168 0.901563
Si Si4 0.089017 0.866767 0.763082
Si Si5 0.585466 0.404034 0.689603
Si Si6 0.500000 0.000000 0.000000
Si Si7 0.320067 0.056017 0.718688
Si Si8 0.863699 0.325202 0.272185
O O1 0.863814 0.058199 0.096512
O O2 0.727639 0.086786 0.179533
O O3 0.778524 0.206373 0.015901
O O4 0.740834 0.000000 0.000000
O O5 0.428167 0.721526 0.175251
O O6 0.448369 0.918699 0.068858
O O7 0.407952 0.904391 0.256691
O O8 0.549559 0.854000 0.190897
O O9 0.156975 0.819203 0.834087
O O10 0.212029 0.628825 0.871953
O O11 0.305482 0.799388 0.861624
O O12 0.005811 0.878370 0.820675
O O13 0.100984 0.994585 0.733570
O O14 0.625225 0.289569 0.716981
O O15 0.325560 0.925029 0.710454
#
# Coordination Sequence:
#
# PCOD9330558 Si02
#       8
#     8   8   8   8   8   2   8   8
#     4  12  22  36  61  96 119 161 213 263 313 380
#     4  10  23  34  60  90 123 163 210 258 315 368
#     4  11  23  36  59  88 127 156 204 262 318 370
#     4   9  20  40  57  89 123 166 199 258 318 381
#     4  10  20  38  64  85 122 162 213 249 317 383
#     4  12  20  36  60 106 120 162 218 268 306 368
#     4  11  22  40  58  89 128 160 207 269 315 375
#     4  11  20  38  60  87 121 168 204 253 321 382
#
# _framework density 20.812477999999999
#
# number of rings (size 3 to 8) (size 9 to 14) (size 15 to 20)
#    0.000    1.379    5.517    0.000    2.897    0.552 
#    0.000    0.690    0.000    6.621    0.000    5.793 
#    0.000    0.000    0.000    0.000    0.000    0.000 
#
# Total GULP energy -161578.149216 kJ/mol
# GULP energy per Si atom -5571.660318 kJ/mol
# Density = 2.076511 g / cm^3
# Si number density = 20.812478 Si / 1000 Ang^3
#
#
#
# Elastic Constant Matrix: (Units=GPa)
#
#
# Indices 1 2 3 4 5 6 
#
# 1 93.9223 14.3011 17.5204 0.0000 0.0000 0.0000
# 2 14.3011 171.0644 45.1088 0.0000 0.0000 0.0000
# 3 17.5204 45.1088 48.8389 0.0000 0.0000 0.0000
# 4 0.0000 0.0000 0.0000 29.7389 0.0000 0.0000
# 5 0.0000 0.0000 0.0000 0.0000 15.4057 0.0000
# 6 0.0000 0.0000 0.0000 0.0000 0.0000 23.0646
#
#
#
# Elastic Compliance Matrix: (Units=1/GPa)
#
#
# Indices 1 2 3 4 5 6 
#
# 1 0.011414 0.000166 -0.004248 0.000000 0.000000 0.000000
# 2 0.000166 0.007730 -0.007199 0.000000 0.000000 0.000000
# 3 -0.004248 -0.007199 0.028649 0.000000 0.000000 0.000000
# 4 0.000000 0.000000 0.000000 0.033626 0.000000 0.000000
# 5 0.000000 0.000000 0.000000 0.000000 0.064911 0.000000
# 6 0.000000 0.000000 0.000000 0.000000 0.000000 0.043356
#
#
# Mechanical properties :
#
#
# Convention : Reuss Voigt Hill
#
# Bulk Modulus (GPa) = 39.63448 51.96513 45.79981
# Shear Modulus (GPa) = 22.65925 29.43486 26.04706
#
# Velocity S-wave (km/s) = 3.30318 3.76478 3.54151
# Velocity P-wave (km/s) = 5.79939 6.62726 6.22710
#
# Compressibility (1/GPa) = 0.02523056
#
# Stress axis : x y z
#
# Youngs Moduli (GPa) = 87.60968 129.36040 34.90520
#
# Poissons Ratio (x) = -0.02147 0.14828
# Poissons Ratio (y) = -0.01454 0.25130
# Poissons Ratio (z) = 0.37217 0.93133
#
# Static dielectric constant tensor:
#      x y z
#    x 1.812450 0.000000 0.000000 
#    y 0.000000 1.869190 0.000000 
#    z 0.000000 0.000000 1.751560 
# 
# From -- ./inp_files/22162.got.cif
#   From: 2010.05.17/outbox.cif.g08.bks.cpg/sg23_12_cif.got.tgz:22162.got - 2010.06.04 12:02:01.
