data_PCOD9330441
_publ_section_title
;
Structure prediction by ZEFSAII (Michael W. Deem and Ramdas Pophale) SiO2 
 PCOD9330441
Probable space group: I 2 2 2
;
_chemical_formula_sum "Si O2"
_cell_formula_units_Z 48
_cell_length_a 7.854276
_cell_length_b 12.435021
_cell_length_c 21.698160
_cell_angle_alpha 90.000000
_cell_angle_beta 90.000000
_cell_angle_gamma 90.000000
_cell_volume 2119.217779
_symmetry_space_group_name_H-M "I 2 2 2"
_symmetry_group_IT_number 23
_symmetry_cell_setting 'orthorhombic'
loop_
_space_group_symop_operation_xyz
x,y,z
-x,-y,z
x,-y,-z
-x,y,-z
1/2+x,1/2+y,1/2+z
1/2-x,1/2-y,1/2+z
1/2+x,1/2-y,1/2-z
1/2-x,1/2+y,1/2-z
loop_
_atom_site_type_symbol
_atom_site_label
_atom_site_fract_x
_atom_site_fract_y
_atom_site_fract_z
Si Si1 0.761615 0.563500 0.765854
Si Si2 0.114479 0.842024 0.274884
Si Si3 0.757468 0.181975 0.137202
Si Si4 0.073299 0.829118 0.931871
Si Si5 0.449539 0.119306 0.380270
Si Si6 0.883896 0.369647 0.358957
O O1 0.704438 0.451466 0.796648
O O2 0.584674 0.630341 0.764210
O O3 0.918039 0.607265 0.806794
O O4 0.824158 0.552209 0.696091
O O5 0.206264 0.816444 0.210177
O O6 0.130339 0.744684 0.322071
O O7 0.778248 0.304850 0.108930
O O8 0.579029 0.129957 0.121124
O O9 0.922600 0.122992 0.110053
O O10 0.254350 0.876963 0.915245
O O11 0.081036 0.704504 0.908203
O O12 0.000000 0.834214 0.000000
O O13 0.500000 0.000000 0.402851
#
# Coordination Sequence:
#
# PCOD9330441 Si02
#       6
#     8   8   8   8   8   8
#     4  11  22  32  61  92 124 167 190 252 321 373
#     4  11  20  37  56  92 133 152 202 249 315 384
#     4  10  23  37  58  89 122 158 205 250 307 367
#     4  10  23  41  60  83 119 168 209 250 302 355
#     4  10  20  37  55  91 122 156 201 243 306 367
#     4  12  20  39  60  86 127 161 203 256 309 367
#
# _framework density 22.649867
#
# number of rings (size 3 to 8) (size 9 to 14) (size 15 to 20)
#    1.000    0.333    5.000    1.000    4.667    1.000 
#    0.000    0.000    0.000    2.000    4.333    2.333 
#    0.000    0.000    0.000    0.000    0.000    0.000 
#
# Total GULP energy -133690.612620 kJ/mol
# GULP energy per Si atom -5570.442192 kJ/mol
# Density = 2.259831 g / cm^3
# Si number density = 22.649867 Si / 1000 Ang^3
#
#
#
# Elastic Constant Matrix: (Units=GPa)
#
#
# Indices 1 2 3 4 5 6 
#
# 1 140.7857 14.6799 25.6658 0.0000 0.0000 0.0000
# 2 14.6799 80.6780 -1.9912 0.0000 0.0000 0.0000
# 3 25.6658 -1.9912 51.9851 0.0000 0.0000 0.0000
# 4 0.0000 0.0000 0.0000 6.7278 0.0000 0.0000
# 5 0.0000 0.0000 0.0000 0.0000 21.8185 0.0000
# 6 0.0000 0.0000 0.0000 0.0000 0.0000 28.9567
#
#
#
# Elastic Compliance Matrix: (Units=1/GPa)
#
#
# Indices 1 2 3 4 5 6 
#
# 1 0.007995 -0.001554 -0.004007 0.000000 0.000000 0.000000
# 2 -0.001554 0.012709 0.001254 0.000000 0.000000 0.000000
# 3 -0.004007 0.001254 0.021263 0.000000 0.000000 0.000000
# 4 0.000000 0.000000 0.000000 0.148637 0.000000 0.000000
# 5 0.000000 0.000000 0.000000 0.000000 0.045833 0.000000
# 6 0.000000 0.000000 0.000000 0.000000 0.000000 0.034534
#
#
# Mechanical properties :
#
#
# Convention : Reuss Voigt Hill
#
# Bulk Modulus (GPa) = 29.98231 38.90645 34.44438
# Shear Modulus (GPa) = 17.19973 27.17355 22.18664
#
# Velocity S-wave (km/s) = 2.75866 3.46746 3.13317
# Velocity P-wave (km/s) = 4.83870 5.76590 5.32253
#
# Compressibility (1/GPa) = 0.03335300
#
# Stress axis : x y z
#
# Youngs Moduli (GPa) = 125.07039 78.68684 47.03088
#
# Poissons Ratio (x) = 0.12226 0.18845
# Poissons Ratio (y) = 0.19433 -0.05897
# Poissons Ratio (z) = 0.50116 -0.09866
#
# Static dielectric constant tensor:
#      x y z
#    x 1.868480 0.000000 0.000000 
#    y 0.000000 2.054450 0.000000 
#    z 0.000000 0.000000 1.809130 
# 
# From -- ./inp_files/26173.got.cif
#   From: 2010.05.17/outbox.cif.g08.bks.cpg/sg23_14_cif.got.tgz:26173.got - 2010.06.04 12:02:01.
