data_PCOD9330096
_publ_section_title
;
Structure prediction by ZEFSAII (Michael W. Deem and Ramdas Pophale) SiO2 
 PCOD9330096
Probable space group: I 2 2 2
;
_chemical_formula_sum "Si O2"
_cell_formula_units_Z 64
_cell_length_a 19.433837
_cell_length_b 18.812983
_cell_length_c 8.555988
_cell_angle_alpha 90.000000
_cell_angle_beta 90.000000
_cell_angle_gamma 90.000000
_cell_volume 3128.141469
_symmetry_space_group_name_H-M "I 2 2 2"
_symmetry_group_IT_number 23
_symmetry_cell_setting 'orthorhombic'
loop_
_space_group_symop_operation_xyz
x,y,z
-x,-y,z
x,-y,-z
-x,y,-z
1/2+x,1/2+y,1/2+z
1/2-x,1/2-y,1/2+z
1/2+x,1/2-y,1/2-z
1/2-x,1/2+y,1/2-z
loop_
_atom_site_type_symbol
_atom_site_label
_atom_site_fract_x
_atom_site_fract_y
_atom_site_fract_z
Si Si1 0.468664 0.783306 0.326314
Si Si2 0.430758 0.888742 0.072980
Si Si3 0.847360 0.925480 0.042249
Si Si4 0.289247 0.450028 0.863103
Si Si5 0.901307 0.742629 0.662071
Si Si6 0.216061 0.570357 0.672522
Si Si7 0.650325 0.270023 0.508601
Si Si8 0.230806 0.179469 0.574223
O O1 0.500000 0.789779 0.500000
O O2 0.457024 0.856342 0.236771
O O3 0.520625 0.739208 0.215517
O O4 0.393957 0.752756 0.359330
O O5 0.361310 0.930412 0.110931
O O6 0.500000 0.921473 0.000000
O O7 0.408468 0.823226 0.957289
O O8 0.840731 0.925509 0.227940
O O9 0.872311 0.851703 0.970517
O O10 0.770737 0.928774 0.967771
O O11 0.882673 0.000000 0.000000
O O12 0.234161 0.502460 0.780751
O O13 0.320190 0.500000 0.000000
O O14 0.259998 0.379257 0.940381
O O15 0.849407 0.801527 0.595226
O O16 0.867243 0.727376 0.832788
O O17 0.235777 0.640424 0.775051
O O18 0.728460 0.251459 0.466109
#
# Coordination Sequence:
#
# PCOD9330096 Si02
#       8
#     8   8   8   8   8   8   8   8
#     4   9  20  38  54  84 125 163 197 255 315 372
#     4  10  20  36  58  88 124 164 204 259 313 369
#     4  10  21  36  57  84 120 158 196 256 314 372
#     4   9  22  37  54  85 121 162 193 256 315 367
#     4  10  22  34  54  88 127 153 202 257 317 374
#     4  10  19  38  56  86 122 159 209 249 313 379
#     4  11  21  34  59  89 118 160 205 251 316 376
#     4  11  21  33  58  91 122 151 207 261 308 374
#
# _framework density 20.459433000000001
#
# number of rings (size 3 to 8) (size 9 to 14) (size 15 to 20)
#    0.000    2.000    2.500    0.750    5.250    0.000 
#    0.000    0.000    0.000    6.750    0.000    6.125 
#    0.000    0.000    0.000    0.000    0.000    0.000 
#
# Total GULP energy -178165.127278 kJ/mol
# GULP energy per Si atom -5567.660227 kJ/mol
# Density = 2.041287 g / cm^3
# Si number density = 20.459433 Si / 1000 Ang^3
#
#
#
# Elastic Constant Matrix: (Units=GPa)
#
#
# Indices 1 2 3 4 5 6 
#
# 1 51.1187 6.5865 9.8281 0.0000 0.0000 0.0000
# 2 6.5865 75.9955 21.8558 0.0000 0.0000 0.0000
# 3 9.8281 21.8558 82.7415 0.0000 0.0000 0.0000
# 4 0.0000 0.0000 0.0000 15.2932 0.0000 0.0000
# 5 0.0000 0.0000 0.0000 0.0000 16.8956 0.0000
# 6 0.0000 0.0000 0.0000 0.0000 0.0000 14.0092
#
#
#
# Elastic Compliance Matrix: (Units=1/GPa)
#
#
# Indices 1 2 3 4 5 6 
#
# 1 0.020111 -0.001143 -0.002087 0.000000 0.000000 0.000000
# 2 -0.001143 0.014305 -0.003643 0.000000 0.000000 0.000000
# 3 -0.002087 -0.003643 0.013296 0.000000 0.000000 0.000000
# 4 0.000000 0.000000 0.000000 0.065389 0.000000 0.000000
# 5 0.000000 0.000000 0.000000 0.000000 0.059187 0.000000
# 6 0.000000 0.000000 0.000000 0.000000 0.000000 0.071381
#
#
# Mechanical properties :
#
#
# Convention : Reuss Voigt Hill
#
# Bulk Modulus (GPa) = 29.44050 31.82183 30.63117
# Shear Modulus (GPa) = 18.60554 20.67861 19.64207
#
# Velocity S-wave (km/s) = 3.01888 3.18262 3.10183
# Velocity P-wave (km/s) = 5.15484 5.39378 5.27566
#
# Compressibility (1/GPa) = 0.03396681
#
# Stress axis : x y z
#
# Youngs Moduli (GPa) = 49.72452 69.90361 75.21060
#
# Poissons Ratio (x) = 0.07989 0.15696
# Poissons Ratio (y) = 0.05683 0.27399
# Poissons Ratio (z) = 0.10377 0.25466
#
# Static dielectric constant tensor:
#      x y z
#    x 1.738780 0.000000 0.000000 
#    y 0.000000 1.781310 0.000000 
#    z 0.000000 0.000000 1.765470 
# 
# From -- ./inp_files/11436.got.cif
#   From: 2010.05.17/outbox.cif.g08.bks.cpg/sg23_6_cif.got.tgz:11436.got - 2010.06.04 12:02:01.
