data_PCOD9330107
_publ_section_title
;
Structure prediction by ZEFSAII (Michael W. Deem and Ramdas Pophale) SiO2 
 PCOD9330107
Probable space group: I 2 2 2
;
_chemical_formula_sum "Si O2"
_cell_formula_units_Z 64
_cell_length_a 9.720730
_cell_length_b 21.596600
_cell_length_c 16.158904
_cell_angle_alpha 90.000000
_cell_angle_beta 90.000000
_cell_angle_gamma 90.000000
_cell_volume 3392.314947
_symmetry_space_group_name_H-M "I 2 2 2"
_symmetry_group_IT_number 23
_symmetry_cell_setting 'orthorhombic'
loop_
_space_group_symop_operation_xyz
x,y,z
-x,-y,z
x,-y,-z
-x,y,-z
1/2+x,1/2+y,1/2+z
1/2-x,1/2-y,1/2+z
1/2+x,1/2-y,1/2-z
1/2-x,1/2+y,1/2-z
loop_
_atom_site_type_symbol
_atom_site_label
_atom_site_fract_x
_atom_site_fract_y
_atom_site_fract_z
Si Si1 0.849768 0.469260 0.267729
Si Si2 0.883220 0.948919 0.826675
Si Si3 0.968646 0.167555 0.093322
Si Si4 0.769794 0.731353 0.304569
Si Si5 0.729034 0.164947 0.828423
Si Si6 0.836832 0.513237 0.092733
Si Si7 0.542380 0.739034 0.093218
Si Si8 0.710905 0.630418 0.178980
O O1 0.759395 0.515128 0.323377
O O2 0.833978 0.401027 0.304217
O O3 0.792399 0.472033 0.172605
O O4 0.000000 0.500000 0.265022
O O5 0.901237 0.900598 0.900562
O O6 0.884538 0.909414 0.741265
O O7 0.000000 0.000000 0.827690
O O8 0.858610 0.211605 0.138245
O O9 0.112826 0.161820 0.142022
O O10 0.000000 0.186550 0.000000
O O11 0.725689 0.789881 0.250401
O O12 0.797939 0.673943 0.241584
O O13 0.906306 0.747366 0.353949
O O14 0.641395 0.201544 0.897019
O O15 0.797837 0.582693 0.123178
O O16 0.000000 0.500000 0.087019
O O17 0.780387 0.500000 0.000000
O O18 0.621597 0.678855 0.127244
O O19 0.500000 0.728879 0.000000
#
# Coordination Sequence:
#
# PCOD9330107 Si02
#       8
#     8   8   8   8   8   8   8   8
#     4  10  22  37  62  90 119 163 211 254 312 380
#     4  10  19  38  61  87 116 162 203 252 302 384
#     4  11  23  41  63  92 127 157 209 266 319 362
#     4  10  22  41  67  87 121 176 208 256 306 381
#     4  11  22  40  64  92 121 166 218 252 309 385
#     4   9  19  37  60  93 127 160 200 262 321 371
#     4  11  24  40  63  90 129 163 206 265 318 356
#     4   9  21  39  61  89 126 158 218 246 312 382
#
# _framework density 18.866173
#
# number of rings (size 3 to 8) (size 9 to 14) (size 15 to 20)
#    0.000    1.875    1.250    3.000    7.000    1.250 
#    2.250    0.000    0.000    0.000    0.000    0.000 
#    0.000    0.000    0.000    0.000    0.000    0.000 
#
# Total GULP energy -178489.002008 kJ/mol
# GULP energy per Si atom -5577.781313 kJ/mol
# Density = 1.882323 g / cm^3
# Si number density = 18.866173 Si / 1000 Ang^3
#
#
#
# Elastic Constant Matrix: (Units=GPa)
#
#
# Indices 1 2 3 4 5 6 
#
# 1 79.2939 34.4803 26.4113 0.0000 0.0000 0.0000
# 2 34.4803 114.2507 40.6661 0.0000 0.0000 0.0000
# 3 26.4113 40.6661 76.0539 0.0001 0.0000 0.0000
# 4 0.0000 0.0000 0.0001 13.7969 0.0000 0.0000
# 5 0.0000 0.0000 0.0000 0.0000 23.0091 0.0000
# 6 0.0000 0.0000 0.0000 0.0000 0.0000 32.1218
#
#
#
# Elastic Compliance Matrix: (Units=1/GPa)
#
#
# Indices 1 2 3 4 5 6 
#
# 1 0.015234 -0.003353 -0.003498 0.000000 0.000000 0.000000
# 2 -0.003353 0.011548 -0.005010 0.000000 0.000000 0.000000
# 3 -0.003498 -0.005010 0.017042 0.000000 0.000000 0.000000
# 4 0.000000 0.000000 0.000000 0.072480 0.000000 0.000000
# 5 0.000000 0.000000 0.000000 0.000000 0.043461 0.000000
# 6 0.000000 0.000000 0.000000 0.000000 0.000000 0.031132
#
#
# Mechanical properties :
#
#
# Convention : Reuss Voigt Hill
#
# Bulk Modulus (GPa) = 49.74419 52.52377 51.13398
# Shear Modulus (GPa) = 22.59176 24.98827 23.79002
#
# Velocity S-wave (km/s) = 3.46421 3.64332 3.55489
# Velocity P-wave (km/s) = 6.51345 6.75270 6.63416
#
# Compressibility (1/GPa) = 0.02010285
#
# Stress axis : x y z
#
# Youngs Moduli (GPa) = 65.64180 86.59606 58.67758
#
# Poissons Ratio (x) = 0.29032 0.20524
# Poissons Ratio (y) = 0.22007 0.29400
# Poissons Ratio (z) = 0.22960 0.43388
#
# Static dielectric constant tensor:
#      x y z
#    x 1.628730 0.000000 0.000000 
#    y 0.000000 1.626220 0.000000 
#    z 0.000000 0.000000 1.679700 
# 
# From -- ./inp_files/23991.got.cif
#   From: 2010.05.17/outbox.cif.g08.bks.cpg/sg23_12_cif.got.tgz:23991.got - 2010.06.04 12:02:01.
