data_PCOD9330086
_publ_section_title
;
Structure prediction by ZEFSAII (Michael W. Deem and Ramdas Pophale) SiO2 
 PCOD9330086
Probable space group: I 2 2 2
;
_chemical_formula_sum "Si O2"
_cell_formula_units_Z 64
_cell_length_a 17.589533
_cell_length_b 20.562536
_cell_length_c 7.371510
_cell_angle_alpha 90.000000
_cell_angle_beta 90.000000
_cell_angle_gamma 90.000000
_cell_volume 2666.167584
_symmetry_space_group_name_H-M "I 2 2 2"
_symmetry_group_IT_number 23
_symmetry_cell_setting 'orthorhombic'
loop_
_space_group_symop_operation_xyz
x,y,z
-x,-y,z
x,-y,-z
-x,y,-z
1/2+x,1/2+y,1/2+z
1/2-x,1/2-y,1/2+z
1/2+x,1/2-y,1/2-z
1/2-x,1/2+y,1/2-z
loop_
_atom_site_type_symbol
_atom_site_label
_atom_site_fract_x
_atom_site_fract_y
_atom_site_fract_z
Si Si1 0.300327 0.096775 0.163292
Si Si2 0.287014 0.051656 0.740553
Si Si3 0.006355 0.195787 0.795797
Si Si4 0.354573 0.619133 0.730771
Si Si5 0.541429 0.176123 0.836489
Si Si6 0.351180 0.346944 0.671256
Si Si7 0.411284 0.487271 0.787378
Si Si8 0.458039 0.936031 0.312247
O O1 0.381913 0.133066 0.173124
O O2 0.236549 0.148206 0.226992
O O3 0.281012 0.027503 0.262025
O O4 0.292998 0.074761 0.951531
O O5 0.223402 0.102030 0.663516
O O6 0.369553 0.059869 0.654646
O O7 0.916395 0.199329 0.748630
O O8 0.067694 0.150268 0.688993
O O9 0.043523 0.266810 0.810031
O O10 0.000000 0.166017 0.000000
O O11 0.343002 0.659469 0.547171
O O12 0.372219 0.544765 0.676326
O O13 0.474680 0.124167 0.812051
O O14 0.500000 0.215929 0.000000
O O15 0.385834 0.417113 0.725371
O O16 0.500000 0.500000 0.766141
O O17 0.392821 0.500000 0.000000
O O18 0.500000 0.924282 0.500000
O O19 0.500000 0.000000 0.234652
#
# Coordination Sequence:
#
# PCOD9330086 Si02
#       8
#     8   8   8   8   8   8   8   8
#     4  10  20  36  65  98 123 155 208 266 315 380
#     4  10  19  37  65  97 126 152 204 266 323 381
#     4  10  23  42  64  88 124 167 218 265 312 381
#     4  10  20  38  65  89 122 167 210 263 317 383
#     4  12  24  42  65  84 123 175 220 254 308 375
#     4  10  20  39  63  90 123 165 214 262 317 385
#     4  11  21  32  55  91 134 165 202 255 325 386
#     4  11  23  40  63  90 125 161 204 262 327 375
#
# _framework density 24.004491000000002
#
# number of rings (size 3 to 8) (size 9 to 14) (size 15 to 20)
#    0.000    1.500    5.000    0.750    0.000    1.750 
#    6.750    0.000    0.000    0.000    0.000    0.000 
#    0.000    0.000    0.000    0.000    0.000    0.000 
#
# Total GULP energy -178162.845905 kJ/mol
# GULP energy per Si atom -5567.588935 kJ/mol
# Density = 2.394986 g / cm^3
# Si number density = 24.004491 Si / 1000 Ang^3
#
#
#
# Elastic Constant Matrix: (Units=GPa)
#
#
# Indices 1 2 3 4 5 6 
#
# 1 193.4944 36.5252 11.1068 0.0000 0.0000 0.0000
# 2 36.5252 75.0713 -6.7518 0.0000 0.0000 0.0000
# 3 11.1068 -6.7518 41.8308 0.0000 0.0000 0.0000
# 4 0.0000 0.0000 0.0000 20.1427 0.0000 0.0000
# 5 0.0000 0.0000 0.0000 0.0000 17.3926 0.0000
# 6 0.0000 0.0000 0.0000 0.0000 0.0000 35.1888
#
#
#
# Elastic Compliance Matrix: (Units=1/GPa)
#
#
# Indices 1 2 3 4 5 6 
#
# 1 0.005858 -0.003034 -0.002045 0.000000 0.000000 0.000000
# 2 -0.003034 0.015088 0.003241 0.000000 0.000000 0.000000
# 3 -0.002045 0.003241 0.024972 0.000000 0.000000 0.000000
# 4 0.000000 0.000000 0.000000 0.049646 0.000000 0.000000
# 5 0.000000 0.000000 0.000000 0.000000 0.057496 0.000000
# 6 0.000000 0.000000 0.000000 0.000000 0.000000 0.028418
#
#
# Mechanical properties :
#
#
# Convention : Reuss Voigt Hill
#
# Bulk Modulus (GPa) = 23.67319 43.57298 33.62309
# Shear Modulus (GPa) = 25.09590 32.51258 28.80424
#
# Velocity S-wave (km/s) = 3.23688 3.68426 3.46779
# Velocity P-wave (km/s) = 4.88398 6.02410 5.48375
#
# Compressibility (1/GPa) = 0.04224187
#
# Stress axis : x y z
#
# Youngs Moduli (GPa) = 170.69899 66.27590 40.04483
#
# Poissons Ratio (x) = 0.20110 0.08190
# Poissons Ratio (y) = 0.51794 -0.12979
# Poissons Ratio (z) = 0.34912 -0.21480
#
# Static dielectric constant tensor:
#      x y z
#    x 2.076160 0.000000 0.000000 
#    y 0.000000 1.878830 0.000000 
#    z 0.000000 0.000000 2.624790 
# 
# From -- ./inp_files/11438.got.cif
#   From: 2010.05.17/outbox.cif.g08.bks.cpg/sg23_6_cif.got.tgz:11438.got - 2010.06.04 12:02:01.
