data_PCOD9330839
_publ_section_title
;
Structure prediction by ZEFSAII (Michael W. Deem and Ramdas Pophale) SiO2 
 PCOD9330839
Probable space group: I 2 2 2
;
_chemical_formula_sum "Si O2"
_cell_formula_units_Z 64
_cell_length_a 8.351281
_cell_length_b 18.597586
_cell_length_c 20.462871
_cell_angle_alpha 90.000000
_cell_angle_beta 90.000000
_cell_angle_gamma 90.000000
_cell_volume 3178.163524
_symmetry_space_group_name_H-M "I 2 2 2"
_symmetry_group_IT_number 23
_symmetry_cell_setting 'orthorhombic'
loop_
_space_group_symop_operation_xyz
x,y,z
-x,-y,z
x,-y,-z
-x,y,-z
1/2+x,1/2+y,1/2+z
1/2-x,1/2-y,1/2+z
1/2+x,1/2-y,1/2-z
1/2-x,1/2+y,1/2-z
loop_
_atom_site_type_symbol
_atom_site_label
_atom_site_fract_x
_atom_site_fract_y
_atom_site_fract_z
Si Si1 0.166524 0.114551 0.709139
Si Si2 0.680154 0.968879 0.274826
Si Si3 0.192221 0.823238 0.706366
Si Si4 0.837405 0.542861 0.626445
Si Si5 0.342659 0.577196 0.544714
Si Si6 0.824662 0.252348 0.843756
Si Si7 0.174114 0.190565 0.841958
Si Si8 0.864994 0.675902 0.546883
O O1 0.203865 0.031296 0.698623
O O2 0.271750 0.165761 0.663582
O O3 0.216866 0.137753 0.782469
O O4 0.983299 0.140902 0.705722
O O5 0.500000 0.000000 0.276160
O O6 0.693644 0.890980 0.307938
O O7 0.732744 0.955493 0.199212
O O8 0.238713 0.789171 0.777693
O O9 0.196122 0.754709 0.657498
O O10 0.719321 0.496396 0.578997
O O11 0.902332 0.621391 0.606087
O O12 0.000000 0.500000 0.627888
O O13 0.500000 0.573245 0.500000
O O14 0.365740 0.636378 0.600423
O O15 0.208831 0.616149 0.501553
O O16 0.759189 0.226172 0.914352
O O17 0.011550 0.236442 0.835148
O O18 0.000000 0.710411 0.500000
#
# Coordination Sequence:
#
# PCOD9330839 Si02
#       8
#     8   8   8   8   8   8   8   8
#     4  10  21  36  59  83 113 149 196 244 301 350
#     4  11  21  36  59  86 117 155 187 240 300 355
#     4  10  21  36  59  82 114 148 197 246 300 348
#     4  11  23  38  53  79 120 164 203 233 276 345
#     4  12  24  39  56  83 115 162 204 240 285 341
#     4  10  21  39  55  81 113 156 195 246 292 347
#     4  10  21  39  55  81 114 153 197 247 290 349
#     4  12  24  37  56  80 119 163 202 240 283 346
#
# _framework density 20.137415000000001
#
# number of rings (size 3 to 8) (size 9 to 14) (size 15 to 20)
#    0.000    1.250    5.000    1.500    1.750    2.000 
#    2.250    0.000    0.000    0.000    0.000    0.875 
#    0.000    0.000    0.000    0.000    0.000    0.000 
#
# Total GULP energy -178287.229085 kJ/mol
# GULP energy per Si atom -5571.475909 kJ/mol
# Density = 2.009158 g / cm^3
# Si number density = 20.137415 Si / 1000 Ang^3
#
#
#
# Elastic Constant Matrix: (Units=GPa)
#
#
# Indices 1 2 3 4 5 6 
#
# 1 37.0891 7.4076 5.4691 0.0000 0.0000 0.0000
# 2 7.4076 98.7197 20.0083 0.0000 0.0000 0.0000
# 3 5.4691 20.0083 36.0656 0.0000 0.0000 0.0000
# 4 0.0000 0.0000 0.0000 -33.6892 0.0000 0.0000
# 5 0.0000 0.0000 0.0000 0.0000 18.0156 0.0000
# 6 0.0000 0.0000 0.0000 0.0000 0.0000 30.9779
#
#
#
# Elastic Compliance Matrix: (Units=1/GPa)
#
#
# Indices 1 2 3 4 5 6 
#
# 1 0.027746 -0.001385 -0.003439 0.000000 0.000000 0.000000
# 2 -0.001385 0.011482 -0.006160 0.000000 0.000000 0.000000
# 3 -0.003439 -0.006160 0.031666 0.000000 0.000000 0.000000
# 4 0.000000 0.000000 0.000000 -0.029683 0.000000 0.000000
# 5 0.000000 0.000000 0.000000 0.000000 0.055507 0.000000
# 6 0.000000 0.000000 0.000000 0.000000 0.000000 0.032281
#
#
# Mechanical properties :
#
#
# Convention : Reuss Voigt Hill
#
# Bulk Modulus (GPa) = 20.43900 26.40492 23.42196
# Shear Modulus (GPa) = 29.89068 12.32682 21.10875
#
# Velocity S-wave (km/s) = 3.85689 2.47682 3.24116
# Velocity P-wave (km/s) = 5.47776 4.61740 5.06588
#
# Compressibility (1/GPa) = 0.04892607
#
# Stress axis : x y z
#
# Youngs Moduli (GPa) = 36.04150 87.09205 31.57940
#
# Poissons Ratio (x) = 0.12062 0.10861
# Poissons Ratio (y) = 0.04991 0.19453
# Poissons Ratio (z) = 0.12395 0.53649
#
# Static dielectric constant tensor:
#      x y z
#    x 1.806460 0.000000 0.000000 
#    y 0.000000 2.077910 0.000000 
#    z 0.000000 0.000000 1.856590 
# 
# From -- ./inp_files/11418.got.cif
#   From: 2010.05.17/outbox.cif.g08.bks.cpg/sg23_6_cif.got.tgz:11418.got - 2010.06.04 12:02:01.
