data_PCOD9330772
_publ_section_title
;
Structure prediction by ZEFSAII (Michael W. Deem and Ramdas Pophale) SiO2 
 PCOD9330772
Probable space group: I 2 2 2
;
_chemical_formula_sum "Si O2"
_cell_formula_units_Z 40
_cell_length_a 9.297845
_cell_length_b 8.182421
_cell_length_c 25.379354
_cell_angle_alpha 90.000000
_cell_angle_beta 90.000000
_cell_angle_gamma 90.000000
_cell_volume 1930.832883
_symmetry_space_group_name_H-M "I 2 2 2"
_symmetry_group_IT_number 23
_symmetry_cell_setting 'orthorhombic'
loop_
_space_group_symop_operation_xyz
x,y,z
-x,-y,z
x,-y,-z
-x,y,-z
1/2+x,1/2+y,1/2+z
1/2-x,1/2-y,1/2+z
1/2+x,1/2-y,1/2-z
1/2-x,1/2+y,1/2-z
loop_
_atom_site_type_symbol
_atom_site_label
_atom_site_fract_x
_atom_site_fract_y
_atom_site_fract_z
Si Si1 0.500000 0.000000 0.816455
Si Si2 0.000000 0.000000 0.000000
Si Si3 0.000000 0.500000 0.000000
Si Si4 0.731041 0.842953 0.247596
Si Si5 0.520924 0.196867 0.317587
Si Si6 0.591907 0.658911 0.853743
Si Si7 0.366076 0.747996 0.577500
O O1 0.355411 0.990207 0.781074
O O2 0.503230 0.827191 0.845870
O O3 0.106280 0.902867 0.039063
O O4 0.903412 0.604385 0.961038
O O5 0.597680 0.746288 0.274517
O O6 0.826228 0.754668 0.203600
O O7 0.830988 0.883510 0.297736
O O8 0.479508 0.264709 0.374404
O O9 0.500000 0.000000 0.321755
O O10 0.500000 0.500000 0.869280
O O11 0.715963 0.711329 0.894593
#
# Coordination Sequence:
#
# PCOD9330772 Si02
#       7
#     4   2   2   8   8   8   8
#     4  12  26  41  64 101 152 199 239 280 350 428
#     4  10  24  50  68 108 132 174 248 332 356 444
#     4  10  20  48  74  94 124 170 250 320 352 432
#     4  11  23  40  64 104 152 195 235 282 348 437
#     4  11  22  40  67 103 142 193 235 287 357 444
#     4  11  27  44  70 106 148 194 238 294 360 443
#     4  10  24  43  75 101 131 183 241 305 374 418
#
# _framework density 20.716446999999999
#
# number of rings (size 3 to 8) (size 9 to 14) (size 15 to 20)
#    0.000    1.200    4.000    0.000   11.200    0.000 
#    3.600    0.500    0.000    0.000    0.000    0.000 
#    0.000    0.000    0.000    0.000    0.000    0.000 
#
# Total GULP energy -111645.075109 kJ/mol
# GULP energy per Si atom -5582.253755 kJ/mol
# Density = 2.066930 g / cm^3
# Si number density = 20.716447 Si / 1000 Ang^3
#
#
#
# Elastic Constant Matrix: (Units=GPa)
#
#
# Indices 1 2 3 4 5 6 
#
# 1 107.8255 60.8046 61.5901 0.0000 0.0000 0.0000
# 2 60.8046 122.4248 63.6393 0.0000 0.0000 0.0000
# 3 61.5901 63.6393 142.8169 0.0000 0.0000 0.0000
# 4 0.0000 0.0000 0.0000 -19.3874 0.0000 0.0000
# 5 0.0000 0.0000 0.0000 0.0000 26.7670 0.0000
# 6 0.0000 0.0000 0.0000 0.0000 0.0000 59.1322
#
#
#
# Elastic Compliance Matrix: (Units=1/GPa)
#
#
# Indices 1 2 3 4 5 6 
#
# 1 0.014402 -0.005108 -0.003935 0.000000 0.000000 0.000000
# 2 -0.005108 0.012442 -0.003342 0.000000 0.000000 0.000000
# 3 -0.003935 -0.003342 0.010188 0.000000 0.000000 0.000000
# 4 0.000000 0.000000 0.000000 -0.051580 0.000000 0.000000
# 5 0.000000 0.000000 0.000000 0.000000 0.037359 0.000000
# 6 0.000000 0.000000 0.000000 0.000000 0.000000 0.016911
#
#
# Mechanical properties :
#
#
# Convention : Reuss Voigt Hill
#
# Bulk Modulus (GPa) = 81.54013 82.79278 82.16645
# Shear Modulus (GPa) = 72.90835 25.77125 49.33980
#
# Velocity S-wave (km/s) = 5.93884 3.53086 4.88553
# Velocity P-wave (km/s) = 9.29903 7.52823 8.46009
#
# Compressibility (1/GPa) = 0.01226390
#
# Stress axis : x y z
#
# Youngs Moduli (GPa) = 69.43378 80.37236 98.15518
#
# Poissons Ratio (x) = 0.41051 0.38624
# Poissons Ratio (y) = 0.35464 0.32799
# Poissons Ratio (z) = 0.27322 0.26857
#
# Static dielectric constant tensor:
#      x y z
#    x 1.879410 0.000000 0.000000 
#    y 0.000000 1.828050 0.000000 
#    z 0.000000 0.000000 1.681260 
# 
# From -- ./inp_files/27918.got.cif
#   From: 2010.05.17/outbox.cif.g08.bks.cpg/sg23_14_cif.got.tgz:27918.got - 2010.06.04 12:02:01.
