data_PCOD9330280
_publ_section_title
;
Structure prediction by ZEFSAII (Michael W. Deem and Ramdas Pophale) SiO2 
 PCOD9330280
Probable space group: I 2 2 2
;
_chemical_formula_sum "Si O2"
_cell_formula_units_Z 64
_cell_length_a 9.441781
_cell_length_b 11.839138
_cell_length_c 26.866343
_cell_angle_alpha 90.000000
_cell_angle_beta 90.000000
_cell_angle_gamma 90.000000
_cell_volume 3003.188282
_symmetry_space_group_name_H-M "I 2 2 2"
_symmetry_group_IT_number 23
_symmetry_cell_setting 'orthorhombic'
loop_
_space_group_symop_operation_xyz
x,y,z
-x,-y,z
x,-y,-z
-x,y,-z
1/2+x,1/2+y,1/2+z
1/2-x,1/2-y,1/2+z
1/2+x,1/2-y,1/2-z
1/2-x,1/2+y,1/2-z
loop_
_atom_site_type_symbol
_atom_site_label
_atom_site_fract_x
_atom_site_fract_y
_atom_site_fract_z
Si Si1 0.673258 0.498044 0.298578
Si Si2 0.569150 0.883318 0.306922
Si Si3 0.548261 0.842029 0.801678
Si Si4 0.718866 0.659705 0.542661
Si Si5 0.996863 0.370219 0.585823
Si Si6 0.815874 0.109186 0.066625
Si Si7 0.378876 0.415430 0.810483
Si Si8 0.430508 0.316776 0.634722
O O1 0.500000 0.500000 0.304557
O O2 0.796040 0.594342 0.303891
O O3 0.675553 0.473400 0.240129
O O4 0.685637 0.394956 0.337436
O O5 0.544566 0.877759 0.246446
O O6 0.724831 0.884096 0.332118
O O7 0.483714 0.776228 0.327133
O O8 0.500000 0.000000 0.322618
O O9 0.478757 0.866357 0.855094
O O10 0.557846 0.706774 0.798263
O O11 0.696422 0.526404 0.557954
O O12 0.657713 0.663345 0.487446
O O13 0.641254 0.730889 0.584852
O O14 0.884605 0.685370 0.551242
O O15 0.834355 0.336492 0.580494
O O16 0.000000 0.500000 0.569305
O O17 0.929433 0.126410 0.109977
O O18 0.500000 0.500000 0.831877
#
# Coordination Sequence:
#
# PCOD9330280 Si02
#       8
#     8   8   8   8   8   8   8   8
#     4  11  21  38  60  90 126 169 217 262 314 385
#     4  12  26  42  61  90 129 175 219 270 327 384
#     4  12  24  41  66  93 135 181 221 270 327 388
#     4  10  21  35  60  92 125 161 206 270 333 398
#     4  10  20  34  57  91 126 169 216 260 320 399
#     4  10  20  38  59  88 127 163 205 266 337 399
#     4  11  26  42  61  88 127 178 222 271 320 380
#     4  12  23  39  62  92 124 164 217 265 322 399
#
# _framework density 21.310684999999999
#
# number of rings (size 3 to 8) (size 9 to 14) (size 15 to 20)
#    0.000    1.000    2.500    6.000    3.500    3.500 
#    0.000    0.000    0.000    1.500    0.000    0.000 
#    0.000    3.000    0.000    0.000    0.000    0.000 
#
# Total GULP energy -178162.904275 kJ/mol
# GULP energy per Si atom -5567.590759 kJ/mol
# Density = 2.126218 g / cm^3
# Si number density = 21.310685 Si / 1000 Ang^3
#
#
#
# Elastic Constant Matrix: (Units=GPa)
#
#
# Indices 1 2 3 4 5 6 
#
# 1 116.6857 20.2714 -2.4641 0.0000 0.0000 0.0000
# 2 20.2714 62.5311 -11.4638 0.0000 0.0000 0.0000
# 3 -2.4641 -11.4638 71.5246 0.0000 0.0000 0.0000
# 4 0.0000 0.0000 0.0000 -13.9481 0.0000 0.0000
# 5 0.0000 0.0000 0.0000 0.0000 20.7296 0.0000
# 6 0.0000 0.0000 0.0000 0.0000 0.0000 16.8197
#
#
#
# Elastic Compliance Matrix: (Units=1/GPa)
#
#
# Indices 1 2 3 4 5 6 
#
# 1 0.009083 -0.002975 -0.000164 0.000000 0.000000 0.000000
# 2 -0.002975 0.017450 0.002694 0.000000 0.000000 0.000000
# 3 -0.000164 0.002694 0.014407 0.000000 0.000000 0.000000
# 4 0.000000 0.000000 0.000000 -0.071694 0.000000 0.000000
# 5 0.000000 0.000000 0.000000 0.000000 0.048240 0.000000
# 6 0.000000 0.000000 0.000000 0.000000 0.000000 0.059454
#
#
# Mechanical properties :
#
#
# Convention : Reuss Voigt Hill
#
# Bulk Modulus (GPa) = 24.96700 29.26982 27.11841
# Shear Modulus (GPa) = 54.83655 21.01345 37.92500
#
# Velocity S-wave (km/s) = 5.07817 3.14355 4.22314
# Velocity P-wave (km/s) = 6.79153 5.19043 6.04423
#
# Compressibility (1/GPa) = 0.04005286
#
# Stress axis : x y z
#
# Youngs Moduli (GPa) = 110.09154 57.30552 69.40872
#
# Poissons Ratio (x) = 0.17047 0.01137
# Poissons Ratio (y) = 0.32749 -0.18702
# Poissons Ratio (z) = 0.01804 -0.15440
#
# Static dielectric constant tensor:
#      x y z
#    x 1.984150 0.000000 0.000000 
#    y 0.000000 1.864100 0.000000 
#    z 0.000000 0.000000 1.804130 
# 
# From -- ./inp_files/30352.got.cif
#   From: 2010.05.17/outbox.cif.g08.bks.cpg/sg23_16_cif.got.tgz:30352.got - 2010.06.04 12:02:01.
