data_PCOD9330345
_publ_section_title
;
Structure prediction by ZEFSAII (Michael W. Deem and Ramdas Pophale) SiO2 
 PCOD9330345
Probable space group: I 2 2 2
;
_chemical_formula_sum "Si O2"
_cell_formula_units_Z 44
_cell_length_a 21.193511
_cell_length_b 5.271363
_cell_length_c 20.296515
_cell_angle_alpha 90.000000
_cell_angle_beta 90.000000
_cell_angle_gamma 90.000000
_cell_volume 2267.500062
_symmetry_space_group_name_H-M "I 2 2 2"
_symmetry_group_IT_number 23
_symmetry_cell_setting 'orthorhombic'
loop_
_space_group_symop_operation_xyz
x,y,z
-x,-y,z
x,-y,-z
-x,y,-z
1/2+x,1/2+y,1/2+z
1/2-x,1/2-y,1/2+z
1/2+x,1/2-y,1/2-z
1/2-x,1/2+y,1/2-z
loop_
_atom_site_type_symbol
_atom_site_label
_atom_site_fract_x
_atom_site_fract_y
_atom_site_fract_z
Si Si1 0.219443 0.310781 0.110118
Si Si2 0.957063 0.247975 0.102702
Si Si3 0.226327 0.821411 0.186542
Si Si4 0.042017 0.247724 0.745684
Si Si5 0.830034 0.333233 0.323144
Si Si6 0.135950 0.500000 0.000000
O O1 0.197146 0.069195 0.152086
O O2 0.295651 0.273145 0.111547
O O3 0.181934 0.325351 0.043229
O O4 0.207418 0.572783 0.147525
O O5 0.933324 0.217917 0.178512
O O6 0.906087 0.321604 0.047465
O O7 0.000000 0.500000 0.103831
O O8 0.000000 0.000000 0.087778
O O9 0.301833 0.880809 0.181765
O O10 0.205997 0.799488 0.261630
O O11 0.098070 0.289047 0.693504
O O12 0.000000 0.500000 0.744708
O O13 0.000000 0.000000 0.731880
#
# Coordination Sequence:
#
# PCOD9330345 Si02
#       6
#     8   8   8   8   8   4
#     4  10  23  35  56  91 110 155 196 250 308 358
#     4  10  24  42  56  80 114 168 210 242 276 345
#     4  10  20  35  59  85 116 151 192 254 319 351
#     4  10  23  37  61  88 120 158 197 247 301 363
#     4  10  20  37  59  86 120 141 199 252 314 362
#     4  12  25  42  64  82 129 168 214 252 302 346
#
# _framework density 19.404630000000001
#
# number of rings (size 3 to 8) (size 9 to 14) (size 15 to 20)
#    1.091    0.727    1.818    1.364    2.545    9.455 
#    0.000    1.818    0.000    0.000    0.000    0.636 
#    0.000    0.000    0.000    0.000    0.000    0.000 
#
# Total GULP energy -122597.114947 kJ/mol
# GULP energy per Si atom -5572.596134 kJ/mol
# Density = 1.936046 g / cm^3
# Si number density = 19.404630 Si / 1000 Ang^3
#
#
#
# Elastic Constant Matrix: (Units=GPa)
#
#
# Indices 1 2 3 4 5 6 
#
# 1 113.9782 30.4221 38.0050 0.0000 0.0000 0.0000
# 2 30.4221 124.2840 8.0647 0.0000 0.0000 0.0000
# 3 38.0050 8.0647 42.3104 0.0000 0.0000 0.0000
# 4 0.0000 0.0000 0.0000 7.9812 0.0000 0.0000
# 5 0.0000 0.0000 0.0000 0.0000 136.5291 0.0000
# 6 0.0000 0.0000 0.0000 0.0000 0.0000 20.1162
#
#
#
# Elastic Compliance Matrix: (Units=1/GPa)
#
#
# Indices 1 2 3 4 5 6 
#
# 1 0.013251 -0.002502 -0.011426 0.000000 0.000000 0.000000
# 2 -0.002502 0.008619 0.000605 0.000000 0.000000 0.000000
# 3 -0.011426 0.000605 0.033783 0.000000 0.000000 0.000000
# 4 0.000000 0.000000 0.000000 0.125295 0.000000 0.000000
# 5 0.000000 0.000000 0.000000 0.000000 0.007324 0.000000
# 6 0.000000 0.000000 0.000000 0.000000 0.000000 0.049711
#
#
# Mechanical properties :
#
#
# Convention : Reuss Voigt Hill
#
# Bulk Modulus (GPa) = 34.47494 48.17290 41.32392
# Shear Modulus (GPa) = 18.22820 46.53069 32.37945
#
# Velocity S-wave (km/s) = 3.06825 4.90217 4.08934
# Velocity P-wave (km/s) = 5.50973 7.54460 6.60599
#
# Compressibility (1/GPa) = 0.02900658
#
# Stress axis : x y z
#
# Youngs Moduli (GPa) = 75.46384 116.01815 29.60072
#
# Poissons Ratio (x) = 0.29030 0.33822
# Poissons Ratio (y) = 0.18883 -0.01790
# Poissons Ratio (z) = 0.86225 -0.07016
#
# Static dielectric constant tensor:
#      x y z
#    x 1.740930 0.000000 0.000000 
#    y 0.000000 1.719010 0.000000 
#    z 0.000000 0.000000 1.705090 
# 
# From -- ./inp_files/28661.got.cif
#   From: 2010.05.17/outbox.cif.g08.bks.cpg/sg23_15_cif.got.tgz:28661.got - 2010.06.04 12:02:01.
