data_PCOD9330353
_publ_section_title
;
Structure prediction by ZEFSAII (Michael W. Deem and Ramdas Pophale) SiO2 
 PCOD9330353
Probable space group: I 2 2 2
;
_chemical_formula_sum "Si O2"
_cell_formula_units_Z 56
_cell_length_a 8.973797
_cell_length_b 20.003832
_cell_length_c 15.345091
_cell_angle_alpha 90.000000
_cell_angle_beta 90.000000
_cell_angle_gamma 90.000000
_cell_volume 2754.602312
_symmetry_space_group_name_H-M "I 2 2 2"
_symmetry_group_IT_number 23
_symmetry_cell_setting 'orthorhombic'
loop_
_space_group_symop_operation_xyz
x,y,z
-x,-y,z
x,-y,-z
-x,y,-z
1/2+x,1/2+y,1/2+z
1/2-x,1/2-y,1/2+z
1/2+x,1/2-y,1/2-z
1/2-x,1/2+y,1/2-z
loop_
_atom_site_type_symbol
_atom_site_label
_atom_site_fract_x
_atom_site_fract_y
_atom_site_fract_z
Si Si1 0.115291 0.608408 0.572194
Si Si2 0.628365 0.553450 0.828534
Si Si3 0.442313 0.075387 0.404183
Si Si4 0.178446 0.007668 0.143336
Si Si5 0.979536 0.670198 0.744479
Si Si6 0.154430 0.142287 0.046928
Si Si7 0.128589 0.188950 0.234941
O O1 0.231624 0.553437 0.605188
O O2 0.026335 0.632871 0.656289
O O3 0.218656 0.663271 0.521723
O O4 0.000000 0.583596 0.500000
O O5 0.500000 0.500000 0.855958
O O6 0.760809 0.571467 0.895476
O O7 0.710146 0.519590 0.745025
O O8 0.565152 0.622978 0.785493
O O9 0.500000 0.096067 0.500000
O O10 0.506760 0.124220 0.329407
O O11 0.500000 0.000000 0.390015
O O12 0.213212 0.073835 0.089652
O O13 0.000000 0.000000 0.137231
O O14 0.061444 0.740957 0.738577
O O15 0.804476 0.684787 0.749674
O O16 0.113535 0.185813 0.130431
O O17 0.000000 0.128763 0.000000
#
# Coordination Sequence:
#
# PCOD9330353 Si02
#       7
#     8   8   8   8   8   8   8
#     4  12  24  40  61  97 141 177 209 272 332 402
#     4   9  20  41  69  99 128 168 219 274 334 395
#     4  10  22  44  69  95 127 167 226 287 334 384
#     4  10  20  35  60  97 139 173 211 255 325 406
#     4  11  25  45  65  96 134 179 225 276 334 392
#     4  11  22  38  60  96 135 174 217 264 321 404
#     4  10  24  43  63  96 135 175 228 266 326 402
#
# _framework density 20.329613999999999
#
# number of rings (size 3 to 8) (size 9 to 14) (size 15 to 20)
#    0.000    1.571    2.857    1.286    2.000    2.857 
#    5.143    1.429    0.000    0.857    0.000    0.000 
#    0.000    0.000    0.000    0.000    0.000    0.000 
#
# Total GULP energy -156254.845296 kJ/mol
# GULP energy per Si atom -5580.530189 kJ/mol
# Density = 2.028334 g / cm^3
# Si number density = 20.329614 Si / 1000 Ang^3
#
#
#
# Elastic Constant Matrix: (Units=GPa)
#
#
# Indices 1 2 3 4 5 6 
#
# 1 98.4052 34.2429 46.6463 0.0000 0.0000 0.0000
# 2 34.2429 79.6173 43.8643 0.0000 0.0000 0.0000
# 3 46.6463 43.8643 123.1766 0.0000 0.0000 0.0000
# 4 0.0000 0.0000 0.0000 -3.4784 0.0000 0.0000
# 5 0.0000 0.0000 0.0000 0.0000 47.2203 0.0000
# 6 0.0000 0.0000 0.0000 0.0000 0.0000 30.6942
#
#
#
# Elastic Compliance Matrix: (Units=1/GPa)
#
#
# Indices 1 2 3 4 5 6 
#
# 1 0.013178 -0.003631 -0.003698 0.000000 0.000000 0.000000
# 2 -0.003631 0.016626 -0.004546 0.000000 0.000000 0.000000
# 3 -0.003698 -0.004546 0.011137 0.000000 0.000000 0.000000
# 4 0.000000 0.000000 0.000000 -0.287492 0.000000 0.000000
# 5 0.000000 0.000000 0.000000 0.000000 0.021177 0.000000
# 6 0.000000 0.000000 0.000000 0.000000 0.000000 0.032579
#
#
# Mechanical properties :
#
#
# Convention : Reuss Voigt Hill
#
# Bulk Modulus (GPa) = 58.16111 61.18958 59.67534
# Shear Modulus (GPa) = -30.61589 26.65027 -1.98281
#
# Velocity S-wave (km/s) = -3.88490 3.62458 -0.98866
# Velocity P-wave (km/s) = 2.92368 6.90513 5.30230
#
# Compressibility (1/GPa) = 0.01719362
#
# Stress axis : x y z
#
# Youngs Moduli (GPa) = 75.88278 60.14646 89.78703
#
# Poissons Ratio (x) = 0.21838 0.33200
# Poissons Ratio (y) = 0.27551 0.40815
# Poissons Ratio (z) = 0.28058 0.27341
#
# Static dielectric constant tensor:
#      x y z
#    x 1.763960 0.000000 0.000000 
#    y 0.000000 1.714830 0.000000 
#    z 0.000000 0.000000 1.790400 
# 
# From -- ./inp_files/20216.got.cif
#   From: 2010.05.17/outbox.cif.g08.bks.cpg/sg23_11_cif.got.tgz:20216.got - 2010.06.04 12:02:01.
