data_PCOD9330977
_publ_section_title
;
Structure prediction by ZEFSAII (Michael W. Deem and Ramdas Pophale) SiO2 
 PCOD9330977
Probable space group: I 2 2 2
;
_chemical_formula_sum "Si O2"
_cell_formula_units_Z 64
_cell_length_a 12.211922
_cell_length_b 13.902529
_cell_length_c 17.860831
_cell_angle_alpha 90.000000
_cell_angle_beta 90.000000
_cell_angle_gamma 90.000000
_cell_volume 3032.351156
_symmetry_space_group_name_H-M "I 2 2 2"
_symmetry_group_IT_number 23
_symmetry_cell_setting 'orthorhombic'
loop_
_space_group_symop_operation_xyz
x,y,z
-x,-y,z
x,-y,-z
-x,y,-z
1/2+x,1/2+y,1/2+z
1/2-x,1/2-y,1/2+z
1/2+x,1/2-y,1/2-z
1/2-x,1/2+y,1/2-z
loop_
_atom_site_type_symbol
_atom_site_label
_atom_site_fract_x
_atom_site_fract_y
_atom_site_fract_z
Si Si1 0.631796 0.607877 0.612498
Si Si2 0.616968 0.597995 0.039250
Si Si3 0.746580 0.382857 0.232424
Si Si4 0.109681 0.878033 0.136594
Si Si5 0.463428 0.888320 0.821619
Si Si6 0.172228 0.693846 0.464213
Si Si7 0.662718 0.220133 0.128025
Si Si8 0.393210 0.559677 0.789066
O O1 0.682419 0.645468 0.691050
O O2 0.627560 0.492020 0.621094
O O3 0.508456 0.645210 0.603412
O O4 0.713949 0.637771 0.547196
O O5 0.693113 0.691144 0.039665
O O6 0.590759 0.585453 0.126033
O O7 0.658570 0.500000 0.000000
O O8 0.500000 0.617863 0.000000
O O9 0.874614 0.376902 0.254413
O O10 0.693484 0.323819 0.163283
O O11 0.713495 0.493559 0.218307
O O12 0.218200 0.824433 0.115355
O O13 0.108637 0.859482 0.226668
O O14 0.399973 0.848019 0.895672
O O15 0.576054 0.828470 0.816077
O O16 0.500000 0.000000 0.829994
O O17 0.115863 0.694011 0.545571
O O18 0.500000 0.500000 0.765625
#
# Coordination Sequence:
#
# PCOD9330977 Si02
#       8
#     8   8   8   8   8   8   8   8
#     4   9  20  41  61  90 128 166 221 277 336 406
#     4  11  22  36  61  97 131 176 216 279 342 403
#     4  10  23  39  62  98 131 171 223 284 338 417
#     4  10  21  38  65  91 121 175 223 271 337 399
#     4  11  25  46  65  95 143 180 229 284 368 427
#     4  11  25  40  63 100 135 173 223 282 355 417
#     4  12  25  38  65  94 130 175 221 274 340 412
#     4  11  19  36  64  88 124 160 213 272 332 389
#
# _framework density 21.105734999999999
#
# number of rings (size 3 to 8) (size 9 to 14) (size 15 to 20)
#    0.000    1.375    3.750    4.125    7.000    3.000 
#    0.000    1.250    0.000    0.000    0.000    0.875 
#    0.000    0.000    0.000    0.000    0.000    0.000 
#
# Total GULP energy -178304.897791 kJ/mol
# GULP energy per Si atom -5572.028056 kJ/mol
# Density = 2.105770 g / cm^3
# Si number density = 21.105735 Si / 1000 Ang^3
#
#
#
# Elastic Constant Matrix: (Units=GPa)
#
#
# Indices 1 2 3 4 5 6 
#
# 1 93.9209 22.8046 2.7384 0.0000 0.0000 0.0000
# 2 22.8046 55.8946 -3.8276 0.0000 0.0000 0.0000
# 3 2.7384 -3.8276 83.9600 0.0000 0.0000 0.0000
# 4 0.0000 0.0000 0.0000 12.9027 0.0000 0.0000
# 5 0.0000 0.0000 0.0000 0.0000 12.1509 0.0000
# 6 0.0000 0.0000 0.0000 0.0000 0.0000 19.5177
#
#
#
# Elastic Compliance Matrix: (Units=1/GPa)
#
#
# Indices 1 2 3 4 5 6 
#
# 1 0.011849 -0.004876 -0.000609 0.000000 0.000000 0.000000
# 2 -0.004876 0.019953 0.001069 0.000000 0.000000 0.000000
# 3 -0.000609 0.001069 0.011979 0.000000 0.000000 0.000000
# 4 0.000000 0.000000 0.000000 0.077503 0.000000 0.000000
# 5 0.000000 0.000000 0.000000 0.000000 0.082298 0.000000
# 6 0.000000 0.000000 0.000000 0.000000 0.000000 0.051235
#
#
# Mechanical properties :
#
#
# Convention : Reuss Voigt Hill
#
# Bulk Modulus (GPa) = 28.61294 30.80069 29.70681
# Shear Modulus (GPa) = 18.16201 23.05162 20.60681
#
# Velocity S-wave (km/s) = 2.93665 3.30843 3.12807
# Velocity P-wave (km/s) = 5.00849 5.40550 5.21078
#
# Compressibility (1/GPa) = 0.03494923
#
# Stress axis : x y z
#
# Youngs Moduli (GPa) = 84.39590 50.11691 83.47935
#
# Poissons Ratio (x) = 0.24437 0.05082
# Poissons Ratio (y) = 0.41151 -0.08921
# Poissons Ratio (z) = 0.05138 -0.05356
#
# Static dielectric constant tensor:
#      x y z
#    x 1.813580 0.000000 0.000000 
#    y 0.000000 1.861990 0.000000 
#    z 0.000000 0.000000 1.890750 
# 
# From -- ./inp_files/22179.got.cif
#   From: 2010.05.17/outbox.cif.g08.bks.cpg/sg23_12_cif.got.tgz:22179.got - 2010.06.04 12:02:01.
