data_PCOD9330679
_publ_section_title
;
Structure prediction by ZEFSAII (Michael W. Deem and Ramdas Pophale) SiO2 
 PCOD9330679
Probable space group: I 2 2 2
;
_chemical_formula_sum "Si O2"
_cell_formula_units_Z 32
_cell_length_a 12.821111
_cell_length_b 16.600354
_cell_length_c 6.322274
_cell_angle_alpha 90.000000
_cell_angle_beta 90.000000
_cell_angle_gamma 90.000000
_cell_volume 1345.601068
_symmetry_space_group_name_H-M "I 2 2 2"
_symmetry_group_IT_number 23
_symmetry_cell_setting 'orthorhombic'
loop_
_space_group_symop_operation_xyz
x,y,z
-x,-y,z
x,-y,-z
-x,y,-z
1/2+x,1/2+y,1/2+z
1/2-x,1/2-y,1/2+z
1/2+x,1/2-y,1/2-z
1/2-x,1/2+y,1/2-z
loop_
_atom_site_type_symbol
_atom_site_label
_atom_site_fract_x
_atom_site_fract_y
_atom_site_fract_z
Si Si1 0.000000 0.714374 0.500000
Si Si2 0.155155 0.575268 0.380545
Si Si3 0.103091 0.268091 0.086228
Si Si4 0.304128 0.641765 0.728045
Si Si5 0.280185 0.500000 0.000000
O O1 0.917450 0.653080 0.607212
O O2 0.934713 0.761123 0.320648
O O3 0.104755 0.500000 0.500000
O O4 0.250623 0.597198 0.532080
O O5 0.202289 0.545907 0.161218
O O6 0.211239 0.313120 0.141234
O O7 0.124460 0.204616 0.898626
O O8 0.000000 0.315195 0.000000
O O9 0.343704 0.569811 0.878250
#
# Coordination Sequence:
#
# PCOD9330679 Si02
#       5
#     4   8   8   8   4
#     4  10  21  38  60  98 142 175 234 290 358 431
#     4   9  19  37  61  93 131 180 227 287 353 426
#     4  11  25  41  68 106 141 187 238 295 363 427
#     4  10  24  40  68 102 142 182 240 294 358 422
#     4  10  20  40  69  93 136 190 226 286 358 420
#
# _framework density 23.781195
#
# number of rings (size 3 to 8) (size 9 to 14) (size 15 to 20)
#    0.000    2.000    0.000    1.875   10.500    0.000 
#    0.000   14.375    0.000    8.250    0.000    0.000 
#    0.000    0.000    0.000    0.000    0.000    0.000 
#
# Total GULP energy -89142.857428 kJ/mol
# GULP energy per Si atom -5571.428589 kJ/mol
# Density = 2.372707 g / cm^3
# Si number density = 23.781195 Si / 1000 Ang^3
#
#
#
# Elastic Constant Matrix: (Units=GPa)
#
#
# Indices 1 2 3 4 5 6 
#
# 1 38.2424 39.2068 30.3901 0.0000 0.0000 0.0000
# 2 39.2068 107.5918 79.8400 0.0000 0.0000 0.0000
# 3 30.3901 79.8400 147.5811 0.0000 0.0000 0.0000
# 4 0.0000 0.0000 0.0000 74.6298 0.0000 0.0000
# 5 0.0000 0.0000 0.0000 0.0000 22.4886 0.0000
# 6 0.0000 0.0000 0.0000 0.0000 0.0000 25.1730
#
#
#
# Elastic Compliance Matrix: (Units=1/GPa)
#
#
# Indices 1 2 3 4 5 6 
#
# 1 0.041778 -0.014769 -0.000613 0.000000 0.000000 0.000000
# 2 -0.014769 0.020749 -0.008184 0.000000 0.000000 0.000000
# 3 -0.000613 -0.008184 0.011330 0.000000 0.000000 0.000000
# 4 0.000000 0.000000 0.000000 0.013399 0.000000 0.000000
# 5 0.000000 0.000000 0.000000 0.000000 0.044467 0.000000
# 6 0.000000 0.000000 0.000000 0.000000 0.000000 0.039725
#
#
# Mechanical properties :
#
#
# Convention : Reuss Voigt Hill
#
# Bulk Modulus (GPa) = 37.41871 65.80991 51.61431
# Shear Modulus (GPa) = 21.97919 34.05684 28.01802
#
# Velocity S-wave (km/s) = 3.04341 3.78840 3.43616
# Velocity P-wave (km/s) = 5.30269 6.84611 6.12322
#
# Compressibility (1/GPa) = 0.02672460
#
# Stress axis : x y z
#
# Youngs Moduli (GPa) = 23.93628 48.19461 88.26463
#
# Poissons Ratio (x) = 0.71179 0.05411
# Poissons Ratio (y) = 0.35351 0.72235
# Poissons Ratio (z) = 0.01467 0.39442
#
# Static dielectric constant tensor:
#      x y z
#    x 1.932490 0.000000 0.000000 
#    y 0.000000 2.026500 0.000000 
#    z 0.000000 0.000000 1.957980 
# 
# From -- ./inp_files/2204.got.cif
#   From: 2010.05.17/outbox.cif.g08.bks.cpg/sg23_2_cif.got.tgz:2204.got - 2010.06.04 12:02:01.
