data_PCOD9330495
_publ_section_title
;
Structure prediction by ZEFSAII (Michael W. Deem and Ramdas Pophale) SiO2 
 PCOD9330495
Probable space group: I 2 2 2
;
_chemical_formula_sum "Si O2"
_cell_formula_units_Z 56
_cell_length_a 12.900663
_cell_length_b 8.676440
_cell_length_c 20.700287
_cell_angle_alpha 90.000000
_cell_angle_beta 90.000000
_cell_angle_gamma 90.000000
_cell_volume 2317.020974
_symmetry_space_group_name_H-M "I 2 2 2"
_symmetry_group_IT_number 23
_symmetry_cell_setting 'orthorhombic'
loop_
_space_group_symop_operation_xyz
x,y,z
-x,-y,z
x,-y,-z
-x,y,-z
1/2+x,1/2+y,1/2+z
1/2-x,1/2-y,1/2+z
1/2+x,1/2-y,1/2-z
1/2-x,1/2+y,1/2-z
loop_
_atom_site_type_symbol
_atom_site_label
_atom_site_fract_x
_atom_site_fract_y
_atom_site_fract_z
Si Si1 0.060462 0.337161 0.152034
Si Si2 0.074811 0.872755 0.594649
Si Si3 0.374149 0.180377 0.011329
Si Si4 0.959510 0.328537 0.704356
Si Si5 0.837299 0.910624 0.067660
Si Si6 0.784770 0.136031 0.182336
Si Si7 0.744039 0.477850 0.190581
O O1 0.025837 0.267746 0.222543
O O2 0.076844 0.209430 0.096027
O O3 0.176242 0.392845 0.169404
O O4 0.000000 0.500000 0.136899
O O5 0.156265 0.787407 0.548302
O O6 0.003794 0.762962 0.640882
O O7 0.149936 0.961983 0.642667
O O8 0.000000 0.000000 0.566042
O O9 0.274791 0.180602 0.059763
O O10 0.500000 0.220058 0.000000
O O11 0.379105 0.000000 0.000000
O O12 0.839715 0.350920 0.685668
O O13 0.000000 0.500000 0.705677
O O14 0.822876 0.048198 0.119438
O O15 0.859242 0.000000 0.000000
O O16 0.808501 0.316916 0.192086
O O17 0.807047 0.024536 0.241987
#
# Coordination Sequence:
#
# PCOD9330495 Si02
#       7
#     8   8   8   8   8   8   8
#     4  10  23  43  67  98 130 174 231 287 348 394
#     4  11  24  37  60 100 135 170 220 268 336 395
#     4  10  23  40  62  92 134 184 225 257 325 409
#     4   9  19  35  62  94 132 173 218 270 331 403
#     4  11  22  41  70  96 133 184 225 281 340 412
#     4  10  20  37  64  97 132 178 224 268 351 400
#     4  10  21  40  64  96 134 174 221 291 341 400
#
# _framework density 24.168965
#
# number of rings (size 3 to 8) (size 9 to 14) (size 15 to 20)
#    0.000    1.857    0.000    6.000    6.000    3.714 
#    0.000    2.857    0.000   10.286    0.000    0.000 
#    0.000    0.000    0.000    0.000    0.000    0.000 
#
# Total GULP energy -155869.120843 kJ/mol
# GULP energy per Si atom -5566.754316 kJ/mol
# Density = 2.411396 g / cm^3
# Si number density = 24.168965 Si / 1000 Ang^3
#
#
#
# Elastic Constant Matrix: (Units=GPa)
#
#
# Indices 1 2 3 4 5 6 
#
# 1 39.0817 13.6542 -0.7269 0.0000 0.0000 0.0000
# 2 13.6542 121.2356 71.5856 0.0000 0.0000 0.0000
# 3 -0.7269 71.5856 117.5141 0.0000 0.0000 0.0000
# 4 0.0000 0.0000 0.0000 52.8620 0.0000 0.0000
# 5 0.0000 0.0000 0.0000 0.0000 10.1739 0.0000
# 6 0.0000 0.0000 0.0000 0.0000 0.0000 19.0006
#
#
#
# Elastic Compliance Matrix: (Units=1/GPa)
#
#
# Indices 1 2 3 4 5 6 
#
# 1 0.027384 -0.004973 0.003199 0.000000 0.000000 0.000000
# 2 -0.004973 0.013785 -0.008428 0.000000 0.000000 0.000000
# 3 0.003199 -0.008428 0.013664 0.000000 0.000000 0.000000
# 4 0.000000 0.000000 0.000000 0.018917 0.000000 0.000000
# 5 0.000000 0.000000 0.000000 0.000000 0.098291 0.000000
# 6 0.000000 0.000000 0.000000 0.000000 0.000000 0.052630
#
#
# Mechanical properties :
#
#
# Convention : Reuss Voigt Hill
#
# Bulk Modulus (GPa) = 29.04593 49.65079 39.34836
# Shear Modulus (GPa) = 19.48927 29.29521 24.39224
#
# Velocity S-wave (km/s) = 2.84276 3.48530 3.18030
# Velocity P-wave (km/s) = 4.77692 6.06500 5.45908
#
# Compressibility (1/GPa) = 0.03442823
#
# Stress axis : x y z
#
# Youngs Moduli (GPa) = 36.51727 72.54258 73.18750
#
# Poissons Ratio (x) = 0.36075 -0.23411
# Poissons Ratio (y) = 0.18160 0.61683
# Poissons Ratio (z) = -0.11681 0.61140
#
# Static dielectric constant tensor:
#      x y z
#    x 2.011980 0.000000 0.000000 
#    y 0.000000 2.160630 0.000000 
#    z 0.000000 0.000000 2.396680 
# 
# From -- ./inp_files/26984.got.cif
#   From: 2010.05.17/outbox.cif.g08.bks.cpg/sg23_14_cif.got.tgz:26984.got - 2010.06.04 12:02:01.
