data_PCOD9330030
_publ_section_title
;
Structure prediction by ZEFSAII (Michael W. Deem and Ramdas Pophale) SiO2 
 PCOD9330030
Probable space group: I 2 2 2
;
_chemical_formula_sum "Si O2"
_cell_formula_units_Z 48
_cell_length_a 8.004694
_cell_length_b 14.400434
_cell_length_c 21.343126
_cell_angle_alpha 90.000000
_cell_angle_beta 90.000000
_cell_angle_gamma 90.000000
_cell_volume 2460.244921
_symmetry_space_group_name_H-M "I 2 2 2"
_symmetry_group_IT_number 23
_symmetry_cell_setting 'orthorhombic'
loop_
_space_group_symop_operation_xyz
x,y,z
-x,-y,z
x,-y,-z
-x,y,-z
1/2+x,1/2+y,1/2+z
1/2-x,1/2-y,1/2+z
1/2+x,1/2-y,1/2-z
1/2-x,1/2+y,1/2-z
loop_
_atom_site_type_symbol
_atom_site_label
_atom_site_fract_x
_atom_site_fract_y
_atom_site_fract_z
Si Si1 0.865717 0.695279 0.307837
Si Si2 0.877060 0.393155 0.060171
Si Si3 0.163038 0.934713 0.397016
Si Si4 0.384654 0.138925 0.298503
Si Si5 0.455262 0.264096 0.936506
Si Si6 0.685273 0.460758 0.756201
O O1 0.772486 0.793039 0.303252
O O2 0.949369 0.699815 0.375669
O O3 0.739550 0.609816 0.297508
O O4 0.990101 0.684286 0.250088
O O5 0.798416 0.497435 0.070079
O O6 0.951462 0.374105 0.130304
O O7 0.719948 0.321437 0.057402
O O8 0.000000 0.381165 0.000000
O O9 0.101271 0.841589 0.429569
O O10 0.191099 0.911440 0.324218
O O11 0.000000 0.000000 0.396362
O O12 0.316178 0.043831 0.268452
O O13 0.500000 0.211847 0.000000
O O14 0.500000 0.500000 0.746256
#
# Coordination Sequence:
#
# PCOD9330030 Si02
#       6
#     8   8   8   8   8   8
#     4  11  21  37  59  83 114 153 192 237 287 338
#     4   9  19  34  54  84 117 147 184 230 279 338
#     4   8  16  33  54  78 115 153 177 212 279 354
#     4  10  21  36  58  89 119 151 193 235 284 347
#     4  10  21  37  53  75 110 154 193 225 277 343
#     4  10  19  36  60  87 116 146 186 238 291 346
#
# _framework density 19.510252999999999
#
# number of rings (size 3 to 8) (size 9 to 14) (size 15 to 20)
#    0.000    2.333    0.000    5.500    0.000    5.667 
#    0.000   15.000    0.000    2.000    0.000    1.167 
#    0.000    0.000    0.000    0.000    0.000    0.000 
#
# Total GULP energy -133928.147717 kJ/mol
# GULP energy per Si atom -5580.339488 kJ/mol
# Density = 1.946585 g / cm^3
# Si number density = 19.510253 Si / 1000 Ang^3
#
#
#
# Elastic Constant Matrix: (Units=GPa)
#
#
# Indices 1 2 3 4 5 6 
#
# 1 67.4180 7.7152 59.3920 0.0000 0.0000 0.0000
# 2 7.7152 36.0674 38.2528 0.0000 0.0000 0.0000
# 3 59.3920 38.2528 171.0269 0.0000 0.0000 0.0000
# 4 0.0000 0.0000 0.0000 -12.3447 0.0000 0.0000
# 5 0.0000 0.0000 0.0000 0.0000 43.2383 0.0000
# 6 0.0000 0.0000 0.0000 0.0000 0.0000 30.3912
#
#
#
# Elastic Compliance Matrix: (Units=1/GPa)
#
#
# Indices 1 2 3 4 5 6 
#
# 1 0.021898 0.004432 -0.008596 0.000000 0.000000 0.000000
# 2 0.004432 0.037246 -0.009870 0.000000 0.000000 0.000000
# 3 -0.008596 -0.009870 0.011040 0.000000 0.000000 0.000000
# 4 0.000000 0.000000 0.000000 -0.081006 0.000000 0.000000
# 5 0.000000 0.000000 0.000000 0.000000 0.023128 0.000000
# 6 0.000000 0.000000 0.000000 0.000000 0.000000 0.032904
#
#
# Mechanical properties :
#
#
# Convention : Reuss Voigt Hill
#
# Bulk Modulus (GPa) = 23.74342 53.91471 38.82906
# Shear Modulus (GPa) = 57.26438 23.53378 40.39908
#
# Velocity S-wave (km/s) = 5.42353 3.47684 4.55539
# Velocity P-wave (km/s) = 7.17047 6.61906 6.90028
#
# Compressibility (1/GPa) = 0.04211693
#
# Stress axis : x y z
#
# Youngs Moduli (GPa) = 45.66594 26.84883 90.58270
#
# Poissons Ratio (x) = -0.11901 0.77864
# Poissons Ratio (y) = -0.20241 0.89403
# Poissons Ratio (z) = 0.39254 0.26499
#
# Static dielectric constant tensor:
#      x y z
#    x 1.877830 0.000000 0.000000 
#    y 0.000000 1.675580 0.000000 
#    z 0.000000 0.000000 1.722770 
# 
# From -- ./inp_files/26174.got.cif
#   From: 2010.05.17/outbox.cif.g08.bks.cpg/sg23_14_cif.got.tgz:26174.got - 2010.06.04 12:02:01.
