data_PCOD9330184
_publ_section_title
;
Structure prediction by ZEFSAII (Michael W. Deem and Ramdas Pophale) SiO2 
 PCOD9330184
Probable space group: I 2 2 2
;
_chemical_formula_sum "Si O2"
_cell_formula_units_Z 52
_cell_length_a 23.567129
_cell_length_b 20.339425
_cell_length_c 5.373886
_cell_angle_alpha 90.000000
_cell_angle_beta 90.000000
_cell_angle_gamma 90.000000
_cell_volume 2575.928472
_symmetry_space_group_name_H-M "I 2 2 2"
_symmetry_group_IT_number 23
_symmetry_cell_setting 'orthorhombic'
loop_
_space_group_symop_operation_xyz
x,y,z
-x,-y,z
x,-y,-z
-x,y,-z
1/2+x,1/2+y,1/2+z
1/2-x,1/2-y,1/2+z
1/2+x,1/2-y,1/2-z
1/2-x,1/2+y,1/2-z
loop_
_atom_site_type_symbol
_atom_site_label
_atom_site_fract_x
_atom_site_fract_y
_atom_site_fract_z
Si Si1 0.934745 0.419955 0.510733
Si Si2 0.745746 0.898365 0.658268
Si Si3 0.222114 0.000000 0.000000
Si Si4 0.474928 0.423557 0.753716
Si Si5 0.656743 0.615458 0.761936
Si Si6 0.234160 0.212927 0.026347
Si Si7 0.371294 0.920307 0.514921
O O1 0.934417 0.500000 0.500000
O O2 0.903392 0.398975 0.762820
O O3 0.000000 0.398938 0.500000
O O4 0.902986 0.398357 0.262376
O O5 0.805511 0.886643 0.516523
O O6 0.692214 0.892813 0.481982
O O7 0.737574 0.849924 0.891944
O O8 0.743089 0.971053 0.773713
O O9 0.183802 0.058748 0.093366
O O10 0.500000 0.500000 0.753640
O O11 0.500000 0.395413 0.500000
O O12 0.408030 0.408718 0.777303
O O13 0.500000 0.392307 0.000000
O O14 0.673559 0.684205 0.626857
O O15 0.236169 0.260487 0.780785
O O16 0.371412 0.000000 0.500000
#
# Coordination Sequence:
#
# PCOD9330184 Si02
#       7
#     8   8   4   8   8   8   8
#     4   9  18  31  48  71 111 160 198 234 282 352
#     4  11  24  36  61  93 135 170 211 270 349 405
#     4  10  22  32  57  90 139 176 210 244 350 412
#     4  10  23  37  58  90 138 185 229 266 323 415
#     4  11  23  39  65  93 141 182 226 282 346 412
#     4  11  24  44  65  91 125 163 232 285 346 393
#     4  10  20  31  51  80 122 155 197 241 306 398
#
# _framework density 20.186896000000001
#
# number of rings (size 3 to 8) (size 9 to 14) (size 15 to 20)
#    0.000    1.692    1.538    2.769   16.154    1.846 
#    0.000    0.000    0.000    0.000    0.000    5.385 
#    0.000    0.000    0.000    0.000    0.000    0.000 
#
# Total GULP energy -144775.945287 kJ/mol
# GULP energy per Si atom -5568.305588 kJ/mol
# Density = 2.014095 g / cm^3
# Si number density = 20.186896 Si / 1000 Ang^3
#
#
#
# Elastic Constant Matrix: (Units=GPa)
#
#
# Indices 1 2 3 4 5 6 
#
# 1 155.4828 42.9541 82.0023 0.0000 0.0000 0.0000
# 2 42.9541 45.9740 38.5617 0.0000 0.0000 0.0000
# 3 82.0023 38.5617 191.5833 0.0000 0.0000 0.0000
# 4 0.0000 0.0000 0.0000 22.9197 0.0000 0.0000
# 5 0.0000 0.0000 0.0000 0.0000 22.6756 0.0000
# 6 0.0000 0.0000 0.0000 0.0000 0.0000 13.2980
#
#
#
# Elastic Compliance Matrix: (Units=1/GPa)
#
#
# Indices 1 2 3 4 5 6 
#
# 1 0.009796 -0.006781 -0.002828 0.000000 0.000000 0.000000
# 2 -0.006781 0.030863 -0.003310 0.000000 0.000000 0.000000
# 3 -0.002828 -0.003310 0.007096 0.000000 0.000000 0.000000
# 4 0.000000 0.000000 0.000000 0.043631 0.000000 0.000000
# 5 0.000000 0.000000 0.000000 0.000000 0.044100 0.000000
# 6 0.000000 0.000000 0.000000 0.000000 0.000000 0.075199
#
#
# Mechanical properties :
#
#
# Convention : Reuss Voigt Hill
#
# Bulk Modulus (GPa) = 45.62403 80.00849 62.81626
# Shear Modulus (GPa) = 20.50615 27.08014 23.79315
#
# Velocity S-wave (km/s) = 3.19064 3.66658 3.43686
# Velocity P-wave (km/s) = 6.01859 7.59243 6.85086
#
# Compressibility (1/GPa) = 0.02191827
#
# Stress axis : x y z
#
# Youngs Moduli (GPa) = 102.07729 32.40140 140.91568
#
# Poissons Ratio (x) = 0.21970 0.39856
# Poissons Ratio (y) = 0.69215 0.46640
# Poissons Ratio (z) = 0.28871 0.10724
#
# Static dielectric constant tensor:
#      x y z
#    x 1.855680 0.000000 0.000000 
#    y 0.000000 1.907440 0.000000 
#    z 0.000000 0.000000 1.814990 
# 
# From -- ./inp_files/3944.got.cif
#   From: 2010.05.17/outbox.cif.g08.bks.cpg/sg23_2_cif.got.tgz:3944.got - 2010.06.04 12:02:01.
