data_PCOD9330102
_publ_section_title
;
Structure prediction by ZEFSAII (Michael W. Deem and Ramdas Pophale) SiO2 
 PCOD9330102
Probable space group: I 2 2 2
;
_chemical_formula_sum "Si O2"
_cell_formula_units_Z 28
_cell_length_a 6.181106
_cell_length_b 13.326383
_cell_length_c 17.370591
_cell_angle_alpha 90.000000
_cell_angle_beta 90.000000
_cell_angle_gamma 90.000000
_cell_volume 1430.846603
_symmetry_space_group_name_H-M "I 2 2 2"
_symmetry_group_IT_number 23
_symmetry_cell_setting 'orthorhombic'
loop_
_space_group_symop_operation_xyz
x,y,z
-x,-y,z
x,-y,-z
-x,y,-z
1/2+x,1/2+y,1/2+z
1/2-x,1/2-y,1/2+z
1/2+x,1/2-y,1/2-z
1/2-x,1/2+y,1/2-z
loop_
_atom_site_type_symbol
_atom_site_label
_atom_site_fract_x
_atom_site_fract_y
_atom_site_fract_z
Si Si1 0.108036 0.104067 0.708201
Si Si2 0.500000 0.215065 0.000000
Si Si3 0.777068 0.724404 0.351843
Si Si4 0.115675 0.346695 0.073740
O O1 0.227650 0.153256 0.780444
O O2 0.273496 0.084935 0.637834
O O3 0.932503 0.185484 0.677726
O O4 0.000000 0.000000 0.730137
O O5 0.608728 0.167579 0.076018
O O6 0.308214 0.281851 0.035859
O O7 0.556031 0.774730 0.383094
O O8 0.000000 0.393567 0.000000
#
# Coordination Sequence:
#
# PCOD9330102 Si02
#       4
#     8   4   8   8
#     4  11  22  36  60  94 121 159 205 248 308 366
#     4   8  18  34  63  83 112 168 200 244 310 350
#     4  10  19  38  59  87 123 155 201 257 301 361
#     4   9  18  37  58  83 122 161 194 249 307 358
#
# _framework density 19.568835
#
# number of rings (size 3 to 8) (size 9 to 14) (size 15 to 20)
#    0.000    2.286    2.857    0.000    0.000    1.143 
#    0.000   32.857    0.000    9.429    0.000    0.000 
#    0.000    0.000    0.000    0.000    0.000    0.000 
#
# Total GULP energy -78025.182127 kJ/mol
# GULP energy per Si atom -5573.227295 kJ/mol
# Density = 1.952430 g / cm^3
# Si number density = 19.568835 Si / 1000 Ang^3
#
#
#
# Elastic Constant Matrix: (Units=GPa)
#
#
# Indices 1 2 3 4 5 6 
#
# 1 94.8618 22.5325 57.3699 0.0000 0.0000 0.0000
# 2 22.5325 60.3489 52.2805 0.0000 0.0000 0.0000
# 3 57.3699 52.2805 143.9324 0.0000 0.0000 0.0000
# 4 0.0000 0.0000 0.0000 -3.9389 0.0000 0.0000
# 5 0.0000 0.0000 0.0000 0.0000 64.8728 0.0000
# 6 0.0000 0.0000 0.0000 0.0000 0.0000 19.2599
#
#
#
# Elastic Compliance Matrix: (Units=1/GPa)
#
#
# Indices 1 2 3 4 5 6 
#
# 1 0.013903 -0.000569 -0.005335 0.000000 0.000000 0.000000
# 2 -0.000569 0.024202 -0.008564 0.000000 0.000000 0.000000
# 3 -0.005335 -0.008564 0.012185 0.000000 0.000000 0.000000
# 4 0.000000 0.000000 0.000000 -0.253881 0.000000 0.000000
# 5 0.000000 0.000000 0.000000 0.000000 0.015415 0.000000
# 6 0.000000 0.000000 0.000000 0.000000 0.000000 0.051921
#
#
# Mechanical properties :
#
#
# Convention : Reuss Voigt Hill
#
# Bulk Modulus (GPa) = 46.83062 62.61210 54.72136
# Shear Modulus (GPa) = -49.89977 27.16946 -11.36516
#
# Velocity S-wave (km/s) = -5.05519 3.73017 -2.41255
# Velocity P-wave (km/s) = 3.17649 7.11460 4.50152
#
# Compressibility (1/GPa) = 0.02135355
#
# Stress axis : x y z
#
# Youngs Moduli (GPa) = 71.92542 41.31919 82.06979
#
# Poissons Ratio (x) = 0.02353 0.43783
# Poissons Ratio (y) = 0.04096 0.70283
# Poissons Ratio (z) = 0.38371 0.35385
#
# Static dielectric constant tensor:
#      x y z
#    x 1.714980 0.000000 0.000000 
#    y 0.000000 1.614450 0.000000 
#    z 0.000000 0.000000 1.713510 
# 
# From -- ./inp_files/1262.got.cif
#   From: 2010.05.17/outbox.cif.g08.bks.cpg/sg23_1_cif.got.tgz:1262.got - 2010.06.04 12:02:01.
