data_PCOD9330325
_publ_section_title
;
Structure prediction by ZEFSAII (Michael W. Deem and Ramdas Pophale) SiO2 
 PCOD9330325
Probable space group: I 2 2 2
;
_chemical_formula_sum "Si O2"
_cell_formula_units_Z 64
_cell_length_a 8.866547
_cell_length_b 25.232814
_cell_length_c 14.601237
_cell_angle_alpha 90.000000
_cell_angle_beta 90.000000
_cell_angle_gamma 90.000000
_cell_volume 3266.704548
_symmetry_space_group_name_H-M "I 2 2 2"
_symmetry_group_IT_number 23
_symmetry_cell_setting 'orthorhombic'
loop_
_space_group_symop_operation_xyz
x,y,z
-x,-y,z
x,-y,-z
-x,y,-z
1/2+x,1/2+y,1/2+z
1/2-x,1/2-y,1/2+z
1/2+x,1/2-y,1/2-z
1/2-x,1/2+y,1/2-z
loop_
_atom_site_type_symbol
_atom_site_label
_atom_site_fract_x
_atom_site_fract_y
_atom_site_fract_z
Si Si1 0.774670 0.160502 0.044728
Si Si2 0.138844 0.738413 0.934049
Si Si3 0.379319 0.112414 0.806093
Si Si4 0.306342 0.643522 0.854059
Si Si5 0.832130 0.023796 0.407874
Si Si6 0.532930 0.671591 0.687908
Si Si7 0.320031 0.489305 0.296005
Si Si8 0.288143 0.094359 0.129915
O O1 0.655040 0.160640 0.125898
O O2 0.932896 0.154627 0.098865
O O3 0.781561 0.214190 0.988657
O O4 0.727553 0.115570 0.973109
O O5 0.256574 0.691928 0.916497
O O6 0.080211 0.768258 0.840584
O O7 0.000000 0.721589 0.000000
O O8 0.344669 0.130380 0.704109
O O9 0.545709 0.095161 0.828578
O O10 0.251560 0.067041 0.824467
O O11 0.345016 0.587874 0.903114
O O12 0.432733 0.661330 0.778768
O O13 0.758638 0.000000 0.500000
O O14 0.764927 0.005619 0.309992
O O15 0.000000 0.000000 0.407024
O O16 0.676675 0.632828 0.687775
O O17 0.500000 0.500000 0.294409
O O18 0.261961 0.534313 0.362042
#
# Coordination Sequence:
#
# PCOD9330325 Si02
#       8
#     8   8   8   8   8   8   8   8
#     4   9  19  37  57  80 115 161 189 239 303 361
#     4   9  19  36  60  86 122 154 198 255 302 363
#     4  10  21  35  55  84 119 154 197 248 299 356
#     4  10  20  38  63  88 115 159 203 244 307 376
#     4   9  18  36  63  81 112 148 195 258 299 339
#     4   9  19  36  61  85 117 160 198 241 302 369
#     4  10  20  35  56  84 114 156 202 243 293 368
#     4  11  19  33  57  84 119 152 195 243 303 356
#
# _framework density 19.591608999999998
#
# number of rings (size 3 to 8) (size 9 to 14) (size 15 to 20)
#    0.000    2.375    0.000    4.875    0.000    2.500 
#    2.250    1.875   27.500    1.500    0.000    0.000 
#    0.000    0.000    0.000    0.000    0.000    0.000 
#
# Total GULP energy -178181.246856 kJ/mol
# GULP energy per Si atom -5568.163964 kJ/mol
# Density = 1.954702 g / cm^3
# Si number density = 19.591609 Si / 1000 Ang^3
#
#
#
# Elastic Constant Matrix: (Units=GPa)
#
#
# Indices 1 2 3 4 5 6 
#
# 1 51.7949 28.4067 14.8701 0.0000 0.0000 0.0000
# 2 28.4067 109.5300 49.5694 0.0000 0.0000 0.0000
# 3 14.8701 49.5694 76.5826 0.0001 0.0000 0.0000
# 4 0.0000 0.0000 0.0001 20.7922 0.0000 0.0000
# 5 0.0000 0.0000 0.0000 0.0000 10.3216 0.0000
# 6 0.0000 0.0000 0.0000 0.0000 0.0000 29.7578
#
#
#
# Elastic Compliance Matrix: (Units=1/GPa)
#
#
# Indices 1 2 3 4 5 6 
#
# 1 0.022547 -0.005468 -0.000839 0.000000 0.000000 0.000000
# 2 -0.005468 0.014238 -0.008154 0.000000 0.000000 0.000000
# 3 -0.000839 -0.008154 0.018499 0.000000 0.000000 0.000000
# 4 0.000000 0.000000 0.000000 0.048095 0.000000 0.000000
# 5 0.000000 0.000000 0.000000 0.000000 0.096885 0.000000
# 6 0.000000 0.000000 0.000000 0.000000 0.000000 0.033605
#
#
# Mechanical properties :
#
#
# Convention : Reuss Voigt Hill
#
# Bulk Modulus (GPa) = 37.93369 47.06664 42.50016
# Shear Modulus (GPa) = 18.41099 21.84506 20.12802
#
# Velocity S-wave (km/s) = 3.06884 3.34282 3.20875
# Velocity P-wave (km/s) = 5.65343 6.24302 5.95552
#
# Compressibility (1/GPa) = 0.02636179
#
# Stress axis : x y z
#
# Youngs Moduli (GPa) = 44.35264 70.23264 54.05793
#
# Poissons Ratio (x) = 0.38403 0.04534
# Poissons Ratio (y) = 0.24252 0.44081
# Poissons Ratio (z) = 0.03720 0.57270
#
# Static dielectric constant tensor:
#      x y z
#    x 1.744010 0.000000 0.000000 
#    y 0.000000 1.694810 0.000000 
#    z 0.000000 0.000000 1.745150 
# 
# From -- ./inp_files/20324.got.cif
#   From: 2010.05.17/outbox.cif.g08.bks.cpg/sg23_11_cif.got.tgz:20324.got - 2010.06.04 12:02:01.
