data_PCOD9330065
_publ_section_title
;
Structure prediction by ZEFSAII (Michael W. Deem and Ramdas Pophale) SiO2 
 PCOD9330065
Probable space group: I 2 2 2
;
_chemical_formula_sum "Si O2"
_cell_formula_units_Z 44
_cell_length_a 18.256528
_cell_length_b 13.547559
_cell_length_c 8.427702
_cell_angle_alpha 90.000000
_cell_angle_beta 90.000000
_cell_angle_gamma 90.000000
_cell_volume 2084.435252
_symmetry_space_group_name_H-M "I 2 2 2"
_symmetry_group_IT_number 23
_symmetry_cell_setting 'orthorhombic'
loop_
_space_group_symop_operation_xyz
x,y,z
-x,-y,z
x,-y,-z
-x,y,-z
1/2+x,1/2+y,1/2+z
1/2-x,1/2-y,1/2+z
1/2+x,1/2-y,1/2-z
1/2-x,1/2+y,1/2-z
loop_
_atom_site_type_symbol
_atom_site_label
_atom_site_fract_x
_atom_site_fract_y
_atom_site_fract_z
Si Si1 0.864508 0.000000 0.000000
Si Si2 0.734008 0.642233 0.291109
Si Si3 0.000000 0.500000 0.500000
Si Si4 0.500000 0.500000 0.000000
Si Si5 0.907647 0.135669 0.737669
Si Si6 0.365828 0.000000 0.500000
Si Si7 0.593286 0.135364 0.230228
Si Si8 0.749323 0.148509 0.585714
O O1 0.813741 0.941214 0.874614
O O2 0.911525 0.080011 0.904656
O O3 0.821062 0.632488 0.319816
O O4 0.713700 0.747164 0.369207
O O5 0.727278 0.646028 0.099885
O O6 0.047984 0.571723 0.607879
O O7 0.451169 0.571062 0.109964
O O8 0.930047 0.250445 0.740796
O O9 0.821746 0.135868 0.689111
O O10 0.409824 0.078609 0.602071
O O11 0.310308 0.063126 0.390000
#
# Coordination Sequence:
#
# PCOD9330065 Si02
#       8
#     4   8   2   2   8   4   8   8
#     4  12  21  37  62  93 123 156 196 250 314 374
#     4  10  20  35  60  92 124 155 194 247 307 371
#     4  12  24  42  60  82 114 162 206 250 292 340
#     4  12  24  46  64  78 118 170 206 258 304 344
#     4  11  24  41  62  91 121 158 205 249 300 364
#     4  10  19  37  60  87 119 154 186 240 304 356
#     4  10  23  40  60  88 119 155 201 242 291 356
#     4  10  20  36  60  92 123 153 193 245 308 368
#
# _framework density 21.108834999999999
#
# number of rings (size 3 to 8) (size 9 to 14) (size 15 to 20)
#    0.000    1.455    0.000    8.182    0.000    3.636 
#    0.000    7.273    0.000    0.000    0.000    0.000 
#    0.000    0.000    0.000    0.000    0.000    0.000 
#
# Total GULP energy -123033.879435 kJ/mol
# GULP energy per Si atom -5592.449065 kJ/mol
# Density = 2.106079 g / cm^3
# Si number density = 21.108835 Si / 1000 Ang^3
#
#
#
# Elastic Constant Matrix: (Units=GPa)
#
#
# Indices 1 2 3 4 5 6 
#
# 1 30.1305 37.2627 11.2776 0.0000 0.0000 0.0000
# 2 37.2627 214.1668 68.6580 0.0000 0.0000 0.0000
# 3 11.2776 68.6580 89.8564 0.0000 0.0000 0.0000
# 4 0.0000 0.0000 0.0000 45.0939 0.0000 0.0000
# 5 0.0000 0.0000 0.0000 0.0000 23.3383 0.0000
# 6 0.0000 0.0000 0.0000 0.0000 0.0000 17.1779
#
#
#
# Elastic Compliance Matrix: (Units=1/GPa)
#
#
# Indices 1 2 3 4 5 6 
#
# 1 0.042300 -0.007493 0.000417 0.000000 0.000000 0.000000
# 2 -0.007493 0.007511 -0.004799 0.000000 0.000000 0.000000
# 3 0.000417 -0.004799 0.014743 0.000000 0.000000 0.000000
# 4 0.000000 0.000000 0.000000 0.022176 0.000000 0.000000
# 5 0.000000 0.000000 0.000000 0.000000 0.042848 0.000000
# 6 0.000000 0.000000 0.000000 0.000000 0.000000 0.058214
#
#
# Mechanical properties :
#
#
# Convention : Reuss Voigt Hill
#
# Bulk Modulus (GPa) = 24.50762 63.17225 43.83994
# Shear Modulus (GPa) = 22.20781 31.58569 26.89675
#
# Velocity S-wave (km/s) = 3.24707 3.87243 3.57346
# Velocity P-wave (km/s) = 5.06885 7.07009 6.15140
#
# Compressibility (1/GPa) = 0.04080363
#
# Stress axis : x y z
#
# Youngs Moduli (GPa) = 23.64058 133.12978 67.82707
#
# Poissons Ratio (x) = 0.99758 -0.02825
# Poissons Ratio (y) = 0.17715 0.32550
# Poissons Ratio (z) = -0.00985 0.63888
#
# Static dielectric constant tensor:
#      x y z
#    x 1.746220 0.000000 0.000000 
#    y 0.000000 1.759520 0.000000 
#    z 0.000000 0.000000 1.770530 
# 
# From -- ./inp_files/11025.got.cif
#   From: 2010.05.17/outbox.cif.g08.bks.cpg/sg23_6_cif.got.tgz:11025.got - 2010.06.04 12:02:01.
