data_PCOD9330498
_publ_section_title
;
Structure prediction by ZEFSAII (Michael W. Deem and Ramdas Pophale) SiO2 
 PCOD9330498
Probable space group: I 2 2 2
;
_chemical_formula_sum "Si O2"
_cell_formula_units_Z 48
_cell_length_a 22.237671
_cell_length_b 17.125822
_cell_length_c 5.556210
_cell_angle_alpha 90.000000
_cell_angle_beta 90.000000
_cell_angle_gamma 90.000000
_cell_volume 2116.018100
_symmetry_space_group_name_H-M "I 2 2 2"
_symmetry_group_IT_number 23
_symmetry_cell_setting 'orthorhombic'
loop_
_space_group_symop_operation_xyz
x,y,z
-x,-y,z
x,-y,-z
-x,y,-z
1/2+x,1/2+y,1/2+z
1/2-x,1/2-y,1/2+z
1/2+x,1/2-y,1/2-z
1/2-x,1/2+y,1/2-z
loop_
_atom_site_type_symbol
_atom_site_label
_atom_site_fract_x
_atom_site_fract_y
_atom_site_fract_z
Si Si1 0.065955 0.291771 0.951461
Si Si2 0.596079 0.649476 0.192777
Si Si3 0.715040 0.452380 0.256705
Si Si4 0.327526 0.910137 0.531346
Si Si5 0.097511 0.863759 0.806715
Si Si6 0.762038 0.798085 0.709487
O O1 0.064953 0.233672 0.723928
O O2 0.115998 0.356283 0.927324
O O3 0.086206 0.228418 0.154440
O O4 0.000000 0.322875 0.000000
O O5 0.579179 0.603022 0.434772
O O6 0.668189 0.670702 0.208083
O O7 0.573868 0.610780 0.949995
O O8 0.706425 0.500000 0.500000
O O9 0.780946 0.416199 0.250347
O O10 0.666939 0.384282 0.273151
O O11 0.707202 0.500000 0.000000
O O12 0.285263 0.869785 0.326579
O O13 0.345747 0.000000 0.500000
O O14 0.750547 0.747146 0.462338
#
# Coordination Sequence:
#
# PCOD9330498 Si02
#       6
#     8   8   8   8   8   8
#     4  10  24  43  66  96 129 183 237 278 311 384
#     4  10  20  37  65  92 122 163 218 279 325 379
#     4  11  24  41  64 104 144 169 206 272 359 423
#     4  11  25  40  64 103 139 179 214 272 339 409
#     4  10  21  41  67  96 126 170 219 279 330 394
#     4  12  22  38  66  97 127 164 220 273 338 395
#
# _framework density 22.684114000000001
#
# number of rings (size 3 to 8) (size 9 to 14) (size 15 to 20)
#    1.000    0.333    3.333    3.000    2.333    1.000 
#    6.000    0.000    0.000    0.500    0.000    0.000 
#    0.000    0.000    0.000    0.000    0.000    0.000 
#
# Total GULP energy -133731.773376 kJ/mol
# GULP energy per Si atom -5572.157224 kJ/mol
# Density = 2.263248 g / cm^3
# Si number density = 22.684114 Si / 1000 Ang^3
#
#
#
# Elastic Constant Matrix: (Units=GPa)
#
#
# Indices 1 2 3 4 5 6 
#
# 1 84.9461 39.6537 0.3949 0.0000 0.0000 0.0000
# 2 39.6537 62.3521 30.8779 0.0000 0.0000 0.0000
# 3 0.3949 30.8779 215.5246 0.0000 0.0000 0.0000
# 4 0.0000 0.0000 0.0000 24.1404 0.0000 0.0000
# 5 0.0000 0.0000 0.0000 0.0000 -9.6360 0.0000
# 6 0.0000 0.0000 0.0000 0.0000 0.0000 1.5732
#
#
#
# Elastic Compliance Matrix: (Units=1/GPa)
#
#
# Indices 1 2 3 4 5 6 
#
# 1 0.017278 -0.011810 0.001660 0.000000 0.000000 0.000000
# 2 -0.011810 0.025336 -0.003608 0.000000 0.000000 0.000000
# 3 0.001660 -0.003608 0.005154 0.000000 0.000000 0.000000
# 4 0.000000 0.000000 0.000000 0.041424 0.000000 0.000000
# 5 0.000000 0.000000 0.000000 0.000000 -0.103778 0.000000
# 6 0.000000 0.000000 0.000000 0.000000 0.000000 0.635655
#
#
# Mechanical properties :
#
#
# Convention : Reuss Voigt Hill
#
# Bulk Modulus (GPa) = 49.38024 56.07508 52.72766
# Shear Modulus (GPa) = 7.62969 22.67529 15.15249
#
# Velocity S-wave (km/s) = 1.83596 3.16509 2.58733
# Velocity P-wave (km/s) = 5.12935 6.17501 5.67631
#
# Compressibility (1/GPa) = 0.02025102
#
# Stress axis : x y z
#
# Youngs Moduli (GPa) = 57.87856 39.47015 194.03408
#
# Poissons Ratio (x) = 0.46615 -0.32217
# Poissons Ratio (y) = 0.68355 0.70010
# Poissons Ratio (z) = -0.09610 0.14241
#
# Static dielectric constant tensor:
#      x y z
#    x 1.864090 0.000000 0.000000 
#    y 0.000000 1.895830 0.000000 
#    z 0.000000 0.000000 1.989830 
# 
# From -- ./inp_files/4463.got.cif
#   From: 2010.05.17/outbox.cif.g08.bks.cpg/sg23_3_cif.got.tgz:4463.got - 2010.06.04 12:02:01.
