data_PCOD9330380
_publ_section_title
;
Structure prediction by ZEFSAII (Michael W. Deem and Ramdas Pophale) SiO2 
 PCOD9330380
Probable space group: I 2 2 2
;
_chemical_formula_sum "Si O2"
_cell_formula_units_Z 56
_cell_length_a 7.633006
_cell_length_b 27.312030
_cell_length_c 14.287537
_cell_angle_alpha 90.000000
_cell_angle_beta 90.000000
_cell_angle_gamma 90.000000
_cell_volume 2978.564113
_symmetry_space_group_name_H-M "I 2 2 2"
_symmetry_group_IT_number 23
_symmetry_cell_setting 'orthorhombic'
loop_
_space_group_symop_operation_xyz
x,y,z
-x,-y,z
x,-y,-z
-x,y,-z
1/2+x,1/2+y,1/2+z
1/2-x,1/2-y,1/2+z
1/2+x,1/2-y,1/2-z
1/2-x,1/2+y,1/2-z
loop_
_atom_site_type_symbol
_atom_site_label
_atom_site_fract_x
_atom_site_fract_y
_atom_site_fract_z
Si Si1 0.060041 0.241521 0.108432
Si Si2 0.442820 0.890960 0.902075
Si Si3 0.395182 0.568173 0.346828
Si Si4 0.740725 0.973092 0.900396
Si Si5 0.974731 0.761417 0.608959
Si Si6 0.537322 0.656636 0.247915
Si Si7 0.567933 0.819431 0.756073
O O1 0.270506 0.246579 0.122046
O O2 0.995953 0.289795 0.166584
O O3 0.002278 0.192691 0.163827
O O4 0.000000 0.241393 0.000000
O O5 0.241312 0.904496 0.913412
O O6 0.574223 0.937523 0.888404
O O7 0.449964 0.858490 0.809490
O O8 0.500000 0.866500 0.000000
O O9 0.578945 0.556791 0.395714
O O10 0.288969 0.517432 0.328101
O O11 0.446133 0.604789 0.263671
O O12 0.722251 0.000000 0.000000
O O13 0.091261 0.722580 0.665116
O O14 0.000000 0.761872 0.500000
O O15 0.016111 0.813136 0.656594
O O16 0.747721 0.653940 0.239880
#
# Coordination Sequence:
#
# PCOD9330380 Si02
#       7
#     8   8   8   8   8   8   8
#     4  10  21  35  57  78 111 150 187 233 282 326
#     4  12  23  34  55  80 114 151 190 226 278 336
#     4  11  22  35  55  76 111 151 186 229 279 325
#     4  11  23  37  52  78 112 147 187 233 274 336
#     4  10  20  36  56  80 111 147 188 235 276 332
#     4  10  21  37  54  79 113 149 190 230 280 334
#     4  10  21  37  52  81 114 146 191 234 271 337
#
# _framework density 18.801003999999999
#
# number of rings (size 3 to 8) (size 9 to 14) (size 15 to 20)
#    0.000    1.429    2.857    3.429    0.000    5.714 
#    0.000    0.000    0.000    0.000    0.000    2.000 
#    0.000    1.143    0.000    0.000    0.000    0.000 
#
# Total GULP energy -156121.046426 kJ/mol
# GULP energy per Si atom -5575.751658 kJ/mol
# Density = 1.875821 g / cm^3
# Si number density = 18.801004 Si / 1000 Ang^3
#
#
#
# Elastic Constant Matrix: (Units=GPa)
#
#
# Indices 1 2 3 4 5 6 
#
# 1 72.3090 14.9965 -1.8449 0.0000 0.0000 0.0000
# 2 14.9965 70.1786 16.1190 0.0000 0.0000 0.0000
# 3 -1.8449 16.1190 72.0316 0.0000 0.0000 0.0000
# 4 0.0000 0.0000 0.0000 27.8606 0.0000 0.0000
# 5 0.0000 0.0000 0.0000 0.0000 21.8591 0.0000
# 6 0.0000 0.0000 0.0000 0.0000 0.0000 31.2884
#
#
#
# Elastic Compliance Matrix: (Units=1/GPa)
#
#
# Indices 1 2 3 4 5 6 
#
# 1 0.014557 -0.003370 0.001127 0.000000 0.000000 0.000000
# 2 -0.003370 0.015801 -0.003622 0.000000 0.000000 0.000000
# 3 0.001127 -0.003622 0.014722 0.000000 0.000000 0.000000
# 4 0.000000 0.000000 0.000000 0.035893 0.000000 0.000000
# 5 0.000000 0.000000 0.000000 0.000000 0.045748 0.000000
# 6 0.000000 0.000000 0.000000 0.000000 0.000000 0.031961
#
#
# Mechanical properties :
#
#
# Convention : Reuss Voigt Hill
#
# Bulk Modulus (GPa) = 29.98427 30.34004 30.16216
# Shear Modulus (GPa) = 27.54382 28.55151 28.04767
#
# Velocity S-wave (km/s) = 3.83171 3.90117 3.86660
# Velocity P-wave (km/s) = 5.96312 6.03860 6.00098
#
# Compressibility (1/GPa) = 0.03335082
#
# Stress axis : x y z
#
# Youngs Moduli (GPa) = 68.69492 63.28566 67.92442
#
# Poissons Ratio (x) = 0.21324 -0.07654
# Poissons Ratio (y) = 0.23147 0.24604
# Poissons Ratio (z) = -0.07741 0.22924
#
# Static dielectric constant tensor:
#      x y z
#    x 1.711880 0.000000 0.000000 
#    y 0.000000 1.748990 0.000000 
#    z 0.000000 0.000000 1.628710 
# 
# From -- ./inp_files/20395.got.cif
#   From: 2010.05.17/outbox.cif.g08.bks.cpg/sg23_11_cif.got.tgz:20395.got - 2010.06.04 12:02:01.
