data_PCOD9330516
_publ_section_title
;
Structure prediction by ZEFSAII (Michael W. Deem and Ramdas Pophale) SiO2 
 PCOD9330516
Probable space group: I 2 2 2
;
_chemical_formula_sum "Si O2"
_cell_formula_units_Z 54
_cell_length_a 14.440245
_cell_length_b 12.243337
_cell_length_c 15.513290
_cell_angle_alpha 90.000000
_cell_angle_beta 90.000000
_cell_angle_gamma 90.000000
_cell_volume 2742.699811
_symmetry_space_group_name_H-M "I 2 2 2"
_symmetry_group_IT_number 23
_symmetry_cell_setting 'orthorhombic'
loop_
_space_group_symop_operation_xyz
x,y,z
-x,-y,z
x,-y,-z
-x,y,-z
1/2+x,1/2+y,1/2+z
1/2-x,1/2-y,1/2+z
1/2+x,1/2-y,1/2-z
1/2-x,1/2+y,1/2-z
loop_
_atom_site_type_symbol
_atom_site_label
_atom_site_fract_x
_atom_site_fract_y
_atom_site_fract_z
Si Si1 0.345389 0.618608 0.969176
Si Si2 0.072553 0.823396 0.121848
Si Si3 0.823981 0.222624 0.286101
Si Si4 0.500000 0.500000 0.500000
Si Si5 0.133050 0.372480 0.000803
Si Si6 0.500000 0.203545 0.000000
Si Si7 0.883347 0.746952 0.183270
Si Si8 0.001614 0.622692 0.313359
O O1 0.335923 0.637122 0.865564
O O2 0.244084 0.630894 0.011178
O O3 0.380228 0.500000 0.000000
O O4 0.412466 0.715416 0.997501
O O5 0.151965 0.831743 0.194207
O O6 0.969838 0.827327 0.165446
O O7 0.066783 0.921242 0.054627
O O8 0.087596 0.709355 0.069095
O O9 0.723070 0.276764 0.298407
O O10 0.903550 0.314455 0.291587
O O11 0.117472 0.325364 0.096414
O O12 0.105201 0.500000 0.000000
O O13 0.506517 0.131927 0.084746
O O14 0.917655 0.682076 0.266377
O O15 0.000000 0.500000 0.282072
#
# Coordination Sequence:
#
# PCOD9330516 Si02
#       8
#     8   8   8   2   8   4   8   8
#     4   9  19  39  61  91 123 161 213 263 318 378
#     4  11  23  43  64  92 131 170 214 264 326 399
#     4   9  22  42  61  93 126 155 214 265 320 387
#     4  12  24  48  58  92 134 182 220 246 328 412
#     4  10  21  37  66  94 120 156 211 274 328 374
#     4  10  20  38  58  84 128 168 208 246 310 388
#     4  10  21  41  62  91 122 161 204 267 324 378
#     4  10  22  39  62  90 125 163 208 260 313 383
#
# _framework density 19.68863
#
# number of rings (size 3 to 8) (size 9 to 14) (size 15 to 20)
#    0.000    2.074    1.481    0.444    6.222    0.593 
#   10.667    0.000    0.000    0.000    0.000    0.000 
#    0.000    0.000    0.000    0.000    0.000    0.000 
#
# Total GULP energy -150496.822061 kJ/mol
# GULP energy per Si atom -5573.956373 kJ/mol
# Density = 1.964382 g / cm^3
# Si number density = 19.688630 Si / 1000 Ang^3
#
#
#
# Elastic Constant Matrix: (Units=GPa)
#
#
# Indices 1 2 3 4 5 6 
#
# 1 94.5672 5.0897 26.2067 0.0000 0.0000 0.0000
# 2 5.0897 64.2637 16.9503 0.0000 0.0000 0.0000
# 3 26.2067 16.9503 68.4456 0.0000 0.0000 0.0000
# 4 0.0000 0.0000 0.0000 10.6481 0.0000 0.0000
# 5 0.0000 0.0000 0.0000 0.0000 26.2062 0.0000
# 6 0.0000 0.0000 0.0000 0.0000 0.0000 11.8742
#
#
#
# Elastic Compliance Matrix: (Units=1/GPa)
#
#
# Indices 1 2 3 4 5 6 
#
# 1 0.011834 0.000276 -0.004599 0.000000 0.000000 0.000000
# 2 0.000276 0.016655 -0.004230 0.000000 0.000000 0.000000
# 3 -0.004599 -0.004230 0.017419 0.000000 0.000000 0.000000
# 4 0.000000 0.000000 0.000000 0.093914 0.000000 0.000000
# 5 0.000000 0.000000 0.000000 0.000000 0.038159 0.000000
# 6 0.000000 0.000000 0.000000 0.000000 0.000000 0.084216
#
#
# Mechanical properties :
#
#
# Convention : Reuss Voigt Hill
#
# Bulk Modulus (GPa) = 34.72171 35.97442 35.34806
# Shear Modulus (GPa) = 17.30679 21.68103 19.49391
#
# Velocity S-wave (km/s) = 2.96805 3.32203 3.15002
# Velocity P-wave (km/s) = 5.42397 5.74681 5.58772
#
# Compressibility (1/GPa) = 0.02880042
#
# Stress axis : x y z
#
# Youngs Moduli (GPa) = 84.50048 60.04280 57.40936
#
# Poissons Ratio (x) = -0.01656 0.26405
# Poissons Ratio (y) = -0.02331 0.24285
# Poissons Ratio (z) = 0.38866 0.25399
#
# Static dielectric constant tensor:
#      x y z
#    x 1.687800 0.000000 0.000000 
#    y 0.000000 1.679630 0.000000 
#    z 0.000000 0.000000 1.711320 
# 
# From -- ./inp_files/21636.got.cif
#   From: 2010.05.17/outbox.cif.g08.bks.cpg/sg23_11_cif.got.tgz:21636.got - 2010.06.04 12:02:01.
