data_PCOD9330849
_publ_section_title
;
Structure prediction by ZEFSAII (Michael W. Deem and Ramdas Pophale) SiO2 
 PCOD9330849
Probable space group: I 2 2 2
;
_chemical_formula_sum "Si O2"
_cell_formula_units_Z 64
_cell_length_a 23.091158
_cell_length_b 14.934910
_cell_length_c 9.082629
_cell_angle_alpha 90.000000
_cell_angle_beta 90.000000
_cell_angle_gamma 90.000000
_cell_volume 3132.275096
_symmetry_space_group_name_H-M "I 2 2 2"
_symmetry_group_IT_number 23
_symmetry_cell_setting 'orthorhombic'
loop_
_space_group_symop_operation_xyz
x,y,z
-x,-y,z
x,-y,-z
-x,y,-z
1/2+x,1/2+y,1/2+z
1/2-x,1/2-y,1/2+z
1/2+x,1/2-y,1/2-z
1/2-x,1/2+y,1/2-z
loop_
_atom_site_type_symbol
_atom_site_label
_atom_site_fract_x
_atom_site_fract_y
_atom_site_fract_z
Si Si1 0.805364 0.304066 0.359552
Si Si2 0.567186 0.600642 0.037084
Si Si3 0.371423 0.654151 0.683068
Si Si4 0.940494 0.458177 0.662805
Si Si5 0.388619 0.780394 0.117968
Si Si6 0.176576 0.515831 0.173271
Si Si7 0.285410 0.503876 0.336149
Si Si8 0.174431 0.199090 0.117567
O O1 0.830782 0.218664 0.277886
O O2 0.847965 0.324750 0.494167
O O3 0.809924 0.384875 0.241056
O O4 0.741532 0.281365 0.422199
O O5 0.593337 0.682385 0.941287
O O6 0.591241 0.500000 0.000000
O O7 0.500000 0.597339 0.000000
O O8 0.576096 0.629715 0.208154
O O9 0.338128 0.562645 0.659306
O O10 0.370268 0.695060 0.518926
O O11 0.935435 0.500000 0.500000
O O12 0.940292 0.350218 0.648155
O O13 0.882868 0.483653 0.752412
O O14 0.000000 0.500000 0.726036
O O15 0.350829 0.765481 0.263002
O O16 0.236388 0.470311 0.225776
O O17 0.171308 0.500000 0.000000
O O18 0.257705 0.500000 0.500000
O O19 0.314116 0.600749 0.312307
#
# Coordination Sequence:
#
# PCOD9330849 Si02
#       8
#     8   8   8   8   8   8   8   8
#     4  10  22  37  56  95 129 166 213 258 337 413
#     4  10  23  43  67  92 124 165 218 269 323 401
#     4  10  21  36  62  89 130 160 209 263 324 403
#     4  11  25  43  68  90 123 179 237 282 327 392
#     4  11  23  40  68  92 129 171 219 273 337 408
#     4  11  24  38  60  89 131 171 223 277 340 393
#     4   9  20  37  60  92 132 172 205 264 341 419
#     4  10  21  36  60  96 129 165 206 265 337 405
#
# _framework density 20.432433
#
# number of rings (size 3 to 8) (size 9 to 14) (size 15 to 20)
#    0.000    1.750    1.250    1.875    8.750    4.750 
#    0.000    0.625    2.750    1.500    0.000    0.000 
#    0.000    0.000    0.000    0.000    0.000    0.000 
#
# Total GULP energy -178351.542706 kJ/mol
# GULP energy per Si atom -5573.485710 kJ/mol
# Density = 2.038593 g / cm^3
# Si number density = 20.432433 Si / 1000 Ang^3
#
#
#
# Elastic Constant Matrix: (Units=GPa)
#
#
# Indices 1 2 3 4 5 6 
#
# 1 62.4971 18.1718 43.1850 0.0000 0.0000 0.0000
# 2 18.1718 85.5005 14.7822 0.0000 0.0000 0.0000
# 3 43.1850 14.7822 113.5998 0.0000 0.0000 0.0000
# 4 0.0000 0.0000 0.0000 23.7642 0.0000 0.0000
# 5 0.0000 0.0000 0.0000 0.0000 15.0474 0.0000
# 6 0.0000 0.0000 0.0000 0.0000 0.0000 8.0210
#
#
#
# Elastic Compliance Matrix: (Units=1/GPa)
#
#
# Indices 1 2 3 4 5 6 
#
# 1 0.022627 -0.003398 -0.008159 0.000000 0.000000 0.000000
# 2 -0.003398 0.012475 -0.000331 0.000000 0.000000 0.000000
# 3 -0.008159 -0.000331 0.011948 0.000000 0.000000 0.000000
# 4 0.000000 0.000000 0.000000 0.042080 0.000000 0.000000
# 5 0.000000 0.000000 0.000000 0.000000 0.066457 0.000000
# 6 0.000000 0.000000 0.000000 0.000000 0.000000 0.124672
#
#
# Mechanical properties :
#
#
# Convention : Reuss Voigt Hill
#
# Bulk Modulus (GPa) = 42.97076 45.98615 44.47846
# Shear Modulus (GPa) = 16.03619 21.73043 18.88331
#
# Velocity S-wave (km/s) = 2.80454 3.26471 3.04334
# Velocity P-wave (km/s) = 5.61815 6.06353 5.84508
#
# Compressibility (1/GPa) = 0.02327164
#
# Stress axis : x y z
#
# Youngs Moduli (GPa) = 44.19514 80.15765 83.69763
#
# Poissons Ratio (x) = 0.27240 0.68292
# Poissons Ratio (y) = 0.15019 0.02775
# Poissons Ratio (z) = 0.36061 0.02657
#
# Static dielectric constant tensor:
#      x y z
#    x 1.730190 0.000000 0.000000 
#    y 0.000000 1.803980 0.000000 
#    z 0.000000 0.000000 1.816080 
# 
# From -- ./inp_files/12738.got.cif
#   From: 2010.05.17/outbox.cif.g08.bks.cpg/sg23_7_cif.got.tgz:12738.got - 2010.06.04 12:02:01.
