data_PCOD9330151
_publ_section_title
;
Structure prediction by ZEFSAII (Michael W. Deem and Ramdas Pophale) SiO2 
 PCOD9330151
Probable space group: I 2 2 2
;
_chemical_formula_sum "Si O2"
_cell_formula_units_Z 40
_cell_length_a 26.268637
_cell_length_b 9.628118
_cell_length_c 7.511577
_cell_angle_alpha 90.000000
_cell_angle_beta 90.000000
_cell_angle_gamma 90.000000
_cell_volume 1899.809552
_symmetry_space_group_name_H-M "I 2 2 2"
_symmetry_group_IT_number 23
_symmetry_cell_setting 'orthorhombic'
loop_
_space_group_symop_operation_xyz
x,y,z
-x,-y,z
x,-y,-z
-x,y,-z
1/2+x,1/2+y,1/2+z
1/2-x,1/2-y,1/2+z
1/2+x,1/2-y,1/2-z
1/2-x,1/2+y,1/2-z
loop_
_atom_site_type_symbol
_atom_site_label
_atom_site_fract_x
_atom_site_fract_y
_atom_site_fract_z
Si Si1 0.147641 0.809619 0.860399
Si Si2 0.671349 0.601394 0.238713
Si Si3 0.556697 0.837471 0.464495
Si Si4 0.372787 0.868942 0.877527
Si Si5 0.709798 0.950063 0.696141
O O1 0.184893 0.699474 0.768870
O O2 0.142907 0.955112 0.761439
O O3 0.169206 0.835316 0.060693
O O4 0.094222 0.735877 0.896235
O O5 0.647072 0.709121 0.098253
O O6 0.730021 0.563298 0.206021
O O7 0.500000 0.781637 0.500000
O O8 0.583545 0.836360 0.270301
O O9 0.555269 0.000000 0.500000
O O10 0.319205 0.937803 0.814369
O O11 0.392251 0.000000 0.000000
O O12 0.694974 0.000000 0.500000
#
# Coordination Sequence:
#
# PCOD9330151 Si02
#       5
#     8   8   8   8   8
#     4  10  20  39  56  90 126 159 227 260 315 392
#     4  10  23  34  57  89 133 171 207 263 321 378
#     4  10  19  41  69  88 117 165 215 274 328 384
#     4  11  23  39  59  94 132 160 217 273 320 390
#     4  12  21  37  57  85 125 183 217 247 316 388
#
# _framework density 21.054742999999998
#
# number of rings (size 3 to 8) (size 9 to 14) (size 15 to 20)
#    0.000    1.400    6.000    1.200    5.600    0.000 
#    0.000   10.000    0.000    0.000    0.000    0.000 
#   36.000    0.000    0.000    0.000    0.000    0.000 
#
# Total GULP energy -111400.014573 kJ/mol
# GULP energy per Si atom -5570.000729 kJ/mol
# Density = 2.100682 g / cm^3
# Si number density = 21.054743 Si / 1000 Ang^3
#
#
#
# Elastic Constant Matrix: (Units=GPa)
#
#
# Indices 1 2 3 4 5 6 
#
# 1 127.6471 30.8354 14.9905 0.0000 0.0000 0.0000
# 2 30.8354 143.9404 31.1978 0.0000 0.0000 0.0000
# 3 14.9905 31.1978 54.1179 0.0000 0.0000 0.0000
# 4 0.0000 0.0000 0.0000 -61.5425 0.0000 0.0000
# 5 0.0000 0.0000 0.0000 0.0000 125.0156 0.0000
# 6 0.0000 0.0000 0.0000 0.0000 0.0000 -23.3232
#
#
#
# Elastic Compliance Matrix: (Units=1/GPa)
#
#
# Indices 1 2 3 4 5 6 
#
# 1 0.008362 -0.001473 -0.001467 0.000000 0.000000 0.000000
# 2 -0.001473 0.008199 -0.004318 0.000000 0.000000 0.000000
# 3 -0.001467 -0.004318 0.021374 0.000000 0.000000 0.000000
# 4 0.000000 0.000000 0.000000 -0.016249 0.000000 0.000000
# 5 0.000000 0.000000 0.000000 0.000000 0.007999 0.000000
# 6 0.000000 0.000000 0.000000 0.000000 0.000000 -0.042876
#
#
# Mechanical properties :
#
#
# Convention : Reuss Voigt Hill
#
# Bulk Modulus (GPa) = 42.70268 53.30583 48.00426
# Shear Modulus (GPa) = 547.46925 24.60876 286.03901
#
# Velocity S-wave (km/s) = 16.14269 3.42248 11.66833
# Velocity P-wave (km/s) = 19.17744 6.40238 14.29624
#
# Compressibility (1/GPa) = 0.02341773
#
# Stress axis : x y z
#
# Youngs Moduli (GPa) = 119.58417 121.96702 46.78589
#
# Poissons Ratio (x) = 0.17971 0.06863
# Poissons Ratio (y) = 0.17620 0.20204
# Poissons Ratio (z) = 0.17542 0.52670
#
# Static dielectric constant tensor:
#      x y z
#    x 2.041450 0.000000 0.000000 
#    y 0.000000 1.759160 0.000000 
#    z 0.000000 0.000000 1.815760 
# 
# From -- ./inp_files/7094.got.cif
#   From: 2010.05.17/outbox.cif.g08.bks.cpg/sg23_4_cif.got.tgz:7094.got - 2010.06.04 12:02:01.
