data_PCOD9330061
_publ_section_title
;
Structure prediction by ZEFSAII (Michael W. Deem and Ramdas Pophale) SiO2 
 PCOD9330061
Probable space group: I 2 2 2
;
_chemical_formula_sum "Si O2"
_cell_formula_units_Z 56
_cell_length_a 22.386005
_cell_length_b 14.863990
_cell_length_c 7.235418
_cell_angle_alpha 90.000000
_cell_angle_beta 90.000000
_cell_angle_gamma 90.000000
_cell_volume 2407.551727
_symmetry_space_group_name_H-M "I 2 2 2"
_symmetry_group_IT_number 23
_symmetry_cell_setting 'orthorhombic'
loop_
_space_group_symop_operation_xyz
x,y,z
-x,-y,z
x,-y,-z
-x,y,-z
1/2+x,1/2+y,1/2+z
1/2-x,1/2-y,1/2+z
1/2+x,1/2-y,1/2-z
1/2-x,1/2+y,1/2-z
loop_
_atom_site_type_symbol
_atom_site_label
_atom_site_fract_x
_atom_site_fract_y
_atom_site_fract_z
Si Si1 0.995943 0.288804 0.786579
Si Si2 0.670648 0.464708 0.210218
Si Si3 0.110535 0.618068 0.195539
Si Si4 0.757719 0.380227 0.709353
Si Si5 0.892481 0.415982 0.750182
Si Si6 0.261761 0.177329 0.363120
Si Si7 0.031785 0.085547 0.294823
O O1 0.063779 0.309131 0.729377
O O2 0.945182 0.348932 0.689693
O O3 0.979014 0.184798 0.781371
O O4 0.000000 0.318698 0.000000
O O5 0.706934 0.543638 0.317853
O O6 0.706753 0.372124 0.234473
O O7 0.601181 0.440477 0.227187
O O8 0.674653 0.500000 0.000000
O O9 0.091670 0.520553 0.269193
O O10 0.177877 0.646568 0.237076
O O11 0.112429 0.605810 0.971203
O O12 0.826411 0.405148 0.664617
O O13 0.741796 0.284017 0.625668
O O14 0.760430 0.361116 0.929732
O O15 0.000000 0.091136 0.500000
O O16 0.000000 0.000000 0.205298
#
# Coordination Sequence:
#
# PCOD9330061 Si02
#       7
#     8   8   8   8   8   8   8
#     4  10  21  34  58  84 114 138 175 231 282 319
#     4  10  19  37  59  79 104 150 189 223 259 324
#     4   9  17  31  55  83 110 139 179 216 272 333
#     4  10  20  34  58  79 108 140 183 226 271 318
#     4   9  16  34  54  84 108 142 175 220 272 335
#     4  10  20  33  56  81 107 141 183 224 269 322
#     4  11  23  39  57  77 107 149 198 221 258 323
#
# _framework density 23.260145000000001
#
# number of rings (size 3 to 8) (size 9 to 14) (size 15 to 20)
#    0.000    2.143    2.857    1.286    2.000    2.000 
#    0.000    0.714    3.143    3.429    0.000    0.000 
#    0.000    0.000    0.000    0.000    0.000    0.000 
#
# Total GULP energy -156259.032227 kJ/mol
# GULP energy per Si atom -5580.679722 kJ/mol
# Density = 2.320720 g / cm^3
# Si number density = 23.260145 Si / 1000 Ang^3
#
#
#
# Elastic Constant Matrix: (Units=GPa)
#
#
# Indices 1 2 3 4 5 6 
#
# 1 222.2137 93.3809 22.6214 0.0000 0.0000 0.0000
# 2 93.3809 126.3380 5.1677 0.0000 0.0000 0.0000
# 3 22.6214 5.1677 57.6121 0.0000 0.0000 0.0000
# 4 0.0000 0.0000 0.0000 62.5905 0.0000 0.0000
# 5 0.0000 0.0000 0.0000 0.0000 -22.5270 0.0000
# 6 0.0000 0.0000 0.0000 0.0000 0.0000 30.9897
#
#
#
# Elastic Compliance Matrix: (Units=1/GPa)
#
#
# Indices 1 2 3 4 5 6 
#
# 1 0.006801 -0.004936 -0.002228 0.000000 0.000000 0.000000
# 2 -0.004936 0.011527 0.000904 0.000000 0.000000 0.000000
# 3 -0.002228 0.000904 0.018151 0.000000 0.000000 0.000000
# 4 0.000000 0.000000 0.000000 0.015977 0.000000 0.000000
# 5 0.000000 0.000000 0.000000 0.000000 -0.044391 0.000000
# 6 0.000000 0.000000 0.000000 0.000000 0.000000 0.032269
#
#
# Mechanical properties :
#
#
# Convention : Reuss Voigt Hill
#
# Bulk Modulus (GPa) = 41.73636 72.05595 56.89616
# Shear Modulus (GPa) = 82.18451 33.21024 57.69738
#
# Velocity S-wave (km/s) = 5.95059 3.78269 4.98589
# Velocity P-wave (km/s) = 8.07433 7.07982 7.59338
#
# Compressibility (1/GPa) = 0.02395992
#
# Stress axis : x y z
#
# Youngs Moduli (GPa) = 147.03402 86.75623 55.09317
#
# Poissons Ratio (x) = 0.42822 0.12273
# Poissons Ratio (y) = 0.72574 -0.04981
# Poissons Ratio (z) = 0.32755 -0.07844
#
# Static dielectric constant tensor:
#      x y z
#    x 1.873550 0.000000 0.000000 
#    y 0.000000 1.826810 0.000000 
#    z 0.000000 0.000000 1.985140 
# 
# From -- ./inp_files/12044.got.cif
#   From: 2010.05.17/outbox.cif.g08.bks.cpg/sg23_7_cif.got.tgz:12044.got - 2010.06.04 12:02:01.
