data_PCOD9330162
_publ_section_title
;
Structure prediction by ZEFSAII (Michael W. Deem and Ramdas Pophale) SiO2 
 PCOD9330162
Probable space group: I 2 2 2
;
_chemical_formula_sum "Si O2"
_cell_formula_units_Z 48
_cell_length_a 14.414490
_cell_length_b 10.810008
_cell_length_c 14.593774
_cell_angle_alpha 90.000000
_cell_angle_beta 90.000000
_cell_angle_gamma 90.000000
_cell_volume 2274.012842
_symmetry_space_group_name_H-M "I 2 2 2"
_symmetry_group_IT_number 23
_symmetry_cell_setting 'orthorhombic'
loop_
_space_group_symop_operation_xyz
x,y,z
-x,-y,z
x,-y,-z
-x,y,-z
1/2+x,1/2+y,1/2+z
1/2-x,1/2-y,1/2+z
1/2+x,1/2-y,1/2-z
1/2-x,1/2+y,1/2-z
loop_
_atom_site_type_symbol
_atom_site_label
_atom_site_fract_x
_atom_site_fract_y
_atom_site_fract_z
Si Si1 0.156331 0.758810 0.158750
Si Si2 0.725040 0.855602 0.001267
Si Si3 0.706793 0.751609 0.680348
Si Si4 0.018430 0.856571 0.740976
Si Si5 0.604636 0.979925 0.673540
Si Si6 0.553836 0.123213 0.126760
O O1 0.196317 0.793246 0.060696
O O2 0.228815 0.799141 0.237233
O O3 0.057023 0.817994 0.182302
O O4 0.152012 0.611252 0.168281
O O5 0.627887 0.837281 0.949100
O O6 0.729687 0.814602 0.105832
O O7 0.743721 0.000000 0.000000
O O8 0.622936 0.666416 0.720061
O O9 0.659474 0.867873 0.628973
O O10 0.005604 0.750290 0.662290
O O11 0.000000 0.000000 0.715224
O O12 0.596783 0.931547 0.778476
O O13 0.500000 0.000000 0.639561
O O14 0.500000 0.000000 0.095508
#
# Coordination Sequence:
#
# PCOD9330162 Si02
#       6
#     8   8   8   8   8   8
#     4  12  23  43  72  97 143 186 233 292 355 426
#     4  12  26  42  69 108 137 183 239 293 352 418
#     4  11  25  43  66 107 144 179 236 293 356 419
#     4  11  23  42  71 106 142 188 229 295 364 414
#     4  10  19  43  71  93 131 193 235 277 355 423
#     4  10  20  45  71 102 136 187 245 287 341 421
#
# _framework density 21.108059000000001
#
# number of rings (size 3 to 8) (size 9 to 14) (size 15 to 20)
#    0.000    1.000    8.333    2.000    2.333    1.667 
#    0.000    2.500    0.000    1.000    0.000    0.000 
#    0.000    0.000    0.000    0.000    0.000    0.000 
#
# Total GULP energy -133969.301561 kJ/mol
# GULP energy per Si atom -5582.054232 kJ/mol
# Density = 2.106002 g / cm^3
# Si number density = 21.108059 Si / 1000 Ang^3
#
#
#
# Elastic Constant Matrix: (Units=GPa)
#
#
# Indices 1 2 3 4 5 6 
#
# 1 61.1882 -0.3996 1.4891 0.0000 0.0000 0.0000
# 2 -0.3996 135.7249 4.7763 0.0000 0.0000 0.0000
# 3 1.4891 4.7763 54.9026 0.0000 0.0000 0.0000
# 4 0.0000 0.0000 0.0000 44.2021 0.0000 0.0000
# 5 0.0000 0.0000 0.0000 0.0000 17.3165 0.0000
# 6 0.0000 0.0000 0.0000 0.0000 0.0000 36.1940
#
#
#
# Elastic Compliance Matrix: (Units=1/GPa)
#
#
# Indices 1 2 3 4 5 6 
#
# 1 0.016354 0.000064 -0.000449 0.000000 0.000000 0.000000
# 2 0.000064 0.007391 -0.000645 0.000000 0.000000 0.000000
# 3 -0.000449 -0.000645 0.018282 0.000000 0.000000 0.000000
# 4 0.000000 0.000000 0.000000 0.022623 0.000000 0.000000
# 5 0.000000 0.000000 0.000000 0.000000 0.057748 0.000000
# 6 0.000000 0.000000 0.000000 0.000000 0.000000 0.027629
#
#
# Mechanical properties :
#
#
# Convention : Reuss Voigt Hill
#
# Bulk Modulus (GPa) = 25.02021 29.28302 27.15162
# Shear Modulus (GPa) = 30.22784 35.93919 33.08352
#
# Velocity S-wave (km/s) = 3.78835 4.13077 3.96326
# Velocity P-wave (km/s) = 5.56908 6.05426 5.81673
#
# Compressibility (1/GPa) = 0.03996770
#
# Stress axis : x y z
#
# Youngs Moduli (GPa) = 61.14570 135.30479 54.69755
#
# Poissons Ratio (x) = -0.00865 0.02457
# Poissons Ratio (y) = -0.00391 0.03526
# Poissons Ratio (z) = 0.02746 0.08723
#
# Static dielectric constant tensor:
#      x y z
#    x 1.840510 0.000000 0.000000 
#    y 0.000000 1.801100 0.000000 
#    z 0.000000 0.000000 1.745140 
# 
# From -- ./inp_files/21530.got.cif
#   From: 2010.05.17/outbox.cif.g08.bks.cpg/sg23_11_cif.got.tgz:21530.got - 2010.06.04 12:02:01.
