data_PCOD9330437
_publ_section_title
;
Structure prediction by ZEFSAII (Michael W. Deem and Ramdas Pophale) SiO2 
 PCOD9330437
Probable space group: I 2 2 2
;
_chemical_formula_sum "Si O2"
_cell_formula_units_Z 46
_cell_length_a 16.879026
_cell_length_b 9.022729
_cell_length_c 13.962203
_cell_angle_alpha 90.000000
_cell_angle_beta 90.000000
_cell_angle_gamma 90.000000
_cell_volume 2126.371994
_symmetry_space_group_name_H-M "I 2 2 2"
_symmetry_group_IT_number 23
_symmetry_cell_setting 'orthorhombic'
loop_
_space_group_symop_operation_xyz
x,y,z
-x,-y,z
x,-y,-z
-x,y,-z
1/2+x,1/2+y,1/2+z
1/2-x,1/2-y,1/2+z
1/2+x,1/2-y,1/2-z
1/2-x,1/2+y,1/2-z
loop_
_atom_site_type_symbol
_atom_site_label
_atom_site_fract_x
_atom_site_fract_y
_atom_site_fract_z
Si Si1 0.247343 0.956368 0.290394
Si Si2 0.903542 0.251140 0.600164
Si Si3 0.500000 0.500000 0.000000
Si Si4 0.232959 0.760122 0.115020
Si Si5 0.365146 0.777410 0.429554
Si Si6 0.000000 0.500000 0.500000
Si Si7 0.585713 0.426566 0.270235
Si Si8 0.500000 0.000000 0.500000
O O1 0.256950 0.897382 0.182469
O O2 0.293260 0.855201 0.368289
O O3 0.278505 0.121590 0.312870
O O4 0.151018 0.973587 0.286185
O O5 0.815349 0.233552 0.560862
O O6 0.945035 0.396842 0.564012
O O7 0.910227 0.229881 0.713696
O O8 0.949758 0.108980 0.563636
O O9 0.164984 0.761305 0.036657
O O10 0.387906 0.625819 0.375313
O O11 0.439465 0.891620 0.441070
O O12 0.500000 0.500000 0.271682
#
# Coordination Sequence:
#
# PCOD9330437 Si02
#       8
#     8   8   2   8   8   2   8   2
#     4  11  23  48  69 103 145 189 246 298 368 447
#     4  10  22  42  66 100 141 188 239 304 368 437
#     4  10  20  36  68  98 136 190 236 302 374 434
#     4  11  25  46  71 100 140 195 246 295 367 453
#     4  12  26  48  74 109 148 200 249 302 383 438
#     4  10  24  40  64 114 140 182 252 312 372 434
#     4  11  26  46  71 109 146 199 251 310 376 443
#     4  12  28  44  74 108 150 202 236 312 362 452
#
# _framework density 21.633091
#
# number of rings (size 3 to 8) (size 9 to 14) (size 15 to 20)
#    0.000    1.043    6.087    0.000    7.304    2.783 
#    3.130    0.000    0.000    0.000    0.000    0.000 
#    0.000    0.000    0.000    0.000    0.000    0.000 
#
# Total GULP energy -128194.973644 kJ/mol
# GULP energy per Si atom -5573.694506 kJ/mol
# Density = 2.158385 g / cm^3
# Si number density = 21.633091 Si / 1000 Ang^3
#
#
#
# Elastic Constant Matrix: (Units=GPa)
#
#
# Indices 1 2 3 4 5 6 
#
# 1 133.3149 47.9160 52.0586 0.0000 0.0000 0.0000
# 2 47.9160 71.7840 31.2550 0.0000 0.0000 0.0000
# 3 52.0586 31.2550 102.5290 0.0000 0.0000 0.0000
# 4 0.0000 0.0000 0.0000 -24.6054 0.0000 0.0000
# 5 0.0000 0.0000 0.0000 0.0000 20.0857 0.0000
# 6 0.0000 0.0000 0.0000 0.0000 0.0000 28.0971
#
#
#
# Elastic Compliance Matrix: (Units=1/GPa)
#
#
# Indices 1 2 3 4 5 6 
#
# 1 0.011064 -0.005695 -0.003881 0.000000 0.000000 0.000000
# 2 -0.005695 0.018994 -0.002899 0.000000 0.000000 0.000000
# 3 -0.003881 -0.002899 0.012608 0.000000 0.000000 0.000000
# 4 0.000000 0.000000 0.000000 -0.040642 0.000000 0.000000
# 5 0.000000 0.000000 0.000000 0.000000 0.049787 0.000000
# 6 0.000000 0.000000 0.000000 0.000000 0.000000 0.035591
#
#
# Mechanical properties :
#
#
# Convention : Reuss Voigt Hill
#
# Bulk Modulus (GPa) = 56.44785 63.34302 59.89544
# Shear Modulus (GPa) = 42.28089 16.47537 29.37813
#
# Velocity S-wave (km/s) = 4.42572 2.76267 3.68913
# Velocity P-wave (km/s) = 7.22952 6.28655 6.77446
#
# Compressibility (1/GPa) = 0.01771547
#
# Stress axis : x y z
#
# Youngs Moduli (GPa) = 90.38647 52.64776 79.31651
#
# Poissons Ratio (x) = 0.29983 0.30786
# Poissons Ratio (y) = 0.51475 0.22991
# Poissons Ratio (z) = 0.35083 0.15260
#
# Static dielectric constant tensor:
#      x y z
#    x 2.133880 0.000000 0.000000 
#    y 0.000000 1.808870 0.000000 
#    z 0.000000 0.000000 1.950770 
# 
# From -- ./inp_files/22004.got.cif
#   From: 2010.05.17/outbox.cif.g08.bks.cpg/sg23_12_cif.got.tgz:22004.got - 2010.06.04 12:02:01.
