data_PCOD9330027
_publ_section_title
;
Structure prediction by ZEFSAII (Michael W. Deem and Ramdas Pophale) SiO2 
 PCOD9330027
Probable space group: I 2 2 2
;
_chemical_formula_sum "Si O2"
_cell_formula_units_Z 64
_cell_length_a 13.776981
_cell_length_b 27.480222
_cell_length_c 9.382276
_cell_angle_alpha 90.000000
_cell_angle_beta 90.000000
_cell_angle_gamma 90.000000
_cell_volume 3552.078057
_symmetry_space_group_name_H-M "I 2 2 2"
_symmetry_group_IT_number 23
_symmetry_cell_setting 'orthorhombic'
loop_
_space_group_symop_operation_xyz
x,y,z
-x,-y,z
x,-y,-z
-x,y,-z
1/2+x,1/2+y,1/2+z
1/2-x,1/2-y,1/2+z
1/2+x,1/2-y,1/2-z
1/2-x,1/2+y,1/2-z
loop_
_atom_site_type_symbol
_atom_site_label
_atom_site_fract_x
_atom_site_fract_y
_atom_site_fract_z
Si Si1 0.925237 0.924108 0.623670
Si Si2 0.394667 0.452235 0.425212
Si Si3 0.749331 0.216432 0.231135
Si Si4 0.663021 0.825162 0.252349
Si Si5 0.789553 0.148678 0.500638
Si Si6 0.690909 0.647866 0.520970
Si Si7 0.979070 0.724495 0.331611
Si Si8 0.543449 0.669005 0.772431
O O1 0.908472 0.959450 0.756045
O O2 0.826459 0.903450 0.555262
O O3 0.000000 0.939882 0.500000
O O4 0.972893 0.875777 0.696235
O O5 0.352456 0.500000 0.500000
O O6 0.500000 0.444847 0.500000
O O7 0.331615 0.404325 0.453165
O O8 0.787455 0.271348 0.245015
O O9 0.770249 0.185896 0.373370
O O10 0.633842 0.217371 0.202161
O O11 0.798013 0.188613 0.099047
O O12 0.698107 0.851960 0.394480
O O13 0.712166 0.851434 0.117316
O O14 0.549598 0.815204 0.237628
O O15 0.878987 0.167930 0.597894
O O16 0.603016 0.660428 0.628376
O O17 0.005368 0.778490 0.275134
O O18 0.000000 0.723858 0.500000
#
# Coordination Sequence:
#
# PCOD9330027 Si02
#       8
#     8   8   8   8   8   8   8   8
#     4  10  19  36  60  79 111 159 189 228 298 356
#     4  11  23  39  61  90 117 147 200 255 294 356
#     4  12  21  35  54  79 113 160 202 241 294 351
#     4  11  23  35  51  79 116 153 205 246 282 356
#     4  10  20  34  50  75 111 152 196 233 282 357
#     4  11  21  38  56  79 114 160 192 244 299 342
#     4  12  22  34  53  79 115 160 206 249 286 342
#     4  10  20  33  55  77 111 161 200 232 294 352
#
# _framework density 18.017623
#
# number of rings (size 3 to 8) (size 9 to 14) (size 15 to 20)
#    0.000    1.125    6.250    3.375    0.000    0.500 
#    0.000    1.250    0.000    0.000    0.000    1.750 
#    0.000    0.000    8.500    0.000    0.000    0.000 
#
# Total GULP energy -178883.895357 kJ/mol
# GULP energy per Si atom -5590.121730 kJ/mol
# Density = 1.797661 g / cm^3
# Si number density = 18.017623 Si / 1000 Ang^3
#
#
#
# Elastic Constant Matrix: (Units=GPa)
#
#
# Indices 1 2 3 4 5 6 
#
# 1 70.9503 16.8906 19.4527 -0.0002 0.0000 0.0000
# 2 16.8906 49.5113 26.9764 -0.0005 0.0000 0.0000
# 3 19.4527 26.9764 112.9692 -0.0022 0.0010 0.0003
# 4 -0.0002 -0.0005 -0.0022 21.5671 0.0003 0.0001
# 5 0.0000 0.0000 0.0010 0.0003 24.5378 0.0000
# 6 0.0000 0.0000 0.0003 0.0001 0.0000 15.1241
#
#
#
# Elastic Compliance Matrix: (Units=1/GPa)
#
#
# Indices 1 2 3 4 5 6 
#
# 1 0.015596 -0.004434 -0.001627 0.000000 0.000000 0.000000
# 2 -0.004434 0.024479 -0.005082 0.000000 0.000000 0.000000
# 3 -0.001627 -0.005082 0.010346 0.000001 0.000000 0.000000
# 4 0.000000 0.000000 0.000001 0.046367 -0.000001 0.000000
# 5 0.000000 0.000000 0.000000 -0.000001 0.040754 0.000000
# 6 0.000000 0.000000 0.000000 0.000000 0.000000 0.066120
#
#
# Mechanical properties :
#
#
# Convention : Reuss Voigt Hill
#
# Bulk Modulus (GPa) = 35.54289 40.00780 37.77535
# Shear Modulus (GPa) = 21.24725 23.58654 22.41689
#
# Velocity S-wave (km/s) = 3.43774 3.62205 3.53110
# Velocity P-wave (km/s) = 5.96045 6.30439 6.13483
#
# Compressibility (1/GPa) = 0.02813502
#
# Stress axis : x y z
#
# Youngs Moduli (GPa) = 64.11905 40.85135 96.65943
#
# Poissons Ratio (x) = 0.18114 0.15723
# Poissons Ratio (y) = 0.28432 0.49121
# Poissons Ratio (z) = 0.10430 0.20760
#
# Static dielectric constant tensor:
#      x y z
#    x 1.637190 0.000000 0.000000 
#    y 0.000000 1.610670 0.000000 
#    z 0.000000 0.000000 1.657530 
# 
# From -- ./inp_files/10436.got.cif
#   From: 2010.05.17/outbox.cif.g08.bks.cpg/sg23_6_cif.got.tgz:10436.got - 2010.06.04 12:02:01.
