data_PCOD9330658
_publ_section_title
;
Structure prediction by ZEFSAII (Michael W. Deem and Ramdas Pophale) SiO2 
 PCOD9330658
Probable space group: I 2 2 2
;
_chemical_formula_sum "Si O2"
_cell_formula_units_Z 58
_cell_length_a 17.911492
_cell_length_b 17.046735
_cell_length_c 8.917724
_cell_angle_alpha 90.000000
_cell_angle_beta 90.000000
_cell_angle_gamma 90.000000
_cell_volume 2722.870585
_symmetry_space_group_name_H-M "I 2 2 2"
_symmetry_group_IT_number 23
_symmetry_cell_setting 'orthorhombic'
loop_
_space_group_symop_operation_xyz
x,y,z
-x,-y,z
x,-y,-z
-x,y,-z
1/2+x,1/2+y,1/2+z
1/2-x,1/2-y,1/2+z
1/2+x,1/2-y,1/2-z
1/2-x,1/2+y,1/2-z
loop_
_atom_site_type_symbol
_atom_site_label
_atom_site_fract_x
_atom_site_fract_y
_atom_site_fract_z
Si Si1 0.281365 0.158570 0.625077
Si Si2 0.222267 0.486455 0.326361
Si Si3 0.388582 0.699792 0.404060
Si Si4 0.606950 0.616400 0.101049
Si Si5 0.878505 0.397898 0.162417
Si Si6 0.378686 0.457376 0.778664
Si Si7 0.000000 0.500000 0.000000
Si Si8 0.545959 0.739842 0.283968
O O1 0.297928 0.100665 0.766537
O O2 0.316179 0.246615 0.635701
O O3 0.191667 0.151085 0.613167
O O4 0.322023 0.123698 0.475381
O O5 0.241418 0.500000 0.500000
O O6 0.158063 0.546097 0.283019
O O7 0.292319 0.516574 0.228937
O O8 0.388683 0.610818 0.343666
O O9 0.460525 0.744735 0.335612
O O10 0.406213 0.699460 0.580886
O O11 0.586213 0.544526 0.215064
O O12 0.552785 0.686173 0.140715
O O13 0.601650 0.582212 0.935744
O O14 0.912188 0.320847 0.235590
O O15 0.946901 0.444369 0.093286
#
# Coordination Sequence:
#
# PCOD9330658 Si02
#       8
#     8   8   8   8   8   8   2   8
#     4  10  20  40  63  90 128 164 209 265 312 384
#     4  11  23  38  61  97 128 158 210 268 320 377
#     4  10  23  40  62  90 128 166 212 259 326 377
#     4  10  22  40  64  91 124 164 217 267 314 383
#     4  11  21  40  67  94 126 171 217 248 319 394
#     4  10  23  41  63  91 120 166 213 262 329 384
#     4  12  20  36  78  88 128 190 212 252 312 396
#     4  10  24  41  61  95 126 165 216 264 309 391
#
# _framework density 21.301048000000002
#
# number of rings (size 3 to 8) (size 9 to 14) (size 15 to 20)
#    0.000    1.655    2.759    1.655    5.793    2.207 
#    0.000    3.103    0.000    0.000    0.000    0.000 
#    0.000    0.000    0.000    0.000    0.000    0.000 
#
# Total GULP energy -161845.994310 kJ/mol
# GULP energy per Si atom -5580.896356 kJ/mol
# Density = 2.125257 g / cm^3
# Si number density = 21.301048 Si / 1000 Ang^3
#
#
#
# Elastic Constant Matrix: (Units=GPa)
#
#
# Indices 1 2 3 4 5 6 
#
# 1 30.2488 2.0453 3.8722 0.0000 0.0000 0.0000
# 2 2.0453 79.7448 30.6201 0.0000 0.0000 0.0000
# 3 3.8722 30.6201 40.5760 0.0000 0.0000 0.0000
# 4 0.0000 0.0000 0.0000 34.1023 0.0000 0.0000
# 5 0.0000 0.0000 0.0000 0.0000 24.6311 0.0000
# 6 0.0000 0.0000 0.0000 0.0000 0.0000 20.5238
#
#
#
# Elastic Compliance Matrix: (Units=1/GPa)
#
#
# Indices 1 2 3 4 5 6 
#
# 1 0.033483 0.000518 -0.003587 0.000000 0.000000 0.000000
# 2 0.000518 0.017664 -0.013379 0.000000 0.000000 0.000000
# 3 -0.003587 -0.013379 0.035084 0.000000 0.000000 0.000000
# 4 0.000000 0.000000 0.000000 0.029324 0.000000 0.000000
# 5 0.000000 0.000000 0.000000 0.000000 0.040599 0.000000
# 6 0.000000 0.000000 0.000000 0.000000 0.000000 0.048724
#
#
# Mechanical properties :
#
#
# Convention : Reuss Voigt Hill
#
# Bulk Modulus (GPa) = 18.74902 24.84943 21.79923
# Shear Modulus (GPa) = 19.56552 23.45358 21.50955
#
# Velocity S-wave (km/s) = 3.03400 3.32181 3.18116
# Velocity P-wave (km/s) = 4.59289 5.13846 4.87331
#
# Compressibility (1/GPa) = 0.05333611
#
# Stress axis : x y z
#
# Youngs Moduli (GPa) = 29.86568 56.61204 28.50308
#
# Poissons Ratio (x) = -0.02935 0.10223
# Poissons Ratio (y) = -0.01548 0.38135
# Poissons Ratio (z) = 0.10711 0.75744
#
# Static dielectric constant tensor:
#      x y z
#    x 1.765530 0.000000 0.000000 
#    y 0.000000 1.773700 0.000000 
#    z 0.000000 0.000000 1.777720 
# 
# From -- ./inp_files/11275.got.cif
#   From: 2010.05.17/outbox.cif.g08.bks.cpg/sg23_6_cif.got.tgz:11275.got - 2010.06.04 12:02:01.
