data_PCOD9330211
_publ_section_title
;
Structure prediction by ZEFSAII (Michael W. Deem and Ramdas Pophale) SiO2 
 PCOD9330211
Probable space group: I 2 2 2
;
_chemical_formula_sum "Si O2"
_cell_formula_units_Z 38
_cell_length_a 5.374597
_cell_length_b 19.976361
_cell_length_c 18.249855
_cell_angle_alpha 90.000000
_cell_angle_beta 90.000000
_cell_angle_gamma 90.000000
_cell_volume 1959.393673
_symmetry_space_group_name_H-M "I 2 2 2"
_symmetry_group_IT_number 23
_symmetry_cell_setting 'orthorhombic'
loop_
_space_group_symop_operation_xyz
x,y,z
-x,-y,z
x,-y,-z
-x,y,-z
1/2+x,1/2+y,1/2+z
1/2-x,1/2-y,1/2+z
1/2+x,1/2-y,1/2-z
1/2-x,1/2+y,1/2-z
loop_
_atom_site_type_symbol
_atom_site_label
_atom_site_fract_x
_atom_site_fract_y
_atom_site_fract_z
Si Si1 0.500000 0.000000 0.000000
Si Si2 0.820502 0.733085 0.344788
Si Si3 0.500000 0.500000 0.316231
Si Si4 0.360346 0.396228 0.425779
Si Si5 0.318197 0.191854 0.673291
Si Si6 0.749860 0.033989 0.328283
O O1 0.667451 0.046818 0.050474
O O2 0.770723 0.667680 0.392290
O O3 0.587129 0.783477 0.354671
O O4 0.817555 0.708978 0.260074
O O5 0.086031 0.767031 0.359614
O O6 0.533804 0.434301 0.366358
O O7 0.280912 0.482896 0.258882
O O8 0.500000 0.377477 0.500000
O O9 0.267962 0.113387 0.662978
O O10 0.500000 0.000000 0.356125
O O11 0.000000 0.000000 0.360203
#
# Coordination Sequence:
#
# PCOD9330211 Si02
#       6
#     2   8   4   8   8   8
#     4  12  26  36  60  74 120 156 212 228 276 308
#     4  10  22  36  55  76 111 151 198 233 279 335
#     4  10  21  34  52  82 116 152 197 236 266 330
#     4  12  24  39  52  83 113 164 201 236 268 325
#     4  10  20  36  55  80 108 151 188 236 290 341
#     4  10  20  32  57  85 116 144 183 237 291 335
#
# _framework density 19.393754000000001
#
# number of rings (size 3 to 8) (size 9 to 14) (size 15 to 20)
#    0.632    0.842    4.211    1.263    4.421    1.684 
#    0.000    0.000    0.000    0.000    0.000    0.000 
#    0.000   12.632    0.000    0.000    0.000    0.000 
#
# Total GULP energy -106019.019673 kJ/mol
# GULP energy per Si atom -5579.948404 kJ/mol
# Density = 1.934961 g / cm^3
# Si number density = 19.393754 Si / 1000 Ang^3
#
#
#
# Elastic Constant Matrix: (Units=GPa)
#
#
# Indices 1 2 3 4 5 6 
#
# 1 74.2113 13.9985 4.1967 0.0000 0.0000 0.0000
# 2 13.9985 96.0213 1.0844 0.0000 0.0000 0.0000
# 3 4.1967 1.0844 20.1284 0.0000 0.0000 0.0000
# 4 0.0000 0.0000 0.0000 16.5602 0.0000 0.0000
# 5 0.0000 0.0000 0.0000 0.0000 6.5182 0.0000
# 6 0.0000 0.0000 0.0000 0.0000 0.0000 -44.0298
#
#
#
# Elastic Compliance Matrix: (Units=1/GPa)
#
#
# Indices 1 2 3 4 5 6 
#
# 1 0.014014 -0.002011 -0.002813 0.000000 0.000000 0.000000
# 2 -0.002011 0.010709 -0.000158 0.000000 0.000000 0.000000
# 3 -0.002813 -0.000158 0.050276 0.000000 0.000000 0.000000
# 4 0.000000 0.000000 0.000000 0.060386 0.000000 0.000000
# 5 0.000000 0.000000 0.000000 0.000000 0.153417 0.000000
# 6 0.000000 0.000000 0.000000 0.000000 0.000000 -0.022712
#
#
# Mechanical properties :
#
#
# Convention : Reuss Voigt Hill
#
# Bulk Modulus (GPa) = 15.37645 25.43557 20.40601
# Shear Modulus (GPa) = 16.79360 7.21515 12.00437
#
# Velocity S-wave (km/s) = 2.94586 1.93091 2.49063
# Velocity P-wave (km/s) = 4.41775 4.25618 4.33772
#
# Compressibility (1/GPa) = 0.06503453
#
# Stress axis : x y z
#
# Youngs Moduli (GPa) = 71.35971 93.37647 19.89017
#
# Poissons Ratio (x) = 0.18780 0.05596
# Poissons Ratio (y) = 0.14352 0.00314
# Poissons Ratio (z) = 0.20076 0.01472
#
# Static dielectric constant tensor:
#      x y z
#    x 1.737900 0.000000 0.000000 
#    y 0.000000 1.638300 0.000000 
#    z 0.000000 0.000000 1.723250 
# 
# From -- ./inp_files/23051.got.cif
#   From: 2010.05.17/outbox.cif.g08.bks.cpg/sg23_12_cif.got.tgz:23051.got - 2010.06.04 12:02:01.
