data_PCOD9330511
_publ_section_title
;
Structure prediction by ZEFSAII (Michael W. Deem and Ramdas Pophale) SiO2 
 PCOD9330511
Probable space group: I 2 2 2
;
_chemical_formula_sum "Si O2"
_cell_formula_units_Z 56
_cell_length_a 19.568211
_cell_length_b 7.707934
_cell_length_c 19.126970
_cell_angle_alpha 90.000000
_cell_angle_beta 90.000000
_cell_angle_gamma 90.000000
_cell_volume 2884.930045
_symmetry_space_group_name_H-M "I 2 2 2"
_symmetry_group_IT_number 23
_symmetry_cell_setting 'orthorhombic'
loop_
_space_group_symop_operation_xyz
x,y,z
-x,-y,z
x,-y,-z
-x,y,-z
1/2+x,1/2+y,1/2+z
1/2-x,1/2-y,1/2+z
1/2+x,1/2-y,1/2-z
1/2-x,1/2+y,1/2-z
loop_
_atom_site_type_symbol
_atom_site_label
_atom_site_fract_x
_atom_site_fract_y
_atom_site_fract_z
Si Si1 0.322615 0.684542 0.525142
Si Si2 0.743587 0.815983 0.614234
Si Si3 0.850697 0.185177 0.762554
Si Si4 0.647168 0.715644 0.224686
Si Si5 0.035810 0.689519 0.066415
Si Si6 0.258246 0.207494 0.344474
Si Si7 0.495017 0.792238 0.721717
O O1 0.351247 0.500000 0.500000
O O2 0.275736 0.756076 0.462997
O O3 0.384581 0.811239 0.546696
O O4 0.280667 0.659001 0.596407
O O5 0.682258 0.753977 0.665718
O O6 0.812664 0.750758 0.652842
O O7 0.750775 0.024017 0.617105
O O8 0.807531 0.267797 0.699002
O O9 0.930814 0.220081 0.760331
O O10 0.838306 0.981170 0.750041
O O11 0.682966 0.824455 0.286440
O O12 0.566468 0.742187 0.226852
O O13 0.000000 0.500000 0.070927
O O14 0.025405 0.768753 0.143099
O O15 0.000000 0.778193 0.000000
O O16 0.500000 0.000000 0.721230
#
# Coordination Sequence:
#
# PCOD9330511 Si02
#       7
#     8   8   8   8   8   8   8
#     4  12  24  38  58  86 118 152 196 243 285 340
#     4  10  22  36  60  81 112 156 195 238 294 339
#     4  10  21  36  58  85 111 151 195 244 287 336
#     4  10  20  38  56  84 113 149 199 245 280 343
#     4  10  23  36  53  79 119 161 190 219 280 351
#     4  10  21  38  58  81 114 150 198 239 287 347
#     4  11  21  35  58  83 115 156 190 235 293 342
#
# _framework density 19.411214000000001
#
# number of rings (size 3 to 8) (size 9 to 14) (size 15 to 20)
#    0.000    1.571    1.429    3.429    6.000    3.714 
#    2.571    0.000    0.000    0.857    0.000    6.000 
#    0.000    0.000    0.000    0.000    0.000    0.000 
#
# Total GULP energy -156350.908792 kJ/mol
# GULP energy per Si atom -5583.961028 kJ/mol
# Density = 1.936703 g / cm^3
# Si number density = 19.411214 Si / 1000 Ang^3
#
#
#
# Elastic Constant Matrix: (Units=GPa)
#
#
# Indices 1 2 3 4 5 6 
#
# 1 146.2973 -0.3639 65.8220 0.0000 0.0000 0.0000
# 2 -0.3639 42.3754 8.1348 0.0000 0.0000 0.0000
# 3 65.8220 8.1348 104.7254 0.0000 0.0000 0.0000
# 4 0.0000 0.0000 0.0000 20.8149 0.0000 0.0000
# 5 0.0000 0.0000 0.0000 0.0000 20.2287 0.0000
# 6 0.0000 0.0000 0.0000 0.0000 0.0000 23.9542
#
#
#
# Elastic Compliance Matrix: (Units=1/GPa)
#
#
# Indices 1 2 3 4 5 6 
#
# 1 0.009596 0.001259 -0.006129 0.000000 0.000000 0.000000
# 2 0.001259 0.024121 -0.002665 0.000000 0.000000 0.000000
# 3 -0.006129 -0.002665 0.013608 0.000000 0.000000 0.000000
# 4 0.000000 0.000000 0.000000 0.048042 0.000000 0.000000
# 5 0.000000 0.000000 0.000000 0.000000 0.049435 0.000000
# 6 0.000000 0.000000 0.000000 0.000000 0.000000 0.041746
#
#
# Mechanical properties :
#
#
# Convention : Reuss Voigt Hill
#
# Bulk Modulus (GPa) = 31.00294 48.95375 39.97835
# Shear Modulus (GPa) = 23.54374 27.65325 25.59849
#
# Velocity S-wave (km/s) = 3.48644 3.77848 3.63540
# Velocity P-wave (km/s) = 5.67568 6.65657 6.18560
#
# Compressibility (1/GPa) = 0.03225501
#
# Stress axis : x y z
#
# Youngs Moduli (GPa) = 104.20836 41.45766 73.48564
#
# Poissons Ratio (x) = -0.05220 0.45041
# Poissons Ratio (y) = -0.13120 0.19584
# Poissons Ratio (z) = 0.63871 0.11048
#
# Static dielectric constant tensor:
#      x y z
#    x 1.693900 0.000000 0.000000 
#    y 0.000000 1.754170 0.000000 
#    z 0.000000 0.000000 1.676760 
# 
# From -- ./inp_files/25224.got.cif
#   From: 2010.05.17/outbox.cif.g08.bks.cpg/sg23_13_cif.got.tgz:25224.got - 2010.06.04 12:02:01.
