data_PCOD9330573
_publ_section_title
;
Structure prediction by ZEFSAII (Michael W. Deem and Ramdas Pophale) SiO2 
 PCOD9330573
Probable space group: I 2 2 2
;
_chemical_formula_sum "Si O2"
_cell_formula_units_Z 44
_cell_length_a 8.090583
_cell_length_b 9.501890
_cell_length_c 27.904693
_cell_angle_alpha 90.000000
_cell_angle_beta 90.000000
_cell_angle_gamma 90.000000
_cell_volume 2145.196427
_symmetry_space_group_name_H-M "I 2 2 2"
_symmetry_group_IT_number 23
_symmetry_cell_setting 'orthorhombic'
loop_
_space_group_symop_operation_xyz
x,y,z
-x,-y,z
x,-y,-z
-x,y,-z
1/2+x,1/2+y,1/2+z
1/2-x,1/2-y,1/2+z
1/2+x,1/2-y,1/2-z
1/2-x,1/2+y,1/2-z
loop_
_atom_site_type_symbol
_atom_site_label
_atom_site_fract_x
_atom_site_fract_y
_atom_site_fract_z
Si Si1 0.801887 0.996985 0.444486
Si Si2 0.737473 0.727185 0.383779
Si Si3 0.092598 0.650214 0.866073
Si Si4 0.000000 0.500000 0.371528
Si Si5 0.691498 0.183311 0.794492
Si Si6 0.100411 0.867652 0.709417
O O1 0.713171 0.113932 0.410996
O O2 0.752557 0.000000 0.500000
O O3 0.752829 0.847090 0.423322
O O4 0.000000 0.000000 0.440954
O O5 0.539166 0.724341 0.376529
O O6 0.804971 0.790606 0.333396
O O7 0.864049 0.601056 0.396633
O O8 0.195802 0.700011 0.820363
O O9 0.000000 0.500000 0.857056
O O10 0.116291 0.592114 0.337069
O O11 0.785016 0.095621 0.754138
O O12 0.537242 0.261354 0.770636
O O13 0.000000 0.000000 0.689529
#
# Coordination Sequence:
#
# PCOD9330573 Si02
#       6
#     8   8   8   4   8   8
#     4  10  20  38  67  97 122 153 203 267 322 372
#     4  10  21  40  58  89 125 164 203 260 313 374
#     4  10  21  38  63  90 121 157 211 265 315 370
#     4  10  24  40  58  85 130 170 207 248 318 392
#     4  11  24  37  57  83 119 166 205 255 310 372
#     4  11  23  36  56  80 118 159 209 256 298 361
#
# _framework density 20.510942
#
# number of rings (size 3 to 8) (size 9 to 14) (size 15 to 20)
#    0.000    1.636    0.000    6.000    7.636    3.273 
#    6.545    0.000    0.000    8.727    0.000   15.273 
#    0.000    0.000    0.000    0.000    0.000    0.000 
#
# Total GULP energy -122717.616764 kJ/mol
# GULP energy per Si atom -5578.073489 kJ/mol
# Density = 2.046426 g / cm^3
# Si number density = 20.510942 Si / 1000 Ang^3
#
#
#
# Elastic Constant Matrix: (Units=GPa)
#
#
# Indices 1 2 3 4 5 6 
#
# 1 101.6452 23.8174 37.9047 0.0000 0.0000 0.0000
# 2 23.8174 45.3865 13.2318 0.0000 0.0000 0.0000
# 3 37.9047 13.2318 87.9831 0.0000 0.0000 0.0000
# 4 0.0000 0.0000 0.0000 24.9346 0.0000 0.0000
# 5 0.0000 0.0000 0.0000 0.0000 43.2092 0.0000
# 6 0.0000 0.0000 0.0000 0.0000 0.0000 42.7529
#
#
#
# Elastic Compliance Matrix: (Units=1/GPa)
#
#
# Indices 1 2 3 4 5 6 
#
# 1 0.012861 -0.005369 -0.004733 0.000000 0.000000 0.000000
# 2 -0.005369 0.025285 -0.001489 0.000000 0.000000 0.000000
# 3 -0.004733 -0.001489 0.013629 0.000000 0.000000 0.000000
# 4 0.000000 0.000000 0.000000 0.040105 0.000000 0.000000
# 5 0.000000 0.000000 0.000000 0.000000 0.023143 0.000000
# 6 0.000000 0.000000 0.000000 0.000000 0.000000 0.023390
#
#
# Mechanical properties :
#
#
# Convention : Reuss Voigt Hill
#
# Bulk Modulus (GPa) = 34.97599 42.76916 38.87258
# Shear Modulus (GPa) = 29.21785 32.85006 31.03396
#
# Velocity S-wave (km/s) = 3.77835 4.00633 3.89401
# Velocity P-wave (km/s) = 6.01032 6.50369 6.26187
#
# Compressibility (1/GPa) = 0.02859104
#
# Stress axis : x y z
#
# Youngs Moduli (GPa) = 77.75187 39.54942 73.37259
#
# Poissons Ratio (x) = 0.21235 0.34730
# Poissons Ratio (y) = 0.41747 0.10928
# Poissons Ratio (z) = 0.36803 0.05890
#
# Static dielectric constant tensor:
#      x y z
#    x 1.888950 0.000000 0.000000 
#    y 0.000000 1.758530 0.000000 
#    z 0.000000 0.000000 1.683700 
# 
# From -- ./inp_files/30160.got.cif
#   From: 2010.05.17/outbox.cif.g08.bks.cpg/sg23_16_cif.got.tgz:30160.got - 2010.06.04 12:02:01.
