data_PCOD9330015
_publ_section_title
;
Structure prediction by ZEFSAII (Michael W. Deem and Ramdas Pophale) SiO2 
 PCOD9330015
Probable space group: I 2 2 2
;
_chemical_formula_sum "Si O2"
_cell_formula_units_Z 56
_cell_length_a 5.552972
_cell_length_b 18.958628
_cell_length_c 21.874930
_cell_angle_alpha 90.000000
_cell_angle_beta 90.000000
_cell_angle_gamma 90.000000
_cell_volume 2302.921109
_symmetry_space_group_name_H-M "I 2 2 2"
_symmetry_group_IT_number 23
_symmetry_cell_setting 'orthorhombic'
loop_
_space_group_symop_operation_xyz
x,y,z
-x,-y,z
x,-y,-z
-x,y,-z
1/2+x,1/2+y,1/2+z
1/2-x,1/2-y,1/2+z
1/2+x,1/2-y,1/2-z
1/2-x,1/2+y,1/2-z
loop_
_atom_site_type_symbol
_atom_site_label
_atom_site_fract_x
_atom_site_fract_y
_atom_site_fract_z
Si Si1 0.750000 0.909703 0.712394
Si Si2 0.250000 0.867859 0.989128
Si Si3 0.750000 0.629287 0.835415
Si Si4 0.250000 0.985355 0.828950
Si Si5 0.250000 0.290524 0.965776
Si Si6 0.750000 0.672087 0.652235
Si Si7 0.750000 0.276702 0.701224
O O1 0.499676 0.912645 0.674806
O O2 0.750000 0.965266 0.768620
O O3 0.750000 0.832295 0.743872
O O4 0.000324 0.912645 0.674806
O O5 0.250000 0.843259 0.919464
O O6 0.500000 0.906189 0.000000
O O7 0.250000 0.795803 0.030781
O O8 0.000000 0.906189 0.000000
O O9 0.750000 0.670213 0.900465
O O10 0.750000 0.693840 0.786345
O O11 0.250000 0.903388 0.814181
O O12 0.500000 0.000000 0.862423
O O13 0.000000 0.000000 0.862423
O O14 0.500000 0.310331 0.000000
O O15 0.000000 0.310331 0.000000
O O16 0.498745 0.709541 0.666025
O O17 0.001255 0.709541 0.666025
#
# Coordination Sequence:
#
# PCOD9330015 Si02
#       7
#     8   8   8   8   8   8   8
#     4  12  24  40  59  92 133 172 224 265 324 404
#     4  10  20  35  58  91 122 161 223 270 317 373
#     4  12  24  38  60  95 136 172 214 263 341 399
#     4  12  23  44  65  89 125 177 227 273 319 388
#     4  10  19  36  57  86 125 170 207 258 315 385
#     4  12  22  39  68  95 122 181 222 269 331 381
#     4  12  22  38  61  93 133 167 212 271 331 415
#
# _framework density 24.316943999999999
#
# number of rings (size 3 to 8) (size 9 to 14) (size 15 to 20)
#    0.000    0.571    2.857    8.571    0.000    0.000 
#    0.000    0.000    0.000    2.571    0.000    0.000 
#    0.000   40.000    0.000    0.000    0.000    0.000 
#
# Total GULP energy -156721.592777 kJ/mol
# GULP energy per Si atom -5597.199742 kJ/mol
# Density = 2.426160 g / cm^3
# Si number density = 24.316944 Si / 1000 Ang^3
#
#
#
# Elastic Constant Matrix: (Units=GPa)
#
#
# Indices 1 2 3 4 5 6 
#
# 1 311.5061 33.5537 49.3340 0.0000 0.0000 0.0000
# 2 33.5537 89.2250 26.2019 0.0000 0.0000 0.0000
# 3 49.3340 26.2019 86.7166 0.0000 0.0000 0.0000
# 4 0.0000 0.0000 0.0000 24.3854 0.0000 0.0000
# 5 0.0000 0.0000 0.0000 0.0000 31.2181 0.0000
# 6 0.0000 0.0000 0.0000 0.0000 0.0000 21.8996
#
#
#
# Elastic Compliance Matrix: (Units=1/GPa)
#
#
# Indices 1 2 3 4 5 6 
#
# 1 0.003582 -0.000822 -0.001790 0.000000 0.000000 0.000000
# 2 -0.000822 0.012487 -0.003306 0.000000 0.000000 0.000000
# 3 -0.001790 -0.003306 0.013549 0.000000 0.000000 0.000000
# 4 0.000000 0.000000 0.000000 0.041008 0.000000 0.000000
# 5 0.000000 0.000000 0.000000 0.000000 0.032033 0.000000
# 6 0.000000 0.000000 0.000000 0.000000 0.000000 0.045663
#
#
# Mechanical properties :
#
#
# Convention : Reuss Voigt Hill
#
# Bulk Modulus (GPa) = 56.22908 78.40299 67.31603
# Shear Modulus (GPa) = 30.10522 40.72449 35.41485
#
# Velocity S-wave (km/s) = 3.52239 4.09680 3.82040
# Velocity P-wave (km/s) = 6.30211 7.39530 6.87048
#
# Compressibility (1/GPa) = 0.01778439
#
# Stress axis : x y z
#
# Youngs Moduli (GPa) = 279.16301 80.08116 73.80703
#
# Poissons Ratio (x) = 0.06579 0.13209
# Poissons Ratio (y) = 0.22934 0.24399
# Poissons Ratio (z) = 0.49961 0.26473
#
# Static dielectric constant tensor:
#      x y z
#    x 2.026500 0.000000 0.000000 
#    y 0.000000 1.910240 0.000000 
#    z 0.000000 0.000000 1.979470 
# 
# From -- ./inp_files/27707.got.cif
#   From: 2010.05.17/outbox.cif.g08.bks.cpg/sg23_14_cif.got.tgz:27707.got - 2010.06.04 12:02:01.
