data_PCOD9330855
_publ_section_title
;
Structure prediction by ZEFSAII (Michael W. Deem and Ramdas Pophale) SiO2 
 PCOD9330855
Probable space group: I 2 2 2
;
_chemical_formula_sum "Si O2"
_cell_formula_units_Z 64
_cell_length_a 8.549147
_cell_length_b 31.172954
_cell_length_c 12.065582
_cell_angle_alpha 90.000000
_cell_angle_beta 90.000000
_cell_angle_gamma 90.000000
_cell_volume 3215.503739
_symmetry_space_group_name_H-M "I 2 2 2"
_symmetry_group_IT_number 23
_symmetry_cell_setting 'orthorhombic'
loop_
_space_group_symop_operation_xyz
x,y,z
-x,-y,z
x,-y,-z
-x,y,-z
1/2+x,1/2+y,1/2+z
1/2-x,1/2-y,1/2+z
1/2+x,1/2-y,1/2-z
1/2-x,1/2+y,1/2-z
loop_
_atom_site_type_symbol
_atom_site_label
_atom_site_fract_x
_atom_site_fract_y
_atom_site_fract_z
Si Si1 0.847502 0.626348 0.055560
Si Si2 0.687997 0.603089 0.846567
Si Si3 0.690762 0.657628 0.627820
Si Si4 0.821108 0.489412 0.130376
Si Si5 0.330819 0.197670 0.719887
Si Si6 0.149067 0.932163 0.287669
Si Si7 0.165920 0.135370 0.887280
Si Si8 0.079212 0.260559 0.622737
O O1 0.897027 0.669641 0.118372
O O2 0.779692 0.593481 0.143632
O O3 0.721532 0.630445 0.957093
O O4 0.000000 0.607435 0.000000
O O5 0.725064 0.631600 0.739347
O O6 0.790556 0.560296 0.849172
O O7 0.513287 0.583987 0.840396
O O8 0.722306 0.633129 0.512819
O O9 0.500919 0.660282 0.624038
O O10 0.794194 0.700480 0.621553
O O11 0.697332 0.518736 0.197830
O O12 0.000000 0.500000 0.159126
O O13 0.796614 0.500000 0.000000
O O14 0.281466 0.163629 0.813642
O O15 0.179626 0.220498 0.666769
O O16 0.448788 0.229033 0.783702
O O17 0.147158 0.911561 0.165726
O O18 0.000000 0.255952 0.500000
#
# Coordination Sequence:
#
# PCOD9330855 Si02
#       8
#     8   8   8   8   8   8   8   8
#     4  11  22  38  58  89 125 163 203 255 316 368
#     4  11  22  37  64  93 123 165 208 257 314 374
#     4  10  21  42  65  90 121 163 214 255 320 380
#     4  11  22  37  57  89 129 168 204 254 313 373
#     4  11  25  42  63  92 124 162 211 262 317 379
#     4  10  21  36  62  91 123 163 210 253 311 378
#     4   9  20  42  66  88 122 163 205 264 313 375
#     4  12  25  43  65  94 128 169 216 267 328 388
#
# _framework density 19.903568
#
# number of rings (size 3 to 8) (size 9 to 14) (size 15 to 20)
#    0.000    1.375    2.500    3.000    0.000    6.500 
#    2.250    0.625    0.000    3.750    0.000    0.000 
#    0.000    0.000    0.000    0.000    0.000    0.000 
#
# Total GULP energy -178571.558850 kJ/mol
# GULP energy per Si atom -5580.361214 kJ/mol
# Density = 1.985827 g / cm^3
# Si number density = 19.903568 Si / 1000 Ang^3
#
#
#
# Elastic Constant Matrix: (Units=GPa)
#
#
# Indices 1 2 3 4 5 6 
#
# 1 45.6530 -4.0433 0.9984 -0.0003 0.0001 0.0000
# 2 -4.0433 18.5872 8.9756 -0.0002 0.0001 0.0000
# 3 0.9984 8.9756 88.9841 -0.0006 -0.0001 0.0000
# 4 -0.0003 -0.0002 -0.0006 15.8335 0.0001 -0.0001
# 5 0.0001 0.0001 -0.0001 0.0001 25.1645 0.0000
# 6 0.0000 0.0000 0.0000 -0.0001 0.0000 20.3506
#
#
#
# Elastic Compliance Matrix: (Units=1/GPa)
#
#
# Indices 1 2 3 4 5 6 
#
# 1 0.022386 0.005247 -0.000780 0.000001 0.000000 0.000000
# 2 0.005247 0.057785 -0.005887 0.000001 0.000000 0.000000
# 3 -0.000780 -0.005887 0.011841 0.000000 0.000000 0.000000
# 4 0.000001 0.000001 0.000000 0.063157 0.000000 0.000000
# 5 0.000000 0.000000 0.000000 0.000000 0.039738 0.000000
# 6 0.000000 0.000000 0.000000 0.000000 0.000000 0.049138
#
#
# Mechanical properties :
#
#
# Convention : Reuss Voigt Hill
#
# Bulk Modulus (GPa) = 11.21465 18.34283 14.77874
# Shear Modulus (GPa) = 18.07590 22.08931 20.08260
#
# Velocity S-wave (km/s) = 3.01686 3.33500 3.17991
# Velocity P-wave (km/s) = 4.21687 4.90566 4.57425
#
# Compressibility (1/GPa) = 0.08916908
#
# Stress axis : x y z
#
# Youngs Moduli (GPa) = 44.67056 17.30555 84.45544
#
# Poissons Ratio (x) = -0.09079 0.06591
# Poissons Ratio (y) = -0.23437 0.49723
# Poissons Ratio (z) = 0.03486 0.10189
#
# Static dielectric constant tensor:
#      x y z
#    x 1.755230 0.000000 0.000000 
#    y 0.000000 1.713260 0.000000 
#    z 0.000000 0.000000 1.713790 
# 
# From -- ./inp_files/8946.got.cif
#   From: 2010.05.17/outbox.cif.g08.bks.cpg/sg23_5_cif.got.tgz:8946.got - 2010.06.04 12:02:01.
