data_PCOD9330186
_publ_section_title
;
Structure prediction by ZEFSAII (Michael W. Deem and Ramdas Pophale) SiO2 
 PCOD9330186
Probable space group: I 2 2 2
;
_chemical_formula_sum "Si O2"
_cell_formula_units_Z 44
_cell_length_a 13.982251
_cell_length_b 20.550674
_cell_length_c 7.874511
_cell_angle_alpha 90.000000
_cell_angle_beta 90.000000
_cell_angle_gamma 90.000000
_cell_volume 2262.698860
_symmetry_space_group_name_H-M "I 2 2 2"
_symmetry_group_IT_number 23
_symmetry_cell_setting 'orthorhombic'
loop_
_space_group_symop_operation_xyz
x,y,z
-x,-y,z
x,-y,-z
-x,y,-z
1/2+x,1/2+y,1/2+z
1/2-x,1/2-y,1/2+z
1/2+x,1/2-y,1/2-z
1/2-x,1/2+y,1/2-z
loop_
_atom_site_type_symbol
_atom_site_label
_atom_site_fract_x
_atom_site_fract_y
_atom_site_fract_z
Si Si1 0.432895 0.272993 0.837404
Si Si2 0.246893 0.688773 0.974920
Si Si3 0.702608 0.332932 0.576198
Si Si4 0.401971 0.123799 0.904664
Si Si5 0.889522 0.429156 0.947612
Si Si6 0.500000 0.659958 0.500000
O O1 0.417423 0.195615 0.822845
O O2 0.483237 0.299234 0.670992
O O3 0.500000 0.281986 0.000000
O O4 0.334334 0.307503 0.892101
O O5 0.284391 0.676923 0.780997
O O6 0.174006 0.630612 0.013857
O O7 0.199425 0.760290 0.994984
O O8 0.799487 0.366482 0.505450
O O9 0.604807 0.370693 0.533037
O O10 0.386995 0.073485 0.755367
O O11 0.500000 0.108966 0.000000
O O12 0.854582 0.500000 0.000000
O O13 0.000000 0.421093 0.000000
#
# Coordination Sequence:
#
# PCOD9330186 Si02
#       6
#     8   8   8   8   8   4
#     4  10  20  34  54  90 123 147 185 235 298 359
#     4  10  20  36  53  82 121 149 194 242 290 353
#     4  10  20  31  52  88 118 152 187 233 305 353
#     4   9  20  36  57  83 119 149 191 246 289 350
#     4  10  22  37  56  82 112 157 204 235 281 345
#     4  12  20  30  54  84 126 150 180 230 296 362
#
# _framework density 19.445803999999999
#
# number of rings (size 3 to 8) (size 9 to 14) (size 15 to 20)
#    0.000    2.000    1.818    3.273    5.091    1.455 
#    0.000    1.818    0.000    0.545    0.000    5.091 
#    0.000    0.000    0.000    0.000    0.000    0.000 
#
# Total GULP energy -122651.814215 kJ/mol
# GULP energy per Si atom -5575.082464 kJ/mol
# Density = 1.940154 g / cm^3
# Si number density = 19.445804 Si / 1000 Ang^3
#
#
#
# Elastic Constant Matrix: (Units=GPa)
#
#
# Indices 1 2 3 4 5 6 
#
# 1 131.9482 43.0466 19.6045 0.0000 0.0000 0.0000
# 2 43.0466 63.3597 24.0521 0.0000 0.0000 0.0000
# 3 19.6045 24.0521 81.8240 0.0000 0.0000 0.0000
# 4 0.0000 0.0000 0.0000 18.8920 0.0000 0.0000
# 5 0.0000 0.0000 0.0000 0.0000 37.2527 0.0000
# 6 0.0000 0.0000 0.0000 0.0000 0.0000 2.1216
#
#
#
# Elastic Compliance Matrix: (Units=1/GPa)
#
#
# Indices 1 2 3 4 5 6 
#
# 1 0.009751 -0.006459 -0.000438 0.000000 0.000000 0.000000
# 2 -0.006459 0.022043 -0.004932 0.000000 0.000000 0.000000
# 3 -0.000438 -0.004932 0.013776 0.000000 0.000000 0.000000
# 4 0.000000 0.000000 0.000000 0.052932 0.000000 0.000000
# 5 0.000000 0.000000 0.000000 0.000000 0.026844 0.000000
# 6 0.000000 0.000000 0.000000 0.000000 0.000000 0.471345
#
#
# Mechanical properties :
#
#
# Convention : Reuss Voigt Hill
#
# Bulk Modulus (GPa) = 45.63471 50.05979 47.84725
# Shear Modulus (GPa) = 7.96620 24.34851 16.15736
#
# Velocity S-wave (km/s) = 2.02621 3.54237 2.88565
# Velocity P-wave (km/s) = 5.38448 6.52153 5.98009
#
# Compressibility (1/GPa) = 0.02191315
#
# Stress axis : x y z
#
# Youngs Moduli (GPa) = 102.55576 45.36558 72.58981
#
# Poissons Ratio (x) = 0.29299 0.03178
# Poissons Ratio (y) = 0.66236 0.35802
# Poissons Ratio (z) = 0.04489 0.22375
#
# Static dielectric constant tensor:
#      x y z
#    x 1.803520 0.000000 0.000000 
#    y 0.000000 1.646180 0.000000 
#    z 0.000000 0.000000 1.747690 
# 
# From -- ./inp_files/9857.got.cif
#   From: 2010.05.17/outbox.cif.g08.bks.cpg/sg23_5_cif.got.tgz:9857.got - 2010.06.04 12:02:01.
