data_PCOD9330770
_publ_section_title
;
Structure prediction by ZEFSAII (Michael W. Deem and Ramdas Pophale) SiO2 
 PCOD9330770
Probable space group: I 2 2 2
;
_chemical_formula_sum "Si O2"
_cell_formula_units_Z 40
_cell_length_a 19.802125
_cell_length_b 10.409994
_cell_length_c 8.174375
_cell_angle_alpha 90.000000
_cell_angle_beta 90.000000
_cell_angle_gamma 90.000000
_cell_volume 1685.065682
_symmetry_space_group_name_H-M "I 2 2 2"
_symmetry_group_IT_number 23
_symmetry_cell_setting 'orthorhombic'
loop_
_space_group_symop_operation_xyz
x,y,z
-x,-y,z
x,-y,-z
-x,y,-z
1/2+x,1/2+y,1/2+z
1/2-x,1/2-y,1/2+z
1/2+x,1/2-y,1/2-z
1/2-x,1/2+y,1/2-z
loop_
_atom_site_type_symbol
_atom_site_label
_atom_site_fract_x
_atom_site_fract_y
_atom_site_fract_z
Si Si1 0.885315 0.224369 0.310595
Si Si2 0.861635 0.851747 0.056118
Si Si3 0.802570 0.000000 0.500000
Si Si4 0.500000 0.000000 0.000000
Si Si5 0.500000 0.000000 0.500000
Si Si6 0.271305 0.084787 0.164561
Si Si7 0.038349 0.298674 0.261754
O O1 0.843916 0.353370 0.341860
O O2 0.966168 0.236986 0.309521
O O3 0.851972 0.113496 0.426051
O O4 0.870954 0.210685 0.118037
O O5 0.788573 0.813939 0.126130
O O6 0.913027 0.812591 0.199116
O O7 0.869876 0.000000 0.000000
O O8 0.754849 0.969250 0.340548
O O9 0.451598 0.902478 0.096943
O O10 0.539289 0.899826 0.611777
O O11 0.266525 0.000000 0.000000
#
# Coordination Sequence:
#
# PCOD9330770 Si02
#       7
#     8   8   4   2   2   8   8
#     4  12  25  47  76 111 145 202 254 325 389 464
#     4  11  23  51  76 109 153 206 262 322 396 472
#     4  12  26  47  75 112 148 194 268 306 400 479
#     4  10  28  46  64 116 160 198 260 322 396 474
#     4  10  20  48  66 102 134 182 256 290 384 468
#     4  11  26  50  74 109 154 198 255 322 392 472
#     4  11  25  46  74 107 149 202 257 322 391 470
#
# _framework density 23.737946000000001
#
# number of rings (size 3 to 8) (size 9 to 14) (size 15 to 20)
#    0.000    0.800    6.000    1.200    4.200    2.400 
#    7.200    1.000    0.000    0.000    0.000    0.000 
#    0.000    0.000    0.000    0.000    0.000    0.000 
#
# Total GULP energy -111372.680313 kJ/mol
# GULP energy per Si atom -5568.634016 kJ/mol
# Density = 2.368392 g / cm^3
# Si number density = 23.737946 Si / 1000 Ang^3
#
#
#
# Elastic Constant Matrix: (Units=GPa)
#
#
# Indices 1 2 3 4 5 6 
#
# 1 113.8014 30.4858 39.6002 0.0000 0.0000 0.0000
# 2 30.4858 62.0700 28.2321 0.0000 0.0000 0.0000
# 3 39.6002 28.2321 167.3719 0.0000 0.0000 0.0000
# 4 0.0000 0.0000 0.0000 409.7910 0.0000 0.0000
# 5 0.0000 0.0000 0.0000 0.0000 -63.6256 0.0000
# 6 0.0000 0.0000 0.0000 0.0000 0.0000 38.4777
#
#
#
# Elastic Compliance Matrix: (Units=1/GPa)
#
#
# Indices 1 2 3 4 5 6 
#
# 1 0.010577 -0.004394 -0.001761 0.000000 0.000000 0.000000
# 2 -0.004394 0.019275 -0.002212 0.000000 0.000000 0.000000
# 3 -0.001761 -0.002212 0.006765 0.000000 0.000000 0.000000
# 4 0.000000 0.000000 0.000000 0.002440 0.000000 0.000000
# 5 0.000000 0.000000 0.000000 0.000000 -0.015717 0.000000
# 6 0.000000 0.000000 0.000000 0.000000 0.000000 0.025989
#
#
# Mechanical properties :
#
#
# Convention : Reuss Voigt Hill
#
# Bulk Modulus (GPa) = 50.29495 59.98662 55.14078
# Shear Modulus (GPa) = 68.78478 93.25697 81.02087
#
# Velocity S-wave (km/s) = 5.38884 6.27466 5.84854
# Velocity P-wave (km/s) = 7.74294 8.82158 8.29980
#
# Compressibility (1/GPa) = 0.01988271
#
# Stress axis : x y z
#
# Youngs Moduli (GPa) = 94.54276 51.88103 147.82985
#
# Poissons Ratio (x) = 0.22796 0.26039
# Poissons Ratio (y) = 0.41541 0.32695
# Poissons Ratio (z) = 0.16653 0.11474
#
# Static dielectric constant tensor:
#      x y z
#    x 1.831810 0.000000 0.000000 
#    y 0.000000 2.047920 0.000000 
#    z 0.000000 0.000000 1.869900 
# 
# From -- ./inp_files/11867.got.cif
#   From: 2010.05.17/outbox.cif.g08.bks.cpg/sg23_6_cif.got.tgz:11867.got - 2010.06.04 12:02:01.
