data_PCOD9330402
_publ_section_title
;
Structure prediction by ZEFSAII (Michael W. Deem and Ramdas Pophale) SiO2 
 PCOD9330402
Probable space group: I 2 2 2
;
_chemical_formula_sum "Si O2"
_cell_formula_units_Z 58
_cell_length_a 9.802802
_cell_length_b 8.837163
_cell_length_c 25.667265
_cell_angle_alpha 90.000000
_cell_angle_beta 90.000000
_cell_angle_gamma 90.000000
_cell_volume 2223.528451
_symmetry_space_group_name_H-M "I 2 2 2"
_symmetry_group_IT_number 23
_symmetry_cell_setting 'orthorhombic'
loop_
_space_group_symop_operation_xyz
x,y,z
-x,-y,z
x,-y,-z
-x,y,-z
1/2+x,1/2+y,1/2+z
1/2-x,1/2-y,1/2+z
1/2+x,1/2-y,1/2-z
1/2-x,1/2+y,1/2-z
loop_
_atom_site_type_symbol
_atom_site_label
_atom_site_fract_x
_atom_site_fract_y
_atom_site_fract_z
Si Si1 0.500000 0.000000 0.500000
Si Si2 0.745026 0.869078 0.753194
Si Si3 0.730810 0.501001 0.427362
Si Si4 0.745370 0.229583 0.854304
Si Si5 0.802521 0.743418 0.996581
Si Si6 0.274769 0.438650 0.897519
Si Si7 0.568324 0.815504 0.855840
Si Si8 0.382281 0.878014 0.700115
O O1 0.404512 0.127910 0.526296
O O2 0.701905 0.778744 0.701322
O O3 0.645497 0.856065 0.802567
O O4 0.881646 0.786941 0.774325
O O5 0.744231 0.037538 0.729883
O O6 0.668196 0.403337 0.380679
O O7 0.640009 0.625375 0.457188
O O8 0.774925 0.360649 0.465415
O O9 0.856986 0.595164 0.403254
O O10 0.729861 0.383643 0.887526
O O11 0.591675 0.165620 0.849250
O O12 0.731858 0.627353 0.956021
O O13 0.403062 0.358124 0.870791
O O14 0.150293 0.373611 0.861461
O O15 0.500000 0.000000 0.709362
#
# Coordination Sequence:
#
# PCOD9330402 Si02
#       8
#     2   8   8   8   8   8   8   8
#     4  12  24  42  80  92 122 186 224 272 372 426
#     4  10  21  36  61  96 135 183 234 287 331 410
#     4  10  22  41  66  96 138 172 221 290 345 410
#     4  11  20  36  65  95 136 189 232 281 355 407
#     4  10  23  44  68  97 132 174 225 290 358 420
#     4   9  21  38  59  90 129 172 233 296 333 410
#     4  10  20  38  62  92 137 189 230 281 350 406
#     4  10  20  36  59  88 133 177 230 286 349 412
#
# _framework density 26.084669000000002
#
# number of rings (size 3 to 8) (size 9 to 14) (size 15 to 20)
#    0.000    1.931    0.000    3.310    0.966    1.103 
#    0.000   13.793    6.069    4.966    0.000    0.000 
#    0.000    0.000    0.000    0.000    0.000    0.000 
#
# Total GULP energy -161530.955070 kJ/mol
# GULP energy per Si atom -5570.032933 kJ/mol
# Density = 2.602530 g / cm^3
# Si number density = 26.084669 Si / 1000 Ang^3
#
#
#
# Elastic Constant Matrix: (Units=GPa)
#
#
# Indices 1 2 3 4 5 6 
#
# 1 55.3630 37.4431 35.1961 0.0000 0.0000 0.0000
# 2 37.4431 165.5798 66.5154 0.0000 0.0000 0.0000
# 3 35.1961 66.5154 126.2545 0.0000 0.0000 0.0000
# 4 0.0000 0.0000 0.0000 73.0980 0.0000 0.0000
# 5 0.0000 0.0000 0.0000 0.0000 16.1211 0.0000
# 6 0.0000 0.0000 0.0000 0.0000 0.0000 42.6629
#
#
#
# Elastic Compliance Matrix: (Units=1/GPa)
#
#
# Indices 1 2 3 4 5 6 
#
# 1 0.023356 -0.003382 -0.004729 0.000000 0.000000 0.000000
# 2 -0.003382 0.008150 -0.003351 0.000000 0.000000 0.000000
# 3 -0.004729 -0.003351 0.011004 0.000000 0.000000 0.000000
# 4 0.000000 0.000000 0.000000 0.013680 0.000000 0.000000
# 5 0.000000 0.000000 0.000000 0.000000 0.062031 0.000000
# 6 0.000000 0.000000 0.000000 0.000000 0.000000 0.023440
#
#
# Mechanical properties :
#
#
# Convention : Reuss Voigt Hill
#
# Bulk Modulus (GPa) = 51.05573 69.50073 60.27823
# Shear Modulus (GPa) = 29.22007 40.24590 34.73298
#
# Velocity S-wave (km/s) = 3.35057 3.93223 3.65300
# Velocity P-wave (km/s) = 5.88082 6.87886 6.39933
#
# Compressibility (1/GPa) = 0.01958644
#
# Stress axis : x y z
#
# Youngs Moduli (GPa) = 42.81476 122.69476 90.87237
#
# Poissons Ratio (x) = 0.41493 0.42978
# Poissons Ratio (y) = 0.14479 0.30453
# Poissons Ratio (z) = 0.20249 0.41117
#
# Static dielectric constant tensor:
#      x y z
#    x 2.117740 0.000000 0.000000 
#    y 0.000000 2.107390 0.000000 
#    z 0.000000 0.000000 2.168720 
# 
# From -- ./inp_files/29474.got.cif
#   From: 2010.05.17/outbox.cif.g08.bks.cpg/sg23_15_cif.got.tgz:29474.got - 2010.06.04 12:02:01.
