data_PCOD9330762
_publ_section_title
;
Structure prediction by ZEFSAII (Michael W. Deem and Ramdas Pophale) SiO2 
 PCOD9330762
Probable space group: I 2 2 2
;
_chemical_formula_sum "Si O2"
_cell_formula_units_Z 36
_cell_length_a 15.801274
_cell_length_b 13.458786
_cell_length_c 8.680076
_cell_angle_alpha 90.000000
_cell_angle_beta 90.000000
_cell_angle_gamma 90.000000
_cell_volume 1845.956741
_symmetry_space_group_name_H-M "I 2 2 2"
_symmetry_group_IT_number 23
_symmetry_cell_setting 'orthorhombic'
loop_
_space_group_symop_operation_xyz
x,y,z
-x,-y,z
x,-y,-z
-x,y,-z
1/2+x,1/2+y,1/2+z
1/2-x,1/2-y,1/2+z
1/2+x,1/2-y,1/2-z
1/2-x,1/2+y,1/2-z
loop_
_atom_site_type_symbol
_atom_site_label
_atom_site_fract_x
_atom_site_fract_y
_atom_site_fract_z
Si Si1 0.618021 0.096664 0.250234
Si Si2 0.500000 0.000000 0.000000
Si Si3 0.388497 0.681662 0.172009
Si Si4 0.000000 0.500000 0.000000
Si Si5 0.056234 0.896448 0.332289
Si Si6 0.208535 0.001464 0.817426
O O1 0.643452 0.209628 0.213344
O O2 0.560048 0.069992 0.396063
O O3 0.702917 0.031697 0.257071
O O4 0.560279 0.065412 0.105984
O O5 0.485349 0.676472 0.234346
O O6 0.327539 0.601164 0.249240
O O7 0.405710 0.647946 0.992857
O O8 0.135076 0.920501 0.225975
O O9 0.000000 0.000000 0.345299
O O10 0.219576 0.000000 0.000000
#
# Coordination Sequence:
#
# PCOD9330762 Si02
#       6
#     8   2   8   2   8   8
#     4  11  24  44  64  90 123 168 212 260 319 379
#     4  10  20  46  64  78 132 158 204 258 308 382
#     4  10  21  40  65  92 122 168 211 247 321 375
#     4  10  28  46  64  86 128 170 212 274 320 374
#     4   9  19  39  66  92 125 165 203 260 312 367
#     4  11  23  39  60  99 131 157 207 267 309 366
#
# _framework density 19.502082999999999
#
# number of rings (size 3 to 8) (size 9 to 14) (size 15 to 20)
#    0.000    1.778    1.111    6.000    3.111    7.556 
#    8.000    0.000    0.000    0.000    0.000    0.000 
#    0.000    0.000    0.000    0.000    0.000    0.000 
#
# Total GULP energy -100307.827565 kJ/mol
# GULP energy per Si atom -5572.657087 kJ/mol
# Density = 1.945770 g / cm^3
# Si number density = 19.502083 Si / 1000 Ang^3
#
#
#
# Elastic Constant Matrix: (Units=GPa)
#
#
# Indices 1 2 3 4 5 6 
#
# 1 136.3050 36.5613 47.9593 0.0000 0.0000 0.0000
# 2 36.5613 98.0287 35.1018 0.0000 0.0000 0.0000
# 3 47.9593 35.1018 77.8386 0.0000 0.0000 0.0000
# 4 0.0000 0.0000 0.0000 2.9053 0.0000 0.0000
# 5 0.0000 0.0000 0.0000 0.0000 3.5770 0.0000
# 6 0.0000 0.0000 0.0000 0.0000 0.0000 20.5795
#
#
#
# Elastic Compliance Matrix: (Units=1/GPa)
#
#
# Indices 1 2 3 4 5 6 
#
# 1 0.009611 -0.001746 -0.005135 0.000000 0.000000 0.000000
# 2 -0.001746 0.012483 -0.004553 0.000000 0.000000 0.000000
# 3 -0.005135 -0.004553 0.018064 0.000000 0.000000 0.000000
# 4 0.000000 0.000000 0.000000 0.344200 0.000000 0.000000
# 5 0.000000 0.000000 0.000000 0.000000 0.279568 0.000000
# 6 0.000000 0.000000 0.000000 0.000000 0.000000 0.048592
#
#
# Mechanical properties :
#
#
# Convention : Reuss Voigt Hill
#
# Bulk Modulus (GPa) = 57.83612 61.26857 59.55234
# Shear Modulus (GPa) = 6.74628 18.24900 12.49764
#
# Velocity S-wave (km/s) = 1.86193 3.06232 2.53422
# Velocity P-wave (km/s) = 5.86030 6.63237 6.25825
#
# Compressibility (1/GPa) = 0.01729023
#
# Stress axis : x y z
#
# Youngs Moduli (GPa) = 104.04229 80.11026 55.35864
#
# Poissons Ratio (x) = 0.13989 0.28424
# Poissons Ratio (y) = 0.18168 0.25206
# Poissons Ratio (z) = 0.53421 0.36477
#
# Static dielectric constant tensor:
#      x y z
#    x 1.677080 0.000000 0.000000 
#    y 0.000000 1.729660 0.000000 
#    z 0.000000 0.000000 1.695380 
# 
# From -- ./inp_files/9503.got.cif
#   From: 2010.05.17/outbox.cif.g08.bks.cpg/sg23_5_cif.got.tgz:9503.got - 2010.06.04 12:02:01.
