data_PCOD9330108
_publ_section_title
;
Structure prediction by ZEFSAII (Michael W. Deem and Ramdas Pophale) SiO2 
 PCOD9330108
Probable space group: I 2 2 2
;
_chemical_formula_sum "Si O2"
_cell_formula_units_Z 52
_cell_length_a 15.129293
_cell_length_b 13.872679
_cell_length_c 9.400983
_cell_angle_alpha 90.000000
_cell_angle_beta 90.000000
_cell_angle_gamma 90.000000
_cell_volume 1973.114273
_symmetry_space_group_name_H-M "I 2 2 2"
_symmetry_group_IT_number 23
_symmetry_cell_setting 'orthorhombic'
loop_
_space_group_symop_operation_xyz
x,y,z
-x,-y,z
x,-y,-z
-x,y,-z
1/2+x,1/2+y,1/2+z
1/2-x,1/2-y,1/2+z
1/2+x,1/2-y,1/2-z
1/2-x,1/2+y,1/2-z
loop_
_atom_site_type_symbol
_atom_site_label
_atom_site_fract_x
_atom_site_fract_y
_atom_site_fract_z
Si Si1 0.959644 0.385868 0.263226
Si Si2 0.878545 0.500000 0.000000
Si Si3 0.761570 0.143989 0.441712
Si Si4 0.683575 0.644168 0.506299
Si Si5 0.383520 0.644716 0.179154
Si Si6 0.371090 0.869023 0.072509
Si Si7 0.070572 0.164256 0.759617
O O1 0.928401 0.437329 0.119346
O O2 0.900307 0.380332 0.407322
O O3 0.945233 0.582811 0.328465
O O4 0.961877 0.273497 0.217660
O O5 0.817163 0.572238 0.090859
O O6 0.712342 0.242580 0.488724
O O7 0.817256 0.097107 0.569529
O O8 0.837454 0.165988 0.327170
O O9 0.658049 0.625073 0.667698
O O10 0.770020 0.598283 0.432461
O O11 0.599281 0.622747 0.409984
O O12 0.377039 0.757176 0.125438
O O13 0.486665 0.617737 0.181647
#
# Coordination Sequence:
#
# PCOD9330108 Si02
#       7
#     8   4   8   8   8   8   8
#     4  10  19  38  62 103 144 202 245 305 372 454
#     4  12  24  38  67 115 158 194 250 312 391 463
#     4  11  21  37  63 101 142 194 240 309 375 444
#     4  11  19  34  64 101 134 175 255 317 350 426
#     4  10  20  35  65 104 136 180 252 319 358 430
#     4   9  19  34  65  97 142 195 254 300 364 451
#     4  11  20  37  63  98 144 187 247 306 370 437
#
# _framework density 26.354275999999999
#
# number of rings (size 3 to 8) (size 9 to 14) (size 15 to 20)
#    0.000    1.538    4.615    3.692    0.000    0.000 
#    0.000    1.538    0.000   24.923   16.000    4.308 
#    0.000    0.000    0.000    0.000    0.000    0.000 
#
# Total GULP energy -145441.471262 kJ/mol
# GULP energy per Si atom -5593.902741 kJ/mol
# Density = 2.629429 g / cm^3
# Si number density = 26.354276 Si / 1000 Ang^3
#
#
#
# Elastic Constant Matrix: (Units=GPa)
#
#
# Indices 1 2 3 4 5 6 
#
# 1 130.0842 26.3997 53.5643 0.0000 0.0000 0.0000
# 2 26.3997 70.7028 26.4160 0.0000 0.0000 0.0000
# 3 53.5643 26.4160 163.1930 0.0000 0.0000 0.0000
# 4 0.0000 0.0000 0.0000 23.8837 0.0000 0.0000
# 5 0.0000 0.0000 0.0000 0.0000 68.9775 0.0000
# 6 0.0000 0.0000 0.0000 0.0000 0.0000 26.3972
#
#
#
# Elastic Compliance Matrix: (Units=1/GPa)
#
#
# Indices 1 2 3 4 5 6 
#
# 1 0.009279 -0.002477 -0.002645 0.000000 0.000000 0.000000
# 2 -0.002477 0.015715 -0.001731 0.000000 0.000000 0.000000
# 3 -0.002645 -0.001731 0.007276 0.000000 0.000000 0.000000
# 4 0.000000 0.000000 0.000000 0.041870 0.000000 0.000000
# 5 0.000000 0.000000 0.000000 0.000000 0.014497 0.000000
# 6 0.000000 0.000000 0.000000 0.000000 0.000000 0.037883
#
#
# Mechanical properties :
#
#
# Convention : Reuss Voigt Hill
#
# Bulk Modulus (GPa) = 53.86294 64.08224 58.97259
# Shear Modulus (GPa) = 34.15003 41.02502 37.58752
#
# Velocity S-wave (km/s) = 3.60364 3.94975 3.78066
# Velocity P-wave (km/s) = 6.14795 6.72080 6.44075
#
# Compressibility (1/GPa) = 0.01856564
#
# Stress axis : x y z
#
# Youngs Moduli (GPa) = 107.77101 63.63294 137.43881
#
# Poissons Ratio (x) = 0.15759 0.36349
# Poissons Ratio (y) = 0.26690 0.23790
# Poissons Ratio (z) = 0.28502 0.11014
#
# Static dielectric constant tensor:
#      x y z
#    x 2.049110 0.000000 0.000000 
#    y 0.000000 2.160110 0.000000 
#    z 0.000000 0.000000 2.026670 
# 
# From -- ./inp_files/11228.got.cif
#   From: 2010.05.17/outbox.cif.g08.bks.cpg/sg23_6_cif.got.tgz:11228.got - 2010.06.04 12:02:01.
