data_PCOD9330942
_publ_section_title
;
Structure prediction by ZEFSAII (Michael W. Deem and Ramdas Pophale) SiO2 
 PCOD9330942
Probable space group: I 2 2 2
;
_chemical_formula_sum "Si O2"
_cell_formula_units_Z 64
_cell_length_a 8.597602
_cell_length_b 11.648927
_cell_length_c 35.296175
_cell_angle_alpha 90.000000
_cell_angle_beta 90.000000
_cell_angle_gamma 90.000000
_cell_volume 3535.012099
_symmetry_space_group_name_H-M "I 2 2 2"
_symmetry_group_IT_number 23
_symmetry_cell_setting 'orthorhombic'
loop_
_space_group_symop_operation_xyz
x,y,z
-x,-y,z
x,-y,-z
-x,y,-z
1/2+x,1/2+y,1/2+z
1/2-x,1/2-y,1/2+z
1/2+x,1/2-y,1/2-z
1/2-x,1/2+y,1/2-z
loop_
_atom_site_type_symbol
_atom_site_label
_atom_site_fract_x
_atom_site_fract_y
_atom_site_fract_z
Si Si1 0.316092 0.131472 0.145969
Si Si2 0.313385 0.500000 0.955588
Si Si3 0.183908 0.631473 0.645969
Si Si4 0.310594 0.370344 0.500000
Si Si5 0.314402 0.632949 0.730275
Si Si6 0.186717 0.735380 0.925011
Si Si7 0.813283 0.264620 0.074989
Si Si8 0.685598 0.367051 0.269725
O O1 0.500000 0.148245 0.151958
O O2 0.254137 0.214675 0.113641
O O3 0.230965 0.144264 0.186103
O O4 0.290732 1.000000 0.133000
O O5 0.500000 0.500000 0.954740
O O6 0.246686 0.609702 0.934392
O O7 0.246685 0.390298 0.934392
O O8 0.264343 0.500000 0.000000
O O9 0.269035 0.644264 0.686103
O O10 0.245863 0.714675 0.613641
O O11 0.256441 0.500000 0.500000
O O12 0.500000 0.368832 0.500000
O O13 0.260822 0.309177 0.538507
O O14 0.260822 0.309177 0.461493
O O15 0.500000 0.633968 0.735044
O O16 0.261904 0.500000 0.741587
O O17 0.250000 0.750000 0.750000
O O18 0.000000 0.738040 0.923211
#
# Coordination Sequence:
#
# PCOD9330942 Si02
#       8
#     8   8   8   8   8   8   8   8
#     4  10  21  38  60  87 120 155 191 236 291 347
#     4  11  23  39  57  77 111 153 193 239 295 351
#     4  10  21  38  60  87 120 155 191 236 291 347
#     4   9  18  31  51  80 110 141 180 231 284 335
#     4  10  21  39  64  93 124 159 199 244 296 356
#     4  11  21  36  58  82 112 148 194 241 286 342
#     4  11  21  36  58  82 112 148 194 241 286 342
#     4  10  21  39  64  93 124 159 199 244 296 356
#
# _framework density 18.104606
#
# number of rings (size 3 to 8) (size 9 to 14) (size 15 to 20)
#    0.000    1.750    1.250    3.375    0.000    4.500 
#    2.250    0.000    0.000    3.000    0.000    0.000 
#    0.000    0.000    0.000    0.000    0.000    0.000 
#
# Total GULP energy -178526.863083 kJ/mol
# GULP energy per Si atom -5578.964471 kJ/mol
# Density = 1.806340 g / cm^3
# Si number density = 18.104606 Si / 1000 Ang^3
#
#
#
# Elastic Constant Matrix: (Units=GPa)
#
#
# Indices 1 2 3 4 5 6 
#
# 1 43.6490 39.0354 22.1293 0.0000 0.0000 0.0000
# 2 39.0354 176.7433 76.8621 0.0000 0.0000 0.0000
# 3 22.1293 76.8621 87.2035 0.0000 0.0000 0.0000
# 4 0.0000 0.0000 0.0000 43.7661 0.0000 0.0000
# 5 0.0000 0.0000 0.0000 0.0000 27.6996 0.0000
# 6 0.0000 0.0000 0.0000 0.0000 0.0000 15.2887
#
#
#
# Elastic Compliance Matrix: (Units=1/GPa)
#
#
# Indices 1 2 3 4 5 6 
#
# 1 0.028957 -0.005189 -0.002775 0.000000 0.000000 0.000000
# 2 -0.005189 0.010104 -0.007589 0.000000 0.000000 0.000000
# 3 -0.002775 -0.007589 0.018861 0.000000 0.000000 0.000000
# 4 0.000000 0.000000 0.000000 0.022849 0.000000 0.000000
# 5 0.000000 0.000000 0.000000 0.000000 0.036102 0.000000
# 6 0.000000 0.000000 0.000000 0.000000 0.000000 0.065408
#
#
# Mechanical properties :
#
#
# Convention : Reuss Voigt Hill
#
# Bulk Modulus (GPa) = 37.29061 64.84994 51.07028
# Shear Modulus (GPa) = 22.48954 28.65546 25.57250
#
# Velocity S-wave (km/s) = 3.52831 3.98272 3.76238
# Velocity P-wave (km/s) = 6.10251 7.55293 6.86613
#
# Compressibility (1/GPa) = 0.02681640
#
# Stress axis : x y z
#
# Youngs Moduli (GPa) = 34.53379 98.96707 53.01940
#
# Poissons Ratio (x) = 0.51351 0.14713
# Poissons Ratio (y) = 0.17918 0.40239
# Poissons Ratio (z) = 0.09583 0.75110
#
# Static dielectric constant tensor:
#      x y z
#    x 1.613190 0.000000 0.000000 
#    y 0.000000 1.606400 0.000000 
#    z 0.000000 0.000000 1.583800 
# 
# From -- ./inp_files/30346.got.cif
#   From: 2010.05.17/outbox.cif.g08.bks.cpg/sg23_16_cif.got.tgz:30346.got - 2010.06.04 12:02:01.
