data_PCOD9330399
_publ_section_title
;
Structure prediction by ZEFSAII (Michael W. Deem and Ramdas Pophale) SiO2 
 PCOD9330399
Probable space group: I 2 2 2
;
_chemical_formula_sum "Si O2"
_cell_formula_units_Z 42
_cell_length_a 23.080474
_cell_length_b 5.442615
_cell_length_c 14.660017
_cell_angle_alpha 90.000000
_cell_angle_beta 90.000000
_cell_angle_gamma 90.000000
_cell_volume 1841.563980
_symmetry_space_group_name_H-M "I 2 2 2"
_symmetry_group_IT_number 23
_symmetry_cell_setting 'orthorhombic'
loop_
_space_group_symop_operation_xyz
x,y,z
-x,-y,z
x,-y,-z
-x,y,-z
1/2+x,1/2+y,1/2+z
1/2-x,1/2-y,1/2+z
1/2+x,1/2-y,1/2-z
1/2-x,1/2+y,1/2-z
loop_
_atom_site_type_symbol
_atom_site_label
_atom_site_fract_x
_atom_site_fract_y
_atom_site_fract_z
Si Si1 0.060128 0.890765 0.101107
Si Si2 0.286540 0.353730 0.874590
Si Si3 0.840728 0.645859 0.612706
Si Si4 0.524415 0.248045 0.896861
Si Si5 0.677057 0.637716 0.296945
Si Si6 0.500000 0.000000 0.500000
O O1 0.115815 0.928072 0.160770
O O2 0.000000 0.000000 0.138116
O O3 0.044409 0.616975 0.072693
O O4 0.068658 0.000000 0.000000
O O5 0.298078 0.627066 0.914922
O O6 0.300304 0.415357 0.767170
O O7 0.223023 0.233819 0.870857
O O8 0.327350 0.135430 0.913706
O O9 0.906398 0.730717 0.596370
O O10 0.833115 0.648808 0.722604
O O11 0.500000 0.500000 0.855329
O O12 0.500000 0.000000 0.851369
O O13 0.500000 0.247078 0.000000
#
# Coordination Sequence:
#
# PCOD9330399 Si02
#       6
#     8   8   8   8   8   2
#     4   9  20  39  60  89 123 157 198 249 314 382
#     4  10  20  37  59  92 120 158 194 260 303 350
#     4  10  20  36  59  88 120 153 208 252 291 362
#     4  10  21  38  60  81 117 171 205 246 306 348
#     4  10  20  37  62  89 123 157 200 255 312 363
#     4   8  18  40  56  86 120 156 192 244 310 378
#
# _framework density 22.806698999999998
#
# number of rings (size 3 to 8) (size 9 to 14) (size 15 to 20)
#    1.143    1.333    1.905    1.143    0.000    3.810 
#    1.714    0.000   12.571    0.000    0.000    0.000 
#    0.000    0.000    0.000    0.000    0.000    0.000 
#
# Total GULP energy -116928.727920 kJ/mol
# GULP energy per Si atom -5568.034663 kJ/mol
# Density = 2.275479 g / cm^3
# Si number density = 22.806699 Si / 1000 Ang^3
#
#
#
# Elastic Constant Matrix: (Units=GPa)
#
#
# Indices 1 2 3 4 5 6 
#
# 1 139.6309 47.2822 16.0519 0.0000 0.0000 0.0000
# 2 47.2822 143.6751 11.7795 0.0000 0.0000 0.0000
# 3 16.0519 11.7795 37.8290 0.0000 0.0000 0.0000
# 4 0.0000 0.0000 0.0000 43.2888 0.0000 0.0000
# 5 0.0000 0.0000 0.0000 0.0000-1935.1463 0.0000
# 6 0.0000 0.0000 0.0000 0.0000 0.0000 45.2596
#
#
#
# Elastic Compliance Matrix: (Units=1/GPa)
#
#
# Indices 1 2 3 4 5 6 
#
# 1 0.008330 -0.002516 -0.002751 0.000000 0.000000 0.000000
# 2 -0.002516 0.007902 -0.001393 0.000000 0.000000 0.000000
# 3 -0.002751 -0.001393 0.028036 0.000000 0.000000 0.000000
# 4 0.000000 0.000000 0.000000 0.023101 0.000000 0.000000
# 5 0.000000 0.000000 0.000000 0.000000 -0.000517 0.000000
# 6 0.000000 0.000000 0.000000 0.000000 0.000000 0.022095
#
#
# Mechanical properties :
#
#
# Convention : Reuss Voigt Hill
#
# Bulk Modulus (GPa) = 32.31239 52.37357 42.34298
# Shear Modulus (GPa) = 44.41162 -352.91817 -154.25328
#
# Velocity S-wave (km/s) = 4.41762 -12.45308 -8.23298
# Velocity P-wave (km/s) = 6.34186 13.55574 8.47169
#
# Compressibility (1/GPa) = 0.03094788
#
# Stress axis : x y z
#
# Youngs Moduli (GPa) = 120.04941 126.54578 35.66843
#
# Poissons Ratio (x) = 0.31836 0.09813
# Poissons Ratio (y) = 0.30201 0.04969
# Poissons Ratio (z) = 0.33028 0.17630
#
# Static dielectric constant tensor:
#      x y z
#    x 1.810600 0.000000 0.000000 
#    y 0.000000 31.324980 0.000000 
#    z 0.000000 0.000000 1.883140 
# 
# From -- ./inp_files/27240.got.cif
#   From: 2010.05.17/outbox.cif.g08.bks.cpg/sg23_14_cif.got.tgz:27240.got - 2010.06.04 12:02:01.
