data_PCOD9330433
_publ_section_title
;
Structure prediction by ZEFSAII (Michael W. Deem and Ramdas Pophale) SiO2 
 PCOD9330433
Probable space group: I 2 2 2
;
_chemical_formula_sum "Si O2"
_cell_formula_units_Z 52
_cell_length_a 8.507861
_cell_length_b 10.935138
_cell_length_c 27.494425
_cell_angle_alpha 90.000000
_cell_angle_beta 90.000000
_cell_angle_gamma 90.000000
_cell_volume 2557.933770
_symmetry_space_group_name_H-M "I 2 2 2"
_symmetry_group_IT_number 23
_symmetry_cell_setting 'orthorhombic'
loop_
_space_group_symop_operation_xyz
x,y,z
-x,-y,z
x,-y,-z
-x,y,-z
1/2+x,1/2+y,1/2+z
1/2-x,1/2-y,1/2+z
1/2+x,1/2-y,1/2-z
1/2-x,1/2+y,1/2-z
loop_
_atom_site_type_symbol
_atom_site_label
_atom_site_fract_x
_atom_site_fract_y
_atom_site_fract_z
Si Si1 0.500000 0.293158 0.000000
Si Si2 0.152078 0.715959 0.808944
Si Si3 0.292663 0.097057 0.457525
Si Si4 0.000000 0.500000 0.127233
Si Si5 0.112553 0.893354 0.230232
Si Si6 0.000000 0.193020 0.000000
Si Si7 0.322684 0.961097 0.844813
Si Si8 0.709365 0.912504 0.044800
O O1 0.610883 0.371526 0.035150
O O2 0.392342 0.208842 0.034806
O O3 0.259513 0.651782 0.768459
O O4 0.261696 0.822439 0.833286
O O5 0.076175 0.611547 0.842846
O O6 0.004099 0.785801 0.785411
O O7 0.385160 0.221080 0.469338
O O8 0.328825 0.000000 0.500000
O O9 0.359581 0.047299 0.407510
O O10 0.202264 0.951206 0.183778
O O11 0.000000 0.000000 0.250957
O O12 0.891675 0.119466 0.963094
O O13 0.316502 0.971807 0.903136
O O14 0.500000 0.000000 0.829485
O O15 0.669838 0.000000 0.000000
#
# Coordination Sequence:
#
# PCOD9330433 Si02
#       8
#     4   8   8   4   8   4   8   8
#     4  10  24  38  66  88 146 180 218 276 334 394
#     4  11  26  45  74 103 137 179 235 296 360 428
#     4  11  21  43  61  93 135 182 222 268 332 406
#     4  12  25  40  74 106 140 176 243 282 354 418
#     4  10  25  47  72  99 134 179 230 288 364 421
#     4  10  20  36  68  82 138 176 218 270 324 390
#     4  11  24  44  73  99 137 181 232 290 352 423
#     4  11  23  40  62 102 132 176 223 273 335 405
#
# _framework density 20.328908999999999
#
# number of rings (size 3 to 8) (size 9 to 14) (size 15 to 20)
#    0.000    1.231    1.538    3.462    7.538    7.385 
#    2.769    0.000    0.000    0.000    0.000    0.000 
#    0.000    0.000    0.000    0.000    0.000    0.000 
#
# Total GULP energy -145264.175115 kJ/mol
# GULP energy per Si atom -5587.083658 kJ/mol
# Density = 2.028264 g / cm^3
# Si number density = 20.328909 Si / 1000 Ang^3
#
#
#
# Elastic Constant Matrix: (Units=GPa)
#
#
# Indices 1 2 3 4 5 6 
#
# 1 168.8392 83.4361 64.8854 0.0000 0.0000 0.0000
# 2 83.4361 119.8841 74.6134 0.0000 0.0000 0.0000
# 3 64.8854 74.6134 131.9879 0.0000 0.0000 0.0000
# 4 0.0000 0.0000 0.0000 8.1922 0.0000 0.0000
# 5 0.0000 0.0000 0.0000 0.0000 105.8643 0.0000
# 6 0.0000 0.0000 0.0000 0.0000 0.0000 43.2967
#
#
#
# Elastic Compliance Matrix: (Units=1/GPa)
#
#
# Indices 1 2 3 4 5 6 
#
# 1 0.009191 -0.005530 -0.001392 0.000000 0.000000 0.000000
# 2 -0.005530 0.016197 -0.006437 0.000000 0.000000 0.000000
# 3 -0.001392 -0.006437 0.011900 0.000000 0.000000 0.000000
# 4 0.000000 0.000000 0.000000 0.122067 0.000000 0.000000
# 5 0.000000 0.000000 0.000000 0.000000 0.009446 0.000000
# 6 0.000000 0.000000 0.000000 0.000000 0.000000 0.023096
#
#
# Mechanical properties :
#
#
# Convention : Reuss Voigt Hill
#
# Bulk Modulus (GPa) = 94.62364 96.28676 95.45520
# Shear Modulus (GPa) = 22.50853 44.65574 33.58214
#
# Velocity S-wave (km/s) = 3.33110 4.69194 4.06882
# Velocity P-wave (km/s) = 7.83852 8.76468 8.31451
#
# Compressibility (1/GPa) = 0.01056818
#
# Stress axis : x y z
#
# Youngs Moduli (GPa) = 108.80773 61.74086 84.03465
#
# Poissons Ratio (x) = 0.34143 0.11697
# Poissons Ratio (y) = 0.60171 0.54097
# Poissons Ratio (z) = 0.15145 0.39746
#
# Static dielectric constant tensor:
#      x y z
#    x 1.794920 0.000000 0.000000 
#    y 0.000000 1.718200 0.000000 
#    z 0.000000 0.000000 1.688240 
# 
# From -- ./inp_files/29258.got.cif
#   From: 2010.05.17/outbox.cif.g08.bks.cpg/sg23_15_cif.got.tgz:29258.got - 2010.06.04 12:02:01.
