data_PCOD9330525
_publ_section_title
;
Structure prediction by ZEFSAII (Michael W. Deem and Ramdas Pophale) SiO2 
 PCOD9330525
Probable space group: I 2 2 2
;
_chemical_formula_sum "Si O2"
_cell_formula_units_Z 52
_cell_length_a 8.773726
_cell_length_b 17.148427
_cell_length_c 17.700893
_cell_angle_alpha 90.000000
_cell_angle_beta 90.000000
_cell_angle_gamma 90.000000
_cell_volume 2663.198474
_symmetry_space_group_name_H-M "I 2 2 2"
_symmetry_group_IT_number 23
_symmetry_cell_setting 'orthorhombic'
loop_
_space_group_symop_operation_xyz
x,y,z
-x,-y,z
x,-y,-z
-x,y,-z
1/2+x,1/2+y,1/2+z
1/2-x,1/2-y,1/2+z
1/2+x,1/2-y,1/2-z
1/2-x,1/2+y,1/2-z
loop_
_atom_site_type_symbol
_atom_site_label
_atom_site_fract_x
_atom_site_fract_y
_atom_site_fract_z
Si Si1 0.141034 0.149742 0.811543
Si Si2 0.500000 0.500000 0.500000
Si Si3 0.791923 0.804687 0.362151
Si Si4 0.275486 0.655435 0.309452
Si Si5 0.842221 0.814858 0.638784
Si Si6 0.750870 0.996416 0.110093
Si Si7 0.183522 0.408420 0.002154
Si Si8 0.000000 0.500000 0.500000
O O1 0.225844 0.216455 0.860570
O O2 0.191904 0.155704 0.724069
O O3 0.177070 0.064595 0.841972
O O4 0.958938 0.159045 0.813834
O O5 0.380998 0.458792 0.555465
O O6 0.740145 0.834236 0.279209
O O7 0.732376 0.859126 0.428844
O O8 0.974967 0.810120 0.368456
O O9 0.215528 0.726192 0.359905
O O10 0.202956 0.575258 0.338509
O O11 0.760047 0.866598 0.575093
O O12 0.619905 0.035604 0.058993
O O13 0.229973 0.500000 0.000000
O O14 0.000000 0.406177 0.000000
#
# Coordination Sequence:
#
# PCOD9330525 Si02
#       8
#     8   2   8   8   8   8   8   2
#     4  10  21  41  67  94 126 167 209 254 316 381
#     4  10  20  38  60  86 124 144 218 242 308 370
#     4  10  23  41  65  97 128 162 210 260 315 375
#     4  10  21  41  67  94 126 167 209 254 316 381
#     4  10  23  41  65  97 128 162 210 260 315 375
#     4  11  22  42  62  93 122 170 203 263 309 377
#     4  11  25  45  65  94 126 170 213 263 316 370
#     4  10  28  38  52  94 128 152 210 254 308 362
#
# _framework density 19.525393999999999
#
# number of rings (size 3 to 8) (size 9 to 14) (size 15 to 20)
#    0.000    1.692    1.538    1.385    4.308    4.923 
#    2.769    0.000    0.000    0.000    0.000    0.000 
#    0.000    0.000    0.000    0.000    0.000    0.000 
#
# Total GULP energy -144870.107266 kJ/mol
# GULP energy per Si atom -5571.927203 kJ/mol
# Density = 1.948095 g / cm^3
# Si number density = 19.525394 Si / 1000 Ang^3
#
#
#
# Elastic Constant Matrix: (Units=GPa)
#
#
# Indices 1 2 3 4 5 6 
#
# 1 58.1043 33.7039 35.1028 0.0000 0.0000 0.0000
# 2 33.7039 151.0291 80.3688 0.0000 0.0000 0.0000
# 3 35.1028 80.3688 97.9044 0.0000 0.0000 0.0000
# 4 0.0000 0.0000 0.0000 9.3844 0.0000 0.0000
# 5 0.0000 0.0000 0.0000 0.0000 31.0142 0.0000
# 6 0.0000 0.0000 0.0000 0.0000 0.0000 24.9462
#
#
#
# Elastic Compliance Matrix: (Units=1/GPa)
#
#
# Indices 1 2 3 4 5 6 
#
# 1 0.022106 -0.001270 -0.006883 0.000000 0.000000 0.000000
# 2 -0.001270 0.011830 -0.009256 0.000000 0.000000 0.000000
# 3 -0.006883 -0.009256 0.020280 0.000000 0.000000 0.000000
# 4 0.000000 0.000000 0.000000 0.106560 0.000000 0.000000
# 5 0.000000 0.000000 0.000000 0.000000 0.032243 0.000000
# 6 0.000000 0.000000 0.000000 0.000000 0.000000 0.040086
#
#
# Mechanical properties :
#
#
# Convention : Reuss Voigt Hill
#
# Bulk Modulus (GPa) = 51.55341 67.26543 59.40942
# Shear Modulus (GPa) = 18.22233 23.59313 20.90773
#
# Velocity S-wave (km/s) = 3.05825 3.47988 3.27585
# Velocity P-wave (km/s) = 6.23948 7.11836 6.69336
#
# Compressibility (1/GPa) = 0.01939736
#
# Stress axis : x y z
#
# Youngs Moduli (GPa) = 45.23760 84.53018 49.31034
#
# Poissons Ratio (x) = 0.10739 0.33939
# Poissons Ratio (y) = 0.05747 0.45640
# Poissons Ratio (z) = 0.31136 0.78239
#
# Static dielectric constant tensor:
#      x y z
#    x 1.712310 0.000000 0.000000 
#    y 0.000000 1.656340 0.000000 
#    z 0.000000 0.000000 1.693580 
# 
# From -- ./inp_files/23879.got.cif
#   From: 2010.05.17/outbox.cif.g08.bks.cpg/sg23_12_cif.got.tgz:23879.got - 2010.06.04 12:02:01.
