data_PCOD9330676
_publ_section_title
;
Structure prediction by ZEFSAII (Michael W. Deem and Ramdas Pophale) SiO2 
 PCOD9330676
Probable space group: I 2 2 2
;
_chemical_formula_sum "Si O2"
_cell_formula_units_Z 48
_cell_length_a 7.972807
_cell_length_b 14.614922
_cell_length_c 18.665981
_cell_angle_alpha 90.000000
_cell_angle_beta 90.000000
_cell_angle_gamma 90.000000
_cell_volume 2174.996550
_symmetry_space_group_name_H-M "I 2 2 2"
_symmetry_group_IT_number 23
_symmetry_cell_setting 'orthorhombic'
loop_
_space_group_symop_operation_xyz
x,y,z
-x,-y,z
x,-y,-z
-x,y,-z
1/2+x,1/2+y,1/2+z
1/2-x,1/2-y,1/2+z
1/2+x,1/2-y,1/2-z
1/2-x,1/2+y,1/2-z
loop_
_atom_site_type_symbol
_atom_site_label
_atom_site_fract_x
_atom_site_fract_y
_atom_site_fract_z
Si Si1 0.868867 0.285824 0.598420
Si Si2 0.606550 0.911874 0.650757
Si Si3 0.689805 0.961247 0.805770
Si Si4 0.376634 0.355380 0.668297
Si Si5 0.751169 0.242552 0.447260
Si Si6 0.654925 0.769655 0.283220
O O1 0.828298 0.386340 0.630348
O O2 0.754114 0.251581 0.532762
O O3 0.818914 0.227120 0.667302
O O4 0.059216 0.270956 0.574840
O O5 0.717080 0.935820 0.721272
O O6 0.699749 0.854930 0.588132
O O7 0.472176 0.843872 0.686820
O O8 0.500000 0.000000 0.625558
O O9 0.500000 0.000000 0.803008
O O10 0.819879 0.040843 0.825410
O O11 0.371533 0.317396 0.588031
O O12 0.550222 0.323692 0.704589
O O13 0.227847 0.296676 0.707082
#
# Coordination Sequence:
#
# PCOD9330676 Si02
#       6
#     8   8   8   8   8   8
#     4  11  23  40  60  95 132 173 219 272 343 430
#     4  10  20  40  68  94 125 169 230 284 332 400
#     4  11  20  38  65  97 130 166 227 283 339 398
#     4  11  21  38  64  96 126 175 224 280 340 406
#     4  10  22  40  64  91 126 177 219 266 350 411
#     4  11  22  38  65  91 130 173 221 280 341 400
#
# _framework density 22.069001
#
# number of rings (size 3 to 8) (size 9 to 14) (size 15 to 20)
#    0.000    1.333    5.000    3.000    0.000    4.000 
#    0.000    2.500    0.000    6.000    0.000    0.000 
#    0.000    0.000    0.000    0.000    0.000    0.000 
#
# Total GULP energy -133872.380285 kJ/mol
# GULP energy per Si atom -5578.015845 kJ/mol
# Density = 2.201877 g / cm^3
# Si number density = 22.069001 Si / 1000 Ang^3
#
#
#
# Elastic Constant Matrix: (Units=GPa)
#
#
# Indices 1 2 3 4 5 6 
#
# 1 76.3182 25.8126 13.3554 0.0000 0.0000 0.0000
# 2 25.8126 123.2304 44.4756 0.0000 0.0000 0.0000
# 3 13.3554 44.4756 122.9512 0.0000 0.0000 0.0000
# 4 0.0000 0.0000 0.0000 20.9987 0.0000 0.0000
# 5 0.0000 0.0000 0.0000 0.0000 34.4839 0.0000
# 6 0.0000 0.0000 0.0000 0.0000 0.0000 44.8930
#
#
#
# Elastic Compliance Matrix: (Units=1/GPa)
#
#
# Indices 1 2 3 4 5 6 
#
# 1 0.014133 -0.002768 -0.000534 0.000000 0.000000 0.000000
# 2 -0.002768 0.009875 -0.003272 0.000000 0.000000 0.000000
# 3 -0.000534 -0.003272 0.009375 0.000000 0.000000 0.000000
# 4 0.000000 0.000000 0.000000 0.047622 0.000000 0.000000
# 5 0.000000 0.000000 0.000000 0.000000 0.028999 0.000000
# 6 0.000000 0.000000 0.000000 0.000000 0.000000 0.022275
#
#
# Mechanical properties :
#
#
# Convention : Reuss Voigt Hill
#
# Bulk Modulus (GPa) = 49.41618 54.42076 51.91847
# Shear Modulus (GPa) = 32.85783 35.99888 34.42836
#
# Velocity S-wave (km/s) = 3.86277 4.04319 3.95401
# Velocity P-wave (km/s) = 6.50653 6.81978 6.66500
#
# Compressibility (1/GPa) = 0.02023629
#
# Stress axis : x y z
#
# Youngs Moduli (GPa) = 70.75871 101.26200 106.66922
#
# Poissons Ratio (x) = 0.28025 0.05696
# Poissons Ratio (y) = 0.19583 0.34898
# Poissons Ratio (z) = 0.03779 0.33129
#
# Static dielectric constant tensor:
#      x y z
#    x 1.896970 0.000000 0.000000 
#    y 0.000000 1.906060 0.000000 
#    z 0.000000 0.000000 1.813320 
# 
# From -- ./inp_files/22023.got.cif
#   From: 2010.05.17/outbox.cif.g08.bks.cpg/sg23_12_cif.got.tgz:22023.got - 2010.06.04 12:02:01.
