data_PCOD9330887
_publ_section_title
;
Structure prediction by ZEFSAII (Michael W. Deem and Ramdas Pophale) SiO2 
 PCOD9330887
Probable space group: I 2 2 2
;
_chemical_formula_sum "Si O2"
_cell_formula_units_Z 64
_cell_length_a 23.338926
_cell_length_b 8.553167
_cell_length_c 17.423240
_cell_angle_alpha 90.000000
_cell_angle_beta 90.000000
_cell_angle_gamma 90.000000
_cell_volume 3478.057340
_symmetry_space_group_name_H-M "I 2 2 2"
_symmetry_group_IT_number 23
_symmetry_cell_setting 'orthorhombic'
loop_
_space_group_symop_operation_xyz
x,y,z
-x,-y,z
x,-y,-z
-x,y,-z
1/2+x,1/2+y,1/2+z
1/2-x,1/2-y,1/2+z
1/2+x,1/2-y,1/2-z
1/2-x,1/2+y,1/2-z
loop_
_atom_site_type_symbol
_atom_site_label
_atom_site_fract_x
_atom_site_fract_y
_atom_site_fract_z
Si Si1 0.629880 0.677761 0.659798
Si Si2 0.002739 0.681829 0.845008
Si Si3 0.310455 0.180429 0.978634
Si Si4 0.130514 0.181014 0.337309
Si Si5 0.400691 0.612282 0.930584
Si Si6 0.090051 0.886381 0.069848
Si Si7 0.813866 0.683872 0.013725
Si Si8 0.001586 0.184456 0.683462
O O1 0.568124 0.761188 0.651324
O O2 0.647341 0.685208 0.748458
O O3 0.617864 0.499904 0.633597
O O4 0.672593 0.761378 0.600717
O O5 0.962642 0.787833 0.898058
O O6 0.982807 0.713311 0.757248
O O7 0.000000 0.500000 0.864887
O O8 0.332209 0.210367 0.892174
O O9 0.357075 0.266165 0.032451
O O10 0.249161 0.260164 0.990766
O O11 0.306578 0.000000 0.000000
O O12 0.062927 0.225464 0.341492
O O13 0.131642 0.005689 0.372320
O O14 0.452882 0.690022 0.884920
O O15 0.421890 0.500000 0.000000
O O16 0.138689 0.772564 0.037030
O O17 0.072745 0.000000 0.000000
O O18 0.819212 0.500000 0.000000
O O19 0.000000 0.000000 0.707929
#
# Coordination Sequence:
#
# PCOD9330887 Si02
#       8
#     8   8   8   8   8   8   8   8
#     4  10  21  39  61  85 115 150 188 230 282 339
#     4  11  21  34  54  86 122 150 183 229 279 333
#     4  11  23  40  58  81 114 151 191 235 282 335
#     4   9  19  37  59  84 114 149 189 232 278 335
#     4   9  18  33  57  84 113 150 192 232 277 330
#     4  10  21  37  59  83 113 150 190 230 279 335
#     4  11  23  42  62  83 111 145 189 239 285 333
#     4   9  18  34  57  84 116 151 188 229 281 336
#
# _framework density 18.401077000000001
#
# number of rings (size 3 to 8) (size 9 to 14) (size 15 to 20)
#    0.000    2.000    0.000    5.625    0.000   11.250 
#    0.000   11.250    0.000    0.000    0.000    0.000 
#    0.000    0.000    0.000    0.000    0.000    0.000 
#
# Total GULP energy -178742.771572 kJ/mol
# GULP energy per Si atom -5585.711612 kJ/mol
# Density = 1.835920 g / cm^3
# Si number density = 18.401077 Si / 1000 Ang^3
#
#
#
# Elastic Constant Matrix: (Units=GPa)
#
#
# Indices 1 2 3 4 5 6 
#
# 1 77.8606 47.5641 59.5315 0.0000 0.0000 0.0000
# 2 47.5641 127.9914 64.2660 0.0000 0.0000 0.0000
# 3 59.5315 64.2660 128.6621 0.0000 0.0000 0.0000
# 4 0.0000 0.0000 0.0000 22.2079 0.0000 0.0000
# 5 0.0000 0.0000 0.0000 0.0000 15.1734 0.0000
# 6 0.0000 0.0000 0.0000 0.0000 0.0000 23.4759
#
#
#
# Elastic Compliance Matrix: (Units=1/GPa)
#
#
# Indices 1 2 3 4 5 6 
#
# 1 0.021276 -0.003956 -0.007869 0.000000 0.000000 0.000000
# 2 -0.003956 0.011164 -0.003746 0.000000 0.000000 0.000000
# 3 -0.007869 -0.003746 0.013284 0.000000 0.000000 0.000000
# 4 0.000000 0.000000 0.000000 0.045029 0.000000 0.000000
# 5 0.000000 0.000000 0.000000 0.000000 0.065905 0.000000
# 6 0.000000 0.000000 0.000000 0.000000 0.000000 0.042597
#
#
# Mechanical properties :
#
#
# Convention : Reuss Voigt Hill
#
# Bulk Modulus (GPa) = 68.56979 75.24859 71.90919
# Shear Modulus (GPa) = 21.25337 23.04829 22.15083
#
# Velocity S-wave (km/s) = 3.40223 3.54298 3.47332
# Velocity P-wave (km/s) = 7.26488 7.59732 7.43296
#
# Compressibility (1/GPa) = 0.01458368
#
# Stress axis : x y z
#
# Youngs Moduli (GPa) = 47.00088 89.57369 75.27767
#
# Poissons Ratio (x) = 0.35433 0.59232
# Poissons Ratio (y) = 0.18592 0.28199
# Poissons Ratio (z) = 0.36983 0.33555
#
# Static dielectric constant tensor:
#      x y z
#    x 1.608090 0.000000 0.000000 
#    y 0.000000 1.627880 0.000000 
#    z 0.000000 0.000000 1.655130 
# 
# From -- ./inp_files/25266.got.cif
#   From: 2010.05.17/outbox.cif.g08.bks.cpg/sg23_13_cif.got.tgz:25266.got - 2010.06.04 12:02:01.
