data_PCOD9330836
_publ_section_title
;
Structure prediction by ZEFSAII (Michael W. Deem and Ramdas Pophale) SiO2 
 PCOD9330836
Probable space group: I 2 2 2
;
_chemical_formula_sum "Si O2"
_cell_formula_units_Z 48
_cell_length_a 27.168292
_cell_length_b 17.109380
_cell_length_c 5.104501
_cell_angle_alpha 90.000000
_cell_angle_beta 90.000000
_cell_angle_gamma 90.000000
_cell_volume 2372.738634
_symmetry_space_group_name_H-M "I 2 2 2"
_symmetry_group_IT_number 23
_symmetry_cell_setting 'orthorhombic'
loop_
_space_group_symop_operation_xyz
x,y,z
-x,-y,z
x,-y,-z
-x,y,-z
1/2+x,1/2+y,1/2+z
1/2-x,1/2-y,1/2+z
1/2+x,1/2-y,1/2-z
1/2-x,1/2+y,1/2-z
loop_
_atom_site_type_symbol
_atom_site_label
_atom_site_fract_x
_atom_site_fract_y
_atom_site_fract_z
Si Si1 0.238149 0.052359 0.239462
Si Si2 0.279777 0.274134 0.656841
Si Si3 0.560137 0.589247 0.984809
Si Si4 0.354643 0.080178 0.137380
Si Si5 0.876078 0.325941 0.872040
Si Si6 0.059024 0.814394 0.011730
O O1 0.212389 0.136631 0.247283
O O2 0.295682 0.072553 0.179258
O O3 0.235675 0.000000 0.500000
O O4 0.219450 0.000000 0.000000
O O5 0.245179 0.270437 0.401107
O O6 0.328617 0.228381 0.577240
O O7 0.575653 0.648256 0.214391
O O8 0.577465 0.500000 0.000000
O O9 0.500000 0.586664 0.000000
O O10 0.575644 0.625954 0.712119
O O11 0.374740 0.102751 0.422508
O O12 0.370398 0.145432 0.925846
O O13 0.370983 0.000000 0.000000
O O14 0.921430 0.270619 0.939696
O O15 0.000000 0.813014 0.000000
#
# Coordination Sequence:
#
# PCOD9330836 Si02
#       6
#     8   8   8   8   8   8
#     4  11  21  36  57  82 116 153 192 234 289 346
#     4  12  22  38  57  85 116 151 190 241 286 348
#     4   9  17  33  57  84 112 150 198 240 280 338
#     4  11  22  37  61  87 111 146 200 243 287 350
#     4  12  22  39  60  87 117 152 192 244 293 349
#     4  10  21  36  58  87 117 154 197 242 294 346
#
# _framework density 20.229787999999999
#
# number of rings (size 3 to 8) (size 9 to 14) (size 15 to 20)
#    0.000    1.167    3.333    5.000    0.000    2.000 
#    0.000    2.500    0.000    3.000    0.000    0.000 
#    0.000    0.000    0.000    0.000    0.000    0.000 
#
# Total GULP energy -134080.295040 kJ/mol
# GULP energy per Si atom -5586.678960 kJ/mol
# Density = 2.018374 g / cm^3
# Si number density = 20.229788 Si / 1000 Ang^3
#
#
#
# Elastic Constant Matrix: (Units=GPa)
#
#
# Indices 1 2 3 4 5 6 
#
# 1 14.8935 14.5833 16.8034 0.0000 0.0000 0.0000
# 2 14.5833 82.9211 12.7727 0.0000 0.0000 0.0000
# 3 16.8034 12.7727 112.4304 0.0000 0.0000 0.0000
# 4 0.0000 0.0000 0.0000 48.2873 0.0000 0.0000
# 5 0.0000 0.0000 0.0000 0.0000 4.7013 0.0000
# 6 0.0000 0.0000 0.0000 0.0000 0.0000 11.0706
#
#
#
# Elastic Compliance Matrix: (Units=1/GPa)
#
#
# Indices 1 2 3 4 5 6 
#
# 1 0.096058 -0.014944 -0.012659 0.000000 0.000000 0.000000
# 2 -0.014944 0.014599 0.000575 0.000000 0.000000 0.000000
# 3 -0.012659 0.000575 0.010721 0.000000 0.000000 0.000000
# 4 0.000000 0.000000 0.000000 0.020709 0.000000 0.000000
# 5 0.000000 0.000000 0.000000 0.000000 0.212707 0.000000
# 6 0.000000 0.000000 0.000000 0.000000 0.000000 0.090329
#
#
# Mechanical properties :
#
#
# Convention : Reuss Voigt Hill
#
# Bulk Modulus (GPa) = 14.85373 33.17374 24.01374
# Shear Modulus (GPa) = 9.58550 23.88421 16.73486
#
# Velocity S-wave (km/s) = 2.17913 3.43978 2.87930
# Velocity P-wave (km/s) = 3.69999 5.67540 4.79062
#
# Compressibility (1/GPa) = 0.06732315
#
# Stress axis : x y z
#
# Youngs Moduli (GPa) = 10.41035 68.49661 93.27481
#
# Poissons Ratio (x) = 1.02360 1.18074
# Poissons Ratio (y) = 0.15557 -0.05362
# Poissons Ratio (z) = 0.13178 -0.03938
#
# Static dielectric constant tensor:
#      x y z
#    x 1.732480 0.000000 0.000000 
#    y 0.000000 1.737800 0.000000 
#    z 0.000000 0.000000 1.701950 
# 
# From -- ./inp_files/4908.got.cif
#   From: 2010.05.17/outbox.cif.g08.bks.cpg/sg23_3_cif.got.tgz:4908.got - 2010.06.04 12:02:01.
