data_PCOD9330993
_publ_section_title
;
Structure prediction by ZEFSAII (Michael W. Deem and Ramdas Pophale) SiO2 
 PCOD9330993
Probable space group: I 2 2 2
;
_chemical_formula_sum "Si O2"
_cell_formula_units_Z 40
_cell_length_a 9.699250
_cell_length_b 17.643755
_cell_length_c 9.117407
_cell_angle_alpha 90.000000
_cell_angle_beta 90.000000
_cell_angle_gamma 90.000000
_cell_volume 1560.272716
_symmetry_space_group_name_H-M "I 2 2 2"
_symmetry_group_IT_number 23
_symmetry_cell_setting 'orthorhombic'
loop_
_space_group_symop_operation_xyz
x,y,z
-x,-y,z
x,-y,-z
-x,y,-z
1/2+x,1/2+y,1/2+z
1/2-x,1/2-y,1/2+z
1/2+x,1/2-y,1/2-z
1/2-x,1/2+y,1/2-z
loop_
_atom_site_type_symbol
_atom_site_label
_atom_site_fract_x
_atom_site_fract_y
_atom_site_fract_z
Si Si1 0.781142 0.129223 0.947465
Si Si2 0.205107 0.287306 0.915648
Si Si3 0.631666 0.446052 0.753031
Si Si4 0.491136 0.687571 0.239425
Si Si5 0.632882 0.054690 0.680369
O O1 0.925916 0.131063 0.861497
O O2 0.664642 0.093907 0.841346
O O3 0.769697 0.220297 0.967633
O O4 0.797332 0.084379 0.100341
O O5 0.356357 0.287840 0.844099
O O6 0.151412 0.373648 0.929462
O O7 0.082273 0.250773 0.816549
O O8 0.500000 0.500000 0.737216
O O9 0.593125 0.369902 0.842016
O O10 0.741545 0.497350 0.834038
O O11 0.500000 0.000000 0.674722
#
# Coordination Sequence:
#
# PCOD9330993 Si02
#       5
#     8   8   8   8   8
#     4  10  22  37  64  85 127 169 203 252 328 402
#     4  10  21  39  57  87 130 166 206 252 329 393
#     4  11  19  35  59  85 121 156 200 253 323 377
#     4  10  22  37  59  90 122 165 208 257 314 398
#     4  11  25  38  60 101 128 153 213 284 324 362
#
# _framework density 25.636543
#
# number of rings (size 3 to 8) (size 9 to 14) (size 15 to 20)
#    0.000    1.600    4.000    3.000    8.400    1.600 
#    3.600    0.000    0.000    2.400    0.000    0.000 
#   24.000    0.000    0.000    0.000    0.000    0.000 
#
# Total GULP energy -111608.849429 kJ/mol
# GULP energy per Si atom -5580.442471 kJ/mol
# Density = 2.557819 g / cm^3
# Si number density = 25.636543 Si / 1000 Ang^3
#
#
#
# Elastic Constant Matrix: (Units=GPa)
#
#
# Indices 1 2 3 4 5 6 
#
# 1 110.7059 89.2388 38.8951 -0.0001 0.0001 0.0000
# 2 89.2388 219.5918 41.8152 0.0002 0.0000 0.0000
# 3 38.8951 41.8152 81.5315 0.0005 0.0000 0.0000
# 4 -0.0001 0.0002 0.0005 48.7061 0.0000 0.0000
# 5 0.0001 0.0000 0.0000 0.0000 -34.0162 0.0000
# 6 0.0000 0.0000 0.0000 0.0000 0.0000 58.8921
#
#
#
# Elastic Compliance Matrix: (Units=1/GPa)
#
#
# Indices 1 2 3 4 5 6 
#
# 1 0.014723 -0.005149 -0.004383 0.000000 0.000000 0.000000
# 2 -0.005149 0.006847 -0.001056 0.000000 0.000000 0.000000
# 3 -0.004383 -0.001056 0.014898 0.000000 0.000000 0.000000
# 4 0.000000 0.000000 0.000000 0.020531 0.000000 0.000000
# 5 0.000000 0.000000 0.000000 0.000000 -0.029398 0.000000
# 6 0.000000 0.000000 0.000000 0.000000 0.000000 0.016980
#
#
# Mechanical properties :
#
#
# Convention : Reuss Voigt Hill
#
# Bulk Modulus (GPa) = 65.38843 83.52527 74.45685
# Shear Modulus (GPa) = 70.56734 30.84173 50.70453
#
# Velocity S-wave (km/s) = 5.25222 3.47225 4.45210
# Velocity P-wave (km/s) = 7.89572 6.98044 7.45215
#
# Compressibility (1/GPa) = 0.01529323
#
# Stress axis : x y z
#
# Youngs Moduli (GPa) = 67.92014 146.04446 67.12494
#
# Poissons Ratio (x) = 0.75193 0.29422
# Poissons Ratio (y) = 0.34969 0.07086
# Poissons Ratio (z) = 0.29771 0.15416
#
# Static dielectric constant tensor:
#      x y z
#    x 2.068620 0.000000 0.000000 
#    y 0.000000 2.392900 0.000000 
#    z 0.000000 0.000000 2.179620 
# 
# From -- ./inp_files/14461.got.cif
#   From: 2010.05.17/outbox.cif.g08.bks.cpg/sg23_8_cif.got.tgz:14461.got - 2010.06.04 12:02:01.
