data_PCOD9330872
_publ_section_title
;
Structure prediction by ZEFSAII (Michael W. Deem and Ramdas Pophale) SiO2 
 PCOD9330872
Probable space group: I 2 2 2
;
_chemical_formula_sum "Si O2"
_cell_formula_units_Z 48
_cell_length_a 9.916297
_cell_length_b 11.770800
_cell_length_c 20.992671
_cell_angle_alpha 90.000000
_cell_angle_beta 90.000000
_cell_angle_gamma 90.000000
_cell_volume 2450.322262
_symmetry_space_group_name_H-M "I 2 2 2"
_symmetry_group_IT_number 23
_symmetry_cell_setting 'orthorhombic'
loop_
_space_group_symop_operation_xyz
x,y,z
-x,-y,z
x,-y,-z
-x,y,-z
1/2+x,1/2+y,1/2+z
1/2-x,1/2-y,1/2+z
1/2+x,1/2-y,1/2-z
1/2-x,1/2+y,1/2-z
loop_
_atom_site_type_symbol
_atom_site_label
_atom_site_fract_x
_atom_site_fract_y
_atom_site_fract_z
Si Si1 0.795549 0.607150 0.388698
Si Si2 0.413833 0.114898 0.446309
Si Si3 0.342417 0.709183 0.000496
Si Si4 0.755106 0.352847 0.381815
Si Si5 0.964527 0.215588 0.162621
Si Si6 0.521208 0.128650 0.781409
O O1 0.815262 0.688424 0.449193
O O2 0.790493 0.476492 0.409902
O O3 0.660088 0.630742 0.347624
O O4 0.916842 0.631392 0.340054
O O5 0.500000 0.182714 0.500000
O O6 0.262837 0.115012 0.473791
O O7 0.418075 0.178164 0.380226
O O8 0.500000 0.000000 0.438624
O O9 0.500000 0.677755 0.000000
O O10 0.302795 0.755621 0.930654
O O11 0.598433 0.337118 0.367317
O O12 0.834458 0.353521 0.314778
O O13 0.995866 0.270548 0.230947
O O14 0.500000 0.000000 0.754207
#
# Coordination Sequence:
#
# PCOD9330872 Si02
#       6
#     8   8   8   8   8   8
#     4  10  22  35  58  90 122 151 192 245 292 351
#     4  10  21  39  60  86 114 150 198 242 288 338
#     4  11  21  38  63  90 118 153 191 238 298 352
#     4  11  21  36  58  89 120 153 193 241 298 345
#     4  11  21  37  58  83 116 160 198 240 288 349
#     4  10  21  37  57  84 115 157 198 239 295 348
#
# _framework density 19.589261
#
# number of rings (size 3 to 8) (size 9 to 14) (size 15 to 20)
#    0.000    1.500    3.333    2.500    0.000    0.667 
#    0.000    3.333    0.000    0.000    0.000    0.000 
#    0.000    0.000    0.000    0.000    0.000    0.000 
#
# Total GULP energy -133804.279084 kJ/mol
# GULP energy per Si atom -5575.178295 kJ/mol
# Density = 1.954467 g / cm^3
# Si number density = 19.589261 Si / 1000 Ang^3
#
#
#
# Elastic Constant Matrix: (Units=GPa)
#
#
# Indices 1 2 3 4 5 6 
#
# 1 134.5060 13.4850 -2.7634 0.0000 0.0000 0.0000
# 2 13.4850 55.1171 12.6743 0.0000 0.0000 0.0000
# 3 -2.7634 12.6743 36.7903 0.0000 0.0000 0.0000
# 4 0.0000 0.0000 0.0000 22.6418 0.0000 0.0000
# 5 0.0000 0.0000 0.0000 0.0000 19.9353 0.0000
# 6 0.0000 0.0000 0.0000 0.0000 0.0000 22.7199
#
#
#
# Elastic Compliance Matrix: (Units=1/GPa)
#
#
# Indices 1 2 3 4 5 6 
#
# 1 0.007681 -0.002185 0.001330 0.000000 0.000000 0.000000
# 2 -0.002185 0.020326 -0.007166 0.000000 0.000000 0.000000
# 3 0.001330 -0.007166 0.029750 0.000000 0.000000 0.000000
# 4 0.000000 0.000000 0.000000 0.044166 0.000000 0.000000
# 5 0.000000 0.000000 0.000000 0.000000 0.050162 0.000000
# 6 0.000000 0.000000 0.000000 0.000000 0.000000 0.044014
#
#
# Mechanical properties :
#
#
# Convention : Reuss Voigt Hill
#
# Bulk Modulus (GPa) = 23.97330 30.35614 27.16472
# Shear Modulus (GPa) = 22.11930 26.59389 24.35660
#
# Velocity S-wave (km/s) = 3.36394 3.68853 3.52996
# Velocity P-wave (km/s) = 5.22997 5.80261 5.52372
#
# Compressibility (1/GPa) = 0.04171307
#
# Stress axis : x y z
#
# Youngs Moduli (GPa) = 130.19160 49.19878 33.61375
#
# Poissons Ratio (x) = 0.10750 -0.04470
# Poissons Ratio (y) = 0.28447 0.24089
# Poissons Ratio (z) = -0.17311 0.35258
#
# Static dielectric constant tensor:
#      x y z
#    x 1.695820 0.000000 0.000000 
#    y 0.000000 1.723130 0.000000 
#    z 0.000000 0.000000 1.695430 
# 
# From -- ./inp_files/12581.got.cif
#   From: 2010.05.17/outbox.cif.g08.bks.cpg/sg23_7_cif.got.tgz:12581.got - 2010.06.04 12:02:01.
