data_PCOD9330527
_publ_section_title
;
Structure prediction by ZEFSAII (Michael W. Deem and Ramdas Pophale) SiO2 
 PCOD9330527
Probable space group: I 2 2 2
;
_chemical_formula_sum "Si O2"
_cell_formula_units_Z 24
_cell_length_a 5.167448
_cell_length_b 16.878568
_cell_length_c 11.424567
_cell_angle_alpha 90.000000
_cell_angle_beta 90.000000
_cell_angle_gamma 90.000000
_cell_volume 996.440708
_symmetry_space_group_name_H-M "I 2 2 2"
_symmetry_group_IT_number 23
_symmetry_cell_setting 'orthorhombic'
loop_
_space_group_symop_operation_xyz
x,y,z
-x,-y,z
x,-y,-z
-x,y,-z
1/2+x,1/2+y,1/2+z
1/2-x,1/2-y,1/2+z
1/2+x,1/2-y,1/2-z
1/2-x,1/2+y,1/2-z
loop_
_atom_site_type_symbol
_atom_site_label
_atom_site_fract_x
_atom_site_fract_y
_atom_site_fract_z
Si Si1 0.614375 0.585589 0.330656
Si Si2 0.655593 0.843789 0.615691
Si Si3 0.394877 0.183774 0.149621
O O1 0.500000 0.500000 0.360024
O O2 0.696928 0.589388 0.192432
O O3 0.377220 0.641402 0.360285
O O4 0.868015 0.626377 0.388406
O O5 0.500000 0.866998 0.500000
O O6 0.451827 0.809438 0.710996
O O7 0.852997 0.771083 0.599991
#
# Coordination Sequence:
#
# PCOD9330527 Si02
#       3
#     8   8   8
#     4  10  20  38  60  87 132 172 213 270 336 393
#     4  10  21  38  64  93 132 176 221 273 321 397
#     4  10  20  39  57  93 126 172 225 260 330 393
#
# _framework density 24.085728
#
# number of rings (size 3 to 8) (size 9 to 14) (size 15 to 20)
#    2.000    0.000    3.333    1.000    0.000    1.333 
#    0.000    5.000    0.000    1.000    0.000    9.333 
#    0.000    2.667    0.000    0.000    0.000    0.000 
#
# Total GULP energy -66903.419045 kJ/mol
# GULP energy per Si atom -5575.284920 kJ/mol
# Density = 2.403091 g / cm^3
# Si number density = 24.085728 Si / 1000 Ang^3
#
#
#
# Elastic Constant Matrix: (Units=GPa)
#
#
# Indices 1 2 3 4 5 6 
#
# 1 179.7374 30.4790 53.5379 0.0000 0.0000 0.0000
# 2 30.4790 76.0685 2.1946 0.0000 0.0000 0.0000
# 3 53.5379 2.1946 139.0439 0.0000 0.0000 0.0000
# 4 0.0000 0.0000 0.0000 -1.7871 0.0000 0.0000
# 5 0.0000 0.0000 0.0000 0.0000 50.9432 0.0000
# 6 0.0000 0.0000 0.0000 0.0000 0.0000 -0.3600
#
#
#
# Elastic Compliance Matrix: (Units=1/GPa)
#
#
# Indices 1 2 3 4 5 6 
#
# 1 0.006776 -0.002641 -0.002567 0.000000 0.000000 0.000000
# 2 -0.002641 0.014181 0.000793 0.000000 0.000000 0.000000
# 3 -0.002567 0.000793 0.008168 0.000000 0.000000 0.000000
# 4 0.000000 0.000000 0.000000 -0.559571 0.000000 -0.000002
# 5 0.000000 0.000000 0.000000 0.000000 0.019630 0.000000
# 6 0.000000 0.000000 0.000000 -0.000002 0.000000 -2.778022
#
#
# Mechanical properties :
#
#
# Convention : Reuss Voigt Hill
#
# Bulk Modulus (GPa) = 49.27362 63.03031 56.15196
# Shear Modulus (GPa) = -1.52754 30.33512 14.40379
#
# Velocity S-wave (km/s) = -0.79724 3.55274 2.44810
# Velocity P-wave (km/s) = 4.43335 6.56165 5.59955
#
# Compressibility (1/GPa) = 0.02029484
#
# Stress axis : x y z
#
# Youngs Moduli (GPa) = 147.57316 70.51505 122.42831
#
# Poissons Ratio (x) = 0.18623 0.31433
# Poissons Ratio (y) = 0.38975 -0.09710
# Poissons Ratio (z) = 0.37889 -0.05592
#
# Static dielectric constant tensor:
#      x y z
#    x 1.895240 0.000000 0.000000 
#    y 0.000000 1.954390 0.000000 
#    z 0.000000 0.000000 2.040380 
# 
# From -- ./inp_files/1116.got.cif
#   From: 2010.05.17/outbox.cif.g08.bks.cpg/sg23_1_cif.got.tgz:1116.got - 2010.06.04 12:02:01.
