data_PCOD9330236
_publ_section_title
;
Structure prediction by ZEFSAII (Michael W. Deem and Ramdas Pophale) SiO2 
 PCOD9330236
Probable space group: I 2 2 2
;
_chemical_formula_sum "Si O2"
_cell_formula_units_Z 40
_cell_length_a 8.510398
_cell_length_b 18.233468
_cell_length_c 11.554266
_cell_angle_alpha 90.000000
_cell_angle_beta 90.000000
_cell_angle_gamma 90.000000
_cell_volume 1792.922476
_symmetry_space_group_name_H-M "I 2 2 2"
_symmetry_group_IT_number 23
_symmetry_cell_setting 'orthorhombic'
loop_
_space_group_symop_operation_xyz
x,y,z
-x,-y,z
x,-y,-z
-x,y,-z
1/2+x,1/2+y,1/2+z
1/2-x,1/2-y,1/2+z
1/2+x,1/2-y,1/2-z
1/2-x,1/2+y,1/2-z
loop_
_atom_site_type_symbol
_atom_site_label
_atom_site_fract_x
_atom_site_fract_y
_atom_site_fract_z
Si Si1 0.539861 0.289805 0.868308
Si Si2 0.998144 0.624116 0.635099
Si Si3 0.833282 0.463644 0.830449
Si Si4 0.308388 0.388827 0.782519
Si Si5 0.178380 0.676148 0.986606
O O1 0.465958 0.210428 0.847945
O O2 0.480563 0.351267 0.778513
O O3 0.724135 0.275793 0.894378
O O4 0.500000 0.316765 0.000000
O O5 0.820787 0.611907 0.681520
O O6 0.000000 0.607011 0.500000
O O7 0.120509 0.576831 0.710204
O O8 0.701929 0.526336 0.821527
O O9 0.803657 0.403038 0.926378
O O10 0.000000 0.500000 0.862745
O O11 0.233932 0.336413 0.882086
O O12 0.000000 0.699944 0.000000
#
# Coordination Sequence:
#
# PCOD9330236 Si02
#       5
#     8   8   8   8   8
#     4   9  22  38  55  90 127 160 208 269 329 379
#     4  10  21  37  59  87 128 171 222 259 318 400
#     4  10  20  33  58  89 117 160 212 259 317 388
#     4  10  21  35  59  87 123 162 208 274 322 380
#     4  11  19  35  61  89 118 156 207 268 329 393
#
# _framework density 22.309943000000001
#
# number of rings (size 3 to 8) (size 9 to 14) (size 15 to 20)
#    0.000    2.000    4.000    0.600    2.800    4.400 
#    0.000    3.000    0.000    0.000    0.000    5.600 
#    0.000    0.000    0.000    0.000    0.000    0.000 
#
# Total GULP energy -111423.564219 kJ/mol
# GULP energy per Si atom -5571.178211 kJ/mol
# Density = 2.225916 g / cm^3
# Si number density = 22.309943 Si / 1000 Ang^3
#
#
#
# Elastic Constant Matrix: (Units=GPa)
#
#
# Indices 1 2 3 4 5 6 
#
# 1 74.1793 9.8468 20.1980 0.0001 0.0000 0.0000
# 2 9.8468 70.8913 1.0174 0.0001 0.0000 0.0000
# 3 20.1980 1.0174 93.8233 0.0001 0.0000 0.0000
# 4 0.0001 0.0001 0.0001 29.6381 0.0000 0.0000
# 5 0.0000 0.0000 0.0000 0.0000 29.6336 0.0000
# 6 0.0000 0.0000 0.0000 0.0000 0.0000 33.9491
#
#
#
# Elastic Compliance Matrix: (Units=1/GPa)
#
#
# Indices 1 2 3 4 5 6 
#
# 1 0.014594 -0.001982 -0.003120 0.000000 0.000000 0.000000
# 2 -0.001982 0.014378 0.000271 0.000000 0.000000 0.000000
# 3 -0.003120 0.000271 0.011327 0.000000 0.000000 0.000000
# 4 0.000000 0.000000 0.000000 0.033740 0.000000 0.000000
# 5 0.000000 0.000000 0.000000 0.000000 0.033746 0.000000
# 6 0.000000 0.000000 0.000000 0.000000 0.000000 0.029456
#
#
# Mechanical properties :
#
#
# Convention : Reuss Voigt Hill
#
# Bulk Modulus (GPa) = 32.64241 33.44649 33.04445
# Shear Modulus (GPa) = 31.82388 32.49962 32.16175
#
# Velocity S-wave (km/s) = 3.78093 3.82086 3.80094
# Velocity P-wave (km/s) = 5.80720 5.87278 5.84008
#
# Compressibility (1/GPa) = 0.03063500
#
# Stress axis : x y z
#
# Youngs Moduli (GPa) = 68.52333 69.55290 88.28390
#
# Poissons Ratio (x) = 0.13787 0.27546
# Poissons Ratio (y) = 0.13583 -0.02391
# Poissons Ratio (z) = 0.21380 -0.01884
#
# Static dielectric constant tensor:
#      x y z
#    x 2.262680 0.000000 0.000000 
#    y 0.000000 1.883660 0.000000 
#    z 0.000000 0.000000 1.822310 
# 
# From -- ./inp_files/10716.got.cif
#   From: 2010.05.17/outbox.cif.g08.bks.cpg/sg23_6_cif.got.tgz:10716.got - 2010.06.04 12:02:01.
