data_PCOD9330113
_publ_section_title
;
Structure prediction by ZEFSAII (Michael W. Deem and Ramdas Pophale) SiO2 
 PCOD9330113
Probable space group: I 2 2 2
;
_chemical_formula_sum "Si O2"
_cell_formula_units_Z 44
_cell_length_a 8.399872
_cell_length_b 16.291134
_cell_length_c 14.888173
_cell_angle_alpha 90.000000
_cell_angle_beta 90.000000
_cell_angle_gamma 90.000000
_cell_volume 2037.348814
_symmetry_space_group_name_H-M "I 2 2 2"
_symmetry_group_IT_number 23
_symmetry_cell_setting 'orthorhombic'
loop_
_space_group_symop_operation_xyz
x,y,z
-x,-y,z
x,-y,-z
-x,y,-z
1/2+x,1/2+y,1/2+z
1/2-x,1/2-y,1/2+z
1/2+x,1/2-y,1/2-z
1/2-x,1/2+y,1/2-z
loop_
_atom_site_type_symbol
_atom_site_label
_atom_site_fract_x
_atom_site_fract_y
_atom_site_fract_z
Si Si1 0.908540 0.293787 0.905864
Si Si2 0.576001 0.151090 0.089095
Si Si3 0.189573 0.091879 0.506418
Si Si4 0.271319 0.623973 0.356455
Si Si5 0.762042 0.696487 0.831808
Si Si6 0.270027 0.500000 0.500000
O O1 0.824285 0.206461 0.906506
O O2 0.045358 0.294490 0.830102
O O3 0.770862 0.362445 0.908820
O O4 0.000000 0.302352 0.000000
O O5 0.420522 0.116679 0.139359
O O6 0.679975 0.215487 0.146176
O O7 0.500000 0.194505 0.000000
O O8 0.672758 0.073431 0.049612
O O9 0.232694 0.141096 0.417734
O O10 0.000000 0.089138 0.500000
O O11 0.254096 0.000000 0.500000
O O12 0.306279 0.647326 0.253489
O O13 0.344527 0.549953 0.415413
#
# Coordination Sequence:
#
# PCOD9330113 Si02
#       6
#     8   8   8   8   8   4
#     4  10  21  37  60  90 120 163 199 252 312 368
#     4  10  19  38  64  85 116 168 205 252 308 380
#     4  10  21  40  62  82 120 163 199 242 311 375
#     4  11  21  38  61  90 122 158 211 252 311 369
#     4  11  22  37  59  94 122 156 208 259 304 369
#     4  10  21  40  65  88 117 170 209 250 311 372
#
# _framework density 21.596696000000001
#
# number of rings (size 3 to 8) (size 9 to 14) (size 15 to 20)
#    0.000    1.636    0.000    9.545    0.000    3.273 
#    9.818    4.091    8.000    0.000    0.000    0.000 
#    0.000    0.000    0.000    0.000    0.000    0.000 
#
# Total GULP energy -122542.933729 kJ/mol
# GULP energy per Si atom -5570.133351 kJ/mol
# Density = 2.154754 g / cm^3
# Si number density = 21.596696 Si / 1000 Ang^3
#
#
#
# Elastic Constant Matrix: (Units=GPa)
#
#
# Indices 1 2 3 4 5 6 
#
# 1 69.8082 40.6458 12.6976 0.0000 0.0000 0.0000
# 2 40.6458 143.4993 30.5719 0.0000 0.0000 0.0000
# 3 12.6976 30.5719 73.8885 0.0000 0.0000 0.0000
# 4 0.0000 0.0000 0.0000 32.0978 0.0000 0.0000
# 5 0.0000 0.0000 0.0000 0.0000 7.0140 0.0000
# 6 0.0000 0.0000 0.0000 0.0000 0.0000 114.9311
#
#
#
# Elastic Compliance Matrix: (Units=1/GPa)
#
#
# Indices 1 2 3 4 5 6 
#
# 1 0.017226 -0.004659 -0.001032 0.000000 0.000000 0.000000
# 2 -0.004659 0.008903 -0.002883 0.000000 0.000000 0.000000
# 3 -0.001032 -0.002883 0.014904 0.000000 0.000000 0.000000
# 4 0.000000 0.000000 0.000000 0.031155 0.000000 0.000000
# 5 0.000000 0.000000 0.000000 0.000000 0.142571 0.000000
# 6 0.000000 0.000000 0.000000 0.000000 0.000000 0.008701
#
#
# Mechanical properties :
#
#
# Convention : Reuss Voigt Hill
#
# Bulk Modulus (GPa) = 41.87005 50.55852 46.21428
# Shear Modulus (GPa) = 20.11515 44.36064 32.23790
#
# Velocity S-wave (km/s) = 3.05519 4.53708 3.86777
# Velocity P-wave (km/s) = 5.64579 7.13498 6.43362
#
# Compressibility (1/GPa) = 0.02388342
#
# Stress axis : x y z
#
# Youngs Moduli (GPa) = 58.05336 112.32756 67.09560
#
# Poissons Ratio (x) = 0.52335 0.06927
# Poissons Ratio (y) = 0.27048 0.19342
# Poissons Ratio (z) = 0.05994 0.32382
#
# Static dielectric constant tensor:
#      x y z
#    x 1.989010 0.000000 0.000000 
#    y 0.000000 1.763990 0.000000 
#    z 0.000000 0.000000 1.853880 
# 
# From -- ./inp_files/19950.got.cif
#   From: 2010.05.17/outbox.cif.g08.bks.cpg/sg23_10_cif.got.tgz:19950.got - 2010.06.04 12:02:01.
