data_PCOD9330813
_publ_section_title
;
Structure prediction by ZEFSAII (Michael W. Deem and Ramdas Pophale) SiO2 
 PCOD9330813
Probable space group: I 2 2 2
;
_chemical_formula_sum "Si O2"
_cell_formula_units_Z 48
_cell_length_a 13.911652
_cell_length_b 21.800010
_cell_length_c 7.440383
_cell_angle_alpha 90.000000
_cell_angle_beta 90.000000
_cell_angle_gamma 90.000000
_cell_volume 2256.475850
_symmetry_space_group_name_H-M "I 2 2 2"
_symmetry_group_IT_number 23
_symmetry_cell_setting 'orthorhombic'
loop_
_space_group_symop_operation_xyz
x,y,z
-x,-y,z
x,-y,-z
-x,y,-z
1/2+x,1/2+y,1/2+z
1/2-x,1/2-y,1/2+z
1/2+x,1/2-y,1/2-z
1/2-x,1/2+y,1/2-z
loop_
_atom_site_type_symbol
_atom_site_label
_atom_site_fract_x
_atom_site_fract_y
_atom_site_fract_z
Si Si1 0.915227 0.672358 0.389917
Si Si2 0.888735 0.004719 0.219212
Si Si3 0.219839 0.125768 0.836086
Si Si4 0.225877 0.778340 0.451313
Si Si5 0.066442 0.224155 0.158564
Si Si6 0.819847 0.875256 0.266504
O O1 0.835707 0.626374 0.313925
O O2 0.848643 0.725460 0.486893
O O3 0.973081 0.715195 0.251351
O O4 0.000000 0.641336 0.500000
O O5 0.834063 0.946501 0.304369
O O6 0.835665 0.068848 0.249766
O O7 0.000000 0.000000 0.273669
O O8 0.887794 0.000000 0.000000
O O9 0.188764 0.186459 0.726347
O O10 0.204230 0.125807 0.052066
O O11 0.327902 0.748142 0.402429
O O12 0.242249 0.832162 0.600960
O O13 0.081416 0.164010 0.279164
O O14 0.000000 0.204034 0.000000
#
# Coordination Sequence:
#
# PCOD9330813 Si02
#       6
#     8   8   8   8   8   8
#     4  10  22  34  55  88 115 152 193 234 282 347
#     4   9  20  36  58  87 112 149 193 227 281 343
#     4  10  21  37  57  77 120 149 185 244 281 332
#     4  10  22  38  53  88 113 150 191 234 286 340
#     4  10  22  33  58  87 114 149 188 237 293 338
#     4  10  21  35  59  79 112 154 179 231 292 325
#
# _framework density 21.272107999999999
#
# number of rings (size 3 to 8) (size 9 to 14) (size 15 to 20)
#    0.000    2.167    1.667    0.000    9.333    2.000 
#    0.000    0.833    0.000    4.500    0.000    1.167 
#    0.000    0.000    0.000    0.000    0.000    0.000 
#
# Total GULP energy -133647.728084 kJ/mol
# GULP energy per Si atom -5568.655337 kJ/mol
# Density = 2.122369 g / cm^3
# Si number density = 21.272108 Si / 1000 Ang^3
#
#
#
# Elastic Constant Matrix: (Units=GPa)
#
#
# Indices 1 2 3 4 5 6 
#
# 1 59.8299 43.4248 1.1466 0.0000 0.0000 0.0000
# 2 43.4248 119.8160 8.9997 0.0000 0.0000 0.0000
# 3 1.1466 8.9997 60.1415 0.0001 0.0000 0.0000
# 4 0.0000 0.0000 0.0001 21.0020 0.0000 0.0000
# 5 0.0000 0.0000 0.0000 0.0000 23.1232 0.0000
# 6 0.0000 0.0000 0.0000 0.0000 0.0000 18.8511
#
#
#
# Elastic Compliance Matrix: (Units=1/GPa)
#
#
# Indices 1 2 3 4 5 6 
#
# 1 0.022719 -0.008295 0.000808 0.000000 0.000000 0.000000
# 2 -0.008295 0.011469 -0.001558 0.000000 0.000000 0.000000
# 3 0.000808 -0.001558 0.016845 0.000000 0.000000 0.000000
# 4 0.000000 0.000000 0.000000 0.047614 0.000000 0.000000
# 5 0.000000 0.000000 0.000000 0.000000 0.043247 0.000000
# 6 0.000000 0.000000 0.000000 0.000000 0.000000 0.053047
#
#
# Mechanical properties :
#
#
# Convention : Reuss Voigt Hill
#
# Bulk Modulus (GPa) = 30.35452 38.54772 34.45112
# Shear Modulus (GPa) = 22.32017 25.00970 23.66493
#
# Velocity S-wave (km/s) = 3.24276 3.43257 3.33901
# Velocity P-wave (km/s) = 5.32177 5.81985 5.57637
#
# Compressibility (1/GPa) = 0.03294403
#
# Stress axis : x y z
#
# Youngs Moduli (GPa) = 44.01621 87.18846 59.36402
#
# Poissons Ratio (x) = 0.72320 -0.04797
# Poissons Ratio (y) = 0.36510 0.09250
# Poissons Ratio (z) = -0.03557 0.13585
#
# Static dielectric constant tensor:
#      x y z
#    x 1.772230 0.000000 0.000000 
#    y 0.000000 1.792650 0.000000 
#    z 0.000000 0.000000 1.941150 
# 
# From -- ./inp_files/8673.got.cif
#   From: 2010.05.17/outbox.cif.g08.bks.cpg/sg23_5_cif.got.tgz:8673.got - 2010.06.04 12:02:01.
