data_PCOD9330289
_publ_section_title
;
Structure prediction by ZEFSAII (Michael W. Deem and Ramdas Pophale) SiO2 
 PCOD9330289
Probable space group: I 2 2 2
;
_chemical_formula_sum "Si O2"
_cell_formula_units_Z 48
_cell_length_a 8.158237
_cell_length_b 9.370344
_cell_length_c 28.607864
_cell_angle_alpha 90.000000
_cell_angle_beta 90.000000
_cell_angle_gamma 90.000000
_cell_volume 2186.942099
_symmetry_space_group_name_H-M "I 2 2 2"
_symmetry_group_IT_number 23
_symmetry_cell_setting 'orthorhombic'
loop_
_space_group_symop_operation_xyz
x,y,z
-x,-y,z
x,-y,-z
-x,y,-z
1/2+x,1/2+y,1/2+z
1/2-x,1/2-y,1/2+z
1/2+x,1/2-y,1/2-z
1/2-x,1/2+y,1/2-z
loop_
_atom_site_type_symbol
_atom_site_label
_atom_site_fract_x
_atom_site_fract_y
_atom_site_fract_z
Si Si1 0.175773 0.082506 0.456702
Si Si2 0.814934 0.940866 0.351914
Si Si3 0.685314 0.698592 0.293588
Si Si4 0.307176 0.969448 0.855405
Si Si5 0.179209 0.424111 0.455152
Si Si6 0.184534 0.289924 0.190440
O O1 0.161661 0.253958 0.463451
O O2 0.259782 0.000000 0.500000
O O3 0.247120 0.065738 0.405021
O O4 0.000000 0.000000 0.453538
O O5 0.701965 0.046285 0.322891
O O6 0.805642 0.789378 0.326838
O O7 0.000000 0.000000 0.350382
O O8 0.717139 0.538394 0.310789
O O9 0.725689 0.726887 0.240003
O O10 0.501559 0.743196 0.304452
O O11 0.270631 0.802385 0.850380
O O12 0.500000 0.000000 0.851281
O O13 0.246475 0.037498 0.904403
O O14 0.261223 0.500000 0.500000
O O15 0.000000 0.500000 0.452264
#
# Coordination Sequence:
#
# PCOD9330289 Si02
#       6
#     8   8   8   8   8   8
#     4  10  20  34  61  95 132 164 212 265 316 375
#     4  11  23  40  65  96 129 166 215 265 316 376
#     4  12  24  46  61  96 127 167 220 257 327 382
#     4  11  23  40  65  96 129 166 215 265 316 376
#     4  10  20  34  61  95 132 164 212 265 316 375
#     4  12  26  40  69  88 129 173 208 271 317 386
#
# _framework density 21.948454999999999
#
# number of rings (size 3 to 8) (size 9 to 14) (size 15 to 20)
#    0.000    1.000    1.667    7.000    9.333    0.000 
#    0.000    0.000    0.000    6.000    0.000    0.000 
#    0.000    0.000    0.000    0.000    0.000    0.000 
#
# Total GULP energy -134102.721550 kJ/mol
# GULP energy per Si atom -5587.613398 kJ/mol
# Density = 2.189850 g / cm^3
# Si number density = 21.948455 Si / 1000 Ang^3
#
#
#
# Elastic Constant Matrix: (Units=GPa)
#
#
# Indices 1 2 3 4 5 6 
#
# 1 59.0012 5.4220 8.3183 0.0000 0.0000 0.0000
# 2 5.4220 104.0141 36.9870 0.0000 0.0000 0.0000
# 3 8.3183 36.9870 136.9383 0.0000 0.0000 0.0000
# 4 0.0000 0.0000 0.0000 30.1675 0.0000 0.0000
# 5 0.0000 0.0000 0.0000 0.0000 7.6551 0.0000
# 6 0.0000 0.0000 0.0000 0.0000 0.0000 29.7689
#
#
#
# Elastic Compliance Matrix: (Units=1/GPa)
#
#
# Indices 1 2 3 4 5 6 
#
# 1 0.017127 -0.000578 -0.000884 0.000000 0.000000 0.000000
# 2 -0.000578 0.010655 -0.002843 0.000000 0.000000 0.000000
# 3 -0.000884 -0.002843 0.008124 0.000000 0.000000 0.000000
# 4 0.000000 0.000000 0.000000 0.033148 0.000000 0.000000
# 5 0.000000 0.000000 0.000000 0.000000 0.130632 0.000000
# 6 0.000000 0.000000 0.000000 0.000000 0.000000 0.033592
#
#
# Mechanical properties :
#
#
# Convention : Reuss Voigt Hill
#
# Bulk Modulus (GPa) = 36.63652 44.60095 40.61873
# Shear Modulus (GPa) = 19.92132 30.13337 25.02734
#
# Velocity S-wave (km/s) = 3.01598 3.70931 3.38046
# Velocity P-wave (km/s) = 5.37182 6.22175 5.81234
#
# Compressibility (1/GPa) = 0.02729517
#
# Stress axis : x y z
#
# Youngs Moduli (GPa) = 58.38870 93.85159 123.09044
#
# Poissons Ratio (x) = 0.05428 0.10883
# Poissons Ratio (y) = 0.03377 0.34992
# Poissons Ratio (z) = 0.05162 0.26680
#
# Static dielectric constant tensor:
#      x y z
#    x 1.855580 0.000000 0.000000 
#    y 0.000000 1.785850 0.000000 
#    z 0.000000 0.000000 1.837430 
# 
# From -- ./inp_files/13376.got.cif
#   From: 2010.05.17/outbox.cif.g08.bks.cpg/sg23_7_cif.got.tgz:13376.got - 2010.06.04 12:02:01.
