data_PCOD9330232
_publ_section_title
;
Structure prediction by ZEFSAII (Michael W. Deem and Ramdas Pophale) SiO2 
 PCOD9330232
Probable space group: I 2 2 2
;
_chemical_formula_sum "Si O2"
_cell_formula_units_Z 34
_cell_length_a 15.281247
_cell_length_b 14.225430
_cell_length_c 8.671514
_cell_angle_alpha 90.000000
_cell_angle_beta 90.000000
_cell_angle_gamma 90.000000
_cell_volume 1885.033740
_symmetry_space_group_name_H-M "I 2 2 2"
_symmetry_group_IT_number 23
_symmetry_cell_setting 'orthorhombic'
loop_
_space_group_symop_operation_xyz
x,y,z
-x,-y,z
x,-y,-z
-x,y,-z
1/2+x,1/2+y,1/2+z
1/2-x,1/2-y,1/2+z
1/2+x,1/2-y,1/2-z
1/2-x,1/2+y,1/2-z
loop_
_atom_site_type_symbol
_atom_site_label
_atom_site_fract_x
_atom_site_fract_y
_atom_site_fract_z
Si Si1 0.649784 0.894291 0.331193
Si Si2 0.685380 0.393727 0.951463
Si Si3 0.736620 0.062397 0.140168
Si Si4 0.601755 0.796957 0.026632
Si Si5 0.000000 0.500000 0.000000
O O1 0.722078 0.871953 0.461382
O O2 0.561255 0.931108 0.404322
O O3 0.685829 0.984397 0.239145
O O4 0.629675 0.816872 0.203289
O O5 0.699390 0.392892 0.766741
O O6 0.660675 0.500000 0.000000
O O7 0.619909 0.312539 0.004617
O O8 0.667476 0.137735 0.073453
O O9 0.776318 0.000000 0.000000
O O10 0.500000 0.821547 0.000000
#
# Coordination Sequence:
#
# PCOD9330232 Si02
#       5
#     8   8   8   8   2
#     4  10  20  33  56  81 111 138 172 228 283 327
#     4  10  20  38  55  76 108 151 184 220 275 324
#     4   9  18  35  55  80 108 136 178 226 282 329
#     4  11  22  33  53  84 110 144 182 225 265 332
#     4  12  16  32  58  80 106 130 170 228 280 324
#
# _framework density 18.036811
#
# number of rings (size 3 to 8) (size 9 to 14) (size 15 to 20)
#    0.000    1.882    3.529    2.824    0.000    3.765 
#    0.000    0.000    0.000    0.000    0.000    0.000 
#    0.000    0.000    0.000    0.000    0.000    0.000 
#
# Total GULP energy -94716.086219 kJ/mol
# GULP energy per Si atom -5571.534483 kJ/mol
# Density = 1.799576 g / cm^3
# Si number density = 18.036811 Si / 1000 Ang^3
#
#
#
# Elastic Constant Matrix: (Units=GPa)
#
#
# Indices 1 2 3 4 5 6 
#
# 1 15.3746 13.0676 6.1820 0.0000 0.0000 0.0000
# 2 13.0676 71.1515 9.1337 0.0000 0.0000 0.0000
# 3 6.1820 9.1337 85.5154 0.0000 0.0000 0.0000
# 4 0.0000 0.0000 0.0000 8.5684 0.0000 0.0000
# 5 0.0000 0.0000 0.0000 0.0000 -18.6593 0.0000
# 6 0.0000 0.0000 0.0000 0.0000 0.0000 19.0367
#
#
#
# Elastic Compliance Matrix: (Units=1/GPa)
#
#
# Indices 1 2 3 4 5 6 
#
# 1 0.078529 -0.013884 -0.004194 0.000000 0.000000 0.000000
# 2 -0.013884 0.016705 -0.000780 0.000000 0.000000 0.000000
# 3 -0.004194 -0.000780 0.012080 0.000000 0.000000 0.000000
# 4 0.000000 0.000000 0.000000 0.116707 0.000000 0.000000
# 5 0.000000 0.000000 0.000000 0.000000 -0.053593 0.000000
# 6 0.000000 0.000000 0.000000 0.000000 0.000000 0.052530
#
#
# Mechanical properties :
#
#
# Convention : Reuss Voigt Hill
#
# Bulk Modulus (GPa) = 14.36845 25.42313 19.89579
# Shear Modulus (GPa) = 17.61334 11.36638 14.48986
#
# Velocity S-wave (km/s) = 3.12833 2.51306 2.83742
# Velocity P-wave (km/s) = 4.58607 4.74830 4.66789
#
# Compressibility (1/GPa) = 0.06959693
#
# Stress axis : x y z
#
# Youngs Moduli (GPa) = 12.73409 59.86352 82.77902
#
# Poissons Ratio (x) = 0.83116 0.34718
# Poissons Ratio (y) = 0.17680 0.06461
# Poissons Ratio (z) = 0.05341 0.04672
#
# Static dielectric constant tensor:
#      x y z
#    x 1.605310 0.000000 0.000000 
#    y 0.000000 1.658590 0.000000 
#    z 0.000000 0.000000 1.642850 
# 
# From -- ./inp_files/7953.got.cif
#   From: 2010.05.17/outbox.cif.g08.bks.cpg/sg23_4_cif.got.tgz:7953.got - 2010.06.04 12:02:01.
