data_PCOD9330757
_publ_section_title
;
Structure prediction by ZEFSAII (Michael W. Deem and Ramdas Pophale) SiO2 
 PCOD9330757
Probable space group: I 2 2 2
;
_chemical_formula_sum "Si O2"
_cell_formula_units_Z 34
_cell_length_a 5.337431
_cell_length_b 12.550513
_cell_length_c 20.265185
_cell_angle_alpha 90.000000
_cell_angle_beta 90.000000
_cell_angle_gamma 90.000000
_cell_volume 1357.514022
_symmetry_space_group_name_H-M "I 2 2 2"
_symmetry_group_IT_number 23
_symmetry_cell_setting 'orthorhombic'
loop_
_space_group_symop_operation_xyz
x,y,z
-x,-y,z
x,-y,-z
-x,y,-z
1/2+x,1/2+y,1/2+z
1/2-x,1/2-y,1/2+z
1/2+x,1/2-y,1/2-z
1/2-x,1/2+y,1/2-z
loop_
_atom_site_type_symbol
_atom_site_label
_atom_site_fract_x
_atom_site_fract_y
_atom_site_fract_z
Si Si1 0.500000 0.500000 0.500000
Si Si2 0.000000 0.301960 0.500000
Si Si3 0.509573 0.681855 0.745152
Si Si4 0.500000 0.500000 0.850054
Si Si5 0.407356 0.653208 0.601463
Si Si6 0.866122 0.634960 0.067242
O O1 0.599934 0.585004 0.555930
O O2 0.162904 0.363428 0.444310
O O3 0.154858 0.217935 0.544171
O O4 0.268479 0.753405 0.765664
O O5 0.561856 0.597992 0.802568
O O6 0.423551 0.624086 0.677441
O O7 0.732692 0.459773 0.894019
O O8 0.450951 0.781102 0.603494
O O9 0.000000 0.604752 0.000000
#
# Coordination Sequence:
#
# PCOD9330757 Si02
#       6
#     2   4   8   4   8   8
#     4  12  22  42  76 112 158 208 256 344 424 482
#     4  10  20  44  76 106 156 202 258 350 396 472
#     4  12  28  52  81 117 170 219 280 343 410 515
#     4  12  25  51  84 117 165 230 268 346 440 484
#     4  11  23  45  73 116 160 211 271 338 405 496
#     4  10  22  47  75 110 157 200 272 344 401 489
#
# _framework density 25.045781999999999
#
# number of rings (size 3 to 8) (size 9 to 14) (size 15 to 20)
#    0.000    0.941    5.882    2.118    0.000    1.882 
#    8.471    8.235    0.000    0.000    0.000    0.000 
#    0.000    0.000    0.000    0.000    0.000    0.000 
#
# Total GULP energy -94853.936132 kJ/mol
# GULP energy per Si atom -5579.643302 kJ/mol
# Density = 2.498878 g / cm^3
# Si number density = 25.045782 Si / 1000 Ang^3
#
#
#
# Elastic Constant Matrix: (Units=GPa)
#
#
# Indices 1 2 3 4 5 6 
#
# 1 111.1521 68.1445 46.7828 0.0000 0.0000 0.0000
# 2 68.1445 143.3103 69.1362 0.0000 0.0000 0.0000
# 3 46.7828 69.1362 200.7445 0.0000 0.0000 0.0000
# 4 0.0000 0.0000 0.0000 -1.5306 0.0000 0.0000
# 5 0.0000 0.0000 0.0000 0.0000 45.5045 0.0000
# 6 0.0000 0.0000 0.0000 0.0000 0.0000 28.2918
#
#
#
# Elastic Compliance Matrix: (Units=1/GPa)
#
#
# Indices 1 2 3 4 5 6 
#
# 1 0.012888 -0.005612 -0.001071 0.000000 0.000000 0.000000
# 2 -0.005612 0.010812 -0.002416 0.000000 0.000000 0.000000
# 3 -0.001071 -0.002416 0.006063 0.000000 0.000000 0.000000
# 4 0.000000 0.000000 0.000000 -0.653359 0.000000 0.000000
# 5 0.000000 0.000000 0.000000 0.000000 0.021976 0.000000
# 6 0.000000 0.000000 0.000000 0.000000 0.000000 0.035346
#
#
# Mechanical properties :
#
#
# Convention : Reuss Voigt Hill
#
# Bulk Modulus (GPa) = 86.46010 91.48154 88.97082
# Shear Modulus (GPa) = -9.18740 32.52938 11.67099
#
# Velocity S-wave (km/s) = -1.91734 3.60779 2.16101
# Velocity P-wave (km/s) = 5.44923 7.34574 6.46738
#
# Compressibility (1/GPa) = 0.01156603
#
# Stress axis : x y z
#
# Youngs Moduli (GPa) = 77.59358 92.49341 164.93521
#
# Poissons Ratio (x) = 0.51903 0.17662
# Poissons Ratio (y) = 0.43542 0.39844
# Poissons Ratio (z) = 0.08309 0.22344
#
# Static dielectric constant tensor:
#      x y z
#    x 6.778070 0.000000 0.000000 
#    y 0.000000 2.063920 0.000000 
#    z 0.000000 0.000000 2.037670 
# 
# From -- ./inp_files/25613.got.cif
#   From: 2010.05.17/outbox.cif.g08.bks.cpg/sg23_13_cif.got.tgz:25613.got - 2010.06.04 12:02:01.
