data_PCOD9330494
_publ_section_title
;
Structure prediction by ZEFSAII (Michael W. Deem and Ramdas Pophale) SiO2 
 PCOD9330494
Probable space group: I 2 2 2
;
_chemical_formula_sum "Si O2"
_cell_formula_units_Z 34
_cell_length_a 13.921661
_cell_length_b 5.906089
_cell_length_c 18.877505
_cell_angle_alpha 90.000000
_cell_angle_beta 90.000000
_cell_angle_gamma 90.000000
_cell_volume 1552.156955
_symmetry_space_group_name_H-M "I 2 2 2"
_symmetry_group_IT_number 23
_symmetry_cell_setting 'orthorhombic'
loop_
_space_group_symop_operation_xyz
x,y,z
-x,-y,z
x,-y,-z
-x,y,-z
1/2+x,1/2+y,1/2+z
1/2-x,1/2-y,1/2+z
1/2+x,1/2-y,1/2-z
1/2-x,1/2+y,1/2-z
loop_
_atom_site_type_symbol
_atom_site_label
_atom_site_fract_x
_atom_site_fract_y
_atom_site_fract_z
Si Si1 0.156794 0.754396 0.526225
Si Si2 0.765189 0.385537 0.671557
Si Si3 0.500000 0.500000 0.500000
Si Si4 0.111847 0.546429 0.198911
Si Si5 0.331502 0.247786 0.575539
O O1 0.118699 0.500000 0.500000
O O2 0.174582 0.749582 0.610789
O O3 0.262788 0.764128 0.491731
O O4 0.113249 0.000000 0.500000
O O5 0.832437 0.416024 0.738952
O O6 0.663505 0.288765 0.699638
O O7 0.733236 0.609741 0.630342
O O8 0.429656 0.359341 0.550114
O O9 0.138511 0.468677 0.119756
O O10 0.000000 0.500000 0.209133
#
# Coordination Sequence:
#
# PCOD9330494 Si02
#       5
#     8   8   2   8   8
#     4  10  20  37  64  92 125 178 218 280 347 407
#     4  11  22  43  60  92 140 177 225 281 349 411
#     4  12  20  36  62 100 132 164 224 288 354 424
#     4  12  25  39  65  95 134 184 224 278 351 430
#     4  11  22  37  60  94 132 170 218 285 345 414
#
# _framework density 21.905003000000001
#
# number of rings (size 3 to 8) (size 9 to 14) (size 15 to 20)
#    0.000    0.941    8.235    1.412    0.000    0.000 
#    0.000    0.000    0.000    6.353    0.000    6.588 
#    0.000    0.000    0.000    0.000    0.000    0.000 
#
# Total GULP energy -94693.364727 kJ/mol
# GULP energy per Si atom -5570.197925 kJ/mol
# Density = 2.185515 g / cm^3
# Si number density = 21.905003 Si / 1000 Ang^3
#
#
#
# Elastic Constant Matrix: (Units=GPa)
#
#
# Indices 1 2 3 4 5 6 
#
# 1 76.7511 6.1052 10.7117 0.0000 0.0000 0.0000
# 2 6.1052 74.0162 3.0083 0.0000 0.0000 0.0000
# 3 10.7117 3.0083 103.5592 0.0000 0.0000 0.0000
# 4 0.0000 0.0000 0.0000 30.1530 0.0000 0.0000
# 5 0.0000 0.0000 0.0000 0.0000 7.0362 0.0000
# 6 0.0000 0.0000 0.0000 0.0000 0.0000 -2.1515
#
#
#
# Elastic Compliance Matrix: (Units=1/GPa)
#
#
# Indices 1 2 3 4 5 6 
#
# 1 0.013300 -0.001042 -0.001345 0.000000 0.000000 0.000000
# 2 -0.001042 0.013608 -0.000287 0.000000 0.000000 0.000000
# 3 -0.001345 -0.000287 0.009804 0.000000 0.000000 0.000000
# 4 0.000000 0.000000 0.000000 0.033164 0.000000 0.000000
# 5 0.000000 0.000000 0.000000 0.000000 0.142123 0.000000
# 6 0.000000 0.000000 0.000000 0.000000 0.000000 -0.464790
#
#
# Mechanical properties :
#
#
# Convention : Reuss Voigt Hill
#
# Bulk Modulus (GPa) = 31.88636 32.66412 32.27524
# Shear Modulus (GPa) = -21.09820 22.64095 0.77137
#
# Velocity S-wave (km/s) = -3.10686 3.21845 0.59406
# Velocity P-wave (km/s) = 1.31078 5.36240 3.90342
#
# Compressibility (1/GPa) = 0.03136137
#
# Stress axis : x y z
#
# Youngs Moduli (GPa) = 75.18906 73.48503 102.00101
#
# Poissons Ratio (x) = 0.07660 0.13723
# Poissons Ratio (y) = 0.07837 0.02932
# Poissons Ratio (z) = 0.10116 0.02113
#
# Static dielectric constant tensor:
#      x y z
#    x 1.728090 0.000000 0.000000 
#    y 0.000000 2.033550 0.000000 
#    z 0.000000 0.000000 1.755760 
# 
# From -- ./inp_files/2194.got.cif
#   From: 2010.05.17/outbox.cif.g08.bks.cpg/sg23_2_cif.got.tgz:2194.got - 2010.06.04 12:02:01.
