data_PCOD9330622
_publ_section_title
;
Structure prediction by ZEFSAII (Michael W. Deem and Ramdas Pophale) SiO2 
 PCOD9330622
Probable space group: I 2 2 2
;
_chemical_formula_sum "Si O2"
_cell_formula_units_Z 42
_cell_length_a 25.419874
_cell_length_b 7.565756
_cell_length_c 10.633363
_cell_angle_alpha 90.000000
_cell_angle_beta 90.000000
_cell_angle_gamma 90.000000
_cell_volume 2045.014372
_symmetry_space_group_name_H-M "I 2 2 2"
_symmetry_group_IT_number 23
_symmetry_cell_setting 'orthorhombic'
loop_
_space_group_symop_operation_xyz
x,y,z
-x,-y,z
x,-y,-z
-x,y,-z
1/2+x,1/2+y,1/2+z
1/2-x,1/2-y,1/2+z
1/2+x,1/2-y,1/2-z
1/2-x,1/2+y,1/2-z
loop_
_atom_site_type_symbol
_atom_site_label
_atom_site_fract_x
_atom_site_fract_y
_atom_site_fract_z
Si Si1 0.844407 0.532683 0.206598
Si Si2 0.000000 0.764095 0.000000
Si Si3 0.671740 0.205863 0.040058
Si Si4 0.581320 0.000000 0.500000
Si Si5 0.756899 0.500000 0.000000
Si Si6 0.081907 0.255438 0.644567
Si Si7 0.500000 0.500000 0.278221
Si Si8 0.000000 0.500000 0.500000
O O1 0.834536 0.680565 0.310927
O O2 0.876167 0.364260 0.266885
O O3 0.883354 0.599358 0.099077
O O4 0.792509 0.487187 0.126135
O O5 0.975838 0.866942 0.117382
O O6 0.043453 0.641116 0.063120
O O7 0.719897 0.327761 0.999241
O O8 0.619555 0.284153 0.974740
O O9 0.678588 0.000000 0.000000
O O10 0.046961 0.095297 0.701646
O O11 0.037896 0.387507 0.589895
#
# Coordination Sequence:
#
# PCOD9330622 Si02
#       8
#     8   4   8   4   4   8   4   2
#     4  10  22  44  68 102 136 184 236 291 349 434
#     4  10  22  36  60 100 134 186 236 280 342 418
#     4  10  24  47  69 104 139 182 233 308 350 433
#     4  10  20  39  66  88 136 191 224 278 350 422
#     4  11  26  43  80 102 136 191 240 287 380 410
#     4  11  24  44  68  97 146 177 242 285 365 418
#     4  11  24  39  64 100 144 183 231 300 342 438
#     4  12  24  42  68  98 128 206 220 272 358 444
#
# _framework density 20.537754
#
# number of rings (size 3 to 8) (size 9 to 14) (size 15 to 20)
#    0.000    1.524    4.762    0.000    8.000    3.429 
#    0.000    3.810    0.000    0.000    0.000    0.000 
#    0.000    0.000    0.000    0.000    0.000    0.000 
#
# Total GULP energy -116902.076672 kJ/mol
# GULP energy per Si atom -5566.765556 kJ/mol
# Density = 2.049101 g / cm^3
# Si number density = 20.537754 Si / 1000 Ang^3
#
#
#
# Elastic Constant Matrix: (Units=GPa)
#
#
# Indices 1 2 3 4 5 6 
#
# 1 151.6787 67.3814 69.4601 0.0000 0.0000 0.0000
# 2 67.3814 93.3398 42.2200 0.0000 0.0000 0.0000
# 3 69.4601 42.2200 117.4065 0.0000 0.0000 0.0000
# 4 0.0000 0.0000 0.0000 23.7871 0.0000 0.0000
# 5 0.0000 0.0000 0.0000 0.0000 -341.2692 0.0000
# 6 0.0000 0.0000 0.0000 0.0000 0.0000 35.0760
#
#
#
# Elastic Compliance Matrix: (Units=1/GPa)
#
#
# Indices 1 2 3 4 5 6 
#
# 1 0.011418 -0.006195 -0.004528 0.000000 0.000000 0.000000
# 2 -0.006195 0.016156 -0.002145 0.000000 0.000000 0.000000
# 3 -0.004528 -0.002145 0.011967 0.000000 0.000000 0.000000
# 4 0.000000 0.000000 0.000000 0.042040 0.000000 0.000000
# 5 0.000000 0.000000 0.000000 0.000000 -0.002930 0.000000
# 6 0.000000 0.000000 0.000000 0.000000 0.000000 0.028510
#
#
# Mechanical properties :
#
#
# Convention : Reuss Voigt Hill
#
# Bulk Modulus (GPa) = 72.42699 80.06088 76.24394
# Shear Modulus (GPa) = 36.36456 -44.25700 -3.94622
#
# Velocity S-wave (km/s) = 4.21244 -4.64714 -1.38767
# Velocity P-wave (km/s) = 7.68123 3.20506 5.88531
#
# Compressibility (1/GPa) = 0.01380701
#
# Stress axis : x y z
#
# Youngs Moduli (GPa) = 87.57937 61.89796 83.56131
#
# Poissons Ratio (x) = 0.38345 0.37833
# Poissons Ratio (y) = 0.54254 0.17921
# Poissons Ratio (z) = 0.39652 0.13275
#
# Static dielectric constant tensor:
#      x y z
#    x 1.723680 0.000000 0.000000 
#    y 0.000000 1.836560 0.000000 
#    z 0.000000 0.000000 1.845960 
# 
# From -- ./inp_files/18279.got.cif
#   From: 2010.05.17/outbox.cif.g08.bks.cpg/sg23_10_cif.got.tgz:18279.got - 2010.06.04 12:02:01.
