data_PCOD9330954
_publ_section_title
;
Structure prediction by ZEFSAII (Michael W. Deem and Ramdas Pophale) SiO2 
 PCOD9330954
Probable space group: I 2 2 2
;
_chemical_formula_sum "Si O2"
_cell_formula_units_Z 58
_cell_length_a 14.877938
_cell_length_b 24.005667
_cell_length_c 7.607289
_cell_angle_alpha 90.000000
_cell_angle_beta 90.000000
_cell_angle_gamma 90.000000
_cell_volume 2716.979974
_symmetry_space_group_name_H-M "I 2 2 2"
_symmetry_group_IT_number 23
_symmetry_cell_setting 'orthorhombic'
loop_
_space_group_symop_operation_xyz
x,y,z
-x,-y,z
x,-y,-z
-x,y,-z
1/2+x,1/2+y,1/2+z
1/2-x,1/2-y,1/2+z
1/2+x,1/2-y,1/2-z
1/2-x,1/2+y,1/2-z
loop_
_atom_site_type_symbol
_atom_site_label
_atom_site_fract_x
_atom_site_fract_y
_atom_site_fract_z
Si Si1 0.706456 0.383833 0.163042
Si Si2 0.723639 0.938436 0.984624
Si Si3 0.515754 0.360524 0.304931
Si Si4 0.499560 0.758432 0.212084
Si Si5 0.703542 0.771453 0.222553
Si Si6 0.358424 0.422408 0.185082
Si Si7 0.828909 0.322270 0.663131
Si Si8 0.000000 0.000000 0.500000
O O1 0.755403 0.417029 0.319192
O O2 0.600131 0.387398 0.208597
O O3 0.741560 0.320355 0.177896
O O4 0.712495 0.410431 0.970033
O O5 0.813146 0.942593 0.864221
O O6 0.676446 0.887644 0.880007
O O7 0.682278 0.000000 0.000000
O O8 0.500000 0.382673 0.500000
O O9 0.538904 0.295647 0.307389
O O10 0.419501 0.367451 0.212640
O O11 0.599829 0.767879 0.282695
O O12 0.427830 0.807445 0.231208
O O13 0.500000 0.746701 0.000000
O O14 0.755165 0.712332 0.225363
O O15 0.692074 0.793686 0.024841
O O16 0.433036 0.465419 0.121845
#
# Coordination Sequence:
#
# PCOD9330954 Si02
#       8
#     8   8   8   8   8   8   8   2
#     4  11  22  42  60  89 127 168 212 263 318 389
#     4  11  25  42  62  89 125 169 221 269 319 386
#     4  12  22  36  56  92 130 169 207 260 318 384
#     4  10  21  38  61  91 129 166 208 260 324 394
#     4  10  22  36  63  93 126 165 210 262 327 392
#     4  12  24  39  61  84 128 171 211 254 323 374
#     4  10  22  39  62  91 130 170 211 268 330 388
#     4  12  24  36  58  88 112 168 212 248 300 392
#
# _framework density 21.34723
#
# number of rings (size 3 to 8) (size 9 to 14) (size 15 to 20)
#    0.000    1.103    4.138    2.483    5.793    0.000 
#    0.000    0.000    0.000   10.345    0.000    0.000 
#    0.000   12.138    0.000    0.000    0.000    0.000 
#
# Total GULP energy -161888.248262 kJ/mol
# GULP energy per Si atom -5582.353388 kJ/mol
# Density = 2.129864 g / cm^3
# Si number density = 21.347230 Si / 1000 Ang^3
#
#
#
# Elastic Constant Matrix: (Units=GPa)
#
#
# Indices 1 2 3 4 5 6 
#
# 1 64.3332 13.8383 9.4372 0.0000 0.0002 0.0000
# 2 13.8383 110.1755 15.0668 0.0001 0.0002 0.0000
# 3 9.4372 15.0668 72.3064 0.0010 -0.0001 0.0008
# 4 0.0000 0.0001 0.0010 24.3246 0.0000 0.0001
# 5 0.0002 0.0002 -0.0001 0.0000 15.1878 0.0000
# 6 0.0000 0.0000 0.0008 0.0001 0.0000 28.5236
#
#
#
# Elastic Compliance Matrix: (Units=1/GPa)
#
#
# Indices 1 2 3 4 5 6 
#
# 1 0.016185 -0.001795 -0.001738 0.000000 0.000000 0.000000
# 2 -0.001795 0.009542 -0.001754 0.000000 0.000000 0.000000
# 3 -0.001738 -0.001754 0.014422 -0.000001 0.000000 0.000000
# 4 0.000000 0.000000 -0.000001 0.041111 0.000000 0.000000
# 5 0.000000 0.000000 0.000000 0.000000 0.065842 0.000000
# 6 0.000000 0.000000 0.000000 0.000000 0.000000 0.035059
#
#
# Mechanical properties :
#
#
# Convention : Reuss Voigt Hill
#
# Bulk Modulus (GPa) = 33.81308 35.94443 34.87875
# Shear Modulus (GPa) = 24.67987 27.50537 26.09262
#
# Velocity S-wave (km/s) = 3.40386 3.59343 3.49993
# Velocity P-wave (km/s) = 5.59663 5.83879 5.71899
#
# Compressibility (1/GPa) = 0.02957436
#
# Stress axis : x y z
#
# Youngs Moduli (GPa) = 61.78476 104.80237 69.33653
#
# Poissons Ratio (x) = 0.18814 0.12053
# Poissons Ratio (y) = 0.11091 0.12161
# Poissons Ratio (z) = 0.10741 0.18382
#
# Static dielectric constant tensor:
#      x y z
#    x 1.796970 0.000000 0.000000 
#    y 0.000000 1.846820 0.000000 
#    z 0.000000 0.000000 1.853140 
# 
# From -- ./inp_files/10327.got.cif
#   From: 2010.05.17/outbox.cif.g08.bks.cpg/sg23_6_cif.got.tgz:10327.got - 2010.06.04 12:02:01.
