data_PCOD9330538
_publ_section_title
;
Structure prediction by ZEFSAII (Michael W. Deem and Ramdas Pophale) SiO2 
 PCOD9330538
Probable space group: I 2 2 2
;
_chemical_formula_sum "Si O2"
_cell_formula_units_Z 64
_cell_length_a 18.723442
_cell_length_b 8.503596
_cell_length_c 19.156181
_cell_angle_alpha 90.000000
_cell_angle_beta 90.000000
_cell_angle_gamma 90.000000
_cell_volume 3049.981749
_symmetry_space_group_name_H-M "I 2 2 2"
_symmetry_group_IT_number 23
_symmetry_cell_setting 'orthorhombic'
loop_
_space_group_symop_operation_xyz
x,y,z
-x,-y,z
x,-y,-z
-x,y,-z
1/2+x,1/2+y,1/2+z
1/2-x,1/2-y,1/2+z
1/2+x,1/2-y,1/2-z
1/2-x,1/2+y,1/2-z
loop_
_atom_site_type_symbol
_atom_site_label
_atom_site_fract_x
_atom_site_fract_y
_atom_site_fract_z
Si Si1 0.394902 0.916740 0.197676
Si Si2 0.038931 0.750195 0.308498
Si Si3 0.715377 0.705739 0.719751
Si Si4 0.778303 0.347246 0.925537
Si Si5 0.832477 0.618321 0.445180
Si Si6 0.306038 0.798432 0.580252
Si Si7 0.607665 0.651634 0.044470
Si Si8 0.848888 0.135904 0.215169
O O1 0.455002 0.782014 0.187856
O O2 0.335304 0.837600 0.245550
O O3 0.363277 0.962323 0.122304
O O4 0.430909 0.080417 0.217962
O O5 0.067274 0.809463 0.383929
O O6 0.073899 0.862769 0.250990
O O7 0.714459 0.727998 0.636984
O O8 0.794552 0.739358 0.748414
O O9 0.686803 0.531479 0.731985
O O10 0.808535 0.516945 0.902821
O O11 0.693135 0.367509 0.939784
O O12 0.817161 0.293078 0.996591
O O13 0.796207 0.500000 0.500000
O O14 0.776194 0.741854 0.414736
O O15 0.893192 0.703210 0.490426
O O16 0.348665 0.689560 0.634141
O O17 0.584444 0.500000 0.000000
#
# Coordination Sequence:
#
# PCOD9330538 Si02
#       8
#     8   8   8   8   8   8   8   8
#     4  11  25  44  62  88 123 173 217 266 315 383
#     4  11  25  44  63  86 126 170 220 262 318 383
#     4  12  25  38  63  91 124 165 214 266 323 379
#     4  10  20  38  61  92 125 155 202 260 317 378
#     4  11  21  35  59  87 125 165 207 251 302 372
#     4  10  21  36  62  93 124 157 199 260 320 376
#     4  11  21  37  59  89 125 166 205 253 305 368
#     4  12  25  38  62  92 123 167 211 267 322 381
#
# _framework density 20.983733000000001
#
# number of rings (size 3 to 8) (size 9 to 14) (size 15 to 20)
#    0.000    1.000    6.250    2.250    5.250    1.000 
#    0.000    0.625    0.000    0.750    0.000    5.250 
#    0.000    0.000    0.000    0.000    0.000    0.000 
#
# Total GULP energy -178683.289039 kJ/mol
# GULP energy per Si atom -5583.852782 kJ/mol
# Density = 2.093597 g / cm^3
# Si number density = 20.983733 Si / 1000 Ang^3
#
#
#
# Elastic Constant Matrix: (Units=GPa)
#
#
# Indices 1 2 3 4 5 6 
#
# 1 42.7485 -1.8400 21.7583 0.0000 0.0000 0.0000
# 2 -1.8400 68.9860 8.4520 0.0000 0.0000 0.0000
# 3 21.7583 8.4520 90.4069 0.0000 0.0000 0.0000
# 4 0.0000 0.0000 0.0000 38.0735 0.0000 0.0000
# 5 0.0000 0.0000 0.0000 0.0000 9.7783 0.0000
# 6 0.0000 0.0000 0.0000 0.0000 0.0000 21.0166
#
#
#
# Elastic Compliance Matrix: (Units=1/GPa)
#
#
# Indices 1 2 3 4 5 6 
#
# 1 0.026816 0.001523 -0.006596 0.000000 0.000000 0.000000
# 2 0.001523 0.014750 -0.001746 0.000000 0.000000 0.000000
# 3 -0.006596 -0.001746 0.012812 0.000000 0.000000 0.000000
# 4 0.000000 0.000000 0.000000 0.026265 0.000000 0.000000
# 5 0.000000 0.000000 0.000000 0.000000 0.102267 0.000000
# 6 0.000000 0.000000 0.000000 0.000000 0.000000 0.047581
#
#
# Mechanical properties :
#
#
# Convention : Reuss Voigt Hill
#
# Bulk Modulus (GPa) = 24.54540 28.76465 26.65503
# Shear Modulus (GPa) = 19.40179 25.35843 22.38011
#
# Velocity S-wave (km/s) = 3.04404 3.48009 3.26934
# Velocity P-wave (km/s) = 4.90690 5.46680 5.19440
#
# Compressibility (1/GPa) = 0.04074082
#
# Stress axis : x y z
#
# Youngs Moduli (GPa) = 37.29180 67.79569 78.05308
#
# Poissons Ratio (x) = -0.10328 0.51485
# Poissons Ratio (y) = -0.05681 0.13625
# Poissons Ratio (z) = 0.24598 0.11834
#
# Static dielectric constant tensor:
#      x y z
#    x 1.741440 0.000000 0.000000 
#    y 0.000000 1.845800 0.000000 
#    z 0.000000 0.000000 1.766200 
# 
# From -- ./inp_files/25264.got.cif
#   From: 2010.05.17/outbox.cif.g08.bks.cpg/sg23_13_cif.got.tgz:25264.got - 2010.06.04 12:02:01.
