data_PCOD9330141
_publ_section_title
;
Structure prediction by ZEFSAII (Michael W. Deem and Ramdas Pophale) SiO2 
 PCOD9330141
Probable space group: I 2 2 2
;
_chemical_formula_sum "Si O2"
_cell_formula_units_Z 48
_cell_length_a 6.528066
_cell_length_b 14.153915
_cell_length_c 25.020896
_cell_angle_alpha 90.000000
_cell_angle_beta 90.000000
_cell_angle_gamma 90.000000
_cell_volume 2311.873024
_symmetry_space_group_name_H-M "I 2 2 2"
_symmetry_group_IT_number 23
_symmetry_cell_setting 'orthorhombic'
loop_
_space_group_symop_operation_xyz
x,y,z
-x,-y,z
x,-y,-z
-x,y,-z
1/2+x,1/2+y,1/2+z
1/2-x,1/2-y,1/2+z
1/2+x,1/2-y,1/2-z
1/2-x,1/2+y,1/2-z
loop_
_atom_site_type_symbol
_atom_site_label
_atom_site_fract_x
_atom_site_fract_y
_atom_site_fract_z
Si Si1 0.426607 0.292321 0.126598
Si Si2 0.132333 0.075772 0.298601
Si Si3 0.571108 0.814470 0.559200
Si Si4 0.307559 0.343893 0.384981
Si Si5 0.000000 0.500000 0.365362
Si Si6 0.184942 0.145452 0.189923
Si Si7 0.000000 0.500000 0.866669
O O1 0.491423 0.388983 0.153209
O O2 0.313283 0.296749 0.069762
O O3 0.632875 0.232080 0.128569
O O4 0.261546 0.243509 0.164975
O O5 0.184179 0.151900 0.253758
O O6 0.323055 0.029223 0.326152
O O7 0.000000 0.000000 0.266084
O O8 0.500000 0.838688 0.500000
O O9 0.451011 0.717018 0.574710
O O10 0.528895 0.905970 0.596870
O O11 0.165310 0.435608 0.397962
O O12 0.463138 0.371213 0.337220
O O13 0.145639 0.568681 0.329906
#
# Coordination Sequence:
#
# PCOD9330141 Si02
#       7
#     8   8   8   8   4   8   4
#     4  10  23  40  61  94 126 170 223 279 329 416
#     4  12  23  38  61  93 140 171 221 272 337 403
#     4  11  24  44  67  91 128 175 230 290 348 392
#     4  10  21  41  64  95 128 168 222 277 338 418
#     4  10  19  40  64  94 131 168 217 259 340 416
#     4  10  23  37  64  95 132 180 213 263 340 417
#     4  12  24  42  62  95 133 180 230 284 326 416
#
# _framework density 20.762384999999998
#
# number of rings (size 3 to 8) (size 9 to 14) (size 15 to 20)
#    0.000    1.333    3.333    2.250    2.333    2.000 
#    0.000    0.000    0.000   29.000    0.000    0.000 
#    0.000    0.000    0.000    0.000    0.000    0.000 
#
# Total GULP energy -133654.602222 kJ/mol
# GULP energy per Si atom -5568.941759 kJ/mol
# Density = 2.071513 g / cm^3
# Si number density = 20.762385 Si / 1000 Ang^3
#
#
#
# Elastic Constant Matrix: (Units=GPa)
#
#
# Indices 1 2 3 4 5 6 
#
# 1 128.0271 33.0273 36.4173 0.0000 0.0000 0.0000
# 2 33.0273 65.9297 12.8932 0.0000 0.0000 0.0000
# 3 36.4173 12.8932 80.9234 0.0000 0.0000 0.0000
# 4 0.0000 0.0000 0.0000 16.9910 0.0000 0.0000
# 5 0.0000 0.0000 0.0000 0.0000 13.9464 0.0000
# 6 0.0000 0.0000 0.0000 0.0000 0.0000 47.4940
#
#
#
# Elastic Compliance Matrix: (Units=1/GPa)
#
#
# Indices 1 2 3 4 5 6 
#
# 1 0.009997 -0.004261 -0.003820 0.000000 0.000000 0.000000
# 2 -0.004261 0.017471 -0.000866 0.000000 0.000000 0.000000
# 3 -0.003820 -0.000866 0.014214 0.000000 0.000000 0.000000
# 4 0.000000 0.000000 0.000000 0.058855 0.000000 0.000000
# 5 0.000000 0.000000 0.000000 0.000000 0.071703 0.000000
# 6 0.000000 0.000000 0.000000 0.000000 0.000000 0.021055
#
#
# Mechanical properties :
#
#
# Convention : Reuss Voigt Hill
#
# Bulk Modulus (GPa) = 42.03656 48.83952 45.43804
# Shear Modulus (GPa) = 22.81870 28.52244 25.67057
#
# Velocity S-wave (km/s) = 3.31877 3.71044 3.52006
# Velocity P-wave (km/s) = 5.91406 6.47539 6.20108
#
# Compressibility (1/GPa) = 0.02378882
#
# Stress axis : x y z
#
# Youngs Moduli (GPa) = 100.03463 57.23618 70.35134
#
# Poissons Ratio (x) = 0.24387 0.26873
# Poissons Ratio (y) = 0.42622 0.06094
# Poissons Ratio (z) = 0.38211 0.04958
#
# Static dielectric constant tensor:
#      x y z
#    x 1.852960 0.000000 0.000000 
#    y 0.000000 1.891940 0.000000 
#    z 0.000000 0.000000 1.712000 
# 
# From -- ./inp_files/2579.got.cif
#   From: 2010.05.17/outbox.cif.g08.bks.cpg/sg23_2_cif.got.tgz:2579.got - 2010.06.04 12:02:01.
