data_PCOD9330633
_publ_section_title
;
Structure prediction by ZEFSAII (Michael W. Deem and Ramdas Pophale) SiO2 
 PCOD9330633
Probable space group: I 2 2 2
;
_chemical_formula_sum "Si O2"
_cell_formula_units_Z 34
_cell_length_a 24.392201
_cell_length_b 4.846706
_cell_length_c 12.596592
_cell_angle_alpha 90.000000
_cell_angle_beta 90.000000
_cell_angle_gamma 90.000000
_cell_volume 1489.192119
_symmetry_space_group_name_H-M "I 2 2 2"
_symmetry_group_IT_number 23
_symmetry_cell_setting 'orthorhombic'
loop_
_space_group_symop_operation_xyz
x,y,z
-x,-y,z
x,-y,-z
-x,y,-z
1/2+x,1/2+y,1/2+z
1/2-x,1/2-y,1/2+z
1/2+x,1/2-y,1/2-z
1/2-x,1/2+y,1/2-z
loop_
_atom_site_type_symbol
_atom_site_label
_atom_site_fract_x
_atom_site_fract_y
_atom_site_fract_z
Si Si1 0.500000 0.000000 0.500000
Si Si2 0.946157 0.178968 0.321972
Si Si3 0.921856 0.696325 0.184919
Si Si4 0.713382 0.000000 0.000000
Si Si5 0.862111 0.000000 0.500000
Si Si6 0.815518 0.762201 0.072968
O O1 0.541351 0.850585 0.581275
O O2 0.942700 0.494427 0.280064
O O3 0.929787 0.010625 0.217700
O O4 0.900810 0.129781 0.410673
O O5 0.000000 0.000000 0.357583
O O6 0.857495 0.665778 0.161940
O O7 0.676278 0.748872 0.961409
O O8 0.755598 0.105590 0.908439
O O9 0.804760 0.500000 0.000000
O O10 0.843768 0.000000 0.000000
#
# Coordination Sequence:
#
# PCOD9330633 Si02
#       6
#     2   8   8   4   4   8
#     4  12  24  40  72 100 146 178 212 270 370 412
#     4  12  26  46  66 106 141 179 244 285 345 420
#     4  12  25  41  70 105 141 182 222 284 351 441
#     4  10  22  44  73  99 128 188 244 286 356 416
#     4  12  25  47  76  90 137 197 234 306 346 386
#     4  10  20  39  69  95 141 173 220 283 348 414
#
# _framework density 22.831171000000001
#
# number of rings (size 3 to 8) (size 9 to 14) (size 15 to 20)
#    0.706    0.000    4.706    3.176    0.000    0.941 
#    0.000    8.235    0.000    0.000    0.000    0.000 
#    0.000    0.000    0.000    0.000    0.000    0.000 
#
# Total GULP energy -94778.702948 kJ/mol
# GULP energy per Si atom -5575.217820 kJ/mol
# Density = 2.277921 g / cm^3
# Si number density = 22.831171 Si / 1000 Ang^3
#
#
#
# Elastic Constant Matrix: (Units=GPa)
#
#
# Indices 1 2 3 4 5 6 
#
# 1 150.8949 24.5257 26.6076 0.0000 0.0000 0.0000
# 2 24.5257 111.4165 0.0728 0.0000 0.0000 0.0000
# 3 26.6076 0.0728 50.0573 0.0000 0.0000 0.0000
# 4 0.0000 0.0000 0.0000 11.0884 0.0000 0.0000
# 5 0.0000 0.0000 0.0000 0.0000 15.0853 0.0000
# 6 0.0000 0.0000 0.0000 0.0000 0.0000 30.8166
#
#
#
# Elastic Compliance Matrix: (Units=1/GPa)
#
#
# Indices 1 2 3 4 5 6 
#
# 1 0.007612 -0.001673 -0.004044 0.000000 0.000000 0.000000
# 2 -0.001673 0.009343 0.000876 0.000000 0.000000 0.000000
# 3 -0.004044 0.000876 0.022125 0.000000 0.000000 0.000000
# 4 0.000000 0.000000 0.000000 0.090184 0.000000 0.000000
# 5 0.000000 0.000000 0.000000 0.000000 0.066290 0.000000
# 6 0.000000 0.000000 0.000000 0.000000 0.000000 0.032450
#
#
# Mechanical properties :
#
#
# Convention : Reuss Voigt Hill
#
# Bulk Modulus (GPa) = 34.01553 46.08676 40.05115
# Shear Modulus (GPa) = 20.20315 28.80889 24.50602
#
# Velocity S-wave (km/s) = 2.97794 3.55607 3.27977
# Velocity P-wave (km/s) = 5.17255 6.09020 5.65004
#
# Compressibility (1/GPa) = 0.02939833
#
# Stress axis : x y z
#
# Youngs Moduli (GPa) = 131.37001 107.03172 45.19719
#
# Poissons Ratio (x) = 0.17906 0.18277
# Poissons Ratio (y) = 0.21978 -0.03958
# Poissons Ratio (z) = 0.53122 -0.09373
#
# Static dielectric constant tensor:
#      x y z
#    x 1.928730 0.000000 0.000000 
#    y 0.000000 1.869430 0.000000 
#    z 0.000000 0.000000 1.829090 
# 
# From -- ./inp_files/22265.got.cif
#   From: 2010.05.17/outbox.cif.g08.bks.cpg/sg23_12_cif.got.tgz:22265.got - 2010.06.04 12:02:01.
