data_PCOD9330416
_publ_section_title
;
Structure prediction by ZEFSAII (Michael W. Deem and Ramdas Pophale) SiO2 
 PCOD9330416
Probable space group: I 2 2 2
;
_chemical_formula_sum "Si O2"
_cell_formula_units_Z 40
_cell_length_a 20.886317
_cell_length_b 11.276756
_cell_length_c 8.390332
_cell_angle_alpha 90.000000
_cell_angle_beta 90.000000
_cell_angle_gamma 90.000000
_cell_volume 1976.174062
_symmetry_space_group_name_H-M "I 2 2 2"
_symmetry_group_IT_number 23
_symmetry_cell_setting 'orthorhombic'
loop_
_space_group_symop_operation_xyz
x,y,z
-x,-y,z
x,-y,-z
-x,y,-z
1/2+x,1/2+y,1/2+z
1/2-x,1/2-y,1/2+z
1/2+x,1/2-y,1/2-z
1/2-x,1/2+y,1/2-z
loop_
_atom_site_type_symbol
_atom_site_label
_atom_site_fract_x
_atom_site_fract_y
_atom_site_fract_z
Si Si1 0.367069 0.329211 0.320935
Si Si2 0.375453 0.220298 0.673070
Si Si3 0.002782 0.861474 0.689882
Si Si4 0.296199 0.500000 0.500000
Si Si5 0.178305 0.500000 0.000000
Si Si6 0.754543 0.669050 0.745222
O O1 0.371630 0.280815 0.499873
O O2 0.435118 0.311268 0.245587
O O3 0.341606 0.461275 0.353390
O O4 0.310883 0.263676 0.229763
O O5 0.439202 0.277104 0.751321
O O6 0.364306 0.082193 0.620836
O O7 0.312908 0.264253 0.769443
O O8 0.000000 0.865684 0.500000
O O9 0.000000 0.000000 0.748469
O O10 0.252552 0.400651 0.579040
O O11 0.222839 0.583271 0.111287
#
# Coordination Sequence:
#
# PCOD9330416 Si02
#       6
#     8   8   8   4   4   8
#     4  10  21  38  58  84 118 158 203 245 297 367
#     4  10  22  39  62  89 123 166 208 253 310 373
#     4  11  24  39  60  91 124 159 205 263 318 372
#     4  10  20  36  61  86 117 156 192 248 302 354
#     4  10  22  40  63  92 127 164 206 260 312 372
#     4  10  21  37  61  91 119 157 203 248 304 370
#
# _framework density 20.241133999999999
#
# number of rings (size 3 to 8) (size 9 to 14) (size 15 to 20)
#    0.000    1.800    0.000    4.200    0.000   10.400 
#    0.000    8.000    0.000    4.800    0.000    0.000 
#    0.000    0.000    0.000    0.000    0.000    0.000 
#
# Total GULP energy -111451.537797 kJ/mol
# GULP energy per Si atom -5572.576890 kJ/mol
# Density = 2.019506 g / cm^3
# Si number density = 20.241134 Si / 1000 Ang^3
#
#
#
# Elastic Constant Matrix: (Units=GPa)
#
#
# Indices 1 2 3 4 5 6 
#
# 1 209.6361 74.5465 51.4686 0.0000 0.0000 0.0000
# 2 74.5465 104.6496 27.7437 0.0000 0.0000 0.0000
# 3 51.4686 27.7437 57.7610 0.0000 0.0000 0.0000
# 4 0.0000 0.0000 0.0000 26.1455 0.0000 0.0000
# 5 0.0000 0.0000 0.0000 0.0000 34.3031 0.0000
# 6 0.0000 0.0000 0.0000 0.0000 0.0000 17.5924
#
#
#
# Elastic Compliance Matrix: (Units=1/GPa)
#
#
# Indices 1 2 3 4 5 6 
#
# 1 0.007321 -0.003994 -0.004605 0.000000 0.000000 0.000000
# 2 -0.003994 0.013129 -0.002747 0.000000 0.000000 0.000000
# 3 -0.004605 -0.002747 0.022736 0.000000 0.000000 0.000000
# 4 0.000000 0.000000 0.000000 0.038248 0.000000 0.000000
# 5 0.000000 0.000000 0.000000 0.000000 0.029152 0.000000
# 6 0.000000 0.000000 0.000000 0.000000 0.000000 0.056843
#
#
# Mechanical properties :
#
#
# Convention : Reuss Voigt Hill
#
# Bulk Modulus (GPa) = 48.79678 75.50713 62.15196
# Shear Modulus (GPa) = 25.38689 30.16073 27.77381
#
# Velocity S-wave (km/s) = 3.54534 3.86433 3.70827
# Velocity P-wave (km/s) = 6.39682 7.56938 7.00767
#
# Compressibility (1/GPa) = 0.02049315
#
# Stress axis : x y z
#
# Youngs Moduli (GPa) = 136.59040 76.16542 43.98394
#
# Poissons Ratio (x) = 0.30423 0.20255
# Poissons Ratio (y) = 0.54559 0.12083
# Poissons Ratio (z) = 0.62900 0.20923
#
# Static dielectric constant tensor:
#      x y z
#    x 1.735410 0.000000 0.000000 
#    y 0.000000 1.891480 0.000000 
#    z 0.000000 0.000000 1.724930 
# 
# From -- ./inp_files/10767.got.cif
#   From: 2010.05.17/outbox.cif.g08.bks.cpg/sg23_6_cif.got.tgz:10767.got - 2010.06.04 12:02:01.
