data_PCOD9330686
_publ_section_title
;
Structure prediction by ZEFSAII (Michael W. Deem and Ramdas Pophale) SiO2 
 PCOD9330686
Probable space group: I 2 2 2
;
_chemical_formula_sum "Si O2"
_cell_formula_units_Z 34
_cell_length_a 9.287949
_cell_length_b 7.824647
_cell_length_c 18.798247
_cell_angle_alpha 90.000000
_cell_angle_beta 90.000000
_cell_angle_gamma 90.000000
_cell_volume 1366.161140
_symmetry_space_group_name_H-M "I 2 2 2"
_symmetry_group_IT_number 23
_symmetry_cell_setting 'orthorhombic'
loop_
_space_group_symop_operation_xyz
x,y,z
-x,-y,z
x,-y,-z
-x,y,-z
1/2+x,1/2+y,1/2+z
1/2-x,1/2-y,1/2+z
1/2+x,1/2-y,1/2-z
1/2-x,1/2+y,1/2-z
loop_
_atom_site_type_symbol
_atom_site_label
_atom_site_fract_x
_atom_site_fract_y
_atom_site_fract_z
Si Si1 0.500000 0.000000 0.000000
Si Si2 0.249007 0.565784 0.095803
Si Si3 0.000000 0.500000 0.000000
Si Si4 0.604572 0.159505 0.728888
Si Si5 0.500000 0.500000 0.658497
Si Si6 0.281922 0.161614 0.111248
Si Si7 0.000000 0.000000 0.500000
O O1 0.393820 0.898649 0.947322
O O2 0.237628 0.642658 0.173807
O O3 0.244816 0.360314 0.100920
O O4 0.393074 0.602896 0.052136
O O5 0.106637 0.609496 0.050133
O O6 0.530926 0.336742 0.708158
O O7 0.651866 0.148357 0.809777
O O8 0.500000 0.000000 0.712885
O O9 0.639062 0.546711 0.612141
#
# Coordination Sequence:
#
# PCOD9330686 Si02
#       7
#     2   8   2   8   4   8   2
#     4  12  30  48  76 114 174 208 278 334 408 482
#     4  11  23  47  75 110 152 206 250 321 388 468
#     4  10  20  40  72 100 144 188 250 298 376 462
#     4  12  25  51  78 112 154 200 264 325 390 471
#     4  12  28  46  86 118 148 212 260 334 406 478
#     4  12  27  49  75 113 159 211 260 337 396 471
#     4  10  26  44  80 118 154 208 258 320 408 462
#
# _framework density 24.887253000000001
#
# number of rings (size 3 to 8) (size 9 to 14) (size 15 to 20)
#    0.000    0.471    4.706    2.118    0.000   11.765 
#    0.000    0.000    0.000    0.000    0.000    0.000 
#    0.000    0.000    0.000    0.000    0.000    0.000 
#
# Total GULP energy -95394.116507 kJ/mol
# GULP energy per Si atom -5611.418618 kJ/mol
# Density = 2.483061 g / cm^3
# Si number density = 24.887253 Si / 1000 Ang^3
#
#
#
# Elastic Constant Matrix: (Units=GPa)
#
#
# Indices 1 2 3 4 5 6 
#
# 1 184.5827 60.9080 92.0159 0.0000 0.0000 0.0000
# 2 60.9080 148.8148 47.4929 0.0000 0.0000 0.0000
# 3 92.0159 47.4929 211.0058 0.0000 0.0000 0.0000
# 4 0.0000 0.0000 0.0000 25.5052 0.0000 0.0000
# 5 0.0000 0.0000 0.0000 0.0000 45.7215 0.0000
# 6 0.0000 0.0000 0.0000 0.0000 0.0000 32.2263
#
#
#
# Elastic Compliance Matrix: (Units=1/GPa)
#
#
# Indices 1 2 3 4 5 6 
#
# 1 0.007533 -0.002192 -0.002791 0.000000 0.000000 0.000000
# 2 -0.002192 0.007878 -0.000817 0.000000 0.000000 0.000000
# 3 -0.002791 -0.000817 0.006140 0.000000 0.000000 0.000000
# 4 0.000000 0.000000 0.000000 0.039208 0.000000 0.000000
# 5 0.000000 0.000000 0.000000 0.000000 0.021872 0.000000
# 6 0.000000 0.000000 0.000000 0.000000 0.000000 0.031031
#
#
# Mechanical properties :
#
#
# Convention : Reuss Voigt Hill
#
# Bulk Modulus (GPa) = 100.50942 105.02634 102.76788
# Shear Modulus (GPa) = 38.88684 43.62304 41.25494
#
# Velocity S-wave (km/s) = 3.95716 4.19122 4.07587
# Velocity P-wave (km/s) = 7.83278 8.10643 7.97078
#
# Compressibility (1/GPa) = 0.00994932
#
# Stress axis : x y z
#
# Youngs Moduli (GPa) = 132.75805 126.93962 162.85551
#
# Poissons Ratio (x) = 0.27827 0.45459
# Poissons Ratio (y) = 0.29102 0.13308
# Poissons Ratio (z) = 0.37058 0.10373
#
# Static dielectric constant tensor:
#      x y z
#    x 1.987940 0.000000 0.000000 
#    y 0.000000 1.975650 0.000000 
#    z 0.000000 0.000000 1.965680 
# 
# From -- ./inp_files/6776.got.cif
#   From: 2010.05.17/outbox.cif.g08.bks.cpg/sg23_4_cif.got.tgz:6776.got - 2010.06.04 12:02:01.
