data_PCOD9330432
_publ_section_title
;
Structure prediction by ZEFSAII (Michael W. Deem and Ramdas Pophale) SiO2 
 PCOD9330432
Probable space group: I 2 2 2
;
_chemical_formula_sum "Si O2"
_cell_formula_units_Z 52
_cell_length_a 13.757698
_cell_length_b 17.595524
_cell_length_c 10.203999
_cell_angle_alpha 90.000000
_cell_angle_beta 90.000000
_cell_angle_gamma 90.000000
_cell_volume 2470.121888
_symmetry_space_group_name_H-M "I 2 2 2"
_symmetry_group_IT_number 23
_symmetry_cell_setting 'orthorhombic'
loop_
_space_group_symop_operation_xyz
x,y,z
-x,-y,z
x,-y,-z
-x,y,-z
1/2+x,1/2+y,1/2+z
1/2-x,1/2-y,1/2+z
1/2+x,1/2-y,1/2-z
1/2-x,1/2+y,1/2-z
loop_
_atom_site_type_symbol
_atom_site_label
_atom_site_fract_x
_atom_site_fract_y
_atom_site_fract_z
Si Si1 0.000000 0.675235 0.500000
Si Si2 0.794880 0.278647 0.598216
Si Si3 0.214024 0.434425 0.254514
Si Si4 0.803822 0.819795 0.139938
Si Si5 0.891855 0.408549 0.006698
Si Si6 0.893231 0.027228 0.850312
Si Si7 0.121871 0.584767 0.305616
O O1 0.095939 0.722859 0.537705
O O2 0.030262 0.622216 0.376728
O O3 0.775017 0.363043 0.652473
O O4 0.794537 0.225233 0.725112
O O5 0.712430 0.266140 0.486616
O O6 0.180423 0.399524 0.115225
O O7 0.311357 0.486400 0.259827
O O8 0.131868 0.493870 0.305740
O O9 0.890105 0.880816 0.147938
O O10 0.713352 0.877741 0.123863
O O11 0.902922 0.500000 0.000000
O O12 0.862358 0.392242 0.154671
O O13 0.000000 0.374011 0.000000
O O14 0.000000 0.000000 0.811597
O O15 0.874735 0.000000 0.000000
#
# Coordination Sequence:
#
# PCOD9330432 Si02
#       7
#     4   8   8   8   8   8   8
#     4  10  22  39  62  94 129 164 212 268 327 418
#     4  11  23  41  60  95 128 173 211 265 351 408
#     4  10  20  36  66  91 126 170 212 266 343 391
#     4  10  23  41  63  89 131 170 217 277 339 404
#     4   9  17  31  52  88 126 155 194 251 316 392
#     4  10  20  42  68  98 124 170 248 297 324 390
#     4   9  20  37  59  91 120 163 211 263 315 392
#
# _framework density 21.051591999999999
#
# number of rings (size 3 to 8) (size 9 to 14) (size 15 to 20)
#    0.000    2.154    1.538    0.923    2.154    2.462 
#    5.538    0.000    3.385   10.615    0.000    0.000 
#    0.000    0.000    0.000    0.000    0.000    0.000 
#
# Total GULP energy -144855.513307 kJ/mol
# GULP energy per Si atom -5571.365896 kJ/mol
# Density = 2.100368 g / cm^3
# Si number density = 21.051592 Si / 1000 Ang^3
#
#
#
# Elastic Constant Matrix: (Units=GPa)
#
#
# Indices 1 2 3 4 5 6 
#
# 1 79.6447 11.0704 40.8923 0.0000 0.0000 0.0000
# 2 11.0704 89.8714 49.2428 0.0000 0.0000 0.0000
# 3 40.8923 49.2428 157.3220 0.0000 0.0000 0.0000
# 4 0.0000 0.0000 0.0000 37.3371 0.0000 0.0000
# 5 0.0000 0.0000 0.0000 0.0000 32.2656 0.0000
# 6 0.0000 0.0000 0.0000 0.0000 0.0000 12.8184
#
#
#
# Elastic Compliance Matrix: (Units=1/GPa)
#
#
# Indices 1 2 3 4 5 6 
#
# 1 0.014498 0.000337 -0.003874 0.000000 0.000000 0.000000
# 2 0.000337 0.013438 -0.004294 0.000000 0.000000 0.000000
# 3 -0.003874 -0.004294 0.008707 0.000000 0.000000 0.000000
# 4 0.000000 0.000000 0.000000 0.026783 0.000000 0.000000
# 5 0.000000 0.000000 0.000000 0.000000 0.030993 0.000000
# 6 0.000000 0.000000 0.000000 0.000000 0.000000 0.078013
#
#
# Mechanical properties :
#
#
# Convention : Reuss Voigt Hill
#
# Bulk Modulus (GPa) = 47.66068 58.80545 53.23306
# Shear Modulus (GPa) = 25.62954 31.52640 28.57797
#
# Velocity S-wave (km/s) = 3.49300 3.87405 3.68845
# Velocity P-wave (km/s) = 6.24157 6.92861 6.59404
#
# Compressibility (1/GPa) = 0.02098166
#
# Stress axis : x y z
#
# Youngs Moduli (GPa) = 68.97548 74.41476 114.84651
#
# Poissons Ratio (x) = -0.02506 0.44489
# Poissons Ratio (y) = -0.02322 0.49312
# Poissons Ratio (z) = 0.26720 0.31952
#
# Static dielectric constant tensor:
#      x y z
#    x 1.823980 0.000000 0.000000 
#    y 0.000000 1.800070 0.000000 
#    z 0.000000 0.000000 1.833650 
# 
# From -- ./inp_files/10159.got.cif
#   From: 2010.05.17/outbox.cif.g08.bks.cpg/sg23_6_cif.got.tgz:10159.got - 2010.06.04 12:02:01.
