data_PCOD9330057
_publ_section_title
;
Structure prediction by ZEFSAII (Michael W. Deem and Ramdas Pophale) SiO2 
 PCOD9330057
Probable space group: I 2 2 2
;
_chemical_formula_sum "Si O2"
_cell_formula_units_Z 60
_cell_length_a 22.164535
_cell_length_b 14.472171
_cell_length_c 9.393518
_cell_angle_alpha 90.000000
_cell_angle_beta 90.000000
_cell_angle_gamma 90.000000
_cell_volume 3013.148818
_symmetry_space_group_name_H-M "I 2 2 2"
_symmetry_group_IT_number 23
_symmetry_cell_setting 'orthorhombic'
loop_
_space_group_symop_operation_xyz
x,y,z
-x,-y,z
x,-y,-z
-x,y,-z
1/2+x,1/2+y,1/2+z
1/2-x,1/2-y,1/2+z
1/2+x,1/2-y,1/2-z
1/2-x,1/2+y,1/2-z
loop_
_atom_site_type_symbol
_atom_site_label
_atom_site_fract_x
_atom_site_fract_y
_atom_site_fract_z
Si Si1 0.301033 0.689048 0.073198
Si Si2 0.903850 0.244852 0.788902
Si Si3 0.754835 0.937945 0.180057
Si Si4 0.964495 0.407380 0.645149
Si Si5 0.565797 0.533003 0.664461
Si Si6 0.332036 0.593035 0.784789
Si Si7 0.684622 0.698563 0.484568
Si Si8 0.853215 0.500000 0.500000
O O1 0.325749 0.628762 0.943410
O O2 0.251376 0.759703 0.016151
O O3 0.356538 0.733697 0.158335
O O4 0.263184 0.627637 0.185137
O O5 0.952732 0.322779 0.751602
O O6 0.930954 0.143262 0.818287
O O7 0.861308 0.261329 0.926308
O O8 0.804943 0.897790 0.070152
O O9 0.771735 0.039880 0.233872
O O10 0.691230 0.942216 0.101639
O O11 0.898208 0.439905 0.595563
O O12 0.000000 0.500000 0.697120
O O13 0.000000 0.378880 0.500000
O O14 0.500000 0.500000 0.709938
O O15 0.573285 0.500000 0.500000
O O16 0.615442 0.481200 0.759812
O O17 0.339014 0.675912 0.671996
#
# Coordination Sequence:
#
# PCOD9330057 Si02
#       8
#     8   8   8   8   8   8   8   4
#     4  11  25  34  58  99 140 161 211 272 331 394
#     4  11  22  41  65  97 129 166 225 279 324 405
#     4  11  20  35  59  89 127 172 209 255 330 395
#     4   9  22  43  66  96 129 173 235 289 333 389
#     4  11  23  42  66  91 120 174 219 259 332 405
#     4  12  20  40  58  89 137 172 203 274 332 398
#     4  11  21  37  60  91 126 176 212 256 326 406
#     4  10  19  36  70  92 123 186 224 258 332 410
#
# _framework density 19.912724000000001
#
# number of rings (size 3 to 8) (size 9 to 14) (size 15 to 20)
#    0.000    1.333    5.333    2.800    1.867    1.067 
#    0.000    2.000    0.000    0.000    0.000    0.933 
#    0.000    0.000    0.000    0.000    0.000    0.000 
#
# Total GULP energy -167480.346301 kJ/mol
# GULP energy per Si atom -5582.678210 kJ/mol
# Density = 1.986740 g / cm^3
# Si number density = 19.912724 Si / 1000 Ang^3
#
#
#
# Elastic Constant Matrix: (Units=GPa)
#
#
# Indices 1 2 3 4 5 6 
#
# 1 100.1221 47.1063 31.1767 0.0000 0.0000 0.0000
# 2 47.1063 110.5763 47.3056 0.0000 0.0000 0.0000
# 3 31.1767 47.3056 84.1290 0.0000 0.0000 0.0000
# 4 0.0000 0.0000 0.0000 27.2095 0.0000 0.0000
# 5 0.0000 0.0000 0.0000 0.0000 19.5488 0.0000
# 6 0.0000 0.0000 0.0000 0.0000 0.0000 24.4000
#
#
#
# Elastic Compliance Matrix: (Units=1/GPa)
#
#
# Indices 1 2 3 4 5 6 
#
# 1 0.012796 -0.004506 -0.002208 0.000000 0.000000 0.000000
# 2 -0.004506 0.013495 -0.005918 0.000000 0.000000 0.000000
# 3 -0.002208 -0.005918 0.016033 0.000000 0.000000 0.000000
# 4 0.000000 0.000000 0.000000 0.036752 0.000000 0.000000
# 5 0.000000 0.000000 0.000000 0.000000 0.051154 0.000000
# 6 0.000000 0.000000 0.000000 0.000000 0.000000 0.040984
#
#
# Mechanical properties :
#
#
# Convention : Reuss Voigt Hill
#
# Bulk Modulus (GPa) = 58.62320 60.66717 59.64518
# Shear Modulus (GPa) = 24.73238 25.51424 25.12331
#
# Velocity S-wave (km/s) = 3.52808 3.58341 3.55585
# Velocity P-wave (km/s) = 6.78973 6.90317 6.84669
#
# Compressibility (1/GPa) = 0.01705809
#
# Stress axis : x y z
#
# Youngs Moduli (GPa) = 78.15234 74.10021 62.37312
#
# Poissons Ratio (x) = 0.33393 0.13771
# Poissons Ratio (y) = 0.35219 0.36914
# Poissons Ratio (z) = 0.17255 0.43855
#
# Static dielectric constant tensor:
#      x y z
#    x 1.704230 0.000000 0.000000 
#    y 0.000000 1.755250 0.000000 
#    z 0.000000 0.000000 1.726710 
# 
# From -- ./inp_files/12692.got.cif
#   From: 2010.05.17/outbox.cif.g08.bks.cpg/sg23_7_cif.got.tgz:12692.got - 2010.06.04 12:02:01.
