data_PCOD9330003
_publ_section_title
;
Structure prediction by ZEFSAII (Michael W. Deem and Ramdas Pophale) SiO2 
 PCOD9330003
Probable space group: I 2 2 2
;
_chemical_formula_sum "Si O2"
_cell_formula_units_Z 56
_cell_length_a 12.134185
_cell_length_b 19.086813
_cell_length_c 11.106932
_cell_angle_alpha 90.000000
_cell_angle_beta 90.000000
_cell_angle_gamma 90.000000
_cell_volume 2572.397883
_symmetry_space_group_name_H-M "I 2 2 2"
_symmetry_group_IT_number 23
_symmetry_cell_setting 'orthorhombic'
loop_
_space_group_symop_operation_xyz
x,y,z
-x,-y,z
x,-y,-z
-x,y,-z
1/2+x,1/2+y,1/2+z
1/2-x,1/2-y,1/2+z
1/2+x,1/2-y,1/2-z
1/2-x,1/2+y,1/2-z
loop_
_atom_site_type_symbol
_atom_site_label
_atom_site_fract_x
_atom_site_fract_y
_atom_site_fract_z
Si Si1 0.784444 0.487238 0.132436
Si Si2 0.440746 0.401814 0.878147
Si Si3 0.356742 0.597022 0.731090
Si Si4 0.327464 0.738083 0.077096
Si Si5 0.433730 0.906943 0.817899
Si Si6 0.833742 0.743893 0.702638
Si Si7 0.338289 0.096246 0.924131
O O1 0.677748 0.436755 0.130324
O O2 0.730193 0.560207 0.178131
O O3 0.874167 0.447388 0.211486
O O4 0.828449 0.500000 0.000000
O O5 0.519683 0.423336 0.767712
O O6 0.422652 0.318521 0.898992
O O7 0.500000 0.425415 0.000000
O O8 0.367183 0.680196 0.748243
O O9 0.288570 0.580677 0.609571
O O10 0.248083 0.720714 0.189803
O O11 0.707986 0.737364 0.065515
O O12 0.352328 0.819944 0.088778
O O13 0.416548 0.822238 0.806161
O O14 0.560659 0.927642 0.839430
O O15 0.367945 0.924733 0.940874
#
# Coordination Sequence:
#
# PCOD9330003 Si02
#       7
#     8   8   8   8   8   8   8
#     4  12  24  39  64 100 130 172 217 271 329 400
#     4  12  21  38  67  95 131 178 214 265 333 406
#     4  11  23  37  62  94 132 166 223 268 318 393
#     4  10  19  35  67  96 129 171 225 276 335 389
#     4  10  21  42  69  91 130 173 226 270 336 390
#     4  10  19  37  63  97 127 171 218 275 324 395
#     4   9  22  41  65  96 124 175 229 276 325 398
#
# _framework density 21.769570999999999
#
# number of rings (size 3 to 8) (size 9 to 14) (size 15 to 20)
#    0.000    1.429    4.286    1.286    2.000    1.143 
#    0.000    3.571    0.000    3.429    0.000    0.000 
#    0.000    0.000    0.000    0.000    0.000    0.000 
#
# Total GULP energy -155968.229621 kJ/mol
# GULP energy per Si atom -5570.293915 kJ/mol
# Density = 2.172002 g / cm^3
# Si number density = 21.769571 Si / 1000 Ang^3
#
#
#
# Elastic Constant Matrix: (Units=GPa)
#
#
# Indices 1 2 3 4 5 6 
#
# 1 81.9191 8.6751 66.5260 0.0000 0.0000 0.0000
# 2 8.6751 91.9328 12.7503 0.0000 0.0000 0.0000
# 3 66.5260 12.7503 100.9520 0.0000 0.0000 0.0000
# 4 0.0000 0.0000 0.0000 28.0507 0.0000 0.0000
# 5 0.0000 0.0000 0.0000 0.0000 31.6406 0.0000
# 6 0.0000 0.0000 0.0000 0.0000 0.0000 26.0972
#
#
#
# Elastic Compliance Matrix: (Units=1/GPa)
#
#
# Indices 1 2 3 4 5 6 
#
# 1 0.026262 -0.000079 -0.017296 0.000000 0.000000 0.000000
# 2 -0.000079 0.011072 -0.001346 0.000000 0.000000 0.000000
# 3 -0.017296 -0.001346 0.021474 0.000000 0.000000 0.000000
# 4 0.000000 0.000000 0.000000 0.035650 0.000000 0.000000
# 5 0.000000 0.000000 0.000000 0.000000 0.031605 0.000000
# 6 0.000000 0.000000 0.000000 0.000000 0.000000 0.038318
#
#
# Mechanical properties :
#
#
# Convention : Reuss Voigt Hill
#
# Bulk Modulus (GPa) = 46.80781 50.07854 48.44318
# Shear Modulus (GPa) = 23.92988 29.61454 26.77221
#
# Velocity S-wave (km/s) = 3.31907 3.69231 3.51065
# Velocity P-wave (km/s) = 6.01967 6.42117 6.22366
#
# Compressibility (1/GPa) = 0.02136396
#
# Stress axis : x y z
#
# Youngs Moduli (GPa) = 38.07854 90.32049 46.56898
#
# Poissons Ratio (x) = 0.00717 0.80546
# Poissons Ratio (y) = 0.00302 0.06269
# Poissons Ratio (z) = 0.65861 0.12158
#
# Static dielectric constant tensor:
#      x y z
#    x 1.841660 0.000000 0.000000 
#    y 0.000000 1.868270 0.000000 
#    z 0.000000 0.000000 1.850970 
# 
# From -- ./inp_files/15911.got.cif
#   From: 2010.05.17/outbox.cif.g08.bks.cpg/sg23_8_cif.got.tgz:15911.got - 2010.06.04 12:02:01.
