data_PCOD9330267
_publ_section_title
;
Structure prediction by ZEFSAII (Michael W. Deem and Ramdas Pophale) SiO2 
 PCOD9330267
Probable space group: I 2 2 2
;
_chemical_formula_sum "Si O2"
_cell_formula_units_Z 48
_cell_length_a 22.098163
_cell_length_b 8.729024
_cell_length_c 12.147470
_cell_angle_alpha 90.000000
_cell_angle_beta 90.000000
_cell_angle_gamma 90.000000
_cell_volume 2343.191026
_symmetry_space_group_name_H-M "I 2 2 2"
_symmetry_group_IT_number 23
_symmetry_cell_setting 'orthorhombic'
loop_
_space_group_symop_operation_xyz
x,y,z
-x,-y,z
x,-y,-z
-x,y,-z
1/2+x,1/2+y,1/2+z
1/2-x,1/2-y,1/2+z
1/2+x,1/2-y,1/2-z
1/2-x,1/2+y,1/2-z
loop_
_atom_site_type_symbol
_atom_site_label
_atom_site_fract_x
_atom_site_fract_y
_atom_site_fract_z
Si Si1 0.510642 0.317334 0.623757
Si Si2 0.642700 0.293623 0.577677
Si Si3 0.616073 0.304550 0.325547
Si Si4 0.800264 0.509447 0.160661
Si Si5 0.330136 0.570607 0.110707
Si Si6 0.725422 0.914097 0.889743
O O1 0.500000 0.500000 0.624064
O O2 0.500000 0.255804 0.500000
O O3 0.581027 0.294870 0.648366
O O4 0.453757 0.253956 0.691656
O O5 0.623044 0.350265 0.454911
O O6 0.702446 0.383421 0.615513
O O7 0.666674 0.118697 0.588657
O O8 0.662332 0.164148 0.329541
O O9 0.632821 0.418195 0.225475
O O10 0.731382 0.528775 0.121965
O O11 0.792595 0.473214 0.290123
O O12 0.306332 0.747198 0.103161
O O13 0.360206 0.500000 0.000000
O O14 0.711006 0.000000 0.000000
#
# Coordination Sequence:
#
# PCOD9330267 Si02
#       6
#     8   8   8   8   8   8
#     4   9  20  34  52  81 111 146 186 231 291 352
#     4  10  20  34  56  84 117 149 190 241 292 350
#     4  10  20  36  57  82 117 150 187 241 295 351
#     4  10  20  34  55  86 114 151 191 239 296 348
#     4  10  21  36  55  87 119 152 195 240 292 356
#     4  10  21  35  56  86 118 154 194 238 297 353
#
# _framework density 20.484884999999998
#
# number of rings (size 3 to 8) (size 9 to 14) (size 15 to 20)
#    0.000    2.167    0.000    3.500    7.000    3.333 
#    0.000    2.500    0.000    0.500    0.000    1.167 
#    0.000    0.000    0.000    0.000    0.000    0.000 
#
# Total GULP energy -133616.357115 kJ/mol
# GULP energy per Si atom -5567.348213 kJ/mol
# Density = 2.043826 g / cm^3
# Si number density = 20.484885 Si / 1000 Ang^3
#
#
#
# Elastic Constant Matrix: (Units=GPa)
#
#
# Indices 1 2 3 4 5 6 
#
# 1 95.2568 18.5950 30.4348 0.0000 0.0000 0.0000
# 2 18.5950 32.7192 26.3614 0.0000 0.0000 0.0000
# 3 30.4348 26.3614 119.0372 0.0000 0.0000 0.0000
# 4 0.0000 0.0000 0.0000 35.1379 0.0000 0.0000
# 5 0.0000 0.0000 0.0000 0.0000 20.7443 0.0000
# 6 0.0000 0.0000 0.0000 0.0000 0.0000 15.5048
#
#
#
# Elastic Compliance Matrix: (Units=1/GPa)
#
#
# Indices 1 2 3 4 5 6 
#
# 1 0.012158 -0.005362 -0.001921 0.000000 0.000000 0.000000
# 2 -0.005362 0.039565 -0.007391 0.000000 0.000000 0.000000
# 3 -0.001921 -0.007391 0.010529 0.000000 0.000000 0.000000
# 4 0.000000 0.000000 0.000000 0.028459 0.000000 0.000000
# 5 0.000000 0.000000 0.000000 0.000000 0.048206 0.000000
# 6 0.000000 0.000000 0.000000 0.000000 0.000000 0.064496
#
#
# Mechanical properties :
#
#
# Convention : Reuss Voigt Hill
#
# Bulk Modulus (GPa) = 30.39137 44.19949 37.29543
# Shear Modulus (GPa) = 20.51448 25.71888 23.11668
#
# Velocity S-wave (km/s) = 3.16799 3.54716 3.36292
# Velocity P-wave (km/s) = 5.31505 6.19676 5.77277
#
# Compressibility (1/GPa) = 0.03290408
#
# Stress axis : x y z
#
# Youngs Moduli (GPa) = 82.24719 25.27467 94.97854
#
# Poissons Ratio (x) = 0.13552 0.18247
# Poissons Ratio (y) = 0.44101 0.70199
# Poissons Ratio (z) = 0.15801 0.18680
#
# Static dielectric constant tensor:
#      x y z
#    x 1.774820 0.000000 0.000000 
#    y 0.000000 1.800750 0.000000 
#    z 0.000000 0.000000 1.839890 
# 
# From -- ./inp_files/14764.got.cif
#   From: 2010.05.17/outbox.cif.g08.bks.cpg/sg23_8_cif.got.tgz:14764.got - 2010.06.04 12:02:01.
