data_PCOD9330582
_publ_section_title
;
Structure prediction by ZEFSAII (Michael W. Deem and Ramdas Pophale) SiO2 
 PCOD9330582
Probable space group: I 2 2 2
;
_chemical_formula_sum "Si O2"
_cell_formula_units_Z 44
_cell_length_a 8.899897
_cell_length_b 9.262765
_cell_length_c 26.895885
_cell_angle_alpha 90.000000
_cell_angle_beta 90.000000
_cell_angle_gamma 90.000000
_cell_volume 2217.233673
_symmetry_space_group_name_H-M "I 2 2 2"
_symmetry_group_IT_number 23
_symmetry_cell_setting 'orthorhombic'
loop_
_space_group_symop_operation_xyz
x,y,z
-x,-y,z
x,-y,-z
-x,y,-z
1/2+x,1/2+y,1/2+z
1/2-x,1/2-y,1/2+z
1/2+x,1/2-y,1/2-z
1/2-x,1/2+y,1/2-z
loop_
_atom_site_type_symbol
_atom_site_label
_atom_site_fract_x
_atom_site_fract_y
_atom_site_fract_z
Si Si1 0.106229 0.137717 0.635933
Si Si2 0.575700 0.158106 0.208576
Si Si3 0.500000 0.500000 0.500000
Si Si4 0.123481 0.104085 0.844079
Si Si5 0.246531 0.116896 0.071199
Si Si6 0.500000 0.000000 0.000000
Si Si7 0.577723 0.848015 0.679348
O O1 0.197953 0.231960 0.594785
O O2 0.248208 0.111106 0.671594
O O3 0.000394 0.244686 0.666759
O O4 0.000000 0.000000 0.621992
O O5 0.748965 0.148713 0.193735
O O6 0.560085 0.212584 0.264787
O O7 0.500000 0.000000 0.206398
O O8 0.603786 0.601348 0.534656
O O9 0.015866 0.240550 0.857190
O O10 0.206738 0.007869 0.887191
O O11 0.000000 0.000000 0.820753
O O12 0.388497 0.080700 0.036970
O O13 0.500000 0.000000 0.676088
#
# Coordination Sequence:
#
# PCOD9330582 Si02
#       7
#     8   8   2   8   8   2   8
#     4  12  24  42  63  94 134 174 219 267 342 396
#     4  11  22  38  60  91 133 179 231 268 309 381
#     4  10  20  38  72 102 130 150 228 292 328 422
#     4  12  21  39  67  88 132 173 222 270 325 391
#     4  11  21  42  66 102 123 169 217 277 344 403
#     4  10  24  38  74  98 124 150 218 274 344 410
#     4  11  24  38  57  95 133 181 229 273 316 369
#
# _framework density 19.844549000000001
#
# number of rings (size 3 to 8) (size 9 to 14) (size 15 to 20)
#    0.000    0.727    4.545    3.273    0.000    5.818 
#    0.000    0.455    0.000    0.000    0.000    0.636 
#    0.000    0.000    0.000    0.000    0.000    0.000 
#
# Total GULP energy -122468.256018 kJ/mol
# GULP energy per Si atom -5566.738910 kJ/mol
# Density = 1.979938 g / cm^3
# Si number density = 19.844549 Si / 1000 Ang^3
#
#
#
# Elastic Constant Matrix: (Units=GPa)
#
#
# Indices 1 2 3 4 5 6 
#
# 1 168.1441 55.9601 35.8846 0.0000 0.0000 0.0000
# 2 55.9601 101.4906 51.6702 0.0000 0.0000 0.0000
# 3 35.8846 51.6702 62.4979 0.0000 0.0000 0.0000
# 4 0.0000 0.0000 0.0000 20.4405 0.0000 0.0000
# 5 0.0000 0.0000 0.0000 0.0000 -9.5103 0.0000
# 6 0.0000 0.0000 0.0000 0.0000 0.0000 40.3111
#
#
#
# Elastic Compliance Matrix: (Units=1/GPa)
#
#
# Indices 1 2 3 4 5 6 
#
# 1 0.007365 -0.003295 -0.001505 0.000000 0.000000 0.000000
# 2 -0.003295 0.018489 -0.013394 0.000000 0.000000 0.000000
# 3 -0.001505 -0.013394 0.027938 0.000000 0.000000 0.000000
# 4 0.000000 0.000000 0.000000 0.048922 0.000000 0.000000
# 5 0.000000 0.000000 0.000000 0.000000 -0.105150 0.000000
# 6 0.000000 0.000000 0.000000 0.000000 0.000000 0.024807
#
#
# Mechanical properties :
#
#
# Convention : Reuss Voigt Hill
#
# Bulk Modulus (GPa) = 57.45535 68.79582 63.12558
# Shear Modulus (GPa) = 77.44705 22.82278 50.13492
#
# Velocity S-wave (km/s) = 6.25393 3.39496 5.03177
# Velocity P-wave (km/s) = 9.00913 7.07886 8.10169
#
# Compressibility (1/GPa) = 0.01740482
#
# Stress axis : x y z
#
# Youngs Moduli (GPa) = 135.77786 54.08666 35.79362
#
# Poissons Ratio (x) = 0.17821 0.05386
# Poissons Ratio (y) = 0.44736 0.47942
# Poissons Ratio (z) = 0.20431 0.72443
#
# Static dielectric constant tensor:
#      x y z
#    x 0.606150 0.000000 0.000000 
#    y 0.000000 1.745970 0.000000 
#    z 0.000000 0.000000 1.795830 
# 
# From -- ./inp_files/30190.got.cif
#   From: 2010.05.17/outbox.cif.g08.bks.cpg/sg23_16_cif.got.tgz:30190.got - 2010.06.04 12:02:01.
