data_PCOD9330459
_publ_section_title
;
Structure prediction by ZEFSAII (Michael W. Deem and Ramdas Pophale) SiO2 
 PCOD9330459
Probable space group: I 2 2 2
;
_chemical_formula_sum "Si O2"
_cell_formula_units_Z 48
_cell_length_a 9.966927
_cell_length_b 26.429984
_cell_length_c 8.888539
_cell_angle_alpha 90.000000
_cell_angle_beta 90.000000
_cell_angle_gamma 90.000000
_cell_volume 2341.469796
_symmetry_space_group_name_H-M "I 2 2 2"
_symmetry_group_IT_number 23
_symmetry_cell_setting 'orthorhombic'
loop_
_space_group_symop_operation_xyz
x,y,z
-x,-y,z
x,-y,-z
-x,y,-z
1/2+x,1/2+y,1/2+z
1/2-x,1/2-y,1/2+z
1/2+x,1/2-y,1/2-z
1/2-x,1/2+y,1/2-z
loop_
_atom_site_type_symbol
_atom_site_label
_atom_site_fract_x
_atom_site_fract_y
_atom_site_fract_z
Si Si1 0.275563 0.108236 0.338517
Si Si2 0.131342 0.720714 0.894023
Si Si3 0.512725 0.442633 0.182689
Si Si4 0.366204 0.715173 0.099912
Si Si5 0.247392 0.388515 0.181126
Si Si6 0.483981 0.942812 0.177296
O O1 0.215025 0.164705 0.350302
O O2 0.285920 0.091825 0.512684
O O3 0.412327 0.096145 0.254812
O O4 0.157511 0.075724 0.267072
O O5 0.096367 0.754847 0.750486
O O6 0.195703 0.668953 0.826969
O O7 0.253761 0.742755 0.995710
O O8 0.000000 0.711862 0.000000
O O9 0.500000 0.500000 0.237344
O O10 0.401041 0.400478 0.219806
O O11 0.500000 0.444416 0.000000
O O12 0.500000 0.704498 0.000000
O O13 0.161960 0.421910 0.291641
O O14 0.500000 0.000000 0.237458
O O15 0.500000 0.943898 0.000000
#
# Coordination Sequence:
#
# PCOD9330459 Si02
#       6
#     8   8   8   8   8   8
#     4  10  20  38  61  85 114 153 200 250 300 356
#     4  11  23  39  61  91 124 166 212 258 316 373
#     4   9  17  31  56  86 110 139 187 245 299 345
#     4  11  23  41  62  89 126 162 208 263 312 373
#     4  10  20  37  60  86 115 151 202 252 294 356
#     4  11  24  39  56  85 123 157 193 244 306 369
#
# _framework density 20.499945
#
# number of rings (size 3 to 8) (size 9 to 14) (size 15 to 20)
#    0.000    1.667    0.000    7.000    0.000    4.667 
#    0.000    0.833    0.000    3.000    0.000    0.000 
#    0.000    0.000    0.000    0.000    0.000    0.000 
#
# Total GULP energy -133827.013912 kJ/mol
# GULP energy per Si atom -5576.125580 kJ/mol
# Density = 2.045329 g / cm^3
# Si number density = 20.499945 Si / 1000 Ang^3
#
#
#
# Elastic Constant Matrix: (Units=GPa)
#
#
# Indices 1 2 3 4 5 6 
#
# 1 63.8166 3.5177 4.1242 0.0012 0.0008 0.0006
# 2 3.5177 65.9204 26.8254 0.0002 0.0005 0.0000
# 3 4.1242 26.8254 44.6635 0.0036 0.0033 0.0021
# 4 0.0012 0.0002 0.0036 16.2034 0.0007 0.0004
# 5 0.0008 0.0005 0.0033 0.0007 -0.4873 0.0008
# 6 0.0006 0.0000 0.0021 0.0004 0.0008 18.4485
#
#
#
# Elastic Compliance Matrix: (Units=1/GPa)
#
#
# Indices 1 2 3 4 5 6 
#
# 1 0.015769 -0.000329 -0.001258 -0.000001 0.000018 0.000000
# 2 -0.000329 0.020084 -0.012032 0.000003 -0.000061 0.000001
# 3 -0.001258 -0.012032 0.029732 -0.000006 0.000187 -0.000003
# 4 -0.000001 0.000003 -0.000006 0.061715 0.000085 -0.000001
# 5 0.000018 -0.000061 0.000187 0.000085 -2.052266 0.000094
# 6 0.000000 0.000001 -0.000003 -0.000001 0.000094 0.054205
#
#
# Mechanical properties :
#
#
# Convention : Reuss Voigt Hill
#
# Bulk Modulus (GPa) = 26.07840 27.03723 26.55781
# Shear Modulus (GPa) = -2.73114 16.16182 6.71534
#
# Velocity S-wave (km/s) = -1.15549 2.81086 1.81188
# Velocity P-wave (km/s) = 3.31189 4.87362 4.16658
#
# Compressibility (1/GPa) = 0.03834592
#
# Stress axis : x y z
#
# Youngs Moduli (GPa) = 63.41405 49.79169 33.63332
#
# Poissons Ratio (x) = 0.01640 0.04232
# Poissons Ratio (y) = 0.02089 0.40468
# Poissons Ratio (z) = 0.07979 0.59910
#
# Static dielectric constant tensor:
#      x y z
#    x 1.760120 0.000000 0.000000 
#    y 0.000000 1.754960 0.000000 
#    z 0.000000 0.000000 1.750080 
# 
# From -- ./inp_files/7360.got.cif
#   From: 2010.05.17/outbox.cif.g08.bks.cpg/sg23_4_cif.got.tgz:7360.got - 2010.06.04 12:02:01.
