data_PCOD9330046
_publ_section_title
;
Structure prediction by ZEFSAII (Michael W. Deem and Ramdas Pophale) SiO2 
 PCOD9330046
Probable space group: I 2 2 2
;
_chemical_formula_sum "Si O2"
_cell_formula_units_Z 58
_cell_length_a 18.766807
_cell_length_b 26.409704
_cell_length_c 5.596320
_cell_angle_alpha 90.000000
_cell_angle_beta 90.000000
_cell_angle_gamma 90.000000
_cell_volume 2773.680677
_symmetry_space_group_name_H-M "I 2 2 2"
_symmetry_group_IT_number 23
_symmetry_cell_setting 'orthorhombic'
loop_
_space_group_symop_operation_xyz
x,y,z
-x,-y,z
x,-y,-z
-x,y,-z
1/2+x,1/2+y,1/2+z
1/2-x,1/2-y,1/2+z
1/2+x,1/2-y,1/2-z
1/2-x,1/2+y,1/2-z
loop_
_atom_site_type_symbol
_atom_site_label
_atom_site_fract_x
_atom_site_fract_y
_atom_site_fract_z
Si Si1 0.066786 0.119842 0.157501
Si Si2 0.372525 0.054829 0.727708
Si Si3 0.331730 0.556988 0.089535
Si Si4 0.817670 0.559705 0.725999
Si Si5 0.423846 0.279932 0.946326
Si Si6 0.176637 0.850622 0.229393
Si Si7 0.283337 0.770462 0.222984
Si Si8 0.500000 0.000000 0.500000
O O1 0.091639 0.072254 0.309785
O O2 0.050292 0.171181 0.297098
O O3 0.136368 0.135852 0.010356
O O4 0.000000 0.106445 0.000000
O O5 0.345771 0.080678 0.481898
O O6 0.452160 0.035941 0.667757
O O7 0.332292 0.000585 0.750995
O O8 0.357155 0.078689 0.986847
O O9 0.267039 0.564759 0.275579
O O10 0.328832 0.500000 0.000000
O O11 0.320168 0.599081 0.886602
O O12 0.365901 0.244370 0.813842
O O13 0.500000 0.253637 0.000000
O O14 0.375194 0.307647 0.149789
O O15 0.255034 0.827624 0.205289
O O16 0.257966 0.753295 0.489555
#
# Coordination Sequence:
#
# PCOD9330046 Si02
#       8
#     8   8   8   8   8   8   8   2
#     4  11  22  39  63  89 128 176 225 289 341 404
#     4   9  17  29  53  77 117 135 192 270 316 396
#     4  11  24  40  60  85 126 186 243 286 337 387
#     4   9  18  32  50  78 107 154 210 263 309 376
#     4  10  19  36  64  95 136 170 211 264 347 431
#     4  10  22  37  60  92 131 172 224 287 325 404
#     4  10  20  37  63  99 133 169 221 269 339 414
#     4   8  16  30  48  90 116 138 166 262 360 398
#
# _framework density 20.910843
#
# number of rings (size 3 to 8) (size 9 to 14) (size 15 to 20)
#    0.000    2.207    4.138    0.000    1.931    4.966 
#    0.000    2.069    0.000    0.000    0.000   11.586 
#    0.000    0.000    0.000    0.000    0.000    0.000 
#
# Total GULP energy -161486.215986 kJ/mol
# GULP energy per Si atom -5568.490206 kJ/mol
# Density = 2.086325 g / cm^3
# Si number density = 20.910843 Si / 1000 Ang^3
#
#
#
# Elastic Constant Matrix: (Units=GPa)
#
#
# Indices 1 2 3 4 5 6 
#
# 1 113.8161 49.6698 28.5496 0.0000 0.0000 0.0000
# 2 49.6698 47.9748 19.5432 0.0000 0.0000 0.0000
# 3 28.5496 19.5432 113.0074 0.0000 0.0000 0.0000
# 4 0.0000 0.0000 0.0000 -3.0922 0.0000 0.0000
# 5 0.0000 0.0000 0.0000 0.0000 27.1334 0.0000
# 6 0.0000 0.0000 0.0000 0.0000 0.0000 7.7037
#
#
#
# Elastic Compliance Matrix: (Units=1/GPa)
#
#
# Indices 1 2 3 4 5 6 
#
# 1 0.016199 -0.016249 -0.001282 0.000000 0.000000 0.000000
# 2 -0.016249 0.038723 -0.002592 0.000000 0.000000 0.000000
# 3 -0.001282 -0.002592 0.009621 0.000000 0.000000 0.000000
# 4 0.000000 0.000000 0.000000 -0.323393 0.000000 0.000000
# 5 0.000000 0.000000 0.000000 0.000000 0.036855 0.000000
# 6 0.000000 0.000000 0.000000 0.000000 0.000000 0.129808
#
#
# Mechanical properties :
#
#
# Convention : Reuss Voigt Hill
#
# Bulk Modulus (GPa) = 41.15679 52.25817 46.70748
# Shear Modulus (GPa) = -114.04491 18.15134 -47.94679
#
# Velocity S-wave (km/s) = -7.39304 2.94944 -4.79363
# Velocity P-wave (km/s) = 7.29049 6.05344 2.87291
#
# Compressibility (1/GPa) = 0.02429732
#
# Stress axis : x y z
#
# Youngs Moduli (GPa) = 61.73297 25.82451 103.93776
#
# Poissons Ratio (x) = 0.41962 0.13329
# Poissons Ratio (y) = 1.00308 0.26937
# Poissons Ratio (z) = 0.07916 0.06693
#
# Static dielectric constant tensor:
#      x y z
#    x 1.762420 0.000000 0.000000 
#    y 0.000000 1.732850 0.000000 
#    z 0.000000 0.000000 1.756890 
# 
# From -- ./inp_files/3494.got.cif
#   From: 2010.05.17/outbox.cif.g08.bks.cpg/sg23_2_cif.got.tgz:3494.got - 2010.06.04 12:02:01.
