data_PCOD9330991
_publ_section_title
;
Structure prediction by ZEFSAII (Michael W. Deem and Ramdas Pophale) SiO2 
 PCOD9330991
Probable space group: I 2 2 2
;
_chemical_formula_sum "Si O2"
_cell_formula_units_Z 42
_cell_length_a 25.186504
_cell_length_b 12.823401
_cell_length_c 7.038828
_cell_angle_alpha 90.000000
_cell_angle_beta 90.000000
_cell_angle_gamma 90.000000
_cell_volume 2273.377021
_symmetry_space_group_name_H-M "I 2 2 2"
_symmetry_group_IT_number 23
_symmetry_cell_setting 'orthorhombic'
loop_
_space_group_symop_operation_xyz
x,y,z
-x,-y,z
x,-y,-z
-x,y,-z
1/2+x,1/2+y,1/2+z
1/2-x,1/2-y,1/2+z
1/2+x,1/2-y,1/2-z
1/2-x,1/2+y,1/2-z
loop_
_atom_site_type_symbol
_atom_site_label
_atom_site_fract_x
_atom_site_fract_y
_atom_site_fract_z
Si Si1 0.000000 0.500000 0.500000
Si Si2 0.591118 0.964070 0.276670
Si Si3 0.678426 0.197327 0.648878
Si Si4 0.825743 0.635365 0.283063
Si Si5 0.292436 0.580727 0.718853
Si Si6 0.295992 0.360259 0.836469
O O1 0.960750 0.556133 0.650331
O O2 0.629857 0.863938 0.259605
O O3 0.580813 0.000000 0.500000
O O4 0.625011 0.059861 0.187993
O O5 0.679888 0.144767 0.443569
O O6 0.674954 0.322031 0.634768
O O7 0.737021 0.174799 0.732705
O O8 0.768894 0.590168 0.348016
O O9 0.830766 0.755710 0.341956
O O10 0.311429 0.461052 0.711943
O O11 0.292456 0.605553 0.944824
#
# Coordination Sequence:
#
# PCOD9330991 Si02
#       6
#     2   8   8   8   8   8
#     4  12  26  36  60  82  94 144 202 224 276 322
#     4  10  21  39  55  76 109 137 176 235 274 307
#     4   9  17  30  47  68 104 143 169 210 266 310
#     4   9  17  30  47  68 104 143 169 210 266 310
#     4   9  16  27  44  72 106 141 174 201 249 328
#     4   9  16  27  44  72 106 141 174 201 249 328
#
# _framework density 18.474720000000001
#
# number of rings (size 3 to 8) (size 9 to 14) (size 15 to 20)
#    0.000    2.667    1.905    0.286    2.667    0.762 
#    0.000    0.000    0.000    0.000    0.000    2.667 
#    0.000    6.095    0.000    0.000    0.000    0.000 
#
# Total GULP energy -116973.259622 kJ/mol
# GULP energy per Si atom -5570.155220 kJ/mol
# Density = 1.843267 g / cm^3
# Si number density = 18.474720 Si / 1000 Ang^3
#
#
#
# Elastic Constant Matrix: (Units=GPa)
#
#
# Indices 1 2 3 4 5 6 
#
# 1 68.8553 42.6720 23.4106 0.0000 0.0000 0.0000
# 2 42.6720 138.7520 20.1645 0.0000 0.0000 0.0000
# 3 23.4106 20.1645 63.1064 0.0000 0.0000 0.0000
# 4 0.0000 0.0000 0.0000 34.3634 0.0000 0.0000
# 5 0.0000 0.0000 0.0000 0.0000 26.3135 0.0000
# 6 0.0000 0.0000 0.0000 0.0000 0.0000 9.3709
#
#
#
# Elastic Compliance Matrix: (Units=1/GPa)
#
#
# Indices 1 2 3 4 5 6 
#
# 1 0.019681 -0.005235 -0.005628 0.000000 0.000000 0.000000
# 2 -0.005235 0.008950 -0.000918 0.000000 0.000000 0.000000
# 3 -0.005628 -0.000918 0.018228 0.000000 0.000000 0.000000
# 4 0.000000 0.000000 0.000000 0.029101 0.000000 0.000000
# 5 0.000000 0.000000 0.000000 0.000000 0.038003 0.000000
# 6 0.000000 0.000000 0.000000 0.000000 0.000000 0.106713
#
#
# Mechanical properties :
#
#
# Convention : Reuss Voigt Hill
#
# Bulk Modulus (GPa) = 42.92459 49.24531 46.08495
# Shear Modulus (GPa) = 19.84096 26.30733 23.07415
#
# Velocity S-wave (km/s) = 3.28068 3.77764 3.53789
# Velocity P-wave (km/s) = 6.13475 6.76319 6.45662
#
# Compressibility (1/GPa) = 0.02329667
#
# Stress axis : x y z
#
# Youngs Moduli (GPa) = 50.81039 111.72653 54.86199
#
# Poissons Ratio (x) = 0.58486 0.30878
# Poissons Ratio (y) = 0.26598 0.05036
# Poissons Ratio (z) = 0.28598 0.10256
#
# Static dielectric constant tensor:
#      x y z
#    x 1.607650 0.000000 0.000000 
#    y 0.000000 1.701070 0.000000 
#    z 0.000000 0.000000 1.812640 
# 
# From -- ./inp_files/8603.got.cif
#   From: 2010.05.17/outbox.cif.g08.bks.cpg/sg23_5_cif.got.tgz:8603.got - 2010.06.04 12:02:01.
