data_PCOD9330116
_publ_section_title
;
Structure prediction by ZEFSAII (Michael W. Deem and Ramdas Pophale) SiO2 
 PCOD9330116
Probable space group: I 2 2 2
;
_chemical_formula_sum "Si O2"
_cell_formula_units_Z 58
_cell_length_a 19.306681
_cell_length_b 9.089297
_cell_length_c 16.981552
_cell_angle_alpha 90.000000
_cell_angle_beta 90.000000
_cell_angle_gamma 90.000000
_cell_volume 2979.993349
_symmetry_space_group_name_H-M "I 2 2 2"
_symmetry_group_IT_number 23
_symmetry_cell_setting 'orthorhombic'
loop_
_space_group_symop_operation_xyz
x,y,z
-x,-y,z
x,-y,-z
-x,y,-z
1/2+x,1/2+y,1/2+z
1/2-x,1/2-y,1/2+z
1/2+x,1/2-y,1/2-z
1/2-x,1/2+y,1/2-z
loop_
_atom_site_type_symbol
_atom_site_label
_atom_site_fract_x
_atom_site_fract_y
_atom_site_fract_z
Si Si1 0.975704 0.671315 0.414749
Si Si2 0.526210 0.334749 0.239904
Si Si3 0.432212 0.811444 0.636554
Si Si4 0.319220 0.024756 0.259491
Si Si5 0.325337 0.922449 0.085161
Si Si6 0.670767 0.556152 0.412590
Si Si7 0.183559 0.183713 0.221837
Si Si8 0.500000 0.000000 0.500000
O O1 0.001838 0.762284 0.340321
O O2 0.892393 0.678981 0.414316
O O3 0.000000 0.500000 0.407526
O O4 0.000000 0.724065 0.500000
O O5 0.500000 0.500000 0.248752
O O6 0.498849 0.237990 0.312958
O O7 0.609066 0.335187 0.238334
O O8 0.382758 0.908712 0.692355
O O9 0.388272 0.666104 0.615710
O O10 0.454599 0.898569 0.558481
O O11 0.249072 0.117995 0.268019
O O12 0.334446 0.018582 0.165133
O O13 0.306133 0.857724 0.287106
O O14 0.246469 0.866076 0.090229
O O15 0.328825 0.000000 0.000000
O O16 0.656857 0.500000 0.500000
O O17 0.677835 0.413325 0.357165
#
# Coordination Sequence:
#
# PCOD9330116 Si02
#       8
#     8   8   8   8   8   8   8   2
#     4  11  22  39  69  98 134 175 219 270 338 403
#     4  12  26  43  68 100 142 174 229 276 350 400
#     4  12  27  46  69  98 136 185 231 289 344 414
#     4  11  23  42  74  98 141 173 239 271 341 406
#     4  10  19  38  65 101 127 168 219 272 323 400
#     4  10  24  43  69  95 134 175 231 281 347 404
#     4  11  23  43  68 105 130 181 219 286 332 411
#     4  12  32  44  70 100 142 168 244 292 352 396
#
# _framework density 19.463131000000001
#
# number of rings (size 3 to 8) (size 9 to 14) (size 15 to 20)
#    0.000    0.966    4.138    3.310    4.828    0.276 
#    0.000    0.000    0.000    0.000    0.000    0.000 
#    0.000    0.000    0.000    0.000    0.000    0.000 
#
# Total GULP energy -161903.685785 kJ/mol
# GULP energy per Si atom -5582.885717 kJ/mol
# Density = 1.941883 g / cm^3
# Si number density = 19.463131 Si / 1000 Ang^3
#
#
#
# Elastic Constant Matrix: (Units=GPa)
#
#
# Indices 1 2 3 4 5 6 
#
# 1 100.3734 21.8404 37.1680 0.0000 0.0000 0.0000
# 2 21.8404 92.7431 46.4387 0.0000 0.0000 0.0000
# 3 37.1680 46.4387 150.2193 0.0000 0.0000 0.0000
# 4 0.0000 0.0000 0.0000 24.0426 0.0000 0.0000
# 5 0.0000 0.0000 0.0000 0.0000 28.6181 0.0000
# 6 0.0000 0.0000 0.0000 0.0000 0.0000 27.1407
#
#
#
# Elastic Compliance Matrix: (Units=1/GPa)
#
#
# Indices 1 2 3 4 5 6 
#
# 1 0.011135 -0.001470 -0.002300 0.000000 0.000000 0.000000
# 2 -0.001470 0.012951 -0.003640 0.000000 0.000000 0.000000
# 3 -0.002300 -0.003640 0.008351 0.000000 0.000000 0.000000
# 4 0.000000 0.000000 0.000000 0.041593 0.000000 0.000000
# 5 0.000000 0.000000 0.000000 0.000000 0.034943 0.000000
# 6 0.000000 0.000000 0.000000 0.000000 0.000000 0.036845
#
#
# Mechanical properties :
#
#
# Convention : Reuss Voigt Hill
#
# Bulk Modulus (GPa) = 56.76681 61.58111 59.17396
# Shear Modulus (GPa) = 30.02797 31.81953 30.92375
#
# Velocity S-wave (km/s) = 3.93213 4.04773 3.99035
# Velocity P-wave (km/s) = 7.06011 7.31806 7.19024
#
# Compressibility (1/GPa) = 0.01761593
#
# Stress axis : x y z
#
# Youngs Moduli (GPa) = 89.81048 77.21212 119.74051
#
# Poissons Ratio (x) = 0.11352 0.27546
# Poissons Ratio (y) = 0.13204 0.43586
# Poissons Ratio (z) = 0.20661 0.28105
#
# Static dielectric constant tensor:
#      x y z
#    x 1.697520 0.000000 0.000000 
#    y 0.000000 1.687600 0.000000 
#    z 0.000000 0.000000 1.703460 
# 
# From -- ./inp_files/25092.got.cif
#   From: 2010.05.17/outbox.cif.g08.bks.cpg/sg23_13_cif.got.tgz:25092.got - 2010.06.04 12:02:01.
