data_PCOD9330178
_publ_section_title
;
Structure prediction by ZEFSAII (Michael W. Deem and Ramdas Pophale) SiO2 
 PCOD9330178
Probable space group: I 2 2 2
;
_chemical_formula_sum "Si O2"
_cell_formula_units_Z 48
_cell_length_a 7.692801
_cell_length_b 20.501352
_cell_length_c 13.332820
_cell_angle_alpha 90.000000
_cell_angle_beta 90.000000
_cell_angle_gamma 90.000000
_cell_volume 2102.756656
_symmetry_space_group_name_H-M "I 2 2 2"
_symmetry_group_IT_number 23
_symmetry_cell_setting 'orthorhombic'
loop_
_space_group_symop_operation_xyz
x,y,z
-x,-y,z
x,-y,-z
-x,y,-z
1/2+x,1/2+y,1/2+z
1/2-x,1/2-y,1/2+z
1/2+x,1/2-y,1/2-z
1/2-x,1/2+y,1/2-z
loop_
_atom_site_type_symbol
_atom_site_label
_atom_site_fract_x
_atom_site_fract_y
_atom_site_fract_z
Si Si1 0.780690 0.794674 0.628422
Si Si2 0.723319 0.319511 0.633749
Si Si3 0.599761 0.175592 0.615363
Si Si4 0.561150 0.571412 0.662841
Si Si5 0.390229 0.152452 0.143168
Si Si6 0.930018 0.900154 0.399257
O O1 0.764053 0.803662 0.747738
O O2 0.602082 0.823971 0.586338
O O3 0.803026 0.718989 0.604132
O O4 0.953406 0.834322 0.603699
O O5 0.674971 0.247880 0.593582
O O6 0.571463 0.372869 0.623819
O O7 0.911281 0.348914 0.604709
O O8 0.600715 0.164951 0.736759
O O9 0.731257 0.119138 0.583972
O O10 0.500000 0.500000 0.630107
O O11 0.755237 0.593210 0.630094
O O12 0.553304 0.572261 0.786149
O O13 0.000000 0.933859 0.500000
#
# Coordination Sequence:
#
# PCOD9330178 Si02
#       6
#     8   8   8   8   8   8
#     4   9  15  26  46  68  88 113 148 196 248 279
#     4   9  15  26  46  68  88 113 148 196 248 279
#     4   9  15  26  46  68  88 113 148 196 248 279
#     4  10  20  31  44  66  97 131 162 188 220 270
#     4   9  15  26  46  68  88 113 148 196 248 279
#     4  10  20  31  44  66  97 131 162 188 220 270
#
# _framework density 22.827176999999999
#
# number of rings (size 3 to 8) (size 9 to 14) (size 15 to 20)
#    0.000    2.667    3.333    0.000    0.000    1.667 
#    0.000    0.000    0.000    0.000    0.000    9.333 
#    0.000    4.000    0.000    0.000    0.000    0.000 
#
# Total GULP energy -133974.111473 kJ/mol
# GULP energy per Si atom -5582.254645 kJ/mol
# Density = 2.277522 g / cm^3
# Si number density = 22.827177 Si / 1000 Ang^3
#
#
#
# Elastic Constant Matrix: (Units=GPa)
#
#
# Indices 1 2 3 4 5 6 
#
# 1 125.6407 23.8980 0.1112 0.0000 0.0000 0.0000
# 2 23.8980 99.2036 -14.0976 0.0001 0.0000 0.0000
# 3 0.1112 -14.0976 65.3884 0.0002 0.0000 0.0000
# 4 0.0000 0.0001 0.0002 -7.6249 0.0000 0.0000
# 5 0.0000 0.0000 0.0000 0.0000 32.8172 0.0000
# 6 0.0000 0.0000 0.0000 0.0000 0.0000 10.7919
#
#
#
# Elastic Compliance Matrix: (Units=1/GPa)
#
#
# Indices 1 2 3 4 5 6 
#
# 1 0.008355 -0.002078 -0.000462 0.000000 0.000000 0.000000
# 2 -0.002078 0.010916 0.002357 0.000000 0.000000 0.000000
# 3 -0.000462 0.002357 0.015802 0.000000 0.000000 0.000000
# 4 0.000000 0.000000 0.000000 -0.131148 0.000000 0.000000
# 5 0.000000 0.000000 0.000000 0.000000 0.030472 0.000000
# 6 0.000000 0.000000 0.000000 0.000000 0.000000 0.092662
#
#
# Mechanical properties :
#
#
# Convention : Reuss Voigt Hill
#
# Bulk Modulus (GPa) = 28.81379 34.45065 31.63222
# Shear Modulus (GPa) = 128.22293 25.88490 77.05392
#
# Velocity S-wave (km/s) = 7.50287 3.37107 5.81624
# Velocity P-wave (km/s) = 9.36523 5.50244 7.68064
#
# Compressibility (1/GPa) = 0.03470561
#
# Stress axis : x y z
#
# Youngs Moduli (GPa) = 119.68963 91.60945 63.28239
#
# Poissons Ratio (x) = 0.19040 0.02926
# Poissons Ratio (y) = 0.24876 -0.14916
# Poissons Ratio (z) = 0.05533 -0.21592
#
# Static dielectric constant tensor:
#      x y z
#    x 1.835780 0.000000 0.000000 
#    y 0.000000 1.766080 0.000000 
#    z 0.000000 0.000000 2.036280 
# 
# From -- ./inp_files/11931.got.cif
#   From: 2010.05.17/outbox.cif.g08.bks.cpg/sg23_6_cif.got.tgz:11931.got - 2010.06.04 12:02:01.
