data_PCOD9330191
_publ_section_title
;
Structure prediction by ZEFSAII (Michael W. Deem and Ramdas Pophale) SiO2 
 PCOD9330191
Probable space group: I 2 2 2
;
_chemical_formula_sum "Si O2"
_cell_formula_units_Z 40
_cell_length_a 22.293905
_cell_length_b 12.949793
_cell_length_c 6.861997
_cell_angle_alpha 90.000000
_cell_angle_beta 90.000000
_cell_angle_gamma 90.000000
_cell_volume 1981.068517
_symmetry_space_group_name_H-M "I 2 2 2"
_symmetry_group_IT_number 23
_symmetry_cell_setting 'orthorhombic'
loop_
_space_group_symop_operation_xyz
x,y,z
-x,-y,z
x,-y,-z
-x,y,-z
1/2+x,1/2+y,1/2+z
1/2-x,1/2-y,1/2+z
1/2+x,1/2-y,1/2-z
1/2-x,1/2+y,1/2-z
loop_
_atom_site_type_symbol
_atom_site_label
_atom_site_fract_x
_atom_site_fract_y
_atom_site_fract_z
Si Si1 0.168117 0.244131 0.128039
Si Si2 0.800473 0.188920 0.316985
Si Si3 0.067712 0.377528 0.975115
Si Si4 0.212562 0.032840 0.229895
Si Si5 0.657748 0.901141 0.138889
O O1 0.228834 0.303764 0.176485
O O2 0.171820 0.134980 0.239829
O O3 0.175790 0.213171 0.899563
O O4 0.110502 0.317490 0.127184
O O5 0.823541 0.287452 0.442212
O O6 0.810600 0.067418 0.343695
O O7 0.099275 0.373731 0.764104
O O8 0.067176 0.500000 0.000000
O O9 0.000000 0.338651 0.000000
O O10 0.282403 0.066276 0.264875
O O11 0.214230 0.000000 0.000000
O O12 0.647516 0.000000 0.000000
#
# Coordination Sequence:
#
# PCOD9330191 Si02
#       5
#     8   8   8   8   8
#     4   9  17  29  47  71 101 135 168 210 256 309
#     4   9  16  27  48  75 101 132 165 208 264 311
#     4  10  20  32  46  67  98 137 175 210 253 305
#     4   8  14  26  46  73 100 128 160 203 261 311
#     4   9  17  30  49  71  99 136 175 215 256 303
#
# _framework density 20.191125
#
# number of rings (size 3 to 8) (size 9 to 14) (size 15 to 20)
#    0.000    3.000    0.000    2.400    0.000    0.000 
#    0.000    2.000    0.000   18.600    0.000    0.000 
#    0.000    0.000    0.000  265.000    0.000    0.400 
#
# Total GULP energy -111369.014412 kJ/mol
# GULP energy per Si atom -5568.450721 kJ/mol
# Density = 2.014517 g / cm^3
# Si number density = 20.191125 Si / 1000 Ang^3
#
#
#
# Elastic Constant Matrix: (Units=GPa)
#
#
# Indices 1 2 3 4 5 6 
#
# 1 130.1296 54.4237 20.1232 0.0000 0.0000 0.0000
# 2 54.4237 185.3256 43.5105 0.0000 0.0000 0.0000
# 3 20.1232 43.5105 53.1808 0.0000 0.0000 0.0000
# 4 0.0000 0.0000 0.0000 49.7525 0.0000 0.0000
# 5 0.0000 0.0000 0.0000 0.0000 16.7527 0.0000
# 6 0.0000 0.0000 0.0000 0.0000 0.0000 24.6505
#
#
#
# Elastic Compliance Matrix: (Units=1/GPa)
#
#
# Indices 1 2 3 4 5 6 
#
# 1 0.008858 -0.002246 -0.001514 0.000000 0.000000 0.000000
# 2 -0.002246 0.007248 -0.005080 0.000000 0.000000 0.000000
# 3 -0.001514 -0.005080 0.023533 0.000000 0.000000 0.000000
# 4 0.000000 0.000000 0.000000 0.020099 0.000000 0.000000
# 5 0.000000 0.000000 0.000000 0.000000 0.059692 0.000000
# 6 0.000000 0.000000 0.000000 0.000000 0.000000 0.040567
#
#
# Mechanical properties :
#
#
# Convention : Reuss Voigt Hill
#
# Bulk Modulus (GPa) = 45.54045 67.19451 56.36748
# Shear Modulus (GPa) = 27.02719 34.93638 30.98179
#
# Velocity S-wave (km/s) = 3.66261 4.16418 3.92142
# Velocity P-wave (km/s) = 6.36317 7.51479 6.96283
#
# Compressibility (1/GPa) = 0.02195850
#
# Stress axis : x y z
#
# Youngs Moduli (GPa) = 112.89136 137.96561 42.49271
#
# Poissons Ratio (x) = 0.30984 0.06435
# Poissons Ratio (y) = 0.25353 0.21588
# Poissons Ratio (z) = 0.17097 0.70092
#
# Static dielectric constant tensor:
#      x y z
#    x 1.672770 0.000000 0.000000 
#    y 0.000000 1.861760 0.000000 
#    z 0.000000 0.000000 1.923420 
# 
# From -- ./inp_files/11812.got.cif
#   From: 2010.05.17/outbox.cif.g08.bks.cpg/sg23_6_cif.got.tgz:11812.got - 2010.06.04 12:02:01.
