data_PCOD9330158
_publ_section_title
;
Structure prediction by ZEFSAII (Michael W. Deem and Ramdas Pophale) SiO2 
 PCOD9330158
Probable space group: I 2 2 2
;
_chemical_formula_sum "Si O2"
_cell_formula_units_Z 40
_cell_length_a 13.971300
_cell_length_b 18.830205
_cell_length_c 7.364655
_cell_angle_alpha 90.000000
_cell_angle_beta 90.000000
_cell_angle_gamma 90.000000
_cell_volume 1937.511430
_symmetry_space_group_name_H-M "I 2 2 2"
_symmetry_group_IT_number 23
_symmetry_cell_setting 'orthorhombic'
loop_
_space_group_symop_operation_xyz
x,y,z
-x,-y,z
x,-y,-z
-x,y,-z
1/2+x,1/2+y,1/2+z
1/2-x,1/2-y,1/2+z
1/2+x,1/2-y,1/2-z
1/2-x,1/2+y,1/2-z
loop_
_atom_site_type_symbol
_atom_site_label
_atom_site_fract_x
_atom_site_fract_y
_atom_site_fract_z
Si Si1 0.139735 0.395041 0.282626
Si Si2 0.500000 0.500000 0.000000
Si Si3 0.500000 0.000000 0.000000
Si Si4 0.860819 0.115434 0.338302
Si Si5 0.500000 0.151012 0.500000
Si Si6 0.838974 0.764702 0.349690
Si Si7 0.122529 0.230781 0.925116
O O1 0.252042 0.404649 0.227748
O O2 0.130495 0.317743 0.381300
O O3 0.075616 0.451324 0.389837
O O4 0.084043 0.390657 0.092169
O O5 0.427884 0.550182 0.887963
O O6 0.861765 0.173207 0.505674
O O7 0.904211 0.158542 0.170533
O O8 0.448600 0.206728 0.367564
O O9 0.724652 0.756712 0.354551
O O10 0.869065 0.779232 0.141697
#
# Coordination Sequence:
#
# PCOD9330158 Si02
#       7
#     8   2   2   8   4   8   8
#     4  10  25  44  69 107 142 185 238 302 365 429
#     4  12  32  46  70  98 156 216 236 276 362 456
#     4  12  28  44  68 114 152 200 224 276 384 478
#     4  11  25  50  65 103 142 192 240 298 351 426
#     4  10  20  37  68 109 124 172 230 308 368 407
#     4  10  19  42  73 101 132 179 241 310 349 404
#     4  10  20  37  70 108 131 167 233 309 362 404
#
# _framework density 20.645040000000002
#
# number of rings (size 3 to 8) (size 9 to 14) (size 15 to 20)
#    0.000    1.600    6.000    0.000    8.400    2.000 
#    7.200    1.000    0.000    0.000    0.000    0.000 
#    0.000    0.000    0.000    0.000    0.000    0.000 
#
# Total GULP energy -111381.420543 kJ/mol
# GULP energy per Si atom -5569.071027 kJ/mol
# Density = 2.059805 g / cm^3
# Si number density = 20.645040 Si / 1000 Ang^3
#
#
#
# Elastic Constant Matrix: (Units=GPa)
#
#
# Indices 1 2 3 4 5 6 
#
# 1 119.8310 61.0836 49.1058 0.0000 0.0000 0.0000
# 2 61.0836 122.0036 58.4287 0.0000 0.0000 0.0000
# 3 49.1058 58.4287 92.9003 0.0000 0.0000 0.0000
# 4 0.0000 0.0000 0.0000 24.4373 0.0000 0.0000
# 5 0.0000 0.0000 0.0000 0.0000 25.8234 0.0000
# 6 0.0000 0.0000 0.0000 0.0000 0.0000 21.9230
#
#
#
# Elastic Compliance Matrix: (Units=1/GPa)
#
#
# Indices 1 2 3 4 5 6 
#
# 1 0.012023 -0.004259 -0.003677 0.000000 0.000000 0.000000
# 2 -0.004259 0.013238 -0.006075 0.000000 0.000000 0.000000
# 3 -0.003677 -0.006075 0.016528 0.000000 0.000000 0.000000
# 4 0.000000 0.000000 0.000000 0.040921 0.000000 0.000000
# 5 0.000000 0.000000 0.000000 0.000000 0.038725 0.000000
# 6 0.000000 0.000000 0.000000 0.000000 0.000000 0.045614
#
#
# Mechanical properties :
#
#
# Convention : Reuss Voigt Hill
#
# Bulk Modulus (GPa) = 72.62784 74.66345 73.64565
# Shear Modulus (GPa) = 25.04282 25.51119 25.27701
#
# Velocity S-wave (km/s) = 3.48662 3.51907 3.50288
# Velocity P-wave (km/s) = 7.17387 7.26331 7.21873
#
# Compressibility (1/GPa) = 0.01376882
#
# Stress axis : x y z
#
# Youngs Moduli (GPa) = 83.17729 75.54060 60.50235
#
# Poissons Ratio (x) = 0.32170 0.22244
# Poissons Ratio (y) = 0.35422 0.36754
# Poissons Ratio (z) = 0.30580 0.45890
#
# Static dielectric constant tensor:
#      x y z
#    x 2.026330 0.000000 0.000000 
#    y 0.000000 1.811610 0.000000 
#    z 0.000000 0.000000 1.807220 
# 
# From -- ./inp_files/9656.got.cif
#   From: 2010.05.17/outbox.cif.g08.bks.cpg/sg23_5_cif.got.tgz:9656.got - 2010.06.04 12:02:01.
