data_PCOD9330295
_publ_section_title
;
Structure prediction by ZEFSAII (Michael W. Deem and Ramdas Pophale) SiO2 
 PCOD9330295
Probable space group: I 2 2 2
;
_chemical_formula_sum "Si O2"
_cell_formula_units_Z 44
_cell_length_a 8.238050
_cell_length_b 14.515154
_cell_length_c 18.353229
_cell_angle_alpha 90.000000
_cell_angle_beta 90.000000
_cell_angle_gamma 90.000000
_cell_volume 2194.616070
_symmetry_space_group_name_H-M "I 2 2 2"
_symmetry_group_IT_number 23
_symmetry_cell_setting 'orthorhombic'
loop_
_space_group_symop_operation_xyz
x,y,z
-x,-y,z
x,-y,-z
-x,y,-z
1/2+x,1/2+y,1/2+z
1/2-x,1/2-y,1/2+z
1/2+x,1/2-y,1/2-z
1/2-x,1/2+y,1/2-z
loop_
_atom_site_type_symbol
_atom_site_label
_atom_site_fract_x
_atom_site_fract_y
_atom_site_fract_z
Si Si1 0.646767 0.346234 0.103304
Si Si2 0.803222 0.150085 0.912983
Si Si3 0.000000 0.000000 0.500000
Si Si4 0.000000 0.303833 0.500000
Si Si5 0.500000 0.500000 0.500000
Si Si6 0.515773 0.156638 0.419196
Si Si7 0.155262 0.931780 0.757215
Si Si8 0.000000 0.500000 0.194746
O O1 0.555058 0.263085 0.065388
O O2 0.833538 0.316553 0.102167
O O3 0.604707 0.373757 0.185436
O O4 0.608773 0.434814 0.051947
O O5 0.910648 0.070296 0.946991
O O6 0.806525 0.130850 0.827102
O O7 0.870983 0.253833 0.924412
O O8 0.640703 0.140700 0.960645
O O9 0.500000 0.115411 0.500000
O O10 0.559820 0.081989 0.358805
O O11 0.333956 0.975213 0.737912
O O12 0.000000 0.000000 0.770494
#
# Coordination Sequence:
#
# PCOD9330295 Si02
#       8
#     8   8   2   4   2   8   8   4
#     4  10  22  38  67 103 142 182 227 297 367 436
#     4  12  26  46  70 101 139 193 246 298 359 433
#     4  10  20  34  66 106 144 178 232 286 360 442
#     4  11  24  42  68 107 136 182 248 302 364 434
#     4  12  24  48  68  94 132 188 256 284 332 446
#     4  11  22  42  69 103 139 184 237 290 357 426
#     4  11  25  46  69 102 147 190 232 302 371 430
#     4  10  27  42  68 115 140 186 236 292 380 439
#
# _framework density 20.049064000000001
#
# number of rings (size 3 to 8) (size 9 to 14) (size 15 to 20)
#    0.000    1.091    4.545    0.273    7.636    4.727 
#    3.273    0.000    0.000    0.000    0.000    0.000 
#    0.000    0.000    0.000    0.000    0.000    0.000 
#
# Total GULP energy -122684.499883 kJ/mol
# GULP energy per Si atom -5576.568177 kJ/mol
# Density = 2.000343 g / cm^3
# Si number density = 20.049064 Si / 1000 Ang^3
#
#
#
# Elastic Constant Matrix: (Units=GPa)
#
#
# Indices 1 2 3 4 5 6 
#
# 1 71.3564 16.1485 44.3416 0.0000 0.0000 0.0000
# 2 16.1485 48.1560 46.8523 0.0000 0.0000 0.0000
# 3 44.3416 46.8523 137.9294 0.0000 0.0000 0.0000
# 4 0.0000 0.0000 0.0000 -12.6010 0.0000 0.0000
# 5 0.0000 0.0000 0.0000 0.0000 -135.1255 0.0000
# 6 0.0000 0.0000 0.0000 0.0000 0.0000 667.0089
#
#
#
# Elastic Compliance Matrix: (Units=1/GPa)
#
#
# Indices 1 2 3 4 5 6 
#
# 1 0.017524 -0.000590 -0.005433 0.000000 0.000000 0.000000
# 2 -0.000590 0.031036 -0.010353 0.000000 0.000000 0.000000
# 3 -0.005433 -0.010353 0.012513 0.000000 0.000000 0.000000
# 4 0.000000 0.000000 0.000000 -0.079359 0.000000 0.000000
# 5 0.000000 0.000000 0.000000 0.000000 -0.007401 0.000000
# 6 0.000000 0.000000 0.000000 0.000000 0.000000 0.001499
#
#
# Mechanical properties :
#
#
# Convention : Reuss Voigt Hill
#
# Bulk Modulus (GPa) = 35.30927 52.45852 43.88390
# Shear Modulus (GPa) = 277.68574 113.86312 195.77443
#
# Velocity S-wave (km/s) = 11.78150 7.54424 9.89240
# Velocity P-wave (km/s) = 14.23802 10.10491 12.34566
#
# Compressibility (1/GPa) = 0.02832117
#
# Stress axis : x y z
#
# Youngs Moduli (GPa) = 57.06485 32.22036 79.91474
#
# Poissons Ratio (x) = 0.01903 0.43418
# Poissons Ratio (y) = 0.03369 0.82733
# Poissons Ratio (z) = 0.31004 0.33357
#
# Static dielectric constant tensor:
#      x y z
#    x 1.752250 0.000000 0.000000 
#    y 0.000000 2.001010 0.000000 
#    z 0.000000 0.000000 -0.144160 
# 
# From -- ./inp_files/11024.got.cif
#   From: 2010.05.17/outbox.cif.g08.bks.cpg/sg23_6_cif.got.tgz:11024.got - 2010.06.04 12:02:01.
