data_PCOD9330348
_publ_section_title
;
Structure prediction by ZEFSAII (Michael W. Deem and Ramdas Pophale) SiO2 
 PCOD9330348
Probable space group: I 2 2 2
;
_chemical_formula_sum "Si O2"
_cell_formula_units_Z 40
_cell_length_a 14.035409
_cell_length_b 12.139840
_cell_length_c 9.994158
_cell_angle_alpha 90.000000
_cell_angle_beta 90.000000
_cell_angle_gamma 90.000000
_cell_volume 1702.880791
_symmetry_space_group_name_H-M "I 2 2 2"
_symmetry_group_IT_number 23
_symmetry_cell_setting 'orthorhombic'
loop_
_space_group_symop_operation_xyz
x,y,z
-x,-y,z
x,-y,-z
-x,y,-z
1/2+x,1/2+y,1/2+z
1/2-x,1/2-y,1/2+z
1/2+x,1/2-y,1/2-z
1/2-x,1/2+y,1/2-z
loop_
_atom_site_type_symbol
_atom_site_label
_atom_site_fract_x
_atom_site_fract_y
_atom_site_fract_z
Si Si1 0.105867 0.280970 0.707106
Si Si2 0.643115 0.165178 0.492888
Si Si3 0.434077 0.102491 0.770604
Si Si4 0.283274 0.396332 0.597443
Si Si5 0.276787 0.568669 0.795754
O O1 0.176857 0.345015 0.607434
O O2 0.141120 0.157257 0.727621
O O3 0.994962 0.295488 0.674922
O O4 0.125564 0.339424 0.850962
O O5 0.568018 0.112795 0.390782
O O6 0.653616 0.292705 0.447088
O O7 0.738213 0.102428 0.442196
O O8 0.320488 0.095566 0.792920
O O9 0.500000 0.000000 0.812541
O O10 0.295417 0.500000 0.500000
O O11 0.305330 0.448743 0.743743
#
# Coordination Sequence:
#
# PCOD9330348 Si02
#       5
#     8   8   8   8   8
#     4  11  19  37  60  81 127 145 196 254 285 352
#     4   9  21  34  60  89 114 153 201 248 299 343
#     4  10  20  35  59  93 112 148 199 247 300 343
#     4  11  20  37  59  82 123 157 194 231 302 366
#     4   9  21  35  56  85 118 158 188 240 302 348
#
# _framework density 23.489605000000001
#
# number of rings (size 3 to 8) (size 9 to 14) (size 15 to 20)
#    1.200    0.800    4.000    0.600    0.000    4.000 
#    0.000    3.000    0.000    0.000    0.000    0.000 
#   12.000    0.000    0.000    0.000    0.000    0.000 
#
# Total GULP energy -111363.369689 kJ/mol
# GULP energy per Si atom -5568.168484 kJ/mol
# Density = 2.343614 g / cm^3
# Si number density = 23.489605 Si / 1000 Ang^3
#
#
#
# Elastic Constant Matrix: (Units=GPa)
#
#
# Indices 1 2 3 4 5 6 
#
# 1 68.4951 24.4280 -20.4734 0.0000 0.0000 0.0000
# 2 24.4280 130.6621 3.1396 0.0000 0.0000 0.0000
# 3 -20.4734 3.1396 58.3823 0.0000 0.0000 0.0000
# 4 0.0000 0.0000 0.0000 36.9017 0.0000 0.0000
# 5 0.0000 0.0000 0.0000 0.0000 7.8293 0.0000
# 6 0.0000 0.0000 0.0000 0.0000 0.0000 23.2133
#
#
#
# Elastic Compliance Matrix: (Units=1/GPa)
#
#
# Indices 1 2 3 4 5 6 
#
# 1 0.017755 -0.003474 0.006413 0.000000 0.000000 0.000000
# 2 -0.003474 0.008343 -0.001667 0.000000 0.000000 0.000000
# 3 0.006413 -0.001667 0.019467 0.000000 0.000000 0.000000
# 4 0.000000 0.000000 0.000000 0.027099 0.000000 0.000000
# 5 0.000000 0.000000 0.000000 0.000000 0.127726 0.000000
# 6 0.000000 0.000000 0.000000 0.000000 0.000000 0.043079
#
#
# Mechanical properties :
#
#
# Convention : Reuss Voigt Hill
#
# Bulk Modulus (GPa) = 20.78527 30.19199 25.48863
# Shear Modulus (GPa) = 19.45825 30.28519 24.87172
#
# Velocity S-wave (km/s) = 2.88128 3.59458 3.25751
# Velocity P-wave (km/s) = 4.46508 5.48719 5.00231
#
# Compressibility (1/GPa) = 0.04811099
#
# Stress axis : x y z
#
# Youngs Moduli (GPa) = 56.32111 119.86413 51.36878
#
# Poissons Ratio (x) = 0.41636 -0.32944
# Poissons Ratio (y) = 0.19563 0.08562
# Poissons Ratio (z) = -0.36120 0.19978
#
# Static dielectric constant tensor:
#      x y z
#    x 1.930840 0.000000 0.000000 
#    y 0.000000 1.940810 0.000000 
#    z 0.000000 0.000000 1.982230 
# 
# From -- ./inp_files/21435.got.cif
#   From: 2010.05.17/outbox.cif.g08.bks.cpg/sg23_11_cif.got.tgz:21435.got - 2010.06.04 12:02:01.
