data_PCOD9330861
_publ_section_title
;
Structure prediction by ZEFSAII (Michael W. Deem and Ramdas Pophale) SiO2 
 PCOD9330861
Probable space group: I 2 2 2
;
_chemical_formula_sum "Si O2"
_cell_formula_units_Z 44
_cell_length_a 13.892039
_cell_length_b 11.467765
_cell_length_c 13.323397
_cell_angle_alpha 90.000000
_cell_angle_beta 90.000000
_cell_angle_gamma 90.000000
_cell_volume 2122.558885
_symmetry_space_group_name_H-M "I 2 2 2"
_symmetry_group_IT_number 23
_symmetry_cell_setting 'orthorhombic'
loop_
_space_group_symop_operation_xyz
x,y,z
-x,-y,z
x,-y,-z
-x,y,-z
1/2+x,1/2+y,1/2+z
1/2-x,1/2-y,1/2+z
1/2+x,1/2-y,1/2-z
1/2-x,1/2+y,1/2-z
loop_
_atom_site_type_symbol
_atom_site_label
_atom_site_fract_x
_atom_site_fract_y
_atom_site_fract_z
Si Si1 0.859076 0.110864 0.647540
Si Si2 0.437048 0.647212 0.814090
Si Si3 0.231191 0.000000 0.000000
Si Si4 0.178962 0.634356 0.007746
Si Si5 0.745041 0.804792 0.154188
Si Si6 0.427953 0.340292 0.410307
O O1 0.783835 0.135036 0.559580
O O2 0.804258 0.148976 0.749784
O O3 0.962412 0.171968 0.630851
O O4 0.888321 0.974383 0.652573
O O5 0.354287 0.743072 0.817043
O O6 0.469013 0.634733 0.698125
O O7 0.164818 0.920136 0.071449
O O8 0.278763 0.091488 0.075712
O O9 0.105668 0.707404 0.075908
O O10 0.150038 0.500000 0.000000
O O11 0.190514 0.708386 0.905312
O O12 0.500000 0.367156 0.500000
#
# Coordination Sequence:
#
# PCOD9330861 Si02
#       6
#     8   8   4   8   8   8
#     4  11  23  41  63  98 129 167 223 267 324 390
#     4  11  22  39  68  92 128 172 216 270 320 390
#     4  10  21  36  64  93 132 164 208 269 317 384
#     4  11  23  40  62  91 136 173 210 270 323 384
#     4  11  22  41  66  95 132 170 215 272 329 378
#     4  11  22  37  64  98 126 167 217 264 322 379
#
# _framework density 20.729696000000001
#
# number of rings (size 3 to 8) (size 9 to 14) (size 15 to 20)
#    0.000    1.091    5.455    2.455    2.545    1.091 
#    0.000    0.000    0.000   16.364    0.000    0.000 
#    0.000    0.000    0.000    0.000    0.000    0.000 
#
# Total GULP energy -122939.958676 kJ/mol
# GULP energy per Si atom -5588.179940 kJ/mol
# Density = 2.068251 g / cm^3
# Si number density = 20.729696 Si / 1000 Ang^3
#
#
#
# Elastic Constant Matrix: (Units=GPa)
#
#
# Indices 1 2 3 4 5 6 
#
# 1 75.7641 25.2163 -2.2945 0.0000 0.0000 0.0000
# 2 25.2163 110.5131 10.1641 0.0000 0.0000 0.0000
# 3 -2.2945 10.1641 48.2412 0.0000 0.0000 0.0000
# 4 0.0000 0.0000 0.0000 24.6614 0.0000 0.0000
# 5 0.0000 0.0000 0.0000 0.0000 23.1596 0.0000
# 6 0.0000 0.0000 0.0000 0.0000 0.0000 30.3414
#
#
#
# Elastic Compliance Matrix: (Units=1/GPa)
#
#
# Indices 1 2 3 4 5 6 
#
# 1 0.014376 -0.003409 0.001402 0.000000 0.000000 0.000000
# 2 -0.003409 0.010036 -0.002277 0.000000 0.000000 0.000000
# 3 0.001402 -0.002277 0.021276 0.000000 0.000000 0.000000
# 4 0.000000 0.000000 0.000000 0.040549 0.000000 0.000000
# 5 0.000000 0.000000 0.000000 0.000000 0.043179 0.000000
# 6 0.000000 0.000000 0.000000 0.000000 0.000000 0.032958
#
#
# Mechanical properties :
#
#
# Convention : Reuss Voigt Hill
#
# Bulk Modulus (GPa) = 26.93971 33.41002 30.17487
# Shear Modulus (GPa) = 27.27551 29.06129 28.16840
#
# Velocity S-wave (km/s) = 3.63129 3.74828 3.69025
# Velocity P-wave (km/s) = 5.53223 5.90633 5.72234
#
# Compressibility (1/GPa) = 0.03711993
#
# Stress axis : x y z
#
# Youngs Moduli (GPa) = 69.56043 99.64148 47.00231
#
# Poissons Ratio (x) = 0.33970 -0.06590
# Poissons Ratio (y) = 0.23714 0.10701
# Poissons Ratio (z) = -0.09753 0.22685
#
# Static dielectric constant tensor:
#      x y z
#    x 1.749900 0.000000 0.000000 
#    y 0.000000 1.754520 0.000000 
#    z 0.000000 0.000000 1.766490 
# 
# From -- ./inp_files/16625.got.cif
#   From: 2010.05.17/outbox.cif.g08.bks.cpg/sg23_9_cif.got.tgz:16625.got - 2010.06.04 12:02:01.
