data_PCOD9330373
_publ_section_title
;
Structure prediction by ZEFSAII (Michael W. Deem and Ramdas Pophale) SiO2 
 PCOD9330373
Probable space group: I 2 2 2
;
_chemical_formula_sum "Si O2"
_cell_formula_units_Z 58
_cell_length_a 21.142897
_cell_length_b 9.066676
_cell_length_c 10.962767
_cell_angle_alpha 90.000000
_cell_angle_beta 90.000000
_cell_angle_gamma 90.000000
_cell_volume 2101.516355
_symmetry_space_group_name_H-M "I 2 2 2"
_symmetry_group_IT_number 23
_symmetry_cell_setting 'orthorhombic'
loop_
_space_group_symop_operation_xyz
x,y,z
-x,-y,z
x,-y,-z
-x,y,-z
1/2+x,1/2+y,1/2+z
1/2-x,1/2-y,1/2+z
1/2+x,1/2-y,1/2-z
1/2-x,1/2+y,1/2-z
loop_
_atom_site_type_symbol
_atom_site_label
_atom_site_fract_x
_atom_site_fract_y
_atom_site_fract_z
Si Si1 0.111124 0.927071 0.679414
Si Si2 0.886650 0.501889 0.833314
Si Si3 0.128407 0.209208 0.053405
Si Si4 0.444564 0.319998 0.321906
Si Si5 0.603427 0.139499 0.066255
Si Si6 0.767154 0.324179 0.415150
Si Si7 0.744714 0.479786 0.800626
Si Si8 0.000000 0.000000 0.000000
O O1 0.126602 0.859496 0.812571
O O2 0.077403 0.804548 0.595059
O O3 0.183118 0.951731 0.635344
O O4 0.075138 0.081160 0.706638
O O5 0.901738 0.372908 0.930383
O O6 0.929253 0.647619 0.812710
O O7 0.886728 0.422139 0.701913
O O8 0.811987 0.528555 0.854917
O O9 0.202380 0.214459 0.017984
O O10 0.097854 0.129482 0.937930
O O11 0.508654 0.373113 0.388007
O O12 0.667906 0.164626 0.988676
O O13 0.570559 0.000000 0.000000
O O14 0.752865 0.472330 0.339600
O O15 0.768774 0.193569 0.314572
#
# Coordination Sequence:
#
# PCOD9330373 Si02
#       8
#     8   8   8   8   8   8   8   2
#     4  10  22  36  61  90 137 183 233 285 354 419
#     4  10  22  38  62  93 141 182 235 288 358 433
#     4   9  20  38  61  89 133 182 219 290 352 415
#     4  12  23  45  68  98 132 170 237 310 377 447
#     4  11  23  39  55  89 140 188 239 277 338 425
#     4  10  21  34  56  85 136 193 235 275 324 411
#     4  10  20  36  54  92 136 192 242 272 334 420
#     4  12  28  48  78 104 130 180 246 320 420 418
#
# _framework density 27.599118000000001
#
# number of rings (size 3 to 8) (size 9 to 14) (size 15 to 20)
#    0.000    1.655    2.759    2.069    3.862    0.552 
#    0.000    1.379    0.000    0.000    0.000    2.897 
#    0.000    0.000    0.000    0.000    0.000    0.000 
#
# Total GULP energy -161755.734083 kJ/mol
# GULP energy per Si atom -5577.783934 kJ/mol
# Density = 2.753630 g / cm^3
# Si number density = 27.599118 Si / 1000 Ang^3
#
#
#
# Elastic Constant Matrix: (Units=GPa)
#
#
# Indices 1 2 3 4 5 6 
#
# 1 68.8276 27.5039 15.4354 0.0000 0.0000 0.0000
# 2 27.5039 208.9543 60.9158 0.0000 0.0000 0.0000
# 3 15.4354 60.9158 102.0797 0.0000 0.0000 0.0000
# 4 0.0000 0.0000 0.0000 75.8975 0.0000 0.0000
# 5 0.0000 0.0000 0.0000 0.0000 21.8880 0.0000
# 6 0.0000 0.0000 0.0000 0.0000 0.0000 41.8338
#
#
#
# Elastic Compliance Matrix: (Units=1/GPa)
#
#
# Indices 1 2 3 4 5 6 
#
# 1 0.015491 -0.001642 -0.001363 0.000000 0.000000 0.000000
# 2 -0.001642 0.005968 -0.003313 0.000000 0.000000 0.000000
# 3 -0.001363 -0.003313 0.011979 0.000000 0.000000 0.000000
# 4 0.000000 0.000000 0.000000 0.013176 0.000000 0.000000
# 5 0.000000 0.000000 0.000000 0.000000 0.045687 0.000000
# 6 0.000000 0.000000 0.000000 0.000000 0.000000 0.023904
#
#
# Mechanical properties :
#
#
# Convention : Reuss Voigt Hill
#
# Bulk Modulus (GPa) = 48.06994 65.28576 56.67785
# Shear Modulus (GPa) = 36.82607 46.32430 41.57519
#
# Velocity S-wave (km/s) = 3.65680 4.10136 3.88544
# Velocity P-wave (km/s) = 5.94008 6.79224 6.38040
#
# Compressibility (1/GPa) = 0.02080302
#
# Stress axis : x y z
#
# Youngs Moduli (GPa) = 64.55489 167.57046 83.47743
#
# Poissons Ratio (x) = 0.27511 0.11375
# Poissons Ratio (y) = 0.10598 0.27655
# Poissons Ratio (z) = 0.08796 0.55515
#
# Static dielectric constant tensor:
#      x y z
#    x 1.357100 0.000000 0.000000 
#    y 0.000000 2.250990 0.000000 
#    z 0.000000 0.000000 2.090460 
# 
# From -- ./inp_files/18638.got.cif
#   From: 2010.05.17/outbox.cif.g08.bks.cpg/sg23_10_cif.got.tgz:18638.got - 2010.06.04 12:02:01.
