data_PCOD9330681
_publ_section_title
;
Structure prediction by ZEFSAII (Michael W. Deem and Ramdas Pophale) SiO2 
 PCOD9330681
Probable space group: I 2 2 2
;
_chemical_formula_sum "Si O2"
_cell_formula_units_Z 48
_cell_length_a 15.023650
_cell_length_b 7.422840
_cell_length_c 19.115030
_cell_angle_alpha 90.000000
_cell_angle_beta 90.000000
_cell_angle_gamma 90.000000
_cell_volume 2131.672786
_symmetry_space_group_name_H-M "I 2 2 2"
_symmetry_group_IT_number 23
_symmetry_cell_setting 'orthorhombic'
loop_
_space_group_symop_operation_xyz
x,y,z
-x,-y,z
x,-y,-z
-x,y,-z
1/2+x,1/2+y,1/2+z
1/2-x,1/2-y,1/2+z
1/2+x,1/2-y,1/2-z
1/2-x,1/2+y,1/2-z
loop_
_atom_site_type_symbol
_atom_site_label
_atom_site_fract_x
_atom_site_fract_y
_atom_site_fract_z
Si Si1 0.500000 0.000000 0.000000
Si Si2 0.732759 0.469221 0.166712
Si Si3 0.354934 0.767382 0.421642
Si Si4 0.600017 0.983294 0.744342
Si Si5 0.227894 0.000000 0.000000
Si Si6 0.102052 0.935399 0.787429
Si Si7 0.000000 0.500000 0.000000
Si Si8 0.362895 0.117733 0.893118
O O1 0.441594 0.125698 0.949346
O O2 0.774435 0.617084 0.113477
O O3 0.825142 0.406865 0.203823
O O4 0.669396 0.532015 0.232197
O O5 0.679059 0.310141 0.128110
O O6 0.325987 0.681202 0.494734
O O7 0.379641 0.597824 0.370165
O O8 0.437748 0.887928 0.445821
O O9 0.617870 0.771996 0.734389
O O10 0.606627 0.000764 0.827143
O O11 0.500000 0.000000 0.718638
O O12 0.288443 0.004909 0.932313
O O13 0.000000 0.000000 0.777063
#
# Coordination Sequence:
#
# PCOD9330681 Si02
#       8
#     2   8   8   8   4   8   2   8
#     4  10  20  40  70 108 140 188 232 280 348 416
#     4  10  23  45  66 102 136 184 227 294 369 413
#     4  11  26  45  67 102 137 191 242 288 360 432
#     4  10  21  38  67  98 132 176 224 291 350 412
#     4  11  24  40  70  95 130 192 230 293 344 435
#     4  10  24  41  67 102 131 175 229 305 360 414
#     4  12  28  46  66 100 150 198 232 294 348 438
#     4  10  21  41  67  98 137 177 234 284 350 429
#
# _framework density 22.517527999999999
#
# number of rings (size 3 to 8) (size 9 to 14) (size 15 to 20)
#    0.000    1.667    0.833    2.000    7.000    6.667 
#    3.000    0.000    0.000    0.000    0.000    0.000 
#    0.000    0.000    0.000    0.000    0.000    0.000 
#
# Total GULP energy -133649.869209 kJ/mol
# GULP energy per Si atom -5568.744550 kJ/mol
# Density = 2.246628 g / cm^3
# Si number density = 22.517528 Si / 1000 Ang^3
#
#
#
# Elastic Constant Matrix: (Units=GPa)
#
#
# Indices 1 2 3 4 5 6 
#
# 1 164.7987 39.7807 57.5626 0.0000 0.0000 0.0000
# 2 39.7807 72.9754 24.8261 0.0000 0.0000 0.0000
# 3 57.5626 24.8261 102.1072 0.0000 0.0000 0.0000
# 4 0.0000 0.0000 0.0000 3.9122 0.0000 0.0000
# 5 0.0000 0.0000 0.0000 0.0000 14.4074 0.0000
# 6 0.0000 0.0000 0.0000 0.0000 0.0000 21.8129
#
#
#
# Elastic Compliance Matrix: (Units=1/GPa)
#
#
# Indices 1 2 3 4 5 6 
#
# 1 0.008169 -0.003147 -0.003840 0.000000 0.000000 0.000000
# 2 -0.003147 0.016151 -0.002153 0.000000 0.000000 0.000000
# 3 -0.003840 -0.002153 0.012482 0.000000 0.000000 0.000000
# 4 0.000000 0.000000 0.000000 0.255609 0.000000 0.000000
# 5 0.000000 0.000000 0.000000 0.000000 0.069409 0.000000
# 6 0.000000 0.000000 0.000000 0.000000 0.000000 0.045844
#
#
# Mechanical properties :
#
#
# Convention : Reuss Voigt Hill
#
# Bulk Modulus (GPa) = 53.98892 64.91335 59.45113
# Shear Modulus (GPa) = 11.57092 22.54064 17.05578
#
# Velocity S-wave (km/s) = 2.26931 3.16733 2.75516
# Velocity P-wave (km/s) = 5.55831 6.50127 6.04819
#
# Compressibility (1/GPa) = 0.01852232
#
# Stress axis : x y z
#
# Youngs Moduli (GPa) = 122.41549 61.91555 80.11566
#
# Poissons Ratio (x) = 0.19483 0.30765
# Poissons Ratio (y) = 0.38520 0.17249
# Poissons Ratio (z) = 0.47009 0.13330
#
# Static dielectric constant tensor:
#      x y z
#    x 1.925730 0.000000 0.000000 
#    y 0.000000 1.900450 0.000000 
#    z 0.000000 0.000000 2.024500 
# 
# From -- ./inp_files/24786.got.cif
#   From: 2010.05.17/outbox.cif.g08.bks.cpg/sg23_13_cif.got.tgz:24786.got - 2010.06.04 12:02:01.
