data_PCOD9330094
_publ_section_title
;
Structure prediction by ZEFSAII (Michael W. Deem and Ramdas Pophale) SiO2 
 PCOD9330094
Probable space group: I 2 2 2
;
_chemical_formula_sum "Si O2"
_cell_formula_units_Z 44
_cell_length_a 19.072712
_cell_length_b 12.498993
_cell_length_c 9.258870
_cell_angle_alpha 90.000000
_cell_angle_beta 90.000000
_cell_angle_gamma 90.000000
_cell_volume 2207.219184
_symmetry_space_group_name_H-M "I 2 2 2"
_symmetry_group_IT_number 23
_symmetry_cell_setting 'orthorhombic'
loop_
_space_group_symop_operation_xyz
x,y,z
-x,-y,z
x,-y,-z
-x,y,-z
1/2+x,1/2+y,1/2+z
1/2-x,1/2-y,1/2+z
1/2+x,1/2-y,1/2-z
1/2-x,1/2+y,1/2-z
loop_
_atom_site_type_symbol
_atom_site_label
_atom_site_fract_x
_atom_site_fract_y
_atom_site_fract_z
Si Si1 0.698500 0.821098 0.413067
Si Si2 0.357780 0.500000 0.500000
Si Si3 0.820173 0.761254 0.595341
Si Si4 0.191774 0.993130 0.684428
Si Si5 0.927676 0.226378 0.928946
Si Si6 0.932993 0.163936 0.598095
O O1 0.755122 0.740015 0.487481
O O2 0.676084 0.791463 0.250926
O O3 0.742620 0.928226 0.378437
O O4 0.633305 0.808961 0.522268
O O5 0.311571 0.507052 0.356780
O O6 0.404125 0.609193 0.493154
O O7 0.889808 0.753511 0.501267
O O8 0.809783 0.885515 0.636759
O O9 0.120459 0.933567 0.633136
O O10 0.942266 0.212381 0.758122
O O11 0.000000 0.258901 0.000000
O O12 0.000000 0.133888 0.500000
#
# Coordination Sequence:
#
# PCOD9330094 Si02
#       6
#     8   4   8   8   8   8
#     4  11  21  36  58  84 117 159 201 241 299 363
#     4  10  19  38  54  90 118 161 194 246 309 364
#     4  11  21  37  56  84 119 154 197 248 295 361
#     4  10  22  36  58  86 123 157 202 245 300 365
#     4  11  22  38  57  85 120 158 199 249 304 370
#     4  10  21  35  54  83 117 159 191 234 304 367
#
# _framework density 19.934584999999998
#
# number of rings (size 3 to 8) (size 9 to 14) (size 15 to 20)
#    0.000    1.455    1.818    6.818    0.000    1.455 
#    3.273    0.000    0.000    2.182    0.000    0.000 
#    0.000    0.000    0.000    0.000    0.000    0.000 
#
# Total GULP energy -122594.492256 kJ/mol
# GULP energy per Si atom -5572.476921 kJ/mol
# Density = 1.988921 g / cm^3
# Si number density = 19.934585 Si / 1000 Ang^3
#
#
#
# Elastic Constant Matrix: (Units=GPa)
#
#
# Indices 1 2 3 4 5 6 
#
# 1 118.7486 34.5676 49.2938 0.0000 0.0000 0.0000
# 2 34.5676 29.3355 32.0518 0.0000 0.0000 0.0000
# 3 49.2938 32.0518 179.2704 0.0000 0.0000 0.0000
# 4 0.0000 0.0000 0.0000 26.1081 0.0000 0.0000
# 5 0.0000 0.0000 0.0000 0.0000 37.0481 0.0000
# 6 0.0000 0.0000 0.0000 0.0000 0.0000 12.1823
#
#
#
# Elastic Compliance Matrix: (Units=1/GPa)
#
#
# Indices 1 2 3 4 5 6 
#
# 1 0.012971 -0.014152 -0.001036 0.000000 0.000000 0.000000
# 2 -0.014152 0.057805 -0.006444 0.000000 0.000000 0.000000
# 3 -0.001036 -0.006444 0.007015 0.000000 0.000000 0.000000
# 4 0.000000 0.000000 0.000000 0.038302 0.000000 0.000000
# 5 0.000000 0.000000 0.000000 0.000000 0.026992 0.000000
# 6 0.000000 0.000000 0.000000 0.000000 0.000000 0.082087
#
#
# Mechanical properties :
#
#
# Convention : Reuss Voigt Hill
#
# Bulk Modulus (GPa) = 28.96286 62.13121 45.54703
# Shear Modulus (GPa) = 17.86063 29.16375 23.51219
#
# Velocity S-wave (km/s) = 2.99651 3.82903 3.43806
# Velocity P-wave (km/s) = 5.15098 7.12628 6.21757
#
# Compressibility (1/GPa) = 0.03452698
#
# Stress axis : x y z
#
# Youngs Moduli (GPa) = 77.09470 17.29954 142.54799
#
# Poissons Ratio (x) = 0.24483 0.14773
# Poissons Ratio (y) = 1.09106 0.91852
# Poissons Ratio (z) = 0.07990 0.11147
#
# Static dielectric constant tensor:
#      x y z
#    x 1.735950 0.000000 0.000000 
#    y 0.000000 1.745740 0.000000 
#    z 0.000000 0.000000 1.785080 
# 
# From -- ./inp_files/10974.got.cif
#   From: 2010.05.17/outbox.cif.g08.bks.cpg/sg23_6_cif.got.tgz:10974.got - 2010.06.04 12:02:01.
