data_PCOD9330343
_publ_section_title
;
Structure prediction by ZEFSAII (Michael W. Deem and Ramdas Pophale) SiO2 
 PCOD9330343
Probable space group: I 2 2 2
;
_chemical_formula_sum "Si O2"
_cell_formula_units_Z 48
_cell_length_a 17.962312
_cell_length_b 12.975045
_cell_length_c 8.427414
_cell_angle_alpha 90.000000
_cell_angle_beta 90.000000
_cell_angle_gamma 90.000000
_cell_volume 1964.108331
_symmetry_space_group_name_H-M "I 2 2 2"
_symmetry_group_IT_number 23
_symmetry_cell_setting 'orthorhombic'
loop_
_space_group_symop_operation_xyz
x,y,z
-x,-y,z
x,-y,-z
-x,y,-z
1/2+x,1/2+y,1/2+z
1/2-x,1/2-y,1/2+z
1/2+x,1/2-y,1/2-z
1/2-x,1/2+y,1/2-z
loop_
_atom_site_type_symbol
_atom_site_label
_atom_site_fract_x
_atom_site_fract_y
_atom_site_fract_z
Si Si1 0.957984 0.232723 0.168996
Si Si2 0.425585 0.950279 0.818267
Si Si3 0.187394 0.176406 0.992229
Si Si4 0.394059 0.306686 0.820886
Si Si5 0.226349 0.118981 0.532888
Si Si6 0.188666 0.599463 0.668847
O O1 0.931913 0.331189 0.273773
O O2 0.887222 0.166730 0.113537
O O3 0.020710 0.177709 0.275565
O O4 0.000000 0.263069 0.000000
O O5 0.500000 0.000000 0.747261
O O6 0.350161 0.000635 0.757625
O O7 0.422455 0.000000 0.000000
O O8 0.218432 0.293275 0.963200
O O9 0.262611 0.107758 0.988891
O O10 0.155367 0.161580 0.169534
O O11 0.356522 0.356706 0.973469
O O12 0.376495 0.184568 0.836359
O O13 0.244571 0.134183 0.716669
O O14 0.240145 0.000000 0.500000
#
# Coordination Sequence:
#
# PCOD9330343 Si02
#       6
#     8   8   8   8   8   8
#     4  10  20  39  64  92 126 173 221 273 331 397
#     4  11  23  37  57  94 135 169 212 274 340 387
#     4   9  20  36  60  88 121 170 215 262 323 387
#     4   9  19  37  58  85 121 161 215 266 316 384
#     4  10  20  35  58  89 122 164 213 265 315 384
#     4  10  20  37  55  84 123 167 209 254 323 389
#
# _framework density 24.438569999999999
#
# number of rings (size 3 to 8) (size 9 to 14) (size 15 to 20)
#    0.000    2.167    1.667    1.000    0.000    7.000 
#    0.000    0.000    0.000    2.000    0.000    3.500 
#    0.000    2.667    0.000    0.000    0.000    0.000 
#
# Total GULP energy -133754.385578 kJ/mol
# GULP energy per Si atom -5573.099399 kJ/mol
# Density = 2.438295 g / cm^3
# Si number density = 24.438570 Si / 1000 Ang^3
#
#
#
# Elastic Constant Matrix: (Units=GPa)
#
#
# Indices 1 2 3 4 5 6 
#
# 1 137.1266 13.6651 22.2029 0.0000 0.0000 0.0000
# 2 13.6651 51.3683 -3.8714 0.0000 0.0000 0.0000
# 3 22.2029 -3.8714 33.1392 0.0000 0.0000 0.0000
# 4 0.0000 0.0000 0.0000 19.8763 0.0000 0.0000
# 5 0.0000 0.0000 0.0000 0.0000 45.6331 0.0000
# 6 0.0000 0.0000 0.0000 0.0000 0.0000 18.3568
#
#
#
# Elastic Compliance Matrix: (Units=1/GPa)
#
#
# Indices 1 2 3 4 5 6 
#
# 1 0.008543 -0.002728 -0.006042 0.000000 0.000000 0.000000
# 2 -0.002728 0.020511 0.004224 0.000000 0.000000 0.000000
# 3 -0.006042 0.004224 0.034717 0.000000 0.000000 0.000000
# 4 0.000000 0.000000 0.000000 0.050311 0.000000 0.000000
# 5 0.000000 0.000000 0.000000 0.000000 0.021914 0.000000
# 6 0.000000 0.000000 0.000000 0.000000 0.000000 0.054476
#
#
# Mechanical properties :
#
#
# Convention : Reuss Voigt Hill
#
# Bulk Modulus (GPa) = 18.28860 31.73635 25.01247
# Shear Modulus (GPa) = 22.95778 29.41573 26.18675
#
# Velocity S-wave (km/s) = 3.06830 3.47314 3.27698
# Velocity P-wave (km/s) = 4.47799 5.39426 4.95734
#
# Compressibility (1/GPa) = 0.05467887
#
# Stress axis : x y z
#
# Youngs Moduli (GPa) = 117.05898 48.75364 28.80398
#
# Poissons Ratio (x) = 0.13300 0.17404
# Poissons Ratio (y) = 0.31933 -0.12166
# Poissons Ratio (z) = 0.70729 -0.20593
#
# Static dielectric constant tensor:
#      x y z
#    x 1.994260 0.000000 0.000000 
#    y 0.000000 2.018110 0.000000 
#    z 0.000000 0.000000 2.165130 
# 
# From -- ./inp_files/11052.got.cif
#   From: 2010.05.17/outbox.cif.g08.bks.cpg/sg23_6_cif.got.tgz:11052.got - 2010.06.04 12:02:01.
