data_PCOD9330703
_publ_section_title
;
Structure prediction by ZEFSAII (Michael W. Deem and Ramdas Pophale) SiO2 
 PCOD9330703
Probable space group: I 2 2 2
;
_chemical_formula_sum "Si O2"
_cell_formula_units_Z 42
_cell_length_a 14.394348
_cell_length_b 10.595823
_cell_length_c 12.928119
_cell_angle_alpha 90.000000
_cell_angle_beta 90.000000
_cell_angle_gamma 90.000000
_cell_volume 1971.796239
_symmetry_space_group_name_H-M "I 2 2 2"
_symmetry_group_IT_number 23
_symmetry_cell_setting 'orthorhombic'
loop_
_space_group_symop_operation_xyz
x,y,z
-x,-y,z
x,-y,-z
-x,y,-z
1/2+x,1/2+y,1/2+z
1/2-x,1/2-y,1/2+z
1/2+x,1/2-y,1/2-z
1/2-x,1/2+y,1/2-z
loop_
_atom_site_type_symbol
_atom_site_label
_atom_site_fract_x
_atom_site_fract_y
_atom_site_fract_z
Si Si1 0.500000 0.500000 0.000000
Si Si2 0.164518 0.841214 0.912972
Si Si3 0.992002 0.801478 0.664768
Si Si4 0.371944 0.067831 0.104114
Si Si5 0.827219 0.682691 0.282490
Si Si6 0.623109 0.627654 0.357213
O O1 0.454728 0.403211 0.082079
O O2 0.274871 0.865264 0.926109
O O3 0.156454 0.725276 0.835035
O O4 0.132715 0.975779 0.864971
O O5 0.116787 0.827095 0.024249
O O6 0.944609 0.669244 0.640838
O O7 0.958892 0.839550 0.779075
O O8 0.102742 0.777804 0.657077
O O9 0.354956 0.959882 0.189292
O O10 0.401572 0.000000 0.000000
O O11 0.718663 0.688056 0.312135
#
# Coordination Sequence:
#
# PCOD9330703 Si02
#       6
#     2   8   8   8   8   8
#     4  12  28  40  66 106 132 166 216 282 348 378
#     4  10  20  41  67  92 128 170 225 264 333 398
#     4  12  25  42  65  98 137 165 218 276 328 401
#     4  11  21  41  67  94 126 175 219 273 329 393
#     4  11  22  39  65  97 127 172 222 270 327 392
#     4  10  22  41  65  93 129 176 215 272 330 392
#
# _framework density 21.300374000000001
#
# number of rings (size 3 to 8) (size 9 to 14) (size 15 to 20)
#    0.000    1.143    5.714    2.857    0.000    1.524 
#    0.000    2.857    0.000    2.286    0.000    0.000 
#    0.000    0.000    0.000    0.000    0.000    0.000 
#
# Total GULP energy -117313.722617 kJ/mol
# GULP energy per Si atom -5586.367744 kJ/mol
# Density = 2.125189 g / cm^3
# Si number density = 21.300374 Si / 1000 Ang^3
#
#
#
# Elastic Constant Matrix: (Units=GPa)
#
#
# Indices 1 2 3 4 5 6 
#
# 1 98.7624 18.9893 25.4082 0.0000 0.0000 0.0000
# 2 18.9893 67.5398 62.9187 0.0000 0.0000 0.0000
# 3 25.4082 62.9187 150.7618 0.0000 0.0000 0.0000
# 4 0.0000 0.0000 0.0000 44.1886 0.0000 0.0000
# 5 0.0000 0.0000 0.0000 0.0000 21.5524 0.0000
# 6 0.0000 0.0000 0.0000 0.0000 0.0000 20.3001
#
#
#
# Elastic Compliance Matrix: (Units=1/GPa)
#
#
# Indices 1 2 3 4 5 6 
#
# 1 0.010779 -0.002189 -0.000903 0.000000 0.000000 0.000000
# 2 -0.002189 0.024669 -0.009926 0.000000 0.000000 0.000000
# 3 -0.000903 -0.009926 0.010928 0.000000 0.000000 0.000000
# 4 0.000000 0.000000 0.000000 0.022630 0.000000 0.000000
# 5 0.000000 0.000000 0.000000 0.000000 0.046398 0.000000
# 6 0.000000 0.000000 0.000000 0.000000 0.000000 0.049261
#
#
# Mechanical properties :
#
#
# Convention : Reuss Voigt Hill
#
# Bulk Modulus (GPa) = 49.16883 59.07738 54.12310
# Shear Modulus (GPa) = 25.31892 31.19142 28.25517
#
# Velocity S-wave (km/s) = 3.45144 3.83085 3.64608
# Velocity P-wave (km/s) = 6.24635 6.88206 6.57190
#
# Compressibility (1/GPa) = 0.02033809
#
# Stress axis : x y z
#
# Youngs Moduli (GPa) = 92.77695 40.53716 91.51028
#
# Poissons Ratio (x) = 0.08875 0.08262
# Poissons Ratio (y) = 0.20313 0.90835
# Poissons Ratio (z) = 0.08376 0.40238
#
# Static dielectric constant tensor:
#      x y z
#    x 1.843920 0.000000 0.000000 
#    y 0.000000 1.740590 0.000000 
#    z 0.000000 0.000000 1.780730 
# 
# From -- ./inp_files/17351.got.cif
#   From: 2010.05.17/outbox.cif.g08.bks.cpg/sg23_9_cif.got.tgz:17351.got - 2010.06.04 12:02:01.
