data_PCOD9330719
_publ_section_title
;
Structure prediction by ZEFSAII (Michael W. Deem and Ramdas Pophale) SiO2 
 PCOD9330719
Probable space group: I 2 2 2
;
_chemical_formula_sum "Si O2"
_cell_formula_units_Z 56
_cell_length_a 13.972003
_cell_length_b 19.980463
_cell_length_c 8.637375
_cell_angle_alpha 90.000000
_cell_angle_beta 90.000000
_cell_angle_gamma 90.000000
_cell_volume 2411.270835
_symmetry_space_group_name_H-M "I 2 2 2"
_symmetry_group_IT_number 23
_symmetry_cell_setting 'orthorhombic'
loop_
_space_group_symop_operation_xyz
x,y,z
-x,-y,z
x,-y,-z
-x,y,-z
1/2+x,1/2+y,1/2+z
1/2-x,1/2-y,1/2+z
1/2+x,1/2-y,1/2-z
1/2-x,1/2+y,1/2-z
loop_
_atom_site_type_symbol
_atom_site_label
_atom_site_fract_x
_atom_site_fract_y
_atom_site_fract_z
Si Si1 0.247685 0.222020 0.906306
Si Si2 0.323124 0.000000 0.000000
Si Si3 0.394013 0.090404 0.242962
Si Si4 0.778376 0.086501 0.256007
Si Si5 0.192315 0.159866 0.240179
Si Si6 0.541882 0.226642 0.672724
Si Si7 0.165452 0.500000 0.000000
Si Si8 0.993059 0.132626 0.317954
O O1 0.266235 0.158363 0.795831
O O2 0.319626 0.283447 0.875450
O O3 0.152793 0.257730 0.847041
O O4 0.220351 0.196403 0.077698
O O5 0.390048 0.945164 0.920590
O O6 0.255066 0.035777 0.876541
O O7 0.283838 0.114236 0.267805
O O8 0.464758 0.152777 0.257362
O O9 0.401937 0.036745 0.377192
O O10 0.893051 0.099161 0.263198
O O11 0.732383 0.054167 0.409784
O O12 0.095023 0.116204 0.236301
O O13 0.500000 0.229102 0.500000
O O14 0.510964 0.288508 0.776575
O O15 0.000000 0.119760 0.500000
#
# Coordination Sequence:
#
# PCOD9330719 Si02
#       8
#     8   4   8   8   8   8   4   8
#     4  10  22  36  64  93 122 158 199 258 312 377
#     4  10  20  42  63  92 121 174 220 250 292 369
#     4  10  22  39  65  89 123 162 214 253 302 368
#     4  10  22  40  62  87 126 164 210 253 303 361
#     4  11  22  38  63  95 124 158 206 252 319 380
#     4  10  21  40  63  95 123 155 200 257 324 369
#     4  10  22  40  62  88 122 172 214 248 291 366
#     4  11  24  38  61  91 132 159 195 260 324 374
#
# _framework density 23.224270000000001
#
# number of rings (size 3 to 8) (size 9 to 14) (size 15 to 20)
#    0.000    1.714    2.857    0.857   10.000    0.000 
#    0.000    9.286    0.000    0.000    0.000    0.000 
#    0.000    0.000    0.000    0.000    0.000    0.000 
#
# Total GULP energy -156311.930470 kJ/mol
# GULP energy per Si atom -5582.568945 kJ/mol
# Density = 2.317141 g / cm^3
# Si number density = 23.224270 Si / 1000 Ang^3
#
#
#
# Elastic Constant Matrix: (Units=GPa)
#
#
# Indices 1 2 3 4 5 6 
#
# 1 72.4907 7.5246 4.9925 0.0000 0.0000 0.0000
# 2 7.5246 77.2330 21.8385 0.0000 0.0000 0.0000
# 3 4.9925 21.8385 100.4482 0.0000 0.0000 0.0000
# 4 0.0000 0.0000 0.0000 108.8707 0.0000 0.0000
# 5 0.0000 0.0000 0.0000 0.0000 7.5609 0.0000
# 6 0.0000 0.0000 0.0000 0.0000 0.0000 23.2997
#
#
#
# Elastic Compliance Matrix: (Units=1/GPa)
#
#
# Indices 1 2 3 4 5 6 
#
# 1 0.013953 -0.001239 -0.000424 0.000000 0.000000 0.000000
# 2 -0.001239 0.013906 -0.002962 0.000000 0.000000 0.000000
# 3 -0.000424 -0.002962 0.010620 0.000000 0.000000 0.000000
# 4 0.000000 0.000000 0.000000 0.009185 0.000000 0.000000
# 5 0.000000 0.000000 0.000000 0.000000 0.132259 0.000000
# 6 0.000000 0.000000 0.000000 0.000000 0.000000 0.042919
#
#
# Mechanical properties :
#
#
# Convention : Reuss Voigt Hill
#
# Bulk Modulus (GPa) = 34.21291 35.43145 34.82218
# Shear Modulus (GPa) = 20.67521 42.33402 31.50462
#
# Velocity S-wave (km/s) = 2.98693 4.27410 3.68712
# Velocity P-wave (km/s) = 5.16325 6.29655 5.75785
#
# Compressibility (1/GPa) = 0.02922874
#
# Stress axis : x y z
#
# Youngs Moduli (GPa) = 71.67055 71.91114 94.15872
#
# Poissons Ratio (x) = 0.08913 0.03992
# Poissons Ratio (y) = 0.08883 0.27887
# Poissons Ratio (z) = 0.03039 0.21298
#
# Static dielectric constant tensor:
#      x y z
#    x 1.916990 0.000000 0.000000 
#    y 0.000000 1.957510 0.000000 
#    z 0.000000 0.000000 1.968100 
# 
# From -- ./inp_files/10249.got.cif
#   From: 2010.05.17/outbox.cif.g08.bks.cpg/sg23_6_cif.got.tgz:10249.got - 2010.06.04 12:02:01.
