data_PCOD9330196
_publ_section_title
;
Structure prediction by ZEFSAII (Michael W. Deem and Ramdas Pophale) SiO2 
 PCOD9330196
Probable space group: I 2 2 2
;
_chemical_formula_sum "Si O2"
_cell_formula_units_Z 64
_cell_length_a 13.789688
_cell_length_b 27.589834
_cell_length_c 9.107136
_cell_angle_alpha 90.000000
_cell_angle_beta 90.000000
_cell_angle_gamma 90.000000
_cell_volume 3464.857274
_symmetry_space_group_name_H-M "I 2 2 2"
_symmetry_group_IT_number 23
_symmetry_cell_setting 'orthorhombic'
loop_
_space_group_symop_operation_xyz
x,y,z
-x,-y,z
x,-y,-z
-x,y,-z
1/2+x,1/2+y,1/2+z
1/2-x,1/2-y,1/2+z
1/2+x,1/2-y,1/2-z
1/2-x,1/2+y,1/2-z
loop_
_atom_site_type_symbol
_atom_site_label
_atom_site_fract_x
_atom_site_fract_y
_atom_site_fract_z
Si Si1 0.698664 0.606731 0.467478
Si Si2 0.931655 0.929802 0.224560
Si Si3 0.848874 0.035151 0.261090
Si Si4 0.301597 0.317766 0.211966
Si Si5 0.711499 0.845513 0.219767
Si Si6 0.644044 0.744385 0.639805
Si Si7 0.683237 0.601761 0.970075
Si Si8 0.081405 0.737532 0.190372
O O1 0.610568 0.596108 0.580953
O O2 0.715103 0.559538 0.366529
O O3 0.676974 0.650081 0.354984
O O4 0.786509 0.624502 0.569081
O O5 0.913016 0.899663 0.371395
O O6 0.043253 0.944282 0.223383
O O7 0.865086 0.977926 0.247995
O O8 0.816718 0.055250 0.420484
O O9 0.199482 0.290140 0.210208
O O10 0.310020 0.353945 0.079024
O O11 0.377206 0.274894 0.192533
O O12 0.797320 0.803957 0.193669
O O13 0.737378 0.884456 0.346412
O O14 0.615784 0.815715 0.261906
O O15 0.530934 0.750032 0.676390
O O16 0.639869 0.750676 0.461959
#
# Coordination Sequence:
#
# PCOD9330196 Si02
#       8
#     8   8   8   8   8   8   8   8
#     4  10  20  32  51  68 102 137 168 209 257 296
#     4  10  20  33  49  73 104 138 174 210 251 308
#     4  10  20  33  49  73 104 138 174 210 251 308
#     4  10  20  36  50  76 108 134 174 223 249 298
#     4  10  20  36  50  76 108 134 174 223 249 298
#     4  10  20  34  55  74 101 142 176 213 261 300
#     4  10  20  32  49  70 104 141 168 213 255 286
#     4  10  20  34  55  74 101 142 176 213 261 300
#
# _framework density 18.47118
#
# number of rings (size 3 to 8) (size 9 to 14) (size 15 to 20)
#    0.000    2.000    2.500    1.500    0.000    8.000 
#    0.000    1.875    0.000    0.000    0.000    0.000 
#    0.000   70.000    0.000    0.000    0.000    0.000 
#
# Total GULP energy -178183.452231 kJ/mol
# GULP energy per Si atom -5568.232882 kJ/mol
# Density = 1.842914 g / cm^3
# Si number density = 18.471180 Si / 1000 Ang^3
#
#
#
# Elastic Constant Matrix: (Units=GPa)
#
#
# Indices 1 2 3 4 5 6 
#
# 1 33.4882 6.8532 -0.1470 0.0004 -0.0002 -0.0001
# 2 6.8532 53.9340 10.3015 0.0019 -0.0001 -0.0002
# 3 -0.1470 10.3015 81.5313 0.0065 -0.0015 -0.0007
# 4 0.0004 0.0019 0.0065 23.6832 -0.0004 -0.0002
# 5 -0.0002 -0.0001 -0.0015 -0.0004 18.7045 0.0001
# 6 -0.0001 -0.0002 -0.0007 -0.0002 0.0001 23.6471
#
#
#
# Elastic Compliance Matrix: (Units=1/GPa)
#
#
# Indices 1 2 3 4 5 6 
#
# 1 0.030684 -0.004006 0.000561 0.000000 0.000000 0.000000
# 2 -0.004006 0.019523 -0.002474 -0.000001 0.000000 0.000000
# 3 0.000561 -0.002474 0.012579 -0.000003 0.000001 0.000000
# 4 0.000000 -0.000001 -0.000003 0.042224 0.000001 0.000000
# 5 0.000000 0.000000 0.000001 0.000001 0.053463 0.000000
# 6 0.000000 0.000000 0.000000 0.000000 0.000000 0.042289
#
#
# Mechanical properties :
#
#
# Convention : Reuss Voigt Hill
#
# Bulk Modulus (GPa) = 19.62784 22.55210 21.08997
# Shear Modulus (GPa) = 21.77887 23.33668 22.55777
#
# Velocity S-wave (km/s) = 3.43749 3.55830 3.49842
# Velocity P-wave (km/s) = 5.13852 5.39610 5.26888
#
# Compressibility (1/GPa) = 0.05094804
#
# Stress axis : x y z
#
# Youngs Moduli (GPa) = 32.59077 51.22235 79.49867
#
# Poissons Ratio (x) = 0.20520 -0.04464
# Poissons Ratio (y) = 0.13056 0.19667
# Poissons Ratio (z) = -0.01830 0.12672
#
# Static dielectric constant tensor:
#      x y z
#    x 1.653610 0.000000 0.000000 
#    y 0.000000 1.677280 0.000000 
#    z 0.000000 0.000000 1.706060 
# 
# From -- ./inp_files/10439.got.cif
#   From: 2010.05.17/outbox.cif.g08.bks.cpg/sg23_6_cif.got.tgz:10439.got - 2010.06.04 12:02:01.
