data_PCOD9330930
_publ_section_title
;
Structure prediction by ZEFSAII (Michael W. Deem and Ramdas Pophale) SiO2 
 PCOD9330930
Probable space group: I 2 2 2
;
_chemical_formula_sum "Si O2"
_cell_formula_units_Z 56
_cell_length_a 21.431766
_cell_length_b 13.742580
_cell_length_c 9.092935
_cell_angle_alpha 90.000000
_cell_angle_beta 90.000000
_cell_angle_gamma 90.000000
_cell_volume 2678.121766
_symmetry_space_group_name_H-M "I 2 2 2"
_symmetry_group_IT_number 23
_symmetry_cell_setting 'orthorhombic'
loop_
_space_group_symop_operation_xyz
x,y,z
-x,-y,z
x,-y,-z
-x,y,-z
1/2+x,1/2+y,1/2+z
1/2-x,1/2-y,1/2+z
1/2+x,1/2-y,1/2-z
1/2-x,1/2+y,1/2-z
loop_
_atom_site_type_symbol
_atom_site_label
_atom_site_fract_x
_atom_site_fract_y
_atom_site_fract_z
Si Si1 0.568604 0.298083 0.930252
Si Si2 0.333412 0.193387 0.883124
Si Si3 0.176503 0.087595 0.649927
Si Si4 0.819977 0.596622 0.078777
Si Si5 0.306258 0.698246 0.562349
Si Si6 0.497297 0.616775 0.325258
Si Si7 0.643410 0.617725 0.714545
O O1 0.618637 0.385332 0.954062
O O2 0.548616 0.319209 0.759900
O O3 0.500000 0.303645 0.000000
O O4 0.608864 0.209928 0.003923
O O5 0.341740 0.116860 0.748084
O O6 0.267599 0.178681 0.964588
O O7 0.321103 0.294542 0.794632
O O8 0.244947 0.085402 0.583425
O O9 0.181553 0.173576 0.769340
O O10 0.162197 0.986840 0.728276
O O11 0.845858 0.500000 0.000000
O O12 0.828823 0.694930 0.985010
O O13 0.342475 0.623984 0.458009
O O14 0.500000 0.500000 0.295221
O O15 0.500000 0.630107 0.500000
O O16 0.428921 0.644257 0.268947
#
# Coordination Sequence:
#
# PCOD9330930 Si02
#       7
#     8   8   8   8   8   8   8
#     4  12  23  38  59  91 135 177 212 261 318 395
#     4  10  22  38  57  90 125 166 225 272 326 394
#     4  11  22  34  60  91 129 171 203 254 330 397
#     4  10  21  39  62  85 123 166 218 281 338 386
#     4  10  21  38  58  86 128 167 214 274 320 384
#     4  11  23  36  54  88 136 187 218 242 305 414
#     4  11  21  36  56  89 133 172 213 251 316 405
#
# _framework density 20.910176
#
# number of rings (size 3 to 8) (size 9 to 14) (size 15 to 20)
#    0.000    1.286    4.286    2.143    2.000    1.429 
#    0.000    0.000    0.000    0.000    0.000    3.000 
#    0.000    0.000    0.000    0.000    0.000    0.000 
#
# Total GULP energy -156151.224382 kJ/mol
# GULP energy per Si atom -5576.829442 kJ/mol
# Density = 2.086258 g / cm^3
# Si number density = 20.910176 Si / 1000 Ang^3
#
#
#
# Elastic Constant Matrix: (Units=GPa)
#
#
# Indices 1 2 3 4 5 6 
#
# 1 100.6855 17.3884 28.6445 0.0000 0.0000 0.0000
# 2 17.3884 81.6890 32.6746 0.0000 0.0000 0.0000
# 3 28.6445 32.6746 87.3828 0.0000 0.0000 0.0000
# 4 0.0000 0.0000 0.0000 41.8382 0.0000 0.0000
# 5 0.0000 0.0000 0.0000 0.0000 35.5296 0.0000
# 6 0.0000 0.0000 0.0000 0.0000 0.0000 13.9960
#
#
#
# Elastic Compliance Matrix: (Units=1/GPa)
#
#
# Indices 1 2 3 4 5 6 
#
# 1 0.011031 -0.001060 -0.003220 0.000000 0.000000 0.000000
# 2 -0.001060 0.014496 -0.005073 0.000000 0.000000 0.000000
# 3 -0.003220 -0.005073 0.014396 0.000000 0.000000 0.000000
# 4 0.000000 0.000000 0.000000 0.023902 0.000000 0.000000
# 5 0.000000 0.000000 0.000000 0.000000 0.028146 0.000000
# 6 0.000000 0.000000 0.000000 0.000000 0.000000 0.071449
#
#
# Mechanical properties :
#
#
# Convention : Reuss Voigt Hill
#
# Bulk Modulus (GPa) = 47.12998 47.46359 47.29678
# Shear Modulus (GPa) = 26.42738 31.00943 28.71840
#
# Velocity S-wave (km/s) = 3.55893 3.85513 3.70999
# Velocity P-wave (km/s) = 6.28300 6.52412 6.40469
#
# Compressibility (1/GPa) = 0.02121792
#
# Stress axis : x y z
#
# Youngs Moduli (GPa) = 90.65384 68.98275 69.46280
#
# Poissons Ratio (x) = 0.07314 0.22364
# Poissons Ratio (y) = 0.09612 0.35238
# Poissons Ratio (z) = 0.29186 0.34995
#
# Static dielectric constant tensor:
#      x y z
#    x 1.785150 0.000000 0.000000 
#    y 0.000000 1.752020 0.000000 
#    z 0.000000 0.000000 1.868880 
# 
# From -- ./inp_files/12062.got.cif
#   From: 2010.05.17/outbox.cif.g08.bks.cpg/sg23_7_cif.got.tgz:12062.got - 2010.06.04 12:02:01.
