data_PCOD9330650
_publ_section_title
;
Structure prediction by ZEFSAII (Michael W. Deem and Ramdas Pophale) SiO2 
 PCOD9330650
Probable space group: I 2 2 2
;
_chemical_formula_sum "Si O2"
_cell_formula_units_Z 64
_cell_length_a 9.763518
_cell_length_b 31.493373
_cell_length_c 11.502640
_cell_angle_alpha 90.000000
_cell_angle_beta 90.000000
_cell_angle_gamma 90.000000
_cell_volume 3536.902076
_symmetry_space_group_name_H-M "I 2 2 2"
_symmetry_group_IT_number 23
_symmetry_cell_setting 'orthorhombic'
loop_
_space_group_symop_operation_xyz
x,y,z
-x,-y,z
x,-y,-z
-x,y,-z
1/2+x,1/2+y,1/2+z
1/2-x,1/2-y,1/2+z
1/2+x,1/2-y,1/2-z
1/2-x,1/2+y,1/2-z
loop_
_atom_site_type_symbol
_atom_site_label
_atom_site_fract_x
_atom_site_fract_y
_atom_site_fract_z
Si Si1 0.840812 0.995747 0.361446
Si Si2 0.018516 0.265646 0.862071
Si Si3 0.770577 0.664286 0.861863
Si Si4 0.844049 0.570677 0.244819
Si Si5 0.834634 0.548186 0.499037
Si Si6 0.011222 0.205715 0.634472
Si Si7 0.698670 0.840043 0.624622
Si Si8 0.332629 0.922075 0.750305
O O1 0.744064 0.033272 0.312767
O O2 0.841743 0.000000 0.500000
O O3 0.769194 0.951473 0.324561
O O4 0.000000 0.000000 0.321527
O O5 0.165133 0.288790 0.848448
O O6 0.999365 0.234670 0.751206
O O7 0.913759 0.304688 0.846841
O O8 0.000000 0.250949 0.000000
O O9 0.608931 0.671046 0.858632
O O10 0.820797 0.627596 0.777448
O O11 0.816398 0.649289 0.988966
O O12 0.800983 0.570661 0.379494
O O13 0.815156 0.616621 0.192985
O O14 0.008690 0.563222 0.234396
O O15 0.782232 0.500000 0.500000
O O16 0.792408 0.570781 0.616228
O O17 0.000000 0.546009 0.500000
O O18 0.156257 0.182562 0.640483
O O19 0.000000 0.224565 0.500000
#
# Coordination Sequence:
#
# PCOD9330650 Si02
#       8
#     8   8   8   8   8   8   8   8
#     4  11  25  38  57  88 120 153 192 241 290 347
#     4  10  20  40  62  87 116 147 195 250 289 346
#     4  10  21  37  60  86 116 151 195 242 288 344
#     4  11  21  39  62  85 115 155 201 238 290 345
#     4   9  18  36  58  82 116 152 188 242 292 338
#     4  10  22  40  60  85 120 159 187 232 307 364
#     4  10  21  37  60  86 116 151 195 242 288 344
#     4  11  21  39  62  85 115 155 201 238 290 345
#
# _framework density 18.094930000000002
#
# number of rings (size 3 to 8) (size 9 to 14) (size 15 to 20)
#    0.000    1.750    2.500    1.875    1.750    2.000 
#    4.500    1.250    0.000    0.000    0.000    0.000 
#    0.000    0.000    0.000    0.000    0.000    0.000 
#
# Total GULP energy -178321.036287 kJ/mol
# GULP energy per Si atom -5572.532384 kJ/mol
# Density = 1.805375 g / cm^3
# Si number density = 18.094930 Si / 1000 Ang^3
#
#
#
# Elastic Constant Matrix: (Units=GPa)
#
#
# Indices 1 2 3 4 5 6 
#
# 1 47.2383 -0.2766 4.0389 0.0005 -0.0004 -0.0003
# 2 -0.2766 58.8433 54.4021 0.0002 -0.0002 -0.0001
# 3 4.0389 54.4021 126.1290 -0.0010 0.0003 0.0003
# 4 0.0005 0.0002 -0.0010 37.6028 0.0000 -0.0001
# 5 -0.0004 -0.0002 0.0003 0.0000 14.6036 -0.0003
# 6 -0.0003 -0.0001 0.0003 -0.0001 -0.0003 5.8975
#
#
#
# Elastic Compliance Matrix: (Units=1/GPa)
#
#
# Indices 1 2 3 4 5 6 
#
# 1 0.021279 0.001214 -0.001205 0.000000 0.000001 0.000001
# 2 0.001214 0.028335 -0.012260 -0.000001 0.000001 0.000001
# 3 -0.001205 -0.012260 0.013255 0.000000 0.000000 -0.000001
# 4 0.000000 -0.000001 0.000000 0.026594 0.000000 0.000000
# 5 0.000001 0.000001 0.000000 0.000000 0.068476 0.000003
# 6 0.000001 0.000001 -0.000001 0.000000 0.000003 0.169564
#
#
# Mechanical properties :
#
#
# Convention : Reuss Voigt Hill
#
# Bulk Modulus (GPa) = 26.06408 38.72659 32.39534
# Shear Modulus (GPa) = 13.70632 23.22386 18.46509
#
# Velocity S-wave (km/s) = 2.75520 3.58641 3.19792
# Velocity P-wave (km/s) = 4.95549 6.21274 5.61938
#
# Compressibility (1/GPa) = 0.03836698
#
# Stress axis : x y z
#
# Youngs Moduli (GPa) = 46.99377 35.29202 75.44245
#
# Poissons Ratio (x) = -0.04285 0.09092
# Poissons Ratio (y) = -0.05706 0.92495
# Poissons Ratio (z) = 0.05663 0.43269
#
# Static dielectric constant tensor:
#      x y z
#    x 1.649110 0.000000 0.000000 
#    y 0.000000 1.599630 0.000000 
#    z 0.000000 0.000000 1.638650 
# 
# From -- ./inp_files/13493.got.cif
#   From: 2010.05.17/outbox.cif.g08.bks.cpg/sg23_7_cif.got.tgz:13493.got - 2010.06.04 12:02:01.
