data_PCOD9330537
_publ_section_title
;
Structure prediction by ZEFSAII (Michael W. Deem and Ramdas Pophale) SiO2 
 PCOD9330537
Probable space group: I 2 2 2
;
_chemical_formula_sum "Si O2"
_cell_formula_units_Z 54
_cell_length_a 23.124443
_cell_length_b 11.506968
_cell_length_c 11.283910
_cell_angle_alpha 90.000000
_cell_angle_beta 90.000000
_cell_angle_gamma 90.000000
_cell_volume 3002.560726
_symmetry_space_group_name_H-M "I 2 2 2"
_symmetry_group_IT_number 23
_symmetry_cell_setting 'orthorhombic'
loop_
_space_group_symop_operation_xyz
x,y,z
-x,-y,z
x,-y,-z
-x,y,-z
1/2+x,1/2+y,1/2+z
1/2-x,1/2-y,1/2+z
1/2+x,1/2-y,1/2-z
1/2-x,1/2+y,1/2-z
loop_
_atom_site_type_symbol
_atom_site_label
_atom_site_fract_x
_atom_site_fract_y
_atom_site_fract_z
Si Si1 0.414645 0.948435 0.812176
Si Si2 0.698930 0.135649 0.725264
Si Si3 0.000000 0.500000 0.500000
Si Si4 0.028702 0.286269 0.878007
Si Si5 0.145543 0.858553 0.115990
Si Si6 0.406464 0.181341 0.687852
Si Si7 0.323445 0.613421 0.342440
Si Si8 0.148561 0.500000 0.000000
O O1 0.350237 0.901519 0.819292
O O2 0.442472 0.889580 0.695722
O O3 0.411498 0.085102 0.789110
O O4 0.457677 0.925130 0.918375
O O5 0.683720 0.267442 0.689842
O O6 0.760731 0.115104 0.782829
O O7 0.685605 0.060953 0.605119
O O8 0.079600 0.191417 0.892731
O O9 0.968270 0.253195 0.816258
O O10 0.000000 0.326915 0.000000
O O11 0.148021 0.986458 0.171798
O O12 0.173028 0.865719 0.984617
O O13 0.358952 0.278493 0.708594
O O14 0.386773 0.102498 0.571077
#
# Coordination Sequence:
#
# PCOD9330537 Si02
#       8
#     8   8   2   8   8   8   8   4
#     4  10  23  36  61  90 117 157 193 251 309 349
#     4  10  22  40  61  82 119 162 199 247 299 356
#     4  12  20  40  54  92 130 140 200 252 300 370
#     4  11  18  37  62  88 119 150 194 254 305 352
#     4  10  23  38  54  90 120 151 193 252 300 352
#     4  11  19  36  60  91 112 155 195 245 303 350
#     4  11  23  38  57  86 123 153 198 238 301 368
#     4  10  20  38  61  92 114 149 202 250 294 354
#
# _framework density 17.984648
#
# number of rings (size 3 to 8) (size 9 to 14) (size 15 to 20)
#    0.000    1.481    4.444    1.778    4.148    2.370 
#    0.000    0.000    0.000    0.000    0.000    4.148 
#    0.000    0.000    0.000    0.000    0.000    0.000 
#
# Total GULP energy -150366.975811 kJ/mol
# GULP energy per Si atom -5569.147252 kJ/mol
# Density = 1.794371 g / cm^3
# Si number density = 17.984648 Si / 1000 Ang^3
#
#
#
# Elastic Constant Matrix: (Units=GPa)
#
#
# Indices 1 2 3 4 5 6 
#
# 1 168.1963 74.0209 49.8130 0.0000 0.0000 0.0000
# 2 74.0209 104.2203 45.6026 0.0000 0.0000 0.0000
# 3 49.8130 45.6026 51.8685 0.0000 0.0000 0.0000
# 4 0.0000 0.0000 0.0000 9.6968 0.0000 0.0000
# 5 0.0000 0.0000 0.0000 0.0000 8.9925 0.0000
# 6 0.0000 0.0000 0.0000 0.0000 0.0000 17.4949
#
#
#
# Elastic Compliance Matrix: (Units=1/GPa)
#
#
# Indices 1 2 3 4 5 6 
#
# 1 0.009424 -0.004442 -0.005145 0.000000 0.000000 0.000000
# 2 -0.004442 0.017688 -0.011285 0.000000 0.000000 0.000000
# 3 -0.005145 -0.011285 0.034143 0.000000 0.000000 0.000000
# 4 0.000000 0.000000 0.000000 0.103127 0.000000 0.000000
# 5 0.000000 0.000000 0.000000 0.000000 0.111204 0.000000
# 6 0.000000 0.000000 0.000000 0.000000 0.000000 0.057160
#
#
# Mechanical properties :
#
#
# Convention : Reuss Voigt Hill
#
# Bulk Modulus (GPa) = 51.25599 73.68421 62.47010
# Shear Modulus (GPa) = 13.12362 17.56009 15.34185
#
# Velocity S-wave (km/s) = 2.70425 3.12812 2.92388
# Velocity P-wave (km/s) = 6.18970 7.35571 6.79775
#
# Compressibility (1/GPa) = 0.01950991
#
# Stress axis : x y z
#
# Youngs Moduli (GPa) = 106.11086 56.53610 29.28884
#
# Poissons Ratio (x) = 0.25113 0.15070
# Poissons Ratio (y) = 0.47134 0.33053
# Poissons Ratio (z) = 0.54597 0.63802
#
# Static dielectric constant tensor:
#      x y z
#    x 1.633210 0.000000 0.000000 
#    y 0.000000 1.631690 0.000000 
#    z 0.000000 0.000000 1.688910 
# 
# From -- ./inp_files/18024.got.cif
#   From: 2010.05.17/outbox.cif.g08.bks.cpg/sg23_10_cif.got.tgz:18024.got - 2010.06.04 12:02:01.
