data_PCOD9330300
_publ_section_title
;
Structure prediction by ZEFSAII (Michael W. Deem and Ramdas Pophale) SiO2 
 PCOD9330300
Probable space group: I 2 2 2
;
_chemical_formula_sum "Si O2"
_cell_formula_units_Z 58
_cell_length_a 26.130242
_cell_length_b 13.825792
_cell_length_c 8.814575
_cell_angle_alpha 90.000000
_cell_angle_beta 90.000000
_cell_angle_gamma 90.000000
_cell_volume 3184.452888
_symmetry_space_group_name_H-M "I 2 2 2"
_symmetry_group_IT_number 23
_symmetry_cell_setting 'orthorhombic'
loop_
_space_group_symop_operation_xyz
x,y,z
-x,-y,z
x,-y,-z
-x,y,-z
1/2+x,1/2+y,1/2+z
1/2-x,1/2-y,1/2+z
1/2+x,1/2-y,1/2-z
1/2-x,1/2+y,1/2-z
loop_
_atom_site_type_symbol
_atom_site_label
_atom_site_fract_x
_atom_site_fract_y
_atom_site_fract_z
Si Si1 0.634308 0.693133 0.466675
Si Si2 0.340037 0.548776 0.265260
Si Si3 0.579687 0.620204 0.197611
Si Si4 0.767851 0.476018 0.172545
Si Si5 0.720827 0.245579 0.759118
Si Si6 0.500000 0.500000 0.000000
Si Si7 0.167246 0.657601 0.793924
Si Si8 0.147676 0.775948 0.530786
O O1 0.642853 0.605734 0.584515
O O2 0.584268 0.672321 0.362830
O O3 0.683010 0.698698 0.354352
O O4 0.638257 0.792164 0.565004
O O5 0.379249 0.466162 0.219016
O O6 0.282642 0.507326 0.273557
O O7 0.341085 0.629824 0.133024
O O8 0.532254 0.568554 0.115024
O O9 0.601535 0.697455 0.078901
O O10 0.779640 0.364212 0.200190
O O11 0.815829 0.546612 0.199352
O O12 0.752256 0.500000 0.000000
O O13 0.777746 0.287279 0.775045
O O14 0.695810 0.252350 0.924886
O O15 0.137324 0.687805 0.643311
#
# Coordination Sequence:
#
# PCOD9330300 Si02
#       8
#     8   8   8   8   8   2   8   8
#     4  10  21  36  51  76 113 159 187 234 294 336
#     4  11  20  34  55  76 113 161 197 230 291 328
#     4  11  22  39  60  79 109 140 182 231 303 362
#     4  12  21  31  53  81 115 162 217 244 258 311
#     4  11  20  33  50  76 114 155 212 249 265 312
#     4  12  24  40  66  96  96 138 194 244 292 400
#     4  11  21  32  50  74 112 156 210 236 269 325
#     4  10  20  35  51  70 110 158 185 231 292 338
#
# _framework density 18.213488999999999
#
# number of rings (size 3 to 8) (size 9 to 14) (size 15 to 20)
#    0.000    1.103    5.517    4.552    0.000    0.552 
#    0.000    1.379    0.000    0.000    0.000    0.000 
#    0.000    8.828   12.138    0.000    0.000    0.000 
#
# Total GULP energy -161793.062603 kJ/mol
# GULP energy per Si atom -5579.071124 kJ/mol
# Density = 1.817203 g / cm^3
# Si number density = 18.213489 Si / 1000 Ang^3
#
#
#
# Elastic Constant Matrix: (Units=GPa)
#
#
# Indices 1 2 3 4 5 6 
#
# 1 50.0864 19.2047 26.6882 0.0000 0.0000 0.0000
# 2 19.2047 80.3292 21.3985 0.0000 0.0000 0.0000
# 3 26.6882 21.3985 112.7989 0.0000 0.0000 0.0000
# 4 0.0000 0.0000 0.0000 29.4197 0.0000 0.0000
# 5 0.0000 0.0000 0.0000 0.0000 18.1450 0.0000
# 6 0.0000 0.0000 0.0000 0.0000 0.0000 18.9945
#
#
#
# Elastic Compliance Matrix: (Units=1/GPa)
#
#
# Indices 1 2 3 4 5 6 
#
# 1 0.024301 -0.004506 -0.004895 0.000000 0.000000 0.000000
# 2 -0.004506 0.013947 -0.001580 0.000000 0.000000 0.000000
# 3 -0.004895 -0.001580 0.010323 0.000000 0.000000 0.000000
# 4 0.000000 0.000000 0.000000 0.033991 0.000000 0.000000
# 5 0.000000 0.000000 0.000000 0.000000 0.055112 0.000000
# 6 0.000000 0.000000 0.000000 0.000000 0.000000 0.052647
#
#
# Mechanical properties :
#
#
# Convention : Reuss Voigt Hill
#
# Bulk Modulus (GPa) = 37.57936 41.97749 39.77843
# Shear Modulus (GPa) = 22.60888 25.04003 23.82446
#
# Velocity S-wave (km/s) = 3.52707 3.71186 3.62064
# Velocity P-wave (km/s) = 6.10446 6.43957 6.27425
#
# Compressibility (1/GPa) = 0.02661035
#
# Stress axis : x y z
#
# Youngs Moduli (GPa) = 41.14984 71.70093 96.86965
#
# Poissons Ratio (x) = 0.32308 0.47417
# Poissons Ratio (y) = 0.18542 0.15302
# Poissons Ratio (z) = 0.20143 0.11326
#
# Static dielectric constant tensor:
#      x y z
#    x 1.610750 0.000000 0.000000 
#    y 0.000000 1.669870 0.000000 
#    z 0.000000 0.000000 1.702350 
# 
# From -- ./inp_files/10411.got.cif
#   From: 2010.05.17/outbox.cif.g08.bks.cpg/sg23_6_cif.got.tgz:10411.got - 2010.06.04 12:02:01.
