data_PCOD9330033
_publ_section_title
;
Structure prediction by ZEFSAII (Michael W. Deem and Ramdas Pophale) SiO2 
 PCOD9330033
Probable space group: I 2 2 2
;
_chemical_formula_sum "Si O2"
_cell_formula_units_Z 48
_cell_length_a 8.579724
_cell_length_b 18.068113
_cell_length_c 14.609275
_cell_angle_alpha 90.000000
_cell_angle_beta 90.000000
_cell_angle_gamma 90.000000
_cell_volume 2264.721377
_symmetry_space_group_name_H-M "I 2 2 2"
_symmetry_group_IT_number 23
_symmetry_cell_setting 'orthorhombic'
loop_
_space_group_symop_operation_xyz
x,y,z
-x,-y,z
x,-y,-z
-x,y,-z
1/2+x,1/2+y,1/2+z
1/2-x,1/2-y,1/2+z
1/2+x,1/2-y,1/2-z
1/2-x,1/2+y,1/2-z
loop_
_atom_site_type_symbol
_atom_site_label
_atom_site_fract_x
_atom_site_fract_y
_atom_site_fract_z
Si Si1 0.825558 0.270747 0.198232
Si Si2 0.354084 0.586808 0.251072
Si Si3 0.665059 0.025096 0.133397
Si Si4 0.598613 0.632638 0.409326
Si Si5 0.841505 0.651064 0.205765
Si Si6 0.814081 0.485100 0.893936
O O1 0.700263 0.335774 0.208196
O O2 0.825103 0.211915 0.115456
O O3 0.784609 0.214823 0.280063
O O4 0.992043 0.309791 0.200414
O O5 0.241181 0.548366 0.324883
O O6 0.505509 0.603179 0.316602
O O7 0.314917 0.529047 0.167129
O O8 0.778790 0.068640 0.067189
O O9 0.648867 0.088538 0.213718
O O10 0.500000 0.000000 0.099274
O O11 0.500000 0.643220 0.500000
O O12 0.796800 0.602074 0.120105
O O13 0.000000 0.500000 0.868603
O O14 0.796282 0.500000 0.000000
#
# Coordination Sequence:
#
# PCOD9330033 Si02
#       6
#     8   8   8   8   8   8
#     4  11  20  36  65  91 133 173 218 277 351 425
#     4  11  20  39  64  93 132 176 226 284 361 415
#     4  10  20  39  69  91 126 171 233 284 347 420
#     4  11  26  42  64 100 139 181 235 294 359 438
#     4  10  19  36  60  96 123 173 223 271 355 414
#     4  10  20  36  64  99 131 172 236 293 342 421
#
# _framework density 21.194659000000001
#
# number of rings (size 3 to 8) (size 9 to 14) (size 15 to 20)
#    0.000    1.500    5.000    1.500    0.000    2.667 
#    0.000    2.500    0.000   22.000    0.000    0.000 
#    0.000    0.000    0.000    0.000    0.000    0.000 
#
# Total GULP energy -133606.464333 kJ/mol
# GULP energy per Si atom -5566.936014 kJ/mol
# Density = 2.114642 g / cm^3
# Si number density = 21.194659 Si / 1000 Ang^3
#
#
#
# Elastic Constant Matrix: (Units=GPa)
#
#
# Indices 1 2 3 4 5 6 
#
# 1 72.9276 65.5449 18.7704 0.0000 0.0000 0.0000
# 2 65.5449 127.6191 36.0217 0.0000 0.0000 0.0000
# 3 18.7704 36.0217 62.4948 -0.0001 0.0000 0.0000
# 4 0.0000 0.0000 -0.0001 11.8707 0.0000 0.0000
# 5 0.0000 0.0000 0.0000 0.0000 17.0566 0.0000
# 6 0.0000 0.0000 0.0000 0.0000 0.0000 51.1606
#
#
#
# Elastic Compliance Matrix: (Units=1/GPa)
#
#
# Indices 1 2 3 4 5 6 
#
# 1 0.025470 -0.013044 -0.000131 0.000000 0.000000 0.000000
# 2 -0.013044 0.016039 -0.005327 0.000000 0.000000 0.000000
# 3 -0.000131 -0.005327 0.019111 0.000000 0.000000 0.000000
# 4 0.000000 0.000000 0.000000 0.084241 0.000000 0.000000
# 5 0.000000 0.000000 0.000000 0.000000 0.058628 0.000000
# 6 0.000000 0.000000 0.000000 0.000000 0.000000 0.019546
#
#
# Mechanical properties :
#
#
# Convention : Reuss Voigt Hill
#
# Bulk Modulus (GPa) = 42.34579 55.96838 49.15709
# Shear Modulus (GPa) = 18.66285 25.53120 22.09703
#
# Velocity S-wave (km/s) = 2.97062 3.47451 3.23240
# Velocity P-wave (km/s) = 5.63817 6.52384 6.09710
#
# Compressibility (1/GPa) = 0.02361510
#
# Stress axis : x y z
#
# Youngs Moduli (GPa) = 39.26239 62.34866 52.32542
#
# Poissons Ratio (x) = 0.81328 0.00687
# Poissons Ratio (y) = 0.51214 0.27873
# Poissons Ratio (z) = 0.00515 0.33213
#
# Static dielectric constant tensor:
#      x y z
#    x 1.838850 0.000000 0.000000 
#    y 0.000000 1.782690 0.000000 
#    z 0.000000 0.000000 1.801050 
# 
# From -- ./inp_files/11041.got.cif
#   From: 2010.05.17/outbox.cif.g08.bks.cpg/sg23_6_cif.got.tgz:11041.got - 2010.06.04 12:02:01.
