data_PCOD9330749
_publ_section_title
;
Structure prediction by ZEFSAII (Michael W. Deem and Ramdas Pophale) SiO2 
 PCOD9330749
Probable space group: I 2 2 2
;
_chemical_formula_sum "Si O2"
_cell_formula_units_Z 56
_cell_length_a 9.394163
_cell_length_b 14.321190
_cell_length_c 19.653392
_cell_angle_alpha 90.000000
_cell_angle_beta 90.000000
_cell_angle_gamma 90.000000
_cell_volume 2644.080751
_symmetry_space_group_name_H-M "I 2 2 2"
_symmetry_group_IT_number 23
_symmetry_cell_setting 'orthorhombic'
loop_
_space_group_symop_operation_xyz
x,y,z
-x,-y,z
x,-y,-z
-x,y,-z
1/2+x,1/2+y,1/2+z
1/2-x,1/2-y,1/2+z
1/2+x,1/2-y,1/2-z
1/2-x,1/2+y,1/2-z
loop_
_atom_site_type_symbol
_atom_site_label
_atom_site_fract_x
_atom_site_fract_y
_atom_site_fract_z
Si Si1 0.374078 0.640799 0.635363
Si Si2 0.188744 0.330987 0.091907
Si Si3 0.500000 0.713830 0.500000
Si Si4 0.666988 0.651981 0.674262
Si Si5 0.003794 0.888152 0.579099
Si Si6 0.724719 0.847395 0.326012
Si Si7 0.000000 0.500000 0.875875
Si Si8 0.330063 0.010246 0.081226
O O1 0.445243 0.652470 0.561346
O O2 0.509089 0.608413 0.678911
O O3 0.326573 0.742383 0.659619
O O4 0.245297 0.570783 0.625061
O O5 0.132086 0.277193 0.025015
O O6 0.144723 0.259977 0.152059
O O7 0.354107 0.348300 0.104587
O O8 0.108620 0.429827 0.087219
O O9 0.735423 0.644508 0.747418
O O10 0.763392 0.603378 0.615533
O O11 0.140432 0.860670 0.623440
O O12 0.000000 0.857708 0.500000
O O13 0.000000 0.000000 0.579967
O O14 0.604429 0.925820 0.339315
O O15 0.500000 0.000000 0.088006
O O16 0.297809 0.000000 0.000000
#
# Coordination Sequence:
#
# PCOD9330749 Si02
#       8
#     8   8   4   8   8   8   4   8
#     4  11  24  46  71 102 140 190 239 299 358 439
#     4  11  24  42  70 101 142 184 239 297 347 435
#     4  10  20  43  73 104 134 194 242 292 364 416
#     4  11  27  45  71 102 139 195 239 297 362 430
#     4  11  25  41  63 101 139 184 229 292 357 426
#     4  12  27  46  71 105 144 189 239 300 364 439
#     4  12  24  47  70 104 141 190 238 288 352 444
#     4  11  26  47  74 109 143 187 247 309 365 429
#
# _framework density 21.179383000000001
#
# number of rings (size 3 to 8) (size 9 to 14) (size 15 to 20)
#    0.000    0.857    4.286    3.000    5.000    3.143 
#    0.000    0.000    0.000    0.000    0.000    0.000 
#    0.000    0.000    0.000    0.000    0.000    0.000 
#
# Total GULP energy -156311.905216 kJ/mol
# GULP energy per Si atom -5582.568043 kJ/mol
# Density = 2.113118 g / cm^3
# Si number density = 21.179383 Si / 1000 Ang^3
#
#
#
# Elastic Constant Matrix: (Units=GPa)
#
#
# Indices 1 2 3 4 5 6 
#
# 1 138.6944 27.5307 18.9371 0.0000 0.0000 0.0000
# 2 27.5307 79.2211 -4.3472 0.0000 0.0000 0.0000
# 3 18.9371 -4.3472 59.0980 0.0000 0.0000 0.0000
# 4 0.0000 0.0000 0.0000 3.2138 0.0000 0.0000
# 5 0.0000 0.0000 0.0000 0.0000 24.8728 0.0000
# 6 0.0000 0.0000 0.0000 0.0000 0.0000 16.8728
#
#
#
# Elastic Compliance Matrix: (Units=1/GPa)
#
#
# Indices 1 2 3 4 5 6 
#
# 1 0.008195 -0.003004 -0.002847 0.000000 0.000000 0.000000
# 2 -0.003004 0.013775 0.001976 0.000000 0.000000 0.000000
# 3 -0.002847 0.001976 0.017979 0.000000 0.000000 0.000000
# 4 0.000000 0.000000 0.000000 0.311154 0.000000 0.000000
# 5 0.000000 0.000000 0.000000 0.000000 0.040205 0.000000
# 6 0.000000 0.000000 0.000000 0.000000 0.000000 0.059267
#
#
# Mechanical properties :
#
#
# Convention : Reuss Voigt Hill
#
# Bulk Modulus (GPa) = 31.05716 40.13942 35.59829
# Shear Modulus (GPa) = 10.65966 24.65141 17.65554
#
# Velocity S-wave (km/s) = 2.24588 3.41535 2.89038
# Velocity P-wave (km/s) = 4.62828 5.87759 5.28995
#
# Compressibility (1/GPa) = 0.03219870
#
# Stress axis : x y z
#
# Youngs Moduli (GPa) = 122.02335 72.59354 55.62140
#
# Poissons Ratio (x) = 0.21808 0.15835
# Poissons Ratio (y) = 0.36658 -0.10991
# Poissons Ratio (z) = 0.34740 -0.14344
#
# Static dielectric constant tensor:
#      x y z
#    x 1.815720 0.000000 0.000000 
#    y 0.000000 1.762240 0.000000 
#    z 0.000000 0.000000 1.809390 
# 
# From -- ./inp_files/26288.got.cif
#   From: 2010.05.17/outbox.cif.g08.bks.cpg/sg23_14_cif.got.tgz:26288.got - 2010.06.04 12:02:01.
