data_PCOD9330382
_publ_section_title
;
Structure prediction by ZEFSAII (Michael W. Deem and Ramdas Pophale) SiO2 
 PCOD9330382
Probable space group: I 2 2 2
;
_chemical_formula_sum "Si O2"
_cell_formula_units_Z 40
_cell_length_a 24.258679
_cell_length_b 7.966278
_cell_length_c 12.044885
_cell_angle_alpha 90.000000
_cell_angle_beta 90.000000
_cell_angle_gamma 90.000000
_cell_volume 2327.690658
_symmetry_space_group_name_H-M "I 2 2 2"
_symmetry_group_IT_number 23
_symmetry_cell_setting 'orthorhombic'
loop_
_space_group_symop_operation_xyz
x,y,z
-x,-y,z
x,-y,-z
-x,y,-z
1/2+x,1/2+y,1/2+z
1/2-x,1/2-y,1/2+z
1/2+x,1/2-y,1/2-z
1/2-x,1/2+y,1/2-z
loop_
_atom_site_type_symbol
_atom_site_label
_atom_site_fract_x
_atom_site_fract_y
_atom_site_fract_z
Si Si1 0.855154 0.000000 0.868601
Si Si2 0.275923 1.000000 0.132057
Si Si3 0.935304 0.201639 0.500000
Si Si4 0.373298 0.814546 0.221485
Si Si5 0.373298 0.185454 0.221485
O O1 0.788929 1.000000 0.850293
O O2 0.878127 0.165832 0.808770
O O3 0.878127 0.834168 0.808770
O O4 0.865381 0.000000 0.000000
O O5 0.309428 0.156460 0.184385
O O6 0.309428 0.843540 0.184385
O O7 0.285753 0.000000 0.000000
O O8 0.906724 0.272961 0.610142
O O9 0.906724 0.272961 0.389858
O O10 0.000000 0.241816 0.500000
O O11 0.928895 0.000000 0.500000
O O12 0.390264 0.000000 0.263495
#
# Coordination Sequence:
#
# PCOD9330382 Si02
#       5
#     8   8   8   8   8
#     4  11  22  35  53  78 119 161 196 220 269 335
#     4   9  18  34  54  84 113 151 185 233 286 338
#     4  11  21  37  65  92 113 143 182 247 316 340
#     4  10  20  36  56  82 114 146 186 240 281 341
#     4  10  20  36  56  82 114 146 186 240 281 341
#
# _framework density 17.184415000000001
#
# number of rings (size 3 to 8) (size 9 to 14) (size 15 to 20)
#    1.200    0.600    4.000    1.800    0.000    2.400 
#    0.000    0.000    0.000    2.400    0.000    2.800 
#    0.000    0.000    0.000    0.000    0.000    0.000 
#
# Total GULP energy -111383.956723 kJ/mol
# GULP energy per Si atom -5569.197836 kJ/mol
# Density = 1.714530 g / cm^3
# Si number density = 17.184415 Si / 1000 Ang^3
#
#
#
# Elastic Constant Matrix: (Units=GPa)
#
#
# Indices 1 2 3 4 5 6 
#
# 1 56.6868 38.2081 37.9637 0.0000 0.0000 0.0000
# 2 38.2081 155.3890 90.4803 0.0000 0.0000 0.0000
# 3 37.9637 90.4803 123.4540 0.0000 0.0000 0.0000
# 4 0.0000 0.0000 0.0000 13.4922 0.0000 0.0000
# 5 0.0000 0.0000 0.0000 0.0000 9.7647 0.0000
# 6 0.0000 0.0000 0.0000 0.0000 0.0000 -1.6944
#
#
#
# Elastic Compliance Matrix: (Units=1/GPa)
#
#
# Indices 1 2 3 4 5 6 
#
# 1 0.022830 -0.002661 -0.005070 0.000000 0.000000 0.000000
# 2 -0.002661 0.011537 -0.007637 0.000000 0.000000 0.000000
# 3 -0.005070 -0.007637 0.015256 0.000000 0.000000 0.000000
# 4 0.000000 0.000000 0.000000 0.074117 0.000000 0.000000
# 5 0.000000 0.000000 0.000000 0.000000 0.102410 0.000000
# 6 0.000000 0.000000 0.000000 0.000000 0.000000 -0.590167
#
#
# Mechanical properties :
#
#
# Convention : Reuss Voigt Hill
#
# Bulk Modulus (GPa) = 52.94772 74.31490 63.63131
# Shear Modulus (GPa) = -15.29122 15.57100 0.13989
#
# Velocity S-wave (km/s) = -2.98624 3.01344 0.28563
# Velocity P-wave (km/s) = 4.35755 7.44628 6.10063
#
# Compressibility (1/GPa) = 0.01888655
#
# Stress axis : x y z
#
# Youngs Moduli (GPa) = 43.80191 86.67971 65.54629
#
# Poissons Ratio (x) = 0.23070 0.33232
# Poissons Ratio (y) = 0.11658 0.50057
# Poissons Ratio (z) = 0.22207 0.66197
#
# Static dielectric constant tensor:
#      x y z
#    x 1.568270 0.000000 0.000000 
#    y 0.000000 1.602490 0.000000 
#    z 0.000000 0.000000 1.542820 
# 
# From -- ./inp_files/12416.got.cif
#   From: 2010.05.17/outbox.cif.g08.bks.cpg/sg23_7_cif.got.tgz:12416.got - 2010.06.04 12:02:01.
