data_PCOD9330994
_publ_section_title
;
Structure prediction by ZEFSAII (Michael W. Deem and Ramdas Pophale) SiO2 
 PCOD9330994
Probable space group: I 2 2 2
;
_chemical_formula_sum "Si O2"
_cell_formula_units_Z 34
_cell_length_a 8.412027
_cell_length_b 8.501666
_cell_length_c 18.525426
_cell_angle_alpha 90.000000
_cell_angle_beta 90.000000
_cell_angle_gamma 90.000000
_cell_volume 1324.868885
_symmetry_space_group_name_H-M "I 2 2 2"
_symmetry_group_IT_number 23
_symmetry_cell_setting 'orthorhombic'
loop_
_space_group_symop_operation_xyz
x,y,z
-x,-y,z
x,-y,-z
-x,y,-z
1/2+x,1/2+y,1/2+z
1/2-x,1/2-y,1/2+z
1/2+x,1/2-y,1/2-z
1/2-x,1/2+y,1/2-z
loop_
_atom_site_type_symbol
_atom_site_label
_atom_site_fract_x
_atom_site_fract_y
_atom_site_fract_z
Si Si1 0.745648 0.923036 0.404578
Si Si2 0.722380 0.653806 0.220574
Si Si3 0.898422 0.270347 0.909099
Si Si4 0.000000 0.000000 0.000000
Si Si5 0.066646 0.668283 0.647405
O O1 0.575232 0.840720 0.414437
O O2 0.881204 0.794013 0.413067
O O3 0.770819 0.984757 0.320834
O O4 0.724026 0.096977 0.438903
O O5 0.856601 0.745851 0.174216
O O6 0.778214 0.638501 0.302160
O O7 0.564858 0.745870 0.197456
O O8 0.892771 0.110200 0.950905
O O9 0.000000 0.500000 0.623336
#
# Coordination Sequence:
#
# PCOD9330994 Si02
#       5
#     8   8   8   2   8
#     4   9  21  41  59  93 138 171 205 279 344 398
#     4  10  21  39  57  96 139 183 215 269 323 413
#     4   9  22  42  65  92 127 159 232 284 348 394
#     4  12  24  42  76 102 104 170 240 314 340 404
#     4  12  22  34  65  97 144 186 224 253 326 418
#
# _framework density 25.662915999999999
#
# number of rings (size 3 to 8) (size 9 to 14) (size 15 to 20)
#    1.412    0.471    0.000    4.941    3.294    1.882 
#    4.235    0.000    0.000    2.824    6.118    0.000 
#    0.000    0.000    0.000    0.000    0.000    0.000 
#
# Total GULP energy -94907.340841 kJ/mol
# GULP energy per Si atom -5582.784755 kJ/mol
# Density = 2.560451 g / cm^3
# Si number density = 25.662916 Si / 1000 Ang^3
#
#
#
# Elastic Constant Matrix: (Units=GPa)
#
#
# Indices 1 2 3 4 5 6 
#
# 1 105.0575 62.3092 8.8287 0.0000 0.0000 0.0000
# 2 62.3092 208.1659 43.7752 0.0000 0.0000 0.0000
# 3 8.8287 43.7752 48.8586 0.0000 0.0000 0.0000
# 4 0.0000 0.0000 0.0000 34.5153 0.0000 0.0000
# 5 0.0000 0.0000 0.0000 0.0000 18.2053 0.0000
# 6 0.0000 0.0000 0.0000 0.0000 0.0000 51.3786
#
#
#
# Elastic Compliance Matrix: (Units=1/GPa)
#
#
# Indices 1 2 3 4 5 6 
#
# 1 0.011635 -0.003746 0.001254 0.000000 0.000000 0.000000
# 2 -0.003746 0.007125 -0.005707 0.000000 0.000000 0.000000
# 3 0.001254 -0.005707 0.025354 0.000000 0.000000 0.000000
# 4 0.000000 0.000000 0.000000 0.028973 0.000000 0.000000
# 5 0.000000 0.000000 0.000000 0.000000 0.054929 0.000000
# 6 0.000000 0.000000 0.000000 0.000000 0.000000 0.019463
#
#
# Mechanical properties :
#
#
# Convention : Reuss Voigt Hill
#
# Bulk Modulus (GPa) = 36.08047 65.76760 50.92403
# Shear Modulus (GPa) = 28.88219 37.29775 33.08997
#
# Velocity S-wave (km/s) = 3.35840 3.81645 3.59473
# Velocity P-wave (km/s) = 5.39707 6.71591 6.09229
#
# Compressibility (1/GPa) = 0.02771583
#
# Stress axis : x y z
#
# Youngs Moduli (GPa) = 85.94605 140.34280 39.44165
#
# Poissons Ratio (x) = 0.52579 -0.04947
# Poissons Ratio (y) = 0.32199 0.22510
# Poissons Ratio (z) = -0.10779 0.80095
#
# Static dielectric constant tensor:
#      x y z
#    x 2.005900 0.000000 0.000000 
#    y 0.000000 2.050300 0.000000 
#    z 0.000000 0.000000 2.151640 
# 
# From -- ./inp_files/27839.got.cif
#   From: 2010.05.17/outbox.cif.g08.bks.cpg/sg23_14_cif.got.tgz:27839.got - 2010.06.04 12:02:01.
