data_PCOD9330752
_publ_section_title
;
Structure prediction by ZEFSAII (Michael W. Deem and Ramdas Pophale) SiO2 
 PCOD9330752
Probable space group: I 2 2 2
;
_chemical_formula_sum "Si O2"
_cell_formula_units_Z 36
_cell_length_a 15.473634
_cell_length_b 21.471940
_cell_length_c 4.984230
_cell_angle_alpha 90.000000
_cell_angle_beta 90.000000
_cell_angle_gamma 90.000000
_cell_volume 1656.005138
_symmetry_space_group_name_H-M "I 2 2 2"
_symmetry_group_IT_number 23
_symmetry_cell_setting 'orthorhombic'
loop_
_space_group_symop_operation_xyz
x,y,z
-x,-y,z
x,-y,-z
-x,y,-z
1/2+x,1/2+y,1/2+z
1/2-x,1/2-y,1/2+z
1/2+x,1/2-y,1/2-z
1/2-x,1/2+y,1/2-z
loop_
_atom_site_type_symbol
_atom_site_label
_atom_site_fract_x
_atom_site_fract_y
_atom_site_fract_z
Si Si1 0.500000 0.500000 0.500000
Si Si2 0.000000 0.296825 0.500000
Si Si3 0.742376 0.072603 0.590273
Si Si4 0.635246 0.100093 0.107277
Si Si5 0.500000 0.292401 0.500000
Si Si6 0.500000 0.000000 0.000000
Si Si7 0.583202 0.391421 0.820886
O O1 0.561389 0.456412 0.676549
O O2 0.917271 0.342301 0.485056
O O3 0.016147 0.253021 0.247196
O O4 0.708248 0.079156 0.893146
O O5 0.835537 0.099889 0.512683
O O6 0.740420 0.000000 0.500000
O O7 0.677984 0.110041 0.393948
O O8 0.564582 0.045572 0.154628
O O9 0.578675 0.337814 0.594155
O O10 0.500000 0.377113 0.000000
#
# Coordination Sequence:
#
# PCOD9330752 Si02
#       7
#     2   4   8   8   4   2   8
#     4  10  22  38  68 106 128 194 216 272 342 424
#     4  11  24  49  72  95 134 187 248 282 338 407
#     4  12  24  41  67 110 147 168 220 284 361 418
#     4  11  25  41  70 102 140 180 225 288 345 412
#     4  11  24  47  76  93 130 195 242 286 328 413
#     4  10  20  44  64 102 134 184 216 264 354 420
#     4  11  25  43  71 100 141 183 230 278 351 415
#
# _framework density 21.739061
#
# number of rings (size 3 to 8) (size 9 to 14) (size 15 to 20)
#    0.000    0.889    3.333    3.000    9.333    3.556 
#    0.000    4.444    0.000    0.000    0.000    0.000 
#    0.000    0.000    0.000    0.000    0.000    0.000 
#
# Total GULP energy -100618.245141 kJ/mol
# GULP energy per Si atom -5589.902508 kJ/mol
# Density = 2.168958 g / cm^3
# Si number density = 21.739061 Si / 1000 Ang^3
#
#
#
# Elastic Constant Matrix: (Units=GPa)
#
#
# Indices 1 2 3 4 5 6 
#
# 1 112.1222 29.4519 24.8458 0.0000 0.0000 0.0000
# 2 29.4519 114.4785 30.6351 0.0000 0.0000 0.0000
# 3 24.8458 30.6351 109.7984 0.0000 0.0000 0.0000
# 4 0.0000 0.0000 0.0000 44.0712 0.0000 0.0000
# 5 0.0000 0.0000 0.0000 0.0000 19.7756 0.0000
# 6 0.0000 0.0000 0.0000 0.0000 0.0000 30.5393
#
#
#
# Elastic Compliance Matrix: (Units=1/GPa)
#
#
# Indices 1 2 3 4 5 6 
#
# 1 0.009832 -0.002090 -0.001642 0.000000 0.000000 0.000000
# 2 -0.002090 0.009884 -0.002285 0.000000 0.000000 0.000000
# 3 -0.001642 -0.002285 0.010117 0.000000 0.000000 0.000000
# 4 0.000000 0.000000 0.000000 0.022691 0.000000 0.000000
# 5 0.000000 0.000000 0.000000 0.000000 0.050567 0.000000
# 6 0.000000 0.000000 0.000000 0.000000 0.000000 0.032745
#
#
# Mechanical properties :
#
#
# Convention : Reuss Voigt Hill
#
# Bulk Modulus (GPa) = 56.18152 56.25164 56.21658
# Shear Modulus (GPa) = 32.50938 35.64163 34.07550
#
# Velocity S-wave (km/s) = 3.87128 4.05349 3.96343
# Velocity P-wave (km/s) = 6.77363 6.91663 6.84550
#
# Compressibility (1/GPa) = 0.01779945
#
# Stress axis : x y z
#
# Youngs Moduli (GPa) = 101.71259 101.16911 98.84755
#
# Poissons Ratio (x) = 0.21145 0.16227
# Poissons Ratio (y) = 0.21259 0.22586
# Poissons Ratio (z) = 0.16697 0.23116
#
# Static dielectric constant tensor:
#      x y z
#    x 1.795360 0.000000 0.000000 
#    y 0.000000 1.823290 0.000000 
#    z 0.000000 0.000000 1.697120 
# 
# From -- ./inp_files/2352.got.cif
#   From: 2010.05.17/outbox.cif.g08.bks.cpg/sg23_2_cif.got.tgz:2352.got - 2010.06.04 12:02:01.
