data_PCOD9330109
_publ_section_title
;
Structure prediction by ZEFSAII (Michael W. Deem and Ramdas Pophale) SiO2 
 PCOD9330109
Probable space group: I 2 2 2
;
_chemical_formula_sum "Si O2"
_cell_formula_units_Z 64
_cell_length_a 12.974502
_cell_length_b 17.665900
_cell_length_c 13.362274
_cell_angle_alpha 90.000000
_cell_angle_beta 90.000000
_cell_angle_gamma 90.000000
_cell_volume 3062.716780
_symmetry_space_group_name_H-M "I 2 2 2"
_symmetry_group_IT_number 23
_symmetry_cell_setting 'orthorhombic'
loop_
_space_group_symop_operation_xyz
x,y,z
-x,-y,z
x,-y,-z
-x,y,-z
1/2+x,1/2+y,1/2+z
1/2-x,1/2-y,1/2+z
1/2+x,1/2-y,1/2-z
1/2-x,1/2+y,1/2-z
loop_
_atom_site_type_symbol
_atom_site_label
_atom_site_fract_x
_atom_site_fract_y
_atom_site_fract_z
Si Si1 0.441584 0.157820 0.101660
Si Si2 0.527573 0.341699 0.309015
Si Si3 0.430106 0.335866 0.092799
Si Si4 0.722945 0.592957 0.603037
Si Si5 0.987220 0.332143 0.824107
Si Si6 0.331764 0.583312 0.617351
Si Si7 0.231078 0.405031 0.174613
Si Si8 0.893470 0.533199 0.887266
O O1 0.408499 0.245636 0.086474
O O2 0.342163 0.107104 0.122605
O O3 0.506661 0.155771 0.203812
O O4 0.500000 0.134262 0.000000
O O5 0.495453 0.348190 0.193621
O O6 0.646083 0.359700 0.328082
O O7 0.503197 0.256562 0.343346
O O8 0.451971 0.398592 0.367349
O O9 0.324133 0.381495 0.102773
O O10 0.500000 0.358475 0.000000
O O11 0.690917 0.505771 0.613308
O O12 0.704502 0.616702 0.487690
O O13 0.080093 0.378668 0.876995
O O14 0.874127 0.362017 0.854021
O O15 0.270400 0.614426 0.713902
O O16 0.201878 0.494063 0.167673
O O17 0.000000 0.500000 0.841210
O O18 0.887879 0.500000 0.000000
#
# Coordination Sequence:
#
# PCOD9330109 Si02
#       8
#     8   8   8   8   8   8   8   8
#     4  10  20  36  59  92 130 158 202 254 308 368
#     4  10  21  38  60  86 121 161 210 255 305 365
#     4   9  20  39  58  88 125 164 206 258 301 358
#     4  11  21  38  60  89 120 163 202 249 318 370
#     4  10  20  37  61  89 122 159 207 256 307 366
#     4  10  22  38  58  87 122 155 201 255 309 370
#     4  10  19  38  62  82 120 163 201 251 310 363
#     4   9  19  37  56  84 121 155 198 249 300 358
#
# _framework density 20.896481000000001
#
# number of rings (size 3 to 8) (size 9 to 14) (size 15 to 20)
#    0.000    2.125    0.000    3.000    0.000    1.000 
#   15.750    3.750    0.000    0.000    0.000    0.000 
#    0.000    0.000    0.000    0.000    0.000    0.000 
#
# Total GULP energy -178658.790429 kJ/mol
# GULP energy per Si atom -5583.087201 kJ/mol
# Density = 2.084892 g / cm^3
# Si number density = 20.896481 Si / 1000 Ang^3
#
#
#
# Elastic Constant Matrix: (Units=GPa)
#
#
# Indices 1 2 3 4 5 6 
#
# 1 120.7854 58.0450 35.9490 0.0000 0.0000 0.0000
# 2 58.0450 75.2190 25.9988 -0.0001 0.0000 0.0000
# 3 35.9490 25.9988 58.0172 -0.0002 0.0000 -0.0001
# 4 0.0000 -0.0001 -0.0002 21.6864 0.0000 0.0000
# 5 0.0000 0.0000 0.0000 0.0000 30.7824 0.0000
# 6 0.0000 0.0000 -0.0001 0.0000 0.0000 24.2586
#
#
#
# Elastic Compliance Matrix: (Units=1/GPa)
#
#
# Indices 1 2 3 4 5 6 
#
# 1 0.014115 -0.009312 -0.004573 0.000000 0.000000 0.000000
# 2 -0.009312 0.021874 -0.004032 0.000000 0.000000 0.000000
# 3 -0.004573 -0.004032 0.021877 0.000000 0.000000 0.000000
# 4 0.000000 0.000000 0.000000 0.046112 0.000000 0.000000
# 5 0.000000 0.000000 0.000000 0.000000 0.032486 0.000000
# 6 0.000000 0.000000 0.000000 0.000000 0.000000 0.041223
#
#
# Mechanical properties :
#
#
# Convention : Reuss Voigt Hill
#
# Bulk Modulus (GPa) = 45.39014 54.88969 50.13991
# Shear Modulus (GPa) = 22.63825 24.28073 23.45949
#
# Velocity S-wave (km/s) = 3.29500 3.41244 3.35424
# Velocity P-wave (km/s) = 6.02035 6.46922 6.24882
#
# Compressibility (1/GPa) = 0.02203122
#
# Stress axis : x y z
#
# Youngs Moduli (GPa) = 70.84602 45.71661 45.70995
#
# Poissons Ratio (x) = 0.42570 0.20905
# Poissons Ratio (y) = 0.65969 0.18432
# Poissons Ratio (z) = 0.32400 0.18435
#
# Static dielectric constant tensor:
#      x y z
#    x 1.734900 0.000000 0.000000 
#    y 0.000000 1.785650 0.000000 
#    z 0.000000 0.000000 1.773200 
# 
# From -- ./inp_files/21070.got.cif
#   From: 2010.05.17/outbox.cif.g08.bks.cpg/sg23_11_cif.got.tgz:21070.got - 2010.06.04 12:02:01.
