data_PCOD9330328
_publ_section_title
;
Structure prediction by ZEFSAII (Michael W. Deem and Ramdas Pophale) SiO2 
 PCOD9330328
Probable space group: I 2 2 2
;
_chemical_formula_sum "Si O2"
_cell_formula_units_Z 56
_cell_length_a 10.339357
_cell_length_b 10.311048
_cell_length_c 24.395316
_cell_angle_alpha 90.000000
_cell_angle_beta 90.000000
_cell_angle_gamma 90.000000
_cell_volume 2600.775035
_symmetry_space_group_name_H-M "I 2 2 2"
_symmetry_group_IT_number 23
_symmetry_cell_setting 'orthorhombic'
loop_
_space_group_symop_operation_xyz
x,y,z
-x,-y,z
x,-y,-z
-x,y,-z
1/2+x,1/2+y,1/2+z
1/2-x,1/2-y,1/2+z
1/2+x,1/2-y,1/2-z
1/2-x,1/2+y,1/2-z
loop_
_atom_site_type_symbol
_atom_site_label
_atom_site_fract_x
_atom_site_fract_y
_atom_site_fract_z
Si Si1 0.887464 0.108108 0.911187
Si Si2 0.538789 0.799367 0.828119
Si Si3 0.287586 0.000000 0.000000
Si Si4 0.607814 0.893329 0.626372
Si Si5 0.198860 0.053472 0.321767
Si Si6 0.444275 0.216170 0.289099
Si Si7 0.500000 0.000000 0.914994
Si Si8 0.802908 0.963942 0.804341
O O1 0.917272 0.260175 0.905509
O O2 0.816433 0.063306 0.854591
O O3 0.800789 0.096251 0.965669
O O4 0.000000 0.000000 0.918470
O O5 0.586017 0.652552 0.838689
O O6 0.445594 0.794375 0.775804
O O7 0.471816 0.877059 0.876698
O O8 0.667473 0.884978 0.812421
O O9 0.384012 0.949952 0.046884
O O10 0.572787 0.850179 0.688758
O O11 0.500000 0.000000 0.609213
O O12 0.753678 0.947098 0.633935
O O13 0.328252 0.139094 0.316347
O O14 0.181053 0.011941 0.258255
O O15 0.420670 0.361236 0.308905
#
# Coordination Sequence:
#
# PCOD9330328 Si02
#       8
#     8   8   4   8   8   8   4   8
#     4  12  24  43  68  97 130 170 227 291 340 380
#     4  11  21  37  62  89 133 182 216 264 329 394
#     4  11  27  44  70  94 117 163 232 300 326 371
#     4  10  21  38  59  93 137 175 208 263 338 408
#     4  10  22  33  56  96 138 175 213 253 328 426
#     4  10  20  35  56  92 136 180 210 257 323 414
#     4  11  24  46  66  94 126 166 232 279 332 384
#     4  11  21  34  57  95 134 174 222 266 322 395
#
# _framework density 21.532043999999999
#
# number of rings (size 3 to 8) (size 9 to 14) (size 15 to 20)
#    0.000    1.286    4.286    1.929    3.000    0.000 
#    0.000    0.000    0.000    6.000    0.000    4.000 
#    0.000    0.000    0.000    0.000    0.000    0.000 
#
# Total GULP energy -156182.474980 kJ/mol
# GULP energy per Si atom -5577.945535 kJ/mol
# Density = 2.148304 g / cm^3
# Si number density = 21.532044 Si / 1000 Ang^3
#
#
#
# Elastic Constant Matrix: (Units=GPa)
#
#
# Indices 1 2 3 4 5 6 
#
# 1 50.3751 25.2813 22.5396 0.0000 0.0000 0.0000
# 2 25.2813 130.9879 42.6573 0.0000 0.0000 0.0000
# 3 22.5396 42.6573 79.2385 0.0000 0.0000 0.0000
# 4 0.0000 0.0000 0.0000 5.4139 0.0000 0.0000
# 5 0.0000 0.0000 0.0000 0.0000 28.0468 0.0000
# 6 0.0000 0.0000 0.0000 0.0000 0.0000 25.7853
#
#
#
# Elastic Compliance Matrix: (Units=1/GPa)
#
#
# Indices 1 2 3 4 5 6 
#
# 1 0.023605 -0.002873 -0.005168 0.000000 0.000000 0.000000
# 2 -0.002873 0.009607 -0.004355 0.000000 0.000000 0.000000
# 3 -0.005168 -0.004355 0.016434 0.000000 0.000000 0.000000
# 4 0.000000 0.000000 0.000000 0.184711 0.000000 0.000000
# 5 0.000000 0.000000 0.000000 0.000000 0.035655 0.000000
# 6 0.000000 0.000000 0.000000 0.000000 0.000000 0.038782
#
#
# Mechanical properties :
#
#
# Convention : Reuss Voigt Hill
#
# Bulk Modulus (GPa) = 40.23240 49.06202 44.64721
# Shear Modulus (GPa) = 14.62543 23.19073 18.90808
#
# Velocity S-wave (km/s) = 2.60905 3.28538 2.96655
# Velocity P-wave (km/s) = 5.27273 6.10137 5.70212
#
# Compressibility (1/GPa) = 0.02485559
#
# Stress axis : x y z
#
# Youngs Moduli (GPa) = 42.36352 104.09196 60.84796
#
# Poissons Ratio (x) = 0.29905 0.31446
# Poissons Ratio (y) = 0.12171 0.26497
# Poissons Ratio (z) = 0.21893 0.45328
#
# Static dielectric constant tensor:
#      x y z
#    x 1.883320 0.000000 0.000000 
#    y 0.000000 1.858570 0.000000 
#    z 0.000000 0.000000 1.748380 
# 
# From -- ./inp_files/28395.got.cif
#   From: 2010.05.17/outbox.cif.g08.bks.cpg/sg23_15_cif.got.tgz:28395.got - 2010.06.04 12:02:01.
