data_PCOD9330588
_publ_section_title
;
Structure prediction by ZEFSAII (Michael W. Deem and Ramdas Pophale) SiO2 
 PCOD9330588
Probable space group: I 2 2 2
;
_chemical_formula_sum "Si O2"
_cell_formula_units_Z 56
_cell_length_a 19.049109
_cell_length_b 8.758607
_cell_length_c 19.025728
_cell_angle_alpha 90.000000
_cell_angle_beta 90.000000
_cell_angle_gamma 90.000000
_cell_volume 3174.322083
_symmetry_space_group_name_H-M "I 2 2 2"
_symmetry_group_IT_number 23
_symmetry_cell_setting 'orthorhombic'
loop_
_space_group_symop_operation_xyz
x,y,z
-x,-y,z
x,-y,-z
-x,y,-z
1/2+x,1/2+y,1/2+z
1/2-x,1/2-y,1/2+z
1/2+x,1/2-y,1/2-z
1/2-x,1/2+y,1/2-z
loop_
_atom_site_type_symbol
_atom_site_label
_atom_site_fract_x
_atom_site_fract_y
_atom_site_fract_z
Si Si1 0.282092 0.676798 0.517260
Si Si2 0.760416 0.838383 0.621850
Si Si3 0.857651 0.178279 0.782967
Si Si4 0.640981 0.676239 0.248497
Si Si5 0.067257 0.666190 0.037755
Si Si6 0.239384 0.191512 0.344400
Si Si7 0.491465 0.827752 0.696539
O O1 0.288281 0.500000 0.500000
O O2 0.242964 0.769903 0.455691
O O3 0.359998 0.746846 0.527682
O O4 0.241813 0.696286 0.590339
O O5 0.697061 0.754282 0.663151
O O6 0.829537 0.815111 0.669495
O O7 0.751720 0.021051 0.625078
O O8 0.828251 0.216198 0.704914
O O9 0.933824 0.243105 0.802236
O O10 0.855145 0.994278 0.781053
O O11 0.693965 0.778013 0.294538
O O12 0.562925 0.735534 0.256326
O O13 0.044111 0.657511 0.119064
O O14 0.075162 0.500000 0.000000
O O15 0.000000 0.741970 0.000000
O O16 0.500000 0.000000 0.722657
#
# Coordination Sequence:
#
# PCOD9330588 Si02
#       7
#     8   8   8   8   8   8   8
#     4  12  24  36  57  86 115 152 191 243 288 341
#     4  10  21  37  60  81 112 152 193 240 295 344
#     4  10  22  37  58  83 113 151 196 246 287 336
#     4  10  21  38  57  83 114 148 197 245 285 341
#     4  11  22  38  52  76 119 157 193 221 278 353
#     4  10  20  39  58  81 112 152 195 240 291 349
#     4  12  22  36  58  82 115 161 190 234 283 343
#
# _framework density 17.641562
#
# number of rings (size 3 to 8) (size 9 to 14) (size 15 to 20)
#    0.000    1.286    2.857    4.286    0.000    3.714 
#    2.571    0.000    0.000    0.857    0.000    6.000 
#    0.000    0.000    0.000    0.000    0.000    0.000 
#
# Total GULP energy -156321.009331 kJ/mol
# GULP energy per Si atom -5582.893190 kJ/mol
# Density = 1.760141 g / cm^3
# Si number density = 17.641562 Si / 1000 Ang^3
#
#
#
# Elastic Constant Matrix: (Units=GPa)
#
#
# Indices 1 2 3 4 5 6 
#
# 1 60.6054 9.9209 9.4242 0.0000 0.0000 0.0000
# 2 9.9209 47.6702 8.3521 0.0000 0.0000 0.0000
# 3 9.4242 8.3521 55.4096 0.0000 0.0000 0.0000
# 4 0.0000 0.0000 0.0000 28.8598 0.0000 0.0000
# 5 0.0000 0.0000 0.0000 0.0000 21.6966 0.0000
# 6 0.0000 0.0000 0.0000 0.0000 0.0000 17.8241
#
#
#
# Elastic Compliance Matrix: (Units=1/GPa)
#
#
# Indices 1 2 3 4 5 6 
#
# 1 0.017408 -0.003188 -0.002480 0.000000 0.000000 0.000000
# 2 -0.003188 0.022130 -0.002794 0.000000 0.000000 0.000000
# 3 -0.002480 -0.002794 0.018890 0.000000 0.000000 0.000000
# 4 0.000000 0.000000 0.000000 0.034650 0.000000 0.000000
# 5 0.000000 0.000000 0.000000 0.000000 0.046090 0.000000
# 6 0.000000 0.000000 0.000000 0.000000 0.000000 0.056104
#
#
# Mechanical properties :
#
#
# Convention : Reuss Voigt Hill
#
# Bulk Modulus (GPa) = 24.09375 24.34219 24.21797
# Shear Modulus (GPa) = 22.12079 22.74196 22.43137
#
# Velocity S-wave (km/s) = 3.54489 3.59432 3.56969
# Velocity P-wave (km/s) = 5.51743 5.57258 5.54507
#
# Compressibility (1/GPa) = 0.04150453
#
# Stress axis : x y z
#
# Youngs Moduli (GPa) = 57.44558 45.18663 52.93710
#
# Poissons Ratio (x) = 0.14407 0.13129
# Poissons Ratio (y) = 0.18315 0.14788
# Poissons Ratio (z) = 0.14248 0.12623
#
# Static dielectric constant tensor:
#      x y z
#    x 1.586770 0.000000 0.000000 
#    y 0.000000 1.614920 0.000000 
#    z 0.000000 0.000000 1.615460 
# 
# From -- ./inp_files/25223.got.cif
#   From: 2010.05.17/outbox.cif.g08.bks.cpg/sg23_13_cif.got.tgz:25223.got - 2010.06.04 12:02:01.
