data_PCOD9330634
_publ_section_title
;
Structure prediction by ZEFSAII (Michael W. Deem and Ramdas Pophale) SiO2 
 PCOD9330634
Probable space group: I 2 2 2
;
_chemical_formula_sum "Si O2"
_cell_formula_units_Z 40
_cell_length_a 14.150536
_cell_length_b 8.278340
_cell_length_c 14.299279
_cell_angle_alpha 90.000000
_cell_angle_beta 90.000000
_cell_angle_gamma 90.000000
_cell_volume 1675.059699
_symmetry_space_group_name_H-M "I 2 2 2"
_symmetry_group_IT_number 23
_symmetry_cell_setting 'orthorhombic'
loop_
_space_group_symop_operation_xyz
x,y,z
-x,-y,z
x,-y,-z
-x,y,-z
1/2+x,1/2+y,1/2+z
1/2-x,1/2-y,1/2+z
1/2+x,1/2-y,1/2-z
1/2-x,1/2+y,1/2-z
loop_
_atom_site_type_symbol
_atom_site_label
_atom_site_fract_x
_atom_site_fract_y
_atom_site_fract_z
Si Si1 0.209542 0.126381 0.571033
Si Si2 0.915899 0.409967 0.357129
Si Si3 0.961012 0.820658 0.805392
Si Si4 0.374788 0.662448 0.435427
Si Si5 0.727651 0.467063 0.716015
O O1 0.139193 0.276211 0.583954
O O2 0.308448 0.194742 0.529540
O O3 0.223784 0.043569 0.672468
O O4 0.167457 0.000000 0.500000
O O5 0.967793 0.315113 0.272091
O O6 0.834035 0.529842 0.319811
O O7 0.000000 0.500000 0.405633
O O8 0.847578 0.832607 0.817720
O O9 0.021097 0.791821 0.899016
O O10 0.000000 0.000000 0.774385
O O11 0.373913 0.500000 0.500000
O O12 0.319878 0.620128 0.336782
#
# Coordination Sequence:
#
# PCOD9330634 Si02
#       5
#     8   8   8   8   8
#     4  10  22  40  65 100 138 179 221 272 335 401
#     4  10  20  39  69  98 127 176 232 277 331 397
#     4   9  19  36  61  95 130 166 211 268 340 400
#     4  10  21  38  66 102 132 169 216 274 345 409
#     4   9  20  38  63  93 130 170 211 266 331 394
#
# _framework density 23.879746000000001
#
# number of rings (size 3 to 8) (size 9 to 14) (size 15 to 20)
#    0.000    2.400    0.000    1.200    0.000   11.600 
#    0.000    8.000    0.000  105.000    0.000    1.400 
#    0.000    0.000    0.000    0.000    0.000    0.000 
#
# Total GULP energy -111575.457283 kJ/mol
# GULP energy per Si atom -5578.772864 kJ/mol
# Density = 2.382539 g / cm^3
# Si number density = 23.879746 Si / 1000 Ang^3
#
#
#
# Elastic Constant Matrix: (Units=GPa)
#
#
# Indices 1 2 3 4 5 6 
#
# 1 172.1673 58.5984 65.6051 0.0000 0.0000 0.0000
# 2 58.5984 72.1835 44.1021 0.0000 0.0000 0.0000
# 3 65.6051 44.1021 126.1765 0.0000 0.0000 0.0000
# 4 0.0000 0.0000 0.0000 6.1366 0.0000 0.0000
# 5 0.0000 0.0000 0.0000 0.0000 -32.4859 0.0000
# 6 0.0000 0.0000 0.0000 0.0000 0.0000 26.6461
#
#
#
# Elastic Compliance Matrix: (Units=1/GPa)
#
#
# Indices 1 2 3 4 5 6 
#
# 1 0.008647 -0.005433 -0.002597 0.000000 0.000000 0.000000
# 2 -0.005433 0.021029 -0.004525 0.000000 0.000000 0.000000
# 3 -0.002597 -0.004525 0.010857 0.000000 0.000000 0.000000
# 4 0.000000 0.000000 0.000000 0.162956 0.000000 0.000000
# 5 0.000000 0.000000 0.000000 0.000000 -0.030783 0.000000
# 6 0.000000 0.000000 0.000000 0.000000 0.000000 0.037529
#
#
# Mechanical properties :
#
#
# Convention : Reuss Voigt Hill
#
# Bulk Modulus (GPa) = 64.83922 78.57096 71.70509
# Shear Modulus (GPa) = 20.79112 13.54082 17.16597
#
# Velocity S-wave (km/s) = 2.95389 2.38385 2.68405
# Velocity P-wave (km/s) = 6.23260 6.36798 6.30065
#
# Compressibility (1/GPa) = 0.01542276
#
# Stress axis : x y z
#
# Youngs Moduli (GPa) = 115.64630 47.55368 92.10258
#
# Poissons Ratio (x) = 0.25836 0.23920
# Poissons Ratio (y) = 0.62830 0.41679
# Poissons Ratio (z) = 0.30034 0.21520
#
# Static dielectric constant tensor:
#      x y z
#    x 1.983400 0.000000 0.000000 
#    y 0.000000 2.070380 0.000000 
#    z 0.000000 0.000000 1.976650 
# 
# From -- ./inp_files/21357.got.cif
#   From: 2010.05.17/outbox.cif.g08.bks.cpg/sg23_11_cif.got.tgz:21357.got - 2010.06.04 12:02:01.
