data_PCOD9330901
_publ_section_title
;
Structure prediction by ZEFSAII (Michael W. Deem and Ramdas Pophale) SiO2 
 PCOD9330901
Probable space group: I 2 2 2
;
_chemical_formula_sum "Si O2"
_cell_formula_units_Z 32
_cell_length_a 16.108076
_cell_length_b 15.616798
_cell_length_c 5.404268
_cell_angle_alpha 90.000000
_cell_angle_beta 90.000000
_cell_angle_gamma 90.000000
_cell_volume 1359.479116
_symmetry_space_group_name_H-M "I 2 2 2"
_symmetry_group_IT_number 23
_symmetry_cell_setting 'orthorhombic'
loop_
_space_group_symop_operation_xyz
x,y,z
-x,-y,z
x,-y,-z
-x,y,-z
1/2+x,1/2+y,1/2+z
1/2-x,1/2-y,1/2+z
1/2+x,1/2-y,1/2-z
1/2-x,1/2+y,1/2-z
loop_
_atom_site_type_symbol
_atom_site_label
_atom_site_fract_x
_atom_site_fract_y
_atom_site_fract_z
Si Si1 0.101719 0.054160 0.750000
Si Si2 0.978385 0.217193 0.750000
Si Si3 0.298559 0.947322 0.250000
Si Si4 0.197152 0.259685 0.249997
O O1 0.199698 0.075426 0.750000
O O2 0.040977 0.135837 0.750000
O O3 0.088278 0.000000 0.500000
O O4 0.088278 0.000000 0.000000
O O5 0.880867 0.195283 0.750001
O O6 0.000000 0.265299 0.500000
O O7 0.000000 0.265299 0.000000
O O8 0.340721 0.854903 0.250000
O O9 0.315216 0.000000 0.500000
O O10 0.315216 0.000000 0.000000
O O11 0.250001 0.249999 0.499995
#
# Coordination Sequence:
#
# PCOD9330901 Si02
#       4
#     8   8   8   8
#     4  10  21  37  60  94 133 166 202 254 323 398
#     4  12  25  41  62  93 130 171 217 265 324 389
#     4  10  21  40  67  96 130 172 216 268 326 388
#     4  12  25  44  67  95 135 179 223 270 325 394
#
# _framework density 23.538426000000001
#
# number of rings (size 3 to 8) (size 9 to 14) (size 15 to 20)
#    0.000    1.000    0.000    7.500    0.000    7.000 
#    0.000    7.500    0.000    4.500    0.000    0.000 
#    0.000    0.000    0.000    0.000    0.000    0.000 
#
# Total GULP energy -89594.415401 kJ/mol
# GULP energy per Si atom -5599.650963 kJ/mol
# Density = 2.348485 g / cm^3
# Si number density = 23.538426 Si / 1000 Ang^3
#
#
#
# Elastic Constant Matrix: (Units=GPa)
#
#
# Indices 1 2 3 4 5 6 
#
# 1 78.4892 -1.5928 43.8798 0.0000 0.0000 0.0000
# 2 -1.5928 110.2986 47.1251 0.0000 0.0000 0.0000
# 3 43.8798 47.1251 265.6277 0.0000 0.0000 0.0000
# 4 0.0000 0.0000 0.0000 28.3092 0.0000 0.0000
# 5 0.0000 0.0000 0.0000 0.0000 31.2741 0.0000
# 6 0.0000 0.0000 0.0000 0.0000 0.0000 38.5372
#
#
#
# Elastic Compliance Matrix: (Units=1/GPa)
#
#
# Indices 1 2 3 4 5 6 
#
# 1 0.014209 0.001307 -0.002579 0.000000 0.000000 0.000000
# 2 0.001307 0.009930 -0.001978 0.000000 0.000000 0.000000
# 3 -0.002579 -0.001978 0.004542 0.000000 0.000000 0.000000
# 4 0.000000 0.000000 0.000000 0.035324 0.000000 0.000000
# 5 0.000000 0.000000 0.000000 0.000000 0.031975 0.000000
# 6 0.000000 0.000000 0.000000 0.000000 0.000000 0.025949
#
#
# Mechanical properties :
#
#
# Convention : Reuss Voigt Hill
#
# Bulk Modulus (GPa) = 45.08276 70.35995 57.72136
# Shear Modulus (GPa) = 36.81278 43.95763 40.38521
#
# Velocity S-wave (km/s) = 3.95896 4.32613 4.14661
# Velocity P-wave (km/s) = 6.33185 7.41015 6.89212
#
# Compressibility (1/GPa) = 0.02218143
#
# Stress axis : x y z
#
# Youngs Moduli (GPa) = 70.37792 100.70369 220.18801
#
# Poissons Ratio (x) = -0.13163 0.56789
# Poissons Ratio (y) = -0.09199 0.43545
# Poissons Ratio (z) = 0.18151 0.19916
#
# Static dielectric constant tensor:
#      x y z
#    x 1.937290 0.000000 0.000000 
#    y 0.000000 1.882460 0.000000 
#    z 0.000000 0.000000 1.937890 
# 
# From -- ./inp_files/3065.got.cif
#   From: 2010.05.17/outbox.cif.g08.bks.cpg/sg23_2_cif.got.tgz:3065.got - 2010.06.04 12:02:01.
