data_PCOD9330110
_publ_section_title
;
Structure prediction by ZEFSAII (Michael W. Deem and Ramdas Pophale) SiO2 
 PCOD9330110
Probable space group: I 2 2 2
;
_chemical_formula_sum "Si O2"
_cell_formula_units_Z 48
_cell_length_a 12.375947
_cell_length_b 12.516272
_cell_length_c 14.201824
_cell_angle_alpha 90.000000
_cell_angle_beta 90.000000
_cell_angle_gamma 90.000000
_cell_volume 2199.872747
_symmetry_space_group_name_H-M "I 2 2 2"
_symmetry_group_IT_number 23
_symmetry_cell_setting 'orthorhombic'
loop_
_space_group_symop_operation_xyz
x,y,z
-x,-y,z
x,-y,-z
-x,y,-z
1/2+x,1/2+y,1/2+z
1/2-x,1/2-y,1/2+z
1/2+x,1/2-y,1/2-z
1/2-x,1/2+y,1/2-z
loop_
_atom_site_type_symbol
_atom_site_label
_atom_site_fract_x
_atom_site_fract_y
_atom_site_fract_z
Si Si1 0.824801 0.673617 0.004453
Si Si2 0.896194 0.741712 0.433510
Si Si3 0.123007 0.489303 0.366896
Si Si4 0.342045 0.406773 0.571994
Si Si5 0.168966 0.485864 0.847968
Si Si6 0.906963 0.918510 0.287104
O O1 0.864675 0.791681 0.027372
O O2 0.843449 0.591497 0.089401
O O3 0.696382 0.691375 0.987007
O O4 0.869532 0.614744 0.911026
O O5 0.845504 0.630259 0.397798
O O6 0.927100 0.807037 0.339609
O O7 0.000000 0.727934 0.500000
O O8 0.213402 0.570757 0.406026
O O9 0.120179 0.502693 0.254794
O O10 0.000000 0.500000 0.399899
O O11 0.374281 0.500000 0.500000
O O12 0.396547 0.410801 0.674506
O O13 0.294799 0.464731 0.826438
O O14 0.000000 0.000000 0.312751
#
# Coordination Sequence:
#
# PCOD9330110 Si02
#       6
#     8   8   8   8   8   8
#     4  10  19  38  62  85 118 158 208 242 304 364
#     4  11  21  35  62  93 121 157 199 259 312 362
#     4  11  23  38  58  90 125 153 203 252 313 360
#     4  11  22  39  62  86 120 163 204 253 303 369
#     4   9  21  39  62  86 118 163 197 254 301 365
#     4  10  22  39  58  91 123 157 204 250 310 364
#
# _framework density 21.819443
#
# number of rings (size 3 to 8) (size 9 to 14) (size 15 to 20)
#    0.000    1.667    1.667    3.000    0.000    2.000 
#    3.000    1.667    3.667    0.000    0.000    0.000 
#    0.000    0.000    0.000    0.000    0.000    0.000 
#
# Total GULP energy -134164.041965 kJ/mol
# GULP energy per Si atom -5590.168415 kJ/mol
# Density = 2.176978 g / cm^3
# Si number density = 21.819443 Si / 1000 Ang^3
#
#
#
# Elastic Constant Matrix: (Units=GPa)
#
#
# Indices 1 2 3 4 5 6 
#
# 1 60.2779 12.9939 13.0098 0.0000 0.0000 0.0000
# 2 12.9939 161.7057 76.6785 0.0000 0.0000 0.0000
# 3 13.0098 76.6785 169.2557 0.0000 0.0000 0.0000
# 4 0.0000 0.0000 0.0000 33.9933 0.0000 0.0000
# 5 0.0000 0.0000 0.0000 0.0000 7.6735 0.0000
# 6 0.0000 0.0000 0.0000 0.0000 0.0000 8.3337
#
#
#
# Elastic Compliance Matrix: (Units=1/GPa)
#
#
# Indices 1 2 3 4 5 6 
#
# 1 0.016983 -0.000950 -0.000875 0.000000 0.000000 0.000000
# 2 -0.000950 0.007929 -0.003519 0.000000 0.000000 0.000000
# 3 -0.000875 -0.003519 0.007570 0.000000 0.000000 0.000000
# 4 0.000000 0.000000 0.000000 0.029418 0.000000 0.000000
# 5 0.000000 0.000000 0.000000 0.000000 0.130319 0.000000
# 6 0.000000 0.000000 0.000000 0.000000 0.000000 0.119995
#
#
# Mechanical properties :
#
#
# Convention : Reuss Voigt Hill
#
# Bulk Modulus (GPa) = 45.88368 66.28933 56.08650
# Shear Modulus (GPa) = 15.14388 29.23723 22.19056
#
# Velocity S-wave (km/s) = 2.63735 3.66452 3.19252
# Velocity P-wave (km/s) = 5.50896 6.95354 6.27297
#
# Compressibility (1/GPa) = 0.02179424
#
# Stress axis : x y z
#
# Youngs Moduli (GPa) = 58.88090 126.11738 132.10407
#
# Poissons Ratio (x) = 0.11978 0.11561
# Poissons Ratio (y) = 0.05592 0.46490
# Poissons Ratio (z) = 0.05153 0.44383
#
# Static dielectric constant tensor:
#      x y z
#    x 1.835790 0.000000 0.000000 
#    y 0.000000 1.776040 0.000000 
#    z 0.000000 0.000000 1.777900 
# 
# From -- ./inp_files/16673.got.cif
#   From: 2010.05.17/outbox.cif.g08.bks.cpg/sg23_9_cif.got.tgz:16673.got - 2010.06.04 12:02:01.
