data_PCOD9330405
_publ_section_title
;
Structure prediction by ZEFSAII (Michael W. Deem and Ramdas Pophale) SiO2 
 PCOD9330405
Probable space group: I 2 2 2
;
_chemical_formula_sum "Si O2"
_cell_formula_units_Z 48
_cell_length_a 26.397856
_cell_length_b 7.570381
_cell_length_c 10.879025
_cell_angle_alpha 90.000000
_cell_angle_beta 90.000000
_cell_angle_gamma 90.000000
_cell_volume 2174.084237
_symmetry_space_group_name_H-M "I 2 2 2"
_symmetry_group_IT_number 23
_symmetry_cell_setting 'orthorhombic'
loop_
_space_group_symop_operation_xyz
x,y,z
-x,-y,z
x,-y,-z
-x,y,-z
1/2+x,1/2+y,1/2+z
1/2-x,1/2-y,1/2+z
1/2+x,1/2-y,1/2-z
1/2-x,1/2+y,1/2-z
loop_
_atom_site_type_symbol
_atom_site_label
_atom_site_fract_x
_atom_site_fract_y
_atom_site_fract_z
Si Si1 0.289256 0.787555 0.859904
Si Si2 0.603211 0.208099 0.238457
Si Si3 0.939930 0.212268 0.000000
Si Si4 0.789255 0.287559 0.640098
Si Si5 0.500000 0.201180 0.144000
Si Si6 0.396789 0.791900 0.761545
O O1 0.250000 0.749997 0.750001
O O2 0.344226 0.720355 0.813810
O O3 0.291385 0.999998 0.867575
O O4 0.277545 0.724515 0.000001
O O5 0.591943 0.225668 0.382393
O O6 0.655774 0.279643 0.186193
O O7 0.552159 0.288799 0.182542
O O8 0.604008 1.000000 0.204976
O O9 0.908057 0.274332 0.117608
O O10 0.000000 0.270925 0.000000
O O11 0.941453 0.000000 0.000000
O O12 0.447842 0.288800 0.182542
O O13 0.500000 0.000000 0.198674
O O14 0.500000 0.184890 0.000000
#
# Coordination Sequence:
#
# PCOD9330405 Si02
#       6
#     8   8   8   8   8   8
#     4  10  23  42  63  90 122 157 201 251 304 361
#     4  10  20  36  60  86 115 151 196 245 292 351
#     4  11  23  37  55  85 125 161 193 236 297 360
#     4  10  23  42  63  90 122 157 201 251 304 361
#     4   9  16  29  55  86 110 139 184 239 294 345
#     4  10  20  36  60  86 115 151 196 245 292 351
#
# _framework density 22.078258999999999
#
# number of rings (size 3 to 8) (size 9 to 14) (size 15 to 20)
#    0.000    2.000    1.667    1.500    2.333    6.667 
#    0.000    0.000    0.000    4.000    0.000    0.000 
#    0.000    0.000    0.000    0.000    0.000    0.000 
#
# Total GULP energy -133844.470101 kJ/mol
# GULP energy per Si atom -5576.852921 kJ/mol
# Density = 2.202801 g / cm^3
# Si number density = 22.078259 Si / 1000 Ang^3
#
#
#
# Elastic Constant Matrix: (Units=GPa)
#
#
# Indices 1 2 3 4 5 6 
#
# 1 201.7268 12.0294 109.4659 0.0000 0.0000 0.0000
# 2 12.0294 61.4974 -6.0787 0.0000 0.0000 0.0000
# 3 109.4659 -6.0787 179.5353 0.0000 0.0000 0.0000
# 4 0.0000 0.0000 0.0000 -9.5761 0.0000 0.0000
# 5 0.0000 0.0000 0.0000 0.0000 33.6631 0.0000
# 6 0.0000 0.0000 0.0000 0.0000 0.0000 32.5796
#
#
#
# Elastic Compliance Matrix: (Units=1/GPa)
#
#
# Indices 1 2 3 4 5 6 
#
# 1 0.007637 -0.001961 -0.004723 0.000000 0.000000 0.000000
# 2 -0.001961 0.016819 0.001765 0.000000 0.000000 0.000000
# 3 -0.004723 0.001765 0.008509 0.000000 0.000000 0.000000
# 4 0.000000 0.000000 0.000000 -0.104426 0.000000 0.000000
# 5 0.000000 0.000000 0.000000 0.000000 0.029706 0.000000
# 6 0.000000 0.000000 0.000000 0.000000 0.000000 0.030694
#
#
# Mechanical properties :
#
#
# Convention : Reuss Voigt Hill
#
# Bulk Modulus (GPa) = 43.23769 74.84362 59.04065
# Shear Modulus (GPa) = 770.99562 33.15617 402.07589
#
# Velocity S-wave (km/s) = 18.70744 3.87945 13.50960
# Velocity P-wave (km/s) = 22.05110 7.35117 16.43610
#
# Compressibility (1/GPa) = 0.02312797
#
# Stress axis : x y z
#
# Youngs Moduli (GPa) = 130.94353 59.45716 117.51950
#
# Poissons Ratio (x) = 0.11657 0.55501
# Poissons Ratio (y) = 0.25673 -0.20741
# Poissons Ratio (z) = 0.61841 -0.10494
#
# Static dielectric constant tensor:
#      x y z
#    x 1.831830 0.000000 0.000000 
#    y 0.000000 1.874060 0.000000 
#    z 0.000000 0.000000 1.939150 
# 
# From -- ./inp_files/18305.got.cif
#   From: 2010.05.17/outbox.cif.g08.bks.cpg/sg23_10_cif.got.tgz:18305.got - 2010.06.04 12:02:01.
