data_PCOD9330842
_publ_section_title
;
Structure prediction by ZEFSAII (Michael W. Deem and Ramdas Pophale) SiO2 
 PCOD9330842
Probable space group: I 2 2 2
;
_chemical_formula_sum "Si O2"
_cell_formula_units_Z 64
_cell_length_a 30.162944
_cell_length_b 5.500117
_cell_length_c 21.634334
_cell_angle_alpha 90.000000
_cell_angle_beta 90.000000
_cell_angle_gamma 90.000000
_cell_volume 3589.129976
_symmetry_space_group_name_H-M "I 2 2 2"
_symmetry_group_IT_number 23
_symmetry_cell_setting 'orthorhombic'
loop_
_space_group_symop_operation_xyz
x,y,z
-x,-y,z
x,-y,-z
-x,y,-z
1/2+x,1/2+y,1/2+z
1/2-x,1/2-y,1/2+z
1/2+x,1/2-y,1/2-z
1/2-x,1/2+y,1/2-z
loop_
_atom_site_type_symbol
_atom_site_label
_atom_site_fract_x
_atom_site_fract_y
_atom_site_fract_z
Si Si1 0.129601 0.707955 0.343769
Si Si2 0.786809 0.139913 0.937401
Si Si3 0.693423 0.522992 0.768117
Si Si4 0.160550 0.614770 0.836779
Si Si5 0.451323 0.567861 0.792245
Si Si6 0.417404 0.935914 0.252775
Si Si7 0.260627 0.270643 0.332406
Si Si8 0.808932 0.242003 0.463203
O O1 0.112290 0.462090 0.310754
O O2 0.158979 0.709571 0.404712
O O3 0.159907 0.821112 0.289962
O O4 0.085628 0.877558 0.344857
O O5 0.828368 0.265570 0.903224
O O6 0.743277 0.306547 0.947186
O O7 0.767148 0.947716 0.888780
O O8 0.798727 0.000000 0.000000
O O9 0.735560 0.411702 0.732619
O O10 0.712856 0.649509 0.828868
O O11 0.671649 0.689711 0.716500
O O12 0.112231 0.531317 0.814491
O O13 0.197607 0.407288 0.833280
O O14 0.500000 0.500000 0.815771
O O15 0.551022 0.173756 0.755132
O O16 0.437342 0.333698 0.751433
O O17 0.808580 0.500000 0.500000
O O18 0.823952 0.000000 0.500000
#
# Coordination Sequence:
#
# PCOD9330842 Si02
#       8
#     8   8   8   8   8   8   8   8
#     4  10  23  35  61  81 117 147 197 243 299 357
#     4  10  26  38  51  73 114 169 210 245 287 326
#     4  11  20  31  49  85 107 151 189 242 293 338
#     4  11  20  34  53  77 115 149 195 244 283 346
#     4  10  21  37  62  91 121 147 175 228 315 389
#     4  10  21  36  59  91 117 145 186 231 302 362
#     4  11  21  31  52  76 112 149 198 240 291 333
#     4  11  27  42  55  80 113 162 217 255 289 329
#
# _framework density 17.831617999999999
#
# number of rings (size 3 to 8) (size 9 to 14) (size 15 to 20)
#    0.750    0.750    3.750    1.125   14.000    0.000 
#    0.000    0.000    0.000    0.375    0.000    0.000 
#    0.000    0.500    0.750    0.000    0.000    0.000 
#
# Total GULP energy -178151.948660 kJ/mol
# GULP energy per Si atom -5567.248396 kJ/mol
# Density = 1.779103 g / cm^3
# Si number density = 17.831618 Si / 1000 Ang^3
#
#
#
# Elastic Constant Matrix: (Units=GPa)
#
#
# Indices 1 2 3 4 5 6 
#
# 1 41.8739 8.4921 24.9329 0.0000 0.0000 0.0000
# 2 8.4921 69.8180 21.2604 0.0000 0.0000 0.0000
# 3 24.9329 21.2604 81.1582 0.0000 0.0000 0.0000
# 4 0.0000 0.0000 0.0000 27.4814 0.0000 0.0000
# 5 0.0000 0.0000 0.0000 0.0000 15.0710 0.0000
# 6 0.0000 0.0000 0.0000 0.0000 0.0000 22.6733
#
#
#
# Elastic Compliance Matrix: (Units=1/GPa)
#
#
# Indices 1 2 3 4 5 6 
#
# 1 0.029279 -0.000893 -0.008761 0.000000 0.000000 0.000000
# 2 -0.000893 0.015592 -0.003810 0.000000 0.000000 0.000000
# 3 -0.008761 -0.003810 0.016011 0.000000 0.000000 0.000000
# 4 0.000000 0.000000 0.000000 0.036388 0.000000 0.000000
# 5 0.000000 0.000000 0.000000 0.000000 0.066353 0.000000
# 6 0.000000 0.000000 0.000000 0.000000 0.000000 0.044105
#
#
# Mechanical properties :
#
#
# Convention : Reuss Voigt Hill
#
# Bulk Modulus (GPa) = 29.45224 33.58009 31.51617
# Shear Modulus (GPa) = 20.32739 22.25614 21.29177
#
# Velocity S-wave (km/s) = 3.38000 3.53672 3.45925
# Velocity P-wave (km/s) = 5.63784 5.96242 5.80240
#
# Compressibility (1/GPa) = 0.03395327
#
# Stress axis : x y z
#
# Youngs Moduli (GPa) = 34.15435 64.13621 62.45658
#
# Poissons Ratio (x) = 0.05730 0.54717
# Poissons Ratio (y) = 0.03052 0.23796
# Poissons Ratio (z) = 0.29922 0.24436
#
# Static dielectric constant tensor:
#      x y z
#    x 1.636660 0.000000 0.000000 
#    y 0.000000 1.719500 0.000000 
#    z 0.000000 0.000000 1.616110 
# 
# From -- ./inp_files/27414.got.cif
#   From: 2010.05.17/outbox.cif.g08.bks.cpg/sg23_14_cif.got.tgz:27414.got - 2010.06.04 12:02:01.
