data_PCOD9330845
_publ_section_title
;
Structure prediction by ZEFSAII (Michael W. Deem and Ramdas Pophale) SiO2 
 PCOD9330845
Probable space group: I 2 2 2
;
_chemical_formula_sum "Si O2"
_cell_formula_units_Z 48
_cell_length_a 16.452219
_cell_length_b 5.241422
_cell_length_c 24.877334
_cell_angle_alpha 90.000000
_cell_angle_beta 90.000000
_cell_angle_gamma 90.000000
_cell_volume 2145.247705
_symmetry_space_group_name_H-M "I 2 2 2"
_symmetry_group_IT_number 23
_symmetry_cell_setting 'orthorhombic'
loop_
_space_group_symop_operation_xyz
x,y,z
-x,-y,z
x,-y,-z
-x,y,-z
1/2+x,1/2+y,1/2+z
1/2-x,1/2-y,1/2+z
1/2+x,1/2-y,1/2-z
1/2-x,1/2+y,1/2-z
loop_
_atom_site_type_symbol
_atom_site_label
_atom_site_fract_x
_atom_site_fract_y
_atom_site_fract_z
Si Si1 0.821962 0.122843 0.944785
Si Si2 0.293825 0.272520 0.295316
Si Si3 0.116031 0.574980 0.738884
Si Si4 0.582798 0.344006 0.344749
Si Si5 0.448634 0.242619 0.875311
Si Si6 0.733874 0.609876 0.904797
O O1 0.759314 0.363972 0.940338
O O2 0.894126 0.222480 0.905792
O O3 0.773829 0.870761 0.925361
O O4 0.855154 0.000000 0.000000
O O5 0.208286 0.324109 0.267759
O O6 0.338226 0.495225 0.327042
O O7 0.270570 0.075396 0.343843
O O8 0.360692 0.218021 0.248848
O O9 0.070666 0.658834 0.686111
O O10 0.076556 0.650273 0.795258
O O11 0.500000 0.500000 0.345627
O O12 0.500000 0.500000 0.875995
O O13 0.361592 0.321557 0.900525
O O14 0.500000 0.000000 0.898410
#
# Coordination Sequence:
#
# PCOD9330845 Si02
#       6
#     8   8   8   8   8   8
#     4  11  23  44  70  95 120 168 228 279 334 395
#     4  10  21  36  60  85 125 179 220 259 308 394
#     4  11  21  35  59  85 134 177 224 252 313 391
#     4  11  24  38  58  90 130 171 217 280 336 384
#     4  11  25  39  62 100 139 173 209 263 329 397
#     4  10  22  43  69  92 128 170 218 269 327 398
#
# _framework density 22.375039000000001
#
# number of rings (size 3 to 8) (size 9 to 14) (size 15 to 20)
#    0.000    1.333    3.333    2.000    4.667    0.333 
#    0.000    0.000    0.000    9.500    0.000    0.000 
#    0.000    0.000    0.000    0.000    0.000    0.000 
#
# Total GULP energy -133606.075659 kJ/mol
# GULP energy per Si atom -5566.919819 kJ/mol
# Density = 2.232411 g / cm^3
# Si number density = 22.375039 Si / 1000 Ang^3
#
#
#
# Elastic Constant Matrix: (Units=GPa)
#
#
# Indices 1 2 3 4 5 6 
#
# 1 96.5344 17.3233 13.1600 0.0000 0.0000 0.0000
# 2 17.3233 94.3060 2.6982 0.0000 0.0000 0.0000
# 3 13.1600 2.6982 47.2307 0.0000 0.0000 0.0000
# 4 0.0000 0.0000 0.0000 30.8361 0.0000 0.0000
# 5 0.0000 0.0000 0.0000 0.0000 -162.2575 0.0000
# 6 0.0000 0.0000 0.0000 0.0000 0.0000 37.0833
#
#
#
# Elastic Compliance Matrix: (Units=1/GPa)
#
#
# Indices 1 2 3 4 5 6 
#
# 1 0.011117 -0.001957 -0.002986 0.000000 0.000000 0.000000
# 2 -0.001957 0.010966 -0.000081 0.000000 0.000000 0.000000
# 3 -0.002986 -0.000081 0.022009 0.000000 0.000000 0.000000
# 4 0.000000 0.000000 0.000000 0.032430 0.000000 0.000000
# 5 0.000000 0.000000 0.000000 0.000000 -0.006163 0.000000
# 6 0.000000 0.000000 0.000000 0.000000 0.000000 0.026966
#
#
# Mechanical properties :
#
#
# Convention : Reuss Voigt Hill
#
# Bulk Modulus (GPa) = 29.37338 33.82602 31.59970
# Shear Modulus (GPa) = 42.11572 -5.20833 18.45370
#
# Velocity S-wave (km/s) = 4.34321 -1.52735 2.87495
# Velocity P-wave (km/s) = 6.18931 3.46990 5.01736
#
# Compressibility (1/GPa) = 0.03404443
#
# Stress axis : x y z
#
# Youngs Moduli (GPa) = 89.95090 91.19479 45.43540
#
# Poissons Ratio (x) = 0.17844 0.13566
# Poissons Ratio (y) = 0.17601 0.00369
# Poissons Ratio (z) = 0.26858 0.00741
#
# Static dielectric constant tensor:
#      x y z
#    x 1.697370 0.000000 0.000000 
#    y 0.000000 5.321620 0.000000 
#    z 0.000000 0.000000 1.984420 
# 
# From -- ./inp_files/3363.got.cif
#   From: 2010.05.17/outbox.cif.g08.bks.cpg/sg23_2_cif.got.tgz:3363.got - 2010.06.04 12:02:01.
