data_PCOD9330952
_publ_section_title
;
Structure prediction by ZEFSAII (Michael W. Deem and Ramdas Pophale) SiO2 
 PCOD9330952
Probable space group: I 2 2 2
;
_chemical_formula_sum "Si O2"
_cell_formula_units_Z 64
_cell_length_a 12.707593
_cell_length_b 13.874651
_cell_length_c 19.352609
_cell_angle_alpha 90.000000
_cell_angle_beta 90.000000
_cell_angle_gamma 90.000000
_cell_volume 3412.124639
_symmetry_space_group_name_H-M "I 2 2 2"
_symmetry_group_IT_number 23
_symmetry_cell_setting 'orthorhombic'
loop_
_space_group_symop_operation_xyz
x,y,z
-x,-y,z
x,-y,-z
-x,y,-z
1/2+x,1/2+y,1/2+z
1/2-x,1/2-y,1/2+z
1/2+x,1/2-y,1/2-z
1/2-x,1/2+y,1/2-z
loop_
_atom_site_type_symbol
_atom_site_label
_atom_site_fract_x
_atom_site_fract_y
_atom_site_fract_z
Si Si1 0.500000 0.615799 0.285541
Si Si2 0.289924 0.722056 0.674002
Si Si3 0.120833 0.383714 0.420131
Si Si4 0.233335 0.113458 0.420211
Si Si5 0.789922 0.777944 0.174002
Si Si6 0.120833 0.383714 0.579870
Si Si7 0.500000 0.383915 0.877568
Si Si8 0.233335 0.113459 0.579788
O O1 0.500000 0.500000 0.291796
O O2 0.603665 0.661855 0.318512
O O3 0.396333 0.661854 0.318511
O O4 0.500001 0.640028 0.203549
O O5 0.202852 0.660379 0.633066
O O6 0.300830 0.820000 0.629968
O O7 0.250001 0.749998 0.750000
O O8 0.144753 0.356900 0.500000
O O9 0.124766 0.500000 0.416646
O O10 0.000000 0.354712 0.405065
O O11 0.262773 0.124538 0.500000
O O12 0.110745 0.145214 0.411012
O O13 0.239717 1.000000 0.402116
O O14 0.702850 0.839621 0.133067
O O15 0.800831 0.680002 0.129967
O O16 0.500000 0.500000 0.883595
O O17 0.610745 0.354786 0.911013
#
# Coordination Sequence:
#
# PCOD9330952 Si02
#       8
#     8   8   8   8   8   8   8   8
#     4  11  24  43  62  89 131 169 203 251 306 373
#     4  12  24  37  62  91 128 166 208 246 305 377
#     4   9  20  40  65  92 120 153 203 269 325 361
#     4  10  21  38  61  90 124 159 201 255 311 369
#     4  12  24  37  62  91 128 166 208 246 305 377
#     4   9  20  40  65  92 120 153 203 269 325 361
#     4   9  17  34  59  90 122 154 192 244 312 372
#     4  10  21  38  61  90 124 159 201 255 311 369
#
# _framework density 18.756641999999999
#
# number of rings (size 3 to 8) (size 9 to 14) (size 15 to 20)
#    0.000    1.750    2.500    2.625    3.500    2.500 
#    0.000    3.125    0.000    6.000    0.000    0.000 
#    0.000    0.000    0.000    0.000    0.000    0.000 
#
# Total GULP energy -178815.501568 kJ/mol
# GULP energy per Si atom -5587.984424 kJ/mol
# Density = 1.871395 g / cm^3
# Si number density = 18.756642 Si / 1000 Ang^3
#
#
#
# Elastic Constant Matrix: (Units=GPa)
#
#
# Indices 1 2 3 4 5 6 
#
# 1 114.3395 55.1862 77.3611 0.0000 0.0000 0.0000
# 2 55.1862 109.3496 69.2209 0.0000 0.0000 0.0000
# 3 77.3611 69.2209 127.4187 0.0000 0.0000 0.0000
# 4 0.0000 0.0000 0.0000 37.9625 0.0000 0.0000
# 5 0.0000 0.0000 0.0000 0.0000 33.5338 0.0000
# 6 0.0000 0.0000 0.0000 0.0000 0.0000 42.5951
#
#
#
# Elastic Compliance Matrix: (Units=1/GPa)
#
#
# Indices 1 2 3 4 5 6 
#
# 1 0.015395 -0.002824 -0.007813 0.000000 0.000000 0.000000
# 2 -0.002824 0.014456 -0.006139 0.000000 0.000000 0.000000
# 3 -0.007813 -0.006139 0.015927 0.000000 0.000000 0.000000
# 4 0.000000 0.000000 0.000000 0.026342 0.000000 0.000000
# 5 0.000000 0.000000 0.000000 0.000000 0.029821 0.000000
# 6 0.000000 0.000000 0.000000 0.000000 0.000000 0.023477
#
#
# Mechanical properties :
#
#
# Convention : Reuss Voigt Hill
#
# Bulk Modulus (GPa) = 81.78892 83.84934 82.81913
# Shear Modulus (GPa) = 30.66663 32.77425 31.72044
#
# Velocity S-wave (km/s) = 4.04787 4.18466 4.11683
# Velocity P-wave (km/s) = 8.09611 8.25526 8.17607
#
# Compressibility (1/GPa) = 0.01222660
#
# Stress axis : x y z
#
# Youngs Moduli (GPa) = 64.95682 69.17464 62.78773
#
# Poissons Ratio (x) = 0.19533 0.49055
# Poissons Ratio (y) = 0.18342 0.38545
# Poissons Ratio (z) = 0.50750 0.42466
#
# Static dielectric constant tensor:
#      x y z
#    x 1.623190 0.000000 0.000000 
#    y 0.000000 1.700670 0.000000 
#    z 0.000000 0.000000 1.620000 
# 
# From -- ./inp_files/24457.got.cif
#   From: 2010.05.17/outbox.cif.g08.bks.cpg/sg23_13_cif.got.tgz:24457.got - 2010.06.04 12:02:01.
