data_PCOD9330815
_publ_section_title
;
Structure prediction by ZEFSAII (Michael W. Deem and Ramdas Pophale) SiO2 
 PCOD9330815
Probable space group: I 2 2 2
;
_chemical_formula_sum "Si O2"
_cell_formula_units_Z 40
_cell_length_a 12.835618
_cell_length_b 17.623806
_cell_length_c 8.452735
_cell_angle_alpha 90.000000
_cell_angle_beta 90.000000
_cell_angle_gamma 90.000000
_cell_volume 1912.113822
_symmetry_space_group_name_H-M "I 2 2 2"
_symmetry_group_IT_number 23
_symmetry_cell_setting 'orthorhombic'
loop_
_space_group_symop_operation_xyz
x,y,z
-x,-y,z
x,-y,-z
-x,y,-z
1/2+x,1/2+y,1/2+z
1/2-x,1/2-y,1/2+z
1/2+x,1/2-y,1/2-z
1/2-x,1/2+y,1/2-z
loop_
_atom_site_type_symbol
_atom_site_label
_atom_site_fract_x
_atom_site_fract_y
_atom_site_fract_z
Si Si1 0.190826 0.845499 0.216390
Si Si2 0.978648 0.807680 0.312901
Si Si3 0.261977 0.316380 0.648115
Si Si4 0.938756 0.644704 0.796362
Si Si5 0.865040 0.424322 0.896750
O O1 0.222412 0.768548 0.310894
O O2 0.265599 0.908537 0.290369
O O3 0.069154 0.860645 0.242724
O O4 0.209520 0.827998 0.033346
O O5 0.862710 0.829703 0.259211
O O6 0.000000 0.804964 0.500000
O O7 0.004917 0.724017 0.243555
O O8 0.160085 0.366707 0.684366
O O9 0.029983 0.583012 0.794374
O O10 0.886603 0.641193 0.970815
O O11 0.857623 0.500000 0.000000
#
# Coordination Sequence:
#
# PCOD9330815 Si02
#       5
#     8   8   8   8   8
#     4  11  22  35  59  91 127 170 211 267 339 393
#     4  11  21  35  61  96 131 158 204 278 346 394
#     4  11  21  35  60  95 130 160 208 281 339 392
#     4  10  21  35  60  84 124 163 213 257 326 388
#     4  11  23  41  61  84 125 178 220 257 311 398
#
# _framework density 20.919256000000001
#
# number of rings (size 3 to 8) (size 9 to 14) (size 15 to 20)
#    0.000    1.200    2.000    7.800    5.600    0.000 
#    0.000    1.000    4.400    6.600    0.000    5.600 
#    0.000    0.000    0.000    0.000    0.000    0.000 
#
# Total GULP energy -111672.016293 kJ/mol
# GULP energy per Si atom -5583.600815 kJ/mol
# Density = 2.087164 g / cm^3
# Si number density = 20.919256 Si / 1000 Ang^3
#
#
#
# Elastic Constant Matrix: (Units=GPa)
#
#
# Indices 1 2 3 4 5 6 
#
# 1 139.3275 41.7286 13.8878 0.0000 0.0000 0.0000
# 2 41.7286 45.7635 32.3839 0.0000 0.0000 0.0000
# 3 13.8878 32.3839 92.6569 0.0000 0.0000 0.0000
# 4 0.0000 0.0000 0.0000 31.3256 0.0000 0.0000
# 5 0.0000 0.0000 0.0000 0.0000 40.6473 0.0000
# 6 0.0000 0.0000 0.0000 0.0000 0.0000 12.8665
#
#
#
# Elastic Compliance Matrix: (Units=1/GPa)
#
#
# Indices 1 2 3 4 5 6 
#
# 1 0.010228 -0.010949 0.002294 0.000000 0.000000 0.000000
# 2 -0.010949 0.040753 -0.012602 0.000000 0.000000 0.000000
# 3 0.002294 -0.012602 0.014853 0.000000 0.000000 0.000000
# 4 0.000000 0.000000 0.000000 0.031923 0.000000 0.000000
# 5 0.000000 0.000000 0.000000 0.000000 0.024602 0.000000
# 6 0.000000 0.000000 0.000000 0.000000 0.000000 0.077721
#
#
# Mechanical properties :
#
#
# Convention : Reuss Voigt Hill
#
# Bulk Modulus (GPa) = 42.88373 50.41650 46.65012
# Shear Modulus (GPa) = 19.97047 29.61771 24.79409
#
# Velocity S-wave (km/s) = 3.09309 3.76681 3.44645
# Velocity P-wave (km/s) = 5.77065 6.56287 6.17947
#
# Compressibility (1/GPa) = 0.02331887
#
# Stress axis : x y z
#
# Youngs Moduli (GPa) = 97.77020 24.53781 67.32543
#
# Poissons Ratio (x) = 0.26868 -0.15443
# Poissons Ratio (y) = 1.07053 0.84845
# Poissons Ratio (z) = -0.22427 0.30923
#
# Static dielectric constant tensor:
#      x y z
#    x 1.809910 0.000000 0.000000 
#    y 0.000000 1.786920 0.000000 
#    z 0.000000 0.000000 1.772530 
# 
# From -- ./inp_files/8224.got.cif
#   From: 2010.05.17/outbox.cif.g08.bks.cpg/sg23_5_cif.got.tgz:8224.got - 2010.06.04 12:02:01.
