data_PCOD9330436
_publ_section_title
;
Structure prediction by ZEFSAII (Michael W. Deem and Ramdas Pophale) SiO2 
 PCOD9330436
Probable space group: I 2 2 2
;
_chemical_formula_sum "Si O2"
_cell_formula_units_Z 54
_cell_length_a 14.517242
_cell_length_b 12.990733
_cell_length_c 12.139313
_cell_angle_alpha 90.000000
_cell_angle_beta 90.000000
_cell_angle_gamma 90.000000
_cell_volume 2289.348362
_symmetry_space_group_name_H-M "I 2 2 2"
_symmetry_group_IT_number 23
_symmetry_cell_setting 'orthorhombic'
loop_
_space_group_symop_operation_xyz
x,y,z
-x,-y,z
x,-y,-z
-x,y,-z
1/2+x,1/2+y,1/2+z
1/2-x,1/2-y,1/2+z
1/2+x,1/2-y,1/2-z
1/2-x,1/2+y,1/2-z
loop_
_atom_site_type_symbol
_atom_site_label
_atom_site_fract_x
_atom_site_fract_y
_atom_site_fract_z
Si Si1 0.688391 0.000000 0.000000
Si Si2 0.037379 0.613749 0.887595
Si Si3 0.597943 0.538921 0.167245
Si Si4 0.340816 0.392774 0.645264
Si Si5 0.000000 0.000000 0.000000
Si Si6 0.867248 0.287930 0.530417
Si Si7 0.266456 0.173280 0.580477
Si Si8 0.024841 0.754764 0.311344
O O1 0.633036 0.908302 0.942511
O O2 0.754373 0.051691 0.911177
O O3 0.145371 0.603417 0.909325
O O4 0.000000 0.500000 0.875194
O O5 0.003360 0.678670 0.784058
O O6 0.000000 0.663718 0.000000
O O7 0.500000 0.500000 0.117415
O O8 0.639949 0.448725 0.239718
O O9 0.679671 0.595504 0.100458
O O10 0.562866 0.638598 0.237027
O O11 0.430116 0.426197 0.570853
O O12 0.308054 0.273116 0.650387
O O13 0.767708 0.234420 0.528365
O O14 0.901687 0.284539 0.402596
O O15 0.936709 0.230596 0.609661
#
# Coordination Sequence:
#
# PCOD9330436 Si02
#       8
#     4   8   8   8   2   8   8   8
#     4   9  20  34  64 103 132 174 234 313 368 409
#     4  11  27  47  65 103 147 198 240 281 365 450
#     4  11  23  44  67 107 141 189 243 296 371 433
#     4  10  21  38  64 102 138 180 236 299 369 424
#     4  10  20  36  68  94 142 184 232 318 364 414
#     4   9  21  42  66 107 136 183 244 309 366 403
#     4  10  24  45  70 100 142 187 242 301 357 431
#     4  10  23  42  71  99 144 188 241 302 358 431
#
# _framework density 23.587496000000002
#
# number of rings (size 3 to 8) (size 9 to 14) (size 15 to 20)
#    0.000    1.926    0.741    0.889    5.185    5.333 
#    8.000    5.185    0.000    0.000    0.000    0.000 
#    0.000    0.000    0.000    0.000    0.000    0.000 
#
# Total GULP energy -150414.396782 kJ/mol
# GULP energy per Si atom -5570.903585 kJ/mol
# Density = 2.353381 g / cm^3
# Si number density = 23.587496 Si / 1000 Ang^3
#
#
#
# Elastic Constant Matrix: (Units=GPa)
#
#
# Indices 1 2 3 4 5 6 
#
# 1 115.0232 57.2889 10.2967 0.0000 0.0000 0.0000
# 2 57.2889 119.8776 19.5067 0.0000 0.0000 0.0000
# 3 10.2967 19.5067 73.2136 0.0000 0.0000 0.0000
# 4 0.0000 0.0000 0.0000 61.0770 0.0000 0.0000
# 5 0.0000 0.0000 0.0000 0.0000 19.5989 0.0000
# 6 0.0000 0.0000 0.0000 0.0000 0.0000 32.5551
#
#
#
# Elastic Compliance Matrix: (Units=1/GPa)
#
#
# Indices 1 2 3 4 5 6 
#
# 1 0.011411 -0.005428 -0.000159 0.000000 0.000000 0.000000
# 2 -0.005428 0.011301 -0.002248 0.000000 0.000000 0.000000
# 3 -0.000159 -0.002248 0.014280 0.000000 0.000000 0.000000
# 4 0.000000 0.000000 0.000000 0.016373 0.000000 0.000000
# 5 0.000000 0.000000 0.000000 0.000000 0.051023 0.000000
# 6 0.000000 0.000000 0.000000 0.000000 0.000000 0.030717
#
#
# Mechanical properties :
#
#
# Convention : Reuss Voigt Hill
#
# Bulk Modulus (GPa) = 46.89466 53.58879 50.24173
# Shear Modulus (GPa) = 31.66913 37.38101 34.52507
#
# Velocity S-wave (km/s) = 3.66816 3.98525 3.82999
# Velocity P-wave (km/s) = 6.15344 6.62908 6.39569
#
# Compressibility (1/GPa) = 0.02132439
#
# Stress axis : x y z
#
# Youngs Moduli (GPa) = 87.63155 88.48434 70.02864
#
# Poissons Ratio (x) = 0.48026 0.01112
# Poissons Ratio (y) = 0.47563 0.15741
# Poissons Ratio (z) = 0.01391 0.19889
#
# Static dielectric constant tensor:
#      x y z
#    x 1.820300 0.000000 0.000000 
#    y 0.000000 1.935040 0.000000 
#    z 0.000000 0.000000 1.935280 
# 
# From -- ./inp_files/16816.got.cif
#   From: 2010.05.17/outbox.cif.g08.bks.cpg/sg23_9_cif.got.tgz:16816.got - 2010.06.04 12:02:01.
