data_PCOD9330717
_publ_section_title
;
Structure prediction by ZEFSAII (Michael W. Deem and Ramdas Pophale) SiO2 
 PCOD9330717
Probable space group: I 2 2 2
;
_chemical_formula_sum "Si O2"
_cell_formula_units_Z 38
_cell_length_a 9.901715
_cell_length_b 7.978230
_cell_length_c 20.221696
_cell_angle_alpha 90.000000
_cell_angle_beta 90.000000
_cell_angle_gamma 90.000000
_cell_volume 1597.476769
_symmetry_space_group_name_H-M "I 2 2 2"
_symmetry_group_IT_number 23
_symmetry_cell_setting 'orthorhombic'
loop_
_space_group_symop_operation_xyz
x,y,z
-x,-y,z
x,-y,-z
-x,y,-z
1/2+x,1/2+y,1/2+z
1/2-x,1/2-y,1/2+z
1/2+x,1/2-y,1/2-z
1/2-x,1/2+y,1/2-z
loop_
_atom_site_type_symbol
_atom_site_label
_atom_site_fract_x
_atom_site_fract_y
_atom_site_fract_z
Si Si1 0.999429 0.799614 0.094112
Si Si2 0.079896 0.244669 0.599849
Si Si3 0.500000 0.500000 0.000000
Si Si4 0.500000 0.000000 0.000000
Si Si5 0.000000 0.500000 0.000000
Si Si6 0.718415 0.356511 0.298956
Si Si7 0.279908 0.231884 0.845586
O O1 0.152826 0.741867 0.106916
O O2 0.920641 0.809071 0.164283
O O3 0.000000 0.000000 0.072254
O O4 0.937722 0.647136 0.049615
O O5 0.923119 0.249274 0.619731
O O6 0.097358 0.095444 0.549616
O O7 0.096609 0.400175 0.549929
O O8 0.169221 0.244442 0.664375
O O9 0.719323 0.340524 0.220913
O O10 0.760077 0.542944 0.319443
#
# Coordination Sequence:
#
# PCOD9330717 Si02
#       7
#     8   8   2   2   2   8   8
#     4  10  26  45  65 104 134 176 224 276 335 395
#     4  11  23  43  67  97 126 175 215 267 330 387
#     4  10  28  40  68 100 136 160 224 278 312 396
#     4  10  20  42  62  88 120 170 216 246 316 390
#     4  12  26  46  74  92 144 182 222 264 340 420
#     4  11  24  43  69  96 133 171 222 277 329 392
#     4  11  24  43  69  96 133 171 222 277 329 392
#
# _framework density 23.787514999999999
#
# number of rings (size 3 to 8) (size 9 to 14) (size 15 to 20)
#    0.000    1.263    2.105    1.579    5.895    5.053 
#    0.000    0.000    0.000    0.000    0.000    0.000 
#    0.000    0.000    0.000    0.000    0.000    0.000 
#
# Total GULP energy -105997.711871 kJ/mol
# GULP energy per Si atom -5578.826941 kJ/mol
# Density = 2.373337 g / cm^3
# Si number density = 23.787515 Si / 1000 Ang^3
#
#
#
# Elastic Constant Matrix: (Units=GPa)
#
#
# Indices 1 2 3 4 5 6 
#
# 1 125.4367 1.3315 31.4872 0.0000 0.0000 0.0000
# 2 1.3315 112.8919 35.5057 0.0000 0.0000 0.0000
# 3 31.4872 35.5057 107.1127 0.0000 0.0000 0.0000
# 4 0.0000 0.0000 0.0000 54.8430 0.0000 0.0000
# 5 0.0000 0.0000 0.0000 0.0000 16.1460 0.0000
# 6 0.0000 0.0000 0.0000 0.0000 0.0000 8.2089
#
#
#
# Elastic Compliance Matrix: (Units=1/GPa)
#
#
# Indices 1 2 3 4 5 6 
#
# 1 0.008668 0.000781 -0.002807 0.000000 0.000000 0.000000
# 2 0.000781 0.009959 -0.003531 0.000000 0.000000 0.000000
# 3 -0.002807 -0.003531 0.011331 0.000000 0.000000 0.000000
# 4 0.000000 0.000000 0.000000 0.018234 0.000000 0.000000
# 5 0.000000 0.000000 0.000000 0.000000 0.061935 0.000000
# 6 0.000000 0.000000 0.000000 0.000000 0.000000 0.121820
#
#
# Mechanical properties :
#
#
# Convention : Reuss Voigt Hill
#
# Bulk Modulus (GPa) = 53.06460 53.56555 53.31507
# Shear Modulus (GPa) = 20.05267 34.31404 27.18335
#
# Velocity S-wave (km/s) = 2.90658 3.80218 3.38414
# Velocity P-wave (km/s) = 5.79832 6.46859 6.14260
#
# Compressibility (1/GPa) = 0.01884496
#
# Stress axis : x y z
#
# Youngs Moduli (GPa) = 115.36069 100.40877 88.24978
#
# Poissons Ratio (x) = -0.07838 0.24771
# Poissons Ratio (y) = -0.09005 0.31159
# Poissons Ratio (z) = 0.32381 0.35452
#
# Static dielectric constant tensor:
#      x y z
#    x 1.901610 0.000000 0.000000 
#    y 0.000000 2.050310 0.000000 
#    z 0.000000 0.000000 1.690630 
# 
# From -- ./inp_files/24203.got.cif
#   From: 2010.05.17/outbox.cif.g08.bks.cpg/sg23_13_cif.got.tgz:24203.got - 2010.06.04 12:02:01.
