data_PCOD9330470
_publ_section_title
;
Structure prediction by ZEFSAII (Michael W. Deem and Ramdas Pophale) SiO2 
 PCOD9330470
Probable space group: I 2 2 2
;
_chemical_formula_sum "Si O2"
_cell_formula_units_Z 56
_cell_length_a 22.028227
_cell_length_b 11.683714
_cell_length_c 10.933249
_cell_angle_alpha 90.000000
_cell_angle_beta 90.000000
_cell_angle_gamma 90.000000
_cell_volume 2813.906741
_symmetry_space_group_name_H-M "I 2 2 2"
_symmetry_group_IT_number 23
_symmetry_cell_setting 'orthorhombic'
loop_
_space_group_symop_operation_xyz
x,y,z
-x,-y,z
x,-y,-z
-x,y,-z
1/2+x,1/2+y,1/2+z
1/2-x,1/2-y,1/2+z
1/2+x,1/2-y,1/2-z
1/2-x,1/2+y,1/2-z
loop_
_atom_site_type_symbol
_atom_site_label
_atom_site_fract_x
_atom_site_fract_y
_atom_site_fract_z
Si Si1 0.066840 0.452868 0.775542
Si Si2 0.746012 0.503460 0.814244
Si Si3 0.164922 0.600477 0.397736
Si Si4 0.847156 0.331398 0.820412
Si Si5 0.717239 0.735141 0.918476
Si Si6 0.930050 0.752564 0.965834
Si Si7 0.669129 0.592728 0.390134
O O1 0.098467 0.392093 0.660638
O O2 0.106929 0.565460 0.794057
O O3 0.070455 0.366821 0.890507
O O4 0.000000 0.500000 0.756291
O O5 0.788750 0.565150 0.710160
O O6 0.786456 0.398117 0.862262
O O7 0.729151 0.601948 0.907164
O O8 0.688143 0.462523 0.737948
O O9 0.167491 0.500000 0.500000
O O10 0.185152 0.716602 0.461455
O O11 0.825202 0.268083 0.698168
O O12 0.884120 0.257663 0.918515
O O13 0.779658 0.808384 0.908611
O O14 0.897129 0.851133 0.888637
O O15 0.000000 0.775359 0.000000
O O16 0.674276 0.500000 0.500000
#
# Coordination Sequence:
#
# PCOD9330470 Si02
#       7
#     8   8   8   8   8   8   8
#     4  11  22  39  59  87 128 167 214 271 319 373
#     4  10  20  37  61  91 127 162 208 262 321 386
#     4  11  19  39  59  88 124 166 212 253 316 394
#     4  10  21  36  59  90 123 163 207 262 321 378
#     4  11  20  38  62  91 122 166 206 258 326 386
#     4  12  25  40  62  89 128 170 217 271 326 379
#     4  11  20  38  62  86 127 169 204 257 312 390
#
# _framework density 19.901157000000001
#
# number of rings (size 3 to 8) (size 9 to 14) (size 15 to 20)
#    0.000    1.143    7.143    3.000    0.000    0.571 
#    0.000    0.000    0.000    0.000    0.000    0.000 
#    0.000    0.286    0.000    0.000    0.000    0.000 
#
# Total GULP energy -156478.081828 kJ/mol
# GULP energy per Si atom -5588.502922 kJ/mol
# Density = 1.985586 g / cm^3
# Si number density = 19.901157 Si / 1000 Ang^3
#
#
#
# Elastic Constant Matrix: (Units=GPa)
#
#
# Indices 1 2 3 4 5 6 
#
# 1 121.1889 30.1964 56.2565 0.0000 0.0000 0.0000
# 2 30.1964 53.9982 14.7159 0.0000 0.0000 0.0000
# 3 56.2565 14.7159 67.5973 0.0000 0.0000 0.0000
# 4 0.0000 0.0000 0.0000 33.2789 0.0000 0.0000
# 5 0.0000 0.0000 0.0000 0.0000 29.4371 0.0000
# 6 0.0000 0.0000 0.0000 0.0000 0.0000 30.5528
#
#
#
# Elastic Compliance Matrix: (Units=1/GPa)
#
#
# Indices 1 2 3 4 5 6 
#
# 1 0.014700 -0.005195 -0.011103 0.000000 0.000000 0.000000
# 2 -0.005195 0.021523 -0.000362 0.000000 0.000000 0.000000
# 3 -0.011103 -0.000362 0.024113 0.000000 0.000000 0.000000
# 4 0.000000 0.000000 0.000000 0.030049 0.000000 0.000000
# 5 0.000000 0.000000 0.000000 0.000000 0.033971 0.000000
# 6 0.000000 0.000000 0.000000 0.000000 0.000000 0.032730
#
#
# Mechanical properties :
#
#
# Convention : Reuss Voigt Hill
#
# Bulk Modulus (GPa) = 37.01577 49.45800 43.23688
# Shear Modulus (GPa) = 25.07398 28.09482 26.58440
#
# Velocity S-wave (km/s) = 3.55339 3.76136 3.65885
# Velocity P-wave (km/s) = 5.95615 6.61586 6.29465
#
# Compressibility (1/GPa) = 0.02701551
#
# Stress axis : x y z
#
# Youngs Moduli (GPa) = 68.02774 46.46247 41.47225
#
# Poissons Ratio (x) = 0.24135 0.46046
# Poissons Ratio (y) = 0.35337 0.01503
# Poissons Ratio (z) = 0.75530 0.01684
#
# Static dielectric constant tensor:
#      x y z
#    x 1.698860 0.000000 0.000000 
#    y 0.000000 1.776500 0.000000 
#    z 0.000000 0.000000 1.773560 
# 
# From -- ./inp_files/18005.got.cif
#   From: 2010.05.17/outbox.cif.g08.bks.cpg/sg23_10_cif.got.tgz:18005.got - 2010.06.04 12:02:01.
