data_PCOD9330973
_publ_section_title
;
Structure prediction by ZEFSAII (Michael W. Deem and Ramdas Pophale) SiO2 
 PCOD9330973
Probable space group: I 2 2 2
;
_chemical_formula_sum "Si O2"
_cell_formula_units_Z 64
_cell_length_a 19.239306
_cell_length_b 18.848606
_cell_length_c 7.997707
_cell_angle_alpha 90.000000
_cell_angle_beta 90.000000
_cell_angle_gamma 90.000000
_cell_volume 2900.241268
_symmetry_space_group_name_H-M "I 2 2 2"
_symmetry_group_IT_number 23
_symmetry_cell_setting 'orthorhombic'
loop_
_space_group_symop_operation_xyz
x,y,z
-x,-y,z
x,-y,-z
-x,y,-z
1/2+x,1/2+y,1/2+z
1/2-x,1/2-y,1/2+z
1/2+x,1/2-y,1/2-z
1/2-x,1/2+y,1/2-z
loop_
_atom_site_type_symbol
_atom_site_label
_atom_site_fract_x
_atom_site_fract_y
_atom_site_fract_z
Si Si1 0.412061 0.674890 0.822550
Si Si2 0.772005 0.819121 0.833561
Si Si3 0.832050 0.580227 0.486687
Si Si4 0.655583 0.575084 0.900382
Si Si5 0.086174 0.663302 0.232523
Si Si6 0.026585 0.075627 0.191087
Si Si7 0.782700 0.337683 0.039024
Si Si8 0.529620 0.074531 0.191382
O O1 0.353259 0.661553 0.680362
O O2 0.414845 0.760170 0.823560
O O3 0.485152 0.639352 0.779655
O O4 0.380860 0.635556 0.983882
O O5 0.730827 0.867084 0.960937
O O6 0.762153 0.736988 0.876449
O O7 0.738446 0.833966 0.653336
O O8 0.807839 0.500000 0.500000
O O9 0.874259 0.608177 0.646067
O O10 0.888349 0.579852 0.334592
O O11 0.608306 0.574871 0.733894
O O12 0.735332 0.600005 0.882093
O O13 0.652495 0.500000 0.000000
O O14 0.135001 0.660352 0.070874
O O15 0.007993 0.637177 0.211185
O O16 0.000000 0.000000 0.261486
O O17 0.000000 0.078287 0.000000
O O18 0.500000 0.000000 0.258185
O O19 0.500000 0.078520 0.000000
#
# Coordination Sequence:
#
# PCOD9330973 Si02
#       8
#     8   8   8   8   8   8   8   8
#     4  10  22  40  59  89 120 165 209 254 316 385
#     4  10  22  41  62  92 128 163 212 266 315 378
#     4  11  20  36  64  93 126 167 211 261 314 370
#     4  11  22  39  64  87 124 166 208 253 312 382
#     4  10  21  38  64  90 124 165 212 264 315 371
#     4  11  24  41  60  90 124 161 205 267 319 369
#     4  10  23  42  62  92 129 164 212 265 315 378
#     4   9  16  35  57  88 120 159 209 256 300 371
#
# _framework density 22.067128
#
# number of rings (size 3 to 8) (size 9 to 14) (size 15 to 20)
#    0.000    1.750    3.750    2.625    0.000    9.000 
#    2.250    0.625    0.000    0.750    0.000    0.000 
#    0.000    0.000    0.000    0.000    0.000    0.000 
#
# Total GULP energy -178599.644420 kJ/mol
# GULP energy per Si atom -5581.238888 kJ/mol
# Density = 2.201690 g / cm^3
# Si number density = 22.067128 Si / 1000 Ang^3
#
#
#
# Elastic Constant Matrix: (Units=GPa)
#
#
# Indices 1 2 3 4 5 6 
#
# 1 70.7435 17.4721 2.1067 0.0000 0.0000 0.0000
# 2 17.4721 70.7300 2.4107 0.0000 0.0000 0.0000
# 3 2.1067 2.4107 38.8910 0.0000 0.0000 0.0000
# 4 0.0000 0.0000 0.0000 7.7646 0.0000 0.0000
# 5 0.0000 0.0000 0.0000 0.0000 14.1236 0.0000
# 6 0.0000 0.0000 0.0000 0.0000 0.0000 -20.1524
#
#
#
# Elastic Compliance Matrix: (Units=1/GPa)
#
#
# Indices 1 2 3 4 5 6 
#
# 1 0.015067 -0.003702 -0.000587 0.000000 0.000000 0.000000
# 2 -0.003702 0.015078 -0.000734 0.000000 0.000000 0.000000
# 3 -0.000587 -0.000734 0.025790 0.000000 0.000000 0.000000
# 4 0.000000 0.000000 0.000000 0.128790 0.000000 0.000000
# 5 0.000000 0.000000 0.000000 0.000000 0.070803 0.000000
# 6 0.000000 0.000000 0.000000 0.000000 0.000000 -0.049622
#
#
# Mechanical properties :
#
#
# Convention : Reuss Voigt Hill
#
# Bulk Modulus (GPa) = 21.79137 24.92703 23.35920
# Shear Modulus (GPa) = 21.62170 10.90548 16.26359
#
# Velocity S-wave (km/s) = 3.13360 2.22546 2.71773
# Velocity P-wave (km/s) = 4.79469 4.23369 4.52289
#
# Compressibility (1/GPa) = 0.04588972
#
# Stress axis : x y z
#
# Youngs Moduli (GPa) = 66.36859 66.32272 38.77447
#
# Poissons Ratio (x) = 0.24553 0.02275
# Poissons Ratio (y) = 0.24570 0.02846
# Poissons Ratio (z) = 0.03894 0.04868
#
# Static dielectric constant tensor:
#      x y z
#    x 1.863850 0.000000 0.000000 
#    y 0.000000 1.804730 0.000000 
#    z 0.000000 0.000000 1.845180 
# 
# From -- ./inp_files/12205.got.cif
#   From: 2010.05.17/outbox.cif.g08.bks.cpg/sg23_7_cif.got.tgz:12205.got - 2010.06.04 12:02:01.
