data_PCOD9330434
_publ_section_title
;
Structure prediction by ZEFSAII (Michael W. Deem and Ramdas Pophale) SiO2 
 PCOD9330434
Probable space group: I 2 2 2
;
_chemical_formula_sum "Si O2"
_cell_formula_units_Z 28
_cell_length_a 5.006370
_cell_length_b 8.886478
_cell_length_c 29.414416
_cell_angle_alpha 90.000000
_cell_angle_beta 90.000000
_cell_angle_gamma 90.000000
_cell_volume 1308.617861
_symmetry_space_group_name_H-M "I 2 2 2"
_symmetry_group_IT_number 23
_symmetry_cell_setting 'orthorhombic'
loop_
_space_group_symop_operation_xyz
x,y,z
-x,-y,z
x,-y,-z
-x,y,-z
1/2+x,1/2+y,1/2+z
1/2-x,1/2-y,1/2+z
1/2+x,1/2-y,1/2-z
1/2-x,1/2+y,1/2-z
loop_
_atom_site_type_symbol
_atom_site_label
_atom_site_fract_x
_atom_site_fract_y
_atom_site_fract_z
Si Si1 0.904139 0.828434 0.770760
Si Si2 0.130294 0.167001 0.877018
Si Si3 0.000000 0.000000 0.500000
Si Si4 0.837447 0.254032 0.433705
Si Si5 0.000000 0.500000 0.500000
O O1 0.151645 0.719970 0.759158
O O2 0.823585 0.813129 0.823597
O O3 0.000000 0.000000 0.762915
O O4 0.395193 0.203835 0.905475
O O5 0.898014 0.267413 0.898179
O O6 0.000000 0.000000 0.882286
O O7 0.153511 0.889605 0.466135
O O8 0.817790 0.393833 0.468610
#
# Coordination Sequence:
#
# PCOD9330434 Si02
#       5
#     8   8   2   8   2
#     4  11  24  45  70 102 135 174 219 275 334 399
#     4  11  22  42  69  95 123 167 223 262 307 382
#     4  10  28  44  56  96 136 168 200 272 328 384
#     4  11  23  41  64  93 127 167 211 265 318 373
#     4  10  20  36  68  88 116 164 220 256 312 372
#
# _framework density 21.396622000000001
#
# number of rings (size 3 to 8) (size 9 to 14) (size 15 to 20)
#    0.000    1.143    2.857    2.571    0.000   12.571 
#   15.429    0.000    0.000    0.000    0.000    0.000 
#    0.000    0.000    0.000    0.000    0.000    0.000 
#
# Total GULP energy -78253.310955 kJ/mol
# GULP energy per Si atom -5589.522211 kJ/mol
# Density = 2.134792 g / cm^3
# Si number density = 21.396622 Si / 1000 Ang^3
#
#
#
# Elastic Constant Matrix: (Units=GPa)
#
#
# Indices 1 2 3 4 5 6 
#
# 1 109.2547 9.3697 39.8450 0.0000 0.0000 0.0000
# 2 9.3697 89.2817 54.4223 0.0000 0.0000 0.0000
# 3 39.8450 54.4223 114.0976 0.0000 0.0000 0.0000
# 4 0.0000 0.0000 0.0000 42.4009 0.0000 0.0000
# 5 0.0000 0.0000 0.0000 0.0000 -4.6926 0.0000
# 6 0.0000 0.0000 0.0000 0.0000 0.0000 -28.9729
#
#
#
# Elastic Compliance Matrix: (Units=1/GPa)
#
#
# Indices 1 2 3 4 5 6 
#
# 1 0.010653 0.001621 -0.004493 0.000000 0.000000 0.000000
# 2 0.001621 0.016039 -0.008216 0.000000 0.000000 0.000000
# 3 -0.004493 -0.008216 0.014253 0.000000 0.000000 0.000000
# 4 0.000000 0.000000 0.000000 0.023584 0.000000 0.000000
# 5 0.000000 0.000000 0.000000 0.000000 -0.213099 0.000000
# 6 0.000000 0.000000 0.000000 0.000000 0.000000 -0.034515
#
#
# Mechanical properties :
#
#
# Convention : Reuss Voigt Hill
#
# Bulk Modulus (GPa) = 53.28564 57.76757 55.52660
# Shear Modulus (GPa) = -32.33028 15.68021 -8.32503
#
# Velocity S-wave (km/s) = -3.89137 2.71003 -1.97466
# Velocity P-wave (km/s) = 2.18345 6.07037 4.56163
#
# Compressibility (1/GPa) = 0.01876678
#
# Stress axis : x y z
#
# Youngs Moduli (GPa) = 93.87389 62.34949 70.16311
#
# Poissons Ratio (x) = -0.10107 0.31526
# Poissons Ratio (y) = -0.15217 0.57647
# Poissons Ratio (z) = 0.42180 0.51227
#
# Static dielectric constant tensor:
#      x y z
#    x 1.763530 0.000000 0.000000 
#    y 0.000000 1.841180 0.000000 
#    z 0.000000 0.000000 2.964620 
# 
# From -- ./inp_files/4711.got.cif
#   From: 2010.05.17/outbox.cif.g08.bks.cpg/sg23_3_cif.got.tgz:4711.got - 2010.06.04 12:02:01.
