data_PCOD9330858
_publ_section_title
;
Structure prediction by ZEFSAII (Michael W. Deem and Ramdas Pophale) SiO2 
 PCOD9330858
Probable space group: I 2 2 2
;
_chemical_formula_sum "Si O2"
_cell_formula_units_Z 28
_cell_length_a 5.192338
_cell_length_b 19.197463
_cell_length_c 12.759023
_cell_angle_alpha 90.000000
_cell_angle_beta 90.000000
_cell_angle_gamma 90.000000
_cell_volume 1271.815797
_symmetry_space_group_name_H-M "I 2 2 2"
_symmetry_group_IT_number 23
_symmetry_cell_setting 'orthorhombic'
loop_
_space_group_symop_operation_xyz
x,y,z
-x,-y,z
x,-y,-z
-x,y,-z
1/2+x,1/2+y,1/2+z
1/2-x,1/2-y,1/2+z
1/2+x,1/2-y,1/2-z
1/2-x,1/2+y,1/2-z
loop_
_atom_site_type_symbol
_atom_site_label
_atom_site_fract_x
_atom_site_fract_y
_atom_site_fract_z
Si Si1 0.811718 0.251663 0.079604
Si Si2 0.040579 0.667960 0.282291
Si Si3 0.000000 0.876208 0.500000
Si Si4 0.459371 0.420846 0.234205
O O1 0.558164 0.210630 0.117236
O O2 0.730868 0.322658 0.021720
O O3 0.950354 0.276693 0.186458
O O4 0.000000 0.212502 0.000000
O O5 0.814479 0.611874 0.263790
O O6 0.311940 0.627983 0.278938
O O7 0.029800 0.917727 0.392757
O O8 0.500000 0.500000 0.268834
#
# Coordination Sequence:
#
# PCOD9330858 Si02
#       4
#     8   8   4   8
#     4  11  22  40  64  99 140 167 219 285 345 394
#     4  11  24  39  63  97 133 176 220 270 338 398
#     4  10  21  36  62  98 129 172 212 278 344 402
#     4  11  23  41  61  92 136 180 219 264 327 410
#
# _framework density 22.015767
#
# number of rings (size 3 to 8) (size 9 to 14) (size 15 to 20)
#    0.000    1.143    2.857    4.714    4.000    0.000 
#    0.000    2.857    0.000    0.857    0.000    0.000 
#    0.000    0.000    0.000    0.000    0.000    0.000 
#
# Total GULP energy -78296.253978 kJ/mol
# GULP energy per Si atom -5592.589570 kJ/mol
# Density = 2.196566 g / cm^3
# Si number density = 22.015767 Si / 1000 Ang^3
#
#
#
# Elastic Constant Matrix: (Units=GPa)
#
#
# Indices 1 2 3 4 5 6 
#
# 1 111.4482 32.1276 32.3818 0.0000 0.0000 0.0000
# 2 32.1276 115.4874 27.0083 0.0000 0.0000 0.0000
# 3 32.3818 27.0083 82.8576 0.0001 0.0000 0.0000
# 4 0.0000 0.0000 0.0001 26.3461 0.0000 0.0000
# 5 0.0000 0.0000 0.0000 0.0000 48.8007 0.0000
# 6 0.0000 0.0000 0.0000 0.0000 0.0000 26.1664
#
#
#
# Elastic Compliance Matrix: (Units=1/GPa)
#
#
# Indices 1 2 3 4 5 6 
#
# 1 0.010590 -0.002141 -0.003441 0.000000 0.000000 0.000000
# 2 -0.002141 0.009806 -0.002360 0.000000 0.000000 0.000000
# 3 -0.003441 -0.002360 0.014183 0.000000 0.000000 0.000000
# 4 0.000000 0.000000 0.000000 0.037956 0.000000 0.000000
# 5 0.000000 0.000000 0.000000 0.000000 0.020492 0.000000
# 6 0.000000 0.000000 0.000000 0.000000 0.000000 0.038217
#
#
# Mechanical properties :
#
#
# Convention : Reuss Voigt Hill
#
# Bulk Modulus (GPa) = 53.48828 54.75876 54.12352
# Shear Modulus (GPa) = 32.60325 34.81432 33.70879
#
# Velocity S-wave (km/s) = 3.85243 3.98092 3.91720
# Velocity P-wave (km/s) = 6.64353 6.78651 6.71540
#
# Compressibility (1/GPa) = 0.01869568
#
# Stress axis : x y z
#
# Youngs Moduli (GPa) = 94.43081 101.97321 70.50845
#
# Poissons Ratio (x) = 0.21836 0.24259
# Poissons Ratio (y) = 0.20221 0.16638
# Poissons Ratio (z) = 0.32490 0.24062
#
# Static dielectric constant tensor:
#      x y z
#    x 1.842530 0.000000 0.000000 
#    y 0.000000 1.768770 0.000000 
#    z 0.000000 0.000000 1.853750 
# 
# From -- ./inp_files/1259.got.cif
#   From: 2010.05.17/outbox.cif.g08.bks.cpg/sg23_1_cif.got.tgz:1259.got - 2010.06.04 12:02:01.
