data_PCOD9330716
_publ_section_title
;
Structure prediction by ZEFSAII (Michael W. Deem and Ramdas Pophale) SiO2 
 PCOD9330716
Probable space group: I 2 2 2
;
_chemical_formula_sum "Si O2"
_cell_formula_units_Z 56
_cell_length_a 18.123885
_cell_length_b 7.989484
_cell_length_c 14.851221
_cell_angle_alpha 90.000000
_cell_angle_beta 90.000000
_cell_angle_gamma 90.000000
_cell_volume 2150.464066
_symmetry_space_group_name_H-M "I 2 2 2"
_symmetry_group_IT_number 23
_symmetry_cell_setting 'orthorhombic'
loop_
_space_group_symop_operation_xyz
x,y,z
-x,-y,z
x,-y,-z
-x,y,-z
1/2+x,1/2+y,1/2+z
1/2-x,1/2-y,1/2+z
1/2+x,1/2-y,1/2-z
1/2-x,1/2+y,1/2-z
loop_
_atom_site_type_symbol
_atom_site_label
_atom_site_fract_x
_atom_site_fract_y
_atom_site_fract_z
Si Si1 0.282453 0.823895 0.470373
Si Si2 0.035273 0.183821 0.280146
Si Si3 0.490355 0.698658 0.599780
Si Si4 0.751916 0.175297 0.791811
Si Si5 0.876013 0.746381 0.443254
Si Si6 0.324191 0.664868 0.638356
Si Si7 0.408118 0.867282 0.876643
O O1 0.283940 0.808341 0.363317
O O2 0.200109 0.805983 0.511887
O O3 0.318210 0.676674 0.529777
O O4 0.315143 0.000000 0.500000
O O5 0.099509 0.160368 0.353387
O O6 0.049315 0.243613 0.177736
O O7 0.979178 0.321963 0.319119
O O8 0.000000 0.000000 0.274635
O O9 0.500000 0.500000 0.587944
O O10 0.500000 0.774930 0.500000
O O11 0.409618 0.717675 0.646113
O O12 0.737410 0.218525 0.687880
O O13 0.666627 0.173249 0.824171
O O14 0.799194 0.010878 0.817283
O O15 0.886273 0.553733 0.409912
O O16 0.923051 0.744807 0.534693
#
# Coordination Sequence:
#
# PCOD9330716 Si02
#       7
#     8   8   8   8   8   8   8
#     4  11  25  42  68 109 144 179 237 304 371 445
#     4  11  23  38  66 100 134 184 235 296 344 428
#     4  10  25  45  69  99 135 187 252 291 350 434
#     4  11  24  42  72 104 137 185 236 300 374 434
#     4  10  22  38  67  95 143 181 223 276 368 435
#     4  12  24  47  75 105 144 189 244 311 373 445
#     4  10  20  42  60 101 138 178 231 277 357 449
#
# _framework density 26.040891999999999
#
# number of rings (size 3 to 8) (size 9 to 14) (size 15 to 20)
#    0.000    1.286    2.857    2.143    8.000    4.000 
#    0.000    0.000    0.000    0.000    0.000    0.000 
#    0.000    0.000    0.000    0.000    0.000    0.000 
#
# Total GULP energy -156056.782914 kJ/mol
# GULP energy per Si atom -5573.456533 kJ/mol
# Density = 2.598162 g / cm^3
# Si number density = 26.040892 Si / 1000 Ang^3
#
#
#
# Elastic Constant Matrix: (Units=GPa)
#
#
# Indices 1 2 3 4 5 6 
#
# 1 102.4049 5.7506 16.3047 0.0000 0.0000 0.0000
# 2 5.7506 73.4378 4.9351 0.0000 0.0000 0.0000
# 3 16.3047 4.9351 146.8100 0.0000 0.0000 0.0000
# 4 0.0000 0.0000 0.0000 22.7209 0.0000 0.0000
# 5 0.0000 0.0000 0.0000 0.0000 -1.9148 0.0000
# 6 0.0000 0.0000 0.0000 0.0000 0.0000 18.7680
#
#
#
# Elastic Compliance Matrix: (Units=1/GPa)
#
#
# Indices 1 2 3 4 5 6 
#
# 1 0.009978 -0.000708 -0.001084 0.000000 0.000000 0.000000
# 2 -0.000708 0.013698 -0.000382 0.000000 0.000000 0.000000
# 3 -0.001084 -0.000382 0.006945 0.000000 0.000000 0.000000
# 4 0.000000 0.000000 0.000000 0.044012 0.000000 0.000000
# 5 0.000000 0.000000 0.000000 0.000000 -0.522238 0.000000
# 6 0.000000 0.000000 0.000000 0.000000 0.000000 0.053282
#
#
# Mechanical properties :
#
#
# Convention : Reuss Voigt Hill
#
# Bulk Modulus (GPa) = 38.06417 41.84817 39.95617
# Shear Modulus (GPa) = -13.11588 27.62562 7.25487
#
# Velocity S-wave (km/s) = -2.24668 3.26061 1.67093
# Velocity P-wave (km/s) = 2.81402 5.50277 4.37031
#
# Compressibility (1/GPa) = 0.02627142
#
# Stress axis : x y z
#
# Youngs Moduli (GPa) = 100.22469 73.00282 143.99303
#
# Poissons Ratio (x) = 0.05172 0.15613
# Poissons Ratio (y) = 0.07100 0.05498
# Poissons Ratio (z) = 0.10867 0.02787
#
# Static dielectric constant tensor:
#      x y z
#    x 2.124650 0.000000 0.000000 
#    y 0.000000 2.112910 0.000000 
#    z 0.000000 0.000000 2.153260 
# 
# From -- ./inp_files/22400.got.cif
#   From: 2010.05.17/outbox.cif.g08.bks.cpg/sg23_12_cif.got.tgz:22400.got - 2010.06.04 12:02:01.
