data_PCOD9330915
_publ_section_title
;
Structure prediction by ZEFSAII (Michael W. Deem and Ramdas Pophale) SiO2 
 PCOD9330915
Probable space group: I 2 2 2
;
_chemical_formula_sum "Si O2"
_cell_formula_units_Z 48
_cell_length_a 29.810085
_cell_length_b 7.776880
_cell_length_c 9.511144
_cell_angle_alpha 90.000000
_cell_angle_beta 90.000000
_cell_angle_gamma 90.000000
_cell_volume 2204.963319
_symmetry_space_group_name_H-M "I 2 2 2"
_symmetry_group_IT_number 23
_symmetry_cell_setting 'orthorhombic'
loop_
_space_group_symop_operation_xyz
x,y,z
-x,-y,z
x,-y,-z
-x,y,-z
1/2+x,1/2+y,1/2+z
1/2-x,1/2-y,1/2+z
1/2+x,1/2-y,1/2-z
1/2-x,1/2+y,1/2-z
loop_
_atom_site_type_symbol
_atom_site_label
_atom_site_fract_x
_atom_site_fract_y
_atom_site_fract_z
Si Si1 0.179457 0.845399 0.270391
Si Si2 0.902185 0.726838 0.873133
Si Si3 0.335033 0.810119 0.060034
Si Si4 0.999732 0.793808 0.835657
Si Si5 0.095043 0.669680 0.802999
Si Si6 0.751932 0.115417 0.639206
O O1 0.135790 0.855480 0.177277
O O2 0.161610 0.816330 0.427447
O O3 0.208086 0.680283 0.218025
O O4 0.214166 0.000705 0.269480
O O5 0.892186 0.528796 0.834305
O O6 0.949255 0.750619 0.793297
O O7 0.903797 0.751185 0.041091
O O8 0.369720 0.770962 0.185318
O O9 0.283212 0.779370 0.103112
O O10 0.343185 0.000000 0.000000
O O11 0.042735 0.706296 0.762698
O O12 0.000000 0.000000 0.831269
O O13 0.000000 0.735838 0.000000
O O14 0.741538 0.000000 0.500000
#
# Coordination Sequence:
#
# PCOD9330915 Si02
#       6
#     8   8   8   8   8   8
#     4  11  23  41  64  90 127 166 212 263 322 382
#     4  10  21  37  65  91 123 166 213 261 312 384
#     4  11  22  41  64  92 126 168 205 263 323 384
#     4   9  19  37  61  93 127 157 205 266 321 374
#     4  10  21  37  64  92 126 162 211 258 319 386
#     4  10  25  42  65  94 130 169 220 269 321 385
#
# _framework density 21.769068000000001
#
# number of rings (size 3 to 8) (size 9 to 14) (size 15 to 20)
#    0.000    1.833    1.667    1.500    4.667    3.333 
#    0.000    4.167    0.000    1.000    0.000    0.000 
#    0.000    0.000    0.000    0.000    0.000    0.000 
#
# Total GULP energy -133892.951873 kJ/mol
# GULP energy per Si atom -5578.872995 kJ/mol
# Density = 2.171952 g / cm^3
# Si number density = 21.769068 Si / 1000 Ang^3
#
#
#
# Elastic Constant Matrix: (Units=GPa)
#
#
# Indices 1 2 3 4 5 6 
#
# 1 107.4354 19.6042 65.2540 0.0000 0.0000 0.0000
# 2 19.6042 50.4317 12.5910 0.0000 0.0000 0.0000
# 3 65.2540 12.5910 78.5020 0.0000 0.0000 0.0000
# 4 0.0000 0.0000 0.0000 19.8017 0.0000 0.0000
# 5 0.0000 0.0000 0.0000 0.0000 20.8029 0.0000
# 6 0.0000 0.0000 0.0000 0.0000 0.0000 17.2438
#
#
#
# Elastic Compliance Matrix: (Units=1/GPa)
#
#
# Indices 1 2 3 4 5 6 
#
# 1 0.019429 -0.003667 -0.015562 0.000000 0.000000 0.000000
# 2 -0.003667 0.021348 -0.000376 0.000000 0.000000 0.000000
# 3 -0.015562 -0.000376 0.025735 0.000000 0.000000 0.000000
# 4 0.000000 0.000000 0.000000 0.050501 0.000000 0.000000
# 5 0.000000 0.000000 0.000000 0.000000 0.048070 0.000000
# 6 0.000000 0.000000 0.000000 0.000000 0.000000 0.057992
#
#
# Mechanical properties :
#
#
# Convention : Reuss Voigt Hill
#
# Bulk Modulus (GPa) = 36.62753 47.91861 42.27307
# Shear Modulus (GPa) = 18.42395 20.83101 19.62748
#
# Velocity S-wave (km/s) = 2.91234 3.09675 3.00596
# Velocity P-wave (km/s) = 5.30764 5.90309 5.61327
#
# Compressibility (1/GPa) = 0.02730187
#
# Stress axis : x y z
#
# Youngs Moduli (GPa) = 51.46869 46.84238 38.85804
#
# Poissons Ratio (x) = 0.17179 0.60472
# Poissons Ratio (y) = 0.18876 0.01459
# Poissons Ratio (z) = 0.80097 0.01759
#
# Static dielectric constant tensor:
#      x y z
#    x 1.834560 0.000000 0.000000 
#    y 0.000000 1.853820 0.000000 
#    z 0.000000 0.000000 1.835450 
# 
# From -- ./inp_files/7325.got.cif
#   From: 2010.05.17/outbox.cif.g08.bks.cpg/sg23_4_cif.got.tgz:7325.got - 2010.06.04 12:02:01.
