data_PCOD9330980
_publ_section_title
;
Structure prediction by ZEFSAII (Michael W. Deem and Ramdas Pophale) SiO2 
 PCOD9330980
Probable space group: I 2 2 2
;
_chemical_formula_sum "Si O2"
_cell_formula_units_Z 46
_cell_length_a 17.239554
_cell_length_b 10.593665
_cell_length_c 12.109375
_cell_angle_alpha 90.000000
_cell_angle_beta 90.000000
_cell_angle_gamma 90.000000
_cell_volume 2211.535881
_symmetry_space_group_name_H-M "I 2 2 2"
_symmetry_group_IT_number 23
_symmetry_cell_setting 'orthorhombic'
loop_
_space_group_symop_operation_xyz
x,y,z
-x,-y,z
x,-y,-z
-x,y,-z
1/2+x,1/2+y,1/2+z
1/2-x,1/2-y,1/2+z
1/2+x,1/2-y,1/2-z
1/2-x,1/2+y,1/2-z
loop_
_atom_site_type_symbol
_atom_site_label
_atom_site_fract_x
_atom_site_fract_y
_atom_site_fract_z
Si Si1 0.412463 0.180604 0.789525
Si Si2 0.207221 0.147264 0.398012
Si Si3 0.550523 0.303955 0.674991
Si Si4 0.000000 0.000000 0.000000
Si Si5 0.361530 0.623717 0.886683
Si Si6 0.123841 0.452923 0.875435
Si Si7 0.500000 0.773654 0.000000
O O1 0.331673 0.239347 0.831878
O O2 0.465581 0.288934 0.731488
O O3 0.397342 0.062721 0.710439
O O4 0.461679 0.148987 0.900165
O O5 0.207943 0.170856 0.531673
O O6 0.290122 0.102564 0.355957
O O7 0.150702 0.026033 0.384140
O O8 0.548234 0.407929 0.580071
O O9 0.618381 0.333499 0.763241
O O10 0.565999 0.163797 0.632780
O O11 0.434758 0.681747 0.950986
O O12 0.122235 0.500000 0.000000
#
# Coordination Sequence:
#
# PCOD9330980 Si02
#       7
#     8   8   8   2   8   8   4
#     4  10  22  42  67  98 132 180 227 284 342 402
#     4  10  21  38  65  95 136 173 224 275 342 409
#     4  11  24  41  68  93 131 175 229 287 335 401
#     4  12  24  44  62 102 124 168 236 292 336 410
#     4   9  18  38  62  96 125 172 222 281 333 393
#     4  12  25  41  64  95 142 185 224 272 349 425
#     4   8  18  37  69 100 132 169 235 294 338 385
#
# _framework density 20.800022999999999
#
# number of rings (size 3 to 8) (size 9 to 14) (size 15 to 20)
#    0.000    1.739    1.739    2.609    2.435   11.826 
#    0.000   13.043    0.000    0.000    0.000    0.000 
#    0.000    0.000    0.000    0.000    0.000    0.000 
#
# Total GULP energy -128300.001872 kJ/mol
# GULP energy per Si atom -5578.260951 kJ/mol
# Density = 2.075268 g / cm^3
# Si number density = 20.800023 Si / 1000 Ang^3
#
#
#
# Elastic Constant Matrix: (Units=GPa)
#
#
# Indices 1 2 3 4 5 6 
#
# 1 75.0165 26.3162 46.9488 0.0000 0.0000 0.0000
# 2 26.3162 89.0595 66.6423 0.0000 0.0000 0.0000
# 3 46.9488 66.6423 128.8282 0.0000 0.0000 0.0000
# 4 0.0000 0.0000 0.0000 41.4011 0.0000 0.0000
# 5 0.0000 0.0000 0.0000 0.0000 20.9701 0.0000
# 6 0.0000 0.0000 0.0000 0.0000 0.0000 22.4214
#
#
#
# Elastic Compliance Matrix: (Units=1/GPa)
#
#
# Indices 1 2 3 4 5 6 
#
# 1 0.017292 -0.000643 -0.005969 0.000000 0.000000 0.000000
# 2 -0.000643 0.018344 -0.009255 0.000000 0.000000 0.000000
# 3 -0.005969 -0.009255 0.014725 0.000000 0.000000 0.000000
# 4 0.000000 0.000000 0.000000 0.024154 0.000000 0.000000
# 5 0.000000 0.000000 0.000000 0.000000 0.047687 0.000000
# 6 0.000000 0.000000 0.000000 0.000000 0.000000 0.044600
#
#
# Mechanical properties :
#
#
# Convention : Reuss Voigt Hill
#
# Bulk Modulus (GPa) = 53.68599 63.63544 58.66071
# Shear Modulus (GPa) = 24.42075 27.15831 25.78953
#
# Velocity S-wave (km/s) = 3.43019 3.61735 3.52501
# Velocity P-wave (km/s) = 6.44631 6.93594 6.69560
#
# Compressibility (1/GPa) = 0.01862683
#
# Stress axis : x y z
#
# Youngs Moduli (GPa) = 57.83147 54.51454 67.91155
#
# Poissons Ratio (x) = 0.03505 0.40536
# Poissons Ratio (y) = 0.03718 0.62851
# Poissons Ratio (z) = 0.34519 0.50452
#
# Static dielectric constant tensor:
#      x y z
#    x 1.775690 0.000000 0.000000 
#    y 0.000000 1.713370 0.000000 
#    z 0.000000 0.000000 1.810000 
# 
# From -- ./inp_files/17438.got.cif
#   From: 2010.05.17/outbox.cif.g08.bks.cpg/sg23_9_cif.got.tgz:17438.got - 2010.06.04 12:02:01.
