data_PCOD9330614
_publ_section_title
;
Structure prediction by ZEFSAII (Michael W. Deem and Ramdas Pophale) SiO2 
 PCOD9330614
Probable space group: I 2 2 2
;
_chemical_formula_sum "Si O2"
_cell_formula_units_Z 48
_cell_length_a 30.888071
_cell_length_b 10.309492
_cell_length_c 7.931586
_cell_angle_alpha 90.000000
_cell_angle_beta 90.000000
_cell_angle_gamma 90.000000
_cell_volume 2525.736791
_symmetry_space_group_name_H-M "I 2 2 2"
_symmetry_group_IT_number 23
_symmetry_cell_setting 'orthorhombic'
loop_
_space_group_symop_operation_xyz
x,y,z
-x,-y,z
x,-y,-z
-x,y,-z
1/2+x,1/2+y,1/2+z
1/2-x,1/2-y,1/2+z
1/2+x,1/2-y,1/2-z
1/2-x,1/2+y,1/2-z
loop_
_atom_site_type_symbol
_atom_site_label
_atom_site_fract_x
_atom_site_fract_y
_atom_site_fract_z
Si Si1 0.500000 0.299320 0.000000
Si Si2 0.778190 0.879819 0.123869
Si Si3 0.607854 0.850016 0.437713
Si Si4 0.574555 0.500000 0.000000
Si Si5 0.204373 0.633837 0.101430
Si Si6 0.877804 0.901519 0.160131
Si Si7 0.485637 0.149592 0.320413
O O1 0.541514 0.384828 0.955438
O O2 0.508646 0.214836 0.163987
O O3 0.738674 0.877570 0.251139
O O4 0.826430 0.894154 0.199583
O O5 0.779682 0.747497 0.019861
O O6 0.772189 0.000000 0.000000
O O7 0.654652 0.834198 0.349581
O O8 0.607752 0.740730 0.587096
O O9 0.566171 0.834423 0.319456
O O10 0.604975 0.000000 0.500000
O O11 0.599784 0.454353 0.169167
O O12 0.202972 0.500000 0.000000
O O13 0.883821 0.000000 0.000000
O O14 0.500000 0.206875 0.500000
O O15 0.500000 0.000000 0.320354
#
# Coordination Sequence:
#
# PCOD9330614 Si02
#       7
#     4   8   8   4   8   8   8
#     4  11  25  40  56  94 125 151 212 264 308 383
#     4  10  21  39  61  89 123 164 206 252 312 377
#     4  10  20  39  64  92 123 164 211 260 316 380
#     4  11  24  40  62  90 126 162 206 262 319 372
#     4  10  21  37  61  88 129 159 206 258 306 374
#     4  10  22  41  65  91 126 167 213 259 313 383
#     4  11  21  39  65  83 118 165 205 254 321 375
#
# _framework density 19.004355
#
# number of rings (size 3 to 8) (size 9 to 14) (size 15 to 20)
#    0.000    1.667    1.667    3.250    1.167    0.000 
#    3.000    3.333    0.000    0.000    0.000    0.000 
#    0.000    0.000    0.000    0.000    0.000    0.000 
#
# Total GULP energy -133858.993661 kJ/mol
# GULP energy per Si atom -5577.458069 kJ/mol
# Density = 1.896110 g / cm^3
# Si number density = 19.004355 Si / 1000 Ang^3
#
#
#
# Elastic Constant Matrix: (Units=GPa)
#
#
# Indices 1 2 3 4 5 6 
#
# 1 138.0747 42.4366 53.3919 0.0000 0.0000 0.0000
# 2 42.4366 111.8626 53.7444 0.0000 0.0000 0.0000
# 3 53.3919 53.7444 85.2357 0.0000 0.0000 0.0000
# 4 0.0000 0.0000 0.0000 21.7739 0.0000 0.0000
# 5 0.0000 0.0000 0.0000 0.0000 37.6148 0.0000
# 6 0.0000 0.0000 0.0000 0.0000 0.0000 16.7399
#
#
#
# Elastic Compliance Matrix: (Units=1/GPa)
#
#
# Indices 1 2 3 4 5 6 
#
# 1 0.009648 -0.001085 -0.005359 0.000000 0.000000 0.000000
# 2 -0.001085 0.012947 -0.007484 0.000000 0.000000 0.000000
# 3 -0.005359 -0.007484 0.019808 0.000000 0.000000 0.000000
# 4 0.000000 0.000000 0.000000 0.045927 0.000000 0.000000
# 5 0.000000 0.000000 0.000000 0.000000 0.026585 0.000000
# 6 0.000000 0.000000 0.000000 0.000000 0.000000 0.059737
#
#
# Mechanical properties :
#
#
# Convention : Reuss Voigt Hill
#
# Bulk Modulus (GPa) = 68.74505 70.47986 69.61245
# Shear Modulus (GPa) = 24.11286 27.59906 25.85596
#
# Velocity S-wave (km/s) = 3.56590 3.81497 3.69254
# Velocity P-wave (km/s) = 7.29424 7.52144 7.40871
#
# Compressibility (1/GPa) = 0.01454650
#
# Stress axis : x y z
#
# Youngs Moduli (GPa) = 103.64332 77.23939 50.48449
#
# Poissons Ratio (x) = 0.08383 0.27057
# Poissons Ratio (y) = 0.11248 0.37781
# Poissons Ratio (z) = 0.55548 0.57803
#
# Static dielectric constant tensor:
#      x y z
#    x 1.679420 0.000000 0.000000 
#    y 0.000000 1.669400 0.000000 
#    z 0.000000 0.000000 1.660330 
# 
# From -- ./inp_files/13384.got.cif
#   From: 2010.05.17/outbox.cif.g08.bks.cpg/sg23_7_cif.got.tgz:13384.got - 2010.06.04 12:02:01.
