data_PCOD9330548
_publ_section_title
;
Structure prediction by ZEFSAII (Michael W. Deem and Ramdas Pophale) SiO2 
 PCOD9330548
Probable space group: I 2 2 2
;
_chemical_formula_sum "Si O2"
_cell_formula_units_Z 32
_cell_length_a 19.234615
_cell_length_b 13.913858
_cell_length_c 5.174285
_cell_angle_alpha 90.000000
_cell_angle_beta 90.000000
_cell_angle_gamma 90.000000
_cell_volume 1384.782003
_symmetry_space_group_name_H-M "I 2 2 2"
_symmetry_group_IT_number 23
_symmetry_cell_setting 'orthorhombic'
loop_
_space_group_symop_operation_xyz
x,y,z
-x,-y,z
x,-y,-z
-x,y,-z
1/2+x,1/2+y,1/2+z
1/2-x,1/2-y,1/2+z
1/2+x,1/2-y,1/2-z
1/2-x,1/2+y,1/2-z
loop_
_atom_site_type_symbol
_atom_site_label
_atom_site_fract_x
_atom_site_fract_y
_atom_site_fract_z
Si Si1 0.426718 0.238700 0.869231
Si Si2 0.716408 0.214073 0.943239
Si Si3 0.421164 0.543226 0.254062
Si Si4 0.851026 0.559642 0.258779
O O1 0.426574 0.342603 0.737743
O O2 0.402279 0.149131 0.695811
O O3 0.500000 0.222408 0.000000
O O4 0.364559 0.241993 0.079853
O O5 0.750641 0.217032 0.663464
O O6 0.713532 0.112523 0.096388
O O7 0.500000 0.500000 0.251793
O O8 0.384417 0.500000 0.500000
O O9 0.387082 0.500000 0.000000
O O10 0.882869 0.500000 0.500000
O O11 0.837517 0.500000 0.000000
#
# Coordination Sequence:
#
# PCOD9330548 Si02
#       4
#     8   8   8   8
#     4  10  23  44  76 101 146 189 243 307 362 430
#     4  10  23  45  72 100 144 188 239 293 366 428
#     4  10  20  38  62  95 141 166 227 291 351 414
#     4  10  23  44  72 104 146 187 245 299 357 444
#
# _framework density 23.108332999999998
#
# number of rings (size 3 to 8) (size 9 to 14) (size 15 to 20)
#    1.500    0.500    2.500    1.500    0.000    4.500 
#    0.000    8.750    0.000    0.000    0.000    0.000 
#    0.000    0.000    0.000    0.000    0.000    0.000 
#
# Total GULP energy -89154.458068 kJ/mol
# GULP energy per Si atom -5572.153629 kJ/mol
# Density = 2.305574 g / cm^3
# Si number density = 23.108333 Si / 1000 Ang^3
#
#
#
# Elastic Constant Matrix: (Units=GPa)
#
#
# Indices 1 2 3 4 5 6 
#
# 1 86.4982 -6.3088 7.1603 0.0000 0.0000 0.0000
# 2 -6.3088 141.6765 26.9982 0.0000 0.0000 0.0000
# 3 7.1603 26.9982 136.4023 0.0000 0.0000 0.0000
# 4 0.0000 0.0000 0.0000 35.0703 0.0000 0.0000
# 5 0.0000 0.0000 0.0000 0.0000 2.3862 0.0000
# 6 0.0000 0.0000 0.0000 0.0000 0.0000 25.0797
#
#
#
# Elastic Compliance Matrix: (Units=1/GPa)
#
#
# Indices 1 2 3 4 5 6 
#
# 1 0.011671 0.000661 -0.000744 0.000000 0.000000 0.000000
# 2 0.000661 0.007372 -0.001494 0.000000 0.000000 0.000000
# 3 -0.000744 -0.001494 0.007666 0.000000 0.000000 0.000000
# 4 0.000000 0.000000 0.000000 0.028514 0.000000 0.000000
# 5 0.000000 0.000000 0.000000 0.000000 0.419068 0.000000
# 6 0.000000 0.000000 0.000000 0.000000 0.000000 0.039873
#
#
# Mechanical properties :
#
#
# Convention : Reuss Voigt Hill
#
# Bulk Modulus (GPa) = 42.45032 46.69737 44.57385
# Shear Modulus (GPa) = 9.52074 34.95575 22.23824
#
# Velocity S-wave (km/s) = 2.03199 3.89355 3.10554
# Velocity P-wave (km/s) = 4.89033 6.36120 5.67363
#
# Compressibility (1/GPa) = 0.02355695
#
# Stress axis : x y z
#
# Youngs Moduli (GPa) = 85.68450 135.63964 130.44639
#
# Poissons Ratio (x) = -0.08971 0.09699
# Poissons Ratio (y) = -0.05667 0.19488
# Poissons Ratio (z) = 0.06371 0.20264
#
# Static dielectric constant tensor:
#      x y z
#    x 1.847150 0.000000 0.000000 
#    y 0.000000 1.962540 0.000000 
#    z 0.000000 0.000000 1.855830 
# 
# From -- ./inp_files/2984.got.cif
#   From: 2010.05.17/outbox.cif.g08.bks.cpg/sg23_2_cif.got.tgz:2984.got - 2010.06.04 12:02:01.
