data_PCOD9330874
_publ_section_title
;
Structure prediction by ZEFSAII (Michael W. Deem and Ramdas Pophale) SiO2 
 PCOD9330874
Probable space group: I 2 2 2
;
_chemical_formula_sum "Si O2"
_cell_formula_units_Z 32
_cell_length_a 16.572438
_cell_length_b 11.266041
_cell_length_c 7.455220
_cell_angle_alpha 90.000000
_cell_angle_beta 90.000000
_cell_angle_gamma 90.000000
_cell_volume 1391.932561
_symmetry_space_group_name_H-M "I 2 2 2"
_symmetry_group_IT_number 23
_symmetry_cell_setting 'orthorhombic'
loop_
_space_group_symop_operation_xyz
x,y,z
-x,-y,z
x,-y,-z
-x,y,-z
1/2+x,1/2+y,1/2+z
1/2-x,1/2-y,1/2+z
1/2+x,1/2-y,1/2-z
1/2-x,1/2+y,1/2-z
loop_
_atom_site_type_symbol
_atom_site_label
_atom_site_fract_x
_atom_site_fract_y
_atom_site_fract_z
Si Si1 0.226381 0.640992 0.340626
Si Si2 0.966950 0.377343 0.296500
Si Si3 0.719597 0.599563 0.252727
Si Si4 0.470405 0.377214 0.207235
O O1 0.129978 0.627492 0.313203
O O2 0.260539 0.538153 0.209067
O O3 0.253778 0.611552 0.541046
O O4 0.255744 0.777087 0.321817
O O5 0.995331 0.251226 0.215539
O O6 0.000000 0.500000 0.214476
O O7 0.000000 0.377208 0.500000
O O8 0.625442 0.614428 0.216911
O O9 0.500000 0.500000 0.291372
O O10 0.500000 0.376630 0.000000
#
# Coordination Sequence:
#
# PCOD9330874 Si02
#       4
#     8   8   8   8
#     4  10  22  37  58  90 120 154 198 247 300 350
#     4   9  16  30  54  80 105 139 188 235 279 342
#     4  10  21  37  57  86 121 154 197 248 296 353
#     4   9  19  33  53  80 107 148 199 239 287 349
#
# _framework density 22.989618
#
# number of rings (size 3 to 8) (size 9 to 14) (size 15 to 20)
#    0.000    2.500    0.000    3.000    0.000   13.000 
#    0.000    2.500    0.000    0.000    0.000   15.750 
#    0.000    0.000    0.000    0.000    0.000    0.000 
#
# Total GULP energy -89079.007736 kJ/mol
# GULP energy per Si atom -5567.437983 kJ/mol
# Density = 2.293729 g / cm^3
# Si number density = 22.989618 Si / 1000 Ang^3
#
#
#
# Elastic Constant Matrix: (Units=GPa)
#
#
# Indices 1 2 3 4 5 6 
#
# 1 65.7359 41.4358 7.5731 0.0000 0.0000 0.0000
# 2 41.4358 253.6633 2.9207 0.0000 0.0000 0.0000
# 3 7.5731 2.9207 44.2516 0.0000 0.0000 0.0000
# 4 0.0000 0.0000 0.0000 27.1906 0.0000 0.0000
# 5 0.0000 0.0000 0.0000 0.0000 51.6076 0.0000
# 6 0.0000 0.0000 0.0000 0.0000 0.0000 38.6396
#
#
#
# Elastic Compliance Matrix: (Units=1/GPa)
#
#
# Indices 1 2 3 4 5 6 
#
# 1 0.017292 -0.002793 -0.002775 0.000000 0.000000 0.000000
# 2 -0.002793 0.004396 0.000188 0.000000 0.000000 0.000000
# 3 -0.002775 0.000188 0.023061 0.000000 0.000000 0.000000
# 4 0.000000 0.000000 0.000000 0.036777 0.000000 0.000000
# 5 0.000000 0.000000 0.000000 0.000000 0.019377 0.000000
# 6 0.000000 0.000000 0.000000 0.000000 0.000000 0.025880
#
#
# Mechanical properties :
#
#
# Convention : Reuss Voigt Hill
#
# Bulk Modulus (GPa) = 29.42108 51.94555 40.68332
# Shear Modulus (GPa) = 33.58551 44.26898 38.92725
#
# Velocity S-wave (km/s) = 3.82632 4.39294 4.11938
# Velocity P-wave (km/s) = 5.68738 6.95520 6.35299
#
# Compressibility (1/GPa) = 0.03398923
#
# Stress axis : x y z
#
# Youngs Moduli (GPa) = 57.82861 227.46564 43.36409
#
# Poissons Ratio (x) = 0.63526 0.12034
# Poissons Ratio (y) = 0.16150 -0.00814
# Poissons Ratio (z) = 0.16048 -0.04271
#
# Static dielectric constant tensor:
#      x y z
#    x 1.783640 0.000000 0.000000 
#    y 0.000000 2.081340 0.000000 
#    z 0.000000 0.000000 1.813790 
# 
# From -- ./inp_files/7832.got.cif
#   From: 2010.05.17/outbox.cif.g08.bks.cpg/sg23_4_cif.got.tgz:7832.got - 2010.06.04 12:02:01.
