data_PCOD9330544
_publ_section_title
;
Structure prediction by ZEFSAII (Michael W. Deem and Ramdas Pophale) SiO2 
 PCOD9330544
Probable space group: I 2 2 2
;
_chemical_formula_sum "Si O2"
_cell_formula_units_Z 60
_cell_length_a 11.222490
_cell_length_b 22.501271
_cell_length_c 11.712991
_cell_angle_alpha 90.000000
_cell_angle_beta 90.000000
_cell_angle_gamma 90.000000
_cell_volume 2957.767870
_symmetry_space_group_name_H-M "I 2 2 2"
_symmetry_group_IT_number 23
_symmetry_cell_setting 'orthorhombic'
loop_
_space_group_symop_operation_xyz
x,y,z
-x,-y,z
x,-y,-z
-x,y,-z
1/2+x,1/2+y,1/2+z
1/2-x,1/2-y,1/2+z
1/2+x,1/2-y,1/2-z
1/2-x,1/2+y,1/2-z
loop_
_atom_site_type_symbol
_atom_site_label
_atom_site_fract_x
_atom_site_fract_y
_atom_site_fract_z
Si Si1 0.243413 0.811641 0.554647
Si Si2 0.969840 0.703020 0.777737
Si Si3 0.405971 0.326048 0.731569
Si Si4 0.395783 0.105026 0.595698
Si Si5 0.500000 0.000000 0.730278
Si Si6 0.944431 0.941888 0.126527
Si Si7 0.820890 0.686744 0.564204
Si Si8 0.664026 0.055232 0.918335
O O1 0.358204 0.804683 0.637399
O O2 0.137146 0.829579 0.638723
O O3 0.281613 0.863472 0.465112
O O4 0.211057 0.745983 0.506124
O O5 0.930990 0.699728 0.647015
O O6 0.022554 0.767446 0.795742
O O7 0.064849 0.653278 0.810307
O O8 0.476613 0.384021 0.696427
O O9 0.290968 0.323066 0.649237
O O10 0.500000 0.103692 0.500000
O O11 0.408542 0.040228 0.654864
O O12 0.577704 0.045028 0.809511
O O13 0.802354 0.949693 0.118372
O O14 0.000000 0.000000 0.180416
O O15 0.000000 0.935856 0.000000
O O16 0.845413 0.619604 0.519340
O O17 0.638496 0.000000 0.000000
#
# Coordination Sequence:
#
# PCOD9330544 Si02
#       8
#     8   8   8   8   4   8   8   8
#     4  10  22  39  62  94 130 162 213 261 321 384
#     4  10  20  38  62  91 122 165 210 254 318 378
#     4  10  22  36  64  96 122 162 213 269 307 375
#     4  10  21  40  64  89 123 169 210 254 316 392
#     4  12  24  42  64  96 132 170 212 268 332 386
#     4  10  21  41  65  89 124 168 219 261 311 386
#     4  10  21  39  62  90 129 161 208 268 316 381
#     4  11  23  40  62  95 130 166 213 268 328 385
#
# _framework density 20.285568000000001
#
# number of rings (size 3 to 8) (size 9 to 14) (size 15 to 20)
#    0.000    1.733    4.000    0.400    5.600    1.600 
#    4.800    0.000    0.000    0.000    0.000    0.000 
#    0.000    0.000    0.000    0.000    0.000    0.000 
#
# Total GULP energy -167269.896716 kJ/mol
# GULP energy per Si atom -5575.663224 kJ/mol
# Density = 2.023940 g / cm^3
# Si number density = 20.285568 Si / 1000 Ang^3
#
#
#
# Elastic Constant Matrix: (Units=GPa)
#
#
# Indices 1 2 3 4 5 6 
#
# 1 33.3359 6.9448 -0.0761 0.0000 0.0000 0.0000
# 2 6.9448 162.8343 37.9411 0.0001 0.0000 0.0000
# 3 -0.0761 37.9411 47.7062 0.0002 0.0000 -0.0003
# 4 0.0000 0.0001 0.0002 17.5460 0.0000 0.0001
# 5 0.0000 0.0000 0.0000 0.0000 1.5082 0.0001
# 6 0.0000 0.0000 -0.0003 0.0001 0.0001 -7.8538
#
#
#
# Elastic Compliance Matrix: (Units=1/GPa)
#
#
# Indices 1 2 3 4 5 6 
#
# 1 0.030334 -0.001602 0.001322 0.000000 0.000000 0.000000
# 2 -0.001602 0.007623 -0.006065 0.000000 0.000000 0.000000
# 3 0.001322 -0.006065 0.025787 0.000000 -0.000001 -0.000001
# 4 0.000000 0.000000 0.000000 0.056993 -0.000001 0.000001
# 5 0.000000 0.000000 -0.000001 -0.000001 0.663040 0.000005
# 6 0.000000 0.000000 -0.000001 0.000001 0.000005 -0.127327
#
#
# Mechanical properties :
#
#
# Convention : Reuss Voigt Hill
#
# Bulk Modulus (GPa) = 19.58653 37.05512 28.32083
# Shear Modulus (GPa) = 7.28696 15.51120 11.39908
#
# Velocity S-wave (km/s) = 1.89736 2.76822 2.37308
# Velocity P-wave (km/s) = 3.80478 5.34076 4.63681
#
# Compressibility (1/GPa) = 0.05105549
#
# Stress axis : x y z
#
# Youngs Moduli (GPa) = 32.96584 131.18731 38.77884
#
# Poissons Ratio (x) = 0.21015 -0.05128
# Poissons Ratio (y) = 0.05281 0.23519
# Poissons Ratio (z) = -0.04359 0.79564
#
# Static dielectric constant tensor:
#      x y z
#    x 1.741780 0.000000 0.000000 
#    y 0.000000 1.746330 0.000000 
#    z 0.000000 0.000000 1.745200 
# 
# From -- ./inp_files/15978.got.cif
#   From: 2010.05.17/outbox.cif.g08.bks.cpg/sg23_8_cif.got.tgz:15978.got - 2010.06.04 12:02:01.
