data_PCOD9330391
_publ_section_title
;
Structure prediction by ZEFSAII (Michael W. Deem and Ramdas Pophale) SiO2 
 PCOD9330391
Probable space group: I 2 2 2
;
_chemical_formula_sum "Si O2"
_cell_formula_units_Z 64
_cell_length_a 9.230469
_cell_length_b 11.982363
_cell_length_c 29.607269
_cell_angle_alpha 90.000000
_cell_angle_beta 90.000000
_cell_angle_gamma 90.000000
_cell_volume 3274.647746
_symmetry_space_group_name_H-M "I 2 2 2"
_symmetry_group_IT_number 23
_symmetry_cell_setting 'orthorhombic'
loop_
_space_group_symop_operation_xyz
x,y,z
-x,-y,z
x,-y,-z
-x,y,-z
1/2+x,1/2+y,1/2+z
1/2-x,1/2-y,1/2+z
1/2+x,1/2-y,1/2-z
1/2-x,1/2+y,1/2-z
loop_
_atom_site_type_symbol
_atom_site_label
_atom_site_fract_x
_atom_site_fract_y
_atom_site_fract_z
Si Si1 0.038251 0.213958 0.332438
Si Si2 0.582887 0.611565 0.425860
Si Si3 0.730753 0.874521 0.160907
Si Si4 0.362483 0.826309 0.024523
Si Si5 0.708293 0.371732 0.667102
Si Si6 0.691571 0.267205 0.435126
Si Si7 0.476888 0.367656 0.731781
Si Si8 0.038472 0.876817 0.425759
O O1 0.181950 0.277332 0.347169
O O2 0.053830 0.163062 0.282955
O O3 0.998059 0.131442 0.372731
O O4 0.914804 0.307889 0.329696
O O5 0.500000 0.500000 0.442065
O O6 0.750587 0.614621 0.441450
O O7 0.589616 0.610887 0.371666
O O8 0.482305 0.718158 0.438411
O O9 0.768525 0.844603 0.108547
O O10 0.851898 0.833756 0.196638
O O11 0.717666 0.006852 0.169787
O O12 0.440493 0.718290 0.048559
O O13 0.500000 0.882743 0.000000
O O14 0.254859 0.805473 0.982790
O O15 0.630578 0.327707 0.712219
O O16 0.790488 0.156158 0.428604
O O17 0.500000 0.500000 0.728241
O O18 0.000000 0.000000 0.442770
#
# Coordination Sequence:
#
# PCOD9330391 Si02
#       8
#     8   8   8   8   8   8   8   8
#     4  11  21  35  60  89 120 161 210 263 311 375
#     4  12  21  41  63  90 129 169 202 255 322 387
#     4  10  20  37  55  86 123 159 205 251 315 384
#     4  10  23  41  61  94 124 161 213 262 314 391
#     4  11  20  37  61  85 124 165 203 250 323 384
#     4  10  21  37  62  89 121 162 211 254 311 382
#     4  10  20  36  58  86 118 160 212 254 312 384
#     4  10  22  42  64  88 125 166 209 270 321 370
#
# _framework density 19.544087000000001
#
# number of rings (size 3 to 8) (size 9 to 14) (size 15 to 20)
#    0.000    1.500    3.750    2.250    0.000    3.250 
#    0.000    5.000    0.000    3.000    0.000    0.000 
#    0.000    0.000    0.000    0.000    0.000    0.000 
#
# Total GULP energy -178179.549969 kJ/mol
# GULP energy per Si atom -5568.110937 kJ/mol
# Density = 1.949960 g / cm^3
# Si number density = 19.544087 Si / 1000 Ang^3
#
#
#
# Elastic Constant Matrix: (Units=GPa)
#
#
# Indices 1 2 3 4 5 6 
#
# 1 93.4072 33.9783 6.4555 0.0000 0.0000 0.0000
# 2 33.9783 66.5651 6.4524 0.0001 0.0000 0.0000
# 3 6.4555 6.4524 107.7018 0.0000 0.0000 0.0000
# 4 0.0000 0.0001 0.0000 4041.2839 0.0000 0.0000
# 5 0.0000 0.0000 0.0000 0.0000 36.4450 0.0000
# 6 0.0000 0.0000 0.0000 0.0000 0.0000 19.6759
#
#
#
# Elastic Compliance Matrix: (Units=1/GPa)
#
#
# Indices 1 2 3 4 5 6 
#
# 1 0.013163 -0.006681 -0.000389 0.000000 0.000000 0.000000
# 2 -0.006681 0.018502 -0.000708 0.000000 0.000000 0.000000
# 3 -0.000389 -0.000708 0.009351 0.000000 0.000000 0.000000
# 4 0.000000 0.000000 0.000000 0.000247 0.000000 0.000000
# 5 0.000000 0.000000 0.000000 0.000000 0.027439 0.000000
# 6 0.000000 0.000000 0.000000 0.000000 0.000000 0.050824
#
#
# Mechanical properties :
#
#
# Convention : Reuss Voigt Hill
#
# Bulk Modulus (GPa) = 39.27802 40.16074 39.71938
# Shear Modulus (GPa) = 34.82661 834.20015 434.51338
#
# Velocity S-wave (km/s) = 4.22590 20.68228 14.92673
# Velocity P-wave (km/s) = 6.62961 24.30916 17.81695
#
# Compressibility (1/GPa) = 0.02545953
#
# Stress axis : x y z
#
# Youngs Moduli (GPa) = 75.96956 54.04793 106.94492
#
# Poissons Ratio (x) = 0.36112 0.04157
# Poissons Ratio (y) = 0.50759 0.07572
# Poissons Ratio (z) = 0.02953 0.03827
#
# Static dielectric constant tensor:
#      x y z
#    x 1.279170 0.000000 0.000000 
#    y 0.000000 1.696120 0.000000 
#    z 0.000000 0.000000 1.737610 
# 
# From -- ./inp_files/30344.got.cif
#   From: 2010.05.17/outbox.cif.g08.bks.cpg/sg23_16_cif.got.tgz:30344.got - 2010.06.04 12:02:01.
