data_PCOD9330331
_publ_section_title
;
Structure prediction by ZEFSAII (Michael W. Deem and Ramdas Pophale) SiO2 
 PCOD9330331
Probable space group: I 2 2 2
;
_chemical_formula_sum "Si O2"
_cell_formula_units_Z 64
_cell_length_a 8.716733
_cell_length_b 15.211770
_cell_length_c 23.246862
_cell_angle_alpha 90.000000
_cell_angle_beta 90.000000
_cell_angle_gamma 90.000000
_cell_volume 3082.462709
_symmetry_space_group_name_H-M "I 2 2 2"
_symmetry_group_IT_number 23
_symmetry_cell_setting 'orthorhombic'
loop_
_space_group_symop_operation_xyz
x,y,z
-x,-y,z
x,-y,-z
-x,y,-z
1/2+x,1/2+y,1/2+z
1/2-x,1/2-y,1/2+z
1/2+x,1/2-y,1/2-z
1/2-x,1/2+y,1/2-z
loop_
_atom_site_type_symbol
_atom_site_label
_atom_site_fract_x
_atom_site_fract_y
_atom_site_fract_z
Si Si1 0.067544 0.216630 0.939689
Si Si2 0.060660 0.093570 0.399795
Si Si3 0.436062 0.099594 0.168192
Si Si4 0.935937 0.711713 0.438533
Si Si5 0.105641 0.172644 0.174907
Si Si6 0.925699 0.911171 0.727877
Si Si7 0.425199 0.911057 0.599268
Si Si8 0.596416 0.862804 0.713959
O O1 0.250893 0.204398 0.936198
O O2 0.034781 0.321327 0.933659
O O3 0.981363 0.173279 0.885786
O O4 0.000000 0.184987 0.000000
O O5 0.022728 0.184632 0.431401
O O6 0.243027 0.083265 0.398499
O O7 0.995443 0.104924 0.335170
O O8 0.000000 0.000000 0.422874
O O9 0.490947 0.156114 0.113299
O O10 0.251967 0.108860 0.173689
O O11 0.508555 0.140927 0.226022
O O12 0.500000 0.000000 0.163731
O O13 0.000000 0.681521 0.500000
O O14 0.163386 0.270617 0.190530
O O15 0.979888 0.157399 0.224672
O O16 0.745048 0.922347 0.722575
O O17 0.000000 0.000000 0.749870
O O18 0.487751 0.897883 0.663894
O O19 0.500000 0.000000 0.575606
#
# Coordination Sequence:
#
# PCOD9330331 Si02
#       8
#     8   8   8   8   8   8   8   8
#     4  10  23  41  61  85 113 156 208 258 315 371
#     4  10  21  37  60  92 126 163 204 252 317 387
#     4  12  25  41  63  92 126 166 211 259 313 371
#     4  11  24  43  64  86 121 164 212 267 318 373
#     4  11  22  38  62  88 120 158 200 251 306 366
#     4  11  21  35  57  86 120 152 188 236 296 366
#     4  10  20  35  57  87 123 157 195 247 308 379
#     4  11  21  36  59  89 123 158 198 246 305 366
#
# _framework density 20.762620999999999
#
# number of rings (size 3 to 8) (size 9 to 14) (size 15 to 20)
#    0.000    1.250    0.000    7.125    0.000    5.750 
#    0.000    2.500    0.000    2.625    0.000    0.000 
#    0.000    0.000    0.000    0.000    0.000    0.000 
#
# Total GULP energy -178876.610716 kJ/mol
# GULP energy per Si atom -5589.894085 kJ/mol
# Density = 2.071536 g / cm^3
# Si number density = 20.762621 Si / 1000 Ang^3
#
#
#
# Elastic Constant Matrix: (Units=GPa)
#
#
# Indices 1 2 3 4 5 6 
#
# 1 72.2651 20.8544 34.0849 0.0000 0.0000 0.0000
# 2 20.8544 65.9128 19.8285 0.0000 0.0000 0.0000
# 3 34.0849 19.8285 106.5098 0.0000 0.0000 0.0000
# 4 0.0000 0.0000 0.0000 11.0022 0.0000 0.0000
# 5 0.0000 0.0000 0.0000 0.0000 13.5304 0.0000
# 6 0.0000 0.0000 0.0000 0.0000 0.0000 34.5707
#
#
#
# Elastic Compliance Matrix: (Units=1/GPa)
#
#
# Indices 1 2 3 4 5 6 
#
# 1 0.017249 -0.004022 -0.004771 0.000000 0.000000 0.000000
# 2 -0.004022 0.017010 -0.001879 0.000000 0.000000 0.000000
# 3 -0.004771 -0.001879 0.011266 0.000000 0.000000 0.000000
# 4 0.000000 0.000000 0.000000 0.090891 0.000000 0.000000
# 5 0.000000 0.000000 0.000000 0.000000 0.073908 0.000000
# 6 0.000000 0.000000 0.000000 0.000000 0.000000 0.028926
#
#
# Mechanical properties :
#
#
# Convention : Reuss Voigt Hill
#
# Bulk Modulus (GPa) = 41.35898 43.80259 42.58078
# Shear Modulus (GPa) = 18.61130 23.14866 20.87998
#
# Velocity S-wave (km/s) = 2.99722 3.34266 3.17464
# Velocity P-wave (km/s) = 5.65163 6.00338 5.83016
#
# Compressibility (1/GPa) = 0.02417855
#
# Stress axis : x y z
#
# Youngs Moduli (GPa) = 57.97414 58.79056 88.76611
#
# Poissons Ratio (x) = 0.23647 0.42352
# Poissons Ratio (y) = 0.23318 0.16683
# Poissons Ratio (z) = 0.27661 0.11049
#
# Static dielectric constant tensor:
#      x y z
#    x 1.730920 0.000000 0.000000 
#    y 0.000000 1.810440 0.000000 
#    z 0.000000 0.000000 1.710500 
# 
# From -- ./inp_files/28087.got.cif
#   From: 2010.05.17/outbox.cif.g08.bks.cpg/sg23_15_cif.got.tgz:28087.got - 2010.06.04 12:02:01.
