data_PCOD9330718
_publ_section_title
;
Structure prediction by ZEFSAII (Michael W. Deem and Ramdas Pophale) SiO2 
 PCOD9330718
Probable space group: I 2 2 2
;
_chemical_formula_sum "Si O2"
_cell_formula_units_Z 44
_cell_length_a 9.471496
_cell_length_b 13.713663
_cell_length_c 17.509814
_cell_angle_alpha 90.000000
_cell_angle_beta 90.000000
_cell_angle_gamma 90.000000
_cell_volume 2274.330554
_symmetry_space_group_name_H-M "I 2 2 2"
_symmetry_group_IT_number 23
_symmetry_cell_setting 'orthorhombic'
loop_
_space_group_symop_operation_xyz
x,y,z
-x,-y,z
x,-y,-z
-x,y,-z
1/2+x,1/2+y,1/2+z
1/2-x,1/2-y,1/2+z
1/2+x,1/2-y,1/2-z
1/2-x,1/2+y,1/2-z
loop_
_atom_site_type_symbol
_atom_site_label
_atom_site_fract_x
_atom_site_fract_y
_atom_site_fract_z
Si Si1 0.481405 0.190157 0.797597
Si Si2 0.095865 0.835171 0.572844
Si Si3 0.651330 0.655387 0.290042
Si Si4 0.144377 0.805533 0.035842
Si Si5 0.000000 0.000000 0.317720
Si Si6 0.226057 0.500000 0.500000
Si Si7 0.000000 0.500000 0.371880
O O1 0.480618 0.254101 0.874765
O O2 0.566999 0.248594 0.735460
O O3 0.317862 0.171941 0.777234
O O4 0.547612 0.087703 0.819117
O O5 0.239696 0.780562 0.546401
O O6 0.000000 0.857627 0.500000
O O7 0.095971 0.930223 0.627793
O O8 0.623901 0.647230 0.380159
O O9 0.593235 0.568280 0.237662
O O10 0.000000 0.767016 0.000000
O O11 0.192390 0.899173 0.985226
O O12 0.126277 0.473022 0.428562
#
# Coordination Sequence:
#
# PCOD9330718 Si02
#       7
#     8   8   8   8   4   4   4
#     4  10  22  37  60  88 124 158 205 250 309 361
#     4  10  20  42  62  89 115 164 215 250 292 366
#     4  10  23  42  57  92 122 165 203 255 310 371
#     4  11  24  38  61  94 130 158 198 264 326 368
#     4  10  23  38  69  84 122 166 216 252 295 378
#     4  11  21  36  60  94 126 160 206 254 314 380
#     4  11  20  36  64  92 115 168 208 252 295 380
#
# _framework density 19.346353000000001
#
# number of rings (size 3 to 8) (size 9 to 14) (size 15 to 20)
#    0.000    1.636    3.636    1.636    2.545    8.727 
#    0.000    0.000    0.000   13.091    0.000    0.000 
#    0.000    0.000    0.000    0.000    0.000    0.000 
#
# Total GULP energy -122701.488846 kJ/mol
# GULP energy per Si atom -5577.340402 kJ/mol
# Density = 1.930232 g / cm^3
# Si number density = 19.346353 Si / 1000 Ang^3
#
#
#
# Elastic Constant Matrix: (Units=GPa)
#
#
# Indices 1 2 3 4 5 6 
#
# 1 53.2144 5.5229 32.9446 0.0000 0.0000 0.0000
# 2 5.5229 96.6570 29.1823 0.0000 0.0000 0.0000
# 3 32.9446 29.1823 75.7121 0.0000 0.0000 0.0000
# 4 0.0000 0.0000 0.0000 25.6161 0.0000 0.0000
# 5 0.0000 0.0000 0.0000 0.0000 24.0362 0.0000
# 6 0.0000 0.0000 0.0000 0.0000 0.0000 5.0906
#
#
#
# Elastic Compliance Matrix: (Units=1/GPa)
#
#
# Indices 1 2 3 4 5 6 
#
# 1 0.026126 0.002195 -0.012214 0.000000 0.000000 0.000000
# 2 0.002195 0.011893 -0.005539 0.000000 0.000000 0.000000
# 3 -0.012214 -0.005539 0.020658 0.000000 0.000000 0.000000
# 4 0.000000 0.000000 0.000000 0.039038 0.000000 0.000000
# 5 0.000000 0.000000 0.000000 0.000000 0.041604 0.000000
# 6 0.000000 0.000000 0.000000 0.000000 0.000000 0.196439
#
#
# Mechanical properties :
#
#
# Convention : Reuss Voigt Hill
#
# Bulk Modulus (GPa) = 36.28491 40.09813 38.19152
# Shear Modulus (GPa) = 13.29574 21.47750 17.38662
#
# Velocity S-wave (km/s) = 2.62439 3.33552 3.00109
# Velocity P-wave (km/s) = 5.28955 5.96705 5.63848
#
# Compressibility (1/GPa) = 0.02755966
#
# Stress axis : x y z
#
# Youngs Moduli (GPa) = 38.27643 84.08479 48.40842
#
# Poissons Ratio (x) = -0.18455 0.59126
# Poissons Ratio (y) = -0.08401 0.26813
# Poissons Ratio (z) = 0.46751 0.46574
#
# Static dielectric constant tensor:
#      x y z
#    x 1.690200 0.000000 0.000000 
#    y 0.000000 1.695790 0.000000 
#    z 0.000000 0.000000 1.672190 
# 
# From -- ./inp_files/11002.got.cif
#   From: 2010.05.17/outbox.cif.g08.bks.cpg/sg23_6_cif.got.tgz:11002.got - 2010.06.04 12:02:01.
