data_PCOD9330979
_publ_section_title
;
Structure prediction by ZEFSAII (Michael W. Deem and Ramdas Pophale) SiO2 
 PCOD9330979
Probable space group: I 2 2 2
;
_chemical_formula_sum "Si O2"
_cell_formula_units_Z 58
_cell_length_a 7.768027
_cell_length_b 26.106425
_cell_length_c 11.548744
_cell_angle_alpha 90.000000
_cell_angle_beta 90.000000
_cell_angle_gamma 90.000000
_cell_volume 2342.032324
_symmetry_space_group_name_H-M "I 2 2 2"
_symmetry_group_IT_number 23
_symmetry_cell_setting 'orthorhombic'
loop_
_space_group_symop_operation_xyz
x,y,z
-x,-y,z
x,-y,-z
-x,y,-z
1/2+x,1/2+y,1/2+z
1/2-x,1/2-y,1/2+z
1/2+x,1/2-y,1/2-z
1/2-x,1/2+y,1/2-z
loop_
_atom_site_type_symbol
_atom_site_label
_atom_site_fract_x
_atom_site_fract_y
_atom_site_fract_z
Si Si1 0.306736 0.324949 0.947244
Si Si2 0.209373 0.996655 0.362353
Si Si3 0.500000 0.000000 0.000000
Si Si4 0.191564 0.571779 0.331577
Si Si5 0.448232 0.650405 0.295590
Si Si6 0.968746 0.672670 0.337684
Si Si7 0.287442 0.119325 0.657060
Si Si8 0.731064 0.716684 0.531239
O O1 0.322328 0.335269 0.811886
O O2 0.500000 0.319609 0.000000
O O3 0.230338 0.371614 0.020663
O O4 0.213044 0.272615 0.979471
O O5 0.290144 0.941842 0.322581
O O6 0.235300 0.000000 0.500000
O O7 0.293762 0.043475 0.292068
O O8 0.000000 0.000000 0.342801
O O9 0.370503 0.030478 0.080164
O O10 0.373854 0.598967 0.352207
O O11 0.057428 0.617690 0.354634
O O12 0.621154 0.637384 0.229943
O O13 0.423978 0.694037 0.391870
O O14 0.916137 0.663282 0.205289
O O15 0.810243 0.682091 0.426368
O O16 0.107877 0.715008 0.375698
#
# Coordination Sequence:
#
# PCOD9330979 Si02
#       8
#     8   8   2   8   8   8   8   8
#     4  10  21  38  65  92 126 169 218 258 337 397
#     4  11  23  41  67  96 134 172 223 278 337 392
#     4  12  24  40  72  92 136 176 226 262 344 396
#     4  11  22  44  68  96 127 181 220 268 335 400
#     4  10  22  39  65  93 130 165 218 270 325 393
#     4  10  22  41  64  90 130 168 214 265 332 389
#     4  11  23  38  65  97 126 168 214 274 322 389
#     4  10  21  41  66  89 127 177 209 267 331 396
#
# _framework density 24.764816
#
# number of rings (size 3 to 8) (size 9 to 14) (size 15 to 20)
#    0.000    1.517    2.759    3.310    5.793    0.552 
#    0.000   10.345    6.069    0.000    0.000    0.000 
#    0.000    0.000    0.000    0.000    0.000    0.000 
#
# Total GULP energy -161957.676851 kJ/mol
# GULP energy per Si atom -5584.747478 kJ/mol
# Density = 2.470845 g / cm^3
# Si number density = 24.764816 Si / 1000 Ang^3
#
#
#
# Elastic Constant Matrix: (Units=GPa)
#
#
# Indices 1 2 3 4 5 6 
#
# 1 56.7055 8.9962 8.7213 0.0001 0.0000 0.0000
# 2 8.9962 103.4307 5.8817 0.0001 -0.0001 0.0001
# 3 8.7213 5.8817 70.7455 0.0006 -0.0001 0.0006
# 4 0.0001 0.0001 0.0006 53.6892 -0.0005 -0.0001
# 5 0.0000 -0.0001 -0.0001 -0.0005 80.0387 -0.0002
# 6 0.0000 0.0001 0.0006 -0.0001 -0.0002 5.2213
#
#
#
# Elastic Compliance Matrix: (Units=1/GPa)
#
#
# Indices 1 2 3 4 5 6 
#
# 1 0.018193 -0.001462 -0.002121 0.000000 0.000000 0.000000
# 2 -0.001462 0.009832 -0.000637 0.000000 0.000000 0.000000
# 3 -0.002121 -0.000637 0.014450 0.000000 0.000000 -0.000002
# 4 0.000000 0.000000 0.000000 0.018626 0.000000 0.000000
# 5 0.000000 0.000000 0.000000 0.000000 0.012494 0.000001
# 6 0.000000 0.000000 -0.000002 0.000000 0.000001 0.191525
#
#
# Mechanical properties :
#
#
# Convention : Reuss Voigt Hill
#
# Bulk Modulus (GPa) = 29.38239 30.89780 30.14009
# Shear Modulus (GPa) = 17.54976 41.60866 29.57921
#
# Velocity S-wave (km/s) = 2.66495 4.10341 3.45977
# Velocity P-wave (km/s) = 4.62164 5.91221 5.30631
#
# Compressibility (1/GPa) = 0.03403399
#
# Stress axis : x y z
#
# Youngs Moduli (GPa) = 54.96580 101.71199 69.20582
#
# Poissons Ratio (x) = 0.14868 0.14680
# Poissons Ratio (y) = 0.08035 0.04410
# Poissons Ratio (z) = 0.11660 0.06481
#
# Static dielectric constant tensor:
#      x y z
#    x 2.175340 0.000000 0.000000 
#    y 0.000000 1.904140 0.000000 
#    z 0.000000 0.000000 1.954510 
# 
# From -- ./inp_files/14914.got.cif
#   From: 2010.05.17/outbox.cif.g08.bks.cpg/sg23_8_cif.got.tgz:14914.got - 2010.06.04 12:02:01.
