data_PCOD9330753
_publ_section_title
;
Structure prediction by ZEFSAII (Michael W. Deem and Ramdas Pophale) SiO2 
 PCOD9330753
Probable space group: I 2 2 2
;
_chemical_formula_sum "Si O2"
_cell_formula_units_Z 38
_cell_length_a 19.827600
_cell_length_b 13.994713
_cell_length_c 7.610797
_cell_angle_alpha 90.000000
_cell_angle_beta 90.000000
_cell_angle_gamma 90.000000
_cell_volume 2111.855912
_symmetry_space_group_name_H-M "I 2 2 2"
_symmetry_group_IT_number 23
_symmetry_cell_setting 'orthorhombic'
loop_
_space_group_symop_operation_xyz
x,y,z
-x,-y,z
x,-y,-z
-x,y,-z
1/2+x,1/2+y,1/2+z
1/2-x,1/2-y,1/2+z
1/2+x,1/2-y,1/2-z
1/2-x,1/2+y,1/2-z
loop_
_atom_site_type_symbol
_atom_site_label
_atom_site_fract_x
_atom_site_fract_y
_atom_site_fract_z
Si Si1 0.500000 0.000000 0.500000
Si Si2 0.377780 0.155418 0.500001
Si Si3 0.580325 0.300173 0.206090
Si Si4 0.262641 0.000000 0.500000
Si Si5 0.649897 0.500000 0.294971
Si Si6 0.919676 0.199825 0.293906
O O1 0.440784 0.083146 0.500000
O O2 0.383893 0.223275 0.669852
O O3 0.383894 0.223278 0.330155
O O4 0.310353 0.092742 0.499997
O O5 0.606854 0.405489 0.252050
O O6 0.500001 0.295333 0.238060
O O7 0.592408 0.281537 0.999998
O O8 0.214677 0.000002 0.669631
O O9 0.667784 0.500000 0.500000
O O10 0.606851 0.594509 0.252051
#
# Coordination Sequence:
#
# PCOD9330753 Si02
#       6
#     2   8   8   4   8   8
#     4  10  20  44  66  94 130 154 226 256 320 366
#     4  11  23  43  69  90 131 175 213 268 314 383
#     4  11  22  40  69 102 127 165 214 275 324 376
#     4  11  28  45  59  94 137 182 208 264 315 386
#     4  12  24  42  64  97 136 169 215 263 326 387
#     4  11  22  40  69 102 127 165 214 275 324 376
#
# _framework density 17.993651
#
# number of rings (size 3 to 8) (size 9 to 14) (size 15 to 20)
#    0.000    0.842    6.316    0.632    0.000    5.895 
#    0.000    4.211    0.000    0.000    0.000    0.000 
#    0.000    0.000    0.000    0.000    0.000    0.000 
#
# Total GULP energy -105941.251522 kJ/mol
# GULP energy per Si atom -5575.855343 kJ/mol
# Density = 1.795270 g / cm^3
# Si number density = 17.993651 Si / 1000 Ang^3
#
#
#
# Elastic Constant Matrix: (Units=GPa)
#
#
# Indices 1 2 3 4 5 6 
#
# 1 67.2699 38.4982 69.0608 0.0000 0.0000 0.0000
# 2 38.4982 152.8129 70.1593 0.0000 0.0000 0.0000
# 3 69.0608 70.1593 166.5929 0.0000 0.0000 0.0000
# 4 0.0000 0.0000 0.0000 12.2226 0.0000 0.0000
# 5 0.0000 0.0000 0.0000 0.0000 6.7165 0.0000
# 6 0.0000 0.0000 0.0000 0.0000 0.0000 37.2246
#
#
#
# Elastic Compliance Matrix: (Units=1/GPa)
#
#
# Indices 1 2 3 4 5 6 
#
# 1 0.026370 -0.002014 -0.010084 0.000000 0.000000 0.000000
# 2 -0.002014 0.008266 -0.002646 0.000000 0.000000 0.000000
# 3 -0.010084 -0.002646 0.011297 0.000000 0.000000 0.000000
# 4 0.000000 0.000000 0.000000 0.081815 0.000000 0.000000
# 5 0.000000 0.000000 0.000000 0.000000 0.148887 0.000000
# 6 0.000000 0.000000 0.000000 0.000000 0.000000 0.026864
#
#
# Mechanical properties :
#
#
# Convention : Reuss Voigt Hill
#
# Bulk Modulus (GPa) = 60.80528 82.45693 71.63111
# Shear Modulus (GPa) = 14.77237 25.16323 19.96780
#
# Velocity S-wave (km/s) = 2.86838 3.74364 3.33485
# Velocity P-wave (km/s) = 6.69598 8.03813 7.39756
#
# Compressibility (1/GPa) = 0.01644594
#
# Stress axis : x y z
#
# Youngs Moduli (GPa) = 37.92192 120.97243 88.51674
#
# Poissons Ratio (x) = 0.24362 0.89256
# Poissons Ratio (y) = 0.07637 0.23426
# Poissons Ratio (z) = 0.38239 0.32015
#
# Static dielectric constant tensor:
#      x y z
#    x 1.586330 0.000000 0.000000 
#    y 0.000000 1.584110 0.000000 
#    z 0.000000 0.000000 1.612580 
# 
# From -- ./inp_files/10779.got.cif
#   From: 2010.05.17/outbox.cif.g08.bks.cpg/sg23_6_cif.got.tgz:10779.got - 2010.06.04 12:02:01.
