data_PCOD9330490
_publ_section_title
;
Structure prediction by ZEFSAII (Michael W. Deem and Ramdas Pophale) SiO2 
 PCOD9330490
Probable space group: I 2 2 2
;
_chemical_formula_sum "Si O2"
_cell_formula_units_Z 48
_cell_length_a 11.786142
_cell_length_b 16.135227
_cell_length_c 12.506765
_cell_angle_alpha 90.000000
_cell_angle_beta 90.000000
_cell_angle_gamma 90.000000
_cell_volume 2378.437472
_symmetry_space_group_name_H-M "I 2 2 2"
_symmetry_group_IT_number 23
_symmetry_cell_setting 'orthorhombic'
loop_
_space_group_symop_operation_xyz
x,y,z
-x,-y,z
x,-y,-z
-x,y,-z
1/2+x,1/2+y,1/2+z
1/2-x,1/2-y,1/2+z
1/2+x,1/2-y,1/2-z
1/2-x,1/2+y,1/2-z
loop_
_atom_site_type_symbol
_atom_site_label
_atom_site_fract_x
_atom_site_fract_y
_atom_site_fract_z
Si Si1 0.746106 0.823851 0.186969
Si Si2 0.092427 0.843618 0.626363
Si Si3 0.634709 0.402043 0.515318
Si Si4 0.640601 0.421279 0.924594
Si Si5 0.006081 0.344524 0.373903
Si Si6 0.763913 0.633676 0.268931
O O1 0.822532 0.865009 0.279226
O O2 0.616351 0.853330 0.179895
O O3 0.752926 0.726604 0.219507
O O4 0.801850 0.847387 0.073904
O O5 0.154384 0.847494 0.511420
O O6 0.040326 0.752427 0.635768
O O7 0.984422 0.904286 0.622782
O O8 0.660999 0.500000 0.500000
O O9 0.500000 0.391608 0.500000
O O10 0.677889 0.375039 0.631954
O O11 0.727367 0.423617 0.828771
O O12 0.647392 0.500000 0.000000
O O13 0.111655 0.386669 0.314377
O O14 0.000000 0.366148 0.500000
#
# Coordination Sequence:
#
# PCOD9330490 Si02
#       6
#     8   8   8   8   8   8
#     4  11  23  41  68  97 136 181 233 281 331 417
#     4  10  20  37  63  95 131 172 233 281 342 393
#     4  11  26  45  67 104 141 173 224 300 356 397
#     4  11  22  39  65  98 133 172 221 291 344 402
#     4  11  19  40  64  96 132 177 231 278 333 413
#     4  11  24  41  67 101 137 182 237 273 341 416
#
# _framework density 20.181315999999999
#
# number of rings (size 3 to 8) (size 9 to 14) (size 15 to 20)
#    0.000    1.167    5.000    2.000    7.000    0.000 
#    3.000    2.500    0.000    2.000    0.000    0.000 
#    0.000    0.000    0.000    0.000    0.000    0.000 
#
# Total GULP energy -134048.403624 kJ/mol
# GULP energy per Si atom -5585.350151 kJ/mol
# Density = 2.013538 g / cm^3
# Si number density = 20.181316 Si / 1000 Ang^3
#
#
#
# Elastic Constant Matrix: (Units=GPa)
#
#
# Indices 1 2 3 4 5 6 
#
# 1 132.8247 23.1757 91.7266 0.0000 0.0000 0.0000
# 2 23.1757 57.4686 46.2081 0.0000 0.0000 0.0000
# 3 91.7266 46.2081 152.2639 -0.0001 0.0000 0.0000
# 4 0.0000 0.0000 -0.0001 37.1243 0.0000 0.0000
# 5 0.0000 0.0000 0.0000 0.0000 48.4951 0.0000
# 6 0.0000 0.0000 0.0000 0.0000 0.0000 11.8614
#
#
#
# Elastic Compliance Matrix: (Units=1/GPa)
#
#
# Indices 1 2 3 4 5 6 
#
# 1 0.012976 0.001392 -0.008239 0.000000 0.000000 0.000000
# 2 0.001392 0.023167 -0.007869 0.000000 0.000000 0.000000
# 3 -0.008239 -0.007869 0.013919 0.000000 0.000000 0.000000
# 4 0.000000 0.000000 0.000000 0.026937 0.000000 0.000000
# 5 0.000000 0.000000 0.000000 0.000000 0.020621 0.000000
# 6 0.000000 0.000000 0.000000 0.000000 0.000000 0.084307
#
#
# Mechanical properties :
#
#
# Convention : Reuss Voigt Hill
#
# Bulk Modulus (GPa) = 48.47572 73.86423 61.16997
# Shear Modulus (GPa) = 22.91113 31.59261 27.25187
#
# Velocity S-wave (km/s) = 3.37302 3.96085 3.67870
# Velocity P-wave (km/s) = 6.26434 7.58931 6.95843
#
# Compressibility (1/GPa) = 0.02062889
#
# Stress axis : x y z
#
# Youngs Moduli (GPa) = 77.06689 43.16554 71.84376
#
# Poissons Ratio (x) = -0.06009 0.59194
# Poissons Ratio (y) = -0.10728 0.56534
# Poissons Ratio (z) = 0.63498 0.33967
#
# Static dielectric constant tensor:
#      x y z
#    x 1.722070 0.000000 0.000000 
#    y 0.000000 1.820060 0.000000 
#    z 0.000000 0.000000 1.714900 
# 
# From -- ./inp_files/15739.got.cif
#   From: 2010.05.17/outbox.cif.g08.bks.cpg/sg23_8_cif.got.tgz:15739.got - 2010.06.04 12:02:01.
