data_PCOD9330699
_publ_section_title
;
Structure prediction by ZEFSAII (Michael W. Deem and Ramdas Pophale) SiO2 
 PCOD9330699
Probable space group: I 2 2 2
;
_chemical_formula_sum "Si O2"
_cell_formula_units_Z 58
_cell_length_a 16.765814
_cell_length_b 5.274579
_cell_length_c 29.564722
_cell_angle_alpha 90.000000
_cell_angle_beta 90.000000
_cell_angle_gamma 90.000000
_cell_volume 2614.485543
_symmetry_space_group_name_H-M "I 2 2 2"
_symmetry_group_IT_number 23
_symmetry_cell_setting 'orthorhombic'
loop_
_space_group_symop_operation_xyz
x,y,z
-x,-y,z
x,-y,-z
-x,y,-z
1/2+x,1/2+y,1/2+z
1/2-x,1/2-y,1/2+z
1/2+x,1/2-y,1/2-z
1/2-x,1/2+y,1/2-z
loop_
_atom_site_type_symbol
_atom_site_label
_atom_site_fract_x
_atom_site_fract_y
_atom_site_fract_z
Si Si1 0.106598 0.827330 0.076112
Si Si2 0.089830 0.570788 0.172469
Si Si3 0.802155 0.247605 0.248300
Si Si4 0.689961 0.701687 0.624759
Si Si5 0.589642 0.443596 0.110279
Si Si6 0.500000 0.500000 0.500000
Si Si7 0.264920 0.582315 0.051694
Si Si8 0.148819 0.541983 0.342392
O O1 0.086784 0.663817 0.120173
O O2 0.196431 0.790457 0.057742
O O3 0.112222 0.101211 0.098856
O O4 0.050762 0.824491 0.033346
O O5 0.134765 0.758407 0.206861
O O6 0.153956 0.344179 0.167776
O O7 0.000000 0.500000 0.186409
O O8 0.733807 0.467599 0.240987
O O9 0.848690 0.367870 0.290941
O O10 0.758073 0.508409 0.642253
O O11 0.733275 0.874815 0.587594
O O12 0.500000 0.500000 0.096013
O O13 0.647138 0.357062 0.069422
O O14 0.617761 0.712223 0.130730
O O15 0.600917 0.213185 0.146082
O O16 0.266233 0.500000 0.000000
#
# Coordination Sequence:
#
# PCOD9330699 Si02
#       8
#     8   8   8   8   8   2   8   8
#     4  11  22  42  64  93 139 178 237 286 360 423
#     4  11  25  41  64 100 139 182 230 302 366 418
#     4  12  25  44  73 103 137 185 238 284 348 437
#     4  10  20  41  65  91 129 182 230 283 350 432
#     4  11  24  43  68  99 136 178 227 293 351 415
#     4  12  24  36  70 104 132 192 240 308 346 444
#     4  10  22  38  63  92 127 175 227 282 349 428
#     4  11  22  43  71  98 133 182 233 281 350 428
#
# _framework density 22.184094999999999
#
# number of rings (size 3 to 8) (size 9 to 14) (size 15 to 20)
#    0.000    1.103    2.759    3.724    1.931    2.483 
#    0.000    2.759    0.000    1.655    0.000    0.000 
#    0.000    0.000    0.000    0.000    0.000    0.000 
#
# Total GULP energy -161771.717463 kJ/mol
# GULP energy per Si atom -5578.335085 kJ/mol
# Density = 2.213360 g / cm^3
# Si number density = 22.184095 Si / 1000 Ang^3
#
#
#
# Elastic Constant Matrix: (Units=GPa)
#
#
# Indices 1 2 3 4 5 6 
#
# 1 107.4663 26.4511 45.9555 0.0000 0.0000 0.0000
# 2 26.4511 59.0410 -7.9728 0.0000 0.0000 0.0000
# 3 45.9555 -7.9728 84.3319 0.0000 0.0000 0.0000
# 4 0.0000 0.0000 0.0000 14.5431 0.0000 0.0000
# 5 0.0000 0.0000 0.0000 0.0000 1.1006 0.0000
# 6 0.0000 0.0000 0.0000 0.0000 0.0000 26.2205
#
#
#
# Elastic Compliance Matrix: (Units=1/GPa)
#
#
# Indices 1 2 3 4 5 6 
#
# 1 0.015117 -0.007987 -0.008993 0.000000 0.000000 0.000000
# 2 -0.007987 0.021376 0.006373 0.000000 0.000000 0.000000
# 3 -0.008993 0.006373 0.017361 0.000000 0.000000 0.000000
# 4 0.000000 0.000000 0.000000 0.068761 0.000000 0.000000
# 5 0.000000 0.000000 0.000000 0.000000 0.908556 0.000000
# 6 0.000000 0.000000 0.000000 0.000000 0.000000 0.038138
#
#
# Mechanical properties :
#
#
# Convention : Reuss Voigt Hill
#
# Bulk Modulus (GPa) = 30.63613 42.18966 36.41290
# Shear Modulus (GPa) = 4.53967 20.79986 12.66976
#
# Velocity S-wave (km/s) = 1.43206 3.06535 2.39240
# Velocity P-wave (km/s) = 4.07116 5.62030 4.90724
#
# Compressibility (1/GPa) = 0.03264119
#
# Stress axis : x y z
#
# Youngs Moduli (GPa) = 66.15261 46.78103 57.60080
#
# Poissons Ratio (x) = 0.37363 0.51798
# Poissons Ratio (y) = 0.52835 -0.36710
# Poissons Ratio (z) = 0.59489 -0.29815
#
# Static dielectric constant tensor:
#      x y z
#    x 1.869190 0.000000 0.000000 
#    y 0.000000 1.926720 0.000000 
#    z 0.000000 0.000000 1.847810 
# 
# From -- ./inp_files/29691.got.cif
#   From: 2010.05.17/outbox.cif.g08.bks.cpg/sg23_15_cif.got.tgz:29691.got - 2010.06.04 12:02:01.
