data_PCOD9330460
_publ_section_title
;
Structure prediction by ZEFSAII (Michael W. Deem and Ramdas Pophale) SiO2 
 PCOD9330460
Probable space group: I 2 2 2
;
_chemical_formula_sum "Si O2"
_cell_formula_units_Z 32
_cell_length_a 7.225168
_cell_length_b 12.681278
_cell_length_c 13.449228
_cell_angle_alpha 90.000000
_cell_angle_beta 90.000000
_cell_angle_gamma 90.000000
_cell_volume 1232.276962
_symmetry_space_group_name_H-M "I 2 2 2"
_symmetry_group_IT_number 23
_symmetry_cell_setting 'orthorhombic'
loop_
_space_group_symop_operation_xyz
x,y,z
-x,-y,z
x,-y,-z
-x,y,-z
1/2+x,1/2+y,1/2+z
1/2-x,1/2-y,1/2+z
1/2+x,1/2-y,1/2-z
1/2-x,1/2+y,1/2-z
loop_
_atom_site_type_symbol
_atom_site_label
_atom_site_fract_x
_atom_site_fract_y
_atom_site_fract_z
Si Si1 0.167858 0.434137 0.856506
Si Si2 0.630960 0.614174 0.255903
Si Si3 0.786172 0.664948 0.667611
Si Si4 0.710084 0.291581 0.543783
O O1 0.314565 0.520473 0.818713
O O2 0.089764 0.389544 0.751348
O O3 0.239361 0.330245 0.916806
O O4 0.000000 0.500000 0.901899
O O5 0.420116 0.628815 0.297511
O O6 0.686536 0.713774 0.191438
O O7 0.731441 0.630112 0.362731
O O8 0.815612 0.660359 0.550845
O O9 0.500000 0.287851 0.500000
#
# Coordination Sequence:
#
# PCOD9330460 Si02
#       4
#     8   8   8   8
#     4  11  22  38  62  91 122 160 205 252 301 360
#     4  10  20  37  60  90 122 159 205 254 301 358
#     4  10  21  39  61  87 122 162 203 252 302 360
#     4   9  20  38  61  86 118 165 207 238 297 378
#
# _framework density 25.968187
#
# number of rings (size 3 to 8) (size 9 to 14) (size 15 to 20)
#    0.000    2.000    0.000    5.250    0.000    4.500 
#    0.000   16.250    0.000   21.000    0.000    0.000 
#    0.000    0.000    0.000    0.000    0.000    0.000 
#
# Total GULP energy -89151.716867 kJ/mol
# GULP energy per Si atom -5571.982304 kJ/mol
# Density = 2.590908 g / cm^3
# Si number density = 25.968187 Si / 1000 Ang^3
#
#
#
# Elastic Constant Matrix: (Units=GPa)
#
#
# Indices 1 2 3 4 5 6 
#
# 1 87.5123 25.9295 47.2348 0.0000 0.0000 0.0000
# 2 25.9295 61.7278 4.6295 0.0000 0.0000 0.0000
# 3 47.2348 4.6295 145.5218 0.0000 0.0000 0.0000
# 4 0.0000 0.0000 0.0000 -2.8347 0.0000 0.0000
# 5 0.0000 0.0000 0.0000 0.0000 -5.9268 0.0000
# 6 0.0000 0.0000 0.0000 0.0000 0.0000 42.3394
#
#
#
# Elastic Compliance Matrix: (Units=1/GPa)
#
#
# Indices 1 2 3 4 5 6 
#
# 1 0.016002 -0.006348 -0.004992 0.000000 0.000000 0.000000
# 2 -0.006348 0.018757 0.001464 0.000000 0.000000 0.000000
# 3 -0.004992 0.001464 0.008446 0.000000 0.000000 0.000000
# 4 0.000000 0.000000 0.000000 -0.352767 0.000000 0.000000
# 5 0.000000 0.000000 0.000000 0.000000 -0.168726 0.000000
# 6 0.000000 0.000000 0.000000 0.000000 0.000000 0.023619
#
#
# Mechanical properties :
#
#
# Convention : Reuss Voigt Hill
#
# Bulk Modulus (GPa) = 42.63951 50.03883 46.33917
# Shear Modulus (GPa) = -11.70685 21.18013 4.73664
#
# Velocity S-wave (km/s) = -2.12554 2.85900 1.35203
# Velocity P-wave (km/s) = 3.22980 5.49633 4.50784
#
# Compressibility (1/GPa) = 0.02345243
#
# Stress axis : x y z
#
# Youngs Moduli (GPa) = 62.49114 53.31419 118.40371
#
# Poissons Ratio (x) = 0.33841 0.59110
# Poissons Ratio (y) = 0.39666 -0.17330
# Poissons Ratio (z) = 0.31197 -0.07803
#
# Static dielectric constant tensor:
#      x y z
#    x 2.473170 0.000000 0.000000 
#    y 0.000000 2.285090 0.000000 
#    z 0.000000 0.000000 2.086230 
# 
# From -- ./inp_files/7921.got.cif
#   From: 2010.05.17/outbox.cif.g08.bks.cpg/sg23_4_cif.got.tgz:7921.got - 2010.06.04 12:02:01.
