data_PCOD9330632
_publ_section_title
;
Structure prediction by ZEFSAII (Michael W. Deem and Ramdas Pophale) SiO2 
 PCOD9330632
Probable space group: I 2 2 2
;
_chemical_formula_sum "Si O2"
_cell_formula_units_Z 48
_cell_length_a 8.400336
_cell_length_b 15.860625
_cell_length_c 16.798581
_cell_angle_alpha 90.000000
_cell_angle_beta 90.000000
_cell_angle_gamma 90.000000
_cell_volume 2238.151870
_symmetry_space_group_name_H-M "I 2 2 2"
_symmetry_group_IT_number 23
_symmetry_cell_setting 'orthorhombic'
loop_
_space_group_symop_operation_xyz
x,y,z
-x,-y,z
x,-y,-z
-x,y,-z
1/2+x,1/2+y,1/2+z
1/2-x,1/2-y,1/2+z
1/2+x,1/2-y,1/2-z
1/2-x,1/2+y,1/2-z
loop_
_atom_site_type_symbol
_atom_site_label
_atom_site_fract_x
_atom_site_fract_y
_atom_site_fract_z
Si Si1 0.271232 0.429734 0.806893
Si Si2 0.237836 0.937748 0.428295
Si Si3 0.845198 0.785220 0.209045
Si Si4 0.500000 0.299911 0.000000
Si Si5 0.521543 0.824449 0.405327
Si Si6 0.000000 0.500000 0.690430
Si Si7 0.019318 0.314544 0.349955
O O1 0.337163 0.501628 0.863194
O O2 0.385238 0.372590 0.753362
O O3 0.145150 0.472088 0.747202
O O4 0.179090 0.363278 0.865640
O O5 0.390151 0.896009 0.388473
O O6 0.129606 0.863335 0.462555
O O7 0.285952 0.000000 0.500000
O O8 0.964275 0.759123 0.139242
O O9 0.663969 0.792538 0.176863
O O10 0.870109 0.714624 0.276787
O O11 0.556255 0.238958 0.071175
O O12 0.500000 0.813418 0.500000
O O13 0.965487 0.415053 0.640860
#
# Coordination Sequence:
#
# PCOD9330632 Si02
#       7
#     8   8   8   4   8   4   8
#     4  11  21  38  66  95 131 177 225 265 328 413
#     4  12  22  37  58  94 136 171 210 272 340 396
#     4  11  22  41  64  94 137 176 221 268 338 400
#     4  12  27  39  60 100 138 162 218 295 351 374
#     4  12  22  38  64  97 132 175 225 272 324 406
#     4  10  20  39  69  86 122 180 230 258 319 413
#     4  11  24  43  65  96 131 178 226 279 335 402
#
# _framework density 21.446266999999999
#
# number of rings (size 3 to 8) (size 9 to 14) (size 15 to 20)
#    0.000    0.667    8.333    1.250    0.000    0.333 
#    0.000    0.000    0.000    0.000    0.000    0.000 
#    0.000    0.000    0.000    0.000    0.000    0.000 
#
# Total GULP energy -134138.990580 kJ/mol
# GULP energy per Si atom -5589.124607 kJ/mol
# Density = 2.139745 g / cm^3
# Si number density = 21.446267 Si / 1000 Ang^3
#
#
#
# Elastic Constant Matrix: (Units=GPa)
#
#
# Indices 1 2 3 4 5 6 
#
# 1 42.9498 27.2375 19.4091 0.0000 0.0000 0.0000
# 2 27.2375 142.5822 69.1107 0.0000 0.0000 0.0000
# 3 19.4091 69.1107 117.1165 0.0000 0.0000 0.0000
# 4 0.0000 0.0000 0.0000 57.4112 0.0000 0.0000
# 5 0.0000 0.0000 0.0000 0.0000 25.0168 0.0000
# 6 0.0000 0.0000 0.0000 0.0000 0.0000 10.2414
#
#
#
# Elastic Compliance Matrix: (Units=1/GPa)
#
#
# Indices 1 2 3 4 5 6 
#
# 1 0.026820 -0.004158 -0.001991 0.000000 0.000000 0.000000
# 2 -0.004158 0.010468 -0.005488 0.000000 0.000000 0.000000
# 3 -0.001991 -0.005488 0.012107 0.000000 0.000000 0.000000
# 4 0.000000 0.000000 0.000000 0.017418 0.000000 0.000000
# 5 0.000000 0.000000 0.000000 0.000000 0.039973 0.000000
# 6 0.000000 0.000000 0.000000 0.000000 0.000000 0.097643
#
#
# Mechanical properties :
#
#
# Convention : Reuss Voigt Hill
#
# Bulk Modulus (GPa) = 38.28459 59.35148 48.81803
# Shear Modulus (GPa) = 21.14968 30.99329 26.07148
#
# Velocity S-wave (km/s) = 3.14374 3.80565 3.49042
# Velocity P-wave (km/s) = 5.57384 6.85895 6.24951
#
# Compressibility (1/GPa) = 0.02612017
#
# Stress axis : x y z
#
# Youngs Moduli (GPa) = 37.28591 95.52952 82.59734
#
# Poissons Ratio (x) = 0.39725 0.16444
# Poissons Ratio (y) = 0.15505 0.45330
# Poissons Ratio (z) = 0.07423 0.52427
#
# Static dielectric constant tensor:
#      x y z
#    x 1.828560 0.000000 0.000000 
#    y 0.000000 1.804400 0.000000 
#    z 0.000000 0.000000 1.843400 
# 
# From -- ./inp_files/23758.got.cif
#   From: 2010.05.17/outbox.cif.g08.bks.cpg/sg23_12_cif.got.tgz:23758.got - 2010.06.04 12:02:01.
