data_PCOD9330034
_publ_section_title
;
Structure prediction by ZEFSAII (Michael W. Deem and Ramdas Pophale) SiO2 
 PCOD9330034
Probable space group: I 2 2 2
;
_chemical_formula_sum "Si O2"
_cell_formula_units_Z 40
_cell_length_a 15.081762
_cell_length_b 14.174595
_cell_length_c 9.551018
_cell_angle_alpha 90.000000
_cell_angle_beta 90.000000
_cell_angle_gamma 90.000000
_cell_volume 2041.796268
_symmetry_space_group_name_H-M "I 2 2 2"
_symmetry_group_IT_number 23
_symmetry_cell_setting 'orthorhombic'
loop_
_space_group_symop_operation_xyz
x,y,z
-x,-y,z
x,-y,-z
-x,y,-z
1/2+x,1/2+y,1/2+z
1/2-x,1/2-y,1/2+z
1/2+x,1/2-y,1/2-z
1/2-x,1/2+y,1/2-z
loop_
_atom_site_type_symbol
_atom_site_label
_atom_site_fract_x
_atom_site_fract_y
_atom_site_fract_z
Si Si1 0.309992 0.283832 0.903391
Si Si2 0.000000 0.748393 0.000000
Si Si3 0.055266 0.087897 0.796182
Si Si4 0.170026 0.660070 0.862828
Si Si5 0.500000 0.665602 0.000000
Si Si6 0.287409 0.492487 0.842408
O O1 0.309955 0.202610 0.789118
O O2 0.406885 0.281761 0.975299
O O3 0.292109 0.381512 0.816792
O O4 0.237381 0.291373 0.025720
O O5 0.952272 0.819586 0.890763
O O6 0.072373 0.686772 0.916791
O O7 0.012906 0.110153 0.644583
O O8 0.153223 0.050386 0.765335
O O9 0.000000 0.000000 0.853599
O O10 0.195447 0.549251 0.856364
O O11 0.327997 0.500000 0.000000
#
# Coordination Sequence:
#
# PCOD9330034 Si02
#       6
#     8   4   8   8   4   8
#     4  11  23  39  64  92 116 154 197 246 304 353
#     4  12  25  36  53  88 130 158 196 244 294 342
#     4  12  19  34  59  88 118 148 191 251 308 356
#     4  11  23  39  57  88 124 156 197 243 291 355
#     4  12  19  36  62  86 115 150 194 249 304 358
#     4  10  19  36  61  86 113 153 195 240 291 355
#
# _framework density 19.590592000000001
#
# number of rings (size 3 to 8) (size 9 to 14) (size 15 to 20)
#    0.000    0.800    8.000    1.800    0.000    0.000 
#    0.000    7.500    0.000    0.000    0.000    1.400 
#    0.000    0.000    0.000    0.000    0.000    0.000 
#
# Total GULP energy -111545.237441 kJ/mol
# GULP energy per Si atom -5577.261872 kJ/mol
# Density = 1.954600 g / cm^3
# Si number density = 19.590592 Si / 1000 Ang^3
#
#
#
# Elastic Constant Matrix: (Units=GPa)
#
#
# Indices 1 2 3 4 5 6 
#
# 1 84.7055 26.2930 5.9813 0.0000 0.0000 0.0000
# 2 26.2930 61.6920 7.6371 0.0000 0.0000 0.0000
# 3 5.9813 7.6371 66.3751 0.0000 0.0000 0.0000
# 4 0.0000 0.0000 0.0000 31.9696 0.0000 0.0000
# 5 0.0000 0.0000 0.0000 0.0000 23.0399 0.0000
# 6 0.0000 0.0000 0.0000 0.0000 0.0000 18.1847
#
#
#
# Elastic Compliance Matrix: (Units=1/GPa)
#
#
# Indices 1 2 3 4 5 6 
#
# 1 0.013627 -0.005737 -0.000568 0.000000 0.000000 0.000000
# 2 -0.005737 0.018859 -0.001653 0.000000 0.000000 0.000000
# 3 -0.000568 -0.001653 0.015307 0.000000 0.000000 0.000000
# 4 0.000000 0.000000 0.000000 0.031280 0.000000 0.000000
# 5 0.000000 0.000000 0.000000 0.000000 0.043403 0.000000
# 6 0.000000 0.000000 0.000000 0.000000 0.000000 0.054991
#
#
# Mechanical properties :
#
#
# Convention : Reuss Voigt Hill
#
# Bulk Modulus (GPa) = 31.37051 32.51061 31.94056
# Shear Modulus (GPa) = 24.50871 26.16293 25.33582
#
# Velocity S-wave (km/s) = 3.54085 3.65839 3.60010
# Velocity P-wave (km/s) = 5.72404 5.87164 5.79831
#
# Compressibility (1/GPa) = 0.03187708
#
# Stress axis : x y z
#
# Youngs Moduli (GPa) = 73.38592 53.02391 65.32856
#
# Poissons Ratio (x) = 0.30422 0.03709
# Poissons Ratio (y) = 0.42104 0.10798
# Poissons Ratio (z) = 0.04167 0.08765
#
# Static dielectric constant tensor:
#      x y z
#    x 1.725140 0.000000 0.000000 
#    y 0.000000 1.705130 0.000000 
#    z 0.000000 0.000000 1.695360 
# 
# From -- ./inp_files/9608.got.cif
#   From: 2010.05.17/outbox.cif.g08.bks.cpg/sg23_5_cif.got.tgz:9608.got - 2010.06.04 12:02:01.
