data_PCOD9330104
_publ_section_title
;
Structure prediction by ZEFSAII (Michael W. Deem and Ramdas Pophale) SiO2 
 PCOD9330104
Probable space group: I 2 2 2
;
_chemical_formula_sum "Si O2"
_cell_formula_units_Z 54
_cell_length_a 36.417799
_cell_length_b 15.153350
_cell_length_c 5.211400
_cell_angle_alpha 90.000000
_cell_angle_beta 90.000000
_cell_angle_gamma 90.000000
_cell_volume 2875.919712
_symmetry_space_group_name_H-M "I 2 2 2"
_symmetry_group_IT_number 23
_symmetry_cell_setting 'orthorhombic'
loop_
_space_group_symop_operation_xyz
x,y,z
-x,-y,z
x,-y,-z
-x,y,-z
1/2+x,1/2+y,1/2+z
1/2-x,1/2-y,1/2+z
1/2+x,1/2-y,1/2-z
1/2-x,1/2+y,1/2-z
loop_
_atom_site_type_symbol
_atom_site_label
_atom_site_fract_x
_atom_site_fract_y
_atom_site_fract_z
Si Si1 0.347251 0.682713 0.821621
Si Si2 0.630021 0.500000 0.000000
Si Si3 0.936382 0.080637 0.808302
Si Si4 0.708591 0.942050 0.754109
Si Si5 0.608705 0.255843 0.323749
Si Si6 0.624278 0.939009 0.752185
Si Si7 0.000000 0.000000 0.500000
Si Si8 0.762053 0.789315 0.594161
O O1 0.348774 0.575794 0.846208
O O2 0.363150 0.719199 0.553902
O O3 0.305414 0.709242 0.865736
O O4 0.372788 0.719563 0.050538
O O5 0.602117 0.550429 0.814208
O O6 0.926699 0.181164 0.880211
O O7 0.971576 0.068245 0.631087
O O8 0.943767 0.000000 0.000000
O O9 0.666840 0.907495 0.791474
O O10 0.739848 0.871115 0.709556
O O11 0.707032 0.000000 0.500000
O O12 0.717302 0.000000 0.000000
O O13 0.602093 0.150975 0.302228
O O14 0.622693 0.000000 0.500000
O O15 0.614926 0.000000 0.000000
O O16 0.752790 0.785034 0.292202
#
# Coordination Sequence:
#
# PCOD9330104 Si02
#       8
#     8   4   8   8   8   8   2   8
#     4  11  22  36  57  80 114 157 200 253 317 373
#     4   9  20  35  54  84 118 158 200 246 296 364
#     4  10  19  38  59  92 131 160 198 234 292 360
#     4  10  21  36  52  72 100 139 188 250 305 358
#     4  11  22  38  62  88 119 159 200 253 305 367
#     4  10  20  36  57  81 111 148 198 256 311 347
#     4  10  22  36  64  94 138 172 186 236 278 368
#     4  12  24  38  53  76 107 147 201 255 311 377
#
# _framework density 18.776600999999999
#
# number of rings (size 3 to 8) (size 9 to 14) (size 15 to 20)
#    0.000    1.481    1.481    4.667    1.037    2.370 
#    2.667    0.000    0.000    0.000    0.000    0.519 
#    0.000    0.000    0.000    0.000    0.000    0.000 
#
# Total GULP energy -150415.478274 kJ/mol
# GULP energy per Si atom -5570.943640 kJ/mol
# Density = 1.873386 g / cm^3
# Si number density = 18.776601 Si / 1000 Ang^3
#
#
#
# Elastic Constant Matrix: (Units=GPa)
#
#
# Indices 1 2 3 4 5 6 
#
# 1 66.7880 24.7754 0.4533 0.0005 0.0006 -0.0003
# 2 24.7754 115.4952 26.1766 -0.0001 -0.0007 0.0001
# 3 0.4533 26.1766 76.6057 0.0083 0.0115 -0.0034
# 4 0.0005 -0.0001 0.0083 20.4601 0.0068 -0.0015
# 5 0.0006 -0.0007 0.0115 0.0068 58.0129 -0.0034
# 6 -0.0003 0.0001 -0.0034 -0.0015 -0.0034 13.8750
#
#
#
# Elastic Compliance Matrix: (Units=1/GPa)
#
#
# Indices 1 2 3 4 5 6 
#
# 1 0.016368 -0.003782 0.001195 -0.000001 0.000000 0.000001
# 2 -0.003782 0.010259 -0.003483 0.000002 0.000001 -0.000001
# 3 0.001195 -0.003483 0.014237 -0.000006 -0.000003 0.000004
# 4 -0.000001 0.000002 -0.000006 0.048876 -0.000006 0.000005
# 5 0.000000 0.000001 -0.000003 -0.000006 0.017238 0.000004
# 6 0.000001 -0.000001 0.000004 0.000005 0.000004 0.072072
#
#
# Mechanical properties :
#
#
# Convention : Reuss Voigt Hill
#
# Bulk Modulus (GPa) = 34.81386 40.18885 37.50135
# Shear Modulus (GPa) = 24.90491 32.30181 28.60336
#
# Velocity S-wave (km/s) = 3.64590 4.15218 3.90725
# Velocity P-wave (km/s) = 6.02535 6.66615 6.35383
#
# Compressibility (1/GPa) = 0.02872419
#
# Stress axis : x y z
#
# Youngs Moduli (GPa) = 61.09626 97.47410 70.23945
#
# Poissons Ratio (x) = 0.36865 -0.08397
# Poissons Ratio (y) = 0.23107 0.24466
# Poissons Ratio (z) = -0.07304 0.33952
#
# Static dielectric constant tensor:
#      x y z
#    x 1.649000 0.000010 0.000000 
#    y 0.000010 1.790870 0.000000 
#    z 0.000000 0.000000 1.669910 
# 
# From -- ./inp_files/5386.got.cif
#   From: 2010.05.17/outbox.cif.g08.bks.cpg/sg23_3_cif.got.tgz:5386.got - 2010.06.04 12:02:01.
