data_PCOD9330229
_publ_section_title
;
Structure prediction by ZEFSAII (Michael W. Deem and Ramdas Pophale) SiO2 
 PCOD9330229
Probable space group: I 2 2 2
;
_chemical_formula_sum "Si O2"
_cell_formula_units_Z 58
_cell_length_a 11.253658
_cell_length_b 28.600000
_cell_length_c 9.210770
_cell_angle_alpha 90.000000
_cell_angle_beta 90.000000
_cell_angle_gamma 90.000000
_cell_volume 2964.528867
_symmetry_space_group_name_H-M "I 2 2 2"
_symmetry_group_IT_number 23
_symmetry_cell_setting 'orthorhombic'
loop_
_space_group_symop_operation_xyz
x,y,z
-x,-y,z
x,-y,-z
-x,y,-z
1/2+x,1/2+y,1/2+z
1/2-x,1/2-y,1/2+z
1/2+x,1/2-y,1/2-z
1/2-x,1/2+y,1/2-z
loop_
_atom_site_type_symbol
_atom_site_label
_atom_site_fract_x
_atom_site_fract_y
_atom_site_fract_z
Si Si1 0.225177 0.769106 0.739875
Si Si2 0.368329 0.705054 0.941736
Si Si3 0.083544 0.680286 0.713233
Si Si4 0.734347 0.882555 0.591264
Si Si5 0.133291 0.539331 0.758829
Si Si6 0.500000 0.000000 0.000000
Si Si7 0.829438 0.350003 0.396658
Si Si8 0.867819 0.567506 0.810235
O O1 0.329291 0.736310 0.805177
O O2 0.225263 0.782617 0.570715
O O3 0.113895 0.733844 0.745169
O O4 0.225861 0.816823 0.832783
O O5 0.349108 0.650222 0.913004
O O6 0.500000 0.714594 0.000000
O O7 0.132436 0.651722 0.848573
O O8 0.151840 0.660807 0.567550
O O9 0.947718 0.670542 0.680205
O O10 0.736146 0.924839 0.706008
O O11 0.695041 0.904910 0.439639
O O12 0.166823 0.487220 0.808952
O O13 0.084785 0.531562 0.597627
O O14 0.011271 0.561043 0.827908
O O15 0.832854 0.403051 0.335091
#
# Coordination Sequence:
#
# PCOD9330229 Si02
#       8
#     8   8   8   8   8   2   8   8
#     4  11  21  39  60  84 118 165 199 251 316 349
#     4  11  24  43  62  90 124 162 213 260 306 374
#     4  10  23  33  54  81 116 153 198 244 289 374
#     4  11  21  35  56  82 115 158 197 248 309 356
#     4  10  21  33  54  86 127 156 205 245 315 372
#     4   8  20  32  50  88 128 174 182 248 312 384
#     4  11  20  36  56  80 116 158 198 239 302 368
#     4  10  20  33  55  84 122 158 193 256 304 371
#
# _framework density 19.564661000000001
#
# number of rings (size 3 to 8) (size 9 to 14) (size 15 to 20)
#    0.000    1.655    4.138    1.655    3.862    2.207 
#    0.000    2.069    0.000    1.655    0.000    0.000 
#    0.000    4.414    0.000    0.000    0.000    0.000 
#
# Total GULP energy -161545.019618 kJ/mol
# GULP energy per Si atom -5570.517918 kJ/mol
# Density = 1.952013 g / cm^3
# Si number density = 19.564661 Si / 1000 Ang^3
#
#
#
# Elastic Constant Matrix: (Units=GPa)
#
#
# Indices 1 2 3 4 5 6 
#
# 1 43.7650 22.5890 24.1402 0.0000 0.0008 0.0003
# 2 22.5890 129.7227 23.0354 0.0003 0.0002 0.0001
# 3 24.1402 23.0354 83.9275 -0.0010 0.0028 0.0013
# 4 0.0000 0.0003 -0.0010 35.8251 0.0004 0.0002
# 5 0.0008 0.0002 0.0028 0.0004 17.1911 -0.0011
# 6 0.0003 0.0001 0.0013 0.0002 -0.0011 35.3283
#
#
#
# Elastic Compliance Matrix: (Units=1/GPa)
#
#
# Indices 1 2 3 4 5 6 
#
# 1 0.028772 -0.003722 -0.007254 0.000000 0.000000 0.000000
# 2 -0.003722 0.008585 -0.001286 0.000000 0.000000 0.000000
# 3 -0.007254 -0.001286 0.014354 0.000000 -0.000002 0.000000
# 4 0.000000 0.000000 0.000000 0.027913 -0.000001 0.000000
# 5 0.000000 0.000000 -0.000002 -0.000001 0.058169 0.000002
# 6 0.000000 0.000000 0.000000 0.000000 0.000002 0.028306
#
#
# Mechanical properties :
#
#
# Convention : Reuss Voigt Hill
#
# Bulk Modulus (GPa) = 36.78145 44.10494 40.44319
# Shear Modulus (GPa) = 25.03928 30.17895 27.60911
#
# Velocity S-wave (km/s) = 3.58134 3.93176 3.76063
# Velocity P-wave (km/s) = 5.99517 6.57295 6.29070
#
# Compressibility (1/GPa) = 0.02718762
#
# Stress axis : x y z
#
# Youngs Moduli (GPa) = 34.75646 116.47958 69.66480
#
# Poissons Ratio (x) = 0.43353 0.50535
# Poissons Ratio (y) = 0.12936 0.08958
# Poissons Ratio (z) = 0.25213 0.14977
#
# Static dielectric constant tensor:
#      x y z
#    x 1.670770 0.000000 0.000000 
#    y 0.000000 1.771210 0.000000 
#    z 0.000000 0.000000 1.757930 
# 
# From -- ./inp_files/8914.got.cif
#   From: 2010.05.17/outbox.cif.g08.bks.cpg/sg23_5_cif.got.tgz:8914.got - 2010.06.04 12:02:01.
