data_PCOD9330308
_publ_section_title
;
Structure prediction by ZEFSAII (Michael W. Deem and Ramdas Pophale) SiO2 
 PCOD9330308
Probable space group: I 2 2 2
;
_chemical_formula_sum "Si O2"
_cell_formula_units_Z 64
_cell_length_a 8.833909
_cell_length_b 26.004048
_cell_length_c 16.056923
_cell_angle_alpha 90.000000
_cell_angle_beta 90.000000
_cell_angle_gamma 90.000000
_cell_volume 3688.554502
_symmetry_space_group_name_H-M "I 2 2 2"
_symmetry_group_IT_number 23
_symmetry_cell_setting 'orthorhombic'
loop_
_space_group_symop_operation_xyz
x,y,z
-x,-y,z
x,-y,-z
-x,y,-z
1/2+x,1/2+y,1/2+z
1/2-x,1/2-y,1/2+z
1/2+x,1/2-y,1/2-z
1/2-x,1/2+y,1/2-z
loop_
_atom_site_type_symbol
_atom_site_label
_atom_site_fract_x
_atom_site_fract_y
_atom_site_fract_z
Si Si1 0.677488 0.515699 0.407138
Si Si2 0.171338 0.358527 0.816973
Si Si3 0.902159 0.394123 0.585533
Si Si4 0.915470 0.705033 0.084861
Si Si5 0.893628 0.455267 0.282556
Si Si6 0.712307 0.234060 0.793677
Si Si7 0.836032 0.822882 0.471372
Si Si8 0.124219 0.724504 0.635875
O O1 0.500000 0.500000 0.400709
O O2 0.727477 0.500000 0.500000
O O3 0.742916 0.574361 0.406557
O O4 0.764199 0.482937 0.336887
O O5 0.153381 0.416273 0.788630
O O6 0.222223 0.324387 0.738112
O O7 0.289783 0.354259 0.890800
O O8 0.024969 0.328576 0.855926
O O9 0.880069 0.334067 0.605983
O O10 0.000000 0.398940 0.500000
O O11 0.007495 0.420908 0.654264
O O12 0.835006 0.749443 0.137780
O O13 0.781183 0.670979 0.046241
O O14 0.000000 0.722695 0.000000
O O15 0.000000 0.500000 0.248451
O O16 0.755416 0.266545 0.710605
O O17 0.542249 0.240643 0.828910
O O18 0.836642 0.763467 0.439009
O O19 0.000000 0.836682 0.500000
#
# Coordination Sequence:
#
# PCOD9330308 Si02
#       8
#     8   8   8   8   8   8   8   8
#     4  10  21  39  57  81 119 146 188 243 296 337
#     4  10  21  37  56  83 113 149 196 239 285 343
#     4  11  20  35  58  83 110 157 200 232 277 346
#     4  10  20  35  53  75 113 154 194 233 285 334
#     4  10  20  37  62  83 108 148 194 235 287 346
#     4  11  19  35  52  78 118 153 189 236 278 336
#     4  10  20  35  56  82 114 157 187 234 288 349
#     4  11  22  34  55  83 122 156 196 232 281 342
#
# _framework density 17.35097
#
# number of rings (size 3 to 8) (size 9 to 14) (size 15 to 20)
#    0.000    1.625    5.000    0.375    0.000    0.000 
#    4.500    1.250    5.500    3.375    0.000    0.875 
#    0.000    0.000    0.000    0.000    0.000    0.000 
#
# Total GULP energy -178292.831214 kJ/mol
# GULP energy per Si atom -5571.650975 kJ/mol
# Density = 1.731148 g / cm^3
# Si number density = 17.350970 Si / 1000 Ang^3
#
#
#
# Elastic Constant Matrix: (Units=GPa)
#
#
# Indices 1 2 3 4 5 6 
#
# 1 95.8740 44.5380 35.4482 0.0000 0.0000 0.0000
# 2 44.5380 121.7790 45.2175 0.0000 0.0000 0.0000
# 3 35.4482 45.2175 56.8454 0.0001 0.0000 0.0000
# 4 0.0000 0.0000 0.0001 13.1461 0.0000 0.0000
# 5 0.0000 0.0000 0.0000 0.0000 28.6802 0.0000
# 6 0.0000 0.0000 0.0000 0.0000 0.0000 16.0816
#
#
#
# Elastic Compliance Matrix: (Units=1/GPa)
#
#
# Indices 1 2 3 4 5 6 
#
# 1 0.014153 -0.002695 -0.006682 0.000000 0.000000 0.000000
# 2 -0.002695 0.012167 -0.007997 0.000000 0.000000 0.000000
# 3 -0.006682 -0.007997 0.028120 0.000000 0.000000 0.000000
# 4 0.000000 0.000000 0.000000 0.076068 0.000000 0.000000
# 5 0.000000 0.000000 0.000000 0.000000 0.034867 0.000000
# 6 0.000000 0.000000 0.000000 0.000000 0.000000 0.062183
#
#
# Mechanical properties :
#
#
# Convention : Reuss Voigt Hill
#
# Bulk Modulus (GPa) = 50.78493 58.32286 54.55390
# Shear Modulus (GPa) = 18.59637 21.53458 20.06547
#
# Velocity S-wave (km/s) = 3.27735 3.52677 3.40435
# Velocity P-wave (km/s) = 6.60713 7.09018 6.85291
#
# Compressibility (1/GPa) = 0.01969088
#
# Stress axis : x y z
#
# Youngs Moduli (GPa) = 70.65715 82.19123 35.56222
#
# Poissons Ratio (x) = 0.22151 0.23762
# Poissons Ratio (y) = 0.19043 0.28440
# Poissons Ratio (z) = 0.47211 0.65731
#
# Static dielectric constant tensor:
#      x y z
#    x 1.630980 0.000000 0.000000 
#    y 0.000000 1.573390 0.000000 
#    z 0.000000 0.000000 1.600160 
# 
# From -- ./inp_files/24030.got.cif
#   From: 2010.05.17/outbox.cif.g08.bks.cpg/sg23_13_cif.got.tgz:24030.got - 2010.06.04 12:02:01.
