data_PCOD9330943
_publ_section_title
;
Structure prediction by ZEFSAII (Michael W. Deem and Ramdas Pophale) SiO2 
 PCOD9330943
Probable space group: I 2 2 2
;
_chemical_formula_sum "Si O2"
_cell_formula_units_Z 26
_cell_length_a 5.107397
_cell_length_b 28.558930
_cell_length_c 9.236682
_cell_angle_alpha 90.000000
_cell_angle_beta 90.000000
_cell_angle_gamma 90.000000
_cell_volume 1347.279002
_symmetry_space_group_name_H-M "I 2 2 2"
_symmetry_group_IT_number 23
_symmetry_cell_setting 'orthorhombic'
loop_
_space_group_symop_operation_xyz
x,y,z
-x,-y,z
x,-y,-z
-x,y,-z
1/2+x,1/2+y,1/2+z
1/2-x,1/2-y,1/2+z
1/2+x,1/2-y,1/2-z
1/2-x,1/2+y,1/2-z
loop_
_atom_site_type_symbol
_atom_site_label
_atom_site_fract_x
_atom_site_fract_y
_atom_site_fract_z
Si Si1 0.746117 0.530249 0.723154
Si Si2 0.055093 0.229913 0.173881
Si Si3 0.500000 0.500000 0.000000
Si Si4 0.248973 0.632489 0.400742
O O1 0.500000 0.500000 0.662957
O O2 0.679292 0.530244 0.893994
O O3 0.792267 0.582991 0.675326
O O4 0.000000 0.500000 0.692183
O O5 0.284712 0.262680 0.238894
O O6 0.171746 0.177530 0.192998
O O7 0.000000 0.236180 0.000000
O O8 0.500000 0.624308 0.500000
O O9 0.000000 0.644535 0.500000
#
# Coordination Sequence:
#
# PCOD9330943 Si02
#       4
#     8   8   2   8
#     4  10  21  38  60  87 124 166 201 256 307 368
#     4  11  23  44  67  96 132 172 217 275 332 387
#     4   8  22  40  56  80 134 160 198 266 298 360
#     4  11  23  40  64  92 128 164 209 263 318 377
#
# _framework density 19.298157
#
# number of rings (size 3 to 8) (size 9 to 14) (size 15 to 20)
#    0.923    0.615    0.000    6.923    0.000    3.692 
#    5.538    0.000    0.000    0.000    0.000    0.000 
#    0.000    0.000    0.000    0.000    0.000    0.000 
#
# Total GULP energy -72458.399994 kJ/mol
# GULP energy per Si atom -5573.723076 kJ/mol
# Density = 1.925423 g / cm^3
# Si number density = 19.298157 Si / 1000 Ang^3
#
#
#
# Elastic Constant Matrix: (Units=GPa)
#
#
# Indices 1 2 3 4 5 6 
#
# 1 153.1073 38.1078 34.7407 0.0000 0.0000 0.0000
# 2 38.1078 132.8753 38.7785 0.0000 0.0000 0.0000
# 3 34.7407 38.7785 68.0999 -0.0001 0.0000 0.0000
# 4 0.0000 0.0000 -0.0001 57.5323 0.0000 0.0000
# 5 0.0000 0.0000 0.0000 0.0000 -88.9715 0.0000
# 6 0.0000 0.0000 0.0000 0.0000 0.0000 54.5025
#
#
#
# Elastic Compliance Matrix: (Units=1/GPa)
#
#
# Indices 1 2 3 4 5 6 
#
# 1 0.007556 -0.001250 -0.003143 0.000000 0.000000 0.000000
# 2 -0.001250 0.009232 -0.004620 0.000000 0.000000 0.000000
# 3 -0.003143 -0.004620 0.018918 0.000000 0.000000 0.000000
# 4 0.000000 0.000000 0.000000 0.017382 0.000000 0.000000
# 5 0.000000 0.000000 0.000000 0.000000 -0.011240 0.000000
# 6 0.000000 0.000000 0.000000 0.000000 0.000000 0.018348
#
#
# Mechanical properties :
#
#
# Convention : Reuss Voigt Hill
#
# Bulk Modulus (GPa) = 56.55550 64.14850 60.35200
# Shear Modulus (GPa) = 59.44280 20.77635 40.10957
#
# Velocity S-wave (km/s) = 5.55600 3.28471 4.56391
# Velocity P-wave (km/s) = 8.39814 6.90642 7.68854
#
# Compressibility (1/GPa) = 0.01768175
#
# Stress axis : x y z
#
# Youngs Moduli (GPa) = 132.35359 108.31306 52.85903
#
# Poissons Ratio (x) = 0.13536 0.16612
# Poissons Ratio (y) = 0.16540 0.24420
# Poissons Ratio (z) = 0.41596 0.50038
#
# Static dielectric constant tensor:
#      x y z
#    x 1.665420 0.000000 0.000000 
#    y 0.000000 1.701020 0.000000 
#    z 0.000000 0.000000 1.693770 
# 
# From -- ./inp_files/4671.got.cif
#   From: 2010.05.17/outbox.cif.g08.bks.cpg/sg23_3_cif.got.tgz:4671.got - 2010.06.04 12:02:01.
