data_PCOD9330898
_publ_section_title
;
Structure prediction by ZEFSAII (Michael W. Deem and Ramdas Pophale) SiO2 
 PCOD9330898
Probable space group: I 2 2 2
;
_chemical_formula_sum "Si O2"
_cell_formula_units_Z 56
_cell_length_a 22.998235
_cell_length_b 12.980076
_cell_length_c 8.918554
_cell_angle_alpha 90.000000
_cell_angle_beta 90.000000
_cell_angle_gamma 90.000000
_cell_volume 2662.356378
_symmetry_space_group_name_H-M "I 2 2 2"
_symmetry_group_IT_number 23
_symmetry_cell_setting 'orthorhombic'
loop_
_space_group_symop_operation_xyz
x,y,z
-x,-y,z
x,-y,-z
-x,y,-z
1/2+x,1/2+y,1/2+z
1/2-x,1/2-y,1/2+z
1/2+x,1/2-y,1/2-z
1/2-x,1/2+y,1/2-z
loop_
_atom_site_type_symbol
_atom_site_label
_atom_site_fract_x
_atom_site_fract_y
_atom_site_fract_z
Si Si1 0.122210 0.261273 0.291842
Si Si2 0.352251 0.858404 0.739099
Si Si3 0.652421 0.325168 0.518384
Si Si4 0.283037 0.880928 0.012164
Si Si5 0.054528 0.762507 0.429052
Si Si6 0.467533 0.391300 0.358426
Si Si7 0.564070 0.034421 0.325925
O O1 0.141200 0.187853 0.157521
O O2 0.176272 0.319650 0.371580
O O3 0.090899 0.200132 0.427134
O O4 0.078927 0.348200 0.220216
O O5 0.348621 0.790012 0.590213
O O6 0.295685 0.843572 0.841763
O O7 0.403328 0.809594 0.837928
O O8 0.377316 0.972100 0.718825
O O9 0.715576 0.370623 0.550413
O O10 0.600063 0.389092 0.593542
O O11 0.300204 0.000000 0.000000
O O12 0.030981 0.841297 0.305376
O O13 0.000000 0.705027 0.500000
O O14 0.500000 0.500000 0.348541
O O15 0.500000 0.335192 0.500000
O O16 0.500000 0.000000 0.264245
O O17 0.560191 0.000000 0.500000
#
# Coordination Sequence:
#
# PCOD9330898 Si02
#       7
#     8   8   8   8   8   8   8
#     4  11  22  40  64  97 130 170 216 274 338 396
#     4  10  21  40  59  93 128 164 216 267 322 398
#     4  11  23  41  67  90 128 171 225 266 329 404
#     4  11  23  39  64  91 126 170 217 277 335 392
#     4  10  21  37  60  92 128 165 207 261 325 394
#     4  10  23  42  66  92 124 169 221 270 325 389
#     4  11  21  35  62  96 133 166 208 266 331 398
#
# _framework density 21.033999000000001
#
# number of rings (size 3 to 8) (size 9 to 14) (size 15 to 20)
#    0.000    1.429    2.857    2.571    2.000    1.429 
#    0.000    2.857    0.000    0.000    0.000    0.000 
#    0.000    0.000    0.000    0.000    0.000    0.000 
#
# Total GULP energy -156078.159641 kJ/mol
# GULP energy per Si atom -5574.219987 kJ/mol
# Density = 2.098612 g / cm^3
# Si number density = 21.033999 Si / 1000 Ang^3
#
#
#
# Elastic Constant Matrix: (Units=GPa)
#
#
# Indices 1 2 3 4 5 6 
#
# 1 124.8161 7.6310 26.7683 0.0000 0.0000 0.0000
# 2 7.6310 45.0153 22.1434 0.0000 0.0000 0.0000
# 3 26.7683 22.1434 127.6622 0.0000 0.0000 0.0000
# 4 0.0000 0.0000 0.0000 7.4346 0.0000 0.0000
# 5 0.0000 0.0000 0.0000 0.0000 21.4274 0.0000
# 6 0.0000 0.0000 0.0000 0.0000 0.0000 14.4894
#
#
#
# Elastic Compliance Matrix: (Units=1/GPa)
#
#
# Indices 1 2 3 4 5 6 
#
# 1 0.008404 -0.000610 -0.001656 0.000000 0.000000 0.000000
# 2 -0.000610 0.024331 -0.004092 0.000000 0.000000 0.000000
# 3 -0.001656 -0.004092 0.008890 0.000000 0.000000 0.000000
# 4 0.000000 0.000000 0.000000 0.134507 0.000000 0.000000
# 5 0.000000 0.000000 0.000000 0.000000 0.046669 0.000000
# 6 0.000000 0.000000 0.000000 0.000000 0.000000 0.069016
#
#
# Mechanical properties :
#
#
# Convention : Reuss Voigt Hill
#
# Bulk Modulus (GPa) = 34.59216 45.61991 40.10603
# Shear Modulus (GPa) = 15.91489 24.73367 20.32428
#
# Velocity S-wave (km/s) = 2.75367 3.43285 3.11184
# Velocity P-wave (km/s) = 5.15672 6.11950 5.65863
#
# Compressibility (1/GPa) = 0.02890828
#
# Stress axis : x y z
#
# Youngs Moduli (GPa) = 118.98645 41.09958 112.48161
#
# Poissons Ratio (x) = 0.02507 0.18632
# Poissons Ratio (y) = 0.07257 0.46032
# Poissons Ratio (z) = 0.19709 0.16820
#
# Static dielectric constant tensor:
#      x y z
#    x 1.790230 0.000000 0.000000 
#    y 0.000000 1.789620 0.000000 
#    z 0.000000 0.000000 1.886400 
# 
# From -- ./inp_files/12054.got.cif
#   From: 2010.05.17/outbox.cif.g08.bks.cpg/sg23_7_cif.got.tgz:12054.got - 2010.06.04 12:02:01.
