data_PCOD9330352
_publ_section_title
;
Structure prediction by ZEFSAII (Michael W. Deem and Ramdas Pophale) SiO2 
 PCOD9330352
Probable space group: I 2 2 2
;
_chemical_formula_sum "Si O2"
_cell_formula_units_Z 48
_cell_length_a 8.830921
_cell_length_b 18.349335
_cell_length_c 13.664800
_cell_angle_alpha 90.000000
_cell_angle_beta 90.000000
_cell_angle_gamma 90.000000
_cell_volume 2214.265069
_symmetry_space_group_name_H-M "I 2 2 2"
_symmetry_group_IT_number 23
_symmetry_cell_setting 'orthorhombic'
loop_
_space_group_symop_operation_xyz
x,y,z
-x,-y,z
x,-y,-z
-x,y,-z
1/2+x,1/2+y,1/2+z
1/2-x,1/2-y,1/2+z
1/2+x,1/2-y,1/2-z
1/2-x,1/2+y,1/2-z
loop_
_atom_site_type_symbol
_atom_site_label
_atom_site_fract_x
_atom_site_fract_y
_atom_site_fract_z
Si Si1 0.000000 0.500000 0.679176
Si Si2 0.000000 0.327399 0.000000
Si Si3 0.172110 0.391586 0.825061
Si Si4 0.972449 0.877741 0.244712
Si Si5 0.265393 0.112628 0.861467
Si Si6 0.694890 0.690677 0.560197
Si Si7 0.966438 0.282706 0.312064
O O1 0.083406 0.444848 0.752510
O O2 0.123459 0.544990 0.618472
O O3 0.112823 0.269431 0.053391
O O4 0.902033 0.379527 0.070043
O O5 0.347488 0.412961 0.815372
O O6 0.138829 0.312658 0.775673
O O7 0.884560 0.857426 0.143971
O O8 0.131175 0.911753 0.211392
O O9 0.010934 0.801673 0.296276
O O10 0.375620 0.173954 0.814619
O O11 0.193372 0.149110 0.957285
O O12 0.868735 0.701159 0.591598
#
# Coordination Sequence:
#
# PCOD9330352 Si02
#       7
#     4   4   8   8   8   8   8
#     4  10  26  45  61  86 132 194 224 269 343 410
#     4  12  20  39  70 102 135 162 234 298 356 404
#     4  10  23  39  62  92 126 180 224 272 342 414
#     4  11  20  37  65  98 131 170 220 288 359 406
#     4  11  21  39  62  90 137 179 228 276 333 435
#     4  11  20  35  62 104 132 168 216 286 358 407
#     4  10  20  35  60  95 134 165 207 278 363 405
#
# _framework density 21.677622
#
# number of rings (size 3 to 8) (size 9 to 14) (size 15 to 20)
#    0.000    1.333    3.333    3.500    2.333    1.000 
#    0.000   15.000    0.000    8.000    4.333    0.000 
#    0.000    0.000    0.000    0.000    0.000    0.000 
#
# Total GULP energy -134008.676548 kJ/mol
# GULP energy per Si atom -5583.694856 kJ/mol
# Density = 2.162828 g / cm^3
# Si number density = 21.677622 Si / 1000 Ang^3
#
#
#
# Elastic Constant Matrix: (Units=GPa)
#
#
# Indices 1 2 3 4 5 6 
#
# 1 141.8788 14.1030 33.5305 0.0000 0.0000 0.0000
# 2 14.1030 39.8217 2.1041 0.0000 0.0000 0.0000
# 3 33.5305 2.1041 56.3104 0.0000 0.0000 0.0000
# 4 0.0000 0.0000 0.0000 14.3232 0.0000 0.0000
# 5 0.0000 0.0000 0.0000 0.0000 42.6666 0.0000
# 6 0.0000 0.0000 0.0000 0.0000 0.0000 10.0312
#
#
#
# Elastic Compliance Matrix: (Units=1/GPa)
#
#
# Indices 1 2 3 4 5 6 
#
# 1 0.008492 -0.002746 -0.004954 0.000000 0.000000 0.000000
# 2 -0.002746 0.026049 0.000662 0.000000 0.000000 0.000000
# 3 -0.004954 0.000662 0.020684 0.000000 0.000000 0.000000
# 4 0.000000 0.000000 0.000000 0.069817 0.000000 0.000000
# 5 0.000000 0.000000 0.000000 0.000000 0.023438 0.000000
# 6 0.000000 0.000000 0.000000 0.000000 0.000000 0.099689
#
#
# Mechanical properties :
#
#
# Convention : Reuss Voigt Hill
#
# Bulk Modulus (GPa) = 24.30194 37.49845 30.90020
# Shear Modulus (GPa) = 18.11853 25.95577 22.03715
#
# Velocity S-wave (km/s) = 2.89419 3.46403 3.19185
# Velocity P-wave (km/s) = 4.73322 5.77366 5.27913
#
# Compressibility (1/GPa) = 0.04114897
#
# Stress axis : x y z
#
# Youngs Moduli (GPa) = 117.75804 38.38859 48.34682
#
# Poissons Ratio (x) = 0.10540 0.23951
# Poissons Ratio (y) = 0.32333 -0.03198
# Poissons Ratio (z) = 0.58338 -0.02540
#
# Static dielectric constant tensor:
#      x y z
#    x 1.854680 0.000000 0.000000 
#    y 0.000000 1.794400 0.000000 
#    z 0.000000 0.000000 1.824930 
# 
# From -- ./inp_files/20022.got.cif
#   From: 2010.05.17/outbox.cif.g08.bks.cpg/sg23_11_cif.got.tgz:20022.got - 2010.06.04 12:02:01.
