data_PCOD9330702
_publ_section_title
;
Structure prediction by ZEFSAII (Michael W. Deem and Ramdas Pophale) SiO2 
 PCOD9330702
Probable space group: I 2 2 2
;
_chemical_formula_sum "Si O2"
_cell_formula_units_Z 58
_cell_length_a 25.002053
_cell_length_b 10.707056
_cell_length_c 9.303306
_cell_angle_alpha 90.000000
_cell_angle_beta 90.000000
_cell_angle_gamma 90.000000
_cell_volume 2490.479960
_symmetry_space_group_name_H-M "I 2 2 2"
_symmetry_group_IT_number 23
_symmetry_cell_setting 'orthorhombic'
loop_
_space_group_symop_operation_xyz
x,y,z
-x,-y,z
x,-y,-z
-x,y,-z
1/2+x,1/2+y,1/2+z
1/2-x,1/2-y,1/2+z
1/2+x,1/2-y,1/2-z
1/2-x,1/2+y,1/2-z
loop_
_atom_site_type_symbol
_atom_site_label
_atom_site_fract_x
_atom_site_fract_y
_atom_site_fract_z
Si Si1 0.362371 0.629786 0.878272
Si Si2 0.000000 0.500000 0.000000
Si Si3 0.412763 0.537546 0.348814
Si Si4 0.948083 0.801891 0.400083
Si Si5 0.670088 0.255968 0.430615
Si Si6 0.417009 0.083260 0.720110
Si Si7 0.164990 0.630958 0.241665
Si Si8 0.256167 0.060914 0.649784
O O1 0.399298 0.582529 0.748144
O O2 0.343194 0.772141 0.867747
O O3 0.307369 0.554131 0.856831
O O4 0.397779 0.631502 0.021698
O O5 0.964518 0.579947 0.107167
O O6 0.436842 0.500000 0.500000
O O7 0.449856 0.626890 0.252175
O O8 0.357316 0.612449 0.391991
O O9 0.934937 0.657961 0.361641
O O10 0.000000 0.813867 0.500000
O O11 0.628785 0.161538 0.357451
O O12 0.673060 0.219806 0.599644
O O13 0.724407 0.205275 0.354880
O O14 0.390205 0.947638 0.733979
O O15 0.212513 0.529103 0.259385
O O16 0.275930 0.000000 0.500000
#
# Coordination Sequence:
#
# PCOD9330702 Si02
#       8
#     8   2   8   8   8   8   8   8
#     4  12  25  42  70 104 148 194 239 292 379 442
#     4  12  20  36  82 108 134 180 230 296 358 430
#     4  11  23  44  74 101 136 188 251 297 350 437
#     4  11  28  50  70 101 153 194 238 305 374 449
#     4   9  18  41  66  99 137 174 233 299 345 408
#     4  10  22  41  71 102 138 175 234 291 363 424
#     4  10  20  41  67 102 144 175 238 303 357 425
#     4   9  20  39  67  96 139 192 229 294 361 427
#
# _framework density 23.288684
#
# number of rings (size 3 to 8) (size 9 to 14) (size 15 to 20)
#    0.000    1.655    2.759    2.069    3.862    1.655 
#    7.448    0.690    0.000    0.000    0.000    0.000 
#    0.000    0.000    0.000    0.000    0.000    0.000 
#
# Total GULP energy -161775.787196 kJ/mol
# GULP energy per Si atom -5578.475421 kJ/mol
# Density = 2.323568 g / cm^3
# Si number density = 23.288684 Si / 1000 Ang^3
#
#
#
# Elastic Constant Matrix: (Units=GPa)
#
#
# Indices 1 2 3 4 5 6 
#
# 1 104.8859 13.1931 34.8678 0.0000 0.0000 0.0000
# 2 13.1931 76.5123 23.3731 0.0000 0.0000 0.0000
# 3 34.8678 23.3731 92.2366 0.0000 0.0000 0.0000
# 4 0.0000 0.0000 0.0000 37.9958 0.0000 0.0000
# 5 0.0000 0.0000 0.0000 0.0000 18.2326 0.0000
# 6 0.0000 0.0000 0.0000 0.0000 0.0000 538.5426
#
#
#
# Elastic Compliance Matrix: (Units=1/GPa)
#
#
# Indices 1 2 3 4 5 6 
#
# 1 0.010937 -0.000675 -0.003963 0.000000 0.000000 0.000000
# 2 -0.000675 0.014208 -0.003345 0.000000 0.000000 0.000000
# 3 -0.003963 -0.003345 0.013188 0.000000 0.000000 0.000000
# 4 0.000000 0.000000 0.000000 0.026319 0.000000 0.000000
# 5 0.000000 0.000000 0.000000 0.000000 0.054847 0.000000
# 6 0.000000 0.000000 0.000000 0.000000 0.000000 0.001857
#
#
# Mechanical properties :
#
#
# Convention : Reuss Voigt Hill
#
# Bulk Modulus (GPa) = 44.71230 46.27810 45.49520
# Shear Modulus (GPa) = 34.53593 132.43425 83.48509
#
# Velocity S-wave (km/s) = 3.85509 7.54916 5.99381
# Velocity P-wave (km/s) = 6.24951 9.79291 8.21454
#
# Compressibility (1/GPa) = 0.02236521
#
# Stress axis : x y z
#
# Youngs Moduli (GPa) = 91.43602 70.38236 75.82896
#
# Poissons Ratio (x) = 0.04752 0.30053
# Poissons Ratio (y) = 0.06173 0.25366
# Poissons Ratio (z) = 0.36238 0.23544
#
# Static dielectric constant tensor:
#      x y z
#    x 3.001500 0.000000 0.000000 
#    y 0.000000 1.928970 0.000000 
#    z 0.000000 0.000000 1.873930 
# 
# From -- ./inp_files/13077.got.cif
#   From: 2010.05.17/outbox.cif.g08.bks.cpg/sg23_7_cif.got.tgz:13077.got - 2010.06.04 12:02:01.
