data_PCOD9330069
_publ_section_title
;
Structure prediction by ZEFSAII (Michael W. Deem and Ramdas Pophale) SiO2 
 PCOD9330069
Probable space group: I 2 2 2
;
_chemical_formula_sum "Si O2"
_cell_formula_units_Z 48
_cell_length_a 29.924667
_cell_length_b 8.440606
_cell_length_c 9.294270
_cell_angle_alpha 90.000000
_cell_angle_beta 90.000000
_cell_angle_gamma 90.000000
_cell_volume 2347.568315
_symmetry_space_group_name_H-M "I 2 2 2"
_symmetry_group_IT_number 23
_symmetry_cell_setting 'orthorhombic'
loop_
_space_group_symop_operation_xyz
x,y,z
-x,-y,z
x,-y,-z
-x,y,-z
1/2+x,1/2+y,1/2+z
1/2-x,1/2-y,1/2+z
1/2+x,1/2-y,1/2-z
1/2-x,1/2+y,1/2-z
loop_
_atom_site_type_symbol
_atom_site_label
_atom_site_fract_x
_atom_site_fract_y
_atom_site_fract_z
Si Si1 0.601499 0.834167 0.175113
Si Si2 0.637476 0.329454 0.433186
Si Si3 0.130312 0.698907 0.626363
Si Si4 0.548223 0.181949 0.553745
Si Si5 0.691621 0.810681 0.333979
Si Si6 0.273317 0.911254 0.141538
O O1 0.558600 0.810579 0.275832
O O2 0.646094 0.766470 0.250324
O O3 0.611556 0.024241 0.170531
O O4 0.601506 0.763799 0.015022
O O5 0.648082 0.500000 0.500000
O O6 0.633723 0.314564 0.261727
O O7 0.588452 0.278608 0.484825
O O8 0.673994 0.208014 0.501771
O O9 0.182162 0.675977 0.583504
O O10 0.500000 0.237116 0.500000
O O11 0.552810 0.000000 0.500000
O O12 0.733182 0.696605 0.306875
O O13 0.708895 0.975055 0.267678
O O14 0.255960 0.000000 0.000000
#
# Coordination Sequence:
#
# PCOD9330069 Si02
#       6
#     8   8   8   8   8   8
#     4   9  18  39  60  89 124 165 214 263 336 386
#     4  11  24  40  62  92 127 170 218 268 335 402
#     4  10  19  37  61  84 128 170 206 269 330 384
#     4  10  20  38  67  97 126 159 218 266 322 406
#     4  10  23  38  58  84 120 169 214 273 320 386
#     4  11  22  39  55  86 124 161 219 273 321 378
#
# _framework density 20.446688999999999
#
# number of rings (size 3 to 8) (size 9 to 14) (size 15 to 20)
#    0.000    1.833    5.000    0.500    4.667    0.333 
#    0.000    5.833    0.000    0.000    0.000    4.667 
#    0.000    0.000    0.000    0.000    0.000    0.000 
#
# Total GULP energy -133807.787754 kJ/mol
# GULP energy per Si atom -5575.324490 kJ/mol
# Density = 2.040015 g / cm^3
# Si number density = 20.446689 Si / 1000 Ang^3
#
#
#
# Elastic Constant Matrix: (Units=GPa)
#
#
# Indices 1 2 3 4 5 6 
#
# 1 121.8383 20.0469 45.5075 0.0000 0.0000 0.0000
# 2 20.0469 31.9717 43.6159 0.0000 0.0000 0.0000
# 3 45.5075 43.6159 154.9559 0.0000 0.0000 0.0000
# 4 0.0000 0.0000 0.0000 25.5931 0.0000 0.0000
# 5 0.0000 0.0000 0.0000 0.0000 14.3861 0.0000
# 6 0.0000 0.0000 0.0000 0.0000 0.0000 24.5699
#
#
#
# Elastic Compliance Matrix: (Units=1/GPa)
#
#
# Indices 1 2 3 4 5 6 
#
# 1 0.009451 -0.003473 -0.001798 0.000000 0.000000 0.000000
# 2 -0.003473 0.052050 -0.013631 0.000000 0.000000 0.000000
# 3 -0.001798 -0.013631 0.010818 0.000000 0.000000 0.000000
# 4 0.000000 0.000000 0.000000 0.039073 0.000000 0.000000
# 5 0.000000 0.000000 0.000000 0.000000 0.069512 0.000000
# 6 0.000000 0.000000 0.000000 0.000000 0.000000 0.040700
#
#
# Mechanical properties :
#
#
# Convention : Reuss Voigt Hill
#
# Bulk Modulus (GPa) = 28.97227 58.56738 43.76983
# Shear Modulus (GPa) = 18.45613 26.21620 22.33617
#
# Velocity S-wave (km/s) = 3.00767 3.58463 3.30875
# Velocity P-wave (km/s) = 5.12463 6.77044 6.00420
#
# Compressibility (1/GPa) = 0.03451576
#
# Stress axis : x y z
#
# Youngs Moduli (GPa) = 105.81379 19.21211 92.43708
#
# Poissons Ratio (x) = 0.06672 0.16619
# Poissons Ratio (y) = 0.36749 1.26000
# Poissons Ratio (z) = 0.19024 0.26188
#
# Static dielectric constant tensor:
#      x y z
#    x 1.684350 0.000000 0.000000 
#    y 0.000000 1.794440 0.000000 
#    z 0.000000 0.000000 1.882140 
# 
# From -- ./inp_files/13361.got.cif
#   From: 2010.05.17/outbox.cif.g08.bks.cpg/sg23_7_cif.got.tgz:13361.got - 2010.06.04 12:02:01.
