data_PCOD9330526
_publ_section_title
;
Structure prediction by ZEFSAII (Michael W. Deem and Ramdas Pophale) SiO2 
 PCOD9330526
Probable space group: I 2 2 2
;
_chemical_formula_sum "Si O2"
_cell_formula_units_Z 34
_cell_length_a 10.990418
_cell_length_b 29.317669
_cell_length_c 5.011306
_cell_angle_alpha 90.000000
_cell_angle_beta 90.000000
_cell_angle_gamma 90.000000
_cell_volume 1614.710131
_symmetry_space_group_name_H-M "I 2 2 2"
_symmetry_group_IT_number 23
_symmetry_cell_setting 'orthorhombic'
loop_
_space_group_symop_operation_xyz
x,y,z
-x,-y,z
x,-y,-z
-x,y,-z
1/2+x,1/2+y,1/2+z
1/2-x,1/2-y,1/2+z
1/2+x,1/2-y,1/2-z
1/2-x,1/2+y,1/2-z
loop_
_atom_site_type_symbol
_atom_site_label
_atom_site_fract_x
_atom_site_fract_y
_atom_site_fract_z
Si Si1 0.500000 0.500000 0.500000
Si Si2 0.787520 0.308767 0.443600
Si Si3 0.920689 0.609056 0.269172
Si Si4 0.763624 0.030223 0.241656
Si Si5 0.136769 0.204042 0.562111
O O1 0.407520 0.531354 0.669316
O O2 0.874114 0.345849 0.577521
O O3 0.848838 0.258967 0.462183
O O4 0.671191 0.307453 0.636890
O O5 0.736953 0.316104 0.144896
O O6 0.000000 0.584832 0.500000
O O7 0.803707 0.577620 0.217367
O O8 0.000000 0.616516 0.000000
O O9 0.749371 0.000000 0.500000
O O10 0.710385 0.000000 0.000000
O O11 0.000000 0.190256 0.500000
#
# Coordination Sequence:
#
# PCOD9330526 Si02
#       5
#     2   8   8   8   8
#     4   8  22  44  68  88 126 164 206 246 326 372
#     4  10  22  38  59  89 126 165 215 260 324 374
#     4  12  25  41  64  95 131 167 211 264 319 380
#     4  10  22  42  66  94 125 166 208 252 321 376
#     4  10  20  38  60  87 121 168 217 265 314 378
#
# _framework density 21.056412000000002
#
# number of rings (size 3 to 8) (size 9 to 14) (size 15 to 20)
#    0.706    0.941    0.000    4.588    0.000    6.588 
#    4.235    0.000    0.000    0.000    0.000    0.000 
#    0.000    0.000    0.000    0.000    0.000    0.000 
#
# Total GULP energy -94829.663930 kJ/mol
# GULP energy per Si atom -5578.215525 kJ/mol
# Density = 2.100849 g / cm^3
# Si number density = 21.056412 Si / 1000 Ang^3
#
#
#
# Elastic Constant Matrix: (Units=GPa)
#
#
# Indices 1 2 3 4 5 6 
#
# 1 90.3210 28.2197 3.0109 0.0129 0.0342 -0.0001
# 2 28.2197 67.6872 13.1192 0.0181 0.0003 -0.0014
# 3 3.0109 13.1192 105.3415 0.0565 0.0841 -0.0018
# 4 0.0129 0.0181 0.0565 20.5000 -0.0096 -0.0021
# 5 0.0342 0.0003 0.0841 -0.0096 78.9344 -0.0039
# 6 -0.0001 -0.0014 -0.0018 -0.0021 -0.0039 21.7970
#
#
#
# Elastic Compliance Matrix: (Units=1/GPa)
#
#
# Indices 1 2 3 4 5 6 
#
# 1 0.012739 -0.005370 0.000305 -0.000004 -0.000006 0.000000
# 2 -0.005370 0.017403 -0.002014 -0.000006 0.000004 0.000001
# 3 0.000305 -0.002014 0.009735 -0.000025 -0.000010 0.000001
# 4 -0.000004 -0.000006 -0.000025 0.048781 0.000006 0.000005
# 5 -0.000006 0.000004 -0.000010 0.000006 0.012669 0.000002
# 6 0.000000 0.000001 0.000001 0.000005 0.000002 0.045878
#
#
# Mechanical properties :
#
#
# Convention : Reuss Voigt Hill
#
# Bulk Modulus (GPa) = 38.88235 39.11660 38.99947
# Shear Modulus (GPa) = 29.42278 38.84629 34.13454
#
# Velocity S-wave (km/s) = 3.74214 4.29985 4.03066
# Velocity P-wave (km/s) = 6.09733 6.57792 6.34218
#
# Compressibility (1/GPa) = 0.02571861
#
# Stress axis : x y z
#
# Youngs Moduli (GPa) = 78.49704 57.46101 102.72156
#
# Poissons Ratio (x) = 0.30858 -0.03130
# Poissons Ratio (y) = 0.42155 0.20687
# Poissons Ratio (z) = -0.02392 0.11572
#
# Static dielectric constant tensor:
#      x y z
#    x 1.816580 0.000010 0.000020 
#    y 0.000010 1.752320 0.000000 
#    z 0.000020 0.000000 1.741000 
# 
# From -- ./inp_files/1672.got.cif
#   From: 2010.05.17/outbox.cif.g08.bks.cpg/sg23_1_cif.got.tgz:1672.got - 2010.06.04 12:02:01.
