data_PCOD9330452
_publ_section_title
;
Structure prediction by ZEFSAII (Michael W. Deem and Ramdas Pophale) SiO2 
 PCOD9330452
Probable space group: I 2 2 2
;
_chemical_formula_sum "Si O2"
_cell_formula_units_Z 58
_cell_length_a 16.712718
_cell_length_b 15.539675
_cell_length_c 11.600750
_cell_angle_alpha 90.000000
_cell_angle_beta 90.000000
_cell_angle_gamma 90.000000
_cell_volume 3012.833173
_symmetry_space_group_name_H-M "I 2 2 2"
_symmetry_group_IT_number 23
_symmetry_cell_setting 'orthorhombic'
loop_
_space_group_symop_operation_xyz
x,y,z
-x,-y,z
x,-y,-z
-x,y,-z
1/2+x,1/2+y,1/2+z
1/2-x,1/2-y,1/2+z
1/2+x,1/2-y,1/2-z
1/2-x,1/2+y,1/2-z
loop_
_atom_site_type_symbol
_atom_site_label
_atom_site_fract_x
_atom_site_fract_y
_atom_site_fract_z
Si Si1 0.384083 0.784127 0.767590
Si Si2 0.643212 0.805891 0.750602
Si Si3 0.800473 0.869917 0.849139
Si Si4 0.500000 0.500000 0.500000
Si Si5 0.390205 0.540481 0.294969
Si Si6 0.003317 0.602017 0.131414
Si Si7 0.269312 0.662405 0.388183
Si Si8 0.968869 0.174538 0.629726
O O1 0.333880 0.723498 0.683225
O O2 0.419319 0.863106 0.696856
O O3 0.323241 0.816709 0.865628
O O4 0.456886 0.724765 0.811550
O O5 0.712133 0.868988 0.795334
O O6 0.571316 0.859808 0.699360
O O7 0.681089 0.746965 0.649320
O O8 0.605873 0.740721 0.847428
O O9 0.861593 0.941312 0.799131
O O10 0.788570 0.872539 0.985594
O O11 0.443643 0.552405 0.411506
O O12 0.306562 0.590966 0.303797
O O13 0.441537 0.586291 0.194168
O O14 0.000000 0.500000 0.131181
O O15 0.000000 0.633826 0.000000
O O16 0.000000 0.159642 0.500000
#
# Coordination Sequence:
#
# PCOD9330452 Si02
#       8
#     8   8   8   2   8   8   8   8
#     4  10  22  37  63  87 120 167 211 253 325 378
#     4   9  21  36  61  89 121 162 211 255 322 377
#     4  11  20  38  59  90 125 158 204 263 316 386
#     4  12  20  40  54  92 128 154 206 254 308 360
#     4  11  23  36  63  92 125 165 208 265 315 378
#     4  10  21  39  61  87 120 161 212 271 312 378
#     4  10  20  37  58  90 121 162 203 263 314 379
#     4  10  21  41  62  90 127 165 210 260 316 394
#
# _framework density 19.250983000000002
#
# number of rings (size 3 to 8) (size 9 to 14) (size 15 to 20)
#    0.000    1.793    1.379    2.483    1.931    0.000 
#    3.724    3.103    0.000    2.483    0.000    0.000 
#    0.000    0.000    0.000    0.000    0.000    0.000 
#
# Total GULP energy -161633.457864 kJ/mol
# GULP energy per Si atom -5573.567513 kJ/mol
# Density = 1.920717 g / cm^3
# Si number density = 19.250983 Si / 1000 Ang^3
#
#
#
# Elastic Constant Matrix: (Units=GPa)
#
#
# Indices 1 2 3 4 5 6 
#
# 1 104.3030 34.0603 34.1841 0.0000 0.0000 0.0000
# 2 34.0603 73.1903 39.7696 0.0000 0.0000 0.0000
# 3 34.1841 39.7696 103.5563 0.0000 0.0000 0.0000
# 4 0.0000 0.0000 0.0000 -26.3192 0.0000 0.0000
# 5 0.0000 0.0000 0.0000 0.0000 17.1351 0.0000
# 6 0.0000 0.0000 0.0000 0.0000 0.0000 34.1705
#
#
#
# Elastic Compliance Matrix: (Units=1/GPa)
#
#
# Indices 1 2 3 4 5 6 
#
# 1 0.011702 -0.004229 -0.002239 0.000000 0.000000 0.000000
# 2 -0.004229 0.018795 -0.005822 0.000000 0.000000 0.000000
# 3 -0.002239 -0.005822 0.012631 0.000000 0.000000 0.000000
# 4 0.000000 0.000000 0.000000 -0.037995 0.000000 0.000000
# 5 0.000000 0.000000 0.000000 0.000000 0.058360 0.000000
# 6 0.000000 0.000000 0.000000 0.000000 0.000000 0.029265
#
#
# Mechanical properties :
#
#
# Convention : Reuss Voigt Hill
#
# Bulk Modulus (GPa) = 53.91245 55.23086 54.57165
# Shear Modulus (GPa) = 40.47914 16.53298 28.50606
#
# Velocity S-wave (km/s) = 4.59050 2.93373 3.85224
# Velocity P-wave (km/s) = 7.49418 6.34254 6.94228
#
# Compressibility (1/GPa) = 0.01854859
#
# Stress axis : x y z
#
# Youngs Moduli (GPa) = 85.45340 53.20677 79.16815
#
# Poissons Ratio (x) = 0.22503 0.17723
# Poissons Ratio (y) = 0.36142 0.46089
# Poissons Ratio (z) = 0.19130 0.30975
#
# Static dielectric constant tensor:
#      x y z
#    x 2.613450 0.000000 0.000000 
#    y 0.000000 1.676650 0.000000 
#    z 0.000000 0.000000 1.671810 
# 
# From -- ./inp_files/17561.got.cif
#   From: 2010.05.17/outbox.cif.g08.bks.cpg/sg23_9_cif.got.tgz:17561.got - 2010.06.04 12:02:01.
