data_PCOD9330811
_publ_section_title
;
Structure prediction by ZEFSAII (Michael W. Deem and Ramdas Pophale) SiO2 
 PCOD9330811
Probable space group: I 2 2 2
;
_chemical_formula_sum "Si O2"
_cell_formula_units_Z 32
_cell_length_a 5.290586
_cell_length_b 32.807237
_cell_length_c 8.747465
_cell_angle_alpha 90.000000
_cell_angle_beta 90.000000
_cell_angle_gamma 90.000000
_cell_volume 1518.293203
_symmetry_space_group_name_H-M "I 2 2 2"
_symmetry_group_IT_number 23
_symmetry_cell_setting 'orthorhombic'
loop_
_space_group_symop_operation_xyz
x,y,z
-x,-y,z
x,-y,-z
-x,y,-z
1/2+x,1/2+y,1/2+z
1/2-x,1/2-y,1/2+z
1/2+x,1/2-y,1/2-z
1/2-x,1/2+y,1/2-z
loop_
_atom_site_type_symbol
_atom_site_label
_atom_site_fract_x
_atom_site_fract_y
_atom_site_fract_z
Si Si1 0.248584 0.765295 0.896862
Si Si2 0.509117 0.094516 0.184003
Si Si3 0.474634 0.817898 0.322825
Si Si4 0.002991 0.952836 0.813149
O O1 0.284710 0.797023 0.759412
O O2 0.220612 0.719952 0.827394
O O3 0.500000 0.768778 0.000000
O O4 0.000000 0.772222 0.000000
O O5 0.566303 0.140553 0.233868
O O6 0.245274 0.073986 0.235744
O O7 0.743511 0.067589 0.238019
O O8 0.500000 0.094004 0.000000
O O9 0.500000 0.828664 0.500000
O O10 0.000000 0.000000 0.765516
O O11 0.000000 0.952702 0.000000
#
# Coordination Sequence:
#
# PCOD9330811 Si02
#       4
#     8   8   8   8
#     4  11  25  44  65  89 124 172 219 263 311 368
#     4  10  21  35  58  88 118 152 195 250 305 364
#     4  11  24  41  63  91 125 164 209 257 311 370
#     4   9  18  35  59  86 114 149 196 248 301 359
#
# _framework density 21.076297
#
# number of rings (size 3 to 8) (size 9 to 14) (size 15 to 20)
#    0.000    1.750    0.000    4.500    0.000   14.000 
#    0.000    1.250    0.000    4.500    0.000    0.000 
#    0.000    0.000    0.000    0.000    0.000    0.000 
#
# Total GULP energy -89335.913409 kJ/mol
# GULP energy per Si atom -5583.494588 kJ/mol
# Density = 2.102833 g / cm^3
# Si number density = 21.076297 Si / 1000 Ang^3
#
#
#
# Elastic Constant Matrix: (Units=GPa)
#
#
# Indices 1 2 3 4 5 6 
#
# 1 159.1515 49.8131 48.8522 0.0000 0.0000 0.0000
# 2 49.8131 132.6658 14.8395 0.0000 0.0000 0.0000
# 3 48.8522 14.8395 47.9727 0.0002 -0.0001 0.0000
# 4 0.0000 0.0000 0.0002 29.2090 0.0000 0.0000
# 5 0.0000 0.0000 -0.0001 0.0000 18.4207 0.0000
# 6 0.0000 0.0000 0.0000 0.0000 0.0000 35.3137
#
#
#
# Elastic Compliance Matrix: (Units=1/GPa)
#
#
# Indices 1 2 3 4 5 6 
#
# 1 0.010000 -0.002709 -0.009345 0.000000 0.000000 0.000000
# 2 -0.002709 0.008542 0.000117 0.000000 0.000000 0.000000
# 3 -0.009345 0.000117 0.030325 0.000000 0.000000 0.000000
# 4 0.000000 0.000000 0.000000 0.034236 0.000000 0.000000
# 5 0.000000 0.000000 0.000000 0.000000 0.054287 0.000000
# 6 0.000000 0.000000 0.000000 0.000000 0.000000 0.028318
#
#
# Mechanical properties :
#
#
# Convention : Reuss Voigt Hill
#
# Bulk Modulus (GPa) = 40.01299 62.97772 51.49535
# Shear Modulus (GPa) = 25.26356 31.67439 28.46897
#
# Velocity S-wave (km/s) = 3.46594 3.88086 3.67925
# Velocity P-wave (km/s) = 5.91971 7.07298 6.52189
#
# Compressibility (1/GPa) = 0.02499188
#
# Stress axis : x y z
#
# Youngs Moduli (GPa) = 100.00150 117.06860 32.97562
#
# Poissons Ratio (x) = 0.31719 0.30816
# Poissons Ratio (y) = 0.27095 -0.00385
# Poissons Ratio (z) = 0.93452 -0.01367
#
# Static dielectric constant tensor:
#      x y z
#    x 1.757510 0.000000 0.000000 
#    y 0.000000 1.723040 0.000000 
#    z 0.000000 0.000000 1.797030 
# 
# From -- ./inp_files/720.got.cif
#   From: 2010.05.17/outbox.cif.g08.bks.cpg/sg23_1_cif.got.tgz:720.got - 2010.06.04 12:02:01.
