data_PCOD9330540
_publ_section_title
;
Structure prediction by ZEFSAII (Michael W. Deem and Ramdas Pophale) SiO2 
 PCOD9330540
Probable space group: I 2 2 2
;
_chemical_formula_sum "Si O2"
_cell_formula_units_Z 50
_cell_length_a 20.695174
_cell_length_b 14.243986
_cell_length_c 8.312477
_cell_angle_alpha 90.000000
_cell_angle_beta 90.000000
_cell_angle_gamma 90.000000
_cell_volume 2450.366673
_symmetry_space_group_name_H-M "I 2 2 2"
_symmetry_group_IT_number 23
_symmetry_cell_setting 'orthorhombic'
loop_
_space_group_symop_operation_xyz
x,y,z
-x,-y,z
x,-y,-z
-x,y,-z
1/2+x,1/2+y,1/2+z
1/2-x,1/2-y,1/2+z
1/2+x,1/2-y,1/2-z
1/2-x,1/2+y,1/2-z
loop_
_atom_site_type_symbol
_atom_site_label
_atom_site_fract_x
_atom_site_fract_y
_atom_site_fract_z
Si Si1 0.105294 0.994372 0.242861
Si Si2 0.075524 0.196353 0.656978
Si Si3 0.794769 0.291595 0.343156
Si Si4 0.064714 0.212116 0.285477
Si Si5 0.000000 0.000000 0.000000
Si Si6 0.248835 0.485347 0.808741
Si Si7 0.317152 0.834657 0.222095
O O1 0.089662 0.914964 0.374111
O O2 0.182396 0.992083 0.221708
O O3 0.086220 0.103624 0.257499
O O4 0.054181 0.952817 0.112599
O O5 0.139311 0.245723 0.723387
O O6 0.067118 0.231523 0.475814
O O7 0.010706 0.219437 0.754604
O O8 0.771709 0.381398 0.242370
O O9 0.739630 0.214433 0.322563
O O10 0.804607 0.315348 0.531988
O O11 0.116706 0.285614 0.220071
O O12 0.192817 0.555755 0.752506
O O13 0.259559 0.500000 0.000000
#
# Coordination Sequence:
#
# PCOD9330540 Si02
#       7
#     8   8   8   8   2   8   8
#     4  12  22  37  57  88 131 159 205 245 320 379
#     4  10  20  38  62  88 119 161 206 254 311 379
#     4  11  23  39  63  94 126 166 211 263 318 378
#     4  10  20  38  62  88 119 161 206 254 311 379
#     4  12  28  36  50 104 128 174 192 256 332 384
#     4  12  25  43  64  91 126 171 218 265 312 373
#     4  11  23  39  63  94 126 166 211 263 318 378
#
# _framework density 20.405108999999999
#
# number of rings (size 3 to 8) (size 9 to 14) (size 15 to 20)
#    0.000    0.960    4.800    2.880    2.240    1.280 
#    2.880    0.800    0.000    4.800    0.000    0.000 
#    0.000    0.000    0.000    0.000    0.000    0.000 
#
# Total GULP energy -139246.746042 kJ/mol
# GULP energy per Si atom -5569.869842 kJ/mol
# Density = 2.035867 g / cm^3
# Si number density = 20.405109 Si / 1000 Ang^3
#
#
#
# Elastic Constant Matrix: (Units=GPa)
#
#
# Indices 1 2 3 4 5 6 
#
# 1 162.1224 30.5553 6.3569 0.0000 0.0000 0.0000
# 2 30.5553 52.6310 -1.1539 0.0000 0.0000 0.0000
# 3 6.3569 -1.1539 42.3872 0.0000 0.0000 0.0000
# 4 0.0000 0.0000 0.0000 23.7104 0.0000 0.0000
# 5 0.0000 0.0000 0.0000 0.0000 15.8730 0.0000
# 6 0.0000 0.0000 0.0000 0.0000 0.0000 34.4020
#
#
#
# Elastic Compliance Matrix: (Units=1/GPa)
#
#
# Indices 1 2 3 4 5 6 
#
# 1 0.006982 -0.004079 -0.001158 0.000000 0.000000 0.000000
# 2 -0.004079 0.021394 0.001194 0.000000 0.000000 0.000000
# 3 -0.001158 0.001194 0.023798 0.000000 0.000000 0.000000
# 4 0.000000 0.000000 0.000000 0.042176 0.000000 0.000000
# 5 0.000000 0.000000 0.000000 0.000000 0.063000 0.000000
# 6 0.000000 0.000000 0.000000 0.000000 0.000000 0.029068
#
#
# Mechanical properties :
#
#
# Convention : Reuss Voigt Hill
#
# Bulk Modulus (GPa) = 22.68147 36.51749 29.59948
# Shear Modulus (GPa) = 23.90041 29.55590 26.72816
#
# Velocity S-wave (km/s) = 3.42613 3.80999 3.62315
# Velocity P-wave (km/s) = 5.17599 6.10654 5.66042
#
# Compressibility (1/GPa) = 0.04408886
#
# Stress axis : x y z
#
# Youngs Moduli (GPa) = 143.21783 46.74099 42.01997
#
# Poissons Ratio (x) = 0.19066 0.04867
# Poissons Ratio (y) = 0.58419 -0.05018
# Poissons Ratio (z) = 0.16588 -0.05582
#
# Static dielectric constant tensor:
#      x y z
#    x 1.755400 0.000000 0.000000 
#    y 0.000000 1.712480 0.000000 
#    z 0.000000 0.000000 1.834620 
# 
# From -- ./inp_files/11085.got.cif
#   From: 2010.05.17/outbox.cif.g08.bks.cpg/sg23_6_cif.got.tgz:11085.got - 2010.06.04 12:02:01.
