data_PCOD9330756
_publ_section_title
;
Structure prediction by ZEFSAII (Michael W. Deem and Ramdas Pophale) SiO2 
 PCOD9330756
Probable space group: I 2 2 2
;
_chemical_formula_sum "Si O2"
_cell_formula_units_Z 48
_cell_length_a 14.745753
_cell_length_b 9.061128
_cell_length_c 14.840104
_cell_angle_alpha 90.000000
_cell_angle_beta 90.000000
_cell_angle_gamma 90.000000
_cell_volume 1982.833122
_symmetry_space_group_name_H-M "I 2 2 2"
_symmetry_group_IT_number 23
_symmetry_cell_setting 'orthorhombic'
loop_
_space_group_symop_operation_xyz
x,y,z
-x,-y,z
x,-y,-z
-x,y,-z
1/2+x,1/2+y,1/2+z
1/2-x,1/2-y,1/2+z
1/2+x,1/2-y,1/2-z
1/2-x,1/2+y,1/2-z
loop_
_atom_site_type_symbol
_atom_site_label
_atom_site_fract_x
_atom_site_fract_y
_atom_site_fract_z
Si Si1 0.135267 0.868173 0.432990
Si Si2 0.849111 0.328807 0.973230
Si Si3 0.837859 0.308152 0.170262
Si Si4 0.425612 0.636462 0.315933
Si Si5 0.485861 0.825863 0.824468
Si Si6 0.219243 0.957826 0.258966
O O1 0.239223 0.817843 0.455121
O O2 0.062615 0.740654 0.413291
O O3 0.110696 0.000000 0.500000
O O4 0.142525 0.936974 0.333840
O O5 0.912750 0.254380 0.897865
O O6 0.869901 0.500000 0.000000
O O7 0.862086 0.256466 0.071472
O O8 0.919805 0.309880 0.238368
O O9 0.798754 0.471269 0.183760
O O10 0.764164 0.196568 0.211611
O O11 0.500000 0.500000 0.325077
O O12 0.436442 0.723971 0.220066
O O13 0.326496 0.559781 0.314995
O O14 0.500000 0.000000 0.837472
#
# Coordination Sequence:
#
# PCOD9330756 Si02
#       6
#     8   8   8   8   8   8
#     4  10  20  44  75 104 140 190 252 298 362 429
#     4  11  23  43  73 107 141 190 246 312 361 427
#     4  11  23  43  72 103 135 189 243 294 360 429
#     4  12  24  46  69 103 150 192 235 299 375 450
#     4  11  25  43  70 109 147 192 237 295 375 443
#     4  11  23  43  71  98 132 191 240 294 355 434
#
# _framework density 24.207785999999999
#
# number of rings (size 3 to 8) (size 9 to 14) (size 15 to 20)
#    0.000    1.000    6.667    3.000    2.333    1.333 
#    3.000    3.333    0.000    6.000    0.000    0.000 
#    0.000    0.000    0.000    0.000    0.000    0.000 
#
# Total GULP energy -133769.228899 kJ/mol
# GULP energy per Si atom -5573.717871 kJ/mol
# Density = 2.415269 g / cm^3
# Si number density = 24.207786 Si / 1000 Ang^3
#
#
#
# Elastic Constant Matrix: (Units=GPa)
#
#
# Indices 1 2 3 4 5 6 
#
# 1 88.9102 45.7009 25.7459 0.0000 0.0000 0.0000
# 2 45.7009 133.0368 52.3848 0.0000 0.0000 0.0000
# 3 25.7459 52.3848 90.2436 0.0000 0.0000 0.0000
# 4 0.0000 0.0000 0.0000 40.6957 0.0000 0.0000
# 5 0.0000 0.0000 0.0000 0.0000 19.1897 0.0000
# 6 0.0000 0.0000 0.0000 0.0000 0.0000 48.5690
#
#
#
# Elastic Compliance Matrix: (Units=1/GPa)
#
#
# Indices 1 2 3 4 5 6 
#
# 1 0.013822 -0.004142 -0.001539 0.000000 0.000000 0.000000
# 2 -0.004142 0.010985 -0.005195 0.000000 0.000000 0.000000
# 3 -0.001539 -0.005195 0.014536 0.000000 0.000000 0.000000
# 4 0.000000 0.000000 0.000000 0.024573 0.000000 0.000000
# 5 0.000000 0.000000 0.000000 0.000000 0.052111 0.000000
# 6 0.000000 0.000000 0.000000 0.000000 0.000000 0.020589
#
#
# Mechanical properties :
#
#
# Convention : Reuss Voigt Hill
#
# Bulk Modulus (GPa) = 56.84753 62.20596 59.52674
# Shear Modulus (GPa) = 30.44473 34.24815 32.34644
#
# Velocity S-wave (km/s) = 3.55017 3.76541 3.65937
# Velocity P-wave (km/s) = 6.35131 6.68258 6.51905
#
# Compressibility (1/GPa) = 0.01759091
#
# Stress axis : x y z
#
# Youngs Moduli (GPa) = 72.34813 91.03124 68.79593
#
# Poissons Ratio (x) = 0.37707 0.10587
# Poissons Ratio (y) = 0.29968 0.35739
# Poissons Ratio (z) = 0.11133 0.47291
#
# Static dielectric constant tensor:
#      x y z
#    x 2.074400 0.000000 0.000000 
#    y 0.000000 2.875080 0.000000 
#    z 0.000000 0.000000 1.943290 
# 
# From -- ./inp_files/22022.got.cif
#   From: 2010.05.17/outbox.cif.g08.bks.cpg/sg23_12_cif.got.tgz:22022.got - 2010.06.04 12:02:01.
