data_PCOD9330598
_publ_section_title
;
Structure prediction by ZEFSAII (Michael W. Deem and Ramdas Pophale) SiO2 
 PCOD9330598
Probable space group: I 2 2 2
;
_chemical_formula_sum "Si O2"
_cell_formula_units_Z 64
_cell_length_a 20.728665
_cell_length_b 18.485276
_cell_length_c 8.731906
_cell_angle_alpha 90.000000
_cell_angle_beta 90.000000
_cell_angle_gamma 90.000000
_cell_volume 3345.848899
_symmetry_space_group_name_H-M "I 2 2 2"
_symmetry_group_IT_number 23
_symmetry_cell_setting 'orthorhombic'
loop_
_space_group_symop_operation_xyz
x,y,z
-x,-y,z
x,-y,-z
-x,y,-z
1/2+x,1/2+y,1/2+z
1/2-x,1/2-y,1/2+z
1/2+x,1/2-y,1/2-z
1/2-x,1/2+y,1/2-z
loop_
_atom_site_type_symbol
_atom_site_label
_atom_site_fract_x
_atom_site_fract_y
_atom_site_fract_z
Si Si1 0.403816 0.678680 0.825469
Si Si2 0.754262 0.822504 0.733603
Si Si3 0.832115 0.565258 0.400247
Si Si4 0.631045 0.576016 0.899460
Si Si5 0.118620 0.656685 0.320882
Si Si6 0.014417 0.080856 0.181390
Si Si7 0.750375 0.328473 0.128610
Si Si8 0.425454 0.018189 0.329881
O O1 0.332269 0.671624 0.747816
O O2 0.411980 0.764562 0.838906
O O3 0.464050 0.639289 0.746714
O O4 0.395309 0.637182 0.985019
O O5 0.721090 0.891419 0.807810
O O6 0.726312 0.749954 0.812426
O O7 0.738940 0.820143 0.553010
O O8 0.803012 0.500000 0.500000
O O9 0.867693 0.619773 0.516256
O O10 0.883457 0.527920 0.288492
O O11 0.586855 0.585762 0.747966
O O12 0.702572 0.603329 0.856354
O O13 0.630109 0.500000 0.000000
O O14 0.186607 0.661198 0.231408
O O15 0.079102 0.601695 0.216593
O O16 0.000000 0.000000 0.240173
O O17 0.000000 0.081581 0.000000
O O18 0.500000 0.000000 0.320890
O O19 0.401467 0.000000 0.500000
#
# Coordination Sequence:
#
# PCOD9330598 Si02
#       8
#     8   8   8   8   8   8   8   8
#     4  10  22  41  61  88 123 167 206 251 316 374
#     4  10  20  39  60  91 124 160 202 259 313 375
#     4  10  21  37  61  90 124 157 203 251 308 369
#     4  11  22  39  65  89 122 168 215 257 314 382
#     4  10  22  41  62  93 128 160 205 257 313 385
#     4  11  24  43  60  88 125 163 211 267 311 364
#     4  10  22  38  63  92 127 159 205 257 317 376
#     4  10  22  43  64  88 122 161 203 255 311 370
#
# _framework density 19.128181000000001
#
# number of rings (size 3 to 8) (size 9 to 14) (size 15 to 20)
#    0.000    1.750    1.250    3.375    0.000    9.750 
#   11.250    0.000    0.000    0.000    0.000    0.000 
#    0.000    0.000    0.000    0.000    0.000    0.000 
#
# Total GULP energy -178376.369329 kJ/mol
# GULP energy per Si atom -5574.261542 kJ/mol
# Density = 1.908464 g / cm^3
# Si number density = 19.128181 Si / 1000 Ang^3
#
#
#
# Elastic Constant Matrix: (Units=GPa)
#
#
# Indices 1 2 3 4 5 6 
#
# 1 37.7991 40.4312 26.0081 0.0000 0.0000 0.0000
# 2 40.4312 155.6713 54.8653 0.0000 0.0000 0.0000
# 3 26.0081 54.8653 92.8311 0.0000 0.0000 0.0000
# 4 0.0000 0.0000 0.0000 28.4073 0.0000 0.0000
# 5 0.0000 0.0000 0.0000 0.0000 3.7938 0.0000
# 6 0.0000 0.0000 0.0000 0.0000 0.0000 24.2326
#
#
#
# Elastic Compliance Matrix: (Units=1/GPa)
#
#
# Indices 1 2 3 4 5 6 
#
# 1 0.039344 -0.008000 -0.006295 0.000000 0.000000 0.000000
# 2 -0.008000 0.009741 -0.003516 0.000000 0.000000 0.000000
# 3 -0.006295 -0.003516 0.014614 0.000000 0.000000 0.000000
# 4 0.000000 0.000000 0.000000 0.035202 0.000000 0.000000
# 5 0.000000 0.000000 0.000000 0.000000 0.263591 0.000000
# 6 0.000000 0.000000 0.000000 0.000000 0.000000 0.041267
#
#
# Mechanical properties :
#
#
# Convention : Reuss Voigt Hill
#
# Bulk Modulus (GPa) = 35.61553 58.76783 47.19168
# Shear Modulus (GPa) = 11.14236 22.28651 16.71444
#
# Velocity S-wave (km/s) = 2.41614 3.41708 2.95924
# Velocity P-wave (km/s) = 5.14232 6.80870 6.03332
#
# Compressibility (1/GPa) = 0.02807764
#
# Stress axis : x y z
#
# Youngs Moduli (GPa) = 25.41700 102.66311 68.42940
#
# Poissons Ratio (x) = 0.82130 0.43074
# Poissons Ratio (y) = 0.20333 0.24057
# Poissons Ratio (z) = 0.15999 0.36092
#
# Static dielectric constant tensor:
#      x y z
#    x 1.687970 0.000000 0.000000 
#    y 0.000000 1.954080 0.000000 
#    z 0.000000 0.000000 1.679470 
# 
# From -- ./inp_files/12204.got.cif
#   From: 2010.05.17/outbox.cif.g08.bks.cpg/sg23_7_cif.got.tgz:12204.got - 2010.06.04 12:02:01.
