data_PCOD9330489
_publ_section_title
;
Structure prediction by ZEFSAII (Michael W. Deem and Ramdas Pophale) SiO2 
 PCOD9330489
Probable space group: I 2 2 2
;
_chemical_formula_sum "Si O2"
_cell_formula_units_Z 56
_cell_length_a 5.733265
_cell_length_b 32.057863
_cell_length_c 12.732539
_cell_angle_alpha 90.000000
_cell_angle_beta 90.000000
_cell_angle_gamma 90.000000
_cell_volume 2340.192589
_symmetry_space_group_name_H-M "I 2 2 2"
_symmetry_group_IT_number 23
_symmetry_cell_setting 'orthorhombic'
loop_
_space_group_symop_operation_xyz
x,y,z
-x,-y,z
x,-y,-z
-x,y,-z
1/2+x,1/2+y,1/2+z
1/2-x,1/2-y,1/2+z
1/2+x,1/2-y,1/2-z
1/2-x,1/2+y,1/2-z
loop_
_atom_site_type_symbol
_atom_site_label
_atom_site_fract_x
_atom_site_fract_y
_atom_site_fract_z
Si Si1 0.088565 0.672500 0.612792
Si Si2 0.287911 0.884169 0.736531
Si Si3 0.745312 0.589621 0.446824
Si Si4 0.427752 0.953742 0.380446
Si Si5 0.644530 0.701543 0.833655
Si Si6 0.351802 0.227900 0.678940
Si Si7 0.430748 0.453962 0.267542
O O1 0.285092 0.638484 0.583803
O O2 0.152700 0.703572 0.707359
O O3 0.000000 0.689804 0.500000
O O4 0.903008 0.642257 0.670371
O O5 0.462642 0.911207 0.665540
O O6 0.152198 0.848289 0.672491
O O7 0.125071 0.919626 0.781801
O O8 0.500000 0.576004 0.500000
O O9 0.772011 0.561245 0.343653
O O10 0.000000 0.586249 0.500000
O O11 0.500000 0.954805 0.500000
O O12 0.155793 0.952060 0.352200
O O13 0.500000 0.000000 0.335596
O O14 0.648710 0.724309 0.717884
O O15 0.391670 0.716087 0.876705
O O16 0.902159 0.715767 0.874656
O O17 0.500000 0.500000 0.295249
#
# Coordination Sequence:
#
# PCOD9330489 Si02
#       7
#     8   8   8   8   8   8   8
#     4  10  20  37  63  93 134 174 219 263 315 396
#     4  11  22  41  66  95 127 173 222 274 343 400
#     4  11  24  41  63  98 139 181 223 264 317 391
#     4  11  25  46  68  94 126 164 222 291 350 407
#     4   9  19  34  62  89 122 168 214 266 321 386
#     4   9  18  35  56  91 126 167 218 261 316 374
#     4  12  24  42  68  95 130 179 222 279 339 402
#
# _framework density 23.929655
#
# number of rings (size 3 to 8) (size 9 to 14) (size 15 to 20)
#    0.000    1.571    2.857    2.571    2.000    3.143 
#    0.000    2.857    3.143    1.286    0.000    0.000 
#    0.000    0.000    0.000    0.000    0.000    0.000 
#
# Total GULP energy -156075.840206 kJ/mol
# GULP energy per Si atom -5574.137150 kJ/mol
# Density = 2.387519 g / cm^3
# Si number density = 23.929655 Si / 1000 Ang^3
#
#
#
# Elastic Constant Matrix: (Units=GPa)
#
#
# Indices 1 2 3 4 5 6 
#
# 1 139.5340 39.3857 19.8199 0.0000 0.0000 0.0000
# 2 39.3857 156.6970 16.4293 0.0000 0.0000 0.0000
# 3 19.8199 16.4293 68.1544 0.0002 0.0000 0.0000
# 4 0.0000 0.0000 0.0002 8.2708 0.0000 0.0000
# 5 0.0000 0.0000 0.0000 0.0000 19.4899 0.0000
# 6 0.0000 0.0000 0.0000 0.0000 0.0000 28.7815
#
#
#
# Elastic Compliance Matrix: (Units=1/GPa)
#
#
# Indices 1 2 3 4 5 6 
#
# 1 0.007941 -0.001799 -0.001876 0.000000 0.000000 0.000000
# 2 -0.001799 0.006955 -0.001153 0.000000 0.000000 0.000000
# 3 -0.001876 -0.001153 0.015496 0.000000 0.000000 0.000000
# 4 0.000000 0.000000 0.000000 0.120907 0.000000 0.000000
# 5 0.000000 0.000000 0.000000 0.000000 0.051309 0.000000
# 6 0.000000 0.000000 0.000000 0.000000 0.000000 0.034745
#
#
# Mechanical properties :
#
#
# Convention : Reuss Voigt Hill
#
# Bulk Modulus (GPa) = 48.22631 57.29502 52.76067
# Shear Modulus (GPa) = 19.69123 30.55849 25.12486
#
# Velocity S-wave (km/s) = 2.87170 3.57741 3.24380
# Velocity P-wave (km/s) = 5.58504 6.40772 6.01047
#
# Compressibility (1/GPa) = 0.02073557
#
# Stress axis : x y z
#
# Youngs Moduli (GPa) = 125.92856 143.78306 64.53276
#
# Poissons Ratio (x) = 0.25871 0.12104
# Poissons Ratio (y) = 0.22659 0.07443
# Poissons Ratio (z) = 0.23619 0.16582
#
# Static dielectric constant tensor:
#      x y z
#    x 2.015910 0.000000 0.000000 
#    y 0.000000 1.926260 0.000000 
#    z 0.000000 0.000000 2.036130 
# 
# From -- ./inp_files/19322.got.cif
#   From: 2010.05.17/outbox.cif.g08.bks.cpg/sg23_10_cif.got.tgz:19322.got - 2010.06.04 12:02:01.
