data_PCOD9330804
_publ_section_title
;
Structure prediction by ZEFSAII (Michael W. Deem and Ramdas Pophale) SiO2 
 PCOD9330804
Probable space group: I 2 2 2
;
_chemical_formula_sum "Si O2"
_cell_formula_units_Z 56
_cell_length_a 9.219237
_cell_length_b 20.296789
_cell_length_c 15.065945
_cell_angle_alpha 90.000000
_cell_angle_beta 90.000000
_cell_angle_gamma 90.000000
_cell_volume 2819.153310
_symmetry_space_group_name_H-M "I 2 2 2"
_symmetry_group_IT_number 23
_symmetry_cell_setting 'orthorhombic'
loop_
_space_group_symop_operation_xyz
x,y,z
-x,-y,z
x,-y,-z
-x,y,-z
1/2+x,1/2+y,1/2+z
1/2-x,1/2-y,1/2+z
1/2+x,1/2-y,1/2-z
1/2-x,1/2+y,1/2-z
loop_
_atom_site_type_symbol
_atom_site_label
_atom_site_fract_x
_atom_site_fract_y
_atom_site_fract_z
Si Si1 0.662771 0.277946 0.969376
Si Si2 0.437337 0.432296 0.727884
Si Si3 0.227988 0.013730 0.398443
Si Si4 0.883388 0.355887 0.076785
Si Si5 0.468538 0.793690 0.254713
Si Si6 0.733534 0.685818 0.659450
Si Si7 0.282908 0.376636 0.194677
O O1 0.764159 0.216222 0.939930
O O2 0.674715 0.326240 0.883759
O O3 0.500000 0.261924 0.000000
O O4 0.735748 0.320970 0.046711
O O5 0.500000 0.500000 0.686346
O O6 0.379071 0.452528 0.826409
O O7 0.317485 0.389103 0.676253
O O8 0.578165 0.388891 0.745709
O O9 0.354724 0.067407 0.405022
O O10 0.176468 0.000000 0.500000
O O11 0.264353 0.943759 0.354450
O O12 0.947471 0.315770 0.157396
O O13 0.000000 0.350760 0.000000
O O14 0.375535 0.728365 0.277510
O O15 0.598203 0.798929 0.184784
O O16 0.344010 0.848152 0.244679
#
# Coordination Sequence:
#
# PCOD9330804 Si02
#       7
#     8   8   8   8   8   8   8
#     4  11  23  37  57  84 121 157 205 249 298 352
#     4  10  22  38  57  85 119 158 204 244 292 367
#     4  11  20  34  56  84 129 168 197 231 288 359
#     4  12  21  38  52  85 124 161 201 240 286 359
#     4  11  23  37  59  84 119 165 202 247 290 358
#     4  11  22  40  58  82 119 160 207 248 301 352
#     4  10  21  35  53  86 119 164 203 233 293 356
#
# _framework density 19.864121000000001
#
# number of rings (size 3 to 8) (size 9 to 14) (size 15 to 20)
#    0.000    1.143    5.714    2.571    2.000    4.000 
#    0.000    0.000    0.000    0.000    0.000    2.000 
#    0.000    0.000    0.000    0.000    0.000    0.000 
#
# Total GULP energy -156134.761378 kJ/mol
# GULP energy per Si atom -5576.241478 kJ/mol
# Density = 1.981891 g / cm^3
# Si number density = 19.864121 Si / 1000 Ang^3
#
#
#
# Elastic Constant Matrix: (Units=GPa)
#
#
# Indices 1 2 3 4 5 6 
#
# 1 74.7741 47.3594 9.2826 0.0000 0.0000 0.0000
# 2 47.3594 101.3561 24.8271 0.0000 0.0000 0.0000
# 3 9.2826 24.8271 16.7468 0.0000 0.0000 0.0000
# 4 0.0000 0.0000 0.0000 12.3129 0.0000 0.0000
# 5 0.0000 0.0000 0.0000 0.0000 13.0545 0.0000
# 6 0.0000 0.0000 0.0000 0.0000 0.0000 57.1207
#
#
#
# Elastic Compliance Matrix: (Units=1/GPa)
#
#
# Indices 1 2 3 4 5 6 
#
# 1 0.019179 -0.009982 0.004168 0.000000 0.000000 0.000000
# 2 -0.009982 0.020688 -0.025136 0.000000 0.000000 0.000000
# 3 0.004168 -0.025136 0.094667 0.000000 0.000000 0.000000
# 4 0.000000 0.000000 0.000000 0.081216 0.000000 0.000000
# 5 0.000000 0.000000 0.000000 0.000000 0.076602 0.000000
# 6 0.000000 0.000000 0.000000 0.000000 0.000000 0.017507
#
#
# Mechanical properties :
#
#
# Convention : Reuss Voigt Hill
#
# Bulk Modulus (GPa) = 13.76793 39.53502 26.65147
# Shear Modulus (GPa) = 12.62724 23.92480 18.27602
#
# Velocity S-wave (km/s) = 2.52401 3.47424 3.03653
# Velocity P-wave (km/s) = 3.92941 6.00331 5.07346
#
# Compressibility (1/GPa) = 0.07263257
#
# Stress axis : x y z
#
# Youngs Moduli (GPa) = 52.14126 48.33794 10.56335
#
# Poissons Ratio (x) = 0.48253 -0.04403
# Poissons Ratio (y) = 0.52050 0.26552
# Poissons Ratio (z) = -0.21734 1.21504
#
# Static dielectric constant tensor:
#      x y z
#    x 1.713930 0.000000 0.000000 
#    y 0.000000 1.775100 0.000000 
#    z 0.000000 0.000000 1.366860 
# 
# From -- ./inp_files/12245.got.cif
#   From: 2010.05.17/outbox.cif.g08.bks.cpg/sg23_7_cif.got.tgz:12245.got - 2010.06.04 12:02:01.
