data_PCOD9330386
_publ_section_title
;
Structure prediction by ZEFSAII (Michael W. Deem and Ramdas Pophale) SiO2 
 PCOD9330386
Probable space group: I 2 2 2
;
_chemical_formula_sum "Si O2"
_cell_formula_units_Z 64
_cell_length_a 32.329651
_cell_length_b 8.613173
_cell_length_c 12.440151
_cell_angle_alpha 90.000000
_cell_angle_beta 90.000000
_cell_angle_gamma 90.000000
_cell_volume 3464.095359
_symmetry_space_group_name_H-M "I 2 2 2"
_symmetry_group_IT_number 23
_symmetry_cell_setting 'orthorhombic'
loop_
_space_group_symop_operation_xyz
x,y,z
-x,-y,z
x,-y,-z
-x,y,-z
1/2+x,1/2+y,1/2+z
1/2-x,1/2-y,1/2+z
1/2+x,1/2-y,1/2-z
1/2-x,1/2+y,1/2-z
loop_
_atom_site_type_symbol
_atom_site_label
_atom_site_fract_x
_atom_site_fract_y
_atom_site_fract_z
Si Si1 0.715189 0.164055 0.559968
Si Si2 0.001844 0.686545 0.127430
Si Si3 0.364583 0.683019 0.480078
Si Si4 0.417270 0.688158 0.275747
Si Si5 0.124755 0.614435 0.595493
Si Si6 0.803806 0.184620 0.494089
Si Si7 0.911479 0.815838 0.804294
Si Si8 0.331115 0.160141 0.213509
O O1 0.681953 0.262581 0.493927
O O2 0.761553 0.229803 0.555395
O O3 0.694965 0.148808 0.677277
O O4 0.717506 0.000000 0.500000
O O5 0.042668 0.745296 0.190011
O O6 0.000000 0.500000 0.132649
O O7 0.961912 0.761320 0.182281
O O8 0.000000 0.730802 0.000000
O O9 0.365142 0.500000 0.500000
O O10 0.383888 0.732670 0.367654
O O11 0.393904 0.734702 0.577914
O O12 0.406391 0.785426 0.168755
O O13 0.414868 0.499571 0.276976
O O14 0.108012 0.500000 0.500000
O O15 0.155899 0.736160 0.542563
O O16 0.153736 0.504632 0.668904
O O17 0.803409 0.247655 0.372562
O O18 0.808069 0.000000 0.500000
O O19 0.874842 0.749949 0.729918
#
# Coordination Sequence:
#
# PCOD9330386 Si02
#       8
#     8   8   8   8   8   8   8   8
#     4  10  21  35  55  83 114 148 195 245 291 352
#     4  11  22  34  55  90 127 157 188 231 286 356
#     4   9  19  32  51  82 118 152 189 230 284 352
#     4  11  20  35  59  83 117 161 190 238 295 338
#     4  10  22  39  59  82 110 153 203 245 293 355
#     4  10  22  39  57  82 112 149 198 247 292 353
#     4  10  20  36  56  85 120 154 193 231 285 361
#     4  10  21  38  58  81 114 153 191 245 301 346
#
# _framework density 18.475242000000001
#
# number of rings (size 3 to 8) (size 9 to 14) (size 15 to 20)
#    0.000    1.875    1.250    2.625    0.000    6.000 
#    0.000    1.250    0.000    8.625    0.000   11.375 
#    0.000    0.000    0.000    0.000    0.000    0.000 
#
# Total GULP energy -178351.336765 kJ/mol
# GULP energy per Si atom -5573.479274 kJ/mol
# Density = 1.843319 g / cm^3
# Si number density = 18.475242 Si / 1000 Ang^3
#
#
#
# Elastic Constant Matrix: (Units=GPa)
#
#
# Indices 1 2 3 4 5 6 
#
# 1 77.0488 36.8497 48.7972 0.0000 0.0000 0.0000
# 2 36.8497 58.2831 35.8498 0.0000 0.0000 0.0000
# 3 48.7972 35.8498 91.0489 0.0000 0.0000 0.0000
# 4 0.0000 0.0000 0.0000 24.7324 0.0000 0.0000
# 5 0.0000 0.0000 0.0000 0.0000 -90.5362 0.0000
# 6 0.0000 0.0000 0.0000 0.0000 0.0000 22.6804
#
#
#
# Elastic Compliance Matrix: (Units=1/GPa)
#
#
# Indices 1 2 3 4 5 6 
#
# 1 0.022803 -0.009105 -0.008636 0.000000 0.000000 0.000000
# 2 -0.009105 0.026277 -0.005466 0.000000 0.000000 0.000000
# 3 -0.008636 -0.005466 0.017764 0.000000 0.000000 0.000000
# 4 0.000000 0.000000 0.000000 0.040433 0.000000 0.000000
# 5 0.000000 0.000000 0.000000 0.000000 -0.011045 0.000000
# 6 0.000000 0.000000 0.000000 0.000000 0.000000 0.044091
#
#
# Mechanical properties :
#
#
# Convention : Reuss Voigt Hill
#
# Bulk Modulus (GPa) = 48.95153 52.15268 50.55210
# Shear Modulus (GPa) = 25.83357 -1.63239 12.10059
#
# Velocity S-wave (km/s) = 3.74342 -0.94100 2.56200
# Velocity P-wave (km/s) = 6.72588 5.20664 6.01442
#
# Compressibility (1/GPa) = 0.02042837
#
# Stress axis : x y z
#
# Youngs Moduli (GPa) = 43.85410 38.05633 56.29408
#
# Poissons Ratio (x) = 0.34651 0.48615
# Poissons Ratio (y) = 0.39930 0.30773
# Poissons Ratio (z) = 0.37872 0.20803
#
# Static dielectric constant tensor:
#      x y z
#    x 1.629860 0.000000 0.000000 
#    y 0.000000 1.672210 0.000000 
#    z 0.000000 0.000000 1.685780 
# 
# From -- ./inp_files/18817.got.cif
#   From: 2010.05.17/outbox.cif.g08.bks.cpg/sg23_10_cif.got.tgz:18817.got - 2010.06.04 12:02:01.
