data_PCOD9330255
_publ_section_title
;
Structure prediction by ZEFSAII (Michael W. Deem and Ramdas Pophale) SiO2 
 PCOD9330255
Probable space group: I 2 2 2
;
_chemical_formula_sum "Si O2"
_cell_formula_units_Z 36
_cell_length_a 16.526105
_cell_length_b 21.986019
_cell_length_c 4.934734
_cell_angle_alpha 90.000000
_cell_angle_beta 90.000000
_cell_angle_gamma 90.000000
_cell_volume 1793.002332
_symmetry_space_group_name_H-M "I 2 2 2"
_symmetry_group_IT_number 23
_symmetry_cell_setting 'orthorhombic'
loop_
_space_group_symop_operation_xyz
x,y,z
-x,-y,z
x,-y,-z
-x,y,-z
1/2+x,1/2+y,1/2+z
1/2-x,1/2-y,1/2+z
1/2+x,1/2-y,1/2-z
1/2-x,1/2+y,1/2-z
loop_
_atom_site_type_symbol
_atom_site_label
_atom_site_fract_x
_atom_site_fract_y
_atom_site_fract_z
Si Si1 0.627021 0.237659 0.669813
Si Si2 0.000000 0.676674 0.500000
Si Si3 0.906388 0.070513 0.440769
Si Si4 0.663925 0.370022 0.447340
Si Si5 0.330304 0.167013 0.847125
O O1 0.536410 0.219545 0.764452
O O2 0.673062 0.227022 0.956083
O O3 0.664413 0.189132 0.460011
O O4 0.634479 0.302938 0.536071
O O5 0.079892 0.641105 0.590250
O O6 0.887420 0.084069 0.130136
O O7 0.743700 0.127023 0.052917
O O8 0.000000 0.084224 0.500000
O O9 0.890783 0.000000 0.500000
O O10 0.647853 0.386976 0.137026
#
# Coordination Sequence:
#
# PCOD9330255 Si02
#       5
#     8   4   8   8   8
#     4  10  20  34  53  86 126 158 192 226 278 351
#     4   8  22  32  54  78 136 156 182 228 284 342
#     4  11  26  44  59  82 113 150 205 261 306 350
#     4  12  22  37  64  85 113 160 203 242 300 346
#     4  10  20  35  54  88 122 161 190 232 282 354
#
# _framework density 20.078057000000001
#
# number of rings (size 3 to 8) (size 9 to 14) (size 15 to 20)
#    1.333    0.222    0.000    6.000    1.556    3.556 
#    0.000    0.000    0.000    0.000    0.000    4.667 
#    0.000    0.000    0.000    0.000    0.000    0.000 
#
# Total GULP energy -100321.003690 kJ/mol
# GULP energy per Si atom -5573.389094 kJ/mol
# Density = 2.003236 g / cm^3
# Si number density = 20.078057 Si / 1000 Ang^3
#
#
#
# Elastic Constant Matrix: (Units=GPa)
#
#
# Indices 1 2 3 4 5 6 
#
# 1 114.7301 11.6930 4.5232 0.0000 0.0000 0.0000
# 2 11.6930 22.6489 -7.8260 0.0000 0.0000 0.0000
# 3 4.5232 -7.8260 85.2034 0.0000 0.0000 0.0000
# 4 0.0000 0.0000 0.0000 17.4715 0.0000 0.0000
# 5 0.0000 0.0000 0.0000 0.0000 30.6836 0.0000
# 6 0.0000 0.0000 0.0000 0.0000 0.0000 13.1163
#
#
#
# Elastic Compliance Matrix: (Units=1/GPa)
#
#
# Indices 1 2 3 4 5 6 
#
# 1 0.009276 -0.005122 -0.000963 0.000000 0.000000 0.000000
# 2 -0.005122 0.048427 0.004720 0.000000 0.000000 0.000000
# 3 -0.000963 0.004720 0.012221 0.000000 0.000000 0.000000
# 4 0.000000 0.000000 0.000000 0.057236 0.000000 0.000000
# 5 0.000000 0.000000 0.000000 0.000000 0.032591 0.000000
# 6 0.000000 0.000000 0.000000 0.000000 0.000000 0.076241
#
#
# Mechanical properties :
#
#
# Convention : Reuss Voigt Hill
#
# Bulk Modulus (GPa) = 14.88192 26.59585 20.73889
# Shear Modulus (GPa) = 19.14827 26.53376 22.84102
#
# Velocity S-wave (km/s) = 3.09154 3.63923 3.37651
# Velocity P-wave (km/s) = 4.49128 5.56180 5.05496
#
# Compressibility (1/GPa) = 0.06719564
#
# Stress axis : x y z
#
# Youngs Moduli (GPa) = 107.80438 20.64946 81.82453
#
# Poissons Ratio (x) = 0.10576 0.07879
# Poissons Ratio (y) = 0.55214 -0.38621
# Poissons Ratio (z) = 0.10380 -0.09747
#
# Static dielectric constant tensor:
#      x y z
#    x 1.795020 0.000000 0.000000 
#    y 0.000000 1.676870 0.000000 
#    z 0.000000 0.000000 1.722920 
# 
# From -- ./inp_files/2317.got.cif
#   From: 2010.05.17/outbox.cif.g08.bks.cpg/sg23_2_cif.got.tgz:2317.got - 2010.06.04 12:02:01.
