data_PCOD9330164
_publ_section_title
;
Structure prediction by ZEFSAII (Michael W. Deem and Ramdas Pophale) SiO2 
 PCOD9330164
Probable space group: I 2 2 2
;
_chemical_formula_sum "Si O2"
_cell_formula_units_Z 34
_cell_length_a 9.476836
_cell_length_b 18.506801
_cell_length_c 8.093358
_cell_angle_alpha 90.000000
_cell_angle_beta 90.000000
_cell_angle_gamma 90.000000
_cell_volume 1419.461022
_symmetry_space_group_name_H-M "I 2 2 2"
_symmetry_group_IT_number 23
_symmetry_cell_setting 'orthorhombic'
loop_
_space_group_symop_operation_xyz
x,y,z
-x,-y,z
x,-y,-z
-x,y,-z
1/2+x,1/2+y,1/2+z
1/2-x,1/2-y,1/2+z
1/2+x,1/2-y,1/2-z
1/2-x,1/2+y,1/2-z
loop_
_atom_site_type_symbol
_atom_site_label
_atom_site_fract_x
_atom_site_fract_y
_atom_site_fract_z
Si Si1 0.665922 0.105058 0.941521
Si Si2 0.736291 0.974255 0.728816
Si Si3 0.339115 0.265832 0.440961
Si Si4 0.500000 0.000000 0.500000
Si Si5 0.353809 0.656724 0.914875
O O1 0.709704 0.057744 0.780593
O O2 0.500000 0.107270 0.000000
O O3 0.735682 0.063418 0.095078
O O4 0.740122 0.182000 0.947338
O O5 0.851592 0.929607 0.625154
O O6 0.598918 0.955152 0.621075
O O7 0.500000 0.265527 0.500000
O O8 0.337275 0.301438 0.259582
O O9 0.269569 0.187631 0.467744
O O10 0.500000 0.675859 0.000000
#
# Coordination Sequence:
#
# PCOD9330164 Si02
#       5
#     8   8   8   2   8
#     4  10  19  44  70  97 138 188 239 279 356 438
#     4  10  22  38  68  98 138 181 234 287 348 425
#     4  11  25  43  73 103 141 194 239 299 362 438
#     4  12  20  34  58 104 132 182 214 290 348 402
#     4  11  25  47  68 105 143 190 242 300 366 429
#
# _framework density 23.952753000000001
#
# number of rings (size 3 to 8) (size 9 to 14) (size 15 to 20)
#    0.000    1.412    2.353    2.824    1.647    5.647 
#    0.000   14.706    0.000    0.000    0.000    0.000 
#    0.000    0.000    0.000    0.000    0.000    0.000 
#
# Total GULP energy -94746.736597 kJ/mol
# GULP energy per Si atom -5573.337447 kJ/mol
# Density = 2.389824 g / cm^3
# Si number density = 23.952753 Si / 1000 Ang^3
#
#
#
# Elastic Constant Matrix: (Units=GPa)
#
#
# Indices 1 2 3 4 5 6 
#
# 1 71.8232 60.9594 29.3576 0.0000 -0.0001 0.0000
# 2 60.9594 149.9732 64.3673 0.0001 0.0001 -0.0001
# 3 29.3576 64.3673 117.6232 -0.0003 0.0006 -0.0005
# 4 0.0000 0.0001 -0.0003 3.4280 0.0002 -0.0002
# 5 -0.0001 0.0001 0.0006 0.0002 30.7549 -0.0001
# 6 0.0000 -0.0001 -0.0005 -0.0002 -0.0001 23.4212
#
#
#
# Elastic Compliance Matrix: (Units=1/GPa)
#
#
# Indices 1 2 3 4 5 6 
#
# 1 0.021308 -0.008336 -0.000756 0.000000 0.000000 0.000000
# 2 -0.008336 0.011976 -0.004473 -0.000001 0.000000 0.000000
# 3 -0.000756 -0.004473 0.011138 0.000001 0.000000 0.000000
# 4 0.000000 -0.000001 0.000001 0.291714 -0.000002 0.000002
# 5 0.000000 0.000000 0.000000 -0.000002 0.032515 0.000000
# 6 0.000000 0.000000 0.000000 0.000002 0.000000 0.042696
#
#
# Mechanical properties :
#
#
# Convention : Reuss Voigt Hill
#
# Bulk Modulus (GPa) = 57.83449 72.08759 64.96104
# Shear Modulus (GPa) = 11.25513 23.83652 17.54582
#
# Velocity S-wave (km/s) = 2.17004 3.15802 2.70944
# Velocity P-wave (km/s) = 5.52055 6.59231 6.08009
#
# Compressibility (1/GPa) = 0.01729072
#
# Stress axis : x y z
#
# Youngs Moduli (GPa) = 46.93177 83.49975 89.78041
#
# Poissons Ratio (x) = 0.69608 0.06790
# Poissons Ratio (y) = 0.39124 0.40159
# Poissons Ratio (z) = 0.03549 0.37350
#
# Static dielectric constant tensor:
#      x y z
#    x 1.872650 0.000000 0.000000 
#    y 0.000000 2.030430 0.000000 
#    z 0.000000 0.000000 1.894780 
# 
# From -- ./inp_files/6686.got.cif
#   From: 2010.05.17/outbox.cif.g08.bks.cpg/sg23_4_cif.got.tgz:6686.got - 2010.06.04 12:02:01.
