data_PCOD9330396
_publ_section_title
;
Structure prediction by ZEFSAII (Michael W. Deem and Ramdas Pophale) SiO2 
 PCOD9330396
Probable space group: I 2 2 2
;
_chemical_formula_sum "Si O2"
_cell_formula_units_Z 52
_cell_length_a 18.880065
_cell_length_b 15.291483
_cell_length_c 8.809053
_cell_angle_alpha 90.000000
_cell_angle_beta 90.000000
_cell_angle_gamma 90.000000
_cell_volume 2543.210537
_symmetry_space_group_name_H-M "I 2 2 2"
_symmetry_group_IT_number 23
_symmetry_cell_setting 'orthorhombic'
loop_
_space_group_symop_operation_xyz
x,y,z
-x,-y,z
x,-y,-z
-x,y,-z
1/2+x,1/2+y,1/2+z
1/2-x,1/2-y,1/2+z
1/2+x,1/2-y,1/2-z
1/2-x,1/2+y,1/2-z
loop_
_atom_site_type_symbol
_atom_site_label
_atom_site_fract_x
_atom_site_fract_y
_atom_site_fract_z
Si Si1 0.038487 0.668386 0.848162
Si Si2 0.671209 0.165590 0.529359
Si Si3 0.591932 0.105987 0.819037
Si Si4 0.768466 0.159690 0.113693
Si Si5 0.685283 0.000000 0.000000
Si Si6 0.178863 0.904676 0.437068
Si Si7 0.117674 0.259991 0.409680
O O1 0.062123 0.740083 0.726496
O O2 0.984443 0.604879 0.760244
O O3 0.111249 0.630628 0.915459
O O4 0.000000 0.702376 0.000000
O O5 0.642438 0.152712 0.698222
O O6 0.686015 0.269683 0.520665
O O7 0.743326 0.114611 0.505010
O O8 0.631101 0.016327 0.861742
O O9 0.593114 0.165362 0.970662
O O10 0.736394 0.082133 0.014247
O O11 0.808384 0.117310 0.258067
O O12 0.695693 0.212492 0.154919
O O13 0.127455 0.830407 0.503411
O O14 0.158038 0.000000 0.500000
#
# Coordination Sequence:
#
# PCOD9330396 Si02
#       7
#     8   8   8   8   4   8   8
#     4  10  21  37  63  88 113 165 211 247 295 375
#     4  10  20  37  61  88 127 162 210 249 313 373
#     4  10  20  38  61  87 124 165 209 250 299 382
#     4  10  20  36  58  92 125 165 203 261 306 380
#     4  10  22  36  63  94 133 164 202 260 326 362
#     4  11  21  34  62  91 126 153 201 268 316 361
#     4  10  20  37  60  86 119 161 210 247 303 367
#
# _framework density 20.446596
#
# number of rings (size 3 to 8) (size 9 to 14) (size 15 to 20)
#    0.000    1.846    3.077    1.385    0.000    1.231 
#    0.000    6.154    6.769    1.846    8.000    0.000 
#    0.000    0.000    0.000    0.000    0.000    0.000 
#
# Total GULP energy -144984.650234 kJ/mol
# GULP energy per Si atom -5576.332701 kJ/mol
# Density = 2.040006 g / cm^3
# Si number density = 20.446596 Si / 1000 Ang^3
#
#
#
# Elastic Constant Matrix: (Units=GPa)
#
#
# Indices 1 2 3 4 5 6 
#
# 1 51.4070 4.8200 21.9207 0.0000 0.0000 0.0000
# 2 4.8200 74.0591 9.3564 0.0000 0.0000 0.0000
# 3 21.9207 9.3564 90.0019 0.0000 0.0000 0.0000
# 4 0.0000 0.0000 0.0000 20.8709 0.0000 0.0000
# 5 0.0000 0.0000 0.0000 0.0000 39.0755 0.0000
# 6 0.0000 0.0000 0.0000 0.0000 0.0000 9.9866
#
#
#
# Elastic Compliance Matrix: (Units=1/GPa)
#
#
# Indices 1 2 3 4 5 6 
#
# 1 0.021749 -0.000756 -0.005218 0.000000 0.000000 0.000000
# 2 -0.000756 0.013709 -0.001241 0.000000 0.000000 0.000000
# 3 -0.005218 -0.001241 0.012511 0.000000 0.000000 0.000000
# 4 0.000000 0.000000 0.000000 0.047914 0.000000 0.000000
# 5 0.000000 0.000000 0.000000 0.000000 0.025592 0.000000
# 6 0.000000 0.000000 0.000000 0.000000 0.000000 0.100134
#
#
# Mechanical properties :
#
#
# Convention : Reuss Voigt Hill
#
# Bulk Modulus (GPa) = 29.81770 31.96246 30.89008
# Shear Modulus (GPa) = 20.22510 25.94466 23.08488
#
# Velocity S-wave (km/s) = 3.14851 3.56603 3.36375
# Velocity P-wave (km/s) = 5.27564 5.71152 5.49790
#
# Compressibility (1/GPa) = 0.03353712
#
# Stress axis : x y z
#
# Youngs Moduli (GPa) = 45.97962 72.94627 79.93034
#
# Poissons Ratio (x) = 0.05516 0.41712
# Poissons Ratio (y) = 0.03477 0.09919
# Poissons Ratio (z) = 0.23994 0.09052
#
# Static dielectric constant tensor:
#      x y z
#    x 1.750190 0.000000 0.000000 
#    y 0.000000 1.718510 0.000000 
#    z 0.000000 0.000000 1.773420 
# 
# From -- ./inp_files/12010.got.cif
#   From: 2010.05.17/outbox.cif.g08.bks.cpg/sg23_7_cif.got.tgz:12010.got - 2010.06.04 12:02:01.
