data_PCOD9330937
_publ_section_title
;
Structure prediction by ZEFSAII (Michael W. Deem and Ramdas Pophale) SiO2 
 PCOD9330937
Probable space group: I 2 2 2
;
_chemical_formula_sum "Si O2"
_cell_formula_units_Z 40
_cell_length_a 15.281909
_cell_length_b 13.881672
_cell_length_c 8.747836
_cell_angle_alpha 90.000000
_cell_angle_beta 90.000000
_cell_angle_gamma 90.000000
_cell_volume 1855.752355
_symmetry_space_group_name_H-M "I 2 2 2"
_symmetry_group_IT_number 23
_symmetry_cell_setting 'orthorhombic'
loop_
_space_group_symop_operation_xyz
x,y,z
-x,-y,z
x,-y,-z
-x,y,-z
1/2+x,1/2+y,1/2+z
1/2-x,1/2-y,1/2+z
1/2+x,1/2-y,1/2-z
1/2-x,1/2+y,1/2-z
loop_
_atom_site_type_symbol
_atom_site_label
_atom_site_fract_x
_atom_site_fract_y
_atom_site_fract_z
Si Si1 0.676703 0.758409 0.322353
Si Si2 0.508429 0.732890 0.835324
Si Si3 0.833801 0.832700 0.141679
Si Si4 0.765782 0.467245 0.157961
Si Si5 0.414896 0.944833 0.160198
O O1 0.588991 0.747275 0.226012
O O2 0.764145 0.757916 0.219594
O O3 0.675005 0.684996 0.462574
O O4 0.680646 0.869011 0.381127
O O5 0.570165 0.684294 0.709162
O O6 0.556584 0.835439 0.865483
O O7 0.500000 0.682456 0.000000
O O8 0.799838 0.933758 0.209206
O O9 0.834154 0.541362 0.228135
O O10 0.723307 0.500000 0.000000
O O11 0.500000 0.000000 0.224822
O O12 0.395522 0.000000 0.000000
#
# Coordination Sequence:
#
# PCOD9330937 Si02
#       5
#     8   8   8   8   8
#     4  10  21  38  59  90 129 161 209 257 313 378
#     4  12  21  37  62  95 129 164 204 257 318 378
#     4  10  23  37  58  89 122 167 208 250 317 374
#     4  10  22  38  56  86 124 160 205 253 312 373
#     4  11  19  34  55  91 129 158 196 249 321 379
#
# _framework density 21.554600000000001
#
# number of rings (size 3 to 8) (size 9 to 14) (size 15 to 20)
#    1.200    0.200    4.000    3.000    2.800    0.400 
#    0.000    0.000    0.000    0.600    0.000    0.000 
#    0.000    0.000    0.000    0.000    0.000    0.000 
#
# Total GULP energy -111592.310950 kJ/mol
# GULP energy per Si atom -5579.615547 kJ/mol
# Density = 2.150554 g / cm^3
# Si number density = 21.554600 Si / 1000 Ang^3
#
#
#
# Elastic Constant Matrix: (Units=GPa)
#
#
# Indices 1 2 3 4 5 6 
#
# 1 62.4621 1.1655 2.8551 0.0000 0.0000 0.0000
# 2 1.1655 23.2114 11.5400 0.0000 0.0000 0.0000
# 3 2.8551 11.5400 90.5736 0.0000 0.0000 0.0000
# 4 0.0000 0.0000 0.0000 29.3535 0.0000 0.0000
# 5 0.0000 0.0000 0.0000 0.0000 28.2913 0.0000
# 6 0.0000 0.0000 0.0000 0.0000 0.0000 12.6022
#
#
#
# Elastic Compliance Matrix: (Units=1/GPa)
#
#
# Indices 1 2 3 4 5 6 
#
# 1 0.016040 -0.000592 -0.000430 0.000000 0.000000 0.000000
# 2 -0.000592 0.046018 -0.005844 0.000000 0.000000 0.000000
# 3 -0.000430 -0.005844 0.011799 0.000000 0.000000 0.000000
# 4 0.000000 0.000000 0.000000 0.034068 0.000000 0.000000
# 5 0.000000 0.000000 0.000000 0.000000 0.035346 0.000000
# 6 0.000000 0.000000 0.000000 0.000000 0.000000 0.079351
#
#
# Mechanical properties :
#
#
# Convention : Reuss Voigt Hill
#
# Bulk Modulus (GPa) = 16.63216 23.04092 19.83654
# Shear Modulus (GPa) = 19.50106 24.76184 22.13145
#
# Velocity S-wave (km/s) = 3.01113 3.39307 3.20779
# Velocity P-wave (km/s) = 4.45222 5.10522 4.78986
#
# Compressibility (1/GPa) = 0.06012450
#
# Stress axis : x y z
#
# Youngs Moduli (GPa) = 62.34254 21.73079 84.75328
#
# Poissons Ratio (x) = 0.01285 0.03647
# Poissons Ratio (y) = 0.03688 0.49534
# Poissons Ratio (z) = 0.02682 0.12701
#
# Static dielectric constant tensor:
#      x y z
#    x 1.741460 0.000000 0.000000 
#    y 0.000000 1.843690 0.000000 
#    z 0.000000 0.000000 1.803650 
# 
# From -- ./inp_files/9779.got.cif
#   From: 2010.05.17/outbox.cif.g08.bks.cpg/sg23_5_cif.got.tgz:9779.got - 2010.06.04 12:02:01.
