data_PCOD9330985
_publ_section_title
;
Structure prediction by ZEFSAII (Michael W. Deem and Ramdas Pophale) SiO2 
 PCOD9330985
Probable space group: I 2 2 2
;
_chemical_formula_sum "Si O2"
_cell_formula_units_Z 40
_cell_length_a 18.339628
_cell_length_b 10.607802
_cell_length_c 9.486180
_cell_angle_alpha 90.000000
_cell_angle_beta 90.000000
_cell_angle_gamma 90.000000
_cell_volume 1845.471268
_symmetry_space_group_name_H-M "I 2 2 2"
_symmetry_group_IT_number 23
_symmetry_cell_setting 'orthorhombic'
loop_
_space_group_symop_operation_xyz
x,y,z
-x,-y,z
x,-y,-z
-x,y,-z
1/2+x,1/2+y,1/2+z
1/2-x,1/2-y,1/2+z
1/2+x,1/2-y,1/2-z
1/2-x,1/2+y,1/2-z
loop_
_atom_site_type_symbol
_atom_site_label
_atom_site_fract_x
_atom_site_fract_y
_atom_site_fract_z
Si Si1 0.872323 0.615860 0.823673
Si Si2 0.396396 0.778133 0.985634
Si Si3 0.878553 0.000000 0.500000
Si Si4 0.225493 0.802670 0.008366
Si Si5 0.273633 0.482487 0.733842
Si Si6 0.000000 0.500000 0.000000
Si Si7 0.500000 0.000000 0.000000
O O1 0.894812 0.688810 0.681178
O O2 0.825923 0.692316 0.939683
O O3 0.811711 0.513761 0.775133
O O4 0.945624 0.573819 0.897794
O O5 0.442255 0.892866 0.057676
O O6 0.420070 0.633704 0.008822
O O7 0.311240 0.777478 0.026167
O O8 0.825744 0.004310 0.364454
O O9 0.209339 0.914117 0.117337
O O10 0.215007 0.849684 0.848167
#
# Coordination Sequence:
#
# PCOD9330985 Si02
#       7
#     8   8   4   8   8   2   2
#     4  11  22  41  65 102 142 183 244 288 358 428
#     4  11  24  43  71 103 140 191 236 301 355 433
#     4  12  21  39  70 106 128 178 242 296 347 403
#     4  10  21  40  69 101 137 185 232 295 359 414
#     4  10  21  38  67 100 137 177 235 300 345 413
#     4  12  28  40  64 102 148 204 232 292 358 438
#     4  12  26  50  64  94 156 186 232 288 374 444
#
# _framework density 21.674681
#
# number of rings (size 3 to 8) (size 9 to 14) (size 15 to 20)
#    0.000    1.200    4.000    3.600    0.000    0.400 
#    7.200    0.000    0.000    2.400    0.000    0.000 
#    0.000    0.000    0.000    0.000    0.000    0.000 
#
# Total GULP energy -111591.856878 kJ/mol
# GULP energy per Si atom -5579.592844 kJ/mol
# Density = 2.162535 g / cm^3
# Si number density = 21.674681 Si / 1000 Ang^3
#
#
#
# Elastic Constant Matrix: (Units=GPa)
#
#
# Indices 1 2 3 4 5 6 
#
# 1 143.5420 40.8894 43.0328 0.0000 0.0000 0.0000
# 2 40.8894 111.1681 22.5629 0.0000 0.0000 0.0000
# 3 43.0328 22.5629 111.2982 0.0000 0.0000 0.0000
# 4 0.0000 0.0000 0.0000 28.8201 0.0000 0.0000
# 5 0.0000 0.0000 0.0000 0.0000 23.3435 0.0000
# 6 0.0000 0.0000 0.0000 0.0000 0.0000 29.5456
#
#
#
# Elastic Compliance Matrix: (Units=1/GPa)
#
#
# Indices 1 2 3 4 5 6 
#
# 1 0.008533 -0.002575 -0.002777 0.000000 0.000000 0.000000
# 2 -0.002575 0.010158 -0.001064 0.000000 0.000000 0.000000
# 3 -0.002777 -0.001064 0.010274 0.000000 0.000000 0.000000
# 4 0.000000 0.000000 0.000000 0.034698 0.000000 0.000000
# 5 0.000000 0.000000 0.000000 0.000000 0.042838 0.000000
# 6 0.000000 0.000000 0.000000 0.000000 0.000000 0.033846
#
#
# Mechanical properties :
#
#
# Convention : Reuss Voigt Hill
#
# Bulk Modulus (GPa) = 61.98161 64.33092 63.15626
# Shear Modulus (GPa) = 31.53440 33.64340 32.58890
#
# Velocity S-wave (km/s) = 3.81845 3.94407 3.88177
# Velocity P-wave (km/s) = 6.93535 7.10532 7.02085
#
# Compressibility (1/GPa) = 0.01613382
#
# Stress axis : x y z
#
# Youngs Moduli (GPa) = 117.19738 98.44118 97.33031
#
# Poissons Ratio (x) = 0.25346 0.27030
# Poissons Ratio (y) = 0.30176 0.10354
# Poissons Ratio (z) = 0.32547 0.10472
#
# Static dielectric constant tensor:
#      x y z
#    x 1.766880 0.000000 0.000000 
#    y 0.000000 1.906630 0.000000 
#    z 0.000000 0.000000 1.804730 
# 
# From -- ./inp_files/10800.got.cif
#   From: 2010.05.17/outbox.cif.g08.bks.cpg/sg23_6_cif.got.tgz:10800.got - 2010.06.04 12:02:01.
