data_PCOD9330340
_publ_section_title
;
Structure prediction by ZEFSAII (Michael W. Deem and Ramdas Pophale) SiO2 
 PCOD9330340
Probable space group: I 2 2 2
;
_chemical_formula_sum "Si O2"
_cell_formula_units_Z 32
_cell_length_a 7.451813
_cell_length_b 5.027791
_cell_length_c 37.444994
_cell_angle_alpha 90.000000
_cell_angle_beta 90.000000
_cell_angle_gamma 90.000000
_cell_volume 1402.920074
_symmetry_space_group_name_H-M "I 2 2 2"
_symmetry_group_IT_number 23
_symmetry_cell_setting 'orthorhombic'
loop_
_space_group_symop_operation_xyz
x,y,z
-x,-y,z
x,-y,-z
-x,y,-z
1/2+x,1/2+y,1/2+z
1/2-x,1/2-y,1/2+z
1/2+x,1/2-y,1/2-z
1/2-x,1/2+y,1/2-z
loop_
_atom_site_type_symbol
_atom_site_label
_atom_site_fract_x
_atom_site_fract_y
_atom_site_fract_z
Si Si1 0.201482 0.105486 0.228073
Si Si2 0.284029 0.514803 0.085635
Si Si3 0.218189 0.521012 0.459377
Si Si4 0.618745 0.238446 0.343401
O O1 0.199085 0.364719 0.252730
O O2 0.257938 0.176028 0.187576
O O3 0.000000 0.000000 0.223940
O O4 0.500000 0.500000 0.089493
O O5 0.231875 0.307210 0.055162
O O6 0.202143 0.404273 0.122165
O O7 0.228486 0.800736 0.070077
O O8 0.281966 0.500000 0.500000
O O9 0.000000 0.500000 0.460617
O O10 0.500000 0.500000 0.352750
O O11 0.500000 0.000000 0.326630
#
# Coordination Sequence:
#
# PCOD9330340 Si02
#       4
#     8   8   8   8
#     4  11  23  42  65  91 121 159 204 251 305 365
#     4  10  20  35  58  87 116 152 202 248 291 352
#     4   9  17  31  54  85 118 150 190 247 304 346
#     4  11  23  41  61  85 122 164 198 240 309 373
#
# _framework density 22.809567000000001
#
# number of rings (size 3 to 8) (size 9 to 14) (size 15 to 20)
#    0.000    1.750    0.000    6.000    0.000    4.000 
#    0.000   10.000    0.000   11.250    0.000    0.000 
#    0.000    0.000    0.000    0.000    0.000    0.000 
#
# Total GULP energy -89396.132767 kJ/mol
# GULP energy per Si atom -5587.258298 kJ/mol
# Density = 2.275765 g / cm^3
# Si number density = 22.809567 Si / 1000 Ang^3
#
#
#
# Elastic Constant Matrix: (Units=GPa)
#
#
# Indices 1 2 3 4 5 6 
#
# 1 37.3996 15.3747 22.1132 0.0000 0.0000 0.0000
# 2 15.3747 136.1738 38.2399 0.0000 0.0000 0.0000
# 3 22.1132 38.2399 163.7840 0.0000 0.0000 0.0000
# 4 0.0000 0.0000 0.0000 44.1614 0.0000 0.0000
# 5 0.0000 0.0000 0.0000 0.0000 0.5370 0.0000
# 6 0.0000 0.0000 0.0000 0.0000 0.0000 26.8329
#
#
#
# Elastic Compliance Matrix: (Units=1/GPa)
#
#
# Indices 1 2 3 4 5 6 
#
# 1 0.029767 -0.002389 -0.003461 0.000000 0.000000 0.000000
# 2 -0.002389 0.008051 -0.001557 0.000000 0.000000 0.000000
# 3 -0.003461 -0.001557 0.006936 0.000000 0.000000 0.000000
# 4 0.000000 0.000000 0.000000 0.022644 0.000000 0.000000
# 5 0.000000 0.000000 0.000000 0.000000 1.862265 0.000000
# 6 0.000000 0.000000 0.000000 0.000000 0.000000 0.037268
#
#
# Mechanical properties :
#
#
# Convention : Reuss Voigt Hill
#
# Bulk Modulus (GPa) = 33.40069 54.31257 43.85663
# Shear Modulus (GPa) = 2.51039 31.74821 17.12930
#
# Velocity S-wave (km/s) = 1.05023 3.73484 2.74336
# Velocity P-wave (km/s) = 4.01817 6.51626 5.41329
#
# Compressibility (1/GPa) = 0.02993950
#
# Stress axis : x y z
#
# Youngs Moduli (GPa) = 33.59444 124.21544 144.16571
#
# Poissons Ratio (x) = 0.29673 0.49899
# Poissons Ratio (y) = 0.08025 0.22448
# Poissons Ratio (z) = 0.11628 0.19341
#
# Static dielectric constant tensor:
#      x y z
#    x 1.909300 0.000000 0.000000 
#    y 0.000000 1.819380 0.000000 
#    z 0.000000 0.000000 1.861010 
# 
# From -- ./inp_files/731.got.cif
#   From: 2010.05.17/outbox.cif.g08.bks.cpg/sg23_1_cif.got.tgz:731.got - 2010.06.04 12:02:01.
