data_PCOD9330150
_publ_section_title
;
Structure prediction by ZEFSAII (Michael W. Deem and Ramdas Pophale) SiO2 
 PCOD9330150
Probable space group: I 2 2 2
;
_chemical_formula_sum "Si O2"
_cell_formula_units_Z 48
_cell_length_a 13.871770
_cell_length_b 21.405768
_cell_length_c 7.398571
_cell_angle_alpha 90.000000
_cell_angle_beta 90.000000
_cell_angle_gamma 90.000000
_cell_volume 2196.901267
_symmetry_space_group_name_H-M "I 2 2 2"
_symmetry_group_IT_number 23
_symmetry_cell_setting 'orthorhombic'
loop_
_space_group_symop_operation_xyz
x,y,z
-x,-y,z
x,-y,-z
-x,y,-z
1/2+x,1/2+y,1/2+z
1/2-x,1/2-y,1/2+z
1/2+x,1/2-y,1/2-z
1/2-x,1/2+y,1/2-z
loop_
_atom_site_type_symbol
_atom_site_label
_atom_site_fract_x
_atom_site_fract_y
_atom_site_fract_z
Si Si1 0.957548 0.887477 0.699110
Si Si2 0.103312 0.230983 0.937130
Si Si3 0.099563 0.475480 0.794795
Si Si4 0.241742 0.070455 0.787814
Si Si5 0.841460 0.881291 0.157635
Si Si6 0.689013 0.138036 0.559089
O O1 0.916282 0.821492 0.781857
O O2 0.867261 0.934450 0.710225
O O3 0.000000 0.878856 0.500000
O O4 0.050256 0.906839 0.819125
O O5 0.170623 0.289664 0.904318
O O6 0.143690 0.190811 0.103119
O O7 0.000000 0.256683 0.000000
O O8 0.192573 0.509184 0.712128
O O9 0.109254 0.401842 0.829273
O O10 0.000000 0.500000 0.711859
O O11 0.101277 0.500000 0.000000
O O12 0.298308 0.118332 0.651369
O O13 0.220659 0.092705 0.991013
O O14 0.786334 0.884530 0.344630
#
# Coordination Sequence:
#
# PCOD9330150 Si02
#       6
#     8   8   8   8   8   8
#     4  10  19  41  65  94 130 165 207 272 331 393
#     4   9  22  37  58  90 129 162 207 259 318 381
#     4   9  21  41  65  91 126 169 216 265 315 376
#     4  10  21  39  65  89 125 165 212 265 322 377
#     4  10  22  38  61  96 126 160 210 262 323 386
#     4  11  22  38  63  89 124 169 209 255 320 382
#
# _framework density 21.848956000000001
#
# number of rings (size 3 to 8) (size 9 to 14) (size 15 to 20)
#    0.000    2.167    1.667    1.500    9.333    0.667 
#    3.000    2.500    0.000    6.000    0.000    0.000 
#    0.000    0.000    0.000    0.000    0.000    0.000 
#
# Total GULP energy -133764.970470 kJ/mol
# GULP energy per Si atom -5573.540436 kJ/mol
# Density = 2.179923 g / cm^3
# Si number density = 21.848956 Si / 1000 Ang^3
#
#
#
# Elastic Constant Matrix: (Units=GPa)
#
#
# Indices 1 2 3 4 5 6 
#
# 1 115.4197 43.6434 25.8937 0.0000 0.0000 0.0000
# 2 43.6434 55.5841 13.8030 0.0000 0.0000 0.0000
# 3 25.8937 13.8030 103.1167 -0.0001 0.0000 0.0000
# 4 0.0000 0.0000 -0.0001 15.1514 0.0000 0.0000
# 5 0.0000 0.0000 0.0000 0.0000 24.2886 0.0000
# 6 0.0000 0.0000 0.0000 0.0000 0.0000 20.7819
#
#
#
# Elastic Compliance Matrix: (Units=1/GPa)
#
#
# Indices 1 2 3 4 5 6 
#
# 1 0.012678 -0.009479 -0.001915 0.000000 0.000000 0.000000
# 2 -0.009479 0.025696 -0.001059 0.000000 0.000000 0.000000
# 3 -0.001915 -0.001059 0.010320 0.000000 0.000000 0.000000
# 4 0.000000 0.000000 0.000000 0.066000 0.000000 0.000000
# 5 0.000000 0.000000 0.000000 0.000000 0.041172 0.000000
# 6 0.000000 0.000000 0.000000 0.000000 0.000000 0.048119
#
#
# Mechanical properties :
#
#
# Convention : Reuss Voigt Hill
#
# Bulk Modulus (GPa) = 42.03693 48.97785 45.50739
# Shear Modulus (GPa) = 21.11301 24.76308 22.93805
#
# Velocity S-wave (km/s) = 3.11194 3.37022 3.24365
# Velocity P-wave (km/s) = 5.67395 6.13268 5.90777
#
# Compressibility (1/GPa) = 0.02378861
#
# Stress axis : x y z
#
# Youngs Moduli (GPa) = 78.87806 38.91592 96.89577
#
# Poissons Ratio (x) = 0.36888 0.18553
# Poissons Ratio (y) = 0.74767 0.10265
# Poissons Ratio (z) = 0.15103 0.04123
#
# Static dielectric constant tensor:
#      x y z
#    x 1.891850 0.000000 0.000000 
#    y 0.000000 1.820110 0.000000 
#    z 0.000000 0.000000 1.822290 
# 
# From -- ./inp_files/8676.got.cif
#   From: 2010.05.17/outbox.cif.g08.bks.cpg/sg23_5_cif.got.tgz:8676.got - 2010.06.04 12:02:01.
