data_PCOD9330666
_publ_section_title
;
Structure prediction by ZEFSAII (Michael W. Deem and Ramdas Pophale) SiO2 
 PCOD9330666
Probable space group: I 2 2 2
;
_chemical_formula_sum "Si O2"
_cell_formula_units_Z 40
_cell_length_a 15.227383
_cell_length_b 12.316641
_cell_length_c 7.858687
_cell_angle_alpha 90.000000
_cell_angle_beta 90.000000
_cell_angle_gamma 90.000000
_cell_volume 1473.898395
_symmetry_space_group_name_H-M "I 2 2 2"
_symmetry_group_IT_number 23
_symmetry_cell_setting 'orthorhombic'
loop_
_space_group_symop_operation_xyz
x,y,z
-x,-y,z
x,-y,-z
-x,y,-z
1/2+x,1/2+y,1/2+z
1/2-x,1/2-y,1/2+z
1/2+x,1/2-y,1/2-z
1/2-x,1/2+y,1/2-z
loop_
_atom_site_type_symbol
_atom_site_label
_atom_site_fract_x
_atom_site_fract_y
_atom_site_fract_z
Si Si1 0.805487 0.760594 0.609543
Si Si2 0.566488 0.351124 0.155401
Si Si3 0.326079 0.467934 0.303561
Si Si4 0.396557 0.171780 0.617852
Si Si5 0.860981 0.450669 0.225232
O O1 0.845456 0.805671 0.436056
O O2 0.700511 0.772515 0.608633
O O3 0.845942 0.641664 0.635047
O O4 0.834843 0.841623 0.761276
O O5 0.592364 0.466499 0.230411
O O6 0.544332 0.267727 0.306760
O O7 0.500000 0.353049 0.000000
O O8 0.315301 0.500000 0.500000
O O9 0.239599 0.507313 0.201515
O O10 0.402155 0.111879 0.435984
O O11 0.406102 0.067956 0.745978
#
# Coordination Sequence:
#
# PCOD9330666 Si02
#       5
#     8   8   8   8   8
#     4  11  21  38  65 101 139 185 254 304 375 448
#     4  12  26  44  67 102 152 201 244 305 386 464
#     4  11  23  39  67 103 145 192 248 315 380 445
#     4  10  20  40  65  99 140 183 251 307 370 441
#     4  10  21  37  68 104 137 182 248 317 367 438
#
# _framework density 27.138914
#
# number of rings (size 3 to 8) (size 9 to 14) (size 15 to 20)
#    0.000    1.200    4.000    1.800    5.600    1.600 
#    0.000    7.000    0.000    2.400    0.000    0.000 
#    0.000    0.000    0.000    0.000    0.000    0.000 
#
# Total GULP energy -112003.791848 kJ/mol
# GULP energy per Si atom -5600.189592 kJ/mol
# Density = 2.707714 g / cm^3
# Si number density = 27.138914 Si / 1000 Ang^3
#
#
#
# Elastic Constant Matrix: (Units=GPa)
#
#
# Indices 1 2 3 4 5 6 
#
# 1 85.8369 23.1627 31.4686 0.0000 0.0000 0.0000
# 2 23.1627 102.1618 16.2790 0.0000 0.0000 0.0000
# 3 31.4686 16.2790 119.9335 0.0000 0.0000 0.0000
# 4 0.0000 0.0000 0.0000 53.3438 0.0000 0.0000
# 5 0.0000 0.0000 0.0000 0.0000 41.6355 0.0000
# 6 0.0000 0.0000 0.0000 0.0000 0.0000 23.6755
#
#
#
# Elastic Compliance Matrix: (Units=1/GPa)
#
#
# Indices 1 2 3 4 5 6 
#
# 1 0.013512 -0.002554 -0.003199 0.000000 0.000000 0.000000
# 2 -0.002554 0.010487 -0.000753 0.000000 0.000000 0.000000
# 3 -0.003199 -0.000753 0.009279 0.000000 0.000000 0.000000
# 4 0.000000 0.000000 0.000000 0.018746 0.000000 0.000000
# 5 0.000000 0.000000 0.000000 0.000000 0.024018 0.000000
# 6 0.000000 0.000000 0.000000 0.000000 0.000000 0.042238
#
#
# Mechanical properties :
#
#
# Convention : Reuss Voigt Hill
#
# Bulk Modulus (GPa) = 49.34123 49.97255 49.65689
# Shear Modulus (GPa) = 36.21924 39.53242 37.87583
#
# Velocity S-wave (km/s) = 3.65716 3.82077 3.73986
# Velocity P-wave (km/s) = 6.00446 6.15776 6.08159
#
# Compressibility (1/GPa) = 0.02026703
#
# Stress axis : x y z
#
# Youngs Moduli (GPa) = 74.00943 95.35199 107.76449
#
# Poissons Ratio (x) = 0.24351 0.34470
# Poissons Ratio (y) = 0.18900 0.08119
# Poissons Ratio (z) = 0.23673 0.07184
#
# Static dielectric constant tensor:
#      x y z
#    x 2.183210 0.000000 0.000000 
#    y 0.000000 2.122020 0.000000 
#    z 0.000000 0.000000 2.143080 
# 
# From -- ./inp_files/10744.got.cif
#   From: 2010.05.17/outbox.cif.g08.bks.cpg/sg23_6_cif.got.tgz:10744.got - 2010.06.04 12:02:01.
