data_PCOD9330411
_publ_section_title
;
Structure prediction by ZEFSAII (Michael W. Deem and Ramdas Pophale) SiO2 
 PCOD9330411
Probable space group: I 2 2 2
;
_chemical_formula_sum "Si O2"
_cell_formula_units_Z 48
_cell_length_a 30.085722
_cell_length_b 8.785129
_cell_length_c 8.662506
_cell_angle_alpha 90.000000
_cell_angle_beta 90.000000
_cell_angle_gamma 90.000000
_cell_volume 2289.560530
_symmetry_space_group_name_H-M "I 2 2 2"
_symmetry_group_IT_number 23
_symmetry_cell_setting 'orthorhombic'
loop_
_space_group_symop_operation_xyz
x,y,z
-x,-y,z
x,-y,-z
-x,y,-z
1/2+x,1/2+y,1/2+z
1/2-x,1/2-y,1/2+z
1/2+x,1/2-y,1/2-z
1/2-x,1/2+y,1/2-z
loop_
_atom_site_type_symbol
_atom_site_label
_atom_site_fract_x
_atom_site_fract_y
_atom_site_fract_z
Si Si1 0.411775 0.177685 0.701424
Si Si2 0.595570 0.828857 0.327074
Si Si3 0.996137 0.825360 0.812008
Si Si4 0.265650 0.179124 0.020562
Si Si5 0.809598 0.181502 0.190437
Si Si6 0.837391 0.889529 0.354720
O O1 0.407379 0.180680 0.514347
O O2 0.461818 0.227838 0.742769
O O3 0.377607 0.294065 0.780815
O O4 0.403889 0.000490 0.736062
O O5 0.551466 0.743762 0.268997
O O6 0.641909 0.750862 0.289215
O O7 0.000000 0.000000 0.761818
O O8 0.000000 0.824210 0.000000
O O9 0.214994 0.210140 0.970099
O O10 0.300613 0.272911 0.916815
O O11 0.276830 0.239515 0.188593
O O12 0.273632 0.000000 0.000000
O O13 0.815448 0.004848 0.231964
O O14 0.850383 0.000000 0.500000
#
# Coordination Sequence:
#
# PCOD9330411 Si02
#       6
#     8   8   8   8   8   8
#     4  10  20  36  60  91 128 162 202 253 304 379
#     4  10  21  35  60  93 126 162 202 251 318 364
#     4   9  17  32  56  91 126 159 196 246 303 368
#     4  11  24  42  61  86 120 163 206 259 308 365
#     4  11  24  40  62  90 120 163 204 259 306 371
#     4  10  23  41  61  88 122 163 209 259 311 367
#
# _framework density 20.964722999999999
#
# number of rings (size 3 to 8) (size 9 to 14) (size 15 to 20)
#    0.000    1.833    0.000    3.500    4.667    3.333 
#    6.000    0.000    0.000   11.500    0.000   15.167 
#    0.000    0.000    0.000    0.000    0.000    0.000 
#
# Total GULP energy -134096.323458 kJ/mol
# GULP energy per Si atom -5587.346811 kJ/mol
# Density = 2.091701 g / cm^3
# Si number density = 20.964723 Si / 1000 Ang^3
#
#
#
# Elastic Constant Matrix: (Units=GPa)
#
#
# Indices 1 2 3 4 5 6 
#
# 1 124.4271 74.5484 49.8443 0.0000 0.0000 0.0000
# 2 74.5484 154.7284 28.4857 0.0000 0.0000 0.0000
# 3 49.8443 28.4857 35.9693 0.0000 0.0000 0.0000
# 4 0.0000 0.0000 0.0000 32.6754 0.0000 0.0000
# 5 0.0000 0.0000 0.0000 0.0000 23.5973 0.0000
# 6 0.0000 0.0000 0.0000 0.0000 0.0000 57.8953
#
#
#
# Elastic Compliance Matrix: (Units=1/GPa)
#
#
# Indices 1 2 3 4 5 6 
#
# 1 0.021717 -0.005763 -0.025530 0.000000 0.000000 0.000000
# 2 -0.005763 0.009095 0.000783 0.000000 0.000000 0.000000
# 3 -0.025530 0.000783 0.062559 0.000000 0.000000 0.000000
# 4 0.000000 0.000000 0.000000 0.030604 0.000000 0.000000
# 5 0.000000 0.000000 0.000000 0.000000 0.042378 0.000000
# 6 0.000000 0.000000 0.000000 0.000000 0.000000 0.017273
#
#
# Mechanical properties :
#
#
# Convention : Reuss Voigt Hill
#
# Bulk Modulus (GPa) = 30.91027 68.98684 49.94856
# Shear Modulus (GPa) = 19.57492 33.65003 26.61247
#
# Velocity S-wave (km/s) = 3.05898 4.01069 3.56672
# Velocity P-wave (km/s) = 5.22038 7.37734 6.39052
#
# Compressibility (1/GPa) = 0.03235170
#
# Stress axis : x y z
#
# Youngs Moduli (GPa) = 46.04763 109.94539 15.98489
#
# Poissons Ratio (x) = 0.63362 0.40809
# Poissons Ratio (y) = 0.26538 -0.01252
# Poissons Ratio (z) = 1.17558 -0.08610
#
# Static dielectric constant tensor:
#      x y z
#    x 1.717530 0.000000 0.000000 
#    y 0.000000 1.725130 0.000000 
#    z 0.000000 0.000000 1.781640 
# 
# From -- ./inp_files/13364.got.cif
#   From: 2010.05.17/outbox.cif.g08.bks.cpg/sg23_7_cif.got.tgz:13364.got - 2010.06.04 12:02:01.
