data_PCOD9330568
_publ_section_title
;
Structure prediction by ZEFSAII (Michael W. Deem and Ramdas Pophale) SiO2 
 PCOD9330568
Probable space group: I 2 2 2
;
_chemical_formula_sum "Si O2"
_cell_formula_units_Z 52
_cell_length_a 10.293978
_cell_length_b 29.740937
_cell_length_c 8.624197
_cell_angle_alpha 90.000000
_cell_angle_beta 90.000000
_cell_angle_gamma 90.000000
_cell_volume 2640.319913
_symmetry_space_group_name_H-M "I 2 2 2"
_symmetry_group_IT_number 23
_symmetry_cell_setting 'orthorhombic'
loop_
_space_group_symop_operation_xyz
x,y,z
-x,-y,z
x,-y,-z
-x,y,-z
1/2+x,1/2+y,1/2+z
1/2-x,1/2-y,1/2+z
1/2+x,1/2-y,1/2-z
1/2-x,1/2+y,1/2-z
loop_
_atom_site_type_symbol
_atom_site_label
_atom_site_fract_x
_atom_site_fract_y
_atom_site_fract_z
Si Si1 0.745667 0.793614 0.661113
Si Si2 0.015595 0.150298 0.686117
Si Si3 0.502747 0.854112 0.687011
Si Si4 0.500000 0.500000 0.500000
Si Si5 0.500000 0.500000 0.000000
Si Si6 0.349849 0.442875 0.254126
Si Si7 0.456590 0.049700 0.818773
Si Si8 0.744167 0.304696 0.211883
O O1 0.888282 0.808161 0.717644
O O2 0.637952 0.828691 0.724422
O O3 0.717047 0.743019 0.710274
O O4 0.750676 0.797553 0.474427
O O5 0.089242 0.106598 0.746697
O O6 0.000000 0.145038 0.500000
O O7 0.872652 0.160946 0.748450
O O8 0.500000 0.854249 0.500000
O O9 0.486070 0.905324 0.741760
O O10 0.383402 0.825279 0.753503
O O11 0.410708 0.469015 0.396620
O O12 0.405768 0.469083 0.104148
O O13 0.196033 0.444919 0.279519
O O14 0.500000 0.000000 0.761926
O O15 0.500000 0.051198 0.000000
#
# Coordination Sequence:
#
# PCOD9330568 Si02
#       8
#     8   8   8   2   2   8   8   8
#     4  10  20  40  58  89 123 163 209 268 322 388
#     4  10  20  38  66  89 123 169 216 271 324 384
#     4  10  22  39  62  90 126 164 213 270 315 387
#     4  10  24  38  62  94 132 162 200 276 332 394
#     4  10  24  38  78  94 124 174 228 284 328 398
#     4  11  22  44  64  97 130 169 220 273 336 399
#     4  11  25  43  64  91 132 175 215 268 333 405
#     4  10  22  36  62  90 124 162 213 262 331 389
#
# _framework density 19.694583000000002
#
# number of rings (size 3 to 8) (size 9 to 14) (size 15 to 20)
#    0.000    1.692    2.308    1.846    0.000    6.462 
#    2.769    0.000    0.000    0.000    0.000    0.000 
#    0.000    0.000    0.000    0.000    0.000    0.000 
#
# Total GULP energy -145092.250718 kJ/mol
# GULP energy per Si atom -5580.471181 kJ/mol
# Density = 1.964976 g / cm^3
# Si number density = 19.694583 Si / 1000 Ang^3
#
#
#
# Elastic Constant Matrix: (Units=GPa)
#
#
# Indices 1 2 3 4 5 6 
#
# 1 121.8576 45.3078 24.1531 -0.0064 0.0004 -0.0023
# 2 45.3078 134.2096 18.5022 0.0007 -0.0008 0.0003
# 3 24.1531 18.5022 26.5064 -0.0226 -0.0087 -0.0093
# 4 -0.0064 0.0007 -0.0226 39.6779 -0.0028 -0.0035
# 5 0.0004 -0.0008 -0.0087 -0.0028 27.6239 -0.0019
# 6 -0.0023 0.0003 -0.0093 -0.0035 -0.0019 41.1604
#
#
#
# Elastic Compliance Matrix: (Units=1/GPa)
#
#
# Indices 1 2 3 4 5 6 
#
# 1 0.010732 -0.002517 -0.008022 -0.000003 -0.000003 -0.000001
# 2 -0.002517 0.008835 -0.003873 -0.000003 -0.000001 -0.000001
# 3 -0.008022 -0.003873 0.047741 0.000026 0.000015 0.000010
# 4 -0.000003 -0.000003 0.000026 0.025203 0.000003 0.000002
# 5 -0.000003 -0.000001 0.000015 0.000003 0.036201 0.000002
# 6 -0.000001 -0.000001 0.000010 0.000002 0.000002 0.024295
#
#
# Mechanical properties :
#
#
# Convention : Reuss Voigt Hill
#
# Bulk Modulus (GPa) = 25.98616 50.94443 38.46529
# Shear Modulus (GPa) = 25.68588 34.66645 30.17616
#
# Velocity S-wave (km/s) = 3.61530 4.20003 3.91859
# Velocity P-wave (km/s) = 5.53628 7.03162 6.32828
#
# Compressibility (1/GPa) = 0.03848202
#
# Stress axis : x y z
#
# Youngs Moduli (GPa) = 93.17658 113.18926 20.94652
#
# Poissons Ratio (x) = 0.28491 0.16804
# Poissons Ratio (y) = 0.23454 0.08113
# Poissons Ratio (z) = 0.74750 0.43841
#
# Static dielectric constant tensor:
#      x y z
#    x 1.573020 -0.000010 0.000000 
#    y -0.000010 1.691910 0.000000 
#    z 0.000000 0.000000 1.688370 
# 
# From -- ./inp_files/8845.got.cif
#   From: 2010.05.17/outbox.cif.g08.bks.cpg/sg23_5_cif.got.tgz:8845.got - 2010.06.04 12:02:01.
