data_PCOD9330996
_publ_section_title
;
Structure prediction by ZEFSAII (Michael W. Deem and Ramdas Pophale) SiO2 
 PCOD9330996
Probable space group: I 2 2 2
;
_chemical_formula_sum "Si O2"
_cell_formula_units_Z 64
_cell_length_a 8.892004
_cell_length_b 12.114886
_cell_length_c 31.004905
_cell_angle_alpha 90.000000
_cell_angle_beta 90.000000
_cell_angle_gamma 90.000000
_cell_volume 3340.022452
_symmetry_space_group_name_H-M "I 2 2 2"
_symmetry_group_IT_number 23
_symmetry_cell_setting 'orthorhombic'
loop_
_space_group_symop_operation_xyz
x,y,z
-x,-y,z
x,-y,-z
-x,y,-z
1/2+x,1/2+y,1/2+z
1/2-x,1/2-y,1/2+z
1/2+x,1/2-y,1/2-z
1/2-x,1/2+y,1/2-z
loop_
_atom_site_type_symbol
_atom_site_label
_atom_site_fract_x
_atom_site_fract_y
_atom_site_fract_z
Si Si1 0.828521 0.254180 0.577002
Si Si2 0.326989 0.966361 0.282763
Si Si3 0.676486 0.981716 0.188931
Si Si4 0.318870 0.784379 0.924525
Si Si5 0.819948 0.369872 0.997472
Si Si6 0.897795 0.895871 0.341449
Si Si7 0.817100 0.234379 0.323267
Si Si8 0.178090 0.986611 0.096766
O O1 0.756831 0.186540 0.538348
O O2 0.829695 0.177475 0.620000
O O3 0.738390 0.368279 0.581670
O O4 0.002658 0.282189 0.567695
O O5 0.303177 0.849995 0.305478
O O6 0.500000 0.000000 0.283196
O O7 0.280724 0.956823 0.232670
O O8 0.224951 0.052590 0.309495
O O9 0.692735 0.852369 0.198466
O O10 0.773407 0.007997 0.147045
O O11 0.500000 0.000000 0.178006
O O12 0.297346 0.750195 0.874545
O O13 0.255339 0.909007 0.927222
O O14 0.239619 0.696161 0.955651
O O15 0.782951 0.500000 0.000000
O O16 0.000000 0.359169 0.000000
O O17 0.018060 0.818663 0.317068
O O18 0.000000 0.000000 0.358148
O O19 0.000000 0.000000 0.092243
#
# Coordination Sequence:
#
# PCOD9330996 Si02
#       8
#     8   8   8   8   8   8   8   8
#     4  11  23  40  67  92 119 164 209 250 301 367
#     4  10  22  35  55  86 121 157 201 253 308 360
#     4  10  21  39  59  85 118 159 208 249 296 363
#     4  10  22  43  65  87 124 162 208 249 298 371
#     4  11  26  42  62  97 130 158 196 254 306 357
#     4   9  20  37  58  86 116 160 203 250 303 362
#     4   9  20  38  59  81 117 160 198 251 299 354
#     4  11  23  40  64  93 123 159 201 254 317 364
#
# _framework density 19.161549000000001
#
# number of rings (size 3 to 8) (size 9 to 14) (size 15 to 20)
#    0.000    1.875    0.000    3.750    5.250    8.500 
#    0.000    3.750    0.000    0.000    0.000    0.000 
#    0.000    0.000    0.000    0.000    0.000    0.000 
#
# Total GULP energy -178714.314204 kJ/mol
# GULP energy per Si atom -5584.822319 kJ/mol
# Density = 1.911794 g / cm^3
# Si number density = 19.161549 Si / 1000 Ang^3
#
#
#
# Elastic Constant Matrix: (Units=GPa)
#
#
# Indices 1 2 3 4 5 6 
#
# 1 93.8016 57.4601 48.6931 0.0000 0.0000 0.0000
# 2 57.4601 132.3544 49.0983 0.0000 0.0000 0.0000
# 3 48.6931 49.0983 50.5266 0.0000 0.0000 0.0000
# 4 0.0000 0.0000 0.0000 -5.9120 0.0000 0.0000
# 5 0.0000 0.0000 0.0000 0.0000 13.9473 0.0000
# 6 0.0000 0.0000 0.0000 0.0000 0.0000 28.9872
#
#
#
# Elastic Compliance Matrix: (Units=1/GPa)
#
#
# Indices 1 2 3 4 5 6 
#
# 1 0.021901 -0.002625 -0.018556 0.000000 0.000000 0.000000
# 2 -0.002625 0.012129 -0.009257 0.000000 0.000000 0.000000
# 3 -0.018556 -0.009257 0.046669 0.000000 0.000000 0.000000
# 4 0.000000 0.000000 0.000000 -0.169146 0.000000 0.000000
# 5 0.000000 0.000000 0.000000 0.000000 0.071699 0.000000
# 6 0.000000 0.000000 0.000000 0.000000 0.000000 0.034498
#
#
# Mechanical properties :
#
#
# Convention : Reuss Voigt Hill
#
# Bulk Modulus (GPa) = 50.44214 65.24285 57.84249
# Shear Modulus (GPa) = 58.66370 15.49988 37.08179
#
# Velocity S-wave (km/s) = 5.53911 2.84721 4.40388
# Velocity P-wave (km/s) = 8.20310 6.70310 7.49074
#
# Compressibility (1/GPa) = 0.01982470
#
# Stress axis : x y z
#
# Youngs Moduli (GPa) = 45.65994 82.44900 21.42749
#
# Poissons Ratio (x) = 0.21639 0.39761
# Poissons Ratio (y) = 0.11984 0.19834
# Poissons Ratio (z) = 0.84726 0.76319
#
# Static dielectric constant tensor:
#      x y z
#    x 1.653020 0.000000 0.000000 
#    y 0.000000 1.704240 0.000000 
#    z 0.000000 0.000000 1.665910 
# 
# From -- ./inp_files/30341.got.cif
#   From: 2010.05.17/outbox.cif.g08.bks.cpg/sg23_16_cif.got.tgz:30341.got - 2010.06.04 12:02:01.
