data_PCOD9330060
_publ_section_title
;
Structure prediction by ZEFSAII (Michael W. Deem and Ramdas Pophale) SiO2 
 PCOD9330060
Probable space group: I 2 2 2
;
_chemical_formula_sum "Si O2"
_cell_formula_units_Z 64
_cell_length_a 15.717203
_cell_length_b 18.531027
_cell_length_c 11.107114
_cell_angle_alpha 90.000000
_cell_angle_beta 90.000000
_cell_angle_gamma 90.000000
_cell_volume 3235.012631
_symmetry_space_group_name_H-M "I 2 2 2"
_symmetry_group_IT_number 23
_symmetry_cell_setting 'orthorhombic'
loop_
_space_group_symop_operation_xyz
x,y,z
-x,-y,z
x,-y,-z
-x,y,-z
1/2+x,1/2+y,1/2+z
1/2-x,1/2-y,1/2+z
1/2+x,1/2-y,1/2-z
1/2-x,1/2+y,1/2-z
loop_
_atom_site_type_symbol
_atom_site_label
_atom_site_fract_x
_atom_site_fract_y
_atom_site_fract_z
Si Si1 0.711076 0.338112 0.656273
Si Si2 0.339426 0.166799 0.345080
Si Si3 0.025466 0.580655 0.302686
Si Si4 0.899858 0.920909 0.002501
Si Si5 0.767638 0.326718 0.908713
Si Si6 0.173637 0.176622 0.209474
Si Si7 0.408392 0.296186 0.965553
Si Si8 0.382209 0.867124 0.026132
O O1 0.681047 0.253894 0.659677
O O2 0.629254 0.380921 0.617451
O O3 0.753192 0.363056 0.780550
O O4 0.783708 0.356844 0.558281
O O5 0.425289 0.133379 0.290148
O O6 0.328754 0.146370 0.485334
O O7 0.258896 0.140945 0.265341
O O8 0.089454 0.579816 0.419087
O O9 0.000000 0.500000 0.261466
O O10 0.938907 0.613898 0.357537
O O11 0.872162 0.877000 0.119547
O O12 0.000000 0.925630 0.000000
O O13 0.860378 0.000000 0.000000
O O14 0.799918 0.247284 0.867514
O O15 0.674097 0.327226 0.968062
O O16 0.115214 0.200138 0.323654
O O17 0.409443 0.213567 0.011122
O O18 0.500000 0.328261 0.000000
#
# Coordination Sequence:
#
# PCOD9330060 Si02
#       8
#     8   8   8   8   8   8   8   8
#     4  11  21  38  64  94 128 170 222 287 345 398
#     4  10  20  38  62  93 137 167 227 281 332 412
#     4  11  24  37  60  95 140 183 225 280 351 429
#     4  11  25  41  60  93 127 168 216 272 345 416
#     4  10  19  37  58  96 127 166 218 274 338 405
#     4  10  20  38  61  95 129 166 215 275 345 392
#     4  11  20  32  60  98 129 161 215 289 341 393
#     4  11  19  35  60  93 128 172 231 275 337 411
#
# _framework density 19.783538
#
# number of rings (size 3 to 8) (size 9 to 14) (size 15 to 20)
#    0.000    1.375    6.250    3.000    1.750    2.000 
#    0.000    0.625    0.000    8.250    0.000    0.000 
#    0.000    0.000    0.000    0.000    0.000    0.000 
#
# Total GULP energy -178308.457494 kJ/mol
# GULP energy per Si atom -5572.139297 kJ/mol
# Density = 1.973851 g / cm^3
# Si number density = 19.783538 Si / 1000 Ang^3
#
#
#
# Elastic Constant Matrix: (Units=GPa)
#
#
# Indices 1 2 3 4 5 6 
#
# 1 92.6961 28.5578 33.6030 0.0000 0.0000 0.0000
# 2 28.5578 49.7088 19.9942 0.0000 0.0000 0.0000
# 3 33.6030 19.9942 111.0195 0.0000 0.0000 0.0000
# 4 0.0000 0.0000 0.0000 10.9900 0.0000 0.0000
# 5 0.0000 0.0000 0.0000 0.0000 38.8657 0.0000
# 6 0.0000 0.0000 0.0000 0.0000 0.0000 14.9529
#
#
#
# Elastic Compliance Matrix: (Units=1/GPa)
#
#
# Indices 1 2 3 4 5 6 
#
# 1 0.013978 -0.006823 -0.003002 0.000000 0.000000 0.000000
# 2 -0.006823 0.025019 -0.002441 0.000000 0.000000 0.000000
# 3 -0.003002 -0.002441 0.010356 0.000000 0.000000 0.000000
# 4 0.000000 0.000000 0.000000 0.090992 0.000000 0.000000
# 5 0.000000 0.000000 0.000000 0.000000 0.025730 0.000000
# 6 0.000000 0.000000 0.000000 0.000000 0.000000 0.066877
#
#
# Mechanical properties :
#
#
# Convention : Reuss Voigt Hill
#
# Bulk Modulus (GPa) = 40.28823 46.41494 43.35159
# Shear Modulus (GPa) = 18.81425 24.37968 21.59696
#
# Velocity S-wave (km/s) = 3.08718 3.51425 3.30762
# Velocity P-wave (km/s) = 5.75468 6.32289 6.04546
#
# Compressibility (1/GPa) = 0.02482115
#
# Stress axis : x y z
#
# Youngs Moduli (GPa) = 71.53974 39.97014 96.56582
#
# Poissons Ratio (x) = 0.27272 0.28990
# Poissons Ratio (y) = 0.48812 0.23568
# Poissons Ratio (z) = 0.21477 0.09755
#
# Static dielectric constant tensor:
#      x y z
#    x 1.742290 0.000000 0.000000 
#    y 0.000000 1.727850 0.000000 
#    z 0.000000 0.000000 1.759410 
# 
# From -- ./inp_files/16973.got.cif
#   From: 2010.05.17/outbox.cif.g08.bks.cpg/sg23_9_cif.got.tgz:16973.got - 2010.06.04 12:02:01.
