data_PCOD9330264
_publ_section_title
;
Structure prediction by ZEFSAII (Michael W. Deem and Ramdas Pophale) SiO2 
 PCOD9330264
Probable space group: I 2 2 2
;
_chemical_formula_sum "Si O2"
_cell_formula_units_Z 52
_cell_length_a 22.473647
_cell_length_b 9.022960
_cell_length_c 13.184401
_cell_angle_alpha 90.000000
_cell_angle_beta 90.000000
_cell_angle_gamma 90.000000
_cell_volume 2673.517250
_symmetry_space_group_name_H-M "I 2 2 2"
_symmetry_group_IT_number 23
_symmetry_cell_setting 'orthorhombic'
loop_
_space_group_symop_operation_xyz
x,y,z
-x,-y,z
x,-y,-z
-x,y,-z
1/2+x,1/2+y,1/2+z
1/2-x,1/2-y,1/2+z
1/2+x,1/2-y,1/2-z
1/2-x,1/2+y,1/2-z
loop_
_atom_site_type_symbol
_atom_site_label
_atom_site_fract_x
_atom_site_fract_y
_atom_site_fract_z
Si Si1 0.089832 0.834267 0.993081
Si Si2 0.218867 0.778348 0.331703
Si Si3 0.859917 0.339635 0.808673
Si Si4 0.441395 0.931186 0.611806
Si Si5 0.230558 0.000000 0.500000
Si Si6 0.786391 0.218920 0.097489
Si Si7 0.831278 0.539724 0.397015
O O1 0.055590 0.738491 0.079215
O O2 0.157305 0.829155 0.033938
O O3 0.097474 0.763193 0.879764
O O4 0.068166 0.000000 0.000000
O O5 0.291588 0.794162 0.333509
O O6 0.197704 0.895631 0.417311
O O7 0.202467 0.813146 0.215753
O O8 0.193339 0.614392 0.350567
O O9 0.882351 0.505856 0.837251
O O10 0.862030 0.354165 0.686577
O O11 0.500000 0.000000 0.662755
O O12 0.438054 0.000000 0.500000
O O13 0.269737 0.887050 0.567379
O O14 0.727464 0.128861 0.069858
O O15 0.866014 0.500000 0.500000
#
# Coordination Sequence:
#
# PCOD9330264 Si02
#       7
#     8   8   8   8   4   8   8
#     4  11  20  33  54  82 109 138 183 223 275 333
#     4  11  21  31  49  72 103 149 186 221 266 324
#     4  10  20  34  55  74 103 149 180 223 274 331
#     4   9  19  36  55  77 104 138 174 225 283 334
#     4  12  20  32  48  68 103 148 185 222 268 316
#     4  11  21  32  48  75 107 145 185 221 267 323
#     4  11  20  35  48  74 113 146 182 226 265 321
#
# _framework density 19.450033999999999
#
# number of rings (size 3 to 8) (size 9 to 14) (size 15 to 20)
#    0.000    1.385    3.077    5.077    2.154    1.231 
#    0.000    6.154    0.000    0.462    0.000    0.000 
#    0.000    0.000    0.000    0.385    0.000    0.000 
#
# Total GULP energy -144736.025194 kJ/mol
# GULP energy per Si atom -5566.770200 kJ/mol
# Density = 1.940576 g / cm^3
# Si number density = 19.450034 Si / 1000 Ang^3
#
#
#
# Elastic Constant Matrix: (Units=GPa)
#
#
# Indices 1 2 3 4 5 6 
#
# 1 40.6535 17.2532 19.3756 0.0000 0.0000 0.0000
# 2 17.2532 122.1552 23.1286 0.0000 0.0000 0.0000
# 3 19.3756 23.1286 124.8955 0.0000 0.0000 0.0000
# 4 0.0000 0.0000 0.0000 31.4626 0.0000 0.0000
# 5 0.0000 0.0000 0.0000 0.0000 10.1802 0.0000
# 6 0.0000 0.0000 0.0000 0.0000 0.0000 -23.7595
#
#
#
# Elastic Compliance Matrix: (Units=1/GPa)
#
#
# Indices 1 2 3 4 5 6 
#
# 1 0.027729 -0.003215 -0.003706 0.000000 0.000000 0.000000
# 2 -0.003215 0.008856 -0.001141 0.000000 0.000000 0.000000
# 3 -0.003706 -0.001141 0.008793 0.000000 0.000000 0.000000
# 4 0.000000 0.000000 0.000000 0.031784 0.000000 0.000000
# 5 0.000000 0.000000 0.000000 0.000000 0.098230 0.000000
# 6 0.000000 0.000000 0.000000 0.000000 0.000000 -0.042088
#
#
# Mechanical properties :
#
#
# Convention : Reuss Voigt Hill
#
# Bulk Modulus (GPa) = 34.18392 45.24657 39.71525
# Shear Modulus (GPa) = 31.41101 18.77311 25.09206
#
# Velocity S-wave (km/s) = 4.02302 3.11013 3.59566
# Velocity P-wave (km/s) = 6.26043 6.01753 6.14018
#
# Compressibility (1/GPa) = 0.02925352
#
# Stress axis : x y z
#
# Youngs Moduli (GPa) = 36.06345 112.91207 113.72619
#
# Poissons Ratio (x) = 0.36298 0.42152
# Poissons Ratio (y) = 0.11593 0.12980
# Poissons Ratio (z) = 0.13367 0.12887
#
# Static dielectric constant tensor:
#      x y z
#    x 1.734250 0.000000 0.000000 
#    y 0.000000 1.809790 0.000000 
#    z 0.000000 0.000000 1.761100 
# 
# From -- ./inp_files/22369.got.cif
#   From: 2010.05.17/outbox.cif.g08.bks.cpg/sg23_12_cif.got.tgz:22369.got - 2010.06.04 12:02:01.
