data_PCOD9330259
_publ_section_title
;
Structure prediction by ZEFSAII (Michael W. Deem and Ramdas Pophale) SiO2 
 PCOD9330259
Probable space group: I 2 2 2
;
_chemical_formula_sum "Si O2"
_cell_formula_units_Z 64
_cell_length_a 8.655027
_cell_length_b 19.996985
_cell_length_c 20.993453
_cell_angle_alpha 90.000000
_cell_angle_beta 90.000000
_cell_angle_gamma 90.000000
_cell_volume 3633.430229
_symmetry_space_group_name_H-M "I 2 2 2"
_symmetry_group_IT_number 23
_symmetry_cell_setting 'orthorhombic'
loop_
_space_group_symop_operation_xyz
x,y,z
-x,-y,z
x,-y,-z
-x,y,-z
1/2+x,1/2+y,1/2+z
1/2-x,1/2-y,1/2+z
1/2+x,1/2-y,1/2-z
1/2-x,1/2+y,1/2-z
loop_
_atom_site_type_symbol
_atom_site_label
_atom_site_fract_x
_atom_site_fract_y
_atom_site_fract_z
Si Si1 0.065299 0.291336 0.689827
Si Si2 0.434993 0.786172 0.568404
Si Si3 0.934823 0.571406 0.264829
Si Si4 0.934999 0.069912 0.621439
Si Si5 0.565177 0.428594 0.735172
Si Si6 0.565299 0.291336 0.310173
Si Si7 0.434998 0.069912 0.378560
Si Si8 0.065008 0.213828 0.431596
O O1 0.250000 0.291364 0.692987
O O2 1.000000 0.250000 0.750000
O O3 0.001231 0.366332 0.696323
O O4 0.007935 0.256154 0.625598
O O5 0.500000 0.766029 0.500000
O O6 0.507936 0.743845 0.625598
O O7 0.472739 0.864361 0.581181
O O8 0.250000 0.779316 0.570311
O O9 0.750000 0.571356 0.265802
O O10 0.000000 0.500000 0.287229
O O11 0.992632 0.579064 0.191762
O O12 0.750001 0.064979 0.628057
O O13 0.972739 0.135639 0.581179
O O14 0.007371 0.079064 0.691761
O O15 0.000000 0.000000 0.595282
O O16 0.500000 0.500000 0.712774
O O17 0.498768 0.366332 0.696325
O O18 0.500000 0.000000 0.404717
O O19 0.000000 0.233972 0.500000
#
# Coordination Sequence:
#
# PCOD9330259 Si02
#       8
#     8   8   8   8   8   8   8   8
#     4  12  23  38  61  88 117 153 197 244 295 347
#     4  11  24  40  58  83 117 157 199 244 295 349
#     4  11  21  35  58  87 119 152 191 240 293 345
#     4  10  20  34  54  80 115 154 197 239 286 343
#     4  11  21  35  58  87 119 152 191 240 293 345
#     4  12  23  38  61  88 117 153 197 244 295 347
#     4  10  20  34  54  80 115 154 197 239 286 343
#     4  11  24  40  58  83 117 157 199 244 295 349
#
# _framework density 17.614208999999999
#
# number of rings (size 3 to 8) (size 9 to 14) (size 15 to 20)
#    0.000    1.000    2.500    7.500    0.000    3.500 
#    0.000    2.500    0.000    0.750    0.000    5.250 
#    0.000    0.000    0.000    0.000    0.000    0.000 
#
# Total GULP energy -178942.980549 kJ/mol
# GULP energy per Si atom -5591.968142 kJ/mol
# Density = 1.757412 g / cm^3
# Si number density = 17.614209 Si / 1000 Ang^3
#
#
#
# Elastic Constant Matrix: (Units=GPa)
#
#
# Indices 1 2 3 4 5 6 
#
# 1 126.1074 64.2305 54.1551 0.0000 0.0000 0.0000
# 2 64.2305 136.5361 70.4395 0.0000 0.0000 0.0000
# 3 54.1551 70.4395 115.9315 0.0000 0.0000 0.0000
# 4 0.0000 0.0000 0.0000 21.3244 0.0000 0.0000
# 5 0.0000 0.0000 0.0000 0.0000 24.8376 0.0000
# 6 0.0000 0.0000 0.0000 0.0000 0.0000 33.6067
#
#
#
# Elastic Compliance Matrix: (Units=1/GPa)
#
#
# Indices 1 2 3 4 5 6 
#
# 1 0.011069 -0.003699 -0.002923 0.000000 0.000000 0.000000
# 2 -0.003699 0.011904 -0.005505 0.000000 0.000000 0.000000
# 3 -0.002923 -0.005505 0.013336 0.000000 0.000000 0.000000
# 4 0.000000 0.000000 0.000000 0.046895 0.000000 0.000000
# 5 0.000000 0.000000 0.000000 0.000000 0.040262 0.000000
# 6 0.000000 0.000000 0.000000 0.000000 0.000000 0.029756
#
#
# Mechanical properties :
#
#
# Convention : Reuss Voigt Hill
#
# Bulk Modulus (GPa) = 82.95377 84.02503 83.48940
# Shear Modulus (GPa) = 27.54901 28.60374 28.07638
#
# Velocity S-wave (km/s) = 3.95906 4.03414 3.99678
# Velocity P-wave (km/s) = 8.25203 8.33700 8.29462
#
# Compressibility (1/GPa) = 0.01205491
#
# Stress axis : x y z
#
# Youngs Moduli (GPa) = 90.34112 84.00295 74.98453
#
# Poissons Ratio (x) = 0.31074 0.21919
# Poissons Ratio (y) = 0.33419 0.41279
# Poissons Ratio (z) = 0.26408 0.46244
#
# Static dielectric constant tensor:
#      x y z
#    x 1.585100 0.000000 0.000000 
#    y 0.000000 1.613370 0.000000 
#    z 0.000000 0.000000 1.570990 
# 
# From -- ./inp_files/26347.got.cif
#   From: 2010.05.17/outbox.cif.g08.bks.cpg/sg23_14_cif.got.tgz:26347.got - 2010.06.04 12:02:01.
