data_PCOD9330895
_publ_section_title
;
Structure prediction by ZEFSAII (Michael W. Deem and Ramdas Pophale) SiO2 
 PCOD9330895
Probable space group: I 2 2 2
;
_chemical_formula_sum "Si O2"
_cell_formula_units_Z 64
_cell_length_a 8.622414
_cell_length_b 21.758357
_cell_length_c 18.540565
_cell_angle_alpha 90.000000
_cell_angle_beta 90.000000
_cell_angle_gamma 90.000000
_cell_volume 3478.387279
_symmetry_space_group_name_H-M "I 2 2 2"
_symmetry_group_IT_number 23
_symmetry_cell_setting 'orthorhombic'
loop_
_space_group_symop_operation_xyz
x,y,z
-x,-y,z
x,-y,-z
-x,y,-z
1/2+x,1/2+y,1/2+z
1/2-x,1/2-y,1/2+z
1/2+x,1/2-y,1/2-z
1/2-x,1/2+y,1/2-z
loop_
_atom_site_type_symbol
_atom_site_label
_atom_site_fract_x
_atom_site_fract_y
_atom_site_fract_z
Si Si1 0.345348 0.774145 0.832659
Si Si2 0.827134 0.259637 0.968345
Si Si3 0.328401 0.608442 0.975250
Si Si4 0.870508 0.450978 0.102260
Si Si5 0.749253 0.160048 0.249399
Si Si6 0.154315 0.037477 0.676176
Si Si7 0.306569 0.774527 0.113429
Si Si8 0.403452 0.170291 0.307774
O O1 0.208433 0.770624 0.891207
O O2 0.356473 0.711272 0.786147
O O3 0.509259 0.773443 0.873878
O O4 0.324725 0.827263 0.772185
O O5 0.770977 0.330376 0.961724
O O6 0.727514 0.225809 0.029479
O O7 0.000000 0.258705 0.000000
O O8 0.352632 0.569131 0.903091
O O9 0.500000 0.627339 0.000000
O O10 0.242344 0.568926 0.037023
O O11 0.783994 0.486373 0.166236
O O12 0.923072 0.388260 0.140130
O O13 0.000000 0.500000 0.078680
O O14 0.798240 0.092366 0.271717
O O15 0.748726 0.169672 0.163905
O O16 0.581201 0.180164 0.281781
O O17 0.000000 0.000000 0.693401
O O18 0.204724 0.717210 0.146090
#
# Coordination Sequence:
#
# PCOD9330895 Si02
#       8
#     8   8   8   8   8   8   8   8
#     4  10  21  37  60  81 115 148 192 242 301 353
#     4  12  24  37  57  87 116 151 190 243 297 353
#     4  12  25  40  53  79 119 163 203 233 274 340
#     4  12  25  39  58  80 115 160 200 239 282 341
#     4  10  21  39  57  81 114 151 194 245 285 350
#     4  12  25  39  54  80 116 161 201 236 281 341
#     4  10  21  37  60  82 112 150 192 239 304 348
#     4  10  21  39  56  84 111 153 194 243 291 345
#
# _framework density 18.399331
#
# number of rings (size 3 to 8) (size 9 to 14) (size 15 to 20)
#    0.000    1.000    5.000    2.250    3.500    1.500 
#    0.000    0.000    0.000    0.000    0.000    0.875 
#    0.000    0.000    0.000    0.000    0.000    0.000 
#
# Total GULP energy -178471.824241 kJ/mol
# GULP energy per Si atom -5577.244508 kJ/mol
# Density = 1.835745 g / cm^3
# Si number density = 18.399331 Si / 1000 Ang^3
#
#
#
# Elastic Constant Matrix: (Units=GPa)
#
#
# Indices 1 2 3 4 5 6 
#
# 1 68.3978 13.1726 11.4993 0.0000 0.0000 0.0000
# 2 13.1726 48.7731 25.5756 0.0000 0.0000 0.0000
# 3 11.4993 25.5756 90.8439 0.0000 0.0000 0.0000
# 4 0.0000 0.0000 0.0000 -4.5731 0.0000 0.0000
# 5 0.0000 0.0000 0.0000 0.0000 23.9166 0.0000
# 6 0.0000 0.0000 0.0000 0.0000 0.0000 21.1308
#
#
#
# Elastic Compliance Matrix: (Units=1/GPa)
#
#
# Indices 1 2 3 4 5 6 
#
# 1 0.015488 -0.003701 -0.000918 0.000000 0.000000 0.000000
# 2 -0.003701 0.024939 -0.006553 0.000000 0.000000 0.000000
# 3 -0.000918 -0.006553 0.012969 0.000000 0.000000 0.000000
# 4 0.000000 0.000000 0.000000 -0.218672 0.000000 0.000000
# 5 0.000000 0.000000 0.000000 0.000000 0.041812 0.000000
# 6 0.000000 0.000000 0.000000 0.000000 0.000000 0.047324
#
#
# Mechanical properties :
#
#
# Convention : Reuss Voigt Hill
#
# Bulk Modulus (GPa) = 32.20540 34.27888 33.24214
# Shear Modulus (GPa) = -115.08596 18.61268 -48.23664
#
# Velocity S-wave (km/s) = -7.91737 3.18401 -5.12576
# Velocity P-wave (km/s) = 8.12639 5.67346 4.11400
#
# Compressibility (1/GPa) = 0.03105070
#
# Stress axis : x y z
#
# Youngs Moduli (GPa) = 64.56783 40.09822 77.10744
#
# Poissons Ratio (x) = 0.14841 0.07082
# Poissons Ratio (y) = 0.23898 0.50525
# Poissons Ratio (z) = 0.05930 0.26275
#
# Static dielectric constant tensor:
#      x y z
#    x 1.792610 0.000000 0.000000 
#    y 0.000000 1.672260 0.000000 
#    z 0.000000 0.000000 1.653600 
# 
# From -- ./inp_files/23977.got.cif
#   From: 2010.05.17/outbox.cif.g08.bks.cpg/sg23_12_cif.got.tgz:23977.got - 2010.06.04 12:02:01.
