data_PCOD9330478
_publ_section_title
;
Structure prediction by ZEFSAII (Michael W. Deem and Ramdas Pophale) SiO2 
 PCOD9330478
Probable space group: I 2 2 2
;
_chemical_formula_sum "Si O2"
_cell_formula_units_Z 40
_cell_length_a 28.979897
_cell_length_b 7.240454
_cell_length_c 8.048701
_cell_angle_alpha 90.000000
_cell_angle_beta 90.000000
_cell_angle_gamma 90.000000
_cell_volume 1688.839704
_symmetry_space_group_name_H-M "I 2 2 2"
_symmetry_group_IT_number 23
_symmetry_cell_setting 'orthorhombic'
loop_
_space_group_symop_operation_xyz
x,y,z
-x,-y,z
x,-y,-z
-x,y,-z
1/2+x,1/2+y,1/2+z
1/2-x,1/2-y,1/2+z
1/2+x,1/2-y,1/2-z
1/2-x,1/2+y,1/2-z
loop_
_atom_site_type_symbol
_atom_site_label
_atom_site_fract_x
_atom_site_fract_y
_atom_site_fract_z
Si Si1 0.406659 0.653583 0.778499
Si Si2 0.195850 0.726429 0.751013
Si Si3 0.994837 0.280464 0.809156
Si Si4 0.396937 0.762995 0.125404
Si Si5 0.150444 0.000000 0.000000
Si Si6 0.258163 0.500000 0.000000
O O1 0.461967 0.674234 0.771185
O O2 0.389267 0.455200 0.840203
O O3 0.382470 0.649062 0.597517
O O4 0.395675 0.793095 0.928113
O O5 0.145871 0.638504 0.711844
O O6 0.183920 0.888837 0.879874
O O7 0.214356 0.828648 0.584711
O O8 0.228617 0.584788 0.847358
O O9 0.946859 0.272546 0.710856
O O10 0.000000 0.500000 0.812897
O O11 0.000000 0.218162 0.000000
#
# Coordination Sequence:
#
# PCOD9330478 Si02
#       6
#     8   8   8   8   4   4
#     4  10  20  37  62  90 126 168 212 259 313 392
#     4  11  24  44  69  98 130 171 221 281 347 413
#     4  11  23  37  55  86 128 170 213 264 320 381
#     4  10  22  39  62  91 123 164 216 265 322 397
#     4  10  20  40  69  96 128 170 220 270 337 414
#     4  12  26  46  72 100 136 172 226 290 354 416
#
# _framework density 23.684902999999998
#
# number of rings (size 3 to 8) (size 9 to 14) (size 15 to 20)
#    0.000    1.400    0.000    7.200    0.000    7.200 
#    0.000    2.000    0.000    0.000    0.000    0.000 
#    0.000    0.000    0.000    0.000    0.000    0.000 
#
# Total GULP energy -111473.040329 kJ/mol
# GULP energy per Si atom -5573.652016 kJ/mol
# Density = 2.363099 g / cm^3
# Si number density = 23.684903 Si / 1000 Ang^3
#
#
#
# Elastic Constant Matrix: (Units=GPa)
#
#
# Indices 1 2 3 4 5 6 
#
# 1 98.1670 20.7461 36.6123 0.0000 0.0000 0.0000
# 2 20.7461 45.6823 12.5814 0.0000 0.0000 0.0000
# 3 36.6123 12.5814 107.4226 0.0000 0.0000 0.0000
# 4 0.0000 0.0000 0.0000 33.4958 0.0000 0.0000
# 5 0.0000 0.0000 0.0000 0.0000 50.8895 0.0000
# 6 0.0000 0.0000 0.0000 0.0000 0.0000 23.5119
#
#
#
# Elastic Compliance Matrix: (Units=1/GPa)
#
#
# Indices 1 2 3 4 5 6 
#
# 1 0.012569 -0.004679 -0.003736 0.000000 0.000000 0.000000
# 2 -0.004679 0.024362 -0.001259 0.000000 0.000000 0.000000
# 3 -0.003736 -0.001259 0.010730 0.000000 0.000000 0.000000
# 4 0.000000 0.000000 0.000000 0.029855 0.000000 0.000000
# 5 0.000000 0.000000 0.000000 0.000000 0.019650 0.000000
# 6 0.000000 0.000000 0.000000 0.000000 0.000000 0.042532
#
#
# Mechanical properties :
#
#
# Convention : Reuss Voigt Hill
#
# Bulk Modulus (GPa) = 35.31871 43.46128 39.39000
# Shear Modulus (GPa) = 29.67682 33.66825 31.67253
#
# Velocity S-wave (km/s) = 3.54359 3.77438 3.66080
# Velocity P-wave (km/s) = 5.62912 6.11426 5.87670
#
# Compressibility (1/GPa) = 0.02831361
#
# Stress axis : x y z
#
# Youngs Moduli (GPa) = 79.56162 41.04772 93.19957
#
# Poissons Ratio (x) = 0.19207 0.34817
# Poissons Ratio (y) = 0.37228 0.11729
# Poissons Ratio (z) = 0.29722 0.05166
#
# Static dielectric constant tensor:
#      x y z
#    x 1.955610 0.000000 0.000000 
#    y 0.000000 1.960630 0.000000 
#    z 0.000000 0.000000 2.135370 
# 
# From -- ./inp_files/12453.got.cif
#   From: 2010.05.17/outbox.cif.g08.bks.cpg/sg23_7_cif.got.tgz:12453.got - 2010.06.04 12:02:01.
