data_PCOD9330775
_publ_section_title
;
Structure prediction by ZEFSAII (Michael W. Deem and Ramdas Pophale) SiO2 
 PCOD9330775
Probable space group: I 2 2 2
;
_chemical_formula_sum "Si O2"
_cell_formula_units_Z 42
_cell_length_a 20.192120
_cell_length_b 6.104157
_cell_length_c 17.776438
_cell_angle_alpha 90.000000
_cell_angle_beta 90.000000
_cell_angle_gamma 90.000000
_cell_volume 2191.050343
_symmetry_space_group_name_H-M "I 2 2 2"
_symmetry_group_IT_number 23
_symmetry_cell_setting 'orthorhombic'
loop_
_space_group_symop_operation_xyz
x,y,z
-x,-y,z
x,-y,-z
-x,y,-z
1/2+x,1/2+y,1/2+z
1/2-x,1/2-y,1/2+z
1/2+x,1/2-y,1/2-z
1/2-x,1/2+y,1/2-z
loop_
_atom_site_type_symbol
_atom_site_label
_atom_site_fract_x
_atom_site_fract_y
_atom_site_fract_z
Si Si1 0.309728 0.703843 0.829224
Si Si2 0.184257 0.984780 0.169772
Si Si3 0.567185 0.620924 0.578856
Si Si4 0.881684 0.743860 0.519812
Si Si5 0.745693 0.150289 0.564377
Si Si6 0.000000 0.500000 0.000000
O O1 0.333507 0.634677 0.747185
O O2 0.365255 0.762349 0.891122
O O3 0.273006 0.498928 0.868321
O O4 0.253678 0.888979 0.820539
O O5 0.197326 0.820235 0.101258
O O6 0.124164 0.129023 0.140192
O O7 0.500000 0.500000 0.606361
O O8 0.585348 0.500000 0.500000
O O9 0.545580 0.857580 0.553214
O O10 0.912156 0.500000 0.500000
O O11 0.810621 0.746732 0.475985
O O12 0.907498 0.000000 0.500000
O O13 0.714151 0.000000 0.500000
#
# Coordination Sequence:
#
# PCOD9330775 Si02
#       6
#     8   8   8   8   8   2
#     4  10  21  30  45  76 107 143 180 223 290 364
#     4  12  20  34  50  76 113 142 185 243 296 350
#     4   9  22  38  57  76 103 145 209 249 274 337
#     4   9  17  31  47  64 100 145 182 211 259 349
#     4   9  20  31  44  69 102 143 181 215 273 349
#     4   8  18  48  52  78  92 140 222 250 290 318
#
# _framework density 19.168887999999999
#
# number of rings (size 3 to 8) (size 9 to 14) (size 15 to 20)
#    0.000    2.857    3.810    0.000    5.333    3.048 
#    3.429    0.000    0.000    0.000    0.000    0.000 
#    0.000   12.190    0.000   11.619    0.000    0.190 
#
# Total GULP energy -116909.684298 kJ/mol
# GULP energy per Si atom -5567.127824 kJ/mol
# Density = 1.912526 g / cm^3
# Si number density = 19.168888 Si / 1000 Ang^3
#
#
#
# Elastic Constant Matrix: (Units=GPa)
#
#
# Indices 1 2 3 4 5 6 
#
# 1 23.1974 17.8005 30.9477 0.0000 0.0000 0.0000
# 2 17.8005 103.0771 28.7264 0.0000 0.0000 0.0000
# 3 30.9477 28.7264 103.5208 0.0000 0.0000 0.0000
# 4 0.0000 0.0000 0.0000 5.3262 0.0000 0.0000
# 5 0.0000 0.0000 0.0000 0.0000 -2.8035 0.0000
# 6 0.0000 0.0000 0.0000 0.0000 0.0000 -18.2538
#
#
#
# Elastic Compliance Matrix: (Units=1/GPa)
#
#
# Indices 1 2 3 4 5 6 
#
# 1 0.076610 -0.007421 -0.020843 0.000000 0.000000 0.000000
# 2 -0.007421 0.011233 -0.000899 0.000000 0.000000 0.000000
# 3 -0.020843 -0.000899 0.016140 0.000000 0.000000 0.000000
# 4 0.000000 0.000000 0.000000 0.187751 0.000000 0.000000
# 5 0.000000 0.000000 0.000000 0.000000 -0.356696 0.000000
# 6 0.000000 0.000000 0.000000 0.000000 0.000000 -0.054783
#
#
# Mechanical properties :
#
#
# Convention : Reuss Voigt Hill
#
# Bulk Modulus (GPa) = 21.90210 42.74939 32.32574
# Shear Modulus (GPa) = -108.22720 7.00849 -50.60935
#
# Velocity S-wave (km/s) = -7.52213 1.91419 -5.14384
# Velocity P-wave (km/s) = 7.99953 5.21875 4.28703
#
# Compressibility (1/GPa) = 0.04565773
#
# Stress axis : x y z
#
# Youngs Moduli (GPa) = 13.05310 89.01965 61.95619
#
# Poissons Ratio (x) = 0.66062 1.29138
# Poissons Ratio (y) = 0.09687 0.05568
# Poissons Ratio (z) = 0.27207 0.08000
#
# Static dielectric constant tensor:
#      x y z
#    x 1.658100 0.000000 0.000000 
#    y 0.000000 1.762530 0.000000 
#    z 0.000000 0.000000 1.663140 
# 
# From -- ./inp_files/25318.got.cif
#   From: 2010.05.17/outbox.cif.g08.bks.cpg/sg23_13_cif.got.tgz:25318.got - 2010.06.04 12:02:01.
