data_PCOD9330869
_publ_section_title
;
Structure prediction by ZEFSAII (Michael W. Deem and Ramdas Pophale) SiO2 
 PCOD9330869
Probable space group: I 2 2 2
;
_chemical_formula_sum "Si O2"
_cell_formula_units_Z 32
_cell_length_a 7.614535
_cell_length_b 5.254389
_cell_length_c 38.614909
_cell_angle_alpha 90.000000
_cell_angle_beta 90.000000
_cell_angle_gamma 90.000000
_cell_volume 1544.972042
_symmetry_space_group_name_H-M "I 2 2 2"
_symmetry_group_IT_number 23
_symmetry_cell_setting 'orthorhombic'
loop_
_space_group_symop_operation_xyz
x,y,z
-x,-y,z
x,-y,-z
-x,y,-z
1/2+x,1/2+y,1/2+z
1/2-x,1/2-y,1/2+z
1/2+x,1/2-y,1/2-z
1/2-x,1/2+y,1/2-z
loop_
_atom_site_type_symbol
_atom_site_label
_atom_site_fract_x
_atom_site_fract_y
_atom_site_fract_z
Si Si1 0.378122 0.748081 0.584935
Si Si2 0.800715 0.750525 0.484579
Si Si3 0.619479 0.251281 0.663618
Si Si4 0.688132 0.630282 0.767662
O O1 0.500000 0.500000 0.579260
O O2 0.224346 0.753348 0.556465
O O3 0.309601 0.731111 0.624386
O O4 0.500000 0.000000 0.581751
O O5 0.715670 0.500000 0.500000
O O6 0.000000 0.750581 0.500000
O O7 0.714205 0.000000 0.500000
O O8 0.500000 0.500000 0.670128
O O9 0.758724 0.218444 0.693993
O O10 0.500000 0.000000 0.664444
O O11 0.500000 0.500000 0.766434
O O12 0.805663 0.389433 0.754911
#
# Coordination Sequence:
#
# PCOD9330869 Si02
#       4
#     8   8   8   8
#     4  10  21  37  61  88 117 155 203 248 299 360
#     4  10  21  37  56  84 116 156 195 241 309 344
#     4  10  21  40  63  89 123 163 200 254 310 361
#     4  12  24  40  64  95 125 166 209 255 306 369
#
# _framework density 20.712347999999999
#
# number of rings (size 3 to 8) (size 9 to 14) (size 15 to 20)
#    0.000    1.500    0.000    6.000    0.000    3.000 
#    4.500    0.000    5.500    0.000    0.000    0.000 
#    0.000    0.000    0.000    0.000    0.000    0.000 
#
# Total GULP energy -89311.405057 kJ/mol
# GULP energy per Si atom -5581.962816 kJ/mol
# Density = 2.066521 g / cm^3
# Si number density = 20.712348 Si / 1000 Ang^3
#
#
#
# Elastic Constant Matrix: (Units=GPa)
#
#
# Indices 1 2 3 4 5 6 
#
# 1 80.4685 26.4082 62.3466 0.0000 0.0000 0.0000
# 2 26.4082 188.8806 45.6207 0.0000 0.0000 0.0000
# 3 62.3466 45.6207 179.9981 0.0000 0.0000 0.0000
# 4 0.0000 0.0000 0.0000 35.2364 0.0000 0.0000
# 5 0.0000 0.0000 0.0000 0.0000 47.5009 0.0000
# 6 0.0000 0.0000 0.0000 0.0000 0.0000 8.8170
#
#
#
# Elastic Compliance Matrix: (Units=1/GPa)
#
#
# Indices 1 2 3 4 5 6 
#
# 1 0.017171 -0.001027 -0.005687 0.000000 0.000000 0.000000
# 2 -0.001027 0.005701 -0.001089 0.000000 0.000000 0.000000
# 3 -0.005687 -0.001089 0.007802 0.000000 0.000000 0.000000
# 4 0.000000 0.000000 0.000000 0.028380 0.000000 0.000000
# 5 0.000000 0.000000 0.000000 0.000000 0.021052 0.000000
# 6 0.000000 0.000000 0.000000 0.000000 0.000000 0.113417
#
#
# Mechanical properties :
#
#
# Convention : Reuss Voigt Hill
#
# Bulk Modulus (GPa) = 66.37272 79.78868 73.08070
# Shear Modulus (GPa) = 23.34798 39.30899 31.32848
#
# Velocity S-wave (km/s) = 3.36110 4.36116 3.89337
# Velocity P-wave (km/s) = 6.86857 7.99785 7.45462
#
# Compressibility (1/GPa) = 0.01506643
#
# Stress axis : x y z
#
# Youngs Moduli (GPa) = 58.23885 175.40722 128.17971
#
# Poissons Ratio (x) = 0.18016 0.72898
# Poissons Ratio (y) = 0.05982 0.13961
# Poissons Ratio (z) = 0.33121 0.19105
#
# Static dielectric constant tensor:
#      x y z
#    x 1.718730 0.000000 0.000000 
#    y 0.000000 1.759330 0.000000 
#    z 0.000000 0.000000 1.764210 
# 
# From -- ./inp_files/13157.got.cif
#   From: 2010.05.17/outbox.cif.g08.bks.cpg/sg23_7_cif.got.tgz:13157.got - 2010.06.04 12:02:01.
