data_PCOD9330155
_publ_section_title
;
Structure prediction by ZEFSAII (Michael W. Deem and Ramdas Pophale) SiO2 
 PCOD9330155
Probable space group: I 2 2 2
;
_chemical_formula_sum "Si O2"
_cell_formula_units_Z 36
_cell_length_a 13.833520
_cell_length_b 7.278958
_cell_length_c 14.671182
_cell_angle_alpha 90.000000
_cell_angle_beta 90.000000
_cell_angle_gamma 90.000000
_cell_volume 1477.294294
_symmetry_space_group_name_H-M "I 2 2 2"
_symmetry_group_IT_number 23
_symmetry_cell_setting 'orthorhombic'
loop_
_space_group_symop_operation_xyz
x,y,z
-x,-y,z
x,-y,-z
-x,y,-z
1/2+x,1/2+y,1/2+z
1/2-x,1/2-y,1/2+z
1/2+x,1/2-y,1/2-z
1/2-x,1/2+y,1/2-z
loop_
_atom_site_type_symbol
_atom_site_label
_atom_site_fract_x
_atom_site_fract_y
_atom_site_fract_z
Si Si1 0.550274 0.801703 0.871021
Si Si2 0.379003 0.668477 0.761687
Si Si3 0.637349 0.588038 0.593500
Si Si4 0.827576 0.500000 0.500000
Si Si5 0.836961 0.581456 0.200095
O O1 0.462052 0.676041 0.838185
O O2 0.626715 0.806124 0.788863
O O3 0.500000 0.000000 0.870490
O O4 0.610452 0.824596 0.964807
O O5 0.396700 0.534539 0.677100
O O6 0.278001 0.601391 0.803595
O O7 0.367956 0.872302 0.716916
O O8 0.601251 0.500000 0.500000
O O9 0.754396 0.559229 0.580567
O O10 0.620162 0.801595 0.615727
#
# Coordination Sequence:
#
# PCOD9330155 Si02
#       5
#     8   8   8   4   8
#     4  10  21  36  66  98 130 176 228 284 352 431
#     4  11  21  39  66  95 128 188 231 283 362 435
#     4  10  22  40  67  94 135 181 230 290 348 421
#     4  10  19  42  66 101 136 178 223 292 358 405
#     4  11  20  40  61  95 135 178 235 283 356 433
#
# _framework density 24.368876
#
# number of rings (size 3 to 8) (size 9 to 14) (size 15 to 20)
#    0.667    0.889    4.444    1.667    0.000    1.778 
#    0.000    2.222    0.000    4.000   11.556    0.000 
#    0.000    0.000    0.000    0.000    0.000    0.000 
#
# Total GULP energy -100437.370782 kJ/mol
# GULP energy per Si atom -5579.853932 kJ/mol
# Density = 2.431341 g / cm^3
# Si number density = 24.368876 Si / 1000 Ang^3
#
#
#
# Elastic Constant Matrix: (Units=GPa)
#
#
# Indices 1 2 3 4 5 6 
#
# 1 148.8471 23.2246 34.5345 0.0000 0.0000 0.0000
# 2 23.2246 149.8461 41.7185 0.0000 0.0000 0.0000
# 3 34.5345 41.7185 96.9439 0.0000 0.0000 0.0000
# 4 0.0000 0.0000 0.0000 46.7109 0.0000 0.0000
# 5 0.0000 0.0000 0.0000 0.0000 24.2603 0.0000
# 6 0.0000 0.0000 0.0000 0.0000 0.0000 27.9525
#
#
#
# Elastic Compliance Matrix: (Units=1/GPa)
#
#
# Indices 1 2 3 4 5 6 
#
# 1 0.007352 -0.000466 -0.002418 0.000000 0.000000 0.000000
# 2 -0.000466 0.007611 -0.003109 0.000000 0.000000 0.000000
# 3 -0.002418 -0.003109 0.012515 0.000000 0.000000 0.000000
# 4 0.000000 0.000000 0.000000 0.021408 0.000000 0.000000
# 5 0.000000 0.000000 0.000000 0.000000 0.041220 0.000000
# 6 0.000000 0.000000 0.000000 0.000000 0.000000 0.035775
#
#
# Mechanical properties :
#
#
# Convention : Reuss Voigt Hill
#
# Bulk Modulus (GPa) = 64.55625 66.06580 65.31103
# Shear Modulus (GPa) = 34.95697 39.52869 37.24283
#
# Velocity S-wave (km/s) = 3.79158 4.03190 3.91358
# Velocity P-wave (km/s) = 6.76143 6.98888 6.87610
#
# Compressibility (1/GPa) = 0.01549037
#
# Stress axis : x y z
#
# Youngs Moduli (GPa) = 136.01453 131.38088 79.90495
#
# Poissons Ratio (x) = 0.06125 0.19325
# Poissons Ratio (y) = 0.06341 0.24846
# Poissons Ratio (z) = 0.32894 0.40852
#
# Static dielectric constant tensor:
#      x y z
#    x 2.086390 0.000000 0.000000 
#    y 0.000000 1.935680 0.000000 
#    z 0.000000 0.000000 1.978870 
# 
# From -- ./inp_files/21298.got.cif
#   From: 2010.05.17/outbox.cif.g08.bks.cpg/sg23_11_cif.got.tgz:21298.got - 2010.06.04 12:02:01.
