data_PCOD9330916
_publ_section_title
;
Structure prediction by ZEFSAII (Michael W. Deem and Ramdas Pophale) SiO2 
 PCOD9330916
Probable space group: I 2 2 2
;
_chemical_formula_sum "Si O2"
_cell_formula_units_Z 32
_cell_length_a 10.117175
_cell_length_b 15.122412
_cell_length_c 8.168663
_cell_angle_alpha 90.000000
_cell_angle_beta 90.000000
_cell_angle_gamma 90.000000
_cell_volume 1249.773488
_symmetry_space_group_name_H-M "I 2 2 2"
_symmetry_group_IT_number 23
_symmetry_cell_setting 'orthorhombic'
loop_
_space_group_symop_operation_xyz
x,y,z
-x,-y,z
x,-y,-z
-x,y,-z
1/2+x,1/2+y,1/2+z
1/2-x,1/2-y,1/2+z
1/2+x,1/2-y,1/2-z
1/2-x,1/2+y,1/2-z
loop_
_atom_site_type_symbol
_atom_site_label
_atom_site_fract_x
_atom_site_fract_y
_atom_site_fract_z
Si Si1 0.983191 0.124963 0.190600
Si Si2 0.201859 0.541336 0.679640
Si Si3 0.244880 0.630275 0.155062
Si Si4 0.865126 0.291968 0.819741
O O1 0.157839 0.914575 0.231280
O O2 0.099994 0.099673 0.317565
O O3 0.005423 0.230576 0.178530
O O4 0.000000 0.096580 0.000000
O O5 0.210087 0.500000 0.500000
O O6 0.168402 0.457541 0.791088
O O7 0.112847 0.628362 0.693088
O O8 0.257517 0.716944 0.270574
O O9 0.186850 0.663148 0.984768
#
# Coordination Sequence:
#
# PCOD9330916 Si02
#       4
#     8   8   8   8
#     4  10  21  38  65  96 133 175 217 282 342 394
#     4  12  21  39  70  98 133 175 230 277 339 397
#     4  10  21  37  64  95 140 168 226 276 339 399
#     4  10  23  39  61 102 138 177 215 291 341 397
#
# _framework density 25.604641999999998
#
# number of rings (size 3 to 8) (size 9 to 14) (size 15 to 20)
#    1.500    0.000    2.500    4.500    0.000    1.000 
#    0.000    2.500    0.000   10.500    0.000   15.750 
#    0.000    0.000    0.000    0.000    0.000    0.000 
#
# Total GULP energy -89175.912841 kJ/mol
# GULP energy per Si atom -5573.494553 kJ/mol
# Density = 2.554636 g / cm^3
# Si number density = 25.604642 Si / 1000 Ang^3
#
#
#
# Elastic Constant Matrix: (Units=GPa)
#
#
# Indices 1 2 3 4 5 6 
#
# 1 81.4979 32.5198 19.5366 0.0000 0.0000 0.0000
# 2 32.5198 270.3866 72.5441 0.0000 0.0000 0.0000
# 3 19.5366 72.5441 56.5597 0.0001 0.0000 0.0000
# 4 0.0000 0.0000 0.0001 43.0333 0.0000 0.0000
# 5 0.0000 0.0000 0.0000 0.0000 24.4644 0.0000
# 6 0.0000 0.0000 0.0000 0.0000 0.0000 36.5754
#
#
#
# Elastic Compliance Matrix: (Units=1/GPa)
#
#
# Indices 1 2 3 4 5 6 
#
# 1 0.013434 -0.000565 -0.003915 0.000000 0.000000 0.000000
# 2 -0.000565 0.005663 -0.007068 0.000000 0.000000 0.000000
# 3 -0.003915 -0.007068 0.028098 0.000000 0.000000 0.000000
# 4 0.000000 0.000000 0.000000 0.023238 0.000000 0.000000
# 5 0.000000 0.000000 0.000000 0.000000 0.040876 0.000000
# 6 0.000000 0.000000 0.000000 0.000000 0.000000 0.027341
#
#
# Mechanical properties :
#
#
# Convention : Reuss Voigt Hill
#
# Bulk Modulus (GPa) = 41.49678 73.07166 57.28422
# Shear Modulus (GPa) = 29.45004 39.73752 34.59378
#
# Velocity S-wave (km/s) = 3.39512 3.94377 3.67968
# Velocity P-wave (km/s) = 5.62237 7.02412 6.36196
#
# Compressibility (1/GPa) = 0.02409826
#
# Stress axis : x y z
#
# Youngs Moduli (GPa) = 74.43565 176.59591 35.58970
#
# Poissons Ratio (x) = 0.09983 0.13935
# Poissons Ratio (y) = 0.04208 0.25154
# Poissons Ratio (z) = 0.29145 1.24813
#
# Static dielectric constant tensor:
#      x y z
#    x 2.306240 0.000000 0.000000 
#    y 0.000000 2.077020 0.000000 
#    z 0.000000 0.000000 2.041670 
# 
# From -- ./inp_files/9385.got.cif
#   From: 2010.05.17/outbox.cif.g08.bks.cpg/sg23_5_cif.got.tgz:9385.got - 2010.06.04 12:02:01.
