data_PCOD9330826
_publ_section_title
;
Structure prediction by ZEFSAII (Michael W. Deem and Ramdas Pophale) SiO2 
 PCOD9330826
Probable space group: I 2 2 2
;
_chemical_formula_sum "Si O2"
_cell_formula_units_Z 40
_cell_length_a 10.115054
_cell_length_b 24.511824
_cell_length_c 8.449497
_cell_angle_alpha 90.000000
_cell_angle_beta 90.000000
_cell_angle_gamma 90.000000
_cell_volume 2094.954965
_symmetry_space_group_name_H-M "I 2 2 2"
_symmetry_group_IT_number 23
_symmetry_cell_setting 'orthorhombic'
loop_
_space_group_symop_operation_xyz
x,y,z
-x,-y,z
x,-y,-z
-x,y,-z
1/2+x,1/2+y,1/2+z
1/2-x,1/2-y,1/2+z
1/2+x,1/2-y,1/2-z
1/2-x,1/2+y,1/2-z
loop_
_atom_site_type_symbol
_atom_site_label
_atom_site_fract_x
_atom_site_fract_y
_atom_site_fract_z
Si Si1 0.136481 0.214917 0.596366
Si Si2 0.634389 0.440099 0.923845
Si Si3 0.860114 0.657108 0.587232
Si Si4 0.882040 0.873839 0.873818
Si Si5 0.349409 0.138859 0.445265
O O1 0.163454 0.278641 0.622211
O O2 0.116928 0.177793 0.752606
O O3 0.259170 0.190118 0.498081
O O4 0.000000 0.211779 0.500000
O O5 0.616985 0.427697 0.737632
O O6 0.640342 0.500000 0.000000
O O7 0.500000 0.414924 0.000000
O O8 0.768161 0.409897 0.973773
O O9 0.751292 0.632414 0.472320
O O10 0.852693 0.629873 0.758201
O O11 0.000000 0.652170 0.500000
O O12 0.000000 0.872694 0.000000
O O13 0.500000 0.145061 0.500000
#
# Coordination Sequence:
#
# PCOD9330826 Si02
#       5
#     8   8   8   8   8
#     4  10  21  36  55  82 121 165 199 232 289 355
#     4  10  22  43  65  84 111 152 195 244 314 372
#     4  11  22  35  54  85 121 158 200 242 283 343
#     4  11  21  36  61  90 118 151 201 255 292 345
#     4  11  22  38  58  82 117 156 193 237 298 360
#
# _framework density 19.093488000000001
#
# number of rings (size 3 to 8) (size 9 to 14) (size 15 to 20)
#    0.000    1.400    0.000    8.400    0.000    6.800 
#    0.000    7.000    0.000    1.200    0.000    0.000 
#    0.000    0.000    0.000    0.000    0.000    0.000 
#
# Total GULP energy -111624.812796 kJ/mol
# GULP energy per Si atom -5581.240640 kJ/mol
# Density = 1.905003 g / cm^3
# Si number density = 19.093488 Si / 1000 Ang^3
#
#
#
# Elastic Constant Matrix: (Units=GPa)
#
#
# Indices 1 2 3 4 5 6 
#
# 1 161.1641 24.0470 60.4352 0.0002 -0.0001 -0.0003
# 2 24.0470 40.9750 17.2865 0.0000 -0.0001 0.0000
# 3 60.4352 17.2865 158.5204 -0.0011 -0.0021 -0.0014
# 4 0.0002 0.0000 -0.0011 15.2421 -0.0006 -0.0008
# 5 -0.0001 -0.0001 -0.0021 -0.0006 43.8044 0.0003
# 6 -0.0003 0.0000 -0.0014 -0.0008 0.0003 10.5870
#
#
#
# Elastic Compliance Matrix: (Units=1/GPa)
#
#
# Indices 1 2 3 4 5 6 
#
# 1 0.007673 -0.003427 -0.002552 0.000000 0.000000 0.000000
# 2 -0.003427 0.027112 -0.001650 0.000000 0.000000 0.000000
# 3 -0.002552 -0.001650 0.007461 0.000001 0.000000 0.000001
# 4 0.000000 0.000000 0.000001 0.065608 0.000001 0.000005
# 5 0.000000 0.000000 0.000000 0.000001 0.022829 -0.000001
# 6 0.000000 0.000000 0.000001 0.000005 -0.000001 0.094455
#
#
# Mechanical properties :
#
#
# Convention : Reuss Voigt Hill
#
# Bulk Modulus (GPa) = 37.05140 62.68855 49.86997
# Shear Modulus (GPa) = 20.04882 31.18610 25.61746
#
# Velocity S-wave (km/s) = 3.24394 4.04584 3.66688
# Velocity P-wave (km/s) = 5.78604 7.39789 6.64105
#
# Compressibility (1/GPa) = 0.02698953
#
# Stress axis : x y z
#
# Youngs Moduli (GPa) = 130.32780 36.88369 134.02874
#
# Poissons Ratio (x) = 0.12638 0.34199
# Poissons Ratio (y) = 0.44657 0.22118
# Poissons Ratio (z) = 0.33255 0.06087
#
# Static dielectric constant tensor:
#      x y z
#    x 1.637710 0.000000 0.000000 
#    y 0.000000 1.725630 0.000000 
#    z 0.000000 0.000000 1.656440 
# 
# From -- ./inp_files/6901.got.cif
#   From: 2010.05.17/outbox.cif.g08.bks.cpg/sg23_4_cif.got.tgz:6901.got - 2010.06.04 12:02:01.
