data_PCOD9330700
_publ_section_title
;
Structure prediction by ZEFSAII (Michael W. Deem and Ramdas Pophale) SiO2 
 PCOD9330700
Probable space group: I 2 2 2
;
_chemical_formula_sum "Si O2"
_cell_formula_units_Z 34
_cell_length_a 8.579553
_cell_length_b 15.139868
_cell_length_c 12.433908
_cell_angle_alpha 90.000000
_cell_angle_beta 90.000000
_cell_angle_gamma 90.000000
_cell_volume 1615.081341
_symmetry_space_group_name_H-M "I 2 2 2"
_symmetry_group_IT_number 23
_symmetry_cell_setting 'orthorhombic'
loop_
_space_group_symop_operation_xyz
x,y,z
-x,-y,z
x,-y,-z
-x,y,-z
1/2+x,1/2+y,1/2+z
1/2-x,1/2-y,1/2+z
1/2+x,1/2-y,1/2-z
1/2-x,1/2+y,1/2-z
loop_
_atom_site_type_symbol
_atom_site_label
_atom_site_fract_x
_atom_site_fract_y
_atom_site_fract_z
Si Si1 0.300801 0.161526 0.217710
Si Si2 0.325717 0.144398 0.761633
Si Si3 0.000000 0.500000 0.000000
Si Si4 0.823368 0.894972 0.991909
Si Si5 0.774114 0.976626 0.381849
O O1 0.485860 0.148499 0.238224
O O2 0.246360 0.261618 0.230879
O O3 0.271281 0.136307 0.094825
O O4 0.189629 0.098351 0.294068
O O5 0.260641 0.066627 0.683278
O O6 0.262064 0.126286 0.881151
O O7 0.890413 0.558391 0.927759
O O8 0.000000 0.858268 0.000000
O O9 0.834059 0.000000 0.000000
O O10 0.847334 0.000000 0.500000
#
# Coordination Sequence:
#
# PCOD9330700 Si02
#       5
#     8   8   2   8   8
#     4  12  24  42  68  99 133 173 221 272 332 402
#     4  12  24  42  68  99 133 173 221 272 332 402
#     4   8  16  36  68  86 118 166 228 240 320 380
#     4  11  25  44  67  94 132 176 224 282 335 383
#     4  10  20  41  66  91 127 176 217 259 324 397
#
# _framework density 21.051572
#
# number of rings (size 3 to 8) (size 9 to 14) (size 15 to 20)
#    0.706    0.235    4.706    2.118    3.294    0.941 
#    4.235    0.000    0.000    5.647    0.000    0.000 
#    0.000    0.000    0.000    0.000    0.000    0.000 
#
# Total GULP energy -94634.125912 kJ/mol
# GULP energy per Si atom -5566.713289 kJ/mol
# Density = 2.100366 g / cm^3
# Si number density = 21.051572 Si / 1000 Ang^3
#
#
#
# Elastic Constant Matrix: (Units=GPa)
#
#
# Indices 1 2 3 4 5 6 
#
# 1 107.9659 30.2934 50.6989 0.0000 0.0000 0.0000
# 2 30.2934 146.7254 76.9626 0.0000 0.0000 0.0000
# 3 50.6989 76.9626 201.5481 0.0000 0.0000 0.0000
# 4 0.0000 0.0000 0.0000 26.9531 0.0000 0.0000
# 5 0.0000 0.0000 0.0000 0.0000 64.1722 0.0000
# 6 0.0000 0.0000 0.0000 0.0000 0.0000 17.1069
#
#
#
# Elastic Compliance Matrix: (Units=1/GPa)
#
#
# Indices 1 2 3 4 5 6 
#
# 1 0.010616 -0.000989 -0.002293 0.000000 0.000000 0.000000
# 2 -0.000989 0.008615 -0.003041 0.000000 0.000000 0.000000
# 3 -0.002293 -0.003041 0.006699 0.000000 0.000000 0.000000
# 4 0.000000 0.000000 0.000000 0.037101 0.000000 0.000000
# 5 0.000000 0.000000 0.000000 0.000000 0.015583 0.000000
# 6 0.000000 0.000000 0.000000 0.000000 0.000000 0.058456
#
#
# Mechanical properties :
#
#
# Convention : Reuss Voigt Hill
#
# Bulk Modulus (GPa) = 75.27282 85.79437 80.53360
# Shear Modulus (GPa) = 32.43704 41.53208 36.98456
#
# Velocity S-wave (km/s) = 3.92961 4.44652 4.19603
# Velocity P-wave (km/s) = 7.51153 8.19786 7.86219
#
# Compressibility (1/GPa) = 0.01328501
#
# Stress axis : x y z
#
# Youngs Moduli (GPa) = 94.19395 116.08113 149.26581
#
# Poissons Ratio (x) = 0.11483 0.34223
# Poissons Ratio (y) = 0.09318 0.45388
# Poissons Ratio (z) = 0.21596 0.35297
#
# Static dielectric constant tensor:
#      x y z
#    x 1.852360 0.000000 0.000000 
#    y 0.000000 1.619980 0.000000 
#    z 0.000000 0.000000 1.753090 
# 
# From -- ./inp_files/14310.got.cif
#   From: 2010.05.17/outbox.cif.g08.bks.cpg/sg23_8_cif.got.tgz:14310.got - 2010.06.04 12:02:01.
