data_PCOD9330932
_publ_section_title
;
Structure prediction by ZEFSAII (Michael W. Deem and Ramdas Pophale) SiO2 
 PCOD9330932
Probable space group: I 2 2 2
;
_chemical_formula_sum "Si O2"
_cell_formula_units_Z 52
_cell_length_a 15.089527
_cell_length_b 19.323757
_cell_length_c 9.121240
_cell_angle_alpha 90.000000
_cell_angle_beta 90.000000
_cell_angle_gamma 90.000000
_cell_volume 2659.629106
_symmetry_space_group_name_H-M "I 2 2 2"
_symmetry_group_IT_number 23
_symmetry_cell_setting 'orthorhombic'
loop_
_space_group_symop_operation_xyz
x,y,z
-x,-y,z
x,-y,-z
-x,y,-z
1/2+x,1/2+y,1/2+z
1/2-x,1/2-y,1/2+z
1/2+x,1/2-y,1/2-z
1/2-x,1/2+y,1/2-z
loop_
_atom_site_type_symbol
_atom_site_label
_atom_site_fract_x
_atom_site_fract_y
_atom_site_fract_z
Si Si1 0.835527 0.945022 0.112400
Si Si2 0.000000 0.500000 0.500000
Si Si3 0.475520 0.323639 0.661140
Si Si4 0.343780 0.093736 0.943247
Si Si5 0.909498 0.256725 0.581771
Si Si6 0.223017 0.468906 0.159543
Si Si7 0.381163 0.624291 0.882459
Si Si8 0.000000 0.000000 0.500000
O O1 0.906967 0.887658 0.153949
O O2 0.789855 0.978078 0.256436
O O3 0.751063 0.920279 0.017167
O O4 0.879454 0.000000 0.000000
O O5 0.076711 0.441120 0.536653
O O6 0.500000 0.301798 0.500000
O O7 0.430301 0.262997 0.752420
O O8 0.565531 0.345378 0.744701
O O9 0.350274 0.176005 0.930221
O O10 0.347142 0.055497 0.783470
O O11 0.883025 0.184141 0.505074
O O12 0.000000 0.276007 0.500000
O O13 0.281849 0.400366 0.137652
O O14 0.196536 0.500000 0.000000
O O15 0.436094 0.554584 0.919658
#
# Coordination Sequence:
#
# PCOD9330932 Si02
#       8
#     8   2   8   8   8   8   8   2
#     4  10  21  38  58  93 122 158 209 245 296 360
#     4  12  20  46  74  80  98 158 222 252 312 366
#     4  11  21  36  56  91 133 160 197 242 298 364
#     4  11  23  42  69  84 111 162 213 264 308 364
#     4  10  22  41  59  87 120 169 211 237 303 388
#     4  11  21  37  60  97 127 146 204 267 299 348
#     4  11  21  36  61  90 130 175 197 227 302 382
#     4  12  16  34  62  92 112 176 210 212 276 374
#
# _framework density 19.551599
#
# number of rings (size 3 to 8) (size 9 to 14) (size 15 to 20)
#    0.000    1.231    6.154    3.692    0.000    2.769 
#    0.000    5.000    0.000    0.000    0.000    0.000 
#    0.000    0.000    0.000    0.000    0.000    0.000 
#
# Total GULP energy -144772.186821 kJ/mol
# GULP energy per Si atom -5568.161032 kJ/mol
# Density = 1.950710 g / cm^3
# Si number density = 19.551599 Si / 1000 Ang^3
#
#
#
# Elastic Constant Matrix: (Units=GPa)
#
#
# Indices 1 2 3 4 5 6 
#
# 1 42.9823 20.2242 6.5791 0.0000 0.0000 0.0000
# 2 20.2242 110.4714 44.4582 0.0000 0.0000 0.0000
# 3 6.5791 44.4582 115.6680 0.0000 0.0000 0.0000
# 4 0.0000 0.0000 0.0000 -14.0439 0.0000 0.0000
# 5 0.0000 0.0000 0.0000 0.0000 8.8122 0.0000
# 6 0.0000 0.0000 0.0000 0.0000 0.0000 -35.3959
#
#
#
# Elastic Compliance Matrix: (Units=1/GPa)
#
#
# Indices 1 2 3 4 5 6 
#
# 1 0.025474 -0.004827 0.000406 0.000000 0.000000 0.000000
# 2 -0.004827 0.011623 -0.004193 0.000000 0.000000 0.000000
# 3 0.000406 -0.004193 0.010234 0.000000 0.000000 0.000000
# 4 0.000000 0.000000 0.000000 -0.071206 0.000000 0.000000
# 5 0.000000 0.000000 0.000000 0.000000 0.113479 0.000000
# 6 0.000000 0.000000 0.000000 0.000000 0.000000 -0.028252
#
#
# Mechanical properties :
#
#
# Convention : Reuss Voigt Hill
#
# Bulk Modulus (GPa) = 33.21799 45.73830 39.47815
# Shear Modulus (GPa) = 56.42328 5.06517 30.74423
#
# Velocity S-wave (km/s) = 5.37785 1.61130 3.96974
# Velocity P-wave (km/s) = 7.45577 5.18711 6.42241
#
# Compressibility (1/GPa) = 0.03010417
#
# Stress axis : x y z
#
# Youngs Moduli (GPa) = 39.25495 86.03443 97.71427
#
# Poissons Ratio (x) = 0.41531 -0.03971
# Poissons Ratio (y) = 0.18949 0.40971
# Poissons Ratio (z) = -0.01595 0.36074
#
# Static dielectric constant tensor:
#      x y z
#    x 1.696360 0.000000 0.000000 
#    y 0.000000 1.711250 0.000000 
#    z 0.000000 0.000000 1.748010 
# 
# From -- ./inp_files/10197.got.cif
#   From: 2010.05.17/outbox.cif.g08.bks.cpg/sg23_6_cif.got.tgz:10197.got - 2010.06.04 12:02:01.
