data_PCOD9330964
_publ_section_title
;
Structure prediction by ZEFSAII (Michael W. Deem and Ramdas Pophale) SiO2 
 PCOD9330964
Probable space group: I 2 2 2
;
_chemical_formula_sum "Si O2"
_cell_formula_units_Z 40
_cell_length_a 7.972534
_cell_length_b 8.454742
_cell_length_c 26.914904
_cell_angle_alpha 90.000000
_cell_angle_beta 90.000000
_cell_angle_gamma 90.000000
_cell_volume 1814.218431
_symmetry_space_group_name_H-M "I 2 2 2"
_symmetry_group_IT_number 23
_symmetry_cell_setting 'orthorhombic'
loop_
_space_group_symop_operation_xyz
x,y,z
-x,-y,z
x,-y,-z
-x,y,-z
1/2+x,1/2+y,1/2+z
1/2-x,1/2-y,1/2+z
1/2+x,1/2-y,1/2-z
1/2-x,1/2+y,1/2-z
loop_
_atom_site_type_symbol
_atom_site_label
_atom_site_fract_x
_atom_site_fract_y
_atom_site_fract_z
Si Si1 0.848280 0.394947 0.287984
Si Si2 0.039124 0.680275 0.441680
Si Si3 0.655489 0.601837 0.867948
Si Si4 0.175941 0.714429 0.873203
Si Si5 0.628020 0.312535 0.693794
O O1 0.794133 0.267151 0.327746
O O2 0.687577 0.516253 0.285574
O O3 0.913516 0.306450 0.238726
O O4 0.000000 0.500000 0.306264
O O5 0.915258 0.805193 0.415445
O O6 0.000000 0.500000 0.426674
O O7 0.000000 0.692141 0.500000
O O8 0.228454 0.718561 0.422120
O O9 0.500000 0.500000 0.849600
O O10 0.805188 0.475386 0.876987
O O11 0.708468 0.730402 0.828712
O O12 0.002417 0.791249 0.852703
#
# Coordination Sequence:
#
# PCOD9330964 Si02
#       5
#     8   8   8   8   8
#     4  12  24  39  60  88 131 180 226 273 344 416
#     4  10  22  43  70  97 127 171 221 272 349 435
#     4  10  21  38  63  90 127 171 220 276 343 415
#     4  11  23  39  62  95 130 170 228 287 340 404
#     4  12  24  40  62  93 132 175 230 289 339 407
#
# _framework density 22.048062999999999
#
# number of rings (size 3 to 8) (size 9 to 14) (size 15 to 20)
#    0.000    1.000    0.000    9.000    0.000    5.200 
#    0.000    1.000    0.000    7.200    0.000    0.000 
#    0.000    0.000    0.000    0.000    0.000    0.000 
#
# Total GULP energy -111534.802968 kJ/mol
# GULP energy per Si atom -5576.740148 kJ/mol
# Density = 2.199788 g / cm^3
# Si number density = 22.048063 Si / 1000 Ang^3
#
#
#
# Elastic Constant Matrix: (Units=GPa)
#
#
# Indices 1 2 3 4 5 6 
#
# 1 67.4079 32.3150 25.2316 0.0000 0.0000 0.0000
# 2 32.3150 135.9783 29.4595 0.0000 0.0000 0.0000
# 3 25.2316 29.4595 96.0539 0.0000 0.0000 0.0000
# 4 0.0000 0.0000 0.0000 44.1582 0.0000 0.0000
# 5 0.0000 0.0000 0.0000 0.0000 27.9650 0.0000
# 6 0.0000 0.0000 0.0000 0.0000 0.0000 25.6026
#
#
#
# Elastic Compliance Matrix: (Units=1/GPa)
#
#
# Indices 1 2 3 4 5 6 
#
# 1 0.017850 -0.003456 -0.003629 0.000000 0.000000 0.000000
# 2 -0.003456 0.008547 -0.001713 0.000000 0.000000 0.000000
# 3 -0.003629 -0.001713 0.011890 0.000000 0.000000 0.000000
# 4 0.000000 0.000000 0.000000 0.022646 0.000000 0.000000
# 5 0.000000 0.000000 0.000000 0.000000 0.035759 0.000000
# 6 0.000000 0.000000 0.000000 0.000000 0.000000 0.039059
#
#
# Mechanical properties :
#
#
# Convention : Reuss Voigt Hill
#
# Bulk Modulus (GPa) = 48.33302 52.60581 50.46942
# Shear Modulus (GPa) = 31.20262 33.70743 32.45503
#
# Velocity S-wave (km/s) = 3.76601 3.91425 3.84084
# Velocity P-wave (km/s) = 6.39372 6.65882 6.52762
#
# Compressibility (1/GPa) = 0.02068979
#
# Stress axis : x y z
#
# Youngs Moduli (GPa) = 56.02191 117.00554 84.10714
#
# Poissons Ratio (x) = 0.40435 0.30523
# Poissons Ratio (y) = 0.19360 0.14411
# Poissons Ratio (z) = 0.20330 0.20048
#
# Static dielectric constant tensor:
#      x y z
#    x 1.972370 0.000000 0.000000 
#    y 0.000000 1.894520 0.000000 
#    z 0.000000 0.000000 1.797990 
# 
# From -- ./inp_files/12882.got.cif
#   From: 2010.05.17/outbox.cif.g08.bks.cpg/sg23_7_cif.got.tgz:12882.got - 2010.06.04 12:02:01.
