data_PCOD9330720
_publ_section_title
;
Structure prediction by ZEFSAII (Michael W. Deem and Ramdas Pophale) SiO2 
 PCOD9330720
Probable space group: I 2 2 2
;
_chemical_formula_sum "Si O2"
_cell_formula_units_Z 48
_cell_length_a 9.519736
_cell_length_b 28.796332
_cell_length_c 8.036894
_cell_angle_alpha 90.000000
_cell_angle_beta 90.000000
_cell_angle_gamma 90.000000
_cell_volume 2203.181708
_symmetry_space_group_name_H-M "I 2 2 2"
_symmetry_group_IT_number 23
_symmetry_cell_setting 'orthorhombic'
loop_
_space_group_symop_operation_xyz
x,y,z
-x,-y,z
x,-y,-z
-x,y,-z
1/2+x,1/2+y,1/2+z
1/2-x,1/2-y,1/2+z
1/2+x,1/2-y,1/2-z
1/2-x,1/2+y,1/2-z
loop_
_atom_site_type_symbol
_atom_site_label
_atom_site_fract_x
_atom_site_fract_y
_atom_site_fract_z
Si Si1 0.500000 0.000000 0.000000
Si Si2 0.000000 0.500000 0.000000
Si Si3 0.500000 0.391153 0.000000
Si Si4 0.368131 0.752852 0.381884
Si Si5 0.930900 0.050570 0.168630
Si Si6 0.021784 0.339680 0.302931
Si Si7 0.234035 0.821366 0.633562
Si Si8 0.877740 0.562273 0.258551
O O1 0.489100 0.040765 0.142775
O O2 0.892638 0.464292 0.912499
O O3 0.455738 0.421151 0.161489
O O4 0.626439 0.358503 0.062847
O O5 0.500000 0.743042 0.500000
O O6 0.415048 0.789855 0.242488
O O7 0.259596 0.781601 0.494855
O O8 0.317372 0.706241 0.296441
O O9 0.762681 0.046310 0.146286
O O10 0.000000 0.000000 0.187558
O O11 0.000000 0.071358 0.000000
O O12 0.118383 0.382718 0.249944
O O13 0.000000 0.343260 0.500000
O O14 0.881342 0.343434 0.191400
#
# Coordination Sequence:
#
# PCOD9330720 Si02
#       8
#     2   2   4   8   8   8   8   8
#     4  10  20  42  64 102 128 180 224 292 348 434
#     4  10  28  38  78 102 148 182 236 308 360 442
#     4  12  29  42  75 108 148 187 250 303 372 444
#     4  10  24  44  70  98 136 186 235 298 363 440
#     4  11  27  49  74 105 150 196 239 301 371 449
#     4  11  24  43  75 101 140 185 238 305 359 444
#     4  11  26  45  70 103 143 186 245 298 378 432
#     4  11  24  44  70 104 140 183 242 292 367 432
#
# _framework density 21.786671999999999
#
# number of rings (size 3 to 8) (size 9 to 14) (size 15 to 20)
#    0.000    1.167    0.833    3.250   16.333    2.000 
#    0.000    0.000    0.000    0.000    0.000    0.000 
#    0.000    0.000    0.000    0.000    0.000    0.000 
#
# Total GULP energy -133857.356239 kJ/mol
# GULP energy per Si atom -5577.389843 kJ/mol
# Density = 2.173708 g / cm^3
# Si number density = 21.786672 Si / 1000 Ang^3
#
#
#
# Elastic Constant Matrix: (Units=GPa)
#
#
# Indices 1 2 3 4 5 6 
#
# 1 49.3243 36.2984 16.6623 -0.0005 -0.0007 0.0013
# 2 36.2984 68.6583 34.0124 -0.0003 -0.0003 0.0005
# 3 16.6623 34.0124 109.7623 0.0004 -0.0007 0.0064
# 4 -0.0005 -0.0003 0.0004 18.1010 0.0004 0.0006
# 5 -0.0007 -0.0003 -0.0007 0.0004 18.6147 0.0012
# 6 0.0013 0.0005 0.0064 0.0006 0.0012 0.5922
#
#
#
# Elastic Compliance Matrix: (Units=1/GPa)
#
#
# Indices 1 2 3 4 5 6 
#
# 1 0.033206 -0.017789 0.000472 0.000001 0.000001 -0.000065
# 2 -0.017789 0.026736 -0.005584 0.000000 0.000000 0.000078
# 3 0.000472 -0.005584 0.010769 0.000000 0.000000 -0.000113
# 4 0.000001 0.000000 0.000000 0.055245 -0.000001 -0.000058
# 5 0.000001 0.000000 0.000000 -0.000001 0.053721 -0.000105
# 6 -0.000065 0.000078 -0.000113 -0.000058 -0.000105 1.688730
#
#
# Mechanical properties :
#
#
# Convention : Reuss Voigt Hill
#
# Bulk Modulus (GPa) = 40.14802 44.63233 42.39017
# Shear Modulus (GPa) = 2.60076 16.84637 9.72357
#
# Velocity S-wave (km/s) = 1.09377 2.78374 2.11489
# Velocity P-wave (km/s) = 4.47916 5.55543 5.04607
#
# Compressibility (1/GPa) = 0.02490783
#
# Stress axis : x y z
#
# Youngs Moduli (GPa) = 30.11523 37.40277 92.85516
#
# Poissons Ratio (x) = 0.66535 -0.04379
# Poissons Ratio (y) = 0.53572 0.51854
# Poissons Ratio (z) = -0.01420 0.20887
#
# Static dielectric constant tensor:
#      x y z
#    x 1.871090 0.000000 0.000000 
#    y 0.000000 1.754460 0.000000 
#    z 0.000000 0.000000 1.913860 
# 
# From -- ./inp_files/7432.got.cif
#   From: 2010.05.17/outbox.cif.g08.bks.cpg/sg23_4_cif.got.tgz:7432.got - 2010.06.04 12:02:01.
