data_PCOD9330555
_publ_section_title
;
Structure prediction by ZEFSAII (Michael W. Deem and Ramdas Pophale) SiO2 
 PCOD9330555
Probable space group: I 2 2 2
;
_chemical_formula_sum "Si O2"
_cell_formula_units_Z 56
_cell_length_a 9.496979
_cell_length_b 16.810976
_cell_length_c 14.618658
_cell_angle_alpha 90.000000
_cell_angle_beta 90.000000
_cell_angle_gamma 90.000000
_cell_volume 2333.919711
_symmetry_space_group_name_H-M "I 2 2 2"
_symmetry_group_IT_number 23
_symmetry_cell_setting 'orthorhombic'
loop_
_space_group_symop_operation_xyz
x,y,z
-x,-y,z
x,-y,-z
-x,y,-z
1/2+x,1/2+y,1/2+z
1/2-x,1/2-y,1/2+z
1/2+x,1/2-y,1/2-z
1/2-x,1/2+y,1/2-z
loop_
_atom_site_type_symbol
_atom_site_label
_atom_site_fract_x
_atom_site_fract_y
_atom_site_fract_z
Si Si1 0.620998 0.300892 0.060376
Si Si2 0.737285 0.118540 0.827610
Si Si3 0.474086 0.905526 0.271558
Si Si4 0.664406 0.682111 0.491495
Si Si5 0.254856 0.061636 0.857376
Si Si6 0.010179 0.912323 0.289550
Si Si7 0.652331 0.908595 0.535997
O O1 0.747872 0.239240 0.076015
O O2 0.531099 0.343977 0.139151
O O3 0.500000 0.260706 0.000000
O O4 0.709819 0.367313 0.004121
O O5 0.624846 0.135460 0.746402
O O6 0.887913 0.101660 0.783933
O O7 0.701760 0.030383 0.865218
O O8 0.761153 0.180255 0.909208
O O9 0.395510 0.894225 0.175737
O O10 0.372509 0.888499 0.357118
O O11 0.500000 0.000000 0.286772
O O12 0.500000 0.700736 0.500000
O O13 0.682767 0.595742 0.446699
O O14 0.148779 0.079284 0.772715
O O15 0.000000 0.000000 0.335415
O O16 0.500000 0.880257 0.500000
O O17 0.660585 0.000000 0.500000
#
# Coordination Sequence:
#
# PCOD9330555 Si02
#       7
#     8   8   8   8   8   8   8
#     4  12  29  44  65 102 145 189 238 294 365 435
#     4  10  22  41  76 106 138 179 243 303 351 432
#     4  10  20  38  64 107 137 167 221 291 360 413
#     4  12  26  49  67 100 145 195 236 294 378 451
#     4  10  22  41  74 104 137 181 239 303 359 419
#     4  10  22  44  72 104 133 179 244 303 351 416
#     4  11  22  41  73 100 136 184 231 287 351 429
#
# _framework density 23.993970999999998
#
# number of rings (size 3 to 8) (size 9 to 14) (size 15 to 20)
#    0.000    1.286    2.857    2.571    8.000    0.571 
#    5.143    2.143    0.000    0.000    0.000    0.000 
#    0.000    0.000    0.000    0.000    0.000    0.000 
#
# Total GULP energy -156094.864442 kJ/mol
# GULP energy per Si atom -5574.816587 kJ/mol
# Density = 2.393936 g / cm^3
# Si number density = 23.993971 Si / 1000 Ang^3
#
#
#
# Elastic Constant Matrix: (Units=GPa)
#
#
# Indices 1 2 3 4 5 6 
#
# 1 89.5647 3.2372 5.3746 0.0000 0.0000 0.0000
# 2 3.2372 48.2627 16.5016 0.0000 0.0000 0.0000
# 3 5.3746 16.5016 68.3897 0.0000 0.0000 0.0000
# 4 0.0000 0.0000 0.0000 18.2481 0.0000 0.0000
# 5 0.0000 0.0000 0.0000 0.0000 26.6333 0.0000
# 6 0.0000 0.0000 0.0000 0.0000 0.0000 34.0185
#
#
#
# Elastic Compliance Matrix: (Units=1/GPa)
#
#
# Indices 1 2 3 4 5 6 
#
# 1 0.011229 -0.000492 -0.000764 0.000000 0.000000 0.000000
# 2 -0.000492 0.022605 -0.005416 0.000000 0.000000 0.000000
# 3 -0.000764 -0.005416 0.015989 0.000000 0.000000 0.000000
# 4 0.000000 0.000000 0.000000 0.054800 0.000000 0.000000
# 5 0.000000 0.000000 0.000000 0.000000 0.037547 0.000000
# 6 0.000000 0.000000 0.000000 0.000000 0.000000 0.029396
#
#
# Mechanical properties :
#
#
# Convention : Reuss Voigt Hill
#
# Bulk Modulus (GPa) = 27.41265 28.49377 27.95321
# Shear Modulus (GPa) = 25.37203 27.85356 26.61279
#
# Velocity S-wave (km/s) = 3.25535 3.41083 3.33400
# Velocity P-wave (km/s) = 5.05760 5.23573 5.14744
#
# Compressibility (1/GPa) = 0.03647951
#
# Stress axis : x y z
#
# Youngs Moduli (GPa) = 89.05724 44.23887 62.54372
#
# Poissons Ratio (x) = 0.02177 0.04777
# Poissons Ratio (y) = 0.04382 0.33871
# Poissons Ratio (z) = 0.06802 0.23958
#
# Static dielectric constant tensor:
#      x y z
#    x 1.883440 0.000000 0.000000 
#    y 0.000000 2.031760 0.000000 
#    z 0.000000 0.000000 1.992300 
# 
# From -- ./inp_files/20211.got.cif
#   From: 2010.05.17/outbox.cif.g08.bks.cpg/sg23_11_cif.got.tgz:20211.got - 2010.06.04 12:02:01.
