data_PCOD9330454
_publ_section_title
;
Structure prediction by ZEFSAII (Michael W. Deem and Ramdas Pophale) SiO2 
 PCOD9330454
Probable space group: I 2 2 2
;
_chemical_formula_sum "Si O2"
_cell_formula_units_Z 64
_cell_length_a 18.243767
_cell_length_b 17.600179
_cell_length_c 11.714958
_cell_angle_alpha 90.000000
_cell_angle_beta 90.000000
_cell_angle_gamma 90.000000
_cell_volume 3761.597626
_symmetry_space_group_name_H-M "I 2 2 2"
_symmetry_group_IT_number 23
_symmetry_cell_setting 'orthorhombic'
loop_
_space_group_symop_operation_xyz
x,y,z
-x,-y,z
x,-y,-z
-x,y,-z
1/2+x,1/2+y,1/2+z
1/2-x,1/2-y,1/2+z
1/2+x,1/2-y,1/2-z
1/2-x,1/2+y,1/2-z
loop_
_atom_site_type_symbol
_atom_site_label
_atom_site_fract_x
_atom_site_fract_y
_atom_site_fract_z
Si Si1 0.806124 0.089264 0.635425
Si Si2 0.844226 0.359396 0.765599
Si Si3 0.912442 0.588479 0.000000
Si Si4 0.306124 0.589264 0.864575
Si Si5 0.085128 0.500000 0.363687
Si Si6 0.155774 0.640604 0.234401
Si Si7 0.085852 0.778966 0.635467
Si Si8 0.914148 0.221034 0.364533
O O1 0.787143 0.095253 0.500000
O O2 0.741130 0.126513 0.708808
O O3 0.879809 0.137626 0.652344
O O4 0.813046 1.000000 0.661773
O O5 0.883592 0.370926 0.887156
O O6 0.758870 0.373487 0.791193
O O7 0.875229 0.426273 0.685686
O O8 0.866969 0.280886 0.707443
O O9 0.886576 0.500000 0.000000
O O10 0.883592 0.629074 0.887156
O O11 0.000000 0.587582 0.000000
O O12 0.379809 0.637626 0.847656
O O13 0.086526 0.500000 0.500000
O O14 0.124771 0.573727 0.314314
O O15 0.000000 0.500000 0.325556
O O16 0.133031 0.719114 0.292557
O O17 0.092063 0.761039 0.500000
O O18 1.000000 0.774594 0.665746
#
# Coordination Sequence:
#
# PCOD9330454 Si02
#       8
#     8   8   8   8   8   8   8   8
#     4  10  20  37  59  84 111 145 186 233 282 329
#     4  12  20  35  54  81 115 145 182 231 277 331
#     4  11  20  30  50  80 112 150 186 221 268 330
#     4  10  20  37  59  84 111 145 186 233 282 329
#     4  11  22  33  51  79 114 154 184 214 269 336
#     4  12  20  35  54  81 115 145 182 231 277 331
#     4  10  22  38  57  82 113 148 188 233 279 329
#     4  10  22  38  57  82 113 148 188 233 279 329
#
# _framework density 17.014047999999999
#
# number of rings (size 3 to 8) (size 9 to 14) (size 15 to 20)
#    0.000    1.250    3.750    3.750    0.000    2.500 
#    0.000    2.500    0.000    0.000    0.000    0.000 
#    0.000    4.000    0.000    0.000    0.000    0.000 
#
# Total GULP energy -178718.266542 kJ/mol
# GULP energy per Si atom -5584.945829 kJ/mol
# Density = 1.697532 g / cm^3
# Si number density = 17.014048 Si / 1000 Ang^3
#
#
#
# Elastic Constant Matrix: (Units=GPa)
#
#
# Indices 1 2 3 4 5 6 
#
# 1 47.6421 55.9913 23.7594 0.0000 0.0000 0.0000
# 2 55.9913 113.9834 36.9617 0.0000 0.0000 0.0000
# 3 23.7594 36.9617 58.8119 0.0000 0.0000 0.0000
# 4 0.0000 0.0000 0.0000 7.3827 0.0000 0.0000
# 5 0.0000 0.0000 0.0000 0.0000 25.6310 0.0000
# 6 0.0000 0.0000 0.0000 0.0000 0.0000 25.6651
#
#
#
# Elastic Compliance Matrix: (Units=1/GPa)
#
#
# Indices 1 2 3 4 5 6 
#
# 1 0.051368 -0.023240 -0.006146 0.000000 0.000000 0.000000
# 2 -0.023240 0.021533 -0.004144 0.000000 0.000000 0.000000
# 3 -0.006146 -0.004144 0.022091 0.000000 0.000000 0.000000
# 4 0.000000 0.000000 0.000000 0.135453 0.000000 0.000000
# 5 0.000000 0.000000 0.000000 0.000000 0.039015 0.000000
# 6 0.000000 0.000000 0.000000 0.000000 0.000000 0.038963
#
#
# Mechanical properties :
#
#
# Convention : Reuss Voigt Hill
#
# Bulk Modulus (GPa) = 35.80295 50.42913 43.11604
# Shear Modulus (GPa) = 12.99395 18.65076 15.82235
#
# Velocity S-wave (km/s) = 2.76654 3.31448 3.05283
# Velocity P-wave (km/s) = 5.59409 6.65971 6.15003
#
# Compressibility (1/GPa) = 0.02793066
#
# Stress axis : x y z
#
# Youngs Moduli (GPa) = 19.46746 46.44020 45.26737
#
# Poissons Ratio (x) = 1.07927 0.27823
# Poissons Ratio (y) = 0.45242 0.18760
# Poissons Ratio (z) = 0.11965 0.19246
#
# Static dielectric constant tensor:
#      x y z
#    x 1.580060 0.000000 0.000000 
#    y 0.000000 1.568150 0.000000 
#    z 0.000000 0.000000 1.560020 
# 
# From -- ./inp_files/17659.got.cif
#   From: 2010.05.17/outbox.cif.g08.bks.cpg/sg23_9_cif.got.tgz:17659.got - 2010.06.04 12:02:01.
