data_PCOD9330790
_publ_section_title
;
Structure prediction by ZEFSAII (Michael W. Deem and Ramdas Pophale) SiO2 
 PCOD9330790
Probable space group: I 2 2 2
;
_chemical_formula_sum "Si O2"
_cell_formula_units_Z 48
_cell_length_a 10.517008
_cell_length_b 24.888535
_cell_length_c 8.883198
_cell_angle_alpha 90.000000
_cell_angle_beta 90.000000
_cell_angle_gamma 90.000000
_cell_volume 2325.203031
_symmetry_space_group_name_H-M "I 2 2 2"
_symmetry_group_IT_number 23
_symmetry_cell_setting 'orthorhombic'
loop_
_space_group_symop_operation_xyz
x,y,z
-x,-y,z
x,-y,-z
-x,y,-z
1/2+x,1/2+y,1/2+z
1/2-x,1/2-y,1/2+z
1/2+x,1/2-y,1/2-z
1/2-x,1/2+y,1/2-z
loop_
_atom_site_type_symbol
_atom_site_label
_atom_site_fract_x
_atom_site_fract_y
_atom_site_fract_z
Si Si1 0.064302 0.892833 0.652769
Si Si2 0.772419 0.836386 0.089727
Si Si3 0.315155 0.938396 0.510557
Si Si4 0.925049 0.656665 0.815336
Si Si5 0.311511 0.790062 0.408971
Si Si6 0.804378 0.118981 0.239678
O O1 0.133042 0.857961 0.780716
O O2 0.175472 0.931385 0.589969
O O3 0.000000 0.868389 0.500000
O O4 0.936700 0.912125 0.735750
O O5 0.629258 0.843452 0.149662
O O6 0.799252 0.773140 0.079108
O O7 0.785683 0.868768 0.934925
O O8 0.409471 0.902628 0.613162
O O9 0.296535 0.913019 0.343562
O O10 0.349453 0.000000 0.500000
O O11 0.056525 0.688222 0.834993
O O12 0.823631 0.688293 0.921218
O O13 0.202737 0.821347 0.317124
#
# Coordination Sequence:
#
# PCOD9330790 Si02
#       6
#     8   8   8   8   8   8
#     4   9  20  35  54  83 116 147 201 239 298 377
#     4  11  21  34  57  82 124 158 192 258 301 357
#     4   9  19  41  65  81 113 157 200 254 298 355
#     4   9  21  38  52  86 113 154 209 240 288 381
#     4  10  21  36  56  78 120 163 199 240 300 371
#     4  10  21  34  54  89 116 150 205 246 301 368
#
# _framework density 20.643359
#
# number of rings (size 3 to 8) (size 9 to 14) (size 15 to 20)
#    0.000    2.333    0.000    2.500    7.000    3.667 
#    0.000   10.000    0.000    8.000    0.000   14.000 
#    0.000    0.000    0.000    0.000    0.000    0.000 
#
# Total GULP energy -133638.366663 kJ/mol
# GULP energy per Si atom -5568.265278 kJ/mol
# Density = 2.059637 g / cm^3
# Si number density = 20.643359 Si / 1000 Ang^3
#
#
#
# Elastic Constant Matrix: (Units=GPa)
#
#
# Indices 1 2 3 4 5 6 
#
# 1 95.8042 12.1790 33.8495 -0.0001 0.0001 0.0002
# 2 12.1790 128.3948 37.0251 -0.0003 0.0002 0.0000
# 3 33.8495 37.0251 107.8959 -0.0008 0.0021 0.0009
# 4 -0.0001 -0.0003 -0.0008 4.8778 -0.0001 -0.0001
# 5 0.0001 0.0002 0.0021 -0.0001 26.5376 0.0001
# 6 0.0002 0.0000 0.0009 -0.0001 0.0001 3.8099
#
#
#
# Elastic Compliance Matrix: (Units=1/GPa)
#
#
# Indices 1 2 3 4 5 6 
#
# 1 0.011740 -0.000057 -0.003663 0.000000 0.000000 0.000000
# 2 -0.000057 0.008644 -0.002948 0.000000 0.000000 0.000001
# 3 -0.003663 -0.002948 0.011429 0.000002 -0.000001 -0.000003
# 4 0.000000 0.000000 0.000002 0.205012 0.000001 0.000006
# 5 0.000000 0.000000 -0.000001 0.000001 0.037682 -0.000001
# 6 0.000000 0.000001 -0.000003 0.000006 -0.000001 0.262474
#
#
# Mechanical properties :
#
#
# Convention : Reuss Voigt Hill
#
# Bulk Modulus (GPa) = 54.12676 55.35580 54.74128
# Shear Modulus (GPa) = 8.98509 23.64780 16.31645
#
# Velocity S-wave (km/s) = 2.08854 3.38826 2.81445
# Velocity P-wave (km/s) = 5.66505 6.49466 6.09399
#
# Compressibility (1/GPa) = 0.01847515
#
# Stress axis : x y z
#
# Youngs Moduli (GPa) = 85.18200 115.68574 87.49507
#
# Poissons Ratio (x) = 0.00661 0.32053
# Poissons Ratio (y) = 0.00487 0.25797
# Poissons Ratio (z) = 0.31205 0.34108
#
# Static dielectric constant tensor:
#      x y z
#    x 1.827460 0.000000 0.000000 
#    y 0.000000 1.720940 0.000000 
#    z 0.000000 0.000000 1.778210 
# 
# From -- ./inp_files/8693.got.cif
#   From: 2010.05.17/outbox.cif.g08.bks.cpg/sg23_5_cif.got.tgz:8693.got - 2010.06.04 12:02:01.
