data_PCOD9330059
_publ_section_title
;
Structure prediction by ZEFSAII (Michael W. Deem and Ramdas Pophale) SiO2 
 PCOD9330059
Probable space group: I 2 2 2
;
_chemical_formula_sum "Si O2"
_cell_formula_units_Z 56
_cell_length_a 13.221264
_cell_length_b 10.396910
_cell_length_c 21.793520
_cell_angle_alpha 90.000000
_cell_angle_beta 90.000000
_cell_angle_gamma 90.000000
_cell_volume 2995.743621
_symmetry_space_group_name_H-M "I 2 2 2"
_symmetry_group_IT_number 23
_symmetry_cell_setting 'orthorhombic'
loop_
_space_group_symop_operation_xyz
x,y,z
-x,-y,z
x,-y,-z
-x,y,-z
1/2+x,1/2+y,1/2+z
1/2-x,1/2-y,1/2+z
1/2+x,1/2-y,1/2-z
1/2-x,1/2+y,1/2-z
loop_
_atom_site_type_symbol
_atom_site_label
_atom_site_fract_x
_atom_site_fract_y
_atom_site_fract_z
Si Si1 0.770667 0.572900 0.557874
Si Si2 0.081889 0.602002 0.641434
Si Si3 0.391145 0.437445 0.163320
Si Si4 0.718904 0.689239 0.793670
Si Si5 0.363441 0.373437 0.666201
Si Si6 0.435622 0.728982 0.944937
Si Si7 0.585993 0.666415 0.297852
O O1 0.724104 0.500000 0.500000
O O2 0.835284 0.479096 0.602889
O O3 0.688004 0.641078 0.600571
O O4 0.854421 0.669192 0.530431
O O5 0.141811 0.697097 0.686562
O O6 0.000000 0.500000 0.668607
O O7 0.015540 0.691894 0.596569
O O8 0.500000 0.500000 0.153230
O O9 0.315647 0.553324 0.178329
O O10 0.373469 0.360741 0.101271
O O11 0.407066 0.350970 0.224030
O O12 0.710294 0.673286 0.720343
O O13 0.829877 0.730334 0.814626
O O14 0.472596 0.309925 0.679019
O O15 0.382314 0.526057 0.676638
O O16 0.500000 0.668111 0.000000
#
# Coordination Sequence:
#
# PCOD9330059 Si02
#       7
#     8   8   8   8   8   8   8
#     4  11  21  36  58  85 121 166 209 250 304 354
#     4  10  20  33  56  87 121 160 198 247 304 361
#     4  11  20  36  56  85 121 164 199 245 311 372
#     4  11  20  37  60  84 120 160 203 249 310 374
#     4  10  20  35  59  83 115 160 198 253 302 353
#     4  11  21  35  55  85 129 161 200 250 301 371
#     4  10  19  37  56  82 119 156 201 251 299 358
#
# _framework density 18.693189
#
# number of rings (size 3 to 8) (size 9 to 14) (size 15 to 20)
#    0.000    1.429    7.143    0.857    0.000    1.429 
#    0.000    1.429    0.000    0.000    0.000    0.000 
#    0.000    0.000    8.571    0.000    0.000    0.000 
#
# Total GULP energy -156211.775147 kJ/mol
# GULP energy per Si atom -5578.991970 kJ/mol
# Density = 1.865064 g / cm^3
# Si number density = 18.693189 Si / 1000 Ang^3
#
#
#
# Elastic Constant Matrix: (Units=GPa)
#
#
# Indices 1 2 3 4 5 6 
#
# 1 96.6139 29.8925 30.9902 0.0000 0.0000 0.0000
# 2 29.8925 44.7607 29.5252 0.0000 0.0000 0.0000
# 3 30.9902 29.5252 85.3046 0.0000 0.0000 0.0000
# 4 0.0000 0.0000 0.0000 -45.0070 0.0000 0.0000
# 5 0.0000 0.0000 0.0000 0.0000 23.5078 0.0000
# 6 0.0000 0.0000 0.0000 0.0000 0.0000 31.0890
#
#
#
# Elastic Compliance Matrix: (Units=1/GPa)
#
#
# Indices 1 2 3 4 5 6 
#
# 1 0.013383 -0.007426 -0.002292 0.000000 0.000000 0.000000
# 2 -0.007426 0.033071 -0.008749 0.000000 0.000000 0.000000
# 3 -0.002292 -0.008749 0.015583 0.000000 0.000000 0.000000
# 4 0.000000 0.000000 0.000000 -0.022219 0.000000 0.000000
# 5 0.000000 0.000000 0.000000 0.000000 0.042539 0.000000
# 6 0.000000 0.000000 0.000000 0.000000 0.000000 0.032166
#
#
# Mechanical properties :
#
#
# Convention : Reuss Voigt Hill
#
# Bulk Modulus (GPa) = 39.83284 45.27720 42.55502
# Shear Modulus (GPa) = 31.28429 11.00272 21.14351
#
# Velocity S-wave (km/s) = 4.09536 2.42873 3.36680
# Velocity P-wave (km/s) = 6.61193 5.66911 6.15859
#
# Compressibility (1/GPa) = 0.02510491
#
# Stress axis : x y z
#
# Youngs Moduli (GPa) = 74.72063 30.23784 64.17135
#
# Poissons Ratio (x) = 0.22455 0.14706
# Poissons Ratio (y) = 0.55488 0.56141
# Poissons Ratio (z) = 0.17124 0.26454
#
# Static dielectric constant tensor:
#      x y z
#    x 1.655620 0.000000 0.000000 
#    y 0.000000 1.702040 0.000000 
#    z 0.000000 0.000000 1.710050 
# 
# From -- ./inp_files/17998.got.cif
#   From: 2010.05.17/outbox.cif.g08.bks.cpg/sg23_9_cif.got.tgz:17998.got - 2010.06.04 12:02:01.
