data_PCOD9330195
_publ_section_title
;
Structure prediction by ZEFSAII (Michael W. Deem and Ramdas Pophale) SiO2 
 PCOD9330195
Probable space group: I 2 2 2
;
_chemical_formula_sum "Si O2"
_cell_formula_units_Z 52
_cell_length_a 4.962213
_cell_length_b 21.895727
_cell_length_c 20.286256
_cell_angle_alpha 90.000000
_cell_angle_beta 90.000000
_cell_angle_gamma 90.000000
_cell_volume 2204.127299
_symmetry_space_group_name_H-M "I 2 2 2"
_symmetry_group_IT_number 23
_symmetry_cell_setting 'orthorhombic'
loop_
_space_group_symop_operation_xyz
x,y,z
-x,-y,z
x,-y,-z
-x,y,-z
1/2+x,1/2+y,1/2+z
1/2-x,1/2-y,1/2+z
1/2+x,1/2-y,1/2-z
1/2-x,1/2+y,1/2-z
loop_
_atom_site_type_symbol
_atom_site_label
_atom_site_fract_x
_atom_site_fract_y
_atom_site_fract_z
Si Si1 0.601573 0.931822 0.930167
Si Si2 0.439247 0.434363 0.114613
Si Si3 0.000000 0.130555 0.000000
Si Si4 0.945754 0.433607 0.204594
Si Si5 0.731579 0.319816 0.958243
Si Si6 0.024766 0.779995 0.872903
Si Si7 0.988211 0.338141 0.685433
O O1 0.912949 0.921932 0.944838
O O2 0.517358 0.891436 0.869727
O O3 0.500000 0.000000 0.926971
O O4 0.500000 0.900957 0.000000
O O5 0.500000 0.500000 0.083191
O O6 0.642716 0.428880 0.177034
O O7 0.443171 0.376391 0.068229
O O8 0.137267 0.436284 0.141622
O O9 0.953542 0.181124 0.941173
O O10 0.000000 0.500000 0.238987
O O11 0.036642 0.375973 0.247679
O O12 0.858795 0.284432 0.896004
O O13 0.500000 0.283113 0.000000
O O14 0.000000 0.335156 0.000000
O O15 0.224642 0.806847 0.818609
O O16 0.732555 0.789850 0.840775
#
# Coordination Sequence:
#
# PCOD9330195 Si02
#       7
#     8   8   4   8   8   8   8
#     4  10  20  32  48  78 120 164 216 281 336 374
#     4  10  23  45  71 102 136 174 216 284 351 415
#     4  10  20  37  52  76 126 167 218 266 336 394
#     4  10  21  42  70  95 135 181 232 279 343 405
#     4  12  25  43  72 104 139 176 224 271 346 439
#     4  11  23  38  61  92 129 174 227 269 328 393
#     4  11  22  39  61  92 127 180 231 280 320 396
#
# _framework density 23.592102000000001
#
# number of rings (size 3 to 8) (size 9 to 14) (size 15 to 20)
#    0.000    1.385    2.308    3.231    2.154    1.538 
#    0.000    5.385    0.000    0.000    0.000    0.000 
#    0.000    0.000    0.000    0.000    0.000    0.000 
#
# Total GULP energy -144841.873393 kJ/mol
# GULP energy per Si atom -5570.841284 kJ/mol
# Density = 2.353841 g / cm^3
# Si number density = 23.592102 Si / 1000 Ang^3
#
#
#
# Elastic Constant Matrix: (Units=GPa)
#
#
# Indices 1 2 3 4 5 6 
#
# 1 54.3929 -13.7014 -2.4731 0.0000 0.0000 0.0000
# 2 -13.7014 71.8671 19.9588 0.0000 0.0000 0.0000
# 3 -2.4731 19.9588 46.3874 0.0000 0.0000 0.0000
# 4 0.0000 0.0000 0.0000 25.4303 0.0000 0.0000
# 5 0.0000 0.0000 0.0000 0.0000 12.1581 0.0000
# 6 0.0000 0.0000 0.0000 0.0000 0.0000 35.5638
#
#
#
# Elastic Compliance Matrix: (Units=1/GPa)
#
#
# Indices 1 2 3 4 5 6 
#
# 1 0.019328 0.003860 -0.000630 0.000000 0.000000 0.000000
# 2 0.003860 0.016574 -0.006925 0.000000 0.000000 0.000000
# 3 -0.000630 -0.006925 0.024504 0.000000 0.000000 0.000000
# 4 0.000000 0.000000 0.000000 0.039323 0.000000 0.000000
# 5 0.000000 0.000000 0.000000 0.000000 0.082250 0.000000
# 6 0.000000 0.000000 0.000000 0.000000 0.000000 0.028118
#
#
# Mechanical properties :
#
#
# Convention : Reuss Voigt Hill
#
# Bulk Modulus (GPa) = 18.86272 20.02400 19.44336
# Shear Modulus (GPa) = 21.26210 25.88797 23.57503
#
# Velocity S-wave (km/s) = 3.00532 3.31617 3.16456
# Velocity P-wave (km/s) = 4.47831 4.81338 4.64887
#
# Compressibility (1/GPa) = 0.05301461
#
# Stress axis : x y z
#
# Youngs Moduli (GPa) = 51.73728 60.33632 40.81018
#
# Poissons Ratio (x) = -0.23290 0.02572
# Poissons Ratio (y) = -0.19971 0.28262
# Poissons Ratio (z) = 0.03261 0.41785
#
# Static dielectric constant tensor:
#      x y z
#    x 1.660130 0.000000 0.000000 
#    y 0.000000 1.998860 0.000000 
#    z 0.000000 0.000000 1.844260 
# 
# From -- ./inp_files/25728.got.cif
#   From: 2010.05.17/outbox.cif.g08.bks.cpg/sg23_13_cif.got.tgz:25728.got - 2010.06.04 12:02:01.
