data_PCOD9330876
_publ_section_title
;
Structure prediction by ZEFSAII (Michael W. Deem and Ramdas Pophale) SiO2 
 PCOD9330876
Probable space group: I 2 2 2
;
_chemical_formula_sum "Si O2"
_cell_formula_units_Z 60
_cell_length_a 24.556995
_cell_length_b 10.359411
_cell_length_c 12.176126
_cell_angle_alpha 90.000000
_cell_angle_beta 90.000000
_cell_angle_gamma 90.000000
_cell_volume 3097.557800
_symmetry_space_group_name_H-M "I 2 2 2"
_symmetry_group_IT_number 23
_symmetry_cell_setting 'orthorhombic'
loop_
_space_group_symop_operation_xyz
x,y,z
-x,-y,z
x,-y,-z
-x,y,-z
1/2+x,1/2+y,1/2+z
1/2-x,1/2-y,1/2+z
1/2+x,1/2-y,1/2-z
1/2-x,1/2+y,1/2-z
loop_
_atom_site_type_symbol
_atom_site_label
_atom_site_fract_x
_atom_site_fract_y
_atom_site_fract_z
Si Si1 0.000000 0.500000 0.257130
Si Si2 0.129919 0.108890 0.584399
Si Si3 0.193441 0.571587 0.693983
Si Si4 0.551807 0.139164 0.441552
Si Si5 0.668093 0.237606 0.410585
Si Si6 0.225894 0.794706 0.553094
Si Si7 0.692177 0.469077 0.256573
Si Si8 0.600386 0.902288 0.103241
O O1 0.032119 0.397853 0.180294
O O2 0.046528 0.568431 0.326842
O O3 0.190982 0.139208 0.541934
O O4 0.101840 0.248322 0.582637
O O5 0.107448 0.000000 0.500000
O O6 0.141787 0.044452 0.702136
O O7 0.176376 0.636022 0.809511
O O8 0.191413 0.669051 0.590427
O O9 0.258089 0.552878 0.700959
O O10 0.155260 0.449264 0.668030
O O11 0.500000 0.202709 0.500000
O O12 0.607307 0.215291 0.451459
O O13 0.560355 0.000000 0.500000
O O14 0.714126 0.223062 0.504050
O O15 0.674128 0.375418 0.353260
O O16 0.220747 0.882522 0.661090
O O17 0.596906 0.000000 0.000000
#
# Coordination Sequence:
#
# PCOD9330876 Si02
#       8
#     4   8   8   8   8   8   8   8
#     4  10  22  40  62  92 116 144 208 268 318 362
#     4  10  21  39  57  85 128 168 197 248 318 384
#     4  11  22  35  58  92 126 159 210 253 307 381
#     4   9  21  40  62  91 115 153 211 272 311 358
#     4  11  21  37  62  88 128 169 202 260 315 366
#     4  10  21  37  57  89 129 166 202 250 316 388
#     4  10  23  35  55  92 128 168 207 242 314 401
#     4  12  23  38  64  91 122 161 208 269 319 368
#
# _framework density 19.370099
#
# number of rings (size 3 to 8) (size 9 to 14) (size 15 to 20)
#    0.000    1.733    4.000    1.000    3.733    0.000 
#    0.000    0.000    0.000    5.600    0.000    0.000 
#    0.000    0.000    0.000    0.000    0.000    0.000 
#
# Total GULP energy -167283.877077 kJ/mol
# GULP energy per Si atom -5576.129236 kJ/mol
# Density = 1.932601 g / cm^3
# Si number density = 19.370099 Si / 1000 Ang^3
#
#
#
# Elastic Constant Matrix: (Units=GPa)
#
#
# Indices 1 2 3 4 5 6 
#
# 1 94.3568 28.4023 37.1125 0.0000 0.0000 0.0000
# 2 28.4023 94.1217 27.1347 0.0000 0.0000 0.0000
# 3 37.1125 27.1347 54.3417 0.0000 0.0000 0.0000
# 4 0.0000 0.0000 0.0000 -0.9755 0.0000 0.0000
# 5 0.0000 0.0000 0.0000 0.0000 18.6749 0.0000
# 6 0.0000 0.0000 0.0000 0.0000 0.0000 15.4305
#
#
#
# Elastic Compliance Matrix: (Units=1/GPa)
#
#
# Indices 1 2 3 4 5 6 
#
# 1 0.014749 -0.001807 -0.009170 0.000000 0.000000 0.000000
# 2 -0.001807 0.012633 -0.005074 0.000000 0.000000 0.000000
# 3 -0.009170 -0.005074 0.027199 0.000000 0.000000 0.000000
# 4 0.000000 0.000000 0.000000 -1.025106 0.000000 0.000000
# 5 0.000000 0.000000 0.000000 0.000000 0.053548 0.000000
# 6 0.000000 0.000000 0.000000 0.000000 0.000000 0.064807
#
#
# Mechanical properties :
#
#
# Convention : Reuss Voigt Hill
#
# Bulk Modulus (GPa) = 44.48875 47.56879 46.02877
# Shear Modulus (GPa) = -6.15327 16.63736 5.24205
#
# Velocity S-wave (km/s) = -1.78426 2.93391 1.64686
# Velocity P-wave (km/s) = 4.33276 6.00735 5.23742
#
# Compressibility (1/GPa) = 0.02247759
#
# Stress axis : x y z
#
# Youngs Moduli (GPa) = 67.80177 79.16059 36.76667
#
# Poissons Ratio (x) = 0.14303 0.33717
# Poissons Ratio (y) = 0.12251 0.18655
# Poissons Ratio (z) = 0.62177 0.40165
#
# Static dielectric constant tensor:
#      x y z
#    x 1.660590 0.000000 0.000000 
#    y 0.000000 1.725060 0.000000 
#    z 0.000000 0.000000 1.719110 
# 
# From -- ./inp_files/18614.got.cif
#   From: 2010.05.17/outbox.cif.g08.bks.cpg/sg23_10_cif.got.tgz:18614.got - 2010.06.04 12:02:01.
