data_PCOD9330193
_publ_section_title
;
Structure prediction by ZEFSAII (Michael W. Deem and Ramdas Pophale) SiO2 
 PCOD9330193
Probable space group: I 2 2 2
;
_chemical_formula_sum "Si O2"
_cell_formula_units_Z 32
_cell_length_a 4.977232
_cell_length_b 16.735384
_cell_length_c 22.969653
_cell_angle_alpha 90.000000
_cell_angle_beta 90.000000
_cell_angle_gamma 90.000000
_cell_volume 1913.277662
_symmetry_space_group_name_H-M "I 2 2 2"
_symmetry_group_IT_number 23
_symmetry_cell_setting 'orthorhombic'
loop_
_space_group_symop_operation_xyz
x,y,z
-x,-y,z
x,-y,-z
-x,y,-z
1/2+x,1/2+y,1/2+z
1/2-x,1/2-y,1/2+z
1/2+x,1/2-y,1/2-z
1/2-x,1/2+y,1/2-z
loop_
_atom_site_type_symbol
_atom_site_label
_atom_site_fract_x
_atom_site_fract_y
_atom_site_fract_z
Si Si1 0.617941 0.222490 0.286496
Si Si2 0.584958 0.646743 0.366882
Si Si3 0.237850 0.053537 0.749753
Si Si4 0.071977 0.591770 0.432321
O O1 0.380667 0.233645 0.239090
O O2 0.519502 0.268523 0.343504
O O3 0.682913 0.129148 0.289716
O O4 0.618808 0.591753 0.309348
O O5 0.374379 0.609441 0.412432
O O6 0.875498 0.648366 0.395818
O O7 0.500000 0.000000 0.761613
O O8 0.000000 0.000000 0.724153
O O9 0.000000 0.500000 0.417428
O O10 0.000000 0.601961 0.500000
#
# Coordination Sequence:
#
# PCOD9330193 Si02
#       4
#     8   8   8   8
#     4  10  20  32  47  70  97 127 162 197 232 284
#     4  11  20  33  49  66  96 133 160 190 240 281
#     4  11  20  31  49  73  99 128 162 193 232 288
#     4  11  22  33  47  69  95 126 168 206 229 265
#
# _framework density 16.725224000000001
#
# number of rings (size 3 to 8) (size 9 to 14) (size 15 to 20)
#    0.000    1.250    0.000   11.250    0.000    2.000 
#    0.000    0.000    0.000    0.000    0.000    0.000 
#    0.000   15.000    0.000    0.250    0.000    0.000 
#
# Total GULP energy -89373.943160 kJ/mol
# GULP energy per Si atom -5585.871447 kJ/mol
# Density = 1.668716 g / cm^3
# Si number density = 16.725224 Si / 1000 Ang^3
#
#
#
# Elastic Constant Matrix: (Units=GPa)
#
#
# Indices 1 2 3 4 5 6 
#
# 1 88.2583 28.5056 0.3824 0.0000 0.0000 0.0000
# 2 28.5056 98.0784 28.6029 0.0000 0.0000 0.0000
# 3 0.3824 28.6029 40.4685 0.0000 0.0000 0.0000
# 4 0.0000 0.0000 0.0000 14.7994 0.0000 0.0000
# 5 0.0000 0.0000 0.0000 0.0000 13.9112 0.0000
# 6 0.0000 0.0000 0.0000 0.0000 0.0000 35.3449
#
#
#
# Elastic Compliance Matrix: (Units=1/GPa)
#
#
# Indices 1 2 3 4 5 6 
#
# 1 0.012818 -0.004648 0.003164 0.000000 0.000000 0.000000
# 2 -0.004648 0.014529 -0.010225 0.000000 0.000000 0.000000
# 3 0.003164 -0.010225 0.031908 0.000000 0.000000 0.000000
# 4 0.000000 0.000000 0.000000 0.067570 0.000000 0.000000
# 5 0.000000 0.000000 0.000000 0.000000 0.071885 0.000000
# 6 0.000000 0.000000 0.000000 0.000000 0.000000 0.028293
#
#
# Mechanical properties :
#
#
# Convention : Reuss Voigt Hill
#
# Bulk Modulus (GPa) = 27.90458 37.97633 32.94045
# Shear Modulus (GPa) = 19.05741 24.09872 21.57806
#
# Velocity S-wave (km/s) = 3.37922 3.79999 3.59576
# Velocity P-wave (km/s) = 5.65207 6.48140 6.08089
#
# Compressibility (1/GPa) = 0.03583641
#
# Stress axis : x y z
#
# Youngs Moduli (GPa) = 78.01568 68.82881 31.34054
#
# Poissons Ratio (x) = 0.31993 -0.09917
# Poissons Ratio (y) = 0.36263 0.32045
# Poissons Ratio (z) = -0.24685 0.70377
#
# Static dielectric constant tensor:
#      x y z
#    x 1.611680 0.000000 0.000000 
#    y 0.000000 1.584550 0.000000 
#    z 0.000000 0.000000 1.562260 
# 
# From -- ./inp_files/2258.got.cif
#   From: 2010.05.17/outbox.cif.g08.bks.cpg/sg23_2_cif.got.tgz:2258.got - 2010.06.04 12:02:01.
