data_PCOD9330220
_publ_section_title
;
Structure prediction by ZEFSAII (Michael W. Deem and Ramdas Pophale) SiO2 
 PCOD9330220
Probable space group: I 2 2 2
;
_chemical_formula_sum "Si O2"
_cell_formula_units_Z 48
_cell_length_a 20.106599
_cell_length_b 24.005089
_cell_length_c 5.148326
_cell_angle_alpha 90.000000
_cell_angle_beta 90.000000
_cell_angle_gamma 90.000000
_cell_volume 2484.894623
_symmetry_space_group_name_H-M "I 2 2 2"
_symmetry_group_IT_number 23
_symmetry_cell_setting 'orthorhombic'
loop_
_space_group_symop_operation_xyz
x,y,z
-x,-y,z
x,-y,-z
-x,y,-z
1/2+x,1/2+y,1/2+z
1/2-x,1/2-y,1/2+z
1/2+x,1/2-y,1/2-z
1/2-x,1/2+y,1/2-z
loop_
_atom_site_type_symbol
_atom_site_label
_atom_site_fract_x
_atom_site_fract_y
_atom_site_fract_z
Si Si1 0.071705 0.076974 0.401969
Si Si2 0.843747 0.057006 0.084378
Si Si3 0.595060 0.298405 0.031008
Si Si4 0.659973 0.219187 0.431607
Si Si5 0.780940 0.173138 0.179145
Si Si6 0.958585 0.296635 0.253146
O O1 0.124954 0.060486 0.626563
O O2 0.068235 0.143796 0.368567
O O3 0.000000 0.058846 0.500000
O O4 0.096415 0.056931 0.124084
O O5 0.801985 0.114389 0.053065
O O6 0.806650 0.000000 0.000000
O O7 0.665840 0.315275 0.907472
O O8 0.549945 0.269824 0.809855
O O9 0.608051 0.249603 0.238104
O O10 0.706814 0.175394 0.288730
O O11 0.706853 0.271782 0.506184
O O12 0.618669 0.192487 0.670653
O O13 0.000000 0.319591 0.500000
O O14 0.000000 0.310696 0.000000
#
# Coordination Sequence:
#
# PCOD9330220 Si02
#       6
#     8   8   8   8   8   8
#     4  11  23  36  56  78 107 149 204 247 291 334
#     4  11  24  41  56  77 109 150 200 251 297 335
#     4  10  20  33  53  77 108 146 185 239 285 340
#     4  11  19  34  56  80 112 144 193 243 289 358
#     4  10  21  34  56  83 107 145 198 242 300 342
#     4  11  22  34  49  76 113 152 184 219 282 352
#
# _framework density 19.316716
#
# number of rings (size 3 to 8) (size 9 to 14) (size 15 to 20)
#    0.000    1.333    5.000    1.500    0.000    2.000 
#    0.000    0.000    0.000    0.000    0.000    0.000 
#    0.000    0.000    0.000    4.500    1.000    2.167 
#
# Total GULP energy -133757.097386 kJ/mol
# GULP energy per Si atom -5573.212391 kJ/mol
# Density = 1.927275 g / cm^3
# Si number density = 19.316716 Si / 1000 Ang^3
#
#
#
# Elastic Constant Matrix: (Units=GPa)
#
#
# Indices 1 2 3 4 5 6 
#
# 1 70.6851 34.2824 25.2670 0.0000 0.0000 0.0000
# 2 34.2824 60.8871 16.4640 0.0000 0.0000 0.0000
# 3 25.2670 16.4640 96.1249 0.0000 0.0000 0.0000
# 4 0.0000 0.0000 0.0000 21.4579 0.0000 0.0000
# 5 0.0000 0.0000 0.0000 0.0000 39.3648 0.0000
# 6 0.0000 0.0000 0.0000 0.0000 0.0000 3.0483
#
#
#
# Elastic Compliance Matrix: (Units=1/GPa)
#
#
# Indices 1 2 3 4 5 6 
#
# 1 0.020580 -0.010616 -0.003591 0.000000 0.000000 0.000000
# 2 -0.010616 0.022698 -0.001097 0.000000 0.000000 0.000000
# 3 -0.003591 -0.001097 0.011535 0.000000 0.000000 0.000000
# 4 0.000000 0.000000 0.000000 0.046603 0.000000 0.000000
# 5 0.000000 0.000000 0.000000 0.000000 0.025403 0.000000
# 6 0.000000 0.000000 0.000000 0.000000 0.000000 0.328054
#
#
# Mechanical properties :
#
#
# Convention : Reuss Voigt Hill
#
# Bulk Modulus (GPa) = 41.31618 42.19153 41.75386
# Shear Modulus (GPa) = 10.13068 22.88645 16.50857
#
# Velocity S-wave (km/s) = 2.29258 3.44583 2.92657
# Velocity P-wave (km/s) = 5.33321 6.14174 5.75170
#
# Compressibility (1/GPa) = 0.02420359
#
# Stress axis : x y z
#
# Youngs Moduli (GPa) = 48.59097 44.05667 86.69266
#
# Poissons Ratio (x) = 0.46772 0.31133
# Poissons Ratio (y) = 0.51586 0.09511
# Poissons Ratio (z) = 0.17450 0.04833
#
# Static dielectric constant tensor:
#      x y z
#    x 1.764260 0.000000 0.000000 
#    y 0.000000 1.700280 0.000000 
#    z 0.000000 0.000000 1.783220 
# 
# From -- ./inp_files/3895.got.cif
#   From: 2010.05.17/outbox.cif.g08.bks.cpg/sg23_2_cif.got.tgz:3895.got - 2010.06.04 12:02:01.
