data_PCOD9330619
_publ_section_title
;
Structure prediction by ZEFSAII (Michael W. Deem and Ramdas Pophale) SiO2 
 PCOD9330619
Probable space group: I 2 2 2
;
_chemical_formula_sum "Si O2"
_cell_formula_units_Z 64
_cell_length_a 12.522672
_cell_length_b 8.635710
_cell_length_c 28.619851
_cell_angle_alpha 90.000000
_cell_angle_beta 90.000000
_cell_angle_gamma 90.000000
_cell_volume 3095.012615
_symmetry_space_group_name_H-M "I 2 2 2"
_symmetry_group_IT_number 23
_symmetry_cell_setting 'orthorhombic'
loop_
_space_group_symop_operation_xyz
x,y,z
-x,-y,z
x,-y,-z
-x,y,-z
1/2+x,1/2+y,1/2+z
1/2-x,1/2-y,1/2+z
1/2+x,1/2-y,1/2-z
1/2-x,1/2+y,1/2-z
loop_
_atom_site_type_symbol
_atom_site_label
_atom_site_fract_x
_atom_site_fract_y
_atom_site_fract_z
Si Si1 0.476996 0.323096 0.937537
Si Si2 0.741161 0.865421 0.407832
Si Si3 0.723451 0.701303 0.205745
Si Si4 0.704014 0.235883 0.396280
Si Si5 0.198319 0.836137 0.697560
Si Si6 0.012557 0.681659 0.336240
Si Si7 0.486926 0.187110 0.446721
Si Si8 0.619488 0.915889 0.046284
O O1 0.500000 0.500000 0.942293
O O2 0.348789 0.302643 0.932938
O O3 0.516592 0.267767 0.885831
O O4 0.569972 0.246792 0.968686
O O5 0.746011 0.818024 0.353154
O O6 0.634111 0.793051 0.429260
O O7 0.738634 0.056094 0.409595
O O8 0.797346 0.736408 0.160327
O O9 0.756925 0.754008 0.256779
O O10 0.698510 0.519377 0.205807
O O11 0.617782 0.792470 0.192672
O O12 0.584911 0.255178 0.416755
O O13 0.786449 0.366746 0.417420
O O14 0.083176 0.762412 0.690388
O O15 0.000000 0.500000 0.343058
O O16 0.500000 0.239169 0.500000
O O17 0.500000 0.000000 0.445466
O O18 0.500000 0.000000 0.057530
O O19 0.661188 0.000000 0.000000
#
# Coordination Sequence:
#
# PCOD9330619 Si02
#       8
#     8   8   8   8   8   8   8   8
#     4  11  19  38  66  93 129 172 220 279 352 414
#     4   9  19  37  66  97 128 170 225 284 336 415
#     4  11  21  38  62  93 135 175 221 277 340 412
#     4  10  20  39  65  90 131 175 220 276 348 403
#     4  10  22  37  59 100 134 174 221 277 338 413
#     4  11  21  36  62  93 127 171 220 273 344 414
#     4   9  19  36  62  93 121 165 222 278 332 398
#     4  11  24  40  60  96 131 169 217 280 342 406
#
# _framework density 20.678431
#
# number of rings (size 3 to 8) (size 9 to 14) (size 15 to 20)
#    0.000    1.750    2.500    3.000    0.000    3.000 
#    0.000    3.750    0.000    3.375    0.000    0.000 
#    0.000    0.000    0.000    0.000    0.000    0.000 
#
# Total GULP energy -178287.333908 kJ/mol
# GULP energy per Si atom -5571.479185 kJ/mol
# Density = 2.063137 g / cm^3
# Si number density = 20.678431 Si / 1000 Ang^3
#
#
#
# Elastic Constant Matrix: (Units=GPa)
#
#
# Indices 1 2 3 4 5 6 
#
# 1 119.2366 3.7150 62.4828 0.0000 0.0000 0.0000
# 2 3.7150 64.9233 30.3568 0.0000 0.0000 0.0000
# 3 62.4828 30.3568 111.5022 0.0000 0.0000 0.0000
# 4 0.0000 0.0000 0.0000 29.9845 0.0000 0.0000
# 5 0.0000 0.0000 0.0000 0.0000 31.3441 0.0000
# 6 0.0000 0.0000 0.0000 0.0000 0.0000 27.9979
#
#
#
# Elastic Compliance Matrix: (Units=1/GPa)
#
#
# Indices 1 2 3 4 5 6 
#
# 1 0.012330 0.002893 -0.007697 0.000000 0.000000 0.000000
# 2 0.002893 0.018329 -0.006611 0.000000 0.000000 0.000000
# 3 -0.007697 -0.006611 0.015082 0.000000 0.000000 0.000000
# 4 0.000000 0.000000 0.000000 0.033351 0.000000 0.000000
# 5 0.000000 0.000000 0.000000 0.000000 0.031904 0.000000
# 6 0.000000 0.000000 0.000000 0.000000 0.000000 0.035717
#
#
# Mechanical properties :
#
#
# Convention : Reuss Voigt Hill
#
# Bulk Modulus (GPa) = 43.64892 54.30793 48.97842
# Shear Modulus (GPa) = 28.22010 31.13914 29.67962
#
# Velocity S-wave (km/s) = 3.69821 3.88477 3.79264
# Velocity P-wave (km/s) = 6.27614 6.81484 6.55103
#
# Compressibility (1/GPa) = 0.02291007
#
# Stress axis : x y z
#
# Youngs Moduli (GPa) = 81.10268 54.55960 66.30550
#
# Poissons Ratio (x) = -0.15787 0.51037
# Poissons Ratio (y) = -0.23467 0.43837
# Poissons Ratio (z) = 0.62426 0.36072
#
# Static dielectric constant tensor:
#      x y z
#    x 1.756510 0.000000 0.000000 
#    y 0.000000 1.832810 0.000000 
#    z 0.000000 0.000000 1.813890 
# 
# From -- ./inp_files/30484.got.cif
#   From: 2010.05.17/outbox.cif.g08.bks.cpg/sg23_16_cif.got.tgz:30484.got - 2010.06.04 12:02:01.
