data_PCOD9330177
_publ_section_title
;
Structure prediction by ZEFSAII (Michael W. Deem and Ramdas Pophale) SiO2 
 PCOD9330177
Probable space group: I 2 2 2
;
_chemical_formula_sum "Si O2"
_cell_formula_units_Z 54
_cell_length_a 5.599761
_cell_length_b 25.332572
_cell_length_c 25.390470
_cell_angle_alpha 90.000000
_cell_angle_beta 90.000000
_cell_angle_gamma 90.000000
_cell_volume 3601.799366
_symmetry_space_group_name_H-M "I 2 2 2"
_symmetry_group_IT_number 23
_symmetry_cell_setting 'orthorhombic'
loop_
_space_group_symop_operation_xyz
x,y,z
-x,-y,z
x,-y,-z
-x,y,-z
1/2+x,1/2+y,1/2+z
1/2-x,1/2-y,1/2+z
1/2+x,1/2-y,1/2-z
1/2-x,1/2+y,1/2-z
loop_
_atom_site_type_symbol
_atom_site_label
_atom_site_fract_x
_atom_site_fract_y
_atom_site_fract_z
Si Si1 0.170938 0.950710 0.412814
Si Si2 0.724527 0.279271 0.903582
Si Si3 0.664912 0.819027 0.762008
Si Si4 0.000000 0.500000 0.000000
Si Si5 0.000000 0.685677 0.000000
Si Si6 0.169815 0.145541 0.411180
Si Si7 0.666915 0.288807 0.308262
Si Si8 0.562692 0.879028 0.661137
O O1 0.332211 0.932106 0.363717
O O2 0.015520 0.899477 0.426699
O O3 0.335132 0.966034 0.461621
O O4 0.000000 0.000000 0.401155
O O5 0.447326 0.296504 0.904475
O O6 0.803906 0.230166 0.868552
O O7 0.830864 0.329824 0.872265
O O8 0.826840 0.280529 0.962374
O O9 0.665855 0.764833 0.727296
O O10 0.415679 0.817525 0.793847
O O11 0.637554 0.866667 0.720317
O O12 0.915717 0.817363 0.793986
O O13 0.147511 0.650595 0.040948
O O14 0.286710 0.126744 0.356066
#
# Coordination Sequence:
#
# PCOD9330177 Si02
#       8
#     8   8   8   2   4   8   8   8
#     4  11  24  36  48  59  84 106 152 195 248 295
#     4   9  19  29  44  62  87 113 143 179 223 271
#     4   9  18  29  47  66  88 110 134 177 227 275
#     4  12  26  38  44  66  76 116 146 200 252 288
#     4  10  20  31  44  63  86 114 150 184 233 270
#     4  10  21  33  47  63  83 116 147 194 234 287
#     4   9  18  28  46  67  88 110 140 173 221 274
#     4   9  20  32  47  63  82 105 143 180 240 286
#
# _framework density 14.992507
#
# number of rings (size 3 to 8) (size 9 to 14) (size 15 to 20)
#    0.000    2.370    0.000    1.556   14.519   14.222 
#    0.000    0.000    0.000    0.000    0.000    0.000 
#    0.000    0.000    0.000    0.000    0.000    0.000 
#
# Total GULP energy -150361.605483 kJ/mol
# GULP energy per Si atom -5568.948351 kJ/mol
# Density = 1.495838 g / cm^3
# Si number density = 14.992507 Si / 1000 Ang^3
#
#
#
# Elastic Constant Matrix: (Units=GPa)
#
#
# Indices 1 2 3 4 5 6 
#
# 1 102.0819 33.9358 43.6685 0.0000 0.0000 0.0000
# 2 33.9358 39.6874 40.3618 0.0000 0.0000 0.0000
# 3 43.6685 40.3618 67.6229 0.0000 0.0000 0.0000
# 4 0.0000 0.0000 0.0000 27.0356 0.0000 0.0000
# 5 0.0000 0.0000 0.0000 0.0000 13.8583 0.0000
# 6 0.0000 0.0000 0.0000 0.0000 0.0000 12.4658
#
#
#
# Elastic Compliance Matrix: (Units=1/GPa)
#
#
# Indices 1 2 3 4 5 6 
#
# 1 0.014304 -0.007219 -0.004928 0.000000 0.000000 0.000000
# 2 -0.007219 0.067759 -0.035781 0.000000 0.000000 0.000000
# 3 -0.004928 -0.035781 0.039327 0.000000 0.000000 0.000000
# 4 0.000000 0.000000 0.000000 0.036988 0.000000 0.000000
# 5 0.000000 0.000000 0.000000 0.000000 0.072159 0.000000
# 6 0.000000 0.000000 0.000000 0.000000 0.000000 0.080219
#
#
# Mechanical properties :
#
#
# Convention : Reuss Voigt Hill
#
# Bulk Modulus (GPa) = 39.16506 49.48049 44.32278
# Shear Modulus (GPa) = 12.04457 16.76703 14.40580
#
# Velocity S-wave (km/s) = 2.83746 3.34782 3.10315
# Velocity P-wave (km/s) = 6.07575 6.92957 6.51666
#
# Compressibility (1/GPa) = 0.02553296
#
# Stress axis : x y z
#
# Youngs Moduli (GPa) = 69.90960 14.75817 25.42785
#
# Poissons Ratio (x) = 0.10654 0.12532
# Poissons Ratio (y) = 0.50469 0.90984
# Poissons Ratio (z) = 0.34453 0.52806
#
# Static dielectric constant tensor:
#      x y z
#    x 1.670220 0.000000 0.000000 
#    y 0.000000 1.493360 0.000000 
#    z 0.000000 0.000000 1.509460 
# 
# From -- ./inp_files/27764.got.cif
#   From: 2010.05.17/outbox.cif.g08.bks.cpg/sg23_14_cif.got.tgz:27764.got - 2010.06.04 12:02:01.
