data_PCOD9330765
_publ_section_title
;
Structure prediction by ZEFSAII (Michael W. Deem and Ramdas Pophale) SiO2 
 PCOD9330765
Probable space group: I 2 2 2
;
_chemical_formula_sum "Si O2"
_cell_formula_units_Z 44
_cell_length_a 16.382398
_cell_length_b 13.975165
_cell_length_c 8.144213
_cell_angle_alpha 90.000000
_cell_angle_beta 90.000000
_cell_angle_gamma 90.000000
_cell_volume 1864.590814
_symmetry_space_group_name_H-M "I 2 2 2"
_symmetry_group_IT_number 23
_symmetry_cell_setting 'orthorhombic'
loop_
_space_group_symop_operation_xyz
x,y,z
-x,-y,z
x,-y,-z
-x,y,-z
1/2+x,1/2+y,1/2+z
1/2-x,1/2-y,1/2+z
1/2+x,1/2-y,1/2-z
1/2-x,1/2+y,1/2-z
loop_
_atom_site_type_symbol
_atom_site_label
_atom_site_fract_x
_atom_site_fract_y
_atom_site_fract_z
Si Si1 0.146193 0.442021 0.169493
Si Si2 0.200041 0.617323 0.324333
Si Si3 0.925713 0.141459 0.246000
Si Si4 0.000000 0.000000 0.500000
Si Si5 0.511505 0.842276 0.195460
Si Si6 0.000000 0.000000 0.000000
Si Si7 0.257178 0.791477 0.178320
O O1 0.203155 0.503698 0.296559
O O2 0.187970 0.338223 0.178908
O O3 0.054922 0.412322 0.225263
O O4 0.147435 0.500000 0.000000
O O5 0.104426 0.626993 0.275605
O O6 0.257360 0.676845 0.200680
O O7 0.213939 0.666388 0.502544
O O8 0.988393 0.231417 0.249064
O O9 0.835254 0.180610 0.222826
O O10 0.942784 0.073039 0.399987
O O11 0.943452 0.070170 0.100162
O O12 0.500000 0.845130 0.000000
#
# Coordination Sequence:
#
# PCOD9330765 Si02
#       7
#     8   8   8   2   8   2   8
#     4  12  27  46  76 115 145 199 255 320 382 461
#     4  11  25  46  73 105 153 198 249 311 383 448
#     4  10  24  43  72 103 144 194 249 309 373 444
#     4  10  20  46  72 106 134 198 254 302 372 458
#     4  11  23  46  75 104 148 198 253 310 379 449
#     4  10  24  42  64 110 142 192 244 306 372 454
#     4  11  25  45  69 109 151 197 249 313 381 450
#
# _framework density 23.597670999999998
#
# number of rings (size 3 to 8) (size 9 to 14) (size 15 to 20)
#    0.000    1.091    2.727    2.182    3.818    6.545 
#    3.273    0.000    0.000    0.000    0.000    0.000 
#    0.000    0.000    0.000    0.000    0.000    0.000 
#
# Total GULP energy -122840.980774 kJ/mol
# GULP energy per Si atom -5583.680944 kJ/mol
# Density = 2.354396 g / cm^3
# Si number density = 23.597671 Si / 1000 Ang^3
#
#
#
# Elastic Constant Matrix: (Units=GPa)
#
#
# Indices 1 2 3 4 5 6 
#
# 1 89.9034 34.8224 20.3827 0.0000 0.0000 0.0000
# 2 34.8224 133.4324 32.2973 0.0000 0.0000 0.0000
# 3 20.3827 32.2973 106.1735 0.0000 0.0000 0.0000
# 4 0.0000 0.0000 0.0000 42.3347 0.0000 0.0000
# 5 0.0000 0.0000 0.0000 0.0000 79.5151 0.0000
# 6 0.0000 0.0000 0.0000 0.0000 0.0000 43.4449
#
#
#
# Elastic Compliance Matrix: (Units=1/GPa)
#
#
# Indices 1 2 3 4 5 6 
#
# 1 0.012600 -0.002918 -0.001531 0.000000 0.000000 0.000000
# 2 -0.002918 0.008766 -0.002106 0.000000 0.000000 0.000000
# 3 -0.001531 -0.002106 0.010353 0.000000 0.000000 0.000000
# 4 0.000000 0.000000 0.000000 0.023621 0.000000 0.000000
# 5 0.000000 0.000000 0.000000 0.000000 0.012576 0.000000
# 6 0.000000 0.000000 0.000000 0.000000 0.000000 0.023018
#
#
# Mechanical properties :
#
#
# Convention : Reuss Voigt Hill
#
# Bulk Modulus (GPa) = 53.73903 56.05710 54.89806
# Shear Modulus (GPa) = 45.35220 49.19275 47.27247
#
# Velocity S-wave (km/s) = 4.38870 4.57074 4.48064
# Velocity P-wave (km/s) = 6.96443 7.18766 7.07693
#
# Compressibility (1/GPa) = 0.01860845
#
# Stress axis : x y z
#
# Youngs Moduli (GPa) = 79.36279 114.08083 96.58774
#
# Poissons Ratio (x) = 0.33285 0.14792
# Poissons Ratio (y) = 0.23156 0.20345
# Poissons Ratio (z) = 0.12154 0.24029
#
# Static dielectric constant tensor:
#      x y z
#    x 2.169660 0.000000 0.000000 
#    y 0.000000 1.861010 0.000000 
#    z 0.000000 0.000000 2.114730 
# 
# From -- ./inp_files/11012.got.cif
#   From: 2010.05.17/outbox.cif.g08.bks.cpg/sg23_6_cif.got.tgz:11012.got - 2010.06.04 12:02:01.
