data_PCOD9330290
_publ_section_title
;
Structure prediction by ZEFSAII (Michael W. Deem and Ramdas Pophale) SiO2 
 PCOD9330290
Probable space group: I 2 2 2
;
_chemical_formula_sum "Si O2"
_cell_formula_units_Z 64
_cell_length_a 8.516188
_cell_length_b 11.975965
_cell_length_c 32.232412
_cell_angle_alpha 90.000000
_cell_angle_beta 90.000000
_cell_angle_gamma 90.000000
_cell_volume 3287.369821
_symmetry_space_group_name_H-M "I 2 2 2"
_symmetry_group_IT_number 23
_symmetry_cell_setting 'orthorhombic'
loop_
_space_group_symop_operation_xyz
x,y,z
-x,-y,z
x,-y,-z
-x,y,-z
1/2+x,1/2+y,1/2+z
1/2-x,1/2-y,1/2+z
1/2+x,1/2-y,1/2-z
1/2-x,1/2+y,1/2-z
loop_
_atom_site_type_symbol
_atom_site_label
_atom_site_fract_x
_atom_site_fract_y
_atom_site_fract_z
Si Si1 0.813811 0.243631 0.582921
Si Si2 0.319505 0.971755 0.278649
Si Si3 0.812765 0.982037 0.192962
Si Si4 0.312824 0.784487 0.922030
Si Si5 0.691804 0.371986 0.998776
Si Si6 0.897448 0.889241 0.337824
Si Si7 0.792118 0.238661 0.326846
Si Si8 0.186093 0.982213 0.099535
O O1 0.758383 0.181656 0.541909
O O2 0.805341 0.164456 0.623466
O O3 0.724352 0.359723 0.584409
O O4 0.998727 0.273547 0.579043
O O5 0.298820 0.862008 0.305974
O O6 0.500000 0.000000 0.276791
O O7 0.256778 0.954948 0.232221
O O8 0.214973 0.066939 0.301430
O O9 0.758035 0.853249 0.194819
O O10 0.755450 0.017300 0.147363
O O11 0.000000 0.000000 0.194068
O O12 0.256271 0.747992 0.876066
O O13 0.263279 0.914249 0.925053
O O14 0.259512 0.702654 0.959099
O O15 0.744072 0.500000 0.000000
O O16 0.500000 0.372679 0.000000
O O17 0.024702 0.797033 0.323329
O O18 0.000000 0.000000 0.350948
O O19 0.000000 0.000000 0.099724
#
# Coordination Sequence:
#
# PCOD9330290 Si02
#       8
#     8   8   8   8   8   8   8   8
#     4  10  20  34  62  90 114 153 195 244 291 345
#     4  11  24  36  56  88 121 157 199 244 298 358
#     4  10  22  40  61  83 112 153 204 251 297 352
#     4   9  19  37  60  84 119 151 194 246 288 348
#     4   9  19  32  59  93 118 145 192 246 292 339
#     4   9  20  37  59  85 120 158 197 243 300 355
#     4   9  20  38  60  83 115 161 194 243 304 345
#     4  10  22  39  59  83 115 157 194 236 294 352
#
# _framework density 19.468451999999999
#
# number of rings (size 3 to 8) (size 9 to 14) (size 15 to 20)
#    0.000    2.375    0.000    1.500    7.000    9.500 
#    0.000    3.125    0.000    0.750    0.000    0.000 
#    0.000    0.000    0.000    0.000    0.000    0.000 
#
# Total GULP energy -178530.855139 kJ/mol
# GULP energy per Si atom -5579.089223 kJ/mol
# Density = 1.942414 g / cm^3
# Si number density = 19.468452 Si / 1000 Ang^3
#
#
#
# Elastic Constant Matrix: (Units=GPa)
#
#
# Indices 1 2 3 4 5 6 
#
# 1 20.9992 24.1438 14.8255 0.0000 0.0000 0.0000
# 2 24.1438 126.0235 55.8992 0.0000 0.0000 0.0000
# 3 14.8255 55.8992 76.0288 0.0000 0.0000 0.0000
# 4 0.0000 0.0000 0.0000 0.1166 0.0000 0.0000
# 5 0.0000 0.0000 0.0000 0.0000 13.9675 0.0000
# 6 0.0000 0.0000 0.0000 0.0000 0.0000 25.3323
#
#
#
# Elastic Compliance Matrix: (Units=1/GPa)
#
#
# Indices 1 2 3 4 5 6 
#
# 1 0.062332 -0.009720 -0.005008 0.000001 0.000000 0.000000
# 2 -0.009720 0.013291 -0.007877 0.000000 0.000000 0.000000
# 3 -0.005008 -0.007877 0.019921 0.000000 0.000000 0.000000
# 4 0.000001 0.000000 0.000000 8.576070 0.000000 0.000000
# 5 0.000000 0.000000 0.000000 0.000000 0.071595 0.000000
# 6 0.000000 0.000000 0.000000 0.000000 0.000000 0.039475
#
#
# Mechanical properties :
#
#
# Convention : Reuss Voigt Hill
#
# Bulk Modulus (GPa) = 19.86720 45.86537 32.86628
# Shear Modulus (GPa) = 0.56531 16.42882 8.49707
#
# Velocity S-wave (km/s) = 0.53945 2.90809 2.09141
# Velocity P-wave (km/s) = 3.25806 5.90643 4.76975
#
# Compressibility (1/GPa) = 0.05033423
#
# Stress axis : x y z
#
# Youngs Moduli (GPa) = 16.04302 75.23870 50.19927
#
# Poissons Ratio (x) = 0.73135 0.25139
# Poissons Ratio (y) = 0.15595 0.39540
# Poissons Ratio (z) = 0.08034 0.59262
#
# Static dielectric constant tensor:
#      x y z
#    x 1.680980 0.000000 0.000000 
#    y 0.000000 1.713900 0.000000 
#    z 0.000000 0.000000 1.679070 
# 
# From -- ./inp_files/30343.got.cif
#   From: 2010.05.17/outbox.cif.g08.bks.cpg/sg23_16_cif.got.tgz:30343.got - 2010.06.04 12:02:01.
