data_PCOD9330472
_publ_section_title
;
Structure prediction by ZEFSAII (Michael W. Deem and Ramdas Pophale) SiO2 
 PCOD9330472
Probable space group: I 2 2 2
;
_chemical_formula_sum "Si O2"
_cell_formula_units_Z 58
_cell_length_a 26.813431
_cell_length_b 9.531911
_cell_length_c 10.326729
_cell_angle_alpha 90.000000
_cell_angle_beta 90.000000
_cell_angle_gamma 90.000000
_cell_volume 2639.338835
_symmetry_space_group_name_H-M "I 2 2 2"
_symmetry_group_IT_number 23
_symmetry_cell_setting 'orthorhombic'
loop_
_space_group_symop_operation_xyz
x,y,z
-x,-y,z
x,-y,-z
-x,y,-z
1/2+x,1/2+y,1/2+z
1/2-x,1/2-y,1/2+z
1/2+x,1/2-y,1/2-z
1/2-x,1/2+y,1/2-z
loop_
_atom_site_type_symbol
_atom_site_label
_atom_site_fract_x
_atom_site_fract_y
_atom_site_fract_z
Si Si1 0.136418 0.521755 0.344402
Si Si2 0.833548 0.088563 0.118022
Si Si3 0.728190 0.164832 0.525834
Si Si4 0.252900 0.879758 0.800662
Si Si5 0.057476 0.295194 0.319603
Si Si6 0.068616 0.022181 0.766301
Si Si7 0.000000 0.000000 0.000000
Si Si8 0.951548 0.279220 0.370196
O O1 0.141729 0.500000 0.500000
O O2 0.191386 0.557443 0.295227
O O3 0.105481 0.389967 0.287784
O O4 0.098222 0.648242 0.318486
O O5 0.819595 0.242415 0.068582
O O6 0.874255 0.070725 0.227083
O O7 0.783584 0.003827 0.154653
O O8 0.855943 0.000000 0.000000
O O9 0.761635 0.169929 0.656400
O O10 0.749992 0.251401 0.403451
O O11 0.719899 0.000000 0.500000
O O12 0.053204 0.299418 0.476258
O O13 0.999984 0.340007 0.295636
O O14 0.065400 0.142432 0.258863
O O15 0.045466 0.113939 0.652824
O O16 0.038307 0.067761 0.895946
#
# Coordination Sequence:
#
# PCOD9330472 Si02
#       8
#     8   8   8   8   8   8   2   8
#     4  10  21  38  64  95 133 168 207 260 327 385
#     4  10  23  40  61  89 129 170 212 262 322 377
#     4  11  24  43  69  95 130 174 219 267 325 393
#     4  11  24  45  66  98 134 174 215 270 324 399
#     4  10  21  37  63  94 123 165 205 261 325 386
#     4  12  22  40  63  89 124 166 217 269 315 386
#     4  12  24  40  62  86 120 168 224 260 330 368
#     4  10  20  37  61  93 127 159 209 265 322 379
#
# _framework density 21.975200999999998
#
# number of rings (size 3 to 8) (size 9 to 14) (size 15 to 20)
#    0.000    1.379    2.069    3.724    0.000    8.276 
#    0.000    1.379    0.000    0.828    0.000    0.000 
#    0.000    0.000    0.000    0.000    0.000    0.000 
#
# Total GULP energy -161650.628637 kJ/mol
# GULP energy per Si atom -5574.159608 kJ/mol
# Density = 2.192518 g / cm^3
# Si number density = 21.975201 Si / 1000 Ang^3
#
#
#
# Elastic Constant Matrix: (Units=GPa)
#
#
# Indices 1 2 3 4 5 6 
#
# 1 137.2804 53.2898 11.1886 0.0000 0.0000 0.0000
# 2 53.2898 148.4300 34.2230 0.0000 0.0000 0.0000
# 3 11.1886 34.2230 53.8425 0.0000 0.0000 0.0000
# 4 0.0000 0.0000 0.0000 29.5371 0.0000 0.0000
# 5 0.0000 0.0000 0.0000 0.0000 22.9096 0.0000
# 6 0.0000 0.0000 0.0000 0.0000 0.0000 16.6110
#
#
#
# Elastic Compliance Matrix: (Units=1/GPa)
#
#
# Indices 1 2 3 4 5 6 
#
# 1 0.008466 -0.003086 0.000202 0.000000 0.000000 0.000000
# 2 -0.003086 0.009019 -0.005091 0.000000 0.000000 0.000000
# 3 0.000202 -0.005091 0.021767 0.000000 0.000000 0.000000
# 4 0.000000 0.000000 0.000000 0.033856 0.000000 0.000000
# 5 0.000000 0.000000 0.000000 0.000000 0.043650 0.000000
# 6 0.000000 0.000000 0.000000 0.000000 0.000000 0.060201
#
#
# Mechanical properties :
#
#
# Convention : Reuss Voigt Hill
#
# Bulk Modulus (GPa) = 42.91571 59.66174 51.28873
# Shear Modulus (GPa) = 24.91582 29.86830 27.39206
#
# Velocity S-wave (km/s) = 3.37087 3.69071 3.53441
# Velocity P-wave (km/s) = 5.89253 6.73575 6.32820
#
# Compressibility (1/GPa) = 0.02330149
#
# Stress axis : x y z
#
# Youngs Moduli (GPa) = 118.12186 110.87642 45.94159
#
# Poissons Ratio (x) = 0.34217 -0.00930
# Poissons Ratio (y) = 0.36453 0.23390
# Poissons Ratio (z) = -0.02390 0.56451
#
# Static dielectric constant tensor:
#      x y z
#    x 1.883270 0.000000 0.000000 
#    y 0.000000 1.828990 0.000000 
#    z 0.000000 0.000000 1.835510 
# 
# From -- ./inp_files/18631.got.cif
#   From: 2010.05.17/outbox.cif.g08.bks.cpg/sg23_10_cif.got.tgz:18631.got - 2010.06.04 12:02:01.
