data_PCOD9330209
_publ_section_title
;
Structure prediction by ZEFSAII (Michael W. Deem and Ramdas Pophale) SiO2 
 PCOD9330209
Probable space group: I 2 2 2
;
_chemical_formula_sum "Si O2"
_cell_formula_units_Z 48
_cell_length_a 11.214684
_cell_length_b 22.305405
_cell_length_c 8.634381
_cell_angle_alpha 90.000000
_cell_angle_beta 90.000000
_cell_angle_gamma 90.000000
_cell_volume 2159.873730
_symmetry_space_group_name_H-M "I 2 2 2"
_symmetry_group_IT_number 23
_symmetry_cell_setting 'orthorhombic'
loop_
_space_group_symop_operation_xyz
x,y,z
-x,-y,z
x,-y,-z
-x,y,-z
1/2+x,1/2+y,1/2+z
1/2-x,1/2-y,1/2+z
1/2+x,1/2-y,1/2-z
1/2-x,1/2+y,1/2-z
loop_
_atom_site_type_symbol
_atom_site_label
_atom_site_fract_x
_atom_site_fract_y
_atom_site_fract_z
Si Si1 0.400774 0.596636 0.885032
Si Si2 0.974197 0.679101 0.736156
Si Si3 0.538319 0.309194 0.321250
Si Si4 0.366639 0.558592 0.578804
Si Si5 0.693540 0.829992 0.946626
Si Si6 0.251847 0.311070 0.904409
O O1 0.471969 0.636510 0.759819
O O2 0.353779 0.548016 0.764443
O O3 0.500000 0.572432 0.000000
O O4 0.316492 0.643159 0.977628
O O5 0.896432 0.661613 0.588281
O O6 0.884805 0.668679 0.879465
O O7 0.988121 0.750693 0.735894
O O8 0.110394 0.659080 0.707302
O O9 0.500000 0.303014 0.500000
O O10 0.673556 0.313990 0.257701
O O11 0.311467 0.500000 0.500000
O O12 0.500000 0.562199 0.500000
O O13 0.293141 0.619092 0.545966
O O14 0.738609 0.760230 0.945661
#
# Coordination Sequence:
#
# PCOD9330209 Si02
#       6
#     8   8   8   8   8   8
#     4  10  21  38  63 103 143 170 214 290 355 414
#     4  10  21  36  57  95 142 188 228 273 340 409
#     4  10  20  32  54  94 141 188 220 269 339 420
#     4  11  26  47  72  98 128 180 245 290 345 418
#     4  10  22  41  62  96 146 184 232 285 332 420
#     4  10  21  34  60  99 148 181 213 267 361 420
#
# _framework density 22.223521000000002
#
# number of rings (size 3 to 8) (size 9 to 14) (size 15 to 20)
#    0.000    1.833    1.667    1.500    9.333    1.333 
#    0.000    3.333    0.000    0.000    0.000    0.000 
#    0.000    0.000    0.000    0.000    0.000    0.000 
#
# Total GULP energy -133790.517209 kJ/mol
# GULP energy per Si atom -5574.604884 kJ/mol
# Density = 2.217294 g / cm^3
# Si number density = 22.223521 Si / 1000 Ang^3
#
#
#
# Elastic Constant Matrix: (Units=GPa)
#
#
# Indices 1 2 3 4 5 6 
#
# 1 112.7450 41.7463 37.4221 0.0001 0.0000 -0.0001
# 2 41.7463 80.4670 49.0142 -0.0001 0.0000 0.0000
# 3 37.4221 49.0142 129.0570 -0.0001 0.0000 0.0007
# 4 0.0001 -0.0001 -0.0001 29.2053 0.0000 0.0001
# 5 0.0000 0.0000 0.0000 0.0000 44.4022 0.0000
# 6 -0.0001 0.0000 0.0007 0.0001 0.0000 -9.0507
#
#
#
# Elastic Compliance Matrix: (Units=1/GPa)
#
#
# Indices 1 2 3 4 5 6 
#
# 1 0.011156 -0.004966 -0.001349 0.000000 0.000000 0.000000
# 2 -0.004966 0.018378 -0.005540 0.000000 0.000000 0.000000
# 3 -0.001349 -0.005540 0.010244 0.000000 0.000000 0.000001
# 4 0.000000 0.000000 0.000000 0.034240 0.000000 0.000000
# 5 0.000000 0.000000 0.000000 0.000000 0.022521 0.000000
# 6 0.000000 0.000000 0.000001 0.000000 0.000000 -0.110489
#
#
# Mechanical properties :
#
#
# Convention : Reuss Voigt Hill
#
# Bulk Modulus (GPa) = 62.23405 64.29269 63.26337
# Shear Modulus (GPa) = 330.75953 25.85046 178.30499
#
# Velocity S-wave (km/s) = 12.21295 3.41428 8.96698
# Velocity P-wave (km/s) = 15.06451 6.67352 11.65065
#
# Compressibility (1/GPa) = 0.01606837
#
# Stress axis : x y z
#
# Youngs Moduli (GPa) = 89.63703 54.41187 97.62220
#
# Poissons Ratio (x) = 0.27022 0.13167
# Poissons Ratio (y) = 0.44516 0.54081
# Poissons Ratio (z) = 0.12090 0.30143
#
# Static dielectric constant tensor:
#      x y z
#    x 1.950440 0.000000 0.000000 
#    y 0.000000 1.847870 0.000000 
#    z 0.000000 0.000000 2.024170 
# 
# From -- ./inp_files/8667.got.cif
#   From: 2010.05.17/outbox.cif.g08.bks.cpg/sg23_5_cif.got.tgz:8667.got - 2010.06.04 12:02:01.
