data_PCOD9330838
_publ_section_title
;
Structure prediction by ZEFSAII (Michael W. Deem and Ramdas Pophale) SiO2 
 PCOD9330838
Probable space group: I 2 2 2
;
_chemical_formula_sum "Si O2"
_cell_formula_units_Z 24
_cell_length_a 8.849483
_cell_length_b 21.724990
_cell_length_c 5.407619
_cell_angle_alpha 90.000000
_cell_angle_beta 90.000000
_cell_angle_gamma 90.000000
_cell_volume 1039.641411
_symmetry_space_group_name_H-M "I 2 2 2"
_symmetry_group_IT_number 23
_symmetry_cell_setting 'orthorhombic'
loop_
_space_group_symop_operation_xyz
x,y,z
-x,-y,z
x,-y,-z
-x,y,-z
1/2+x,1/2+y,1/2+z
1/2-x,1/2-y,1/2+z
1/2+x,1/2-y,1/2-z
1/2-x,1/2+y,1/2-z
loop_
_atom_site_type_symbol
_atom_site_label
_atom_site_fract_x
_atom_site_fract_y
_atom_site_fract_z
Si Si1 0.672451 0.341970 0.422357
Si Si2 0.176196 0.025599 0.253280
Si Si3 0.598627 0.790047 0.748769
O O1 0.500000 0.347553 0.500000
O O2 0.696171 0.401265 0.255448
O O3 0.680756 0.275716 0.291026
O O4 0.776336 0.339299 0.666484
O O5 0.247386 0.000000 0.500000
O O6 0.000000 0.000000 0.252913
O O7 0.242656 0.000000 0.000000
O O8 0.500000 0.802222 0.500000
O O9 0.500000 0.785157 0.000000
#
# Coordination Sequence:
#
# PCOD9330838 Si02
#       3
#     8   8   8
#     4  11  22  42  70 100 146 190 251 297 362 440
#     4  10  21  36  59 103 136 172 228 313 357 389
#     4  11  26  42  63 104 147 199 235 302 378 436
#
# _framework density 23.084880999999999
#
# number of rings (size 3 to 8) (size 9 to 14) (size 15 to 20)
#    0.000    1.333    3.333    4.000    4.667    5.333 
#    0.000    0.000    0.000    1.000    0.000   14.000 
#    0.000    0.000    0.000    0.000    0.000    0.000 
#
# Total GULP energy -67008.782552 kJ/mol
# GULP energy per Si atom -5584.065213 kJ/mol
# Density = 2.303234 g / cm^3
# Si number density = 23.084881 Si / 1000 Ang^3
#
#
#
# Elastic Constant Matrix: (Units=GPa)
#
#
# Indices 1 2 3 4 5 6 
#
# 1 84.9065 35.9757 63.0652 0.0003 0.0047 0.0004
# 2 35.9757 121.4095 66.9654 0.0021 -0.0003 -0.0077
# 3 63.0652 66.9654 217.4070 0.0070 0.0095 0.0002
# 4 0.0003 0.0021 0.0070 75.4791 -0.0014 -0.0239
# 5 0.0047 -0.0003 0.0095 -0.0014 -12.1097 0.0073
# 6 0.0004 -0.0077 0.0002 -0.0239 0.0073 -23.9086
#
#
#
# Elastic Compliance Matrix: (Units=1/GPa)
#
#
# Indices 1 2 3 4 5 6 
#
# 1 0.015651 -0.002570 -0.003748 0.000000 0.000003 0.000001
# 2 -0.002570 0.010344 -0.002441 0.000000 -0.000003 -0.000003
# 3 -0.003748 -0.002441 0.006439 -0.000001 0.000004 0.000001
# 4 0.000000 0.000000 -0.000001 0.013249 -0.000002 -0.000013
# 5 0.000003 -0.000003 0.000004 -0.000002 -0.082578 -0.000025
# 6 0.000001 -0.000003 0.000001 -0.000013 -0.000025 -0.041826
#
#
# Mechanical properties :
#
#
# Convention : Reuss Voigt Hill
#
# Bulk Modulus (GPa) = 67.04408 83.97061 75.50734
# Shear Modulus (GPa) = -88.91783 25.07329 -31.92227
#
# Velocity S-wave (km/s) = -6.21300 3.29923 -3.72266
# Velocity P-wave (km/s) = 4.72896 7.13911 3.78179
#
# Compressibility (1/GPa) = 0.01491556
#
# Stress axis : x y z
#
# Youngs Moduli (GPa) = 63.89477 96.67090 155.30955
#
# Poissons Ratio (x) = 0.24846 0.58215
# Poissons Ratio (y) = 0.16422 0.37907
# Poissons Ratio (z) = 0.23950 0.23595
#
# Static dielectric constant tensor:
#      x y z
#    x 1.895920 0.000000 -0.000010 
#    y 0.000000 1.903460 0.000010 
#    z -0.000010 0.000010 1.898610 
# 
# From -- ./inp_files/419.got.cif
#   From: 2010.05.17/outbox.cif.g08.bks.cpg/sg23_1_cif.got.tgz:419.got - 2010.06.04 12:02:01.
