data_PCOD9330245
_publ_section_title
;
Structure prediction by ZEFSAII (Michael W. Deem and Ramdas Pophale) SiO2 
 PCOD9330245
Probable space group: I 2 2 2
;
_chemical_formula_sum "Si O2"
_cell_formula_units_Z 52
_cell_length_a 15.934086
_cell_length_b 17.156162
_cell_length_c 9.535098
_cell_angle_alpha 90.000000
_cell_angle_beta 90.000000
_cell_angle_gamma 90.000000
_cell_volume 2606.588389
_symmetry_space_group_name_H-M "I 2 2 2"
_symmetry_group_IT_number 23
_symmetry_cell_setting 'orthorhombic'
loop_
_space_group_symop_operation_xyz
x,y,z
-x,-y,z
x,-y,-z
-x,y,-z
1/2+x,1/2+y,1/2+z
1/2-x,1/2-y,1/2+z
1/2+x,1/2-y,1/2-z
1/2-x,1/2+y,1/2-z
loop_
_atom_site_type_symbol
_atom_site_label
_atom_site_fract_x
_atom_site_fract_y
_atom_site_fract_z
Si Si1 0.825842 0.774898 0.463177
Si Si2 0.865496 0.391271 0.525813
Si Si3 0.500000 0.000000 0.500000
Si Si4 0.341466 0.722414 0.701872
Si Si5 0.678274 0.553560 0.380914
Si Si6 0.500000 0.000000 0.000000
Si Si7 0.115136 0.389623 0.810861
Si Si8 0.802465 0.060594 0.622021
O O1 0.882138 0.698619 0.438552
O O2 0.739711 0.747417 0.389267
O O3 0.817680 0.781934 0.632295
O O4 0.851510 0.857906 0.398915
O O5 0.773750 0.420458 0.574081
O O6 0.873359 0.401024 0.357168
O O7 0.938722 0.444412 0.587320
O O8 0.552506 0.943647 0.396652
O O9 0.365891 0.635269 0.655828
O O10 0.401889 0.796442 0.677548
O O11 0.638706 0.500000 0.500000
O O12 0.683923 0.492062 0.256534
O O13 0.205881 0.411444 0.876150
O O14 0.819493 0.000000 0.500000
#
# Coordination Sequence:
#
# PCOD9330245 Si02
#       8
#     8   8   2   8   8   2   8   8
#     4   9  19  32  48  73 108 140 172 223 275 324
#     4  10  20  34  50  72 107 147 180 216 267 325
#     4  12  22  32  56  82 110 154 194 234 264 318
#     4   9  19  32  48  72 107 142 173 221 274 327
#     4  11  19  32  54  78 107 141 177 220 278 338
#     4  12  18  32  52  74  98 142 184 210 242 318
#     4  10  20  34  48  73 110 143 181 221 269 319
#     4  11  18  31  52  79 106 137 177 223 274 330
#
# _framework density 19.949446999999999
#
# number of rings (size 3 to 8) (size 9 to 14) (size 15 to 20)
#    0.000    1.846    4.615    0.462    2.154    0.000 
#    0.000    0.000    0.000    0.000    0.000    1.077 
#    0.000    0.000    0.000    0.000    0.000    0.000 
#
# Total GULP energy -144774.066154 kJ/mol
# GULP energy per Si atom -5568.233314 kJ/mol
# Density = 1.990404 g / cm^3
# Si number density = 19.949447 Si / 1000 Ang^3
#
#
#
# Elastic Constant Matrix: (Units=GPa)
#
#
# Indices 1 2 3 4 5 6 
#
# 1 15.5522 23.2330 9.0807 0.0000 0.0000 0.0000
# 2 23.2330 252.7157 68.8466 0.0000 0.0000 0.0000
# 3 9.0807 68.8466 92.1075 0.0000 0.0000 0.0000
# 4 0.0000 0.0000 0.0000 37.5478 0.0000 0.0000
# 5 0.0000 0.0000 0.0000 0.0000 9.5670 0.0000
# 6 0.0000 0.0000 0.0000 0.0000 0.0000 25.1059
#
#
#
# Elastic Compliance Matrix: (Units=1/GPa)
#
#
# Indices 1 2 3 4 5 6 
#
# 1 0.075114 -0.006138 -0.002818 0.000000 0.000000 0.000000
# 2 -0.006138 0.005470 -0.003484 0.000000 0.000000 0.000000
# 3 -0.002818 -0.003484 0.013739 0.000000 0.000000 0.000000
# 4 0.000000 0.000000 0.000000 0.026633 0.000000 0.000000
# 5 0.000000 0.000000 0.000000 0.000000 0.104526 0.000000
# 6 0.000000 0.000000 0.000000 0.000000 0.000000 0.039831
#
#
# Mechanical properties :
#
#
# Convention : Reuss Voigt Hill
#
# Bulk Modulus (GPa) = 14.40000 62.52178 38.46089
# Shear Modulus (GPa) = 15.95714 31.72513 23.84113
#
# Velocity S-wave (km/s) = 2.83128 3.99215 3.46074
# Velocity P-wave (km/s) = 4.23345 7.25657 5.94054
#
# Compressibility (1/GPa) = 0.06944444
#
# Stress axis : x y z
#
# Youngs Moduli (GPa) = 13.31314 182.80332 72.78754
#
# Poissons Ratio (x) = 1.12203 0.20508
# Poissons Ratio (y) = 0.08171 0.25357
# Poissons Ratio (z) = 0.03751 0.63684
#
# Static dielectric constant tensor:
#      x y z
#    x 1.714670 0.000000 0.000000 
#    y 0.000000 1.768970 0.000000 
#    z 0.000000 0.000000 1.661860 
# 
# From -- ./inp_files/11255.got.cif
#   From: 2010.05.17/outbox.cif.g08.bks.cpg/sg23_6_cif.got.tgz:11255.got - 2010.06.04 12:02:01.
