data_PCOD9330533
_publ_section_title
;
Structure prediction by ZEFSAII (Michael W. Deem and Ramdas Pophale) SiO2 
 PCOD9330533
Probable space group: I 2 2 2
;
_chemical_formula_sum "Si O2"
_cell_formula_units_Z 28
_cell_length_a 11.838187
_cell_length_b 18.133611
_cell_length_c 5.316666
_cell_angle_alpha 90.000000
_cell_angle_beta 90.000000
_cell_angle_gamma 90.000000
_cell_volume 1141.323788
_symmetry_space_group_name_H-M "I 2 2 2"
_symmetry_group_IT_number 23
_symmetry_cell_setting 'orthorhombic'
loop_
_space_group_symop_operation_xyz
x,y,z
-x,-y,z
x,-y,-z
-x,y,-z
1/2+x,1/2+y,1/2+z
1/2-x,1/2-y,1/2+z
1/2+x,1/2-y,1/2-z
1/2-x,1/2+y,1/2-z
loop_
_atom_site_type_symbol
_atom_site_label
_atom_site_fract_x
_atom_site_fract_y
_atom_site_fract_z
Si Si1 0.205116 0.084096 0.950887
Si Si2 0.000000 0.178522 0.000000
Si Si3 0.950814 0.415403 0.750205
Si Si4 0.203817 0.213847 0.282973
O O1 0.093624 0.127283 0.863253
O O2 0.232380 0.128967 0.209645
O O3 0.316338 0.085170 0.779370
O O4 0.177401 0.000000 0.000000
O O5 0.072684 0.221329 0.205635
O O6 0.000000 0.500000 0.749666
O O7 0.000000 0.379861 0.500000
O O8 0.000000 0.380640 0.000000
O O9 0.233974 0.240748 0.558731
#
# Coordination Sequence:
#
# PCOD9330533 Si02
#       4
#     8   4   8   8
#     4  10  20  45  75 109 146 188 248 315 369 439
#     4   8  23  44  76 106 149 188 258 294 397 420
#     4  10  20  38  60  98 145 179 230 283 356 434
#     4  10  24  48  68 101 146 194 240 292 363 451
#
# _framework density 24.532917000000001
#
# number of rings (size 3 to 8) (size 9 to 14) (size 15 to 20)
#    1.714    0.571    2.857    0.429    0.000    3.429 
#    7.714    0.000    0.000    3.429    0.000    0.000 
#    0.000    0.000    0.000    0.000    0.000    0.000 
#
# Total GULP energy -78162.700468 kJ/mol
# GULP energy per Si atom -5583.050033 kJ/mol
# Density = 2.447708 g / cm^3
# Si number density = 24.532917 Si / 1000 Ang^3
#
#
#
# Elastic Constant Matrix: (Units=GPa)
#
#
# Indices 1 2 3 4 5 6 
#
# 1 201.0505 21.2484 39.4741 0.0000 0.0000 0.0000
# 2 21.2484 119.5941 25.6281 0.0000 0.0000 0.0000
# 3 39.4741 25.6281 119.0040 0.0000 0.0000 0.0000
# 4 0.0000 0.0000 0.0000 11.6879 0.0000 0.0000
# 5 0.0000 0.0000 0.0000 0.0000 3.8935 0.0000
# 6 0.0000 0.0000 0.0000 0.0000 0.0000 36.0901
#
#
#
# Elastic Compliance Matrix: (Units=1/GPa)
#
#
# Indices 1 2 3 4 5 6 
#
# 1 0.005361 -0.000599 -0.001649 0.000000 0.000000 0.000000
# 2 -0.000599 0.008833 -0.001704 0.000000 0.000000 0.000000
# 3 -0.001649 -0.001704 0.009317 0.000000 0.000000 0.000000
# 4 0.000000 0.000000 0.000000 0.085558 0.000000 0.000000
# 5 0.000000 0.000000 0.000000 0.000000 0.256842 0.000000
# 6 0.000000 0.000000 0.000000 0.000000 0.000000 0.027708
#
#
# Mechanical properties :
#
#
# Convention : Reuss Voigt Hill
#
# Bulk Modulus (GPa) = 64.07220 68.03886 66.05553
# Shear Modulus (GPa) = 12.29329 33.88749 23.09039
#
# Velocity S-wave (km/s) = 2.24094 3.72063 3.07123
# Velocity P-wave (km/s) = 5.73317 6.80083 6.28970
#
# Compressibility (1/GPa) = 0.01560739
#
# Stress axis : x y z
#
# Youngs Moduli (GPa) = 186.53232 113.21042 107.33061
#
# Poissons Ratio (x) = 0.06782 0.17702
# Poissons Ratio (y) = 0.11175 0.18284
# Poissons Ratio (z) = 0.30764 0.19286
#
# Static dielectric constant tensor:
#      x y z
#    x 1.983960 0.000000 0.000000 
#    y 0.000000 2.042100 0.000000 
#    z 0.000000 0.000000 1.979100 
# 
# From -- ./inp_files/1265.got.cif
#   From: 2010.05.17/outbox.cif.g08.bks.cpg/sg23_1_cif.got.tgz:1265.got - 2010.06.04 12:02:01.
