data_PCOD9330600
_publ_section_title
;
Structure prediction by ZEFSAII (Michael W. Deem and Ramdas Pophale) SiO2 
 PCOD9330600
Probable space group: I 2 2 2
;
_chemical_formula_sum "Si O2"
_cell_formula_units_Z 48
_cell_length_a 8.496411
_cell_length_b 31.743947
_cell_length_c 8.770704
_cell_angle_alpha 90.000000
_cell_angle_beta 90.000000
_cell_angle_gamma 90.000000
_cell_volume 2365.543247
_symmetry_space_group_name_H-M "I 2 2 2"
_symmetry_group_IT_number 23
_symmetry_cell_setting 'orthorhombic'
loop_
_space_group_symop_operation_xyz
x,y,z
-x,-y,z
x,-y,-z
-x,y,-z
1/2+x,1/2+y,1/2+z
1/2-x,1/2-y,1/2+z
1/2+x,1/2-y,1/2-z
1/2-x,1/2+y,1/2-z
loop_
_atom_site_type_symbol
_atom_site_label
_atom_site_fract_x
_atom_site_fract_y
_atom_site_fract_z
Si Si1 0.867652 0.273098 0.896310
Si Si2 0.683386 0.648220 0.972308
Si Si3 0.683122 0.044262 0.052446
Si Si4 0.400357 0.082223 0.647354
Si Si5 0.687585 0.879083 0.157403
Si Si6 0.597498 0.788997 0.133430
O O1 0.744056 0.240477 0.827618
O O2 0.972832 0.294926 0.767548
O O3 0.776651 0.308604 0.992503
O O4 0.000000 0.250700 0.000000
O O5 0.702129 0.632444 0.799146
O O6 0.500000 0.653333 0.000000
O O7 0.771269 0.613956 0.079011
O O8 0.680984 0.050033 0.234915
O O9 0.500000 0.042697 0.000000
O O10 0.743905 0.085025 0.959228
O O11 0.755890 0.000000 0.000000
O O12 0.500000 0.065903 0.500000
O O13 0.527683 0.105503 0.756802
O O14 0.656356 0.834451 0.077517
O O15 0.500000 0.767070 0.000000
#
# Coordination Sequence:
#
# PCOD9330600 Si02
#       6
#     8   8   8   8   8   8
#     4  12  24  43  60  87 124 167 212 263 315 368
#     4  11  22  39  62  85 121 165 219 267 311 383
#     4   9  18  35  63  98 125 152 202 265 322 389
#     4   9  17  36  63  88 124 163 199 256 320 383
#     4  10  20  39  61  86 122 164 205 260 329 377
#     4  12  24  38  61  88 124 168 210 262 316 373
#
# _framework density 20.291322000000001
#
# number of rings (size 3 to 8) (size 9 to 14) (size 15 to 20)
#    0.000    1.500    3.333    3.500    2.333    0.000 
#    0.000   15.000    0.000    3.000    0.000    0.000 
#    0.000    0.000    0.000    0.000    0.000    0.000 
#
# Total GULP energy -133845.141324 kJ/mol
# GULP energy per Si atom -5576.880888 kJ/mol
# Density = 2.024514 g / cm^3
# Si number density = 20.291322 Si / 1000 Ang^3
#
#
#
# Elastic Constant Matrix: (Units=GPa)
#
#
# Indices 1 2 3 4 5 6 
#
# 1 92.8692 29.7323 35.7711 0.0001 0.0000 0.0000
# 2 29.7323 124.4303 53.4935 0.0004 0.0001 0.0000
# 3 35.7711 53.4935 102.0642 0.0000 0.0002 -0.0001
# 4 0.0001 0.0004 0.0000 23.8257 0.0001 -0.0001
# 5 0.0000 0.0001 0.0002 0.0001 16.1945 0.0001
# 6 0.0000 0.0000 -0.0001 -0.0001 0.0001 10.2436
#
#
#
# Elastic Compliance Matrix: (Units=1/GPa)
#
#
# Indices 1 2 3 4 5 6 
#
# 1 0.012645 -0.001441 -0.003677 0.000000 0.000000 0.000000
# 2 -0.001441 0.010538 -0.005018 0.000000 0.000000 0.000000
# 3 -0.003677 -0.005018 0.013717 0.000000 0.000000 0.000000
# 4 0.000000 0.000000 0.000000 0.041971 0.000000 0.000000
# 5 0.000000 0.000000 0.000000 0.000000 0.061749 0.000000
# 6 0.000000 0.000000 0.000000 0.000000 0.000000 0.097622
#
#
# Mechanical properties :
#
#
# Convention : Reuss Voigt Hill
#
# Bulk Modulus (GPa) = 60.13823 61.92862 61.03343
# Shear Modulus (GPa) = 18.93526 23.41055 21.17291
#
# Velocity S-wave (km/s) = 3.05810 3.40033 3.23375
# Velocity P-wave (km/s) = 6.49392 6.78250 6.63978
#
# Compressibility (1/GPa) = 0.01662836
#
# Stress axis : x y z
#
# Youngs Moduli (GPa) = 79.08066 94.89160 72.90483
#
# Poissons Ratio (x) = 0.13673 0.26805
# Poissons Ratio (y) = 0.11395 0.36586
# Poissons Ratio (z) = 0.29075 0.47619
#
# Static dielectric constant tensor:
#      x y z
#    x 1.740970 0.000000 0.000000 
#    y 0.000000 1.742490 0.000000 
#    z 0.000000 0.000000 1.735650 
# 
# From -- ./inp_files/7349.got.cif
#   From: 2010.05.17/outbox.cif.g08.bks.cpg/sg23_4_cif.got.tgz:7349.got - 2010.06.04 12:02:01.
