data_PCOD9330638
_publ_section_title
;
Structure prediction by ZEFSAII (Michael W. Deem and Ramdas Pophale) SiO2 
 PCOD9330638
Probable space group: I 2 2 2
;
_chemical_formula_sum "Si O2"
_cell_formula_units_Z 48
_cell_length_a 8.252521
_cell_length_b 19.633749
_cell_length_c 12.337997
_cell_angle_alpha 90.000000
_cell_angle_beta 90.000000
_cell_angle_gamma 90.000000
_cell_volume 1999.100064
_symmetry_space_group_name_H-M "I 2 2 2"
_symmetry_group_IT_number 23
_symmetry_cell_setting 'orthorhombic'
loop_
_space_group_symop_operation_xyz
x,y,z
-x,-y,z
x,-y,-z
-x,y,-z
1/2+x,1/2+y,1/2+z
1/2-x,1/2-y,1/2+z
1/2+x,1/2-y,1/2-z
1/2-x,1/2+y,1/2-z
loop_
_atom_site_type_symbol
_atom_site_label
_atom_site_fract_x
_atom_site_fract_y
_atom_site_fract_z
Si Si1 0.831927 0.662561 0.538614
Si Si2 0.089908 0.730398 0.903208
Si Si3 0.396161 0.319802 0.236735
Si Si4 0.206490 0.436365 0.346859
Si Si5 0.578673 0.570835 0.882047
Si Si6 0.145758 0.575689 0.263434
O O1 0.677370 0.709807 0.526772
O O2 0.832345 0.594968 0.464005
O O3 0.827719 0.642850 0.664746
O O4 0.000000 0.697537 0.500000
O O5 0.240984 0.698666 0.837079
O O6 0.969210 0.760894 0.812155
O O7 0.000000 0.689296 0.000000
O O8 0.341741 0.385056 0.307114
O O9 0.532579 0.355419 0.165109
O O10 0.231313 0.516314 0.336079
O O11 0.047683 0.429647 0.269525
O O12 0.500000 0.500000 0.835635
O O13 0.768678 0.567950 0.852089
O O14 0.500000 0.572025 0.000000
#
# Coordination Sequence:
#
# PCOD9330638 Si02
#       6
#     8   8   8   8   8   8
#     4  10  21  40  70 106 141 176 221 283 357 427
#     4  12  28  46  69 103 139 186 243 287 351 422
#     4  12  27  44  70  98 135 188 236 288 350 418
#     4  10  21  40  69 105 140 175 224 285 360 422
#     4  11  24  44  69  98 136 184 240 293 352 413
#     4  10  20  39  71 105 139 175 221 287 358 427
#
# _framework density 24.010805000000001
#
# number of rings (size 3 to 8) (size 9 to 14) (size 15 to 20)
#    0.000    1.167    5.000    0.500    4.667    5.333 
#    0.000    0.000    0.000    0.000    0.000    0.000 
#    0.000    0.000    0.000    0.000    0.000    0.000 
#
# Total GULP energy -133716.579247 kJ/mol
# GULP energy per Si atom -5571.524135 kJ/mol
# Density = 2.395615 g / cm^3
# Si number density = 24.010805 Si / 1000 Ang^3
#
#
#
# Elastic Constant Matrix: (Units=GPa)
#
#
# Indices 1 2 3 4 5 6 
#
# 1 80.7056 12.2636 47.9516 0.0000 0.0000 0.0000
# 2 12.2636 51.8664 20.7749 0.0000 0.0000 0.0001
# 3 47.9516 20.7749 92.6964 0.0000 0.0000 0.0001
# 4 0.0000 0.0000 0.0000 22.9299 0.0000 0.0001
# 5 0.0000 0.0000 0.0000 0.0000 44.6664 0.0000
# 6 0.0000 0.0001 0.0001 0.0001 0.0000 27.5464
#
#
#
# Elastic Compliance Matrix: (Units=1/GPa)
#
#
# Indices 1 2 3 4 5 6 
#
# 1 0.017905 -0.000575 -0.009133 0.000000 0.000000 0.000000
# 2 -0.000575 0.021200 -0.004454 0.000000 0.000000 0.000000
# 3 -0.009133 -0.004454 0.016511 0.000000 0.000000 0.000000
# 4 0.000000 0.000000 0.000000 0.043611 0.000000 0.000000
# 5 0.000000 0.000000 0.000000 0.000000 0.022388 0.000000
# 6 0.000000 0.000000 0.000000 0.000000 0.000000 0.036302
#
#
# Mechanical properties :
#
#
# Convention : Reuss Voigt Hill
#
# Bulk Modulus (GPa) = 36.64179 43.02761 39.83470
# Shear Modulus (GPa) = 25.59662 28.64711 27.12186
#
# Velocity S-wave (km/s) = 3.26858 3.45786 3.36455
# Velocity P-wave (km/s) = 5.43493 5.82249 5.63205
#
# Compressibility (1/GPa) = 0.02729125
#
# Stress axis : x y z
#
# Youngs Moduli (GPa) = 55.85165 47.16918 60.56725
#
# Poissons Ratio (x) = 0.02713 0.55316
# Poissons Ratio (y) = 0.03213 0.26975
# Poissons Ratio (z) = 0.51010 0.21008
#
# Static dielectric constant tensor:
#      x y z
#    x 1.982080 0.000000 0.000000 
#    y 0.000000 1.961830 0.000000 
#    z 0.000000 0.000000 2.081330 
# 
# From -- ./inp_files/14758.got.cif
#   From: 2010.05.17/outbox.cif.g08.bks.cpg/sg23_8_cif.got.tgz:14758.got - 2010.06.04 12:02:01.
