data_PCOD9330020
_publ_section_title
;
Structure prediction by ZEFSAII (Michael W. Deem and Ramdas Pophale) SiO2 
 PCOD9330020
Probable space group: I 2 2 2
;
_chemical_formula_sum "Si O2"
_cell_formula_units_Z 38
_cell_length_a 5.020322
_cell_length_b 10.732616
_cell_length_c 26.362682
_cell_angle_alpha 90.000000
_cell_angle_beta 90.000000
_cell_angle_gamma 90.000000
_cell_volume 1420.452631
_symmetry_space_group_name_H-M "I 2 2 2"
_symmetry_group_IT_number 23
_symmetry_cell_setting 'orthorhombic'
loop_
_space_group_symop_operation_xyz
x,y,z
-x,-y,z
x,-y,-z
-x,y,-z
1/2+x,1/2+y,1/2+z
1/2-x,1/2-y,1/2+z
1/2+x,1/2-y,1/2-z
1/2-x,1/2+y,1/2-z
loop_
_atom_site_type_symbol
_atom_site_label
_atom_site_fract_x
_atom_site_fract_y
_atom_site_fract_z
Si Si1 0.288780 0.832451 0.146256
Si Si2 0.000000 0.500000 0.500000
Si Si3 0.500000 0.500000 0.435179
Si Si4 0.295123 0.171188 0.641382
Si Si5 0.164914 0.163328 0.747708
Si Si6 0.750464 0.136904 0.474991
O O1 0.158696 0.904193 0.100069
O O2 0.593356 0.790295 0.141995
O O3 0.238755 0.902284 0.199655
O O4 0.102410 0.709156 0.147182
O O5 0.761667 0.441472 0.464001
O O6 0.216760 0.100941 0.693325
O O7 0.253945 0.118938 0.585114
O O8 0.369094 0.281591 0.748444
O O9 0.500000 0.202120 0.500000
O O10 0.000000 0.203060 0.500000
O O11 0.750858 0.000000 0.500000
#
# Coordination Sequence:
#
# PCOD9330020 Si02
#       6
#     8   2   4   8   8   8
#     4  10  20  36  60  85 115 149 195 249 295 365
#     4  10  24  42  56  70 116 158 182 254 306 358
#     4  11  22  42  56  82 118 156 197 250 312 344
#     4  10  19  36  58  88 114 157 195 242 293 353
#     4   8  16  31  55  82 111 140 187 239 293 345
#     4  10  21  38  56  80 117 158 192 239 286 338
#
# _framework density 26.752039
#
# number of rings (size 3 to 8) (size 9 to 14) (size 15 to 20)
#    0.000    2.316    0.000    2.526    0.000    0.000 
#   18.947    2.105    0.000   10.105    0.000    0.000 
#    0.000    0.000    0.000    0.000    0.000    0.000 
#
# Total GULP energy -106007.894938 kJ/mol
# GULP energy per Si atom -5579.362891 kJ/mol
# Density = 2.669115 g / cm^3
# Si number density = 26.752039 Si / 1000 Ang^3
#
#
#
# Elastic Constant Matrix: (Units=GPa)
#
#
# Indices 1 2 3 4 5 6 
#
# 1 201.1644 23.9445 42.0669 0.0000 0.0000 0.0000
# 2 23.9445 44.4758 38.6812 0.0000 0.0000 0.0000
# 3 42.0669 38.6812 263.9510 0.0000 0.0000 0.0000
# 4 0.0000 0.0000 0.0000 -177.5615 0.0000 0.0000
# 5 0.0000 0.0000 0.0000 0.0000 53.9245 0.0000
# 6 0.0000 0.0000 0.0000 0.0000 0.0000 17.2496
#
#
#
# Elastic Compliance Matrix: (Units=1/GPa)
#
#
# Indices 1 2 3 4 5 6 
#
# 1 0.005367 -0.002459 -0.000495 0.000000 0.000000 0.000000
# 2 -0.002459 0.026895 -0.003549 0.000000 0.000000 0.000000
# 3 -0.000495 -0.003549 0.004388 0.000000 0.000000 0.000000
# 4 0.000000 0.000000 0.000000 -0.005632 0.000000 0.000000
# 5 0.000000 0.000000 0.000000 0.000000 0.018544 0.000000
# 6 0.000000 0.000000 0.000000 0.000000 0.000000 0.057972
#
#
# Mechanical properties :
#
#
# Convention : Reuss Voigt Hill
#
# Bulk Modulus (GPa) = 42.29611 79.88626 61.09118
# Shear Modulus (GPa) = 38.93383 5.71577 22.32480
#
# Velocity S-wave (km/s) = 3.81906 1.46329 2.89192
# Velocity P-wave (km/s) = 5.94068 5.72552 5.83409
#
# Compressibility (1/GPa) = 0.02364284
#
# Stress axis : x y z
#
# Youngs Moduli (GPa) = 186.31417 37.18159 227.91282
#
# Poissons Ratio (x) = 0.09143 0.11283
# Poissons Ratio (y) = 0.45815 0.80897
# Poissons Ratio (z) = 0.09223 0.13198
#
# Static dielectric constant tensor:
#      x y z
#    x 1.985620 0.000000 0.000000 
#    y 0.000000 2.137720 0.000000 
#    z 0.000000 0.000000 2.214250 
# 
# From -- ./inp_files/4387.got.cif
#   From: 2010.05.17/outbox.cif.g08.bks.cpg/sg23_3_cif.got.tgz:4387.got - 2010.06.04 12:02:01.
