data_PCOD9330960
_publ_section_title
;
Structure prediction by ZEFSAII (Michael W. Deem and Ramdas Pophale) SiO2 
 PCOD9330960
Probable space group: I 2 2 2
;
_chemical_formula_sum "Si O2"
_cell_formula_units_Z 44
_cell_length_a 10.023649
_cell_length_b 12.733529
_cell_length_c 18.137386
_cell_angle_alpha 90.000000
_cell_angle_beta 90.000000
_cell_angle_gamma 90.000000
_cell_volume 2314.991112
_symmetry_space_group_name_H-M "I 2 2 2"
_symmetry_group_IT_number 23
_symmetry_cell_setting 'orthorhombic'
loop_
_space_group_symop_operation_xyz
x,y,z
-x,-y,z
x,-y,-z
-x,y,-z
1/2+x,1/2+y,1/2+z
1/2-x,1/2-y,1/2+z
1/2+x,1/2-y,1/2-z
1/2-x,1/2+y,1/2-z
loop_
_atom_site_type_symbol
_atom_site_label
_atom_site_fract_x
_atom_site_fract_y
_atom_site_fract_z
Si Si1 0.500000 0.000000 0.801250
Si Si2 0.775402 0.781923 0.660110
Si Si3 0.534427 0.608228 0.878304
Si Si4 0.991620 0.331761 0.419570
Si Si5 0.796623 0.633755 0.794473
Si Si6 0.010422 0.627102 0.913975
O O1 0.452869 0.093683 0.855432
O O2 0.615748 0.048926 0.750781
O O3 0.839684 0.694797 0.604796
O O4 0.755675 0.725831 0.738072
O O5 0.647862 0.835473 0.623782
O O6 0.901573 0.859780 0.666521
O O7 0.500000 0.500000 0.918643
O O8 0.560747 0.716461 0.922154
O O9 0.661841 0.589571 0.828248
O O10 0.000000 0.378917 0.500000
O O11 0.891278 0.668617 0.862079
O O12 0.000000 0.500000 0.912476
O O13 0.000000 0.658636 0.000000
#
# Coordination Sequence:
#
# PCOD9330960 Si02
#       6
#     4   8   8   8   8   8
#     4  10  21  38  63  88 120 164 222 266 301 382
#     4   9  22  39  57  89 125 161 211 252 312 387
#     4  10  22  34  57  89 123 156 198 254 318 378
#     4   9  21  38  61  87 120 162 212 262 321 370
#     4  11  21  38  64  88 121 169 210 260 310 377
#     4  11  23  37  61  94 131 167 206 262 332 388
#
# _framework density 19.006553
#
# number of rings (size 3 to 8) (size 9 to 14) (size 15 to 20)
#    1.091    0.909    0.909    2.455    2.545    0.364 
#    0.000    0.000    0.000    0.000    0.000    0.000 
#    0.000    0.000    0.000    0.000    0.000    0.000 
#
# Total GULP energy -122478.246393 kJ/mol
# GULP energy per Si atom -5567.193018 kJ/mol
# Density = 1.896329 g / cm^3
# Si number density = 19.006553 Si / 1000 Ang^3
#
#
#
# Elastic Constant Matrix: (Units=GPa)
#
#
# Indices 1 2 3 4 5 6 
#
# 1 125.9033 25.6074 63.6513 0.0000 0.0000 0.0000
# 2 25.6074 76.6806 42.3553 0.0000 0.0000 0.0000
# 3 63.6513 42.3553 148.9538 0.0000 0.0000 0.0000
# 4 0.0000 0.0000 0.0000 -5.2475 0.0000 0.0000
# 5 0.0000 0.0000 0.0000 0.0000 13.6197 0.0000
# 6 0.0000 0.0000 0.0000 0.0000 0.0000 29.5189
#
#
#
# Elastic Compliance Matrix: (Units=1/GPa)
#
#
# Indices 1 2 3 4 5 6 
#
# 1 0.010222 -0.001187 -0.004030 0.000000 0.000000 0.000000
# 2 -0.001187 0.015609 -0.003931 0.000000 0.000000 0.000000
# 3 -0.004030 -0.003931 0.009554 0.000000 0.000000 0.000000
# 4 0.000000 0.000000 0.000000 -0.190567 0.000000 0.000000
# 5 0.000000 0.000000 0.000000 0.000000 0.073423 0.000000
# 6 0.000000 0.000000 0.000000 0.000000 0.000000 0.033877
#
#
# Mechanical properties :
#
#
# Convention : Reuss Voigt Hill
#
# Bulk Modulus (GPa) = 58.52490 68.30730 63.41610
# Shear Modulus (GPa) = -209.29171 22.23980 -93.52596
#
# Velocity S-wave (km/s) = -10.50498 3.42440 -7.02240
# Velocity P-wave (km/s) = 10.78335 7.18695 5.68456
#
# Compressibility (1/GPa) = 0.01708674
#
# Stress axis : x y z
#
# Youngs Moduli (GPa) = 97.83160 64.06572 104.67323
#
# Poissons Ratio (x) = 0.07607 0.42187
# Poissons Ratio (y) = 0.11616 0.41148
# Poissons Ratio (z) = 0.39429 0.25185
#
# Static dielectric constant tensor:
#      x y z
#    x 1.649260 0.000000 0.000000 
#    y 0.000000 1.727680 0.000000 
#    z 0.000000 0.000000 1.635540 
# 
# From -- ./inp_files/24269.got.cif
#   From: 2010.05.17/outbox.cif.g08.bks.cpg/sg23_13_cif.got.tgz:24269.got - 2010.06.04 12:02:01.
