data_PCOD9330410
_publ_section_title
;
Structure prediction by ZEFSAII (Michael W. Deem and Ramdas Pophale) SiO2 
 PCOD9330410
Probable space group: I 2 2 2
;
_chemical_formula_sum "Si O2"
_cell_formula_units_Z 64
_cell_length_a 24.397734
_cell_length_b 8.549714
_cell_length_c 15.881390
_cell_angle_alpha 90.000000
_cell_angle_beta 90.000000
_cell_angle_gamma 90.000000
_cell_volume 3312.757075
_symmetry_space_group_name_H-M "I 2 2 2"
_symmetry_group_IT_number 23
_symmetry_cell_setting 'orthorhombic'
loop_
_space_group_symop_operation_xyz
x,y,z
-x,-y,z
x,-y,-z
-x,y,-z
1/2+x,1/2+y,1/2+z
1/2-x,1/2-y,1/2+z
1/2+x,1/2-y,1/2-z
1/2-x,1/2+y,1/2-z
loop_
_atom_site_type_symbol
_atom_site_label
_atom_site_fract_x
_atom_site_fract_y
_atom_site_fract_z
Si Si1 0.249484 0.561028 0.845320
Si Si2 0.369281 0.437586 0.590989
Si Si3 0.632579 0.561515 0.090264
Si Si4 0.561607 0.937941 0.251894
Si Si5 0.630719 0.062414 0.409012
Si Si6 0.367421 0.061515 0.090264
Si Si7 0.750516 0.938972 0.154680
Si Si8 0.938393 0.062059 0.248106
O O1 0.305022 0.508204 0.891234
O O2 0.193379 0.510375 0.890054
O O3 0.249972 0.750000 0.843146
O O4 0.250000 0.500000 0.750000
O O5 0.386486 0.500000 0.500000
O O6 0.370745 0.250000 0.590976
O O7 0.306621 0.489625 0.609947
O O8 0.406982 0.500050 0.666027
O O9 0.632455 0.750000 0.088445
O O10 0.594739 0.511271 0.168270
O O11 0.614012 0.500000 0.000000
O O12 0.594739 0.988729 0.168271
O O13 0.561505 0.750000 0.254112
O O14 0.500000 0.000000 0.249676
O O15 0.593018 0.999950 0.333973
O O16 0.613513 0.000000 0.500000
O O17 0.305022 0.008204 0.108766
O O18 0.385988 0.000000 0.000000
O O19 0.000000 0.000000 0.250325
#
# Coordination Sequence:
#
# PCOD9330410 Si02
#       8
#     8   8   8   8   8   8   8   8
#     4  10  20  36  60  91 124 159 197 241 297 358
#     4  11  23  39  63  93 124 160 200 245 301 361
#     4  10  22  39  61  90 123 159 198 244 297 354
#     4  11  24  43  64  87 120 158 205 255 301 355
#     4  11  23  39  63  93 124 160 200 245 301 361
#     4  10  22  39  61  90 123 159 198 244 297 354
#     4  10  20  36  60  91 124 159 197 241 297 358
#     4  11  24  43  64  87 120 158 205 255 301 355
#
# _framework density 19.319254000000001
#
# number of rings (size 3 to 8) (size 9 to 14) (size 15 to 20)
#    0.000    1.500    2.500    2.250    0.000    5.000 
#    0.000    5.000    0.000    0.000    0.000    0.000 
#    0.000    0.000    0.000    0.000    0.000    0.000 
#
# Total GULP energy -178890.424243 kJ/mol
# GULP energy per Si atom -5590.325758 kJ/mol
# Density = 1.927528 g / cm^3
# Si number density = 19.319254 Si / 1000 Ang^3
#
#
#
# Elastic Constant Matrix: (Units=GPa)
#
#
# Indices 1 2 3 4 5 6 
#
# 1 159.5567 35.6645 91.4460 0.0000 0.0000 0.0000
# 2 35.6645 31.6035 36.0897 0.0000 0.0000 0.0000
# 3 91.4460 36.0897 204.5044 0.0000 0.0000 0.0000
# 4 0.0000 0.0000 0.0000 37.9337 0.0000 0.0000
# 5 0.0000 0.0000 0.0000 0.0000 -7.5439 0.0000
# 6 0.0000 0.0000 0.0000 0.0000 0.0000 7.3557
#
#
#
# Elastic Compliance Matrix: (Units=1/GPa)
#
#
# Indices 1 2 3 4 5 6 
#
# 1 0.009657 -0.007472 -0.002999 0.000000 0.000000 0.000000
# 2 -0.007472 0.045410 -0.004672 0.000000 0.000000 0.000000
# 3 -0.002999 -0.004672 0.007056 0.000000 0.000000 0.000000
# 4 0.000000 0.000000 0.000000 0.026362 0.000000 0.000000
# 5 0.000000 0.000000 0.000000 0.000000 -0.132557 0.000000
# 6 0.000000 0.000000 0.000000 0.000000 0.000000 0.135949
#
#
# Mechanical properties :
#
#
# Convention : Reuss Voigt Hill
#
# Bulk Modulus (GPa) = 31.41269 80.22946 55.82108
# Shear Modulus (GPa) = 37.65746 23.04672 30.35209
#
# Velocity S-wave (km/s) = 4.41979 3.45764 3.96799
# Velocity P-wave (km/s) = 6.50700 7.58675 7.06753
#
# Compressibility (1/GPa) = 0.03183426
#
# Stress axis : x y z
#
# Youngs Moduli (GPa) = 103.55605 22.02147 141.73088
#
# Poissons Ratio (x) = 0.16455 0.42510
# Poissons Ratio (y) = 0.77380 0.66223
# Poissons Ratio (z) = 0.31060 0.10289
#
# Static dielectric constant tensor:
#      x y z
#    x 1.669320 0.000000 0.000000 
#    y 0.000000 1.668020 0.000000 
#    z 0.000000 0.000000 1.639680 
# 
# From -- ./inp_files/22618.got.cif
#   From: 2010.05.17/outbox.cif.g08.bks.cpg/sg23_12_cif.got.tgz:22618.got - 2010.06.04 12:02:01.
