data_PCOD9330684
_publ_section_title
;
Structure prediction by ZEFSAII (Michael W. Deem and Ramdas Pophale) SiO2 
 PCOD9330684
Probable space group: I 2 2 2
;
_chemical_formula_sum "Si O2"
_cell_formula_units_Z 40
_cell_length_a 8.167970
_cell_length_b 8.485041
_cell_length_c 23.655647
_cell_angle_alpha 90.000000
_cell_angle_beta 90.000000
_cell_angle_gamma 90.000000
_cell_volume 1639.467870
_symmetry_space_group_name_H-M "I 2 2 2"
_symmetry_group_IT_number 23
_symmetry_cell_setting 'orthorhombic'
loop_
_space_group_symop_operation_xyz
x,y,z
-x,-y,z
x,-y,-z
-x,y,-z
1/2+x,1/2+y,1/2+z
1/2-x,1/2-y,1/2+z
1/2+x,1/2-y,1/2-z
1/2-x,1/2+y,1/2-z
loop_
_atom_site_type_symbol
_atom_site_label
_atom_site_fract_x
_atom_site_fract_y
_atom_site_fract_z
Si Si1 0.898450 0.163323 0.635992
Si Si2 0.302810 0.997381 0.732858
Si Si3 0.688581 0.674703 0.985249
Si Si4 0.228529 0.304871 0.665763
Si Si5 0.911276 0.833933 0.054614
O O1 0.784720 0.124788 0.689499
O O2 0.790233 0.202721 0.581363
O O3 0.041567 0.290619 0.644426
O O4 0.000000 0.000000 0.623699
O O5 0.248391 0.959932 0.796768
O O6 0.500000 0.000000 0.729759
O O7 0.241097 0.163615 0.710401
O O8 0.758161 0.500000 0.000000
O O9 0.500000 0.659184 0.000000
O O10 0.737718 0.821879 0.024147
O O11 0.363411 0.276227 0.617019
O O12 0.000000 0.000000 0.060381
O O13 0.000000 0.749198 0.000000
#
# Coordination Sequence:
#
# PCOD9330684 Si02
#       5
#     8   8   8   8   8
#     4  10  20  40  71 106 145 191 250 318 399 476
#     4  11  25  43  72 114 142 198 257 323 401 462
#     4  11  19  42  78 111 143 193 260 328 392 478
#     4  11  24  48  71 103 153 202 253 319 390 483
#     4  11  27  49  69 111 156 207 256 321 405 460
#
# _framework density 24.398160000000001
#
# number of rings (size 3 to 8) (size 9 to 14) (size 15 to 20)
#    0.000    1.200    4.000    2.400    2.800    4.400 
#   10.800    2.000    0.000    0.000    0.000    0.000 
#    0.000    0.000    0.000    0.000    0.000    0.000 
#
# Total GULP energy -111506.918386 kJ/mol
# GULP energy per Si atom -5575.345919 kJ/mol
# Density = 2.434263 g / cm^3
# Si number density = 24.398160 Si / 1000 Ang^3
#
#
#
# Elastic Constant Matrix: (Units=GPa)
#
#
# Indices 1 2 3 4 5 6 
#
# 1 52.3856 15.8696 22.6034 0.0000 0.0000 0.0000
# 2 15.8696 76.6876 36.5650 0.0000 0.0000 0.0000
# 3 22.6034 36.5650 176.9498 0.0000 0.0000 0.0000
# 4 0.0000 0.0000 0.0000 20.5093 0.0000 0.0000
# 5 0.0000 0.0000 0.0000 0.0000 5.7466 0.0000
# 6 0.0000 0.0000 0.0000 0.0000 0.0000 20.5979
#
#
#
# Elastic Compliance Matrix: (Units=1/GPa)
#
#
# Indices 1 2 3 4 5 6 
#
# 1 0.020971 -0.003397 -0.001977 0.000000 0.000000 0.000000
# 2 -0.003397 0.015015 -0.002669 0.000000 0.000000 0.000000
# 3 -0.001977 -0.002669 0.006455 0.000000 0.000000 0.000000
# 4 0.000000 0.000000 0.000000 0.048758 0.000000 0.000000
# 5 0.000000 0.000000 0.000000 0.000000 0.174017 0.000000
# 6 0.000000 0.000000 0.000000 0.000000 0.000000 0.048549
#
#
# Mechanical properties :
#
#
# Convention : Reuss Voigt Hill
#
# Bulk Modulus (GPa) = 37.94157 50.67767 44.30962
# Shear Modulus (GPa) = 14.76506 24.76976 19.76741
#
# Velocity S-wave (km/s) = 2.46269 3.18973 2.84949
# Velocity P-wave (km/s) = 4.86531 5.86362 5.38763
#
# Compressibility (1/GPa) = 0.02635631
#
# Stress axis : x y z
#
# Youngs Moduli (GPa) = 47.68412 66.59814 154.91066
#
# Poissons Ratio (x) = 0.22625 0.30624
# Poissons Ratio (y) = 0.16199 0.41343
# Poissons Ratio (z) = 0.09426 0.17774
#
# Static dielectric constant tensor:
#      x y z
#    x 2.165590 0.000000 0.000000 
#    y 0.000000 2.121480 0.000000 
#    z 0.000000 0.000000 2.076490 
# 
# From -- ./inp_files/27877.got.cif
#   From: 2010.05.17/outbox.cif.g08.bks.cpg/sg23_14_cif.got.tgz:27877.got - 2010.06.04 12:02:01.
