data_PCOD9330415
_publ_section_title
;
Structure prediction by ZEFSAII (Michael W. Deem and Ramdas Pophale) SiO2 
 PCOD9330415
Probable space group: I 2 2 2
;
_chemical_formula_sum "Si O2"
_cell_formula_units_Z 52
_cell_length_a 12.202480
_cell_length_b 27.733836
_cell_length_c 7.522699
_cell_angle_alpha 90.000000
_cell_angle_beta 90.000000
_cell_angle_gamma 90.000000
_cell_volume 2545.843675
_symmetry_space_group_name_H-M "I 2 2 2"
_symmetry_group_IT_number 23
_symmetry_cell_setting 'orthorhombic'
loop_
_space_group_symop_operation_xyz
x,y,z
-x,-y,z
x,-y,-z
-x,y,-z
1/2+x,1/2+y,1/2+z
1/2-x,1/2-y,1/2+z
1/2+x,1/2-y,1/2-z
1/2-x,1/2+y,1/2-z
loop_
_atom_site_type_symbol
_atom_site_label
_atom_site_fract_x
_atom_site_fract_y
_atom_site_fract_z
Si Si1 0.244053 0.920156 0.532780
Si Si2 0.049664 0.548191 0.196809
Si Si3 0.881219 0.373808 0.710907
Si Si4 0.510145 0.780305 0.212860
Si Si5 0.000000 0.898350 0.500000
Si Si6 0.783395 0.341305 0.334253
Si Si7 0.958678 0.174863 0.822008
O O1 0.321969 0.957462 0.643743
O O2 0.302100 0.900979 0.351433
O O3 0.255938 0.877788 0.676638
O O4 0.114848 0.928038 0.498213
O O5 0.000000 0.500000 0.280298
O O6 0.994159 0.594255 0.293386
O O7 0.000000 0.553060 0.000000
O O8 0.824018 0.366047 0.518721
O O9 0.919174 0.319998 0.770706
O O10 0.625501 0.805721 0.238522
O O11 0.508438 0.727502 0.292440
O O12 0.500000 0.774946 0.000000
O O13 0.988986 0.861510 0.334936
O O14 0.668757 0.315057 0.357642
O O15 0.000000 0.150391 0.000000
#
# Coordination Sequence:
#
# PCOD9330415 Si02
#       7
#     8   8   8   8   4   8   8
#     4  10  20  36  61  79 116 158 187 239 299 353
#     4   9  18  34  62  95 119 146 193 243 301 364
#     4  10  20  37  57  82 114 157 187 242 306 348
#     4  10  21  36  52  77 113 149 200 248 293 344
#     4  10  22  40  52  83 116 158 203 238 284 358
#     4  10  22  36  54  79 113 149 200 243 288 356
#     4  11  23  36  53  78 110 157 207 246 284 344
#
# _framework density 20.425449
#
# number of rings (size 3 to 8) (size 9 to 14) (size 15 to 20)
#    0.000    2.000    2.308    0.923    2.154    3.692 
#    0.000    1.538    0.000    7.385    0.000    0.000 
#    0.000   11.077    0.000    0.000    0.000    0.000 
#
# Total GULP energy -144734.627424 kJ/mol
# GULP energy per Si atom -5566.716439 kJ/mol
# Density = 2.037896 g / cm^3
# Si number density = 20.425449 Si / 1000 Ang^3
#
#
#
# Elastic Constant Matrix: (Units=GPa)
#
#
# Indices 1 2 3 4 5 6 
#
# 1 146.7973 10.8249 25.4448 -0.0003 0.0001 0.0001
# 2 10.8249 47.8622 11.2651 0.0022 0.0000 0.0001
# 3 25.4448 11.2651 82.4796 -0.0182 0.0014 -0.0003
# 4 -0.0003 0.0022 -0.0182 -59.1842 0.0029 -0.0016
# 5 0.0001 0.0000 0.0014 0.0029 26.6190 -0.0001
# 6 0.0001 0.0001 -0.0003 -0.0016 -0.0001 13.6395
#
#
#
# Elastic Compliance Matrix: (Units=1/GPa)
#
#
# Indices 1 2 3 4 5 6 
#
# 1 0.007258 -0.001152 -0.002082 0.000001 0.000000 0.000000
# 2 -0.001152 0.021770 -0.002618 0.000002 0.000000 0.000000
# 3 -0.002082 -0.002618 0.013124 -0.000004 -0.000001 0.000000
# 4 0.000001 0.000002 -0.000004 -0.016896 0.000002 -0.000002
# 5 0.000000 0.000000 -0.000001 0.000002 0.037567 0.000000
# 6 0.000000 0.000000 0.000000 -0.000002 0.000000 0.073317
#
#
# Mechanical properties :
#
#
# Convention : Reuss Voigt Hill
#
# Bulk Modulus (GPa) = 32.84173 41.35651 37.09912
# Shear Modulus (GPa) = 31.64722 11.52180 21.58451
#
# Velocity S-wave (km/s) = 3.94051 2.37764 3.25429
# Velocity P-wave (km/s) = 6.06772 5.27532 5.68535
#
# Compressibility (1/GPa) = 0.03044906
#
# Stress axis : x y z
#
# Youngs Moduli (GPa) = 137.78160 45.93484 76.19625
#
# Poissons Ratio (x) = 0.05289 0.15862
# Poissons Ratio (y) = 0.15866 0.19949
# Poissons Ratio (z) = 0.28683 0.12026
#
# Static dielectric constant tensor:
#      x y z
#    x 1.856630 0.000000 0.000000 
#    y 0.000000 1.800010 0.000000 
#    z 0.000000 0.000000 1.737410 
# 
# From -- ./inp_files/8828.got.cif
#   From: 2010.05.17/outbox.cif.g08.bks.cpg/sg23_5_cif.got.tgz:8828.got - 2010.06.04 12:02:01.
