data_PCOD9330565
_publ_section_title
;
Structure prediction by ZEFSAII (Michael W. Deem and Ramdas Pophale) SiO2 
 PCOD9330565
Probable space group: I 2 2 2
;
_chemical_formula_sum "Si O2"
_cell_formula_units_Z 36
_cell_length_a 17.266363
_cell_length_b 14.990542
_cell_length_c 7.681738
_cell_angle_alpha 90.000000
_cell_angle_beta 90.000000
_cell_angle_gamma 90.000000
_cell_volume 1988.280683
_symmetry_space_group_name_H-M "I 2 2 2"
_symmetry_group_IT_number 23
_symmetry_cell_setting 'orthorhombic'
loop_
_space_group_symop_operation_xyz
x,y,z
-x,-y,z
x,-y,-z
-x,y,-z
1/2+x,1/2+y,1/2+z
1/2-x,1/2-y,1/2+z
1/2+x,1/2-y,1/2-z
1/2-x,1/2+y,1/2-z
loop_
_atom_site_type_symbol
_atom_site_label
_atom_site_fract_x
_atom_site_fract_y
_atom_site_fract_z
Si Si1 0.814477 0.500000 0.500000
Si Si2 0.907301 0.822781 0.201936
Si Si3 0.407300 0.677220 0.701935
Si Si4 0.592918 0.816724 1.000000
Si Si5 0.812800 1.000000 0.701960
O O1 0.865508 0.588954 0.499998
O O2 0.759510 0.499999 0.331283
O O3 0.886147 0.742395 0.330926
O O4 0.000001 0.836904 0.218028
O O5 0.863698 0.912415 0.257547
O O6 0.889932 0.803031 0.000001
O O7 0.386146 0.757606 0.830924
O O8 0.363696 0.587587 0.757547
O O9 0.500000 0.828631 0.000000
O O10 0.790406 0.000000 0.500000
#
# Coordination Sequence:
#
# PCOD9330565 Si02
#       5
#     4   8   8   8   8
#     4  12  27  42  57  86 130 162 196 244 297 356
#     4  10  20  38  65  93 120 153 199 250 297 350
#     4  10  20  38  65  93 120 153 199 250 297 350
#     4  10  23  43  66  86 112 161 210 247 287 347
#     4  12  23  38  58  95 127 159 190 239 311 363
#
# _framework density 18.106095
#
# number of rings (size 3 to 8) (size 9 to 14) (size 15 to 20)
#    0.000    1.333    4.444    1.000    0.000    6.222 
#    0.000    0.000    0.000    6.667    0.000    0.000 
#    0.000    0.000    0.000    0.000    0.000    0.000 
#
# Total GULP energy -100606.916682 kJ/mol
# GULP energy per Si atom -5589.273149 kJ/mol
# Density = 1.806489 g / cm^3
# Si number density = 18.106095 Si / 1000 Ang^3
#
#
#
# Elastic Constant Matrix: (Units=GPa)
#
#
# Indices 1 2 3 4 5 6 
#
# 1 45.0178 81.6860 64.7367 0.0000 0.0000 0.0000
# 2 81.6860 205.5211 104.2152 0.0000 0.0000 0.0000
# 3 64.7367 104.2152 201.1228 0.0000 0.0000 0.0000
# 4 0.0000 0.0000 0.0000 19.9606 0.0000 0.0000
# 5 0.0000 0.0000 0.0000 0.0000 19.8434 0.0000
# 6 0.0000 0.0000 0.0000 0.0000 0.0000 -106.5557
#
#
#
# Elastic Compliance Matrix: (Units=1/GPa)
#
#
# Indices 1 2 3 4 5 6 
#
# 1 0.112551 -0.035760 -0.017698 0.000000 0.000000 0.000000
# 2 -0.035760 0.017962 0.002203 0.000000 0.000000 0.000000
# 3 -0.017698 0.002203 0.009527 0.000000 0.000000 0.000000
# 4 0.000000 0.000000 0.000000 0.050099 0.000000 0.000000
# 5 0.000000 0.000000 0.000000 0.000000 0.050395 0.000000
# 6 0.000000 0.000000 0.000000 0.000000 0.000000 -0.009385
#
#
# Mechanical properties :
#
#
# Convention : Reuss Voigt Hill
#
# Bulk Modulus (GPa) = 26.64522 105.88193 66.26358
# Shear Modulus (GPa) = 14.44386 0.05124 7.24755
#
# Velocity S-wave (km/s) = 2.82748 0.16841 2.00288
# Velocity P-wave (km/s) = 5.04060 7.65790 6.48271
#
# Compressibility (1/GPa) = 0.03753018
#
# Stress axis : x y z
#
# Youngs Moduli (GPa) = 8.88485 55.67428 104.96511
#
# Poissons Ratio (x) = 1.99092 1.85766
# Poissons Ratio (y) = 0.31772 -0.23126
# Poissons Ratio (z) = 0.15724 -0.12266
#
# Static dielectric constant tensor:
#      x y z
#    x 1.600290 0.000000 0.000000 
#    y 0.000000 1.570750 0.000000 
#    z 0.000000 0.000000 1.622840 
# 
# From -- ./inp_files/9497.got.cif
#   From: 2010.05.17/outbox.cif.g08.bks.cpg/sg23_5_cif.got.tgz:9497.got - 2010.06.04 12:02:01.
