data_PCOD9330147
_publ_section_title
;
Structure prediction by ZEFSAII (Michael W. Deem and Ramdas Pophale) SiO2 
 PCOD9330147
Probable space group: I 2 2 2
;
_chemical_formula_sum "Si O2"
_cell_formula_units_Z 48
_cell_length_a 7.535734
_cell_length_b 18.627171
_cell_length_c 15.015413
_cell_angle_alpha 90.000000
_cell_angle_beta 90.000000
_cell_angle_gamma 90.000000
_cell_volume 2107.704601
_symmetry_space_group_name_H-M "I 2 2 2"
_symmetry_group_IT_number 23
_symmetry_cell_setting 'orthorhombic'
loop_
_space_group_symop_operation_xyz
x,y,z
-x,-y,z
x,-y,-z
-x,y,-z
1/2+x,1/2+y,1/2+z
1/2-x,1/2-y,1/2+z
1/2+x,1/2-y,1/2-z
1/2-x,1/2+y,1/2-z
loop_
_atom_site_type_symbol
_atom_site_label
_atom_site_fract_x
_atom_site_fract_y
_atom_site_fract_z
Si Si1 0.640713 0.396659 0.344082
Si Si2 0.360012 0.754088 0.419578
Si Si3 0.542215 0.918200 0.874009
Si Si4 0.716439 0.453453 0.153327
Si Si5 0.000000 0.000000 0.000000
Si Si6 0.382829 0.099829 0.680304
Si Si7 0.500000 0.198047 0.000000
Si Si8 0.500000 0.500000 0.000000
O O1 0.572225 0.317371 0.367175
O O2 0.615387 0.430035 0.244966
O O3 0.597203 0.448608 0.427915
O O4 0.852184 0.387426 0.347557
O O5 0.500000 0.767290 0.500000
O O6 0.351257 0.821001 0.353156
O O7 0.157843 0.742463 0.454979
O O8 0.652998 0.915297 0.784791
O O9 0.613022 0.861066 0.942996
O O10 0.500000 0.000000 0.901060
O O11 0.762867 0.537665 0.140843
O O12 0.607345 0.444695 0.063991
O O13 0.910638 0.417581 0.158880
#
# Coordination Sequence:
#
# PCOD9330147 Si02
#       8
#     8   8   8   8   2   8   4   2
#     4  10  22  41  66 104 139 182 241 296 376 438
#     4  11  25  46  70 107 147 191 232 303 377 434
#     4  10  19  40  73 102 133 182 246 306 353 427
#     4  10  23  46  70 101 134 191 253 299 351 429
#     4  12  22  36  66 102 152 182 220 312 372 452
#     4  10  22  46  73  95 140 190 242 296 365 435
#     4  10  25  43  68 114 142 186 244 292 376 446
#     4  12  26  40  64 106 138 178 242 322 342 408
#
# _framework density 22.773589000000001
#
# number of rings (size 3 to 8) (size 9 to 14) (size 15 to 20)
#    0.000    1.667    4.167    0.750    7.000    1.333 
#   12.000    0.000    0.000    0.000    0.000    0.000 
#    0.000    0.000    0.000    0.000    0.000    0.000 
#
# Total GULP energy -133751.564244 kJ/mol
# GULP energy per Si atom -5572.981843 kJ/mol
# Density = 2.272176 g / cm^3
# Si number density = 22.773589 Si / 1000 Ang^3
#
#
#
# Elastic Constant Matrix: (Units=GPa)
#
#
# Indices 1 2 3 4 5 6 
#
# 1 58.1308 19.2465 35.9626 0.0000 0.0000 0.0000
# 2 19.2465 135.5210 44.2027 0.0000 0.0000 0.0000
# 3 35.9626 44.2027 143.8787 0.0000 0.0000 0.0000
# 4 0.0000 0.0000 0.0000 34.6252 0.0000 0.0000
# 5 0.0000 0.0000 0.0000 0.0000 29.9803 0.0000
# 6 0.0000 0.0000 0.0000 0.0000 0.0000 9.6010
#
#
#
# Elastic Compliance Matrix: (Units=1/GPa)
#
#
# Indices 1 2 3 4 5 6 
#
# 1 0.020580 -0.001384 -0.004719 0.000000 0.000000 0.000000
# 2 -0.001384 0.008294 -0.002202 0.000000 0.000000 0.000000
# 3 -0.004719 -0.002202 0.008806 0.000000 0.000000 0.000000
# 4 0.000000 0.000000 0.000000 0.028881 0.000000 0.000000
# 5 0.000000 0.000000 0.000000 0.000000 0.033355 0.000000
# 6 0.000000 0.000000 0.000000 0.000000 0.000000 0.104156
#
#
# Mechanical properties :
#
#
# Convention : Reuss Voigt Hill
#
# Bulk Modulus (GPa) = 47.45923 59.59491 53.52707
# Shear Modulus (GPa) = 21.95827 30.71589 26.33708
#
# Velocity S-wave (km/s) = 3.10852 3.67652 3.40439
# Velocity P-wave (km/s) = 5.81109 6.65189 6.24565
#
# Compressibility (1/GPa) = 0.02107072
#
# Stress axis : x y z
#
# Youngs Moduli (GPa) = 48.59072 120.57337 113.55424
#
# Poissons Ratio (x) = 0.16682 0.53586
# Poissons Ratio (y) = 0.06723 0.25007
# Poissons Ratio (z) = 0.22930 0.26552
#
# Static dielectric constant tensor:
#      x y z
#    x 1.927840 0.000000 0.000000 
#    y 0.000000 1.843240 0.000000 
#    z 0.000000 0.000000 2.192070 
# 
# From -- ./inp_files/20060.got.cif
#   From: 2010.05.17/outbox.cif.g08.bks.cpg/sg23_11_cif.got.tgz:20060.got - 2010.06.04 12:02:01.
