data_PCOD9330297
_publ_section_title
;
Structure prediction by ZEFSAII (Michael W. Deem and Ramdas Pophale) SiO2 
 PCOD9330297
Probable space group: I 2 2 2
;
_chemical_formula_sum "Si O2"
_cell_formula_units_Z 36
_cell_length_a 22.148497
_cell_length_b 8.869265
_cell_length_c 8.951913
_cell_angle_alpha 90.000000
_cell_angle_beta 90.000000
_cell_angle_gamma 90.000000
_cell_volume 1758.521750
_symmetry_space_group_name_H-M "I 2 2 2"
_symmetry_group_IT_number 23
_symmetry_cell_setting 'orthorhombic'
loop_
_space_group_symop_operation_xyz
x,y,z
-x,-y,z
x,-y,-z
-x,y,-z
1/2+x,1/2+y,1/2+z
1/2-x,1/2-y,1/2+z
1/2+x,1/2-y,1/2-z
1/2-x,1/2+y,1/2-z
loop_
_atom_site_type_symbol
_atom_site_label
_atom_site_fract_x
_atom_site_fract_y
_atom_site_fract_z
Si Si1 0.300033 0.052540 0.168877
Si Si2 0.916231 0.365597 0.750592
Si Si3 0.188873 0.090383 0.659707
Si Si4 0.000000 0.500000 0.000000
Si Si5 0.932311 0.026020 0.679562
Si Si6 0.500000 0.000000 0.000000
O O1 0.297644 0.232758 0.157792
O O2 0.357434 0.972991 0.250300
O O3 0.239181 0.991477 0.242643
O O4 0.305457 0.000000 0.000000
O O5 0.957142 0.400816 0.893873
O O6 0.906274 0.188523 0.727175
O O7 0.957026 0.404901 0.606470
O O8 0.189015 0.000000 0.500000
O O9 0.121144 0.084476 0.726532
O O10 0.936892 0.000000 0.500000
O O11 0.000000 0.000000 0.738960
#
# Coordination Sequence:
#
# PCOD9330297 Si02
#       6
#     8   8   8   2   8   2
#     4  12  24  44  71  99 134 180 234 283 344 411
#     4  11  23  42  67  99 135 182 227 285 343 416
#     4  11  25  43  67  99 136 178 227 287 348 409
#     4  10  28  42  66  98 152 178 228 266 360 402
#     4  10  21  39  68  99 134 171 226 283 342 404
#     4  10  20  34  70  94 124 166 236 270 332 394
#
# _framework density 20.471738999999999
#
# number of rings (size 3 to 8) (size 9 to 14) (size 15 to 20)
#    0.000    1.111    1.111    6.667    7.778    0.000 
#    4.000    0.556    0.000    0.000    0.000    0.000 
#    0.000    0.000    0.000    0.000    0.000    0.000 
#
# Total GULP energy -100466.559464 kJ/mol
# GULP energy per Si atom -5581.475526 kJ/mol
# Density = 2.042514 g / cm^3
# Si number density = 20.471739 Si / 1000 Ang^3
#
#
#
# Elastic Constant Matrix: (Units=GPa)
#
#
# Indices 1 2 3 4 5 6 
#
# 1 155.2108 41.8835 31.6428 0.0000 0.0000 0.0000
# 2 41.8835 167.5929 22.9015 0.0000 0.0000 0.0000
# 3 31.6428 22.9015 69.8309 0.0000 0.0000 0.0000
# 4 0.0000 0.0000 0.0000 4.0037 0.0000 0.0000
# 5 0.0000 0.0000 0.0000 0.0000 134.9478 0.0000
# 6 0.0000 0.0000 0.0000 0.0000 0.0000 30.3225
#
#
#
# Elastic Compliance Matrix: (Units=1/GPa)
#
#
# Indices 1 2 3 4 5 6 
#
# 1 0.007425 -0.001461 -0.002885 0.000000 0.000000 0.000000
# 2 -0.001461 0.006534 -0.001481 0.000000 0.000000 0.000000
# 3 -0.002885 -0.001481 0.016113 0.000000 0.000000 0.000000
# 4 0.000000 0.000000 0.000000 0.249770 0.000000 0.000000
# 5 0.000000 0.000000 0.000000 0.000000 0.007410 0.000000
# 6 0.000000 0.000000 0.000000 0.000000 0.000000 0.032979
#
#
# Mechanical properties :
#
#
# Convention : Reuss Voigt Hill
#
# Bulk Modulus (GPa) = 54.29470 65.05448 59.67459
# Shear Modulus (GPa) = 14.79170 53.60190 34.19680
#
# Velocity S-wave (km/s) = 2.69093 5.12252 4.09154
# Velocity P-wave (km/s) = 6.01948 8.17518 7.17871
#
# Compressibility (1/GPa) = 0.01841800
#
# Stress axis : x y z
#
# Youngs Moduli (GPa) = 134.67161 153.03586 62.05995
#
# Poissons Ratio (x) = 0.22365 0.17907
# Poissons Ratio (y) = 0.19681 0.09190
# Poissons Ratio (z) = 0.38859 0.22661
#
# Static dielectric constant tensor:
#      x y z
#    x 1.766040 0.000000 0.000000 
#    y 0.000000 1.402310 0.000000 
#    z 0.000000 0.000000 1.726240 
# 
# From -- ./inp_files/6761.got.cif
#   From: 2010.05.17/outbox.cif.g08.bks.cpg/sg23_4_cif.got.tgz:6761.got - 2010.06.04 12:02:01.
