data_PCOD9330257
_publ_section_title
;
Structure prediction by ZEFSAII (Michael W. Deem and Ramdas Pophale) SiO2 
 PCOD9330257
Probable space group: I 2 2 2
;
_chemical_formula_sum "Si O2"
_cell_formula_units_Z 40
_cell_length_a 18.723951
_cell_length_b 13.863086
_cell_length_c 8.975289
_cell_angle_alpha 90.000000
_cell_angle_beta 90.000000
_cell_angle_gamma 90.000000
_cell_volume 2329.731409
_symmetry_space_group_name_H-M "I 2 2 2"
_symmetry_group_IT_number 23
_symmetry_cell_setting 'orthorhombic'
loop_
_space_group_symop_operation_xyz
x,y,z
-x,-y,z
x,-y,-z
-x,y,-z
1/2+x,1/2+y,1/2+z
1/2-x,1/2-y,1/2+z
1/2+x,1/2-y,1/2-z
1/2-x,1/2+y,1/2-z
loop_
_atom_site_type_symbol
_atom_site_label
_atom_site_fract_x
_atom_site_fract_y
_atom_site_fract_z
Si Si1 0.208512 0.388880 0.178545
Si Si2 0.000000 0.113415 0.821686
Si Si3 0.360620 0.293078 0.177559
Si Si4 0.291488 0.888881 0.678546
Si Si5 0.639380 0.293078 0.177559
O O1 0.290281 0.357643 0.210927
O O2 0.196753 0.499999 0.219961
O O3 0.158180 0.313127 0.261810
O O4 0.198628 0.379217 1.000000
O O5 0.070299 0.162989 0.755162
O O6 0.929702 0.162989 0.755160
O O7 0.000000 0.000000 0.782930
O O8 0.000000 0.122377 0.000000
O O9 0.341820 0.186872 0.238188
O O10 0.370310 0.291382 0.000000
O O11 0.209719 0.857644 0.710927
#
# Coordination Sequence:
#
# PCOD9330257 Si02
#       5
#     8   8   8   8   8
#     4   9  18  34  55  78 106 140 175 212 257 308
#     4  11  23  37  54  77 106 139 173 212 260 311
#     4  10  20  34  54  80 108 137 173 216 259 307
#     4   9  18  34  55  78 106 140 175 212 257 308
#     4  10  20  34  54  80 108 137 173 216 259 307
#
# _framework density 17.169360999999999
#
# number of rings (size 3 to 8) (size 9 to 14) (size 15 to 20)
#    0.000    2.200    0.000    3.000    0.000    5.600 
#    0.000    1.000    0.000    6.000    0.000    0.000 
#    0.000    0.000    0.000    0.000    0.000    0.000 
#
# Total GULP energy -111668.718885 kJ/mol
# GULP energy per Si atom -5583.435944 kJ/mol
# Density = 1.713028 g / cm^3
# Si number density = 17.169361 Si / 1000 Ang^3
#
#
#
# Elastic Constant Matrix: (Units=GPa)
#
#
# Indices 1 2 3 4 5 6 
#
# 1 135.2866 94.1731 70.3106 0.0000 0.0000 0.0000
# 2 94.1731 177.9521 74.0395 0.0000 0.0000 0.0000
# 3 70.3106 74.0395 60.4272 0.0000 0.0000 0.0000
# 4 0.0000 0.0000 0.0000 26.7855 0.0000 0.0000
# 5 0.0000 0.0000 0.0000 0.0000 27.5547 0.0000
# 6 0.0000 0.0000 0.0000 0.0000 0.0000 16.3464
#
#
#
# Elastic Compliance Matrix: (Units=1/GPa)
#
#
# Indices 1 2 3 4 5 6 
#
# 1 0.018962 -0.001744 -0.019926 0.000000 0.000000 0.000000
# 2 -0.001744 0.011624 -0.012213 0.000000 0.000000 0.000000
# 3 -0.019926 -0.012213 0.054698 0.000000 0.000000 0.000000
# 4 0.000000 0.000000 0.000000 0.037334 0.000000 0.000000
# 5 0.000000 0.000000 0.000000 0.000000 0.036291 0.000000
# 6 0.000000 0.000000 0.000000 0.000000 0.000000 0.061176
#
#
# Mechanical properties :
#
#
# Convention : Reuss Voigt Hill
#
# Bulk Modulus (GPa) = 57.08600 94.52358 75.80479
# Shear Modulus (GPa) = 17.02478 23.14684 20.08581
#
# Velocity S-wave (km/s) = 3.15235 3.67570 3.42404
# Velocity P-wave (km/s) = 6.82427 8.55497 7.73816
#
# Compressibility (1/GPa) = 0.01751743
#
# Stress axis : x y z
#
# Youngs Moduli (GPa) = 52.73807 86.02999 18.28218
#
# Poissons Ratio (x) = 0.15004 0.36429
# Poissons Ratio (y) = 0.09198 0.22328
# Poissons Ratio (z) = 1.05086 1.05068
#
# Static dielectric constant tensor:
#      x y z
#    x 1.548880 0.000000 0.000000 
#    y 0.000000 1.564240 0.000000 
#    z 0.000000 0.000000 1.567530 
# 
# From -- ./inp_files/8182.got.cif
#   From: 2010.05.17/outbox.cif.g08.bks.cpg/sg23_5_cif.got.tgz:8182.got - 2010.06.04 12:02:01.
