data_PCOD9330351
_publ_section_title
;
Structure prediction by ZEFSAII (Michael W. Deem and Ramdas Pophale) SiO2 
 PCOD9330351
Probable space group: I 2 2 2
;
_chemical_formula_sum "Si O2"
_cell_formula_units_Z 52
_cell_length_a 14.066307
_cell_length_b 19.178426
_cell_length_c 8.033234
_cell_angle_alpha 90.000000
_cell_angle_beta 90.000000
_cell_angle_gamma 90.000000
_cell_volume 2167.122547
_symmetry_space_group_name_H-M "I 2 2 2"
_symmetry_group_IT_number 23
_symmetry_cell_setting 'orthorhombic'
loop_
_space_group_symop_operation_xyz
x,y,z
-x,-y,z
x,-y,-z
-x,y,-z
1/2+x,1/2+y,1/2+z
1/2-x,1/2-y,1/2+z
1/2+x,1/2-y,1/2-z
1/2-x,1/2+y,1/2-z
loop_
_atom_site_type_symbol
_atom_site_label
_atom_site_fract_x
_atom_site_fract_y
_atom_site_fract_z
Si Si1 0.617421 0.628503 0.368031
Si Si2 0.975900 0.623211 0.303643
Si Si3 0.965781 0.214598 0.688687
Si Si4 0.775062 0.620681 0.125917
Si Si5 0.798186 0.000000 0.000000
Si Si6 0.223302 0.786024 0.867598
Si Si7 0.673125 0.083275 0.739235
O O1 0.520909 0.660825 0.305292
O O2 0.678748 0.598666 0.214983
O O3 0.628767 0.564384 0.490146
O O4 0.675920 0.689582 0.459734
O O5 0.987492 0.705493 0.260921
O O6 0.059571 0.578070 0.223173
O O7 0.000000 0.615694 0.500000
O O8 0.869193 0.607611 0.240086
O O9 0.000000 0.205530 0.500000
O O10 0.854801 0.204759 0.722224
O O11 0.760236 0.704418 0.114675
O O12 0.787705 0.587182 0.946706
O O13 0.725964 0.972871 0.145026
O O14 0.306243 0.840777 0.826881
#
# Coordination Sequence:
#
# PCOD9330351 Si02
#       7
#     8   8   8   8   4   8   8
#     4  11  22  40  59  83 122 162 197 243 295 355
#     4  10  20  36  61  95 127 151 185 242 313 372
#     4  10  20  35  61  96 124 149 190 246 308 369
#     4  11  21  35  64  95 119 151 197 250 309 368
#     4  10  26  44  60  78 114 170 214 244 292 350
#     4  10  20  35  60  95 125 154 188 242 315 370
#     4  11  22  40  60  86 123 161 202 248 293 356
#
# _framework density 23.994951
#
# number of rings (size 3 to 8) (size 9 to 14) (size 15 to 20)
#    0.000    1.538    0.000    6.462    0.000    5.538 
#    0.000    9.615    0.000    7.385    0.000    0.000 
#    0.000    0.000    0.000    0.000    0.000    0.000 
#
# Total GULP energy -145401.563227 kJ/mol
# GULP energy per Si atom -5592.367816 kJ/mol
# Density = 2.394034 g / cm^3
# Si number density = 23.994951 Si / 1000 Ang^3
#
#
#
# Elastic Constant Matrix: (Units=GPa)
#
#
# Indices 1 2 3 4 5 6 
#
# 1 87.6626 16.5532 17.3008 0.0000 0.0000 0.0000
# 2 16.5532 71.3404 13.5865 0.0000 0.0000 0.0000
# 3 17.3008 13.5865 93.4798 0.0000 0.0000 0.0000
# 4 0.0000 0.0000 0.0000 22.4619 0.0000 0.0000
# 5 0.0000 0.0000 0.0000 0.0000 40.4946 0.0000
# 6 0.0000 0.0000 0.0000 0.0000 0.0000 28.7285
#
#
#
# Elastic Compliance Matrix: (Units=1/GPa)
#
#
# Indices 1 2 3 4 5 6 
#
# 1 0.012252 -0.002480 -0.001907 0.000000 0.000000 0.000000
# 2 -0.002480 0.014918 -0.001709 0.000000 0.000000 0.000000
# 3 -0.001907 -0.001709 0.011299 0.000000 0.000000 0.000000
# 4 0.000000 0.000000 0.000000 0.044520 0.000000 0.000000
# 5 0.000000 0.000000 0.000000 0.000000 0.024695 0.000000
# 6 0.000000 0.000000 0.000000 0.000000 0.000000 0.034809
#
#
# Mechanical properties :
#
#
# Convention : Reuss Voigt Hill
#
# Bulk Modulus (GPa) = 38.05624 38.59596 38.32610
# Shear Modulus (GPa) = 30.59163 32.00648 31.29905
#
# Velocity S-wave (km/s) = 3.57447 3.65620 3.61557
# Velocity P-wave (km/s) = 5.73850 5.82612 5.78248
#
# Compressibility (1/GPa) = 0.02627690
#
# Stress axis : x y z
#
# Youngs Moduli (GPa) = 81.61939 67.03229 88.50421
#
# Poissons Ratio (x) = 0.16622 0.16879
# Poissons Ratio (y) = 0.20239 0.15128
# Poissons Ratio (z) = 0.15566 0.11458
#
# Static dielectric constant tensor:
#      x y z
#    x 1.921150 0.000000 0.000000 
#    y 0.000000 1.928800 0.000000 
#    z 0.000000 0.000000 1.993810 
# 
# From -- ./inp_files/10166.got.cif
#   From: 2010.05.17/outbox.cif.g08.bks.cpg/sg23_6_cif.got.tgz:10166.got - 2010.06.04 12:02:01.
