data_PCOD9330076
_publ_section_title
;
Structure prediction by ZEFSAII (Michael W. Deem and Ramdas Pophale) SiO2 
 PCOD9330076
Probable space group: I 2 2 2
;
_chemical_formula_sum "Si O2"
_cell_formula_units_Z 40
_cell_length_a 14.037854
_cell_length_b 9.390250
_cell_length_c 14.651459
_cell_angle_alpha 90.000000
_cell_angle_beta 90.000000
_cell_angle_gamma 90.000000
_cell_volume 1931.340066
_symmetry_space_group_name_H-M "I 2 2 2"
_symmetry_group_IT_number 23
_symmetry_cell_setting 'orthorhombic'
loop_
_space_group_symop_operation_xyz
x,y,z
-x,-y,z
x,-y,-z
-x,y,-z
1/2+x,1/2+y,1/2+z
1/2-x,1/2-y,1/2+z
1/2+x,1/2-y,1/2-z
1/2-x,1/2+y,1/2-z
loop_
_atom_site_type_symbol
_atom_site_label
_atom_site_fract_x
_atom_site_fract_y
_atom_site_fract_z
Si Si1 0.594026 0.415059 0.866228
Si Si2 0.684685 0.346414 0.255712
Si Si3 0.862012 0.369340 0.125709
Si Si4 0.507839 0.162498 0.228650
Si Si5 0.293909 0.176825 0.568771
O O1 0.500000 0.500000 0.899647
O O2 0.635037 0.508318 0.780332
O O3 0.554756 0.265118 0.833100
O O4 0.684566 0.381096 0.929928
O O5 0.783659 0.338119 0.202903
O O6 0.613971 0.221574 0.223445
O O7 0.698314 0.309263 0.362001
O O8 0.962329 0.328098 0.169654
O O9 0.852435 0.538437 0.105110
O O10 0.832282 0.293994 0.032070
O O11 0.500000 0.000000 0.200596
#
# Coordination Sequence:
#
# PCOD9330076 Si02
#       5
#     8   8   8   8   8
#     4   9  20  37  61  89 120 161 205 249 310 358
#     4  10  20  37  60  87 119 160 198 254 304 351
#     4  10  21  36  60  93 118 156 209 242 305 367
#     4  11  20  36  63  88 119 159 196 247 302 371
#     4  10  19  37  62  89 122 160 201 256 299 360
#
# _framework density 20.711008
#
# number of rings (size 3 to 8) (size 9 to 14) (size 15 to 20)
#    0.000    2.000    4.000    0.000    0.000    0.800 
#    0.000   18.000    0.000    4.800    0.000    0.000 
#    0.000    0.000    0.000    0.000    0.000    0.000 
#
# Total GULP energy -111580.648032 kJ/mol
# GULP energy per Si atom -5579.032402 kJ/mol
# Density = 2.066387 g / cm^3
# Si number density = 20.711008 Si / 1000 Ang^3
#
#
#
# Elastic Constant Matrix: (Units=GPa)
#
#
# Indices 1 2 3 4 5 6 
#
# 1 84.8350 16.5985 5.5628 0.0000 0.0000 0.0000
# 2 16.5985 96.5094 29.2156 0.0000 0.0000 0.0000
# 3 5.5628 29.2156 85.7930 0.0000 0.0000 0.0000
# 4 0.0000 0.0000 0.0000 24.5402 0.0000 0.0000
# 5 0.0000 0.0000 0.0000 0.0000 15.3118 0.0000
# 6 0.0000 0.0000 0.0000 0.0000 0.0000 24.3645
#
#
#
# Elastic Compliance Matrix: (Units=1/GPa)
#
#
# Indices 1 2 3 4 5 6 
#
# 1 0.012199 -0.002072 -0.000085 0.000000 0.000000 0.000000
# 2 -0.002072 0.011905 -0.003920 0.000000 0.000000 0.000000
# 3 -0.000085 -0.003920 0.012996 0.000000 0.000000 0.000000
# 4 0.000000 0.000000 0.000000 0.040749 0.000000 0.000000
# 5 0.000000 0.000000 0.000000 0.000000 0.065309 0.000000
# 6 0.000000 0.000000 0.000000 0.000000 0.000000 0.041043
#
#
# Mechanical properties :
#
#
# Convention : Reuss Voigt Hill
#
# Bulk Modulus (GPa) = 40.08766 41.09901 40.59334
# Shear Modulus (GPa) = 24.42947 27.22733 25.82840
#
# Velocity S-wave (km/s) = 3.43817 3.62972 3.53524
# Velocity P-wave (km/s) = 5.92951 6.11993 6.02547
#
# Compressibility (1/GPa) = 0.02494533
#
# Stress axis : x y z
#
# Youngs Moduli (GPa) = 81.97648 84.00093 76.94526
#
# Poissons Ratio (x) = 0.17407 0.00656
# Poissons Ratio (y) = 0.16987 0.30159
# Poissons Ratio (z) = 0.00699 0.32925
#
# Static dielectric constant tensor:
#      x y z
#    x 1.767250 0.000000 0.000000 
#    y 0.000000 1.724190 0.000000 
#    z 0.000000 0.000000 1.767460 
# 
# From -- ./inp_files/9558.got.cif
#   From: 2010.05.17/outbox.cif.g08.bks.cpg/sg23_5_cif.got.tgz:9558.got - 2010.06.04 12:02:01.
