data_PCOD9330243
_publ_section_title
;
Structure prediction by ZEFSAII (Michael W. Deem and Ramdas Pophale) SiO2 
 PCOD9330243
Probable space group: I 2 2 2
;
_chemical_formula_sum "Si O2"
_cell_formula_units_Z 42
_cell_length_a 5.120968
_cell_length_b 24.299985
_cell_length_c 18.464418
_cell_angle_alpha 90.000000
_cell_angle_beta 90.000000
_cell_angle_gamma 90.000000
_cell_volume 2297.701939
_symmetry_space_group_name_H-M "I 2 2 2"
_symmetry_group_IT_number 23
_symmetry_cell_setting 'orthorhombic'
loop_
_space_group_symop_operation_xyz
x,y,z
-x,-y,z
x,-y,-z
-x,y,-z
1/2+x,1/2+y,1/2+z
1/2-x,1/2-y,1/2+z
1/2+x,1/2-y,1/2-z
1/2-x,1/2+y,1/2-z
loop_
_atom_site_type_symbol
_atom_site_label
_atom_site_fract_x
_atom_site_fract_y
_atom_site_fract_z
Si Si1 0.347120 0.772359 0.658548
Si Si2 0.444944 0.437629 0.289707
Si Si3 0.000000 0.328027 0.500000
Si Si4 0.000000 0.753581 0.000000
Si Si5 0.655586 0.322141 0.768739
Si Si6 0.500000 0.000000 0.000000
Si Si7 0.058668 0.419013 0.615501
O O1 0.420696 0.776521 0.574321
O O2 0.371915 0.710222 0.691534
O O3 0.061520 0.794982 0.678929
O O4 0.558520 0.807259 0.702981
O O5 0.500000 0.500000 0.262991
O O6 0.376076 0.387586 0.236314
O O7 0.703610 0.415146 0.329747
O O8 0.197498 0.441288 0.343886
O O9 0.749154 0.291444 0.485232
O O10 0.027675 0.365366 0.428569
O O11 0.343120 0.039738 0.052620
#
# Coordination Sequence:
#
# PCOD9330243 Si02
#       7
#     8   8   4   4   8   2   8
#     4  10  21  37  58  83 108 146 179 240 283 343
#     4  12  22  37  55  79 107 152 195 238 263 330
#     4  11  22  33  52  78 112 152 179 232 265 328
#     4  12  22  38  58  87 111 140 194 232 294 342
#     4  10  21  37  57  81 113 143 188 229 290 326
#     4  10  20  34  44  70 108 150 192 220 250 306
#     4  11  22  34  49  74 110 153 194 226 264 307
#
# _framework density 18.279133999999999
#
# number of rings (size 3 to 8) (size 9 to 14) (size 15 to 20)
#    0.000    1.143    1.905    5.714    0.000    6.095 
#    0.000    0.000    0.000    0.000    0.000    4.000 
#    0.000    0.000    0.000    0.000    0.000    0.000 
#
# Total GULP energy -117194.048883 kJ/mol
# GULP energy per Si atom -5580.668994 kJ/mol
# Density = 1.823753 g / cm^3
# Si number density = 18.279134 Si / 1000 Ang^3
#
#
#
# Elastic Constant Matrix: (Units=GPa)
#
#
# Indices 1 2 3 4 5 6 
#
# 1 60.6742 -2.6206 -16.9126 0.0000 0.0000 0.0000
# 2 -2.6206 88.0029 12.3483 0.0000 0.0000 0.0000
# 3 -16.9126 12.3483 53.3059 0.0000 0.0000 0.0000
# 4 0.0000 0.0000 0.0000 20.8312 0.0000 0.0000
# 5 0.0000 0.0000 0.0000 0.0000 21.3496 0.0000
# 6 0.0000 0.0000 0.0000 0.0000 0.0000 16.0676
#
#
#
# Elastic Compliance Matrix: (Units=1/GPa)
#
#
# Indices 1 2 3 4 5 6 
#
# 1 0.018087 -0.000276 0.005802 0.000000 0.000000 0.000000
# 2 -0.000276 0.011749 -0.002809 0.000000 0.000000 0.000000
# 3 0.005802 -0.002809 0.021251 0.000000 0.000000 0.000000
# 4 0.000000 0.000000 0.000000 0.048005 0.000000 0.000000
# 5 0.000000 0.000000 0.000000 0.000000 0.046839 0.000000
# 6 0.000000 0.000000 0.000000 0.000000 0.000000 0.062237
#
#
# Mechanical properties :
#
#
# Convention : Reuss Voigt Hill
#
# Bulk Modulus (GPa) = 17.69199 20.84591 19.26895
# Shear Modulus (GPa) = 22.56579 25.59422 24.08000
#
# Velocity S-wave (km/s) = 3.51737 3.74597 3.63347
# Velocity P-wave (km/s) = 5.11817 5.48987 5.30728
#
# Compressibility (1/GPa) = 0.05652276
#
# Stress axis : x y z
#
# Youngs Moduli (GPa) = 55.28855 85.11201 47.05596
#
# Poissons Ratio (x) = 0.02345 -0.27303
# Poissons Ratio (y) = 0.01523 0.13219
# Poissons Ratio (z) = -0.32080 0.23909
#
# Static dielectric constant tensor:
#      x y z
#    x 1.611520 0.000000 0.000000 
#    y 0.000000 1.673760 0.000000 
#    z 0.000000 0.000000 1.650970 
# 
# From -- ./inp_files/23172.got.cif
#   From: 2010.05.17/outbox.cif.g08.bks.cpg/sg23_12_cif.got.tgz:23172.got - 2010.06.04 12:02:01.
