data_PCOD9330715
_publ_section_title
;
Structure prediction by ZEFSAII (Michael W. Deem and Ramdas Pophale) SiO2 
 PCOD9330715
Probable space group: I 2 2 2
;
_chemical_formula_sum "Si O2"
_cell_formula_units_Z 48
_cell_length_a 9.229125
_cell_length_b 26.717853
_cell_length_c 9.668353
_cell_angle_alpha 90.000000
_cell_angle_beta 90.000000
_cell_angle_gamma 90.000000
_cell_volume 2384.045736
_symmetry_space_group_name_H-M "I 2 2 2"
_symmetry_group_IT_number 23
_symmetry_cell_setting 'orthorhombic'
loop_
_space_group_symop_operation_xyz
x,y,z
-x,-y,z
x,-y,-z
-x,y,-z
1/2+x,1/2+y,1/2+z
1/2-x,1/2-y,1/2+z
1/2+x,1/2-y,1/2-z
1/2-x,1/2+y,1/2-z
loop_
_atom_site_type_symbol
_atom_site_label
_atom_site_fract_x
_atom_site_fract_y
_atom_site_fract_z
Si Si1 0.578884 0.293312 0.354574
Si Si2 0.786385 0.934619 0.637476
Si Si3 0.576859 0.218872 0.851500
Si Si4 0.219389 0.453214 0.834651
Si Si5 0.544515 0.587684 0.656764
Si Si6 0.480197 0.130374 0.654005
O O1 0.500000 0.282809 0.500000
O O2 0.493456 0.263830 0.235910
O O3 0.748512 0.278150 0.360456
O O4 0.566505 0.352738 0.328858
O O5 0.810539 0.936592 0.471920
O O6 0.684030 0.887652 0.671478
O O7 0.924372 0.931557 0.735401
O O8 0.704334 0.987309 0.662239
O O9 0.535134 0.168677 0.767643
O O10 0.500000 0.217517 0.000000
O O11 0.306881 0.438399 0.699094
O O12 0.076274 0.420025 0.843827
O O13 0.500000 0.576847 0.500000
O O14 0.500000 0.152577 0.500000
#
# Coordination Sequence:
#
# PCOD9330715 Si02
#       6
#     8   8   8   8   8   8
#     4  11  26  47  67  96 133 169 216 265 324 392
#     4  10  22  36  67  90 127 171 214 267 311 380
#     4  12  26  44  72  97 130 169 213 269 327 389
#     4  10  20  42  59  94 126 168 219 263 317 371
#     4  11  24  40  62  91 131 167 210 263 322 380
#     4  10  22  40  65  94 129 166 214 263 321 380
#
# _framework density 20.133842999999999
#
# number of rings (size 3 to 8) (size 9 to 14) (size 15 to 20)
#    0.000    1.333    1.667    3.000    7.000    6.000 
#    0.000    0.000    0.000    3.000    0.000    0.000 
#    0.000    0.000    0.000    0.000    0.000    0.000 
#
# Total GULP energy -134138.246381 kJ/mol
# GULP energy per Si atom -5589.093599 kJ/mol
# Density = 2.008802 g / cm^3
# Si number density = 20.133843 Si / 1000 Ang^3
#
#
#
# Elastic Constant Matrix: (Units=GPa)
#
#
# Indices 1 2 3 4 5 6 
#
# 1 66.2428 11.0251 42.2059 -0.0004 0.0000 0.0001
# 2 11.0251 60.4855 44.3247 -0.0008 -0.0003 -0.0002
# 3 42.2059 44.3247 118.6195 0.0015 0.0008 -0.0012
# 4 -0.0004 -0.0008 0.0015 22.8493 0.0004 -0.0005
# 5 0.0000 -0.0003 0.0008 0.0004 28.6816 0.0000
# 6 0.0001 -0.0002 -0.0012 -0.0005 0.0000 37.6400
#
#
#
# Elastic Compliance Matrix: (Units=1/GPa)
#
#
# Indices 1 2 3 4 5 6 
#
# 1 0.019719 0.002131 -0.007812 0.000001 0.000000 0.000000
# 2 0.002131 0.022998 -0.009352 0.000001 0.000000 0.000000
# 3 -0.007812 -0.009352 0.014704 -0.000001 -0.000001 0.000000
# 4 0.000001 0.000001 -0.000001 0.043765 -0.000001 0.000001
# 5 0.000000 0.000000 -0.000001 -0.000001 0.034866 0.000000
# 6 0.000000 0.000000 0.000000 0.000001 0.000000 0.026567
#
#
# Mechanical properties :
#
#
# Convention : Reuss Voigt Hill
#
# Bulk Modulus (GPa) = 36.55725 48.93991 42.74858
# Shear Modulus (GPa) = 24.77655 27.68699 26.23177
#
# Velocity S-wave (km/s) = 3.51179 3.71232 3.61344
# Velocity P-wave (km/s) = 5.88558 6.53721 6.21994
#
# Compressibility (1/GPa) = 0.02735436
#
# Stress axis : x y z
#
# Youngs Moduli (GPa) = 50.71275 43.48288 68.00650
#
# Poissons Ratio (x) = -0.09265 0.53129
# Poissons Ratio (y) = -0.10806 0.63597
# Poissons Ratio (z) = 0.39619 0.40664
#
# Static dielectric constant tensor:
#      x y z
#    x 1.700880 0.000000 0.000000 
#    y 0.000000 1.706820 0.000000 
#    z 0.000000 0.000000 1.667600 
# 
# From -- ./inp_files/7375.got.cif
#   From: 2010.05.17/outbox.cif.g08.bks.cpg/sg23_4_cif.got.tgz:7375.got - 2010.06.04 12:02:01.
