data_PCOD9330773
_publ_section_title
;
Structure prediction by ZEFSAII (Michael W. Deem and Ramdas Pophale) SiO2 
 PCOD9330773
Probable space group: I 2 2 2
;
_chemical_formula_sum "Si O2"
_cell_formula_units_Z 38
_cell_length_a 21.029119
_cell_length_b 8.371165
_cell_length_c 9.900275
_cell_angle_alpha 90.000000
_cell_angle_beta 90.000000
_cell_angle_gamma 90.000000
_cell_volume 1742.826838
_symmetry_space_group_name_H-M "I 2 2 2"
_symmetry_group_IT_number 23
_symmetry_cell_setting 'orthorhombic'
loop_
_space_group_symop_operation_xyz
x,y,z
-x,-y,z
x,-y,-z
-x,y,-z
1/2+x,1/2+y,1/2+z
1/2-x,1/2-y,1/2+z
1/2+x,1/2-y,1/2-z
1/2-x,1/2+y,1/2-z
loop_
_atom_site_type_symbol
_atom_site_label
_atom_site_fract_x
_atom_site_fract_y
_atom_site_fract_z
Si Si1 0.180715 0.162716 0.822119
Si Si2 0.876926 0.663841 0.061469
Si Si3 0.000000 0.500000 0.500000
Si Si4 0.681984 0.311386 0.180558
Si Si5 0.500000 0.000000 0.500000
Si Si6 0.403337 0.255845 0.086066
Si Si7 0.000000 0.000000 0.500000
O O1 0.249229 0.238214 0.852166
O O2 0.144824 0.263125 0.707452
O O3 0.185824 0.987823 0.750589
O O4 0.139110 0.192919 0.957186
O O5 0.847973 0.702739 0.203902
O O6 0.951059 0.616845 0.076158
O O7 0.847876 0.500000 0.000000
O O8 0.048916 0.391684 0.581289
O O9 0.637523 0.294457 0.048690
O O10 0.453392 0.400111 0.095443
#
# Coordination Sequence:
#
# PCOD9330773 Si02
#       7
#     8   8   2   8   2   8   2
#     4  12  25  44  71 101 138 179 226 282 341 397
#     4  10  24  45  66  99 137 178 227 272 334 403
#     4  10  28  40  76 100 136 176 228 274 344 396
#     4  12  25  44  71 101 138 179 226 282 341 397
#     4   8  24  46  68  90 140 186 218 276 332 398
#     4  11  25  45  70 102 134 175 228 281 335 402
#     4  10  20  50  62 100 136 174 216 290 328 402
#
# _framework density 21.803656
#
# number of rings (size 3 to 8) (size 9 to 14) (size 15 to 20)
#    0.632    0.421    2.105    3.158    5.895    5.053 
#    0.000    1.053    0.000    0.000    0.000    0.000 
#    0.000    0.000    0.000    0.000    0.000    0.000 
#
# Total GULP energy -106029.525905 kJ/mol
# GULP energy per Si atom -5580.501363 kJ/mol
# Density = 2.175403 g / cm^3
# Si number density = 21.803656 Si / 1000 Ang^3
#
#
#
# Elastic Constant Matrix: (Units=GPa)
#
#
# Indices 1 2 3 4 5 6 
#
# 1 157.6999 51.4304 44.4246 0.0000 0.0000 0.0000
# 2 51.4304 77.1650 2.2964 0.0000 0.0000 0.0000
# 3 44.4246 2.2964 99.1703 0.0000 0.0000 0.0000
# 4 0.0000 0.0000 0.0000 7.7512 0.0000 0.0000
# 5 0.0000 0.0000 0.0000 0.0000 11.0408 0.0000
# 6 0.0000 0.0000 0.0000 0.0000 0.0000 113.1269
#
#
#
# Elastic Compliance Matrix: (Units=1/GPa)
#
#
# Indices 1 2 3 4 5 6 
#
# 1 0.009537 -0.006233 -0.004128 0.000000 0.000000 0.000000
# 2 -0.006233 0.017043 0.002398 0.000000 0.000000 0.000000
# 3 -0.004128 0.002398 0.011877 0.000000 0.000000 0.000000
# 4 0.000000 0.000000 0.000000 0.129012 0.000000 0.000000
# 5 0.000000 0.000000 0.000000 0.000000 0.090573 0.000000
# 6 0.000000 0.000000 0.000000 0.000000 0.000000 0.008840
#
#
# Mechanical properties :
#
#
# Convention : Reuss Voigt Hill
#
# Bulk Modulus (GPa) = 44.38630 58.92645 51.65637
# Shear Modulus (GPa) = 17.22247 42.10937 29.66592
#
# Velocity S-wave (km/s) = 2.81355 4.39942 3.69262
# Velocity P-wave (km/s) = 5.56383 7.27263 6.47485
#
# Compressibility (1/GPa) = 0.02252947
#
# Stress axis : x y z
#
# Youngs Moduli (GPa) = 104.85581 58.67680 84.19450
#
# Poissons Ratio (x) = 0.36576 0.34754
# Poissons Ratio (y) = 0.65362 -0.20188
# Poissons Ratio (z) = 0.43283 -0.14069
#
# Static dielectric constant tensor:
#      x y z
#    x 1.762060 0.000000 0.000000 
#    y 0.000000 1.903530 0.000000 
#    z 0.000000 0.000000 1.715570 
# 
# From -- ./inp_files/12469.got.cif
#   From: 2010.05.17/outbox.cif.g08.bks.cpg/sg23_7_cif.got.tgz:12469.got - 2010.06.04 12:02:01.
