data_PCOD9330539
_publ_section_title
;
Structure prediction by ZEFSAII (Michael W. Deem and Ramdas Pophale) SiO2 
 PCOD9330539
Probable space group: I 2 2 2
;
_chemical_formula_sum "Si O2"
_cell_formula_units_Z 64
_cell_length_a 32.438738
_cell_length_b 18.688602
_cell_length_c 5.445709
_cell_angle_alpha 90.000000
_cell_angle_beta 90.000000
_cell_angle_gamma 90.000000
_cell_volume 3301.377565
_symmetry_space_group_name_H-M "I 2 2 2"
_symmetry_group_IT_number 23
_symmetry_cell_setting 'orthorhombic'
loop_
_space_group_symop_operation_xyz
x,y,z
-x,-y,z
x,-y,-z
-x,y,-z
1/2+x,1/2+y,1/2+z
1/2-x,1/2-y,1/2+z
1/2+x,1/2-y,1/2-z
1/2-x,1/2+y,1/2-z
loop_
_atom_site_type_symbol
_atom_site_label
_atom_site_fract_x
_atom_site_fract_y
_atom_site_fract_z
Si Si1 0.455393 0.197824 0.368474
Si Si2 0.230239 0.171930 0.915893
Si Si3 0.693460 0.268839 0.084245
Si Si4 0.047250 0.468352 0.749059
Si Si5 0.805506 0.962714 0.742532
Si Si6 0.544872 0.656835 0.061062
Si Si7 0.607684 0.287193 0.323847
Si Si8 0.389474 0.575192 0.640494
O O1 0.500000 0.195485 0.500000
O O2 0.450960 0.118008 0.257094
O O3 0.458697 0.264892 0.185468
O O4 0.416064 0.222747 0.534801
O O5 0.276337 0.201148 0.895471
O O6 0.202215 0.207281 0.697196
O O7 0.228591 0.091463 0.832372
O O8 0.212372 0.182582 0.191386
O O9 0.645471 0.261372 0.152833
O O10 0.066075 0.500000 0.500000
O O11 0.000000 0.500000 0.749288
O O12 0.065822 0.500000 0.000000
O O13 0.851010 0.932986 0.672568
O O14 0.790249 0.000000 0.500000
O O15 0.815786 0.000000 0.000000
O O16 0.569474 0.601346 0.227011
O O17 0.500000 0.629726 0.000000
O O18 0.571945 0.673102 0.825057
O O19 0.623755 0.353875 0.487059
O O20 0.397072 0.500000 0.500000
#
# Coordination Sequence:
#
# PCOD9330539 Si02
#       8
#     8   8   8   8   8   8   8   8
#     4  11  22  39  58  91 123 160 207 263 319 370
#     4  10  20  38  61  93 125 150 199 247 309 374
#     4  10  21  37  62  92 124 155 194 256 305 370
#     4  10  21  34  60  90 116 147 193 261 301 364
#     4  11  22  36  64  93 121 161 202 254 312 370
#     4  11  24  38  62  82 119 169 219 271 326 377
#     4  11  23  39  62  88 123 161 212 260 319 379
#     4  10  24  39  59  82 122 157 218 273 317 372
#
# _framework density 19.385847999999999
#
# number of rings (size 3 to 8) (size 9 to 14) (size 15 to 20)
#    0.000    1.500    3.750    1.500   10.500    0.000 
#    0.000    1.875    0.000    0.750    0.000    0.000 
#    0.000    0.000    0.000    0.000    0.000    0.000 
#
# Total GULP energy -178138.565564 kJ/mol
# GULP energy per Si atom -5566.830174 kJ/mol
# Density = 1.934172 g / cm^3
# Si number density = 19.385848 Si / 1000 Ang^3
#
#
#
# Elastic Constant Matrix: (Units=GPa)
#
#
# Indices 1 2 3 4 5 6 
#
# 1 53.6549 -2.4120 -16.5503 0.0000 0.0000 0.0000
# 2 -2.4120 87.6877 9.0895 0.0000 0.0000 0.0000
# 3 -16.5503 9.0895 62.4424 -0.0002 0.0000 0.0001
# 4 0.0000 0.0000 -0.0002 26.5069 0.0000 0.0000
# 5 0.0000 0.0000 0.0000 0.0000 25.1687 0.0000
# 6 0.0000 0.0000 0.0001 0.0000 0.0000 11.3025
#
#
#
# Elastic Compliance Matrix: (Units=1/GPa)
#
#
# Indices 1 2 3 4 5 6 
#
# 1 0.020297 0.000001 0.005380 0.000000 0.000000 0.000000
# 2 0.000001 0.011579 -0.001685 0.000000 0.000000 0.000000
# 3 0.005380 -0.001685 0.017686 0.000000 0.000000 0.000000
# 4 0.000000 0.000000 0.000000 0.037726 0.000000 0.000000
# 5 0.000000 0.000000 0.000000 0.000000 0.039732 0.000000
# 6 0.000000 0.000000 0.000000 0.000000 0.000000 0.088476
#
#
# Mechanical properties :
#
#
# Convention : Reuss Voigt Hill
#
# Bulk Modulus (GPa) = 17.55871 20.44881 19.00376
# Shear Modulus (GPa) = 22.01772 26.83947 24.42859
#
# Velocity S-wave (km/s) = 3.37376 3.72491 3.55368
# Velocity P-wave (km/s) = 4.92479 5.39177 5.16356
#
# Compressibility (1/GPa) = 0.05695178
#
# Stress axis : x y z
#
# Youngs Moduli (GPa) = 49.26830 86.36455 56.54207
#
# Poissons Ratio (x) = -0.00006 -0.30417
# Poissons Ratio (y) = -0.00003 0.09529
# Poissons Ratio (z) = -0.26504 0.14555
#
# Static dielectric constant tensor:
#      x y z
#    x 1.522170 0.000000 0.000000 
#    y 0.000000 1.750470 0.000000 
#    z 0.000000 0.000000 1.753950 
# 
# From -- ./inp_files/5454.got.cif
#   From: 2010.05.17/outbox.cif.g08.bks.cpg/sg23_3_cif.got.tgz:5454.got - 2010.06.04 12:02:01.
