data_PCOD9330067
_publ_section_title
;
Structure prediction by ZEFSAII (Michael W. Deem and Ramdas Pophale) SiO2 
 PCOD9330067
Probable space group: I 2 2 2
;
_chemical_formula_sum "Si O2"
_cell_formula_units_Z 30
_cell_length_a 7.765673
_cell_length_b 12.797139
_cell_length_c 12.050659
_cell_angle_alpha 90.000000
_cell_angle_beta 90.000000
_cell_angle_gamma 90.000000
_cell_volume 1197.575172
_symmetry_space_group_name_H-M "I 2 2 2"
_symmetry_group_IT_number 23
_symmetry_cell_setting 'orthorhombic'
loop_
_space_group_symop_operation_xyz
x,y,z
-x,-y,z
x,-y,-z
-x,y,-z
1/2+x,1/2+y,1/2+z
1/2-x,1/2-y,1/2+z
1/2+x,1/2-y,1/2-z
1/2-x,1/2+y,1/2-z
loop_
_atom_site_type_symbol
_atom_site_label
_atom_site_fract_x
_atom_site_fract_y
_atom_site_fract_z
Si Si1 0.354624 0.670664 0.594934
Si Si2 0.500000 0.171456 0.000000
Si Si3 0.518777 0.883034 0.369028
Si Si4 0.647867 0.339128 0.833552
Si Si5 0.000000 0.000000 0.500000
O O1 0.500000 0.664584 0.500000
O O2 0.330521 0.795216 0.631530
O O3 0.413064 0.625725 0.712637
O O4 0.176848 0.623446 0.547804
O O5 0.565762 0.240780 0.895698
O O6 0.500000 0.897068 0.500000
O O7 0.351929 0.822795 0.324735
O O8 0.500000 0.000000 0.319020
O O9 0.617912 0.431448 0.920865
#
# Coordination Sequence:
#
# PCOD9330067 Si02
#       5
#     8   4   8   8   2
#     4  11  23  42  62  98 137 180 224 276 337 399
#     4  11  22  37  64  98 126 176 233 264 327 394
#     4  10  19  37  60  93 133 172 216 278 328 379
#     4  11  22  40  66  95 138 170 225 286 328 402
#     4  10  24  40  68 108 116 170 234 274 346 416
#
# _framework density 25.050621
#
# number of rings (size 3 to 8) (size 9 to 14) (size 15 to 20)
#    0.000    1.333    5.333    3.200    3.733    0.000 
#    0.000    0.667    0.000    0.000    0.000   16.800 
#    0.000    0.000    0.000    0.000    0.000    0.000 
#
# Total GULP energy -83637.631309 kJ/mol
# GULP energy per Si atom -5575.842087 kJ/mol
# Density = 2.499360 g / cm^3
# Si number density = 25.050621 Si / 1000 Ang^3
#
#
#
# Elastic Constant Matrix: (Units=GPa)
#
#
# Indices 1 2 3 4 5 6 
#
# 1 99.8461 12.3413 37.2911 0.0000 0.0000 0.0000
# 2 12.3413 51.0551 10.2479 0.0000 0.0000 0.0000
# 3 37.2911 10.2479 197.7729 0.0000 0.0000 0.0000
# 4 0.0000 0.0000 0.0000 -1.7913 0.0000 0.0000
# 5 0.0000 0.0000 0.0000 0.0000 37.0379 0.0000
# 6 0.0000 0.0000 0.0000 0.0000 0.0000 70.7816
#
#
#
# Elastic Compliance Matrix: (Units=1/GPa)
#
#
# Indices 1 2 3 4 5 6 
#
# 1 0.011029 -0.002272 -0.001962 0.000000 0.000000 0.000000
# 2 -0.002272 0.020261 -0.000621 0.000000 0.000000 0.000000
# 3 -0.001962 -0.000621 0.005458 0.000000 0.000000 0.000000
# 4 0.000000 0.000000 0.000000 -0.558242 0.000000 0.000000
# 5 0.000000 0.000000 0.000000 0.000000 0.026999 0.000000
# 6 0.000000 0.000000 0.000000 0.000000 0.000000 0.014128
#
#
# Mechanical properties :
#
#
# Convention : Reuss Voigt Hill
#
# Bulk Modulus (GPa) = 36.98609 52.04831 44.51720
# Shear Modulus (GPa) = -10.83087 40.45853 14.81383
#
# Velocity S-wave (km/s) = -2.08158 4.02315 2.43442
# Velocity P-wave (km/s) = 3.00321 6.51179 5.07063
#
# Compressibility (1/GPa) = 0.02703719
#
# Stress axis : x y z
#
# Youngs Moduli (GPa) = 90.67021 49.35668 183.20329
#
# Poissons Ratio (x) = 0.11215 0.35941
# Poissons Ratio (y) = 0.20602 0.11384
# Poissons Ratio (z) = 0.17788 0.03067
#
# Static dielectric constant tensor:
#      x y z
#    x 2.099940 0.000000 0.000000 
#    y 0.000000 2.117010 0.000000 
#    z 0.000000 0.000000 1.992140 
# 
# From -- ./inp_files/7867.got.cif
#   From: 2010.05.17/outbox.cif.g08.bks.cpg/sg23_4_cif.got.tgz:7867.got - 2010.06.04 12:02:01.
