data_PCOD9330688
_publ_section_title
;
Structure prediction by ZEFSAII (Michael W. Deem and Ramdas Pophale) SiO2 
 PCOD9330688
Probable space group: I 2 2 2
;
_chemical_formula_sum "Si O2"
_cell_formula_units_Z 44
_cell_length_a 29.411738
_cell_length_b 8.458320
_cell_length_c 8.524186
_cell_angle_alpha 90.000000
_cell_angle_beta 90.000000
_cell_angle_gamma 90.000000
_cell_volume 2120.594925
_symmetry_space_group_name_H-M "I 2 2 2"
_symmetry_group_IT_number 23
_symmetry_cell_setting 'orthorhombic'
loop_
_space_group_symop_operation_xyz
x,y,z
-x,-y,z
x,-y,-z
-x,y,-z
1/2+x,1/2+y,1/2+z
1/2-x,1/2-y,1/2+z
1/2+x,1/2-y,1/2-z
1/2-x,1/2+y,1/2-z
loop_
_atom_site_type_symbol
_atom_site_label
_atom_site_fract_x
_atom_site_fract_y
_atom_site_fract_z
Si Si1 0.291992 0.936986 0.157650
Si Si2 0.948119 0.499708 0.687171
Si Si3 0.166251 0.000000 0.500000
Si Si4 0.114067 0.323728 0.920095
Si Si5 0.706208 0.275344 0.739907
Si Si6 0.124364 0.230429 0.245631
O O1 0.244396 0.851554 0.131268
O O2 0.328001 0.830761 0.250151
O O3 0.276769 0.098207 0.236459
O O4 0.316056 0.000000 0.000000
O O5 0.950493 0.500000 0.500000
O O6 0.923034 0.639248 0.785266
O O7 0.916836 0.345006 0.707886
O O8 0.000000 0.500000 0.747163
O O9 0.196822 0.123110 0.601748
O O10 0.135587 0.093382 0.370994
O O11 0.157707 0.256647 0.833968
O O12 0.119833 0.500000 0.000000
O O13 0.110116 0.201847 0.065358
#
# Coordination Sequence:
#
# PCOD9330688 Si02
#       6
#     8   8   4   8   8   8
#     4  12  25  40  63  89 133 182 235 282 342 405
#     4  10  20  40  74 106 131 168 222 285 345 417
#     4  12  26  42  64  91 140 188 229 280 346 410
#     4  10  22  41  67  96 134 170 227 290 341 404
#     4  12  26  41  62  91 132 180 231 287 338 411
#     4  11  23  42  64 100 134 180 223 289 343 412
#
# _framework density 20.748895999999998
#
# number of rings (size 3 to 8) (size 9 to 14) (size 15 to 20)
#    0.000    0.909    5.455    2.727    5.091    3.273 
#    1.636    0.000    0.000    8.727    0.000   15.273 
#    0.000    0.000    0.000    0.000    0.000    0.000 
#
# Total GULP energy -122468.462745 kJ/mol
# GULP energy per Si atom -5566.748307 kJ/mol
# Density = 2.070167 g / cm^3
# Si number density = 20.748896 Si / 1000 Ang^3
#
#
#
# Elastic Constant Matrix: (Units=GPa)
#
#
# Indices 1 2 3 4 5 6 
#
# 1 137.0742 34.3749 34.2215 0.0000 0.0000 0.0000
# 2 34.3749 80.7602 24.2783 0.0000 0.0000 0.0000
# 3 34.2215 24.2783 99.0619 0.0000 0.0000 0.0000
# 4 0.0000 0.0000 0.0000 36.6238 0.0000 0.0000
# 5 0.0000 0.0000 0.0000 0.0000 22.6922 0.0000
# 6 0.0000 0.0000 0.0000 0.0000 0.0000 60.6136
#
#
#
# Elastic Compliance Matrix: (Units=1/GPa)
#
#
# Indices 1 2 3 4 5 6 
#
# 1 0.008604 -0.002989 -0.002240 0.000000 0.000000 0.000000
# 2 -0.002989 0.014405 -0.002498 0.000000 0.000000 0.000000
# 3 -0.002240 -0.002498 0.011481 0.000000 0.000000 0.000000
# 4 0.000000 0.000000 0.000000 0.027305 0.000000 0.000000
# 5 0.000000 0.000000 0.000000 0.000000 0.044068 0.000000
# 6 0.000000 0.000000 0.000000 0.000000 0.000000 0.016498
#
#
# Mechanical properties :
#
#
# Convention : Reuss Voigt Hill
#
# Bulk Modulus (GPa) = 52.52981 55.84953 54.18967
# Shear Modulus (GPa) = 34.68373 38.92069 36.80221
#
# Velocity S-wave (km/s) = 4.09295 4.33574 4.21609
# Velocity P-wave (km/s) = 6.90711 7.21389 7.06217
#
# Compressibility (1/GPa) = 0.01903681
#
# Stress axis : x y z
#
# Youngs Moduli (GPa) = 116.22438 69.41795 87.10298
#
# Poissons Ratio (x) = 0.20748 0.19509
# Poissons Ratio (y) = 0.34738 0.21758
# Poissons Ratio (z) = 0.26032 0.17341
#
# Static dielectric constant tensor:
#      x y z
#    x 1.715000 0.000000 0.000000 
#    y 0.000000 1.837390 0.000000 
#    z 0.000000 0.000000 -1.471000 
# 
# From -- ./inp_files/13277.got.cif
#   From: 2010.05.17/outbox.cif.g08.bks.cpg/sg23_7_cif.got.tgz:13277.got - 2010.06.04 12:02:01.
