data_PCOD9330323
_publ_section_title
;
Structure prediction by ZEFSAII (Michael W. Deem and Ramdas Pophale) SiO2 
 PCOD9330323
Probable space group: I 2 2 2
;
_chemical_formula_sum "Si O2"
_cell_formula_units_Z 52
_cell_length_a 8.268956
_cell_length_b 15.848368
_cell_length_c 21.689910
_cell_angle_alpha 90.000000
_cell_angle_beta 90.000000
_cell_angle_gamma 90.000000
_cell_volume 2842.450942
_symmetry_space_group_name_H-M "I 2 2 2"
_symmetry_group_IT_number 23
_symmetry_cell_setting 'orthorhombic'
loop_
_space_group_symop_operation_xyz
x,y,z
-x,-y,z
x,-y,-z
-x,y,-z
1/2+x,1/2+y,1/2+z
1/2-x,1/2-y,1/2+z
1/2+x,1/2-y,1/2-z
1/2-x,1/2+y,1/2-z
loop_
_atom_site_type_symbol
_atom_site_label
_atom_site_fract_x
_atom_site_fract_y
_atom_site_fract_z
Si Si1 0.746778 0.582032 0.411256
Si Si2 0.768593 0.578993 0.673189
Si Si3 0.588336 0.824906 0.800067
Si Si4 0.345440 0.665939 0.810631
Si Si5 0.000000 0.842890 0.000000
Si Si6 0.500000 0.150082 0.000000
Si Si7 0.000000 0.000000 0.263351
Si Si8 0.254195 0.232692 0.085759
O O1 0.771844 0.492351 0.379434
O O2 0.797422 0.649874 0.358319
O O3 0.577368 0.601550 0.444877
O O4 0.868099 0.593378 0.467540
O O5 0.638329 0.544002 0.721322
O O6 0.715114 0.664691 0.639377
O O7 0.945661 0.603386 0.700262
O O8 0.487222 0.737344 0.804104
O O9 0.707093 0.823233 0.741509
O O10 0.419921 0.574375 0.801819
O O11 0.269201 0.680955 0.877879
O O12 0.129184 0.781915 0.968359
O O13 0.421932 0.205892 0.053903
#
# Coordination Sequence:
#
# PCOD9330323 Si02
#       8
#     8   8   8   8   4   4   4   8
#     4  11  21  37  57  87 126 170 197 250 296 366
#     4  11  22  38  58  91 131 162 200 246 303 385
#     4  11  23  40  62  87 127 171 204 256 321 371
#     4  11  23  39  62  87 119 162 211 257 316 374
#     4  10  24  37  58  92 125 168 208 248 295 374
#     4  10  20  35  56  81 120 162 206 229 292 374
#     4  12  24  38  62  92 124 156 208 266 312 374
#     4  10  22  38  56  87 119 162 199 248 304 370
#
# _framework density 18.294072
#
# number of rings (size 3 to 8) (size 9 to 14) (size 15 to 20)
#    0.000    1.231    4.615    3.231    2.154    3.692 
#    0.000    0.000    0.000    0.462    0.000    1.077 
#    0.000    0.000    0.000    0.000    0.000    0.000 
#
# Total GULP energy -145077.587611 kJ/mol
# GULP energy per Si atom -5579.907216 kJ/mol
# Density = 1.825243 g / cm^3
# Si number density = 18.294072 Si / 1000 Ang^3
#
#
#
# Elastic Constant Matrix: (Units=GPa)
#
#
# Indices 1 2 3 4 5 6 
#
# 1 77.2518 36.8095 26.7045 0.0000 0.0000 0.0000
# 2 36.8095 89.2492 50.7869 0.0000 0.0000 0.0000
# 3 26.7045 50.7869 75.3761 0.0000 0.0000 0.0000
# 4 0.0000 0.0000 0.0000 23.9615 0.0000 0.0000
# 5 0.0000 0.0000 0.0000 0.0000 35.7553 0.0000
# 6 0.0000 0.0000 0.0000 0.0000 0.0000 15.6584
#
#
#
# Elastic Compliance Matrix: (Units=1/GPa)
#
#
# Indices 1 2 3 4 5 6 
#
# 1 0.016298 -0.005573 -0.002019 0.000000 0.000000 0.000000
# 2 -0.005573 0.020077 -0.011553 0.000000 0.000000 0.000000
# 3 -0.002019 -0.011553 0.021767 0.000000 0.000000 0.000000
# 4 0.000000 0.000000 0.000000 0.041734 0.000000 0.000000
# 5 0.000000 0.000000 0.000000 0.000000 0.027968 0.000000
# 6 0.000000 0.000000 0.000000 0.000000 0.000000 0.063863
#
#
# Mechanical properties :
#
#
# Convention : Reuss Voigt Hill
#
# Bulk Modulus (GPa) = 50.37495 52.27544 51.32520
# Shear Modulus (GPa) = 21.13136 23.58014 22.35575
#
# Velocity S-wave (km/s) = 3.40235 3.59409 3.49953
# Velocity P-wave (km/s) = 6.55978 6.77203 6.66675
#
# Compressibility (1/GPa) = 0.01985113
#
# Stress axis : x y z
#
# Youngs Moduli (GPa) = 61.35690 49.80718 45.94181
#
# Poissons Ratio (x) = 0.27757 0.09277
# Poissons Ratio (y) = 0.34193 0.53078
# Poissons Ratio (z) = 0.12390 0.57544
#
# Static dielectric constant tensor:
#      x y z
#    x 1.742920 0.000000 0.000000 
#    y 0.000000 1.627630 0.000000 
#    z 0.000000 0.000000 1.651000 
# 
# From -- ./inp_files/10200.got.cif
#   From: 2010.05.17/outbox.cif.g08.bks.cpg/sg23_6_cif.got.tgz:10200.got - 2010.06.04 12:02:01.
