data_PCOD9330350
_publ_section_title
;
Structure prediction by ZEFSAII (Michael W. Deem and Ramdas Pophale) SiO2 
 PCOD9330350
Probable space group: I 2 2 2
;
_chemical_formula_sum "Si O2"
_cell_formula_units_Z 40
_cell_length_a 14.527687
_cell_length_b 14.667720
_cell_length_c 8.208826
_cell_angle_alpha 90.000000
_cell_angle_beta 90.000000
_cell_angle_gamma 90.000000
_cell_volume 1749.202685
_symmetry_space_group_name_H-M "I 2 2 2"
_symmetry_group_IT_number 23
_symmetry_cell_setting 'orthorhombic'
loop_
_space_group_symop_operation_xyz
x,y,z
-x,-y,z
x,-y,-z
-x,y,-z
1/2+x,1/2+y,1/2+z
1/2-x,1/2-y,1/2+z
1/2+x,1/2-y,1/2-z
1/2-x,1/2+y,1/2-z
loop_
_atom_site_type_symbol
_atom_site_label
_atom_site_fract_x
_atom_site_fract_y
_atom_site_fract_z
Si Si1 0.223880 0.285873 0.878884
Si Si2 0.575083 0.867505 0.619879
Si Si3 0.779110 0.427313 0.649302
Si Si4 0.444699 0.230957 0.157694
Si Si5 0.638183 0.408651 0.939527
O O1 0.256574 0.180332 0.890106
O O2 0.157863 0.300682 0.719494
O O3 0.156581 0.317704 0.023735
O O4 0.310191 0.351411 0.916182
O O5 0.500000 0.910620 0.500000
O O6 0.621725 0.929671 0.758859
O O7 0.514935 0.789802 0.701524
O O8 0.772994 0.500000 0.500000
O O9 0.708653 0.442618 0.798608
O O10 0.430659 0.337353 0.136799
O O11 0.500000 0.193851 0.000000
O O12 0.595588 0.500000 0.000000
#
# Coordination Sequence:
#
# PCOD9330350 Si02
#       5
#     8   8   8   8   8
#     4   9  20  40  62  86 122 163 203 252 305 361
#     4   9  19  38  63  89 124 164 199 252 317 361
#     4  10  21  37  64  95 120 161 212 251 297 367
#     4  10  20  35  60  89 118 158 203 246 304 363
#     4  10  22  38  60  89 122 162 204 251 305 360
#
# _framework density 22.867560999999998
#
# number of rings (size 3 to 8) (size 9 to 14) (size 15 to 20)
#    0.000    2.400    0.000    1.200    0.000    8.400 
#    0.000    2.000    0.000   91.200    0.000    0.000 
#    0.000    0.000    0.000    0.000    0.000    0.000 
#
# Total GULP energy -111429.114810 kJ/mol
# GULP energy per Si atom -5571.455741 kJ/mol
# Density = 2.281551 g / cm^3
# Si number density = 22.867561 Si / 1000 Ang^3
#
#
#
# Elastic Constant Matrix: (Units=GPa)
#
#
# Indices 1 2 3 4 5 6 
#
# 1 104.5733 53.3020 55.4141 0.0000 0.0000 0.0000
# 2 53.3020 120.6121 58.1814 0.0000 0.0000 0.0000
# 3 55.4141 58.1814 114.3245 0.0000 0.0000 0.0000
# 4 0.0000 0.0000 0.0000 264.0061 0.0000 0.0000
# 5 0.0000 0.0000 0.0000 0.0000 -6.4415 0.0000
# 6 0.0000 0.0000 0.0000 0.0000 0.0000 26.7838
#
#
#
# Elastic Compliance Matrix: (Units=1/GPa)
#
#
# Indices 1 2 3 4 5 6 
#
# 1 0.014126 -0.003896 -0.004864 0.000000 0.000000 0.000000
# 2 -0.003896 0.012063 -0.004251 0.000000 0.000000 0.000000
# 3 -0.004864 -0.004251 0.013268 0.000000 0.000000 0.000000
# 4 0.000000 0.000000 0.000000 0.003788 0.000000 0.000000
# 5 0.000000 0.000000 0.000000 0.000000 -0.155244 0.000000
# 6 0.000000 0.000000 0.000000 0.000000 0.000000 0.037336
#
#
# Mechanical properties :
#
#
# Convention : Reuss Voigt Hill
#
# Bulk Modulus (GPa) = 74.43136 74.81166 74.62151
# Shear Modulus (GPa) = -113.22028 68.37717 -22.42155
#
# Velocity S-wave (km/s) = -7.04406 5.47415 -3.13468
# Velocity P-wave (km/s) = 5.79127 8.52885 4.42733
#
# Compressibility (1/GPa) = 0.01343520
#
# Stress axis : x y z
#
# Youngs Moduli (GPa) = 70.79005 82.89534 75.36955
#
# Poissons Ratio (x) = 0.32299 0.36661
# Poissons Ratio (y) = 0.27583 0.32037
# Poissons Ratio (z) = 0.34434 0.35236
#
# Static dielectric constant tensor:
#      x y z
#    x 1.684470 0.000000 0.000000 
#    y 0.000000 1.833580 0.000000 
#    z 0.000000 0.000000 1.950590 
# 
# From -- ./inp_files/9593.got.cif
#   From: 2010.05.17/outbox.cif.g08.bks.cpg/sg23_5_cif.got.tgz:9593.got - 2010.06.04 12:02:01.
