data_PCOD9330334
_publ_section_title
;
Structure prediction by ZEFSAII (Michael W. Deem and Ramdas Pophale) SiO2 
 PCOD9330334
Probable space group: I 2 2 2
;
_chemical_formula_sum "Si O2"
_cell_formula_units_Z 58
_cell_length_a 17.150817
_cell_length_b 9.279737
_cell_length_c 18.697220
_cell_angle_alpha 90.000000
_cell_angle_beta 90.000000
_cell_angle_gamma 90.000000
_cell_volume 2975.757378
_symmetry_space_group_name_H-M "I 2 2 2"
_symmetry_group_IT_number 23
_symmetry_cell_setting 'orthorhombic'
loop_
_space_group_symop_operation_xyz
x,y,z
-x,-y,z
x,-y,-z
-x,y,-z
1/2+x,1/2+y,1/2+z
1/2-x,1/2-y,1/2+z
1/2+x,1/2-y,1/2-z
1/2-x,1/2+y,1/2-z
loop_
_atom_site_type_symbol
_atom_site_label
_atom_site_fract_x
_atom_site_fract_y
_atom_site_fract_z
Si Si1 0.000000 0.500000 0.500000
Si Si2 0.219311 0.039130 0.080760
Si Si3 0.592816 0.477921 0.922655
Si Si4 0.587357 0.055566 0.723169
Si Si5 0.330140 0.773009 0.305710
Si Si6 0.684655 0.323205 0.703812
Si Si7 0.586387 0.433336 0.218748
Si Si8 0.610494 0.147301 0.888474
O O1 0.952389 0.399486 0.446487
O O2 0.179413 0.174891 0.123383
O O3 0.308748 0.087240 0.082017
O O4 0.212762 0.897972 0.131025
O O5 0.193695 0.000000 0.000000
O O6 0.500000 0.500000 0.929893
O O7 0.614156 0.592431 0.862205
O O8 0.610193 0.321186 0.889790
O O9 0.629251 0.500000 0.000000
O O10 0.616832 0.206987 0.691713
O O11 0.595446 0.082275 0.809457
O O12 0.500000 0.000000 0.708131
O O13 0.649245 0.940551 0.691336
O O14 0.253557 0.759347 0.254411
O O15 0.404659 0.710037 0.263320
O O16 0.645573 0.454539 0.746547
O O17 0.500000 0.500000 0.219985
#
# Coordination Sequence:
#
# PCOD9330334 Si02
#       8
#     2   8   8   8   8   8   8   8
#     4  12  24  32  58  96 152 164 204 262 328 420
#     4  11  24  44  67  93 132 180 227 269 344 403
#     4  10  21  34  50  81 132 176 213 258 318 398
#     4  12  23  38  67 100 131 171 229 289 344 387
#     4  11  22  38  65  93 126 169 226 277 324 399
#     4  11  21  41  62  94 128 169 226 278 323 407
#     4  10  20  35  58  81 118 166 219 266 322 385
#     4  12  22  37  60  93 133 183 221 256 328 417
#
# _framework density 19.490836999999999
#
# number of rings (size 3 to 8) (size 9 to 14) (size 15 to 20)
#    0.000    0.966    5.517    2.483    1.931    2.207 
#    0.000    0.690    0.000   15.724    0.000    0.000 
#    0.000    0.000    0.000    0.000    0.000    0.000 
#
# Total GULP energy -161706.597838 kJ/mol
# GULP energy per Si atom -5576.089581 kJ/mol
# Density = 1.944647 g / cm^3
# Si number density = 19.490837 Si / 1000 Ang^3
#
#
#
# Elastic Constant Matrix: (Units=GPa)
#
#
# Indices 1 2 3 4 5 6 
#
# 1 55.5422 6.6763 17.1316 0.0000 0.0000 0.0000
# 2 6.6763 67.9752 29.3547 0.0000 0.0000 0.0000
# 3 17.1316 29.3547 124.8606 0.0000 0.0000 0.0000
# 4 0.0000 0.0000 0.0000 237.0405 0.0000 0.0000
# 5 0.0000 0.0000 0.0000 0.0000 6.6862 0.0000
# 6 0.0000 0.0000 0.0000 0.0000 0.0000 14.7584
#
#
#
# Elastic Compliance Matrix: (Units=1/GPa)
#
#
# Indices 1 2 3 4 5 6 
#
# 1 0.018841 -0.000817 -0.002393 0.000000 0.000000 0.000000
# 2 -0.000817 0.016409 -0.003746 0.000000 0.000000 0.000000
# 3 -0.002393 -0.003746 0.009218 0.000000 0.000000 0.000000
# 4 0.000000 0.000000 0.000000 0.004219 0.000000 0.000000
# 5 0.000000 0.000000 0.000000 0.000000 0.149563 0.000000
# 6 0.000000 0.000000 0.000000 0.000000 0.000000 0.067758
#
#
# Mechanical properties :
#
#
# Convention : Reuss Voigt Hill
#
# Bulk Modulus (GPa) = 32.72664 39.41148 36.06906
# Shear Modulus (GPa) = 17.23522 64.71137 40.97330
#
# Velocity S-wave (km/s) = 2.97690 5.76828 4.58993
# Velocity P-wave (km/s) = 5.35193 8.03918 6.82904
#
# Compressibility (1/GPa) = 0.03055615
#
# Stress axis : x y z
#
# Youngs Moduli (GPa) = 53.07678 60.94202 108.48503
#
# Poissons Ratio (x) = 0.04979 0.25960
# Poissons Ratio (y) = 0.04337 0.40635
# Poissons Ratio (z) = 0.12701 0.22827
#
# Static dielectric constant tensor:
#      x y z
#    x 1.543330 0.000000 0.000000 
#    y 0.000000 1.790800 0.000000 
#    z 0.000000 0.000000 1.720550 
# 
# From -- ./inp_files/25084.got.cif
#   From: 2010.05.17/outbox.cif.g08.bks.cpg/sg23_13_cif.got.tgz:25084.got - 2010.06.04 12:02:01.
