data_PCOD9330407
_publ_section_title
;
Structure prediction by ZEFSAII (Michael W. Deem and Ramdas Pophale) SiO2 
 PCOD9330407
Probable space group: I 2 2 2
;
_chemical_formula_sum "Si O2"
_cell_formula_units_Z 58
_cell_length_a 17.512850
_cell_length_b 5.108516
_cell_length_c 29.324455
_cell_angle_alpha 90.000000
_cell_angle_beta 90.000000
_cell_angle_gamma 90.000000
_cell_volume 2623.502819
_symmetry_space_group_name_H-M "I 2 2 2"
_symmetry_group_IT_number 23
_symmetry_cell_setting 'orthorhombic'
loop_
_space_group_symop_operation_xyz
x,y,z
-x,-y,z
x,-y,-z
-x,y,-z
1/2+x,1/2+y,1/2+z
1/2-x,1/2-y,1/2+z
1/2+x,1/2-y,1/2-z
1/2-x,1/2+y,1/2-z
loop_
_atom_site_type_symbol
_atom_site_label
_atom_site_fract_x
_atom_site_fract_y
_atom_site_fract_z
Si Si1 0.324365 0.109379 0.204858
Si Si2 0.712994 0.411489 0.881889
Si Si3 0.000000 0.500000 0.500000
Si Si4 0.284134 0.475775 0.550669
Si Si5 0.367634 0.681478 0.044485
Si Si6 0.653514 0.629363 0.747270
Si Si7 0.633233 0.012740 0.664124
Si Si8 0.415289 0.500582 0.383192
O O1 0.315745 0.190336 0.152637
O O2 0.366216 0.338543 0.234433
O O3 0.239365 0.093991 0.227231
O O4 0.354505 0.816989 0.209153
O O5 0.760346 0.295839 0.925145
O O6 0.640863 0.540220 0.906851
O O7 0.776929 0.551218 0.849319
O O8 0.945297 0.329268 0.532363
O O9 0.315675 0.500000 0.500000
O O10 0.204246 0.625566 0.547976
O O11 0.348808 0.591183 0.583301
O O12 0.355487 0.500000 0.000000
O O13 0.621815 0.835980 0.709393
O O14 0.600517 0.801910 0.628666
O O15 0.593067 0.294839 0.659131
O O16 0.500000 0.500000 0.402002
#
# Coordination Sequence:
#
# PCOD9330407 Si02
#       8
#     8   8   2   8   8   8   8   8
#     4   9  18  29  51  85 126 156 199 257 313 372
#     4  10  21  34  59  89 126 164 205 260 321 376
#     4  12  26  40  68  98 122 156 206 252 316 398
#     4  11  22  39  61  89 128 169 213 266 320 379
#     4  12  22  41  63  93 123 157 206 254 314 379
#     4   9  17  31  50  84 121 159 201 258 318 365
#     4  10  20  36  60  86 126 168 213 269 320 374
#     4  11  23  38  59  92 125 172 225 270 320 372
#
# _framework density 22.107845000000001
#
# number of rings (size 3 to 8) (size 9 to 14) (size 15 to 20)
#    0.000    1.655    3.448    1.448    1.931    3.586 
#    0.000    0.000    0.000    1.655    7.172    0.000 
#    0.000    0.000    0.000    0.000    0.000    0.000 
#
# Total GULP energy -161464.707672 kJ/mol
# GULP energy per Si atom -5567.748540 kJ/mol
# Density = 2.205753 g / cm^3
# Si number density = 22.107845 Si / 1000 Ang^3
#
#
#
# Elastic Constant Matrix: (Units=GPa)
#
#
# Indices 1 2 3 4 5 6 
#
# 1 85.5688 19.6653 8.5137 0.0000 0.0000 0.0000
# 2 19.6653 90.3002 1.5068 0.0000 0.0000 0.0000
# 3 8.5137 1.5068 67.5925 0.0000 0.0000 0.0000
# 4 0.0000 0.0000 0.0000 31.2371 0.0000 0.0000
# 5 0.0000 0.0000 0.0000 0.0000 31.0196 0.0000
# 6 0.0000 0.0000 0.0000 0.0000 0.0000 28.0963
#
#
#
# Elastic Compliance Matrix: (Units=1/GPa)
#
#
# Indices 1 2 3 4 5 6 
#
# 1 0.012454 -0.002687 -0.001509 0.000000 0.000000 0.000000
# 2 -0.002687 0.011658 0.000079 0.000000 0.000000 0.000000
# 3 -0.001509 0.000079 0.014983 0.000000 0.000000 0.000000
# 4 0.000000 0.000000 0.000000 0.032013 0.000000 0.000000
# 5 0.000000 0.000000 0.000000 0.000000 0.032238 0.000000
# 6 0.000000 0.000000 0.000000 0.000000 0.000000 0.035592
#
#
# Mechanical properties :
#
#
# Convention : Reuss Voigt Hill
#
# Bulk Modulus (GPa) = 32.40391 33.64814 33.02603
# Shear Modulus (GPa) = 31.75426 32.32231 32.03828
#
# Velocity S-wave (km/s) = 3.79401 3.82780 3.81094
# Velocity P-wave (km/s) = 5.82080 5.89823 5.85964
#
# Compressibility (1/GPa) = 0.03086047
#
# Stress axis : x y z
#
# Youngs Moduli (GPa) = 80.29448 85.77769 66.74308
#
# Poissons Ratio (x) = 0.23049 0.10070
# Poissons Ratio (y) = 0.21576 -0.00524
# Poissons Ratio (z) = 0.12115 -0.00674
#
# Static dielectric constant tensor:
#      x y z
#    x 1.827370 0.000000 0.000000 
#    y 0.000000 1.902800 0.000000 
#    z 0.000000 0.000000 1.980310 
# 
# From -- ./inp_files/30630.got.cif
#   From: 2010.05.17/outbox.cif.g08.bks.cpg/sg23_16_cif.got.tgz:30630.got - 2010.06.04 12:02:01.
