data_PCOD9330366
_publ_section_title
;
Structure prediction by ZEFSAII (Michael W. Deem and Ramdas Pophale) SiO2 
 PCOD9330366
Probable space group: I 2 2 2
;
_chemical_formula_sum "Si O2"
_cell_formula_units_Z 34
_cell_length_a 13.903045
_cell_length_b 6.916808
_cell_length_c 15.935142
_cell_angle_alpha 90.000000
_cell_angle_beta 90.000000
_cell_angle_gamma 90.000000
_cell_volume 1532.398036
_symmetry_space_group_name_H-M "I 2 2 2"
_symmetry_group_IT_number 23
_symmetry_cell_setting 'orthorhombic'
loop_
_space_group_symop_operation_xyz
x,y,z
-x,-y,z
x,-y,-z
-x,y,-z
1/2+x,1/2+y,1/2+z
1/2-x,1/2-y,1/2+z
1/2+x,1/2-y,1/2-z
1/2-x,1/2+y,1/2-z
loop_
_atom_site_type_symbol
_atom_site_label
_atom_site_fract_x
_atom_site_fract_y
_atom_site_fract_z
Si Si1 0.650162 0.268683 0.201846
Si Si2 0.176141 0.000000 0.000000
Si Si3 0.849518 0.774661 0.492615
Si Si4 0.000000 0.500000 0.789775
Si Si5 0.870411 0.137265 0.180599
Si Si6 0.000000 0.500000 0.500000
O O1 0.624244 0.251096 0.104483
O O2 0.590049 0.098147 0.243559
O O3 0.765362 0.231532 0.200827
O O4 0.621410 0.470487 0.247598
O O5 0.246425 0.815661 0.988793
O O6 0.127323 0.966751 0.089476
O O7 0.926308 0.648611 0.544174
O O8 0.851473 0.000000 0.500000
O O9 0.052010 0.309302 0.827884
#
# Coordination Sequence:
#
# PCOD9330366 Si02
#       6
#     8   4   8   4   8   2
#     4  11  24  43  69 101 139 183 238 300 355 431
#     4   9  24  43  65  98 137 184 234 298 348 430
#     4  10  22  37  64  96 135 184 226 285 361 418
#     4  12  25  44  73 106 138 194 240 297 364 429
#     4  11  24  45  72 102 146 187 243 296 364 429
#     4  10  20  36  52  92 142 172 222 280 340 436
#
# _framework density 22.187446999999999
#
# number of rings (size 3 to 8) (size 9 to 14) (size 15 to 20)
#    0.000    1.412    2.353    1.765    3.294    5.647 
#    0.000    3.529    0.000    0.000    0.000    0.000 
#    0.000    0.000    0.000    0.000    0.000    0.000 
#
# Total GULP energy -94726.049389 kJ/mol
# GULP energy per Si atom -5572.120552 kJ/mol
# Density = 2.213695 g / cm^3
# Si number density = 22.187447 Si / 1000 Ang^3
#
#
#
# Elastic Constant Matrix: (Units=GPa)
#
#
# Indices 1 2 3 4 5 6 
#
# 1 95.1679 49.1200 45.2398 0.0000 0.0000 0.0000
# 2 49.1200 193.8824 66.1022 0.0000 0.0000 0.0000
# 3 45.2398 66.1022 106.5573 0.0000 0.0000 0.0000
# 4 0.0000 0.0000 0.0000 23.7666 0.0000 0.0000
# 5 0.0000 0.0000 0.0000 0.0000 43.8825 0.0000
# 6 0.0000 0.0000 0.0000 0.0000 0.0000 10.3182
#
#
#
# Elastic Compliance Matrix: (Units=1/GPa)
#
#
# Indices 1 2 3 4 5 6 
#
# 1 0.013687 -0.001885 -0.004642 0.000000 0.000000 0.000000
# 2 -0.001885 0.006801 -0.003419 0.000000 0.000000 0.000000
# 3 -0.004642 -0.003419 0.013476 0.000000 0.000000 0.000000
# 4 0.000000 0.000000 0.000000 0.042076 0.000000 0.000000
# 5 0.000000 0.000000 0.000000 0.000000 0.022788 0.000000
# 6 0.000000 0.000000 0.000000 0.000000 0.000000 0.096916
#
#
# Mechanical properties :
#
#
# Convention : Reuss Voigt Hill
#
# Bulk Modulus (GPa) = 71.05564 79.61462 75.33513
# Shear Modulus (GPa) = 22.69366 31.26984 26.98175
#
# Velocity S-wave (km/s) = 3.20162 3.75820 3.49102
# Velocity P-wave (km/s) = 6.76475 7.40221 7.09065
#
# Compressibility (1/GPa) = 0.01407348
#
# Stress axis : x y z
#
# Youngs Moduli (GPa) = 73.06096 147.03991 74.20652
#
# Poissons Ratio (x) = 0.27719 0.34444
# Poissons Ratio (y) = 0.13773 0.25368
# Poissons Ratio (z) = 0.33912 0.50266
#
# Static dielectric constant tensor:
#      x y z
#    x 1.861490 0.000000 0.000000 
#    y 0.000000 0.375800 0.000000 
#    z 0.000000 0.000000 1.853170 
# 
# From -- ./inp_files/19035.got.cif
#   From: 2010.05.17/outbox.cif.g08.bks.cpg/sg23_10_cif.got.tgz:19035.got - 2010.06.04 12:02:01.
