data_PCOD9330080
_publ_section_title
;
Structure prediction by ZEFSAII (Michael W. Deem and Ramdas Pophale) SiO2 
 PCOD9330080
Probable space group: I 2 2 2
;
_chemical_formula_sum "Si O2"
_cell_formula_units_Z 48
_cell_length_a 17.456307
_cell_length_b 12.646873
_cell_length_c 9.571422
_cell_angle_alpha 90.000000
_cell_angle_beta 90.000000
_cell_angle_gamma 90.000000
_cell_volume 2113.060798
_symmetry_space_group_name_H-M "I 2 2 2"
_symmetry_group_IT_number 23
_symmetry_cell_setting 'orthorhombic'
loop_
_space_group_symop_operation_xyz
x,y,z
-x,-y,z
x,-y,-z
-x,y,-z
1/2+x,1/2+y,1/2+z
1/2-x,1/2-y,1/2+z
1/2+x,1/2-y,1/2-z
1/2-x,1/2+y,1/2-z
loop_
_atom_site_type_symbol
_atom_site_label
_atom_site_fract_x
_atom_site_fract_y
_atom_site_fract_z
Si Si1 0.981309 0.321020 0.153169
Si Si2 0.898451 0.119912 0.023767
Si Si3 0.153857 0.344388 0.643860
Si Si4 0.793599 0.113399 0.276419
Si Si5 0.681911 0.386416 0.240864
Si Si6 0.363561 0.830939 0.169893
O O1 0.951974 0.201314 0.109048
O O2 0.911487 0.369051 0.241999
O O3 0.054904 0.328231 0.253312
O O4 0.000000 0.368105 0.000000
O O5 0.821187 0.116824 0.114969
O O6 0.873714 0.147893 0.867828
O O7 0.924532 0.000000 0.000000
O O8 0.170727 0.217849 0.656063
O O9 0.233779 0.392774 0.693767
O O10 0.131882 0.376052 0.486767
O O11 0.701602 0.119243 0.270920
O O12 0.829210 0.001804 0.324750
O O13 0.671075 0.286849 0.143096
#
# Coordination Sequence:
#
# PCOD9330080 Si02
#       6
#     8   8   8   8   8   8
#     4  11  22  38  56  85 120 166 195 244 306 375
#     4   9  17  35  59  86 109 148 205 248 284 359
#     4  10  22  37  59  90 120 153 203 256 306 356
#     4   9  20  36  61  88 115 155 207 246 300 361
#     4  10  19  37  63  87 115 156 204 256 297 360
#     4  11  21  36  60  88 126 155 197 259 307 354
#
# _framework density 22.715862000000001
#
# number of rings (size 3 to 8) (size 9 to 14) (size 15 to 20)
#    0.000    2.000    3.333    0.500    0.000    1.000 
#    3.000    0.833    0.000    5.000    0.000    0.000 
#    0.000    0.000    0.000    0.000    0.000    0.000 
#
# Total GULP energy -133761.219442 kJ/mol
# GULP energy per Si atom -5573.384143 kJ/mol
# Density = 2.266416 g / cm^3
# Si number density = 22.715862 Si / 1000 Ang^3
#
#
#
# Elastic Constant Matrix: (Units=GPa)
#
#
# Indices 1 2 3 4 5 6 
#
# 1 144.0993 -15.6116 43.5278 0.0000 0.0000 0.0000
# 2 -15.6116 81.2283 -7.2418 0.0000 0.0000 0.0000
# 3 43.5278 -7.2418 113.4896 0.0000 0.0000 0.0000
# 4 0.0000 0.0000 0.0000 -11.6573 0.0000 0.0000
# 5 0.0000 0.0000 0.0000 0.0000 48.7583 0.0000
# 6 0.0000 0.0000 0.0000 0.0000 0.0000 -3.5013
#
#
#
# Elastic Compliance Matrix: (Units=1/GPa)
#
#
# Indices 1 2 3 4 5 6 
#
# 1 0.007977 0.001268 -0.002978 0.000000 0.000000 0.000000
# 2 0.001268 0.012583 0.000317 0.000000 0.000000 0.000000
# 3 -0.002978 0.000317 0.009974 0.000000 0.000000 0.000000
# 4 0.000000 0.000000 0.000000 -0.085783 0.000000 0.000000
# 5 0.000000 0.000000 0.000000 0.000000 0.020509 0.000000
# 6 0.000000 0.000000 0.000000 0.000000 0.000000 -0.285610
#
#
# Mechanical properties :
#
#
# Convention : Reuss Voigt Hill
#
# Bulk Modulus (GPa) = 36.04244 42.24067 39.14156
# Shear Modulus (GPa) = -16.21725 27.92945 5.85610
#
# Velocity S-wave (km/s) = -2.67482 3.51025 1.60735
# Velocity P-wave (km/s) = 2.52221 5.92155 4.55117
#
# Compressibility (1/GPa) = 0.02774507
#
# Stress axis : x y z
#
# Youngs Moduli (GPa) = 125.36527 79.47341 100.26109
#
# Poissons Ratio (x) = -0.10073 0.29863
# Poissons Ratio (y) = -0.15890 -0.03176
# Poissons Ratio (z) = 0.37340 -0.02517
#
# Static dielectric constant tensor:
#      x y z
#    x 1.862730 0.000000 0.000000 
#    y 0.000000 1.917430 0.000000 
#    z 0.000000 0.000000 1.873170 
# 
# From -- ./inp_files/11057.got.cif
#   From: 2010.05.17/outbox.cif.g08.bks.cpg/sg23_6_cif.got.tgz:11057.got - 2010.06.04 12:02:01.
