data_PCOD9330947
_publ_section_title
;
Structure prediction by ZEFSAII (Michael W. Deem and Ramdas Pophale) SiO2 
 PCOD9330947
Probable space group: I 2 2 2
;
_chemical_formula_sum "Si O2"
_cell_formula_units_Z 56
_cell_length_a 8.601241
_cell_length_b 22.075425
_cell_length_c 13.532958
_cell_angle_alpha 90.000000
_cell_angle_beta 90.000000
_cell_angle_gamma 90.000000
_cell_volume 2569.584618
_symmetry_space_group_name_H-M "I 2 2 2"
_symmetry_group_IT_number 23
_symmetry_cell_setting 'orthorhombic'
loop_
_space_group_symop_operation_xyz
x,y,z
-x,-y,z
x,-y,-z
-x,y,-z
1/2+x,1/2+y,1/2+z
1/2-x,1/2-y,1/2+z
1/2+x,1/2-y,1/2-z
1/2-x,1/2+y,1/2-z
loop_
_atom_site_type_symbol
_atom_site_label
_atom_site_fract_x
_atom_site_fract_y
_atom_site_fract_z
Si Si1 0.710920 0.452998 0.587758
Si Si2 0.000000 0.605893 0.500000
Si Si3 0.593762 0.925210 0.603225
Si Si4 0.171712 0.985737 0.699413
Si Si5 0.000000 0.149507 0.000000
Si Si6 0.783246 0.701259 0.611649
Si Si7 0.309245 0.857294 0.685379
Si Si8 0.327525 0.669182 0.978211
O O1 0.676417 0.500000 0.500000
O O2 0.889330 0.433317 0.570528
O O3 0.682236 0.484163 0.692257
O O4 0.604026 0.394463 0.568879
O O5 0.110424 0.648750 0.435667
O O6 0.500000 0.932038 0.500000
O O7 0.682304 0.985478 0.639709
O O8 0.475795 0.890834 0.676736
O O9 0.733959 0.878724 0.585627
O O10 0.193920 0.913741 0.704947
O O11 0.000000 0.000000 0.657777
O O12 0.112137 0.189194 0.068247
O O13 0.794815 0.690855 0.727912
O O14 0.837205 0.766569 0.575582
O O15 0.265405 0.827023 0.581436
O O16 0.500000 0.646864 0.000000
#
# Coordination Sequence:
#
# PCOD9330947 Si02
#       8
#     8   4   8   8   4   8   8   8
#     4  11  21  37  63  98 143 177 217 269 330 405
#     4  10  21  38  60  98 130 185 218 272 330 396
#     4  10  25  46  69  99 135 175 224 282 346 408
#     4  12  23  41  70 103 138 178 222 278 343 410
#     4  10  23  38  64  98 138 179 222 266 340 394
#     4  11  23  44  66  94 138 176 227 279 330 397
#     4  11  25  43  69 100 134 178 229 275 343 406
#     4  11  25  47  67  95 134 173 231 286 338 397
#
# _framework density 21.793403999999999
#
# number of rings (size 3 to 8) (size 9 to 14) (size 15 to 20)
#    0.000    1.143    0.714    6.000    3.000    6.286 
#    5.143    3.571    0.000    0.000    0.000    0.000 
#    0.000    0.000    0.000    0.000    0.000    0.000 
#
# Total GULP energy -156737.094688 kJ/mol
# GULP energy per Si atom -5597.753382 kJ/mol
# Density = 2.174380 g / cm^3
# Si number density = 21.793404 Si / 1000 Ang^3
#
#
#
# Elastic Constant Matrix: (Units=GPa)
#
#
# Indices 1 2 3 4 5 6 
#
# 1 120.4990 12.2096 1.4369 0.0000 0.0000 0.0000
# 2 12.2096 54.8718 14.9755 0.0000 0.0000 0.0000
# 3 1.4369 14.9755 68.1820 0.0000 0.0000 0.0000
# 4 0.0000 0.0000 0.0000 31.8462 0.0000 0.0000
# 5 0.0000 0.0000 0.0000 0.0000 22.0896 0.0000
# 6 0.0000 0.0000 0.0000 0.0000 0.0000 26.8930
#
#
#
# Elastic Compliance Matrix: (Units=1/GPa)
#
#
# Indices 1 2 3 4 5 6 
#
# 1 0.008494 -0.001959 0.000251 0.000000 0.000000 0.000000
# 2 -0.001959 0.019838 -0.004316 0.000000 0.000000 0.000000
# 3 0.000251 -0.004316 0.015609 0.000000 0.000000 0.000000
# 4 0.000000 0.000000 0.000000 0.031401 0.000000 0.000000
# 5 0.000000 0.000000 0.000000 0.000000 0.045270 0.000000
# 6 0.000000 0.000000 0.000000 0.000000 0.000000 0.037184
#
#
# Mechanical properties :
#
#
# Convention : Reuss Voigt Hill
#
# Bulk Modulus (GPa) = 31.35307 33.42187 32.38747
# Shear Modulus (GPa) = 27.70458 30.49446 29.09952
#
# Velocity S-wave (km/s) = 3.56931 3.74472 3.65806
# Velocity P-wave (km/s) = 5.60396 5.83663 5.72148
#
# Compressibility (1/GPa) = 0.03189480
#
# Stress axis : x y z
#
# Youngs Moduli (GPa) = 117.72616 50.40823 64.06445
#
# Poissons Ratio (x) = 0.09873 -0.01609
# Poissons Ratio (y) = 0.23058 0.27650
# Poissons Ratio (z) = -0.02957 0.21756
#
# Static dielectric constant tensor:
#      x y z
#    x 1.824070 0.000000 0.000000 
#    y 0.000000 1.765930 0.000000 
#    z 0.000000 0.000000 1.779320 
# 
# From -- ./inp_files/20243.got.cif
#   From: 2010.05.17/outbox.cif.g08.bks.cpg/sg23_11_cif.got.tgz:20243.got - 2010.06.04 12:02:01.
