data_PCOD9330387
_publ_section_title
;
Structure prediction by ZEFSAII (Michael W. Deem and Ramdas Pophale) SiO2 
 PCOD9330387
Probable space group: I 2 2 2
;
_chemical_formula_sum "Si O2"
_cell_formula_units_Z 48
_cell_length_a 17.552588
_cell_length_b 13.764116
_cell_length_c 9.098191
_cell_angle_alpha 90.000000
_cell_angle_beta 90.000000
_cell_angle_gamma 90.000000
_cell_volume 2198.085255
_symmetry_space_group_name_H-M "I 2 2 2"
_symmetry_group_IT_number 23
_symmetry_cell_setting 'orthorhombic'
loop_
_space_group_symop_operation_xyz
x,y,z
-x,-y,z
x,-y,-z
-x,y,-z
1/2+x,1/2+y,1/2+z
1/2-x,1/2-y,1/2+z
1/2+x,1/2-y,1/2-z
1/2-x,1/2+y,1/2-z
loop_
_atom_site_type_symbol
_atom_site_label
_atom_site_fract_x
_atom_site_fract_y
_atom_site_fract_z
Si Si1 0.516698 0.637082 0.172704
Si Si2 0.230712 0.299513 0.989362
Si Si3 0.390408 0.470701 0.669177
Si Si4 0.324472 0.828115 0.215464
Si Si5 0.713811 0.051536 0.755845
Si Si6 0.623298 0.783477 0.075803
O O1 0.686145 0.696995 0.065350
O O2 0.442837 0.617413 0.272010
O O3 0.577904 0.559841 0.233656
O O4 0.555231 0.742904 0.171451
O O5 0.174055 0.280979 0.123372
O O6 0.249493 0.215167 0.870897
O O7 0.211213 0.395879 0.901602
O O8 0.402843 0.500000 0.500000
O O9 0.301825 0.449981 0.695218
O O10 0.335331 0.877810 0.859992
O O11 0.390059 0.805286 0.096883
O O12 0.684172 0.942393 0.761582
O O13 0.500000 0.617967 0.000000
#
# Coordination Sequence:
#
# PCOD9330387 Si02
#       6
#     8   8   8   8   8   8
#     4  11  23  42  60  90 134 183 228 270 344 425
#     4  10  20  36  56  93 132 173 215 274 350 399
#     4  11  24  39  65  98 133 180 229 286 357 415
#     4  10  21  35  58  93 131 171 224 273 350 396
#     4  12  22  39  66  98 138 174 224 295 342 418
#     4  10  21  38  59  91 131 180 224 275 340 401
#
# _framework density 21.837187
#
# number of rings (size 3 to 8) (size 9 to 14) (size 15 to 20)
#    1.000    0.333    1.667    6.000    0.000    1.333 
#    0.000    1.667    0.000    2.000    0.000    0.000 
#    0.000    5.333    0.000    0.000    0.000    0.000 
#
# Total GULP energy -133892.550692 kJ/mol
# GULP energy per Si atom -5578.856279 kJ/mol
# Density = 2.178748 g / cm^3
# Si number density = 21.837187 Si / 1000 Ang^3
#
#
#
# Elastic Constant Matrix: (Units=GPa)
#
#
# Indices 1 2 3 4 5 6 
#
# 1 70.7467 27.3324 25.9690 0.0000 0.0000 0.0000
# 2 27.3324 102.6456 32.7033 0.0000 0.0000 0.0000
# 3 25.9690 32.7033 142.8964 0.0000 0.0000 0.0000
# 4 0.0000 0.0000 0.0000 30.0374 0.0000 0.0000
# 5 0.0000 0.0000 0.0000 0.0000 18.2812 0.0000
# 6 0.0000 0.0000 0.0000 0.0000 0.0000 36.1034
#
#
#
# Elastic Compliance Matrix: (Units=1/GPa)
#
#
# Indices 1 2 3 4 5 6 
#
# 1 0.016335 -0.003671 -0.002128 0.000000 0.000000 0.000000
# 2 -0.003671 0.011334 -0.001927 0.000000 0.000000 0.000000
# 3 -0.002128 -0.001927 0.007826 0.000000 0.000000 0.000000
# 4 0.000000 0.000000 0.000000 0.033292 0.000000 0.000000
# 5 0.000000 0.000000 0.000000 0.000000 0.054701 0.000000
# 6 0.000000 0.000000 0.000000 0.000000 0.000000 0.027698
#
#
# Mechanical properties :
#
#
# Convention : Reuss Voigt Hill
#
# Bulk Modulus (GPa) = 49.89681 54.25536 52.07609
# Shear Modulus (GPa) = 28.84865 32.23668 30.54267
#
# Velocity S-wave (km/s) = 3.63861 3.84634 3.74392
# Velocity P-wave (km/s) = 6.36802 6.68020 6.52598
#
# Compressibility (1/GPa) = 0.02004136
#
# Stress axis : x y z
#
# Youngs Moduli (GPa) = 61.21964 88.23223 127.78283
#
# Poissons Ratio (x) = 0.32394 0.27196
# Poissons Ratio (y) = 0.22477 0.24619
# Poissons Ratio (z) = 0.13029 0.16999
#
# Static dielectric constant tensor:
#      x y z
#    x 1.829130 0.000000 0.000000 
#    y 0.000000 1.817690 0.000000 
#    z 0.000000 0.000000 1.841690 
# 
# From -- ./inp_files/9971.got.cif
#   From: 2010.05.17/outbox.cif.g08.bks.cpg/sg23_5_cif.got.tgz:9971.got - 2010.06.04 12:02:01.
