data_PCOD9330312
_publ_section_title
;
Structure prediction by ZEFSAII (Michael W. Deem and Ramdas Pophale) SiO2 
 PCOD9330312
Probable space group: I 2 2 2
;
_chemical_formula_sum "Si O2"
_cell_formula_units_Z 64
_cell_length_a 14.933459
_cell_length_b 8.769391
_cell_length_c 25.193779
_cell_angle_alpha 90.000000
_cell_angle_beta 90.000000
_cell_angle_gamma 90.000000
_cell_volume 3299.310306
_symmetry_space_group_name_H-M "I 2 2 2"
_symmetry_group_IT_number 23
_symmetry_cell_setting 'orthorhombic'
loop_
_space_group_symop_operation_xyz
x,y,z
-x,-y,z
x,-y,-z
-x,y,-z
1/2+x,1/2+y,1/2+z
1/2-x,1/2-y,1/2+z
1/2+x,1/2-y,1/2-z
1/2-x,1/2+y,1/2-z
loop_
_atom_site_type_symbol
_atom_site_label
_atom_site_fract_x
_atom_site_fract_y
_atom_site_fract_z
Si Si1 0.479928 0.257194 0.436576
Si Si2 0.338731 0.679550 0.295033
Si Si3 0.355637 0.643047 0.649355
Si Si4 0.204979 0.868918 0.367089
Si Si5 0.474862 0.824893 0.722538
Si Si6 0.139354 0.541389 0.938607
Si Si7 0.018459 0.819942 0.335969
Si Si8 0.679637 0.709614 0.830090
O O1 0.500000 0.292038 0.500000
O O2 0.424367 0.378584 0.400594
O O3 0.576493 0.184846 0.422972
O O4 0.414713 0.111771 0.423370
O O5 0.348652 0.503799 0.312362
O O6 0.264198 0.755678 0.331872
O O7 0.438186 0.744861 0.302063
O O8 0.317131 0.724667 0.233916
O O9 0.393807 0.781712 0.684796
O O10 0.253738 0.693767 0.638514
O O11 0.263789 0.916492 0.417296
O O12 0.104163 0.806954 0.374044
O O13 0.195505 0.030325 0.337681
O O14 0.455774 0.755053 0.780085
O O15 0.500000 0.000000 0.726797
O O16 0.146314 0.500000 0.000000
O O17 0.921038 0.753144 0.349787
O O18 0.000000 0.000000 0.327286
#
# Coordination Sequence:
#
# PCOD9330312 Si02
#       8
#     8   8   8   8   8   8   8   8
#     4   9  19  35  57  85 109 142 191 249 297 354
#     4  11  23  34  51  86 124 155 200 238 291 365
#     4  12  21  34  57  83 116 159 197 248 298 357
#     4  11  19  35  56  79 114 157 195 240 298 348
#     4  11  22  34  53  78 114 157 200 236 287 360
#     4   9  18  34  59  86 107 140 194 245 302 358
#     4   9  20  36  53  76 114 155 191 245 286 338
#     4  10  20  35  54  81 116 163 201 235 289 352
#
# _framework density 19.397993
#
# number of rings (size 3 to 8) (size 9 to 14) (size 15 to 20)
#    0.000    1.750    1.250    6.375    1.750    3.000 
#    0.000    0.000    0.000   18.375    0.000    0.000 
#    0.000    0.000   25.500    0.000    0.000    0.000 
#
# Total GULP energy -178164.669430 kJ/mol
# GULP energy per Si atom -5567.645920 kJ/mol
# Density = 1.935384 g / cm^3
# Si number density = 19.397993 Si / 1000 Ang^3
#
#
#
# Elastic Constant Matrix: (Units=GPa)
#
#
# Indices 1 2 3 4 5 6 
#
# 1 140.9171 27.9282 39.2861 0.0000 0.0000 0.0000
# 2 27.9282 19.0222 5.3841 0.0000 0.0000 0.0000
# 3 39.2861 5.3841 45.5923 0.0000 0.0000 0.0000
# 4 0.0000 0.0000 0.0000 31.4713 0.0000 0.0000
# 5 0.0000 0.0000 0.0000 0.0000 21.6948 0.0000
# 6 0.0000 0.0000 0.0000 0.0000 0.0000 21.6265
#
#
#
# Elastic Compliance Matrix: (Units=1/GPa)
#
#
# Indices 1 2 3 4 5 6 
#
# 1 0.012892 -0.016330 -0.009181 0.000000 0.000000 0.000000
# 2 -0.016330 0.075072 0.005206 0.000000 0.000000 0.000000
# 3 -0.009181 0.005206 0.029229 0.000000 0.000000 0.000000
# 4 0.000000 0.000000 0.000000 0.031775 0.000000 0.000000
# 5 0.000000 0.000000 0.000000 0.000000 0.046094 0.000000
# 6 0.000000 0.000000 0.000000 0.000000 0.000000 0.046240
#
#
# Mechanical properties :
#
#
# Convention : Reuss Voigt Hill
#
# Bulk Modulus (GPa) = 13.05753 38.96983 26.01368
# Shear Modulus (GPa) = 16.26338 23.82075 20.04206
#
# Velocity S-wave (km/s) = 2.89866 3.50809 3.21783
# Velocity P-wave (km/s) = 4.23663 6.04501 5.21973
#
# Compressibility (1/GPa) = 0.07658415
#
# Stress axis : x y z
#
# Youngs Moduli (GPa) = 77.56653 13.32059 34.21203
#
# Poissons Ratio (x) = 0.21752 0.31408
# Poissons Ratio (y) = 1.26663 -0.17809
# Poissons Ratio (z) = 0.71210 -0.06934
#
# Static dielectric constant tensor:
#      x y z
#    x 1.649470 0.000000 0.000000 
#    y 0.000000 1.754570 0.000000 
#    z 0.000000 0.000000 1.727280 
# 
# From -- ./inp_files/28553.got.cif
#   From: 2010.05.17/outbox.cif.g08.bks.cpg/sg23_15_cif.got.tgz:28553.got - 2010.06.04 12:02:01.
