data_PCOD9330368
_publ_section_title
;
Structure prediction by ZEFSAII (Michael W. Deem and Ramdas Pophale) SiO2 
 PCOD9330368
Probable space group: I 2 2 2
;
_chemical_formula_sum "Si O2"
_cell_formula_units_Z 64
_cell_length_a 10.038598
_cell_length_b 13.612453
_cell_length_c 26.373001
_cell_angle_alpha 90.000000
_cell_angle_beta 90.000000
_cell_angle_gamma 90.000000
_cell_volume 3603.869096
_symmetry_space_group_name_H-M "I 2 2 2"
_symmetry_group_IT_number 23
_symmetry_cell_setting 'orthorhombic'
loop_
_space_group_symop_operation_xyz
x,y,z
-x,-y,z
x,-y,-z
-x,y,-z
1/2+x,1/2+y,1/2+z
1/2-x,1/2-y,1/2+z
1/2+x,1/2-y,1/2-z
1/2-x,1/2+y,1/2-z
loop_
_atom_site_type_symbol
_atom_site_label
_atom_site_fract_x
_atom_site_fract_y
_atom_site_fract_z
Si Si1 0.451504 0.109918 0.751581
Si Si2 0.846981 0.995793 0.651777
Si Si3 0.225438 0.295268 0.108133
Si Si4 0.866182 0.885101 0.741609
Si Si5 0.973785 0.270291 0.343382
Si Si6 0.761209 0.194189 0.606510
Si Si7 0.527456 0.271603 0.670842
Si Si8 0.660993 0.883564 0.500063
O O1 0.292376 0.134539 0.749581
O O2 0.497455 0.137103 0.808275
O O3 0.521209 0.182229 0.711322
O O4 0.500000 0.000000 0.739716
O O5 0.765897 0.900514 0.633185
O O6 0.860170 0.988933 0.712589
O O7 0.766163 0.088819 0.633992
O O8 0.000000 0.000000 0.631241
O O9 0.349090 0.225036 0.119562
O O10 0.202121 0.324929 0.050374
O O11 0.102810 0.244907 0.136919
O O12 0.935908 0.813986 0.699084
O O13 0.945464 0.865829 0.793343
O O14 0.097681 0.239979 0.377999
O O15 0.649418 0.259184 0.632845
O O16 0.724692 0.169507 0.548720
O O17 0.500000 0.882226 0.500000
O O18 0.700712 0.000000 0.500000
#
# Coordination Sequence:
#
# PCOD9330368 Si02
#       8
#     8   8   8   8   8   8   8   8
#     4  11  21  36  57  85 109 152 195 237 289 354
#     4  11  20  35  53  77 113 149 189 234 275 338
#     4  11  21  39  52  80 115 150 196 232 281 342
#     4  10  20  36  53  81 112 151 196 232 282 349
#     4  10  22  38  54  79 117 149 190 238 289 343
#     4  12  21  36  58  76 113 162 182 237 284 340
#     4  11  22  34  55  76 117 153 189 231 286 334
#     4  11  23  34  54  84 114 149 199 238 281 344
#
# _framework density 17.758692
#
# number of rings (size 3 to 8) (size 9 to 14) (size 15 to 20)
#    0.000    1.125    8.750    0.750    0.000    0.500 
#    2.250    1.250    0.000    0.000    0.000    1.750 
#    0.000    1.000    0.000    0.000    0.000    0.000 
#
# Total GULP energy -178234.153582 kJ/mol
# GULP energy per Si atom -5569.817299 kJ/mol
# Density = 1.771827 g / cm^3
# Si number density = 17.758692 Si / 1000 Ang^3
#
#
#
# Elastic Constant Matrix: (Units=GPa)
#
#
# Indices 1 2 3 4 5 6 
#
# 1 114.2544 8.1961 56.0035 0.0000 0.0000 0.0000
# 2 8.1961 22.4004 28.5935 0.0000 0.0000 0.0000
# 3 56.0035 28.5935 154.2321 0.0000 0.0000 0.0000
# 4 0.0000 0.0000 0.0000 28.8928 0.0000 0.0000
# 5 0.0000 0.0000 0.0000 0.0000 26.6586 0.0000
# 6 0.0000 0.0000 0.0000 0.0000 0.0000 16.1530
#
#
#
# Elastic Compliance Matrix: (Units=1/GPa)
#
#
# Indices 1 2 3 4 5 6 
#
# 1 0.010679 0.001366 -0.004131 0.000000 0.000000 0.000000
# 2 0.001366 0.058656 -0.011370 0.000000 0.000000 0.000000
# 3 -0.004131 -0.011370 0.010092 0.000000 0.000000 0.000000
# 4 0.000000 0.000000 0.000000 0.034611 0.000000 0.000000
# 5 0.000000 0.000000 0.000000 0.000000 0.037511 0.000000
# 6 0.000000 0.000000 0.000000 0.000000 0.000000 0.061908
#
#
# Mechanical properties :
#
#
# Convention : Reuss Voigt Hill
#
# Bulk Modulus (GPa) = 19.54810 52.94146 36.24478
# Shear Modulus (GPa) = 19.32140 27.54713 23.43427
#
# Velocity S-wave (km/s) = 3.30206 3.94279 3.63656
# Velocity P-wave (km/s) = 5.05664 7.11363 6.17144
#
# Compressibility (1/GPa) = 0.05115586
#
# Stress axis : x y z
#
# Youngs Moduli (GPa) = 93.63928 17.04850 99.09145
#
# Poissons Ratio (x) = -0.02328 0.40934
# Poissons Ratio (y) = -0.12787 1.12670
# Poissons Ratio (z) = 0.38682 0.19385
#
# Static dielectric constant tensor:
#      x y z
#    x 1.717550 0.000000 0.000000 
#    y 0.000000 1.649760 0.000000 
#    z 0.000000 0.000000 1.630390 
# 
# From -- ./inp_files/28084.got.cif
#   From: 2010.05.17/outbox.cif.g08.bks.cpg/sg23_15_cif.got.tgz:28084.got - 2010.06.04 12:02:01.
