data_PCOD9330599
_publ_section_title
;
Structure prediction by ZEFSAII (Michael W. Deem and Ramdas Pophale) SiO2 
 PCOD9330599
Probable space group: I 2 2 2
;
_chemical_formula_sum "Si O2"
_cell_formula_units_Z 48
_cell_length_a 28.924698
_cell_length_b 13.657984
_cell_length_c 5.634652
_cell_angle_alpha 90.000000
_cell_angle_beta 90.000000
_cell_angle_gamma 90.000000
_cell_volume 2225.986529
_symmetry_space_group_name_H-M "I 2 2 2"
_symmetry_group_IT_number 23
_symmetry_cell_setting 'orthorhombic'
loop_
_space_group_symop_operation_xyz
x,y,z
-x,-y,z
x,-y,-z
-x,y,-z
1/2+x,1/2+y,1/2+z
1/2-x,1/2-y,1/2+z
1/2+x,1/2-y,1/2-z
1/2-x,1/2+y,1/2-z
loop_
_atom_site_type_symbol
_atom_site_label
_atom_site_fract_x
_atom_site_fract_y
_atom_site_fract_z
Si Si1 0.187627 0.000000 0.500000
Si Si2 0.018056 0.885446 0.746282
Si Si3 0.846181 0.724838 0.859855
Si Si4 0.664020 0.164975 0.155090
Si Si5 0.882639 0.093935 0.874641
Si Si6 0.739407 0.660846 0.855762
Si Si7 0.272712 0.000000 0.000000
O O1 0.154904 0.050621 0.306089
O O2 0.221145 0.090842 0.567947
O O3 0.073085 0.866439 0.739072
O O4 0.000000 0.842152 0.500000
O O5 0.000000 0.000000 0.742565
O O6 0.000000 0.846592 0.000000
O O7 0.859914 0.685727 0.599713
O O8 0.790486 0.705858 0.865364
O O9 0.863659 0.670980 0.099402
O O10 0.861164 0.835080 0.926012
O O11 0.701828 0.254039 0.165973
O O12 0.691845 0.064163 0.155544
O O13 0.903750 0.000000 0.000000
O O14 0.744132 0.580806 0.644957
#
# Coordination Sequence:
#
# PCOD9330599 Si02
#       7
#     4   8   8   8   8   8   4
#     4  12  24  36  59  86 118 170 227 256 324 358
#     4  10  20  39  61  83 120 152 197 255 316 391
#     4  11  24  41  58  81 125 156 209 277 311 360
#     4  11  23  42  59  83 116 160 216 278 320 373
#     4  12  25  38  61  92 118 167 224 261 315 392
#     4  11  23  41  56  83 121 163 218 282 313 366
#     4  10  24  40  68  78 110 176 226 262 348 376
#
# _framework density 21.563473999999999
#
# number of rings (size 3 to 8) (size 9 to 14) (size 15 to 20)
#    0.000    1.000    3.333    5.000    1.167    3.333 
#    0.000    0.000    0.000    0.000    0.000    0.000 
#    0.000    0.000    0.000   40.500    2.667    2.333 
#
# Total GULP energy -133824.040417 kJ/mol
# GULP energy per Si atom -5576.001684 kJ/mol
# Density = 2.151439 g / cm^3
# Si number density = 21.563474 Si / 1000 Ang^3
#
#
#
# Elastic Constant Matrix: (Units=GPa)
#
#
# Indices 1 2 3 4 5 6 
#
# 1 70.8761 18.6176 26.6679 0.0000 0.0000 0.0000
# 2 18.6176 73.5075 15.8042 0.0000 0.0000 0.0000
# 3 26.6679 15.8042 175.5624 0.0000 0.0000 0.0000
# 4 0.0000 0.0000 0.0000 36.6302 0.0000 0.0000
# 5 0.0000 0.0000 0.0000 0.0000 68.7856 0.0000
# 6 0.0000 0.0000 0.0000 0.0000 0.0000 6.4435
#
#
#
# Elastic Compliance Matrix: (Units=1/GPa)
#
#
# Indices 1 2 3 4 5 6 
#
# 1 0.015829 -0.003561 -0.002084 0.000000 0.000000 0.000000
# 2 -0.003561 0.014674 -0.000780 0.000000 0.000000 0.000000
# 3 -0.002084 -0.000780 0.006083 0.000000 0.000000 0.000000
# 4 0.000000 0.000000 0.000000 0.027300 0.000000 0.000000
# 5 0.000000 0.000000 0.000000 0.000000 0.014538 0.000000
# 6 0.000000 0.000000 0.000000 0.000000 0.000000 0.155196
#
#
# Mechanical properties :
#
#
# Convention : Reuss Voigt Hill
#
# Bulk Modulus (GPa) = 42.13114 49.12502 45.62808
# Shear Modulus (GPa) = 19.65562 39.62893 29.64228
#
# Velocity S-wave (km/s) = 3.02242 4.29158 3.71165
# Velocity P-wave (km/s) = 5.63566 6.88389 6.29081
#
# Compressibility (1/GPa) = 0.02373541
#
# Stress axis : x y z
#
# Youngs Moduli (GPa) = 63.17692 68.14930 164.39993
#
# Poissons Ratio (x) = 0.24268 0.34258
# Poissons Ratio (y) = 0.22497 0.12823
# Poissons Ratio (z) = 0.13165 0.05316
#
# Static dielectric constant tensor:
#      x y z
#    x 1.797630 0.000000 0.000000 
#    y 0.000000 1.846430 0.000000 
#    z 0.000000 0.000000 1.981110 
# 
# From -- ./inp_files/4922.got.cif
#   From: 2010.05.17/outbox.cif.g08.bks.cpg/sg23_3_cif.got.tgz:4922.got - 2010.06.04 12:02:01.
