data_PCOD9330359
_publ_section_title
;
Structure prediction by ZEFSAII (Michael W. Deem and Ramdas Pophale) SiO2 
 PCOD9330359
Probable space group: I 2 2 2
;
_chemical_formula_sum "Si O2"
_cell_formula_units_Z 48
_cell_length_a 9.005270
_cell_length_b 17.777002
_cell_length_c 12.666246
_cell_angle_alpha 90.000000
_cell_angle_beta 90.000000
_cell_angle_gamma 90.000000
_cell_volume 2027.697559
_symmetry_space_group_name_H-M "I 2 2 2"
_symmetry_group_IT_number 23
_symmetry_cell_setting 'orthorhombic'
loop_
_space_group_symop_operation_xyz
x,y,z
-x,-y,z
x,-y,-z
-x,y,-z
1/2+x,1/2+y,1/2+z
1/2-x,1/2-y,1/2+z
1/2+x,1/2-y,1/2-z
1/2-x,1/2+y,1/2-z
loop_
_atom_site_type_symbol
_atom_site_label
_atom_site_fract_x
_atom_site_fract_y
_atom_site_fract_z
Si Si1 0.840600 0.873934 0.978005
Si Si2 0.114642 0.070485 0.741016
Si Si3 0.556604 0.285847 0.189413
Si Si4 0.892124 0.722681 0.882116
Si Si5 0.055801 0.423200 0.165328
Si Si6 0.431402 0.872080 0.889493
O O1 0.818829 0.902808 0.857057
O O2 0.847305 0.782712 0.970469
O O3 0.738312 0.887664 0.079677
O O4 0.000000 0.906302 0.000000
O O5 0.020407 0.134037 0.678298
O O6 0.267715 0.067941 0.675310
O O7 0.000000 0.000000 0.751437
O O8 0.732993 0.290140 0.174724
O O9 0.507937 0.266100 0.307638
O O10 0.484690 0.215355 0.125003
O O11 0.978826 0.645571 0.894737
O O12 0.000000 0.500000 0.119798
O O13 0.987751 0.411985 0.284457
O O14 0.500000 0.899096 0.000000
#
# Coordination Sequence:
#
# PCOD9330359 Si02
#       6
#     8   8   8   8   8   8
#     4  11  24  36  60  91 124 154 198 254 303 359
#     4  11  24  41  57  88 121 164 206 246 304 366
#     4  10  20  35  62  82 117 154 207 248 289 362
#     4  10  20  37  58  87 113 157 206 247 293 359
#     4  11  24  39  61  84 123 165 203 246 304 370
#     4  11  20  40  59  90 120 156 199 245 310 359
#
# _framework density 23.672167000000002
#
# number of rings (size 3 to 8) (size 9 to 14) (size 15 to 20)
#    0.000    1.333    3.333    4.000   14.000    0.667 
#    0.000    0.000    0.000    1.000    0.000    0.000 
#    0.000    0.000    0.000    0.000    0.000    0.000 
#
# Total GULP energy -133785.494615 kJ/mol
# GULP energy per Si atom -5574.395609 kJ/mol
# Density = 2.361829 g / cm^3
# Si number density = 23.672167 Si / 1000 Ang^3
#
#
#
# Elastic Constant Matrix: (Units=GPa)
#
#
# Indices 1 2 3 4 5 6 
#
# 1 189.8801 57.1759 44.8736 0.0000 0.0000 0.0000
# 2 57.1759 131.4706 0.9460 0.0000 0.0000 0.0000
# 3 44.8736 0.9460 85.2740 0.0000 0.0000 0.0000
# 4 0.0000 0.0000 0.0000 -2.0383 0.0000 0.0000
# 5 0.0000 0.0000 0.0000 0.0000 -27.2498 0.0000
# 6 0.0000 0.0000 0.0000 0.0000 0.0000 20.1006
#
#
#
# Elastic Compliance Matrix: (Units=1/GPa)
#
#
# Indices 1 2 3 4 5 6 
#
# 1 0.007051 -0.003040 -0.003677 0.000000 0.000000 0.000000
# 2 -0.003040 0.008917 0.001501 0.000000 0.000000 0.000000
# 3 -0.003677 0.001501 0.013645 0.000000 0.000000 0.000000
# 4 0.000000 0.000000 0.000000 -0.490614 0.000000 0.000000
# 5 0.000000 0.000000 0.000000 0.000000 -0.036697 0.000000
# 6 0.000000 0.000000 0.000000 0.000000 0.000000 0.049750
#
#
# Mechanical properties :
#
#
# Convention : Reuss Voigt Hill
#
# Bulk Modulus (GPa) = 52.13277 68.06838 60.10057
# Shear Modulus (GPa) = -11.59762 18.40445 3.40341
#
# Velocity S-wave (km/s) = -2.21583 2.79134 1.20035
# Velocity P-wave (km/s) = 3.94006 6.26146 5.23115
#
# Compressibility (1/GPa) = 0.01918179
#
# Stress axis : x y z
#
# Youngs Moduli (GPa) = 141.82994 112.13922 73.28710
#
# Poissons Ratio (x) = 0.34089 0.26944
# Poissons Ratio (y) = 0.43114 -0.10998
# Poissons Ratio (z) = 0.52145 -0.16829
#
# Static dielectric constant tensor:
#      x y z
#    x 2.685860 0.000000 0.000000 
#    y 0.000000 6.091900 0.000000 
#    z 0.000000 0.000000 2.004760 
# 
# From -- ./inp_files/9974.got.cif
#   From: 2010.05.17/outbox.cif.g08.bks.cpg/sg23_5_cif.got.tgz:9974.got - 2010.06.04 12:02:01.
