data_PCOD9330847
_publ_section_title
;
Structure prediction by ZEFSAII (Michael W. Deem and Ramdas Pophale) SiO2 
 PCOD9330847
Probable space group: I 2 2 2
;
_chemical_formula_sum "Si O2"
_cell_formula_units_Z 56
_cell_length_a 10.056790
_cell_length_b 20.469160
_cell_length_c 13.777503
_cell_angle_alpha 90.000000
_cell_angle_beta 90.000000
_cell_angle_gamma 90.000000
_cell_volume 2836.154703
_symmetry_space_group_name_H-M "I 2 2 2"
_symmetry_group_IT_number 23
_symmetry_cell_setting 'orthorhombic'
loop_
_space_group_symop_operation_xyz
x,y,z
-x,-y,z
x,-y,-z
-x,y,-z
1/2+x,1/2+y,1/2+z
1/2-x,1/2-y,1/2+z
1/2+x,1/2-y,1/2-z
1/2-x,1/2+y,1/2-z
loop_
_atom_site_type_symbol
_atom_site_label
_atom_site_fract_x
_atom_site_fract_y
_atom_site_fract_z
Si Si1 0.354461 0.337668 0.035588
Si Si2 0.954063 0.925773 0.690265
Si Si3 0.656630 0.423599 0.478922
Si Si4 0.854750 0.288128 0.826706
Si Si5 0.134771 0.304286 0.877311
Si Si6 0.189288 0.856886 0.776611
Si Si7 0.778700 0.845444 0.843675
O O1 0.380940 0.407119 0.089676
O O2 0.288505 0.295690 0.122230
O O3 0.500000 0.314911 0.000000
O O4 0.239434 0.331808 0.955339
O O5 0.868892 0.895781 0.779787
O O6 0.090880 0.886188 0.696583
O O7 0.000000 0.000000 0.701015
O O8 0.674698 0.500000 0.500000
O O9 0.500000 0.408308 0.500000
O O10 0.690867 0.403874 0.369189
O O11 0.741199 0.380714 0.554230
O O12 0.872882 0.211933 0.808570
O O13 0.843878 0.327386 0.726099
O O14 0.977685 0.313101 0.889978
O O15 0.174526 0.338745 0.776032
O O16 0.160812 0.226312 0.866535
#
# Coordination Sequence:
#
# PCOD9330847 Si02
#       7
#     8   8   8   8   8   8   8
#     4  11  23  39  62 100 126 162 215 267 331 378
#     4  11  21  39  63  92 128 165 220 270 310 380
#     4  11  20  33  58  90 123 158 208 261 311 369
#     4  10  22  38  64  90 134 164 202 266 330 395
#     4  11  21  39  62  91 137 163 206 267 330 401
#     4  11  21  36  60  93 125 165 212 255 326 380
#     4  10  21  36  60  93 127 166 214 257 327 378
#
# _framework density 19.745045000000001
#
# number of rings (size 3 to 8) (size 9 to 14) (size 15 to 20)
#    0.000    1.286    4.286    2.143    0.000    0.286 
#    0.000    0.714    0.000    8.571    7.429    0.000 
#    0.000    0.000    0.000    0.000    0.000    0.000 
#
# Total GULP energy -156053.104338 kJ/mol
# GULP energy per Si atom -5573.325155 kJ/mol
# Density = 1.970010 g / cm^3
# Si number density = 19.745045 Si / 1000 Ang^3
#
#
#
# Elastic Constant Matrix: (Units=GPa)
#
#
# Indices 1 2 3 4 5 6 
#
# 1 72.9605 13.2269 34.3117 0.0000 0.0000 0.0000
# 2 13.2269 96.0553 39.2608 0.0001 0.0000 0.0000
# 3 34.3117 39.2608 95.4315 0.0000 0.0000 0.0000
# 4 0.0000 0.0001 0.0000 23.6885 0.0000 0.0000
# 5 0.0000 0.0000 0.0000 0.0000 27.0617 0.0000
# 6 0.0000 0.0000 0.0000 0.0000 0.0000 10.1883
#
#
#
# Elastic Compliance Matrix: (Units=1/GPa)
#
#
# Indices 1 2 3 4 5 6 
#
# 1 0.016498 0.000184 -0.006007 0.000000 0.000000 0.000000
# 2 0.000184 0.012517 -0.005216 0.000000 0.000000 0.000000
# 3 -0.006007 -0.005216 0.014784 0.000000 0.000000 0.000000
# 4 0.000000 0.000000 0.000000 0.042215 0.000000 0.000000
# 5 0.000000 0.000000 0.000000 0.000000 0.036953 0.000000
# 6 0.000000 0.000000 0.000000 0.000000 0.000000 0.098152
#
#
# Mechanical properties :
#
#
# Convention : Reuss Voigt Hill
#
# Bulk Modulus (GPa) = 46.03880 48.67178 47.35529
# Shear Modulus (GPa) = 19.96511 24.03088 21.99800
#
# Velocity S-wave (km/s) = 3.18330 3.49242 3.34144
# Velocity P-wave (km/s) = 6.07276 6.40049 6.23878
#
# Compressibility (1/GPa) = 0.02172081
#
# Stress axis : x y z
#
# Youngs Moduli (GPa) = 60.61409 79.89030 67.63955
#
# Poissons Ratio (x) = -0.01466 0.40632
# Poissons Ratio (y) = -0.01113 0.35278
# Poissons Ratio (z) = 0.36412 0.41667
#
# Static dielectric constant tensor:
#      x y z
#    x 1.719520 0.000000 0.000000 
#    y 0.000000 1.664830 0.000000 
#    z 0.000000 0.000000 1.783020 
# 
# From -- ./inp_files/20205.got.cif
#   From: 2010.05.17/outbox.cif.g08.bks.cpg/sg23_11_cif.got.tgz:20205.got - 2010.06.04 12:02:01.
