data_PCOD9330643
_publ_section_title
;
Structure prediction by ZEFSAII (Michael W. Deem and Ramdas Pophale) SiO2 
 PCOD9330643
Probable space group: I 2 2 2
;
_chemical_formula_sum "Si O2"
_cell_formula_units_Z 40
_cell_length_a 15.184266
_cell_length_b 9.876311
_cell_length_c 12.969260
_cell_angle_alpha 90.000000
_cell_angle_beta 90.000000
_cell_angle_gamma 90.000000
_cell_volume 1944.929023
_symmetry_space_group_name_H-M "I 2 2 2"
_symmetry_group_IT_number 23
_symmetry_cell_setting 'orthorhombic'
loop_
_space_group_symop_operation_xyz
x,y,z
-x,-y,z
x,-y,-z
-x,y,-z
1/2+x,1/2+y,1/2+z
1/2-x,1/2-y,1/2+z
1/2+x,1/2-y,1/2-z
1/2-x,1/2+y,1/2-z
loop_
_atom_site_type_symbol
_atom_site_label
_atom_site_fract_x
_atom_site_fract_y
_atom_site_fract_z
Si Si1 0.500000 0.500000 0.328981
Si Si2 0.762908 0.748455 0.900986
Si Si3 0.898882 0.248833 0.275694
Si Si4 0.000000 0.500000 0.821013
Si Si5 0.636047 0.000000 0.500000
Si Si6 0.103237 0.838166 0.499778
Si Si7 0.357871 0.500000 0.500000
O O1 0.457376 0.380884 0.260768
O O2 0.422629 0.547889 0.407226
O O3 0.810052 0.746088 0.791376
O O4 0.797246 0.882429 0.956257
O O5 0.804846 0.623287 0.962971
O O6 0.658773 0.727601 0.908071
O O7 0.957179 0.380476 0.246764
O O8 0.868838 0.228369 0.392235
O O9 0.924361 0.455141 0.902880
O O10 0.000000 0.812193 0.500000
O O11 0.115772 0.000000 0.500000
#
# Coordination Sequence:
#
# PCOD9330643 Si02
#       7
#     4   8   8   4   4   8   4
#     4   9  16  34  61  94 124 166 207 254 313 388
#     4  10  20  40  59  95 123 164 215 258 311 376
#     4  10  21  40  65  95 123 165 213 251 320 380
#     4   9  18  34  61 102 126 158 201 262 321 368
#     4   9  16  34  65  90 134 162 199 258 310 375
#     4  11  24  46  65  85 123 172 215 258 317 389
#     4   9  18  32  59  92 132 154 203 276 318 353
#
# _framework density 20.566303999999999
#
# number of rings (size 3 to 8) (size 9 to 14) (size 15 to 20)
#    0.000    2.200    1.000    2.400    0.000    4.800 
#   18.000    0.000    0.000    0.000    0.000    0.000 
#    0.000    0.000    0.000    0.000    0.000    0.000 
#
# Total GULP energy -111661.980239 kJ/mol
# GULP energy per Si atom -5583.099012 kJ/mol
# Density = 2.051949 g / cm^3
# Si number density = 20.566304 Si / 1000 Ang^3
#
#
#
# Elastic Constant Matrix: (Units=GPa)
#
#
# Indices 1 2 3 4 5 6 
#
# 1 118.9556 27.0952 17.0949 0.0000 0.0000 0.0000
# 2 27.0952 55.9386 31.2624 0.0000 0.0000 0.0000
# 3 17.0949 31.2624 67.2117 0.0000 0.0000 0.0000
# 4 0.0000 0.0000 0.0000 20.1308 0.0000 0.0000
# 5 0.0000 0.0000 0.0000 0.0000 12.0297 0.0000
# 6 0.0000 0.0000 0.0000 0.0000 0.0000 3.0391
#
#
#
# Elastic Compliance Matrix: (Units=1/GPa)
#
#
# Indices 1 2 3 4 5 6 
#
# 1 0.009456 -0.004373 -0.000371 0.000000 0.000000 0.000000
# 2 -0.004373 0.026178 -0.011064 0.000000 0.000000 0.000000
# 3 -0.000371 -0.011064 0.020119 0.000000 0.000000 0.000000
# 4 0.000000 0.000000 0.000000 0.049675 0.000000 0.000000
# 5 0.000000 0.000000 0.000000 0.000000 0.083128 0.000000
# 6 0.000000 0.000000 0.000000 0.000000 0.000000 0.329041
#
#
# Mechanical properties :
#
#
# Convention : Reuss Voigt Hill
#
# Bulk Modulus (GPa) = 41.43011 43.66786 42.54899
# Shear Modulus (GPa) = 8.97249 18.15016 13.56132
#
# Velocity S-wave (km/s) = 2.09098 2.97395 2.57066
# Velocity P-wave (km/s) = 5.10078 5.75076 5.43550
#
# Compressibility (1/GPa) = 0.02413703
#
# Stress axis : x y z
#
# Youngs Moduli (GPa) = 105.75475 38.19971 49.70411
#
# Poissons Ratio (x) = 0.16704 0.01845
# Poissons Ratio (y) = 0.46244 0.54993
# Poissons Ratio (z) = 0.03925 0.42265
#
# Static dielectric constant tensor:
#      x y z
#    x 1.780220 0.000000 0.000000 
#    y 0.000000 1.726990 0.000000 
#    z 0.000000 0.000000 1.897630 
# 
# From -- ./inp_files/21405.got.cif
#   From: 2010.05.17/outbox.cif.g08.bks.cpg/sg23_11_cif.got.tgz:21405.got - 2010.06.04 12:02:01.
