data_PCOD9330803
_publ_section_title
;
Structure prediction by ZEFSAII (Michael W. Deem and Ramdas Pophale) SiO2 
 PCOD9330803
Probable space group: I 2 2 2
;
_chemical_formula_sum "Si O2"
_cell_formula_units_Z 58
_cell_length_a 28.532646
_cell_length_b 8.188433
_cell_length_c 11.913662
_cell_angle_alpha 90.000000
_cell_angle_beta 90.000000
_cell_angle_gamma 90.000000
_cell_volume 2783.480113
_symmetry_space_group_name_H-M "I 2 2 2"
_symmetry_group_IT_number 23
_symmetry_cell_setting 'orthorhombic'
loop_
_space_group_symop_operation_xyz
x,y,z
-x,-y,z
x,-y,-z
-x,y,-z
1/2+x,1/2+y,1/2+z
1/2-x,1/2-y,1/2+z
1/2+x,1/2-y,1/2-z
1/2-x,1/2+y,1/2-z
loop_
_atom_site_type_symbol
_atom_site_label
_atom_site_fract_x
_atom_site_fract_y
_atom_site_fract_z
Si Si1 0.944482 0.988379 0.366719
Si Si2 0.829699 0.240920 0.519075
Si Si3 0.712935 0.534157 0.782268
Si Si4 0.692487 0.185936 0.659382
Si Si5 0.582249 0.861695 0.864454
Si Si6 0.000000 0.500000 0.500000
Si Si7 0.106008 0.295957 0.700629
Si Si8 0.276589 0.323589 0.554047
O O1 0.925038 0.818624 0.316732
O O2 0.929258 0.000000 0.500000
O O3 0.925436 0.136773 0.292490
O O4 0.000000 0.000000 0.366537
O O5 0.816368 0.092482 0.607322
O O6 0.863351 0.359220 0.593487
O O7 0.862101 0.245305 0.407910
O O8 0.778702 0.291907 0.471319
O O9 0.705109 0.357057 0.726237
O O10 0.767901 0.554932 0.809634
O O11 0.706788 0.663867 0.681242
O O12 0.640828 0.159001 0.700462
O O13 0.695823 0.204113 0.526528
O O14 0.576367 0.039574 0.812022
O O15 0.538339 0.872162 0.950115
O O16 0.285230 0.500000 0.500000
#
# Coordination Sequence:
#
# PCOD9330803 Si02
#       8
#     8   8   8   8   8   2   8   8
#     4  11  22  35  53  82 119 157 186 235 293 361
#     4  11  20  33  54  79 111 153 188 233 293 347
#     4  10  21  35  53  75 109 147 200 245 295 340
#     4  10  22  34  54  78 106 152 199 248 288 348
#     4  12  22  35  56  79 118 158 189 236 293 359
#     4  12  20  36  54  84 108 164 180 228 290 356
#     4  12  22  36  55  83 117 153 201 232 293 361
#     4   9  18  36  53  73 107 149 199 245 285 332
#
# _framework density 20.837225
#
# number of rings (size 3 to 8) (size 9 to 14) (size 15 to 20)
#    0.000    1.241    4.138    3.310    3.862    0.000 
#    0.000    0.000    0.000    0.000    0.000    0.000 
#    0.000   28.138    0.000    0.000    0.000    0.138 
#
# Total GULP energy -161453.775725 kJ/mol
# GULP energy per Si atom -5567.371577 kJ/mol
# Density = 2.078980 g / cm^3
# Si number density = 20.837225 Si / 1000 Ang^3
#
#
#
# Elastic Constant Matrix: (Units=GPa)
#
#
# Indices 1 2 3 4 5 6 
#
# 1 65.9511 16.1404 8.0202 0.0000 0.0000 0.0000
# 2 16.1404 115.4184 3.0376 0.0000 0.0000 0.0000
# 3 8.0202 3.0376 67.3000 0.0000 0.0000 0.0000
# 4 0.0000 0.0000 0.0000 7.9026 0.0000 0.0000
# 5 0.0000 0.0000 0.0000 0.0000 12.9333 0.0000
# 6 0.0000 0.0000 0.0000 0.0000 0.0000 30.1657
#
#
#
# Elastic Compliance Matrix: (Units=1/GPa)
#
#
# Indices 1 2 3 4 5 6 
#
# 1 0.015915 -0.002178 -0.001798 0.000000 0.000000 0.000000
# 2 -0.002178 0.008973 -0.000145 0.000000 0.000000 0.000000
# 3 -0.001798 -0.000145 0.015080 0.000000 0.000000 0.000000
# 4 0.000000 0.000000 0.000000 0.126540 0.000000 0.000000
# 5 0.000000 0.000000 0.000000 0.000000 0.077320 0.000000
# 6 0.000000 0.000000 0.000000 0.000000 0.000000 0.033150
#
#
# Mechanical properties :
#
#
# Convention : Reuss Voigt Hill
#
# Bulk Modulus (GPa) = 31.52278 33.67400 32.59839
# Shear Modulus (GPa) = 16.90360 24.96506 20.93433
#
# Velocity S-wave (km/s) = 2.85128 3.46511 3.17308
# Velocity P-wave (km/s) = 5.09909 5.67494 5.39470
#
# Compressibility (1/GPa) = 0.03172309
#
# Stress axis : x y z
#
# Youngs Moduli (GPa) = 62.83573 111.45085 66.31427
#
# Poissons Ratio (x) = 0.24276 0.11925
# Poissons Ratio (y) = 0.13687 0.00964
# Poissons Ratio (z) = 0.11299 0.01621
#
# Static dielectric constant tensor:
#      x y z
#    x 1.780330 0.000000 0.000000 
#    y 0.000000 1.887310 0.000000 
#    z 0.000000 0.000000 1.809600 
# 
# From -- ./inp_files/18785.got.cif
#   From: 2010.05.17/outbox.cif.g08.bks.cpg/sg23_10_cif.got.tgz:18785.got - 2010.06.04 12:02:01.
