data_PCOD9330724
_publ_section_title
;
Structure prediction by ZEFSAII (Michael W. Deem and Ramdas Pophale) SiO2 
 PCOD9330724
Probable space group: I 2 2 2
;
_chemical_formula_sum "Si O2"
_cell_formula_units_Z 56
_cell_length_a 6.889814
_cell_length_b 19.816247
_cell_length_c 18.164891
_cell_angle_alpha 90.000000
_cell_angle_beta 90.000000
_cell_angle_gamma 90.000000
_cell_volume 2480.057219
_symmetry_space_group_name_H-M "I 2 2 2"
_symmetry_group_IT_number 23
_symmetry_cell_setting 'orthorhombic'
loop_
_space_group_symop_operation_xyz
x,y,z
-x,-y,z
x,-y,-z
-x,y,-z
1/2+x,1/2+y,1/2+z
1/2-x,1/2-y,1/2+z
1/2+x,1/2-y,1/2-z
1/2-x,1/2+y,1/2-z
loop_
_atom_site_type_symbol
_atom_site_label
_atom_site_fract_x
_atom_site_fract_y
_atom_site_fract_z
Si Si1 0.385879 0.860190 0.314085
Si Si2 0.783822 0.748373 0.084348
Si Si3 0.500000 0.000000 0.724432
Si Si4 0.543971 0.839321 0.852900
Si Si5 0.527989 0.581359 0.851207
Si Si6 0.703531 0.433328 0.302655
Si Si7 0.945693 0.120204 0.076283
Si Si8 0.500000 0.343511 0.000000
O O1 0.426480 0.799069 0.368247
O O2 0.384649 0.833369 0.230930
O O3 0.175082 0.883256 0.337290
O O4 0.501905 0.930764 0.320116
O O5 0.588332 0.775625 0.125205
O O6 0.913547 0.814127 0.070592
O O7 0.684016 0.703983 0.020947
O O8 0.306384 0.001718 0.774468
O O9 0.382910 0.898311 0.844885
O O10 0.723703 0.857565 0.906446
O O11 0.500000 0.500000 0.853382
O O12 0.642479 0.599511 0.775702
O O13 0.576200 0.610430 0.931854
O O14 0.523520 0.424640 0.356083
O O15 0.000000 0.083936 0.000000
#
# Coordination Sequence:
#
# PCOD9330724 Si02
#       8
#     8   8   4   8   8   8   8   4
#     4  10  21  37  65  95 128 171 224 275 332 399
#     4  10  23  40  60  93 140 177 218 274 342 406
#     4  10  20  42  64  96 132 170 226 288 332 396
#     4  10  22  39  65  96 133 171 224 280 340 404
#     4  11  20  40  69  94 134 177 227 277 340 402
#     4  10  22  40  70  98 128 176 225 280 344 402
#     4  11  23  43  67  99 134 177 220 279 346 419
#     4  10  23  40  64  98 136 189 220 280 346 406
#
# _framework density 22.580121999999999
#
# number of rings (size 3 to 8) (size 9 to 14) (size 15 to 20)
#    0.000    1.714    2.857    1.071    2.000    2.857 
#   10.286    0.000    0.000   19.286    0.000    0.000 
#    0.000    0.000    0.000    0.000    0.000    0.000 
#
# Total GULP energy -155940.675726 kJ/mol
# GULP energy per Si atom -5569.309847 kJ/mol
# Density = 2.252873 g / cm^3
# Si number density = 22.580122 Si / 1000 Ang^3
#
#
#
# Elastic Constant Matrix: (Units=GPa)
#
#
# Indices 1 2 3 4 5 6 
#
# 1 67.3227 25.7814 30.9424 0.0000 0.0000 0.0000
# 2 25.7814 85.1418 38.6322 0.0000 0.0000 0.0000
# 3 30.9424 38.6322 109.4240 0.0000 0.0000 0.0000
# 4 0.0000 0.0000 0.0000 7.8679 0.0000 0.0000
# 5 0.0000 0.0000 0.0000 0.0000 23.8400 0.0000
# 6 0.0000 0.0000 0.0000 0.0000 0.0000 35.4308
#
#
#
# Elastic Compliance Matrix: (Units=1/GPa)
#
#
# Indices 1 2 3 4 5 6 
#
# 1 0.018023 -0.003745 -0.003774 0.000000 0.000000 0.000000
# 2 -0.003745 0.014764 -0.004153 0.000000 0.000000 0.000000
# 3 -0.003774 -0.004153 0.011672 0.000000 0.000000 0.000000
# 4 0.000000 0.000000 0.000000 0.127099 0.000000 0.000000
# 5 0.000000 0.000000 0.000000 0.000000 0.041946 0.000000
# 6 0.000000 0.000000 0.000000 0.000000 0.000000 0.028224
#
#
# Mechanical properties :
#
#
# Convention : Reuss Voigt Hill
#
# Bulk Modulus (GPa) = 47.36251 50.28895 48.82573
# Shear Modulus (GPa) = 18.37488 24.52990 21.45239
#
# Velocity S-wave (km/s) = 2.85575 3.29956 3.08564
# Velocity P-wave (km/s) = 5.64753 6.06925 5.86218
#
# Compressibility (1/GPa) = 0.02111375
#
# Stress axis : x y z
#
# Youngs Moduli (GPa) = 55.48585 67.73416 85.67239
#
# Poissons Ratio (x) = 0.25365 0.32335
# Poissons Ratio (y) = 0.20778 0.35583
# Poissons Ratio (z) = 0.20942 0.28132
#
# Static dielectric constant tensor:
#      x y z
#    x 1.984580 0.000000 0.000000 
#    y 0.000000 1.922320 0.000000 
#    z 0.000000 0.000000 1.911100 
# 
# From -- ./inp_files/20226.got.cif
#   From: 2010.05.17/outbox.cif.g08.bks.cpg/sg23_11_cif.got.tgz:20226.got - 2010.06.04 12:02:01.
