data_PCOD9330704
_publ_section_title
;
Structure prediction by ZEFSAII (Michael W. Deem and Ramdas Pophale) SiO2 
 PCOD9330704
Probable space group: I 2 2 2
;
_chemical_formula_sum "Si O2"
_cell_formula_units_Z 48
_cell_length_a 8.910809
_cell_length_b 17.766296
_cell_length_c 14.824023
_cell_angle_alpha 90.000000
_cell_angle_beta 90.000000
_cell_angle_gamma 90.000000
_cell_volume 2346.821771
_symmetry_space_group_name_H-M "I 2 2 2"
_symmetry_group_IT_number 23
_symmetry_cell_setting 'orthorhombic'
loop_
_space_group_symop_operation_xyz
x,y,z
-x,-y,z
x,-y,-z
-x,y,-z
1/2+x,1/2+y,1/2+z
1/2-x,1/2-y,1/2+z
1/2+x,1/2-y,1/2-z
1/2-x,1/2+y,1/2-z
loop_
_atom_site_type_symbol
_atom_site_label
_atom_site_fract_x
_atom_site_fract_y
_atom_site_fract_z
Si Si1 0.833427 0.208022 0.518960
Si Si2 0.241013 0.808136 0.325614
Si Si3 0.082196 0.573579 0.710979
Si Si4 0.116797 0.829185 0.718937
Si Si5 0.374879 0.125250 0.056166
Si Si6 0.840248 0.033312 0.849042
O O1 0.739001 0.182516 0.433120
O O2 0.802974 0.187507 0.622254
O O3 0.847536 0.297565 0.497867
O O4 0.000000 0.176294 0.500000
O O5 0.335953 0.872471 0.278962
O O6 0.311367 0.729956 0.289581
O O7 0.062992 0.814517 0.298087
O O8 0.217635 0.532913 0.657504
O O9 0.000000 0.500000 0.750376
O O10 0.962304 0.622821 0.652956
O O11 0.144419 0.912342 0.760290
O O12 0.219059 0.086063 0.071746
O O13 0.500000 0.081733 0.000000
O O14 0.000000 0.000000 0.866787
#
# Coordination Sequence:
#
# PCOD9330704 Si02
#       6
#     8   8   8   8   8   8
#     4   9  19  36  64  95 118 165 226 265 320 385
#     4  11  20  39  65  92 125 176 223 271 327 390
#     4  10  22  36  64  92 128 177 213 263 346 400
#     4  11  23  39  68  94 131 168 223 278 325 403
#     4  10  20  41  67  93 125 177 226 269 330 403
#     4  11  22  41  62  99 135 172 213 274 344 394
#
# _framework density 20.453192999999999
#
# number of rings (size 3 to 8) (size 9 to 14) (size 15 to 20)
#    0.000    1.667    3.333    3.000    2.333    3.000 
#    0.000    3.333    0.000    3.000    0.000    0.000 
#    0.000    0.000    0.000    0.000    0.000    0.000 
#
# Total GULP energy -133691.319830 kJ/mol
# GULP energy per Si atom -5570.471660 kJ/mol
# Density = 2.040664 g / cm^3
# Si number density = 20.453193 Si / 1000 Ang^3
#
#
#
# Elastic Constant Matrix: (Units=GPa)
#
#
# Indices 1 2 3 4 5 6 
#
# 1 101.1864 37.9648 34.2949 0.0000 0.0000 0.0000
# 2 37.9648 64.7031 27.5523 0.0000 0.0000 0.0000
# 3 34.2949 27.5523 105.9344 0.0000 0.0000 0.0000
# 4 0.0000 0.0000 0.0000 20.5727 0.0000 0.0000
# 5 0.0000 0.0000 0.0000 0.0000 27.8302 0.0000
# 6 0.0000 0.0000 0.0000 0.0000 0.0000 41.2743
#
#
#
# Elastic Compliance Matrix: (Units=1/GPa)
#
#
# Indices 1 2 3 4 5 6 
#
# 1 0.013259 -0.006693 -0.002552 0.000000 0.000000 0.000000
# 2 -0.006693 0.020759 -0.003232 0.000000 0.000000 0.000000
# 3 -0.002552 -0.003232 0.011107 0.000000 0.000000 0.000000
# 4 0.000000 0.000000 0.000000 0.048608 0.000000 0.000000
# 5 0.000000 0.000000 0.000000 0.000000 0.035932 0.000000
# 6 0.000000 0.000000 0.000000 0.000000 0.000000 0.024228
#
#
# Mechanical properties :
#
#
# Convention : Reuss Voigt Hill
#
# Bulk Modulus (GPa) = 49.57822 52.38311 50.98066
# Shear Modulus (GPa) = 26.94401 29.40289 28.17345
#
# Velocity S-wave (km/s) = 3.63347 3.79564 3.71544
# Velocity P-wave (km/s) = 6.47265 6.69896 6.58678
#
# Compressibility (1/GPa) = 0.02017015
#
# Stress axis : x y z
#
# Youngs Moduli (GPa) = 75.42172 48.17224 90.03721
#
# Poissons Ratio (x) = 0.32242 0.22973
# Poissons Ratio (y) = 0.50481 0.29103
# Poissons Ratio (z) = 0.19244 0.15571
#
# Static dielectric constant tensor:
#      x y z
#    x 1.760420 0.000000 0.000000 
#    y 0.000000 1.780330 0.000000 
#    z 0.000000 0.000000 1.800020 
# 
# From -- ./inp_files/20106.got.cif
#   From: 2010.05.17/outbox.cif.g08.bks.cpg/sg23_11_cif.got.tgz:20106.got - 2010.06.04 12:02:01.
