data_PCOD9330242
_publ_section_title
;
Structure prediction by ZEFSAII (Michael W. Deem and Ramdas Pophale) SiO2 
 PCOD9330242
Probable space group: I 2 2 2
;
_chemical_formula_sum "Si O2"
_cell_formula_units_Z 40
_cell_length_a 17.223654
_cell_length_b 12.778800
_cell_length_c 7.733706
_cell_angle_alpha 90.000000
_cell_angle_beta 90.000000
_cell_angle_gamma 90.000000
_cell_volume 1702.170360
_symmetry_space_group_name_H-M "I 2 2 2"
_symmetry_group_IT_number 23
_symmetry_cell_setting 'orthorhombic'
loop_
_space_group_symop_operation_xyz
x,y,z
-x,-y,z
x,-y,-z
-x,y,-z
1/2+x,1/2+y,1/2+z
1/2-x,1/2-y,1/2+z
1/2+x,1/2-y,1/2-z
1/2-x,1/2+y,1/2-z
loop_
_atom_site_type_symbol
_atom_site_label
_atom_site_fract_x
_atom_site_fract_y
_atom_site_fract_z
Si Si1 0.705896 0.732411 0.111709
Si Si2 0.025343 0.356263 0.298694
Si Si3 0.286816 0.520639 0.697324
Si Si4 0.129068 0.442332 0.751801
Si Si5 0.639381 0.316203 0.263425
O O1 0.693939 0.637385 0.245791
O O2 0.660068 0.837747 0.157256
O O3 0.796885 0.761776 0.112957
O O4 0.675738 0.698952 0.926336
O O5 0.091272 0.446948 0.309939
O O6 0.061145 0.248809 0.231725
O O7 0.000000 0.345197 0.500000
O O8 0.952621 0.393562 0.181770
O O9 0.258682 0.500000 0.500000
O O10 0.213205 0.484035 0.813477
O O11 0.358265 0.440250 0.710378
#
# Coordination Sequence:
#
# PCOD9330242 Si02
#       5
#     8   8   8   8   8
#     4  11  21  38  57  96 131 161 214 256 326 386
#     4  11  19  35  62  99 123 153 218 262 321 366
#     4  11  22  41  64  91 126 173 217 263 325 379
#     4  10  20  33  64  93 125 156 202 273 311 373
#     4  11  23  35  64  96 127 171 207 271 321 387
#
# _framework density 23.499412
#
# number of rings (size 3 to 8) (size 9 to 14) (size 15 to 20)
#    0.000    1.200    4.000    5.400    0.000    0.000 
#    0.000    1.000    0.000   12.000    0.000    0.000 
#    0.000    0.000    0.000    0.000    0.000    0.000 
#
# Total GULP energy -111402.011140 kJ/mol
# GULP energy per Si atom -5570.100557 kJ/mol
# Density = 2.344593 g / cm^3
# Si number density = 23.499412 Si / 1000 Ang^3
#
#
#
# Elastic Constant Matrix: (Units=GPa)
#
#
# Indices 1 2 3 4 5 6 
#
# 1 89.3743 43.1407 4.1755 0.0000 0.0000 0.0000
# 2 43.1407 157.9777 23.0094 0.0000 0.0000 0.0000
# 3 4.1755 23.0094 73.3499 0.0000 0.0000 0.0000
# 4 0.0000 0.0000 0.0000 15.1334 0.0000 0.0000
# 5 0.0000 0.0000 0.0000 0.0000 8.8280 0.0000
# 6 0.0000 0.0000 0.0000 0.0000 0.0000 61.3937
#
#
#
# Elastic Compliance Matrix: (Units=1/GPa)
#
#
# Indices 1 2 3 4 5 6 
#
# 1 0.012898 -0.003579 0.000388 0.000000 0.000000 0.000000
# 2 -0.003579 0.007626 -0.002189 0.000000 0.000000 0.000000
# 3 0.000388 -0.002189 0.014298 0.000000 0.000000 0.000000
# 4 0.000000 0.000000 0.000000 0.066079 0.000000 0.000000
# 5 0.000000 0.000000 0.000000 0.000000 0.113276 0.000000
# 6 0.000000 0.000000 0.000000 0.000000 0.000000 0.016288
#
#
# Mechanical properties :
#
#
# Convention : Reuss Voigt Hill
#
# Bulk Modulus (GPa) = 41.55561 51.26146 46.40854
# Shear Modulus (GPa) = 20.06060 33.76276 26.91168
#
# Velocity S-wave (km/s) = 2.92492 3.79456 3.38776
# Velocity P-wave (km/s) = 5.39713 6.40777 5.92404
#
# Compressibility (1/GPa) = 0.02406414
#
# Stress axis : x y z
#
# Youngs Moduli (GPa) = 77.52992 131.12891 69.94128
#
# Poissons Ratio (x) = 0.46929 -0.02717
# Poissons Ratio (y) = 0.27747 0.15307
# Poissons Ratio (z) = -0.03011 0.28698
#
# Static dielectric constant tensor:
#      x y z
#    x 1.899050 0.000000 0.000000 
#    y 0.000000 1.881580 0.000000 
#    z 0.000000 0.000000 1.998230 
# 
# From -- ./inp_files/10725.got.cif
#   From: 2010.05.17/outbox.cif.g08.bks.cpg/sg23_6_cif.got.tgz:10725.got - 2010.06.04 12:02:01.
