data_PCOD9330210
_publ_section_title
;
Structure prediction by ZEFSAII (Michael W. Deem and Ramdas Pophale) SiO2 
 PCOD9330210
Probable space group: I 2 2 2
;
_chemical_formula_sum "Si O2"
_cell_formula_units_Z 48
_cell_length_a 9.369381
_cell_length_b 7.535673
_cell_length_c 28.211958
_cell_angle_alpha 90.000000
_cell_angle_beta 90.000000
_cell_angle_gamma 90.000000
_cell_volume 1991.893768
_symmetry_space_group_name_H-M "I 2 2 2"
_symmetry_group_IT_number 23
_symmetry_cell_setting 'orthorhombic'
loop_
_space_group_symop_operation_xyz
x,y,z
-x,-y,z
x,-y,-z
-x,y,-z
1/2+x,1/2+y,1/2+z
1/2-x,1/2-y,1/2+z
1/2+x,1/2-y,1/2-z
1/2-x,1/2+y,1/2-z
loop_
_atom_site_type_symbol
_atom_site_label
_atom_site_fract_x
_atom_site_fract_y
_atom_site_fract_z
Si Si1 0.135580 0.885757 0.757305
Si Si2 0.336513 0.216170 0.996244
Si Si3 0.425159 0.182553 0.828357
Si Si4 0.813175 0.175890 0.098622
Si Si5 0.206960 0.854069 0.326273
Si Si6 0.641387 0.252053 0.414874
O O1 0.084053 0.712845 0.728146
O O2 0.236561 0.822686 0.798940
O O3 0.205131 0.000290 0.715060
O O4 0.000000 0.000000 0.774813
O O5 0.281966 0.251459 0.943727
O O6 0.500000 0.276135 0.000000
O O7 0.225268 0.285023 0.036079
O O8 0.336241 0.000000 0.000000
O O9 0.273460 0.208869 0.853129
O O10 0.546119 0.322039 0.843107
O O11 0.500000 0.000000 0.842197
O O12 0.970575 0.250678 0.088689
O O13 0.822613 0.960675 0.094993
O O14 0.301583 0.871068 0.372575
#
# Coordination Sequence:
#
# PCOD9330210 Si02
#       6
#     8   8   8   8   8   8
#     4  10  25  41  62  93 125 163 220 271 327 392
#     4   9  17  30  52  87 124 159 204 254 315 382
#     4  11  21  38  62  88 120 162 206 256 322 384
#     4  10  20  32  56  87 125 160 206 254 318 386
#     4  11  22  39  61  85 122 161 209 265 320 388
#     4  10  20  33  56  84 126 164 203 260 319 379
#
# _framework density 24.097669
#
# number of rings (size 3 to 8) (size 9 to 14) (size 15 to 20)
#    0.000    1.833    1.667    2.500    4.667    3.333 
#    0.000    4.167    0.000    1.000    0.000    7.000 
#    0.000    0.000    0.000    0.000    0.000    0.000 
#
# Total GULP energy -134146.093323 kJ/mol
# GULP energy per Si atom -5589.420555 kJ/mol
# Density = 2.404282 g / cm^3
# Si number density = 24.097669 Si / 1000 Ang^3
#
#
#
# Elastic Constant Matrix: (Units=GPa)
#
#
# Indices 1 2 3 4 5 6 
#
# 1 151.1478 25.1820 34.1753 0.0000 0.0000 0.0000
# 2 25.1820 72.5378 24.7719 0.0000 0.0000 0.0000
# 3 34.1753 24.7719 42.6503 0.0000 0.0000 0.0000
# 4 0.0000 0.0000 0.0000 19.2950 0.0000 0.0000
# 5 0.0000 0.0000 0.0000 0.0000 50.6099 0.0000
# 6 0.0000 0.0000 0.0000 0.0000 0.0000 14.9235
#
#
#
# Elastic Compliance Matrix: (Units=1/GPa)
#
#
# Indices 1 2 3 4 5 6 
#
# 1 0.008112 -0.000744 -0.006068 0.000000 0.000000 0.000000
# 2 -0.000744 0.017265 -0.009432 0.000000 0.000000 0.000000
# 3 -0.006068 -0.009432 0.033787 0.000000 0.000000 0.000000
# 4 0.000000 0.000000 0.000000 0.051827 0.000000 0.000000
# 5 0.000000 0.000000 0.000000 0.000000 0.019759 0.000000
# 6 0.000000 0.000000 0.000000 0.000000 0.000000 0.067008
#
#
# Mechanical properties :
#
#
# Convention : Reuss Voigt Hill
#
# Bulk Modulus (GPa) = 37.48597 48.28827 42.88712
# Shear Modulus (GPa) = 20.90843 29.11278 25.01061
#
# Velocity S-wave (km/s) = 2.94879 3.47957 3.22512
# Velocity P-wave (km/s) = 5.21377 6.01874 5.63066
#
# Compressibility (1/GPa) = 0.02667664
#
# Stress axis : x y z
#
# Youngs Moduli (GPa) = 123.27444 57.92014 29.59729
#
# Poissons Ratio (x) = 0.04309 0.17960
# Poissons Ratio (y) = 0.09170 0.27916
# Poissons Ratio (z) = 0.74803 0.54629
#
# Static dielectric constant tensor:
#      x y z
#    x 1.926190 0.000000 0.000000 
#    y 0.000000 2.027030 0.000000 
#    z 0.000000 0.000000 1.859210 
# 
# From -- ./inp_files/13350.got.cif
#   From: 2010.05.17/outbox.cif.g08.bks.cpg/sg23_7_cif.got.tgz:13350.got - 2010.06.04 12:02:01.
