data_PCOD9330522
_publ_section_title
;
Structure prediction by ZEFSAII (Michael W. Deem and Ramdas Pophale) SiO2 
 PCOD9330522
Probable space group: I 2 2 2
;
_chemical_formula_sum "Si O2"
_cell_formula_units_Z 28
_cell_length_a 5.192426
_cell_length_b 18.568375
_cell_length_c 13.745610
_cell_angle_alpha 90.000000
_cell_angle_beta 90.000000
_cell_angle_gamma 90.000000
_cell_volume 1325.281794
_symmetry_space_group_name_H-M "I 2 2 2"
_symmetry_group_IT_number 23
_symmetry_cell_setting 'orthorhombic'
loop_
_space_group_symop_operation_xyz
x,y,z
-x,-y,z
x,-y,-z
-x,y,-z
1/2+x,1/2+y,1/2+z
1/2-x,1/2-y,1/2+z
1/2+x,1/2-y,1/2-z
1/2-x,1/2+y,1/2-z
loop_
_atom_site_type_symbol
_atom_site_label
_atom_site_fract_x
_atom_site_fract_y
_atom_site_fract_z
Si Si1 0.500000 0.224387 0.000000
Si Si2 0.247170 0.411816 0.561562
Si Si3 0.280424 0.283360 0.804391
Si Si4 0.248871 0.045064 0.281212
O O1 0.307935 0.174005 0.064498
O O2 0.336776 0.263435 0.917054
O O3 0.500000 0.423146 0.500000
O O4 0.256760 0.450172 0.663806
O O5 0.000000 0.432300 0.500000
O O6 0.529015 0.256455 0.740957
O O7 0.249916 0.370139 0.805645
O O8 0.500000 0.000000 0.311268
O O9 0.000000 0.000000 0.314355
#
# Coordination Sequence:
#
# PCOD9330522 Si02
#       4
#     4   8   8   8
#     4  10  24  40  74  98 130 172 244 280 332 390
#     4  10  20  38  59  98 127 165 222 272 344 394
#     4  12  24  45  72 100 138 182 238 286 334 413
#     4  12  25  41  62  98 140 178 213 276 352 407
#
# _framework density 21.127583000000001
#
# number of rings (size 3 to 8) (size 9 to 14) (size 15 to 20)
#    0.857    0.000    2.857    5.143    0.000    3.429 
#    0.000    0.714    0.000    1.714    0.000    0.000 
#    0.000    0.000    0.000    0.000    0.000    0.000 
#
# Total GULP energy -78110.061994 kJ/mol
# GULP energy per Si atom -5579.290142 kJ/mol
# Density = 2.107950 g / cm^3
# Si number density = 21.127583 Si / 1000 Ang^3
#
#
#
# Elastic Constant Matrix: (Units=GPa)
#
#
# Indices 1 2 3 4 5 6 
#
# 1 185.0704 76.4181 19.1760 0.0000 0.0000 0.0000
# 2 76.4181 194.0392 26.6487 0.0000 0.0000 0.0000
# 3 19.1760 26.6487 46.5089 0.0000 0.0000 0.0000
# 4 0.0000 0.0000 0.0000 39.6745 0.0000 0.0000
# 5 0.0000 0.0000 0.0000 0.0000 16.6705 0.0000
# 6 0.0000 0.0000 0.0000 0.0000 0.0000 41.1793
#
#
#
# Elastic Compliance Matrix: (Units=1/GPa)
#
#
# Indices 1 2 3 4 5 6 
#
# 1 0.006527 -0.002389 -0.001322 0.000000 0.000000 0.000000
# 2 -0.002389 0.006468 -0.002721 0.000000 0.000000 0.000000
# 3 -0.001322 -0.002721 0.023606 0.000000 0.000000 0.000000
# 4 0.000000 0.000000 0.000000 0.025205 0.000000 0.000000
# 5 0.000000 0.000000 0.000000 0.000000 0.059986 0.000000
# 6 0.000000 0.000000 0.000000 0.000000 0.000000 0.024284
#
#
# Mechanical properties :
#
#
# Convention : Reuss Voigt Hill
#
# Bulk Modulus (GPa) = 42.13025 74.45600 58.29313
# Shear Modulus (GPa) = 29.96661 39.72990 34.84826
#
# Velocity S-wave (km/s) = 3.77020 4.34115 4.06571
# Velocity P-wave (km/s) = 6.23993 7.77464 7.04918
#
# Compressibility (1/GPa) = 0.02373591
#
# Stress axis : x y z
#
# Youngs Moduli (GPa) = 153.21606 154.60508 42.36284
#
# Poissons Ratio (x) = 0.36932 0.05602
# Poissons Ratio (y) = 0.36600 0.11528
# Poissons Ratio (z) = 0.20259 0.42071
#
# Static dielectric constant tensor:
#      x y z
#    x 1.752840 0.000000 0.000000 
#    y 0.000000 1.875720 0.000000 
#    z 0.000000 0.000000 1.734960 
# 
# From -- ./inp_files/18955.got.cif
#   From: 2010.05.17/outbox.cif.g08.bks.cpg/sg23_10_cif.got.tgz:18955.got - 2010.06.04 12:02:01.
