data_PCOD9330079
_publ_section_title
;
Structure prediction by ZEFSAII (Michael W. Deem and Ramdas Pophale) SiO2 
 PCOD9330079
Probable space group: I 2 2 2
;
_chemical_formula_sum "Si O2"
_cell_formula_units_Z 46
_cell_length_a 9.182507
_cell_length_b 10.698843
_cell_length_c 23.391574
_cell_angle_alpha 90.000000
_cell_angle_beta 90.000000
_cell_angle_gamma 90.000000
_cell_volume 2298.039709
_symmetry_space_group_name_H-M "I 2 2 2"
_symmetry_group_IT_number 23
_symmetry_cell_setting 'orthorhombic'
loop_
_space_group_symop_operation_xyz
x,y,z
-x,-y,z
x,-y,-z
-x,y,-z
1/2+x,1/2+y,1/2+z
1/2-x,1/2-y,1/2+z
1/2+x,1/2-y,1/2-z
1/2-x,1/2+y,1/2-z
loop_
_atom_site_type_symbol
_atom_site_label
_atom_site_fract_x
_atom_site_fract_y
_atom_site_fract_z
Si Si1 0.791774 0.818705 0.679840
Si Si2 0.473900 0.725031 0.712426
Si Si3 0.232857 0.648804 0.429209
Si Si4 0.655171 0.067834 0.638901
Si Si5 0.000000 0.500000 0.500000
Si Si6 0.000000 0.000000 0.123978
Si Si7 0.329378 0.863386 0.515141
O O1 0.639538 0.775067 0.709520
O O2 0.919731 0.816594 0.725785
O O3 0.811486 0.720984 0.628512
O O4 0.763972 0.956422 0.654181
O O5 0.375191 0.840713 0.691303
O O6 0.456200 0.613695 0.666301
O O7 0.368505 0.557164 0.413860
O O8 0.273196 0.753810 0.475594
O O9 0.102532 0.576510 0.457882
O O10 0.693038 0.147984 0.582892
O O11 0.500000 0.000000 0.625083
O O12 0.500000 0.867119 0.500000
O O13 0.266951 0.000000 0.500000
#
# Coordination Sequence:
#
# PCOD9330079 Si02
#       7
#     8   8   8   8   2   4   8
#     4  10  22  43  66  94 132 168 223 271 326 392
#     4  10  23  39  65  98 130 172 216 268 330 392
#     4  11  26  46  64  99 133 179 223 273 335 408
#     4  10  19  37  62  99 126 163 212 275 326 378
#     4  12  32  46  62  92 148 182 216 262 362 406
#     4  10  24  45  70  96 128 173 238 266 326 412
#     4  11  18  36  71 100 125 158 221 282 325 378
#
# _framework density 20.017061999999999
#
# number of rings (size 3 to 8) (size 9 to 14) (size 15 to 20)
#    0.000    1.565    3.478    2.087    9.739    1.391 
#    1.565    0.435    0.000    0.000    0.000    0.000 
#    0.000    0.000    0.000    0.000    0.000    0.000 
#
# Total GULP energy -128483.905071 kJ/mol
# GULP energy per Si atom -5586.256742 kJ/mol
# Density = 1.997150 g / cm^3
# Si number density = 20.017062 Si / 1000 Ang^3
#
#
#
# Elastic Constant Matrix: (Units=GPa)
#
#
# Indices 1 2 3 4 5 6 
#
# 1 67.5784 57.3529 64.6715 0.0000 0.0000 0.0000
# 2 57.3529 107.2714 41.7871 0.0000 0.0000 0.0000
# 3 64.6715 41.7871 126.5704 0.0000 0.0000 0.0000
# 4 0.0000 0.0000 0.0000 15.5534 0.0000 0.0000
# 5 0.0000 0.0000 0.0000 0.0000 34.7404 0.0000
# 6 0.0000 0.0000 0.0000 0.0000 0.0000 8.0130
#
#
#
# Elastic Compliance Matrix: (Units=1/GPa)
#
#
# Indices 1 2 3 4 5 6 
#
# 1 0.048383 -0.018635 -0.018569 0.000000 0.000000 0.000000
# 2 -0.018635 0.017875 0.003620 0.000000 0.000000 0.000000
# 3 -0.018569 0.003620 0.016194 0.000000 0.000000 0.000000
# 4 0.000000 0.000000 0.000000 0.064295 0.000000 0.000000
# 5 0.000000 0.000000 0.000000 0.000000 0.028785 0.000000
# 6 0.000000 0.000000 0.000000 0.000000 0.000000 0.124797
#
#
# Mechanical properties :
#
#
# Convention : Reuss Voigt Hill
#
# Bulk Modulus (GPa) = 65.42802 69.89370 67.66086
# Shear Modulus (GPa) = 13.41957 20.83528 17.12742
#
# Velocity S-wave (km/s) = 2.59203 3.22976 2.92831
# Velocity P-wave (km/s) = 6.45873 6.99295 6.73114
#
# Compressibility (1/GPa) = 0.01528397
#
# Stress axis : x y z
#
# Youngs Moduli (GPa) = 20.66837 55.94396 61.75262
#
# Poissons Ratio (x) = 1.04249 1.14670
# Poissons Ratio (y) = 0.38515 -0.22354
# Poissons Ratio (z) = 0.38380 -0.20252
#
# Static dielectric constant tensor:
#      x y z
#    x 1.707360 0.000000 0.000000 
#    y 0.000000 1.624630 0.000000 
#    z 0.000000 0.000000 1.705300 
# 
# From -- ./inp_files/27999.got.cif
#   From: 2010.05.17/outbox.cif.g08.bks.cpg/sg23_14_cif.got.tgz:27999.got - 2010.06.04 12:02:01.
