data_PCOD9330475
_publ_section_title
;
Structure prediction by ZEFSAII (Michael W. Deem and Ramdas Pophale) SiO2 
 PCOD9330475
Probable space group: I 2 2 2
;
_chemical_formula_sum "Si O2"
_cell_formula_units_Z 44
_cell_length_a 29.898840
_cell_length_b 5.750766
_cell_length_c 13.488044
_cell_angle_alpha 90.000000
_cell_angle_beta 90.000000
_cell_angle_gamma 90.000000
_cell_volume 2319.150910
_symmetry_space_group_name_H-M "I 2 2 2"
_symmetry_group_IT_number 23
_symmetry_cell_setting 'orthorhombic'
loop_
_space_group_symop_operation_xyz
x,y,z
-x,-y,z
x,-y,-z
-x,y,-z
1/2+x,1/2+y,1/2+z
1/2-x,1/2-y,1/2+z
1/2+x,1/2-y,1/2-z
1/2-x,1/2+y,1/2-z
loop_
_atom_site_type_symbol
_atom_site_label
_atom_site_fract_x
_atom_site_fract_y
_atom_site_fract_z
Si Si1 0.171392 0.000000 0.500000
Si Si2 0.690938 0.000000 0.500000
Si Si3 0.671050 0.489225 0.219036
Si Si4 0.016877 0.255628 0.114564
Si Si5 0.759768 0.761583 0.830574
Si Si6 0.382558 0.337493 0.591957
Si Si7 0.723381 0.000000 0.000000
O O1 0.149738 0.999307 0.390259
O O2 0.196604 0.254492 0.501500
O O3 0.722331 0.077204 0.590023
O O4 0.657196 0.186719 0.454273
O O5 0.711129 0.298437 0.211505
O O6 0.701851 0.707833 0.249780
O O7 0.637164 0.451204 0.308497
O O8 0.070462 0.278192 0.118306
O O9 0.000000 0.500000 0.160357
O O10 0.000000 0.000000 0.153424
O O11 0.000000 0.256290 0.000000
O O12 0.753918 0.984367 0.902177
O O13 0.395209 0.500000 0.500000
#
# Coordination Sequence:
#
# PCOD9330475 Si02
#       7
#     4   4   8   8   8   8   4
#     4  10  23  40  56  78 111 160 210 254 301 344
#     4  12  23  36  59  84 126 164 213 262 302 366
#     4  11  22  36  55  83 119 164 213 262 296 358
#     4  10  20  37  62  87 121 150 176 231 313 398
#     4  11  20  35  55  81 117 166 215 258 314 341
#     4  12  23  39  58  94 123 156 201 256 313 375
#     4  10  20  38  58  76 106 154 218 268 304 354
#
# _framework density 18.972460999999999
#
# number of rings (size 3 to 8) (size 9 to 14) (size 15 to 20)
#    0.000    1.091    3.636    6.545    0.000    1.455 
#    0.000    0.000    0.000    0.000    0.000    0.636 
#    0.000    2.909    0.000    0.000    0.000    0.000 
#
# Total GULP energy -122476.787928 kJ/mol
# GULP energy per Si atom -5567.126724 kJ/mol
# Density = 1.892928 g / cm^3
# Si number density = 18.972461 Si / 1000 Ang^3
#
#
#
# Elastic Constant Matrix: (Units=GPa)
#
#
# Indices 1 2 3 4 5 6 
#
# 1 80.8538 15.2852 14.1479 0.0000 0.0000 0.0000
# 2 15.2852 96.1437 8.7922 0.0000 0.0000 0.0000
# 3 14.1479 8.7922 110.8731 0.0000 0.0000 0.0000
# 4 0.0000 0.0000 0.0000 31.8312 0.0000 0.0000
# 5 0.0000 0.0000 0.0000 0.0000 7.5881 0.0000
# 6 0.0000 0.0000 0.0000 0.0000 0.0000 28.4087
#
#
#
# Elastic Compliance Matrix: (Units=1/GPa)
#
#
# Indices 1 2 3 4 5 6 
#
# 1 0.012996 -0.001928 -0.001505 0.000000 0.000000 0.000000
# 2 -0.001928 0.010763 -0.000607 0.000000 0.000000 0.000000
# 3 -0.001505 -0.000607 0.009260 0.000000 0.000000 0.000000
# 4 0.000000 0.000000 0.000000 0.031416 0.000000 0.000000
# 5 0.000000 0.000000 0.000000 0.000000 0.131786 0.000000
# 6 0.000000 0.000000 0.000000 0.000000 0.000000 0.035200
#
#
# Mechanical properties :
#
#
# Convention : Reuss Voigt Hill
#
# Bulk Modulus (GPa) = 40.10240 40.48014 40.29127
# Shear Modulus (GPa) = 20.17628 30.20863 25.19245
#
# Velocity S-wave (km/s) = 3.26460 3.99461 3.64791
# Velocity P-wave (km/s) = 5.94922 6.53135 6.24707
#
# Compressibility (1/GPa) = 0.02493616
#
# Stress axis : x y z
#
# Youngs Moduli (GPa) = 76.94682 92.90880 107.99619
#
# Poissons Ratio (x) = 0.17917 0.16258
# Poissons Ratio (y) = 0.14839 0.06560
# Poissons Ratio (z) = 0.11584 0.05644
#
# Static dielectric constant tensor:
#      x y z
#    x 1.656410 0.000000 0.000000 
#    y 0.000000 1.808090 0.000000 
#    z 0.000000 0.000000 1.731760 
# 
# From -- ./inp_files/22781.got.cif
#   From: 2010.05.17/outbox.cif.g08.bks.cpg/sg23_12_cif.got.tgz:22781.got - 2010.06.04 12:02:01.
