data_PCOD9330677
_publ_section_title
;
Structure prediction by ZEFSAII (Michael W. Deem and Ramdas Pophale) SiO2 
 PCOD9330677
Probable space group: I 2 2 2
;
_chemical_formula_sum "Si O2"
_cell_formula_units_Z 32
_cell_length_a 13.256395
_cell_length_b 4.794639
_cell_length_c 21.435244
_cell_angle_alpha 90.000000
_cell_angle_beta 90.000000
_cell_angle_gamma 90.000000
_cell_volume 1362.416145
_symmetry_space_group_name_H-M "I 2 2 2"
_symmetry_group_IT_number 23
_symmetry_cell_setting 'orthorhombic'
loop_
_space_group_symop_operation_xyz
x,y,z
-x,-y,z
x,-y,-z
-x,y,-z
1/2+x,1/2+y,1/2+z
1/2-x,1/2-y,1/2+z
1/2+x,1/2-y,1/2-z
1/2-x,1/2+y,1/2-z
loop_
_atom_site_type_symbol
_atom_site_label
_atom_site_fract_x
_atom_site_fract_y
_atom_site_fract_z
Si Si1 0.224986 0.468160 0.569938
Si Si2 0.379136 0.486008 0.323861
Si Si3 0.384400 0.412504 0.877450
Si Si4 0.120315 0.524826 0.741496
O O1 0.265168 0.500000 0.500000
O O2 0.316190 0.572850 0.614532
O O3 0.131782 0.685143 0.569107
O O4 0.180849 0.181046 0.600304
O O5 0.500000 0.500000 0.333432
O O6 0.353518 0.286378 0.264474
O O7 0.351457 0.792833 0.300999
O O8 0.500000 0.500000 0.867382
O O9 0.352478 0.213589 0.818348
O O10 0.000000 0.500000 0.735200
#
# Coordination Sequence:
#
# PCOD9330677 Si02
#       4
#     8   8   8   8
#     4  12  27  44  66  99 134 181 236 265 313 402
#     4  10  22  42  68  98 134 169 210 276 338 391
#     4  12  25  44  68  96 135 177 219 280 336 386
#     4  10  20  40  68  99 131 165 213 271 341 405
#
# _framework density 23.487684000000002
#
# number of rings (size 3 to 8) (size 9 to 14) (size 15 to 20)
#    0.000    1.000    0.000    8.250    0.000    7.500 
#    0.000    5.000    0.000    7.500    0.000    0.000 
#    0.000    0.000    0.000    0.000    0.000    0.000 
#
# Total GULP energy -89144.743205 kJ/mol
# GULP energy per Si atom -5571.546450 kJ/mol
# Density = 2.343422 g / cm^3
# Si number density = 23.487684 Si / 1000 Ang^3
#
#
#
# Elastic Constant Matrix: (Units=GPa)
#
#
# Indices 1 2 3 4 5 6 
#
# 1 131.6719 22.4096 74.6230 0.0000 0.0000 0.0000
# 2 22.4096 153.3281 37.0342 0.0000 0.0000 0.0000
# 3 74.6230 37.0342 120.2606 0.0000 0.0000 0.0000
# 4 0.0000 0.0000 0.0000 13.4918 0.0000 0.0000
# 5 0.0000 0.0000 0.0000 0.0000 18.5005 0.0000
# 6 0.0000 0.0000 0.0000 0.0000 0.0000 18.6518
#
#
#
# Elastic Compliance Matrix: (Units=1/GPa)
#
#
# Indices 1 2 3 4 5 6 
#
# 1 0.011714 0.000047 -0.007283 0.000000 0.000000 0.000000
# 2 0.000047 0.007046 -0.002199 0.000000 0.000000 0.000000
# 3 -0.007283 -0.002199 0.013512 0.000000 0.000000 0.000000
# 4 0.000000 0.000000 0.000000 0.074119 0.000000 0.000000
# 5 0.000000 0.000000 0.000000 0.000000 0.054053 0.000000
# 6 0.000000 0.000000 0.000000 0.000000 0.000000 0.053614
#
#
# Mechanical properties :
#
#
# Convention : Reuss Voigt Hill
#
# Bulk Modulus (GPa) = 74.61738 74.82158 74.71948
# Shear Modulus (GPa) = 21.06180 28.20840 24.63510
#
# Velocity S-wave (km/s) = 2.99777 3.46929 3.24211
# Velocity P-wave (km/s) = 6.61966 6.92624 6.77468
#
# Compressibility (1/GPa) = 0.01340170
#
# Stress axis : x y z
#
# Youngs Moduli (GPa) = 85.36528 141.91962 74.00875
#
# Poissons Ratio (x) = -0.00668 0.53903
# Poissons Ratio (y) = -0.00402 0.16275
# Poissons Ratio (z) = 0.62175 0.31210
#
# Static dielectric constant tensor:
#      x y z
#    x 1.954570 0.000000 0.000000 
#    y 0.000000 1.913380 0.000000 
#    z 0.000000 0.000000 1.993220 
# 
# From -- ./inp_files/26846.got.cif
#   From: 2010.05.17/outbox.cif.g08.bks.cpg/sg23_14_cif.got.tgz:26846.got - 2010.06.04 12:02:01.
