data_PCOD9330750
_publ_section_title
;
Structure prediction by ZEFSAII (Michael W. Deem and Ramdas Pophale) SiO2 
 PCOD9330750
Probable space group: I 2 2 2
;
_chemical_formula_sum "Si O2"
_cell_formula_units_Z 38
_cell_length_a 18.290210
_cell_length_b 15.848084
_cell_length_c 6.669206
_cell_angle_alpha 90.000000
_cell_angle_beta 90.000000
_cell_angle_gamma 90.000000
_cell_volume 1933.167960
_symmetry_space_group_name_H-M "I 2 2 2"
_symmetry_group_IT_number 23
_symmetry_cell_setting 'orthorhombic'
loop_
_space_group_symop_operation_xyz
x,y,z
-x,-y,z
x,-y,-z
-x,y,-z
1/2+x,1/2+y,1/2+z
1/2-x,1/2-y,1/2+z
1/2+x,1/2-y,1/2-z
1/2-x,1/2+y,1/2-z
loop_
_atom_site_type_symbol
_atom_site_label
_atom_site_fract_x
_atom_site_fract_y
_atom_site_fract_z
Si Si1 0.000000 0.000000 0.500000
Si Si2 0.117013 0.885534 0.701404
Si Si3 0.199007 0.357081 0.264054
Si Si4 0.584492 0.785676 0.040299
Si Si5 0.759499 0.000000 0.500000
Si Si6 0.651333 0.279687 0.563220
O O1 0.050354 0.055654 0.357606
O O2 0.105525 0.800375 0.575446
O O3 0.189073 0.934039 0.622160
O O4 0.119384 0.856351 0.931193
O O5 0.140782 0.353287 0.445683
O O6 0.213792 0.446748 0.161323
O O7 0.275307 0.316875 0.338098
O O8 0.171475 0.294437 0.090224
O O9 0.500000 0.806465 0.000000
O O10 0.599754 0.761334 0.269781
#
# Coordination Sequence:
#
# PCOD9330750 Si02
#       6
#     2   8   8   8   4   8
#     4  10  20  44  54 100 148 172 200 266 346 416
#     4  10  22  38  65  94 139 167 216 266 332 408
#     4  11  22  39  67  95 130 167 228 273 325 399
#     4  11  23  43  64  95 133 173 224 273 327 406
#     4  11  22  41  60 107 129 166 218 288 329 380
#     4  11  21  42  68  95 122 181 222 266 325 403
#
# _framework density 19.656855
#
# number of rings (size 3 to 8) (size 9 to 14) (size 15 to 20)
#    0.000    1.263    5.263    1.263    0.000    4.211 
#    0.000    1.053    0.000    3.789    0.000    0.000 
#    0.000    0.000    0.000    0.000    0.000    0.000 
#
# Total GULP energy -106150.633188 kJ/mol
# GULP energy per Si atom -5586.875431 kJ/mol
# Density = 1.961211 g / cm^3
# Si number density = 19.656855 Si / 1000 Ang^3
#
#
#
# Elastic Constant Matrix: (Units=GPa)
#
#
# Indices 1 2 3 4 5 6 
#
# 1 110.8466 36.3327 61.9928 0.0000 0.0000 0.0000
# 2 36.3327 55.1932 19.4685 0.0000 0.0000 0.0000
# 3 61.9928 19.4685 131.6997 0.0000 0.0000 0.0000
# 4 0.0000 0.0000 0.0000 31.5549 0.0000 0.0000
# 5 0.0000 0.0000 0.0000 0.0000 22.5681 0.0000
# 6 0.0000 0.0000 0.0000 0.0000 0.0000 6.7057
#
#
#
# Elastic Compliance Matrix: (Units=1/GPa)
#
#
# Indices 1 2 3 4 5 6 
#
# 1 0.014802 -0.007687 -0.005831 0.000000 0.000000 0.000000
# 2 -0.007687 0.023107 0.000203 0.000000 0.000000 0.000000
# 3 -0.005831 0.000203 0.010308 0.000000 0.000000 0.000000
# 4 0.000000 0.000000 0.000000 0.031691 0.000000 0.000000
# 5 0.000000 0.000000 0.000000 0.000000 0.044310 0.000000
# 6 0.000000 0.000000 0.000000 0.000000 0.000000 0.149127
#
#
# Mechanical properties :
#
#
# Convention : Reuss Voigt Hill
#
# Bulk Modulus (GPa) = 46.32708 59.25860 52.79284
# Shear Modulus (GPa) = 16.27746 24.16209 20.21977
#
# Velocity S-wave (km/s) = 2.88076 3.50979 3.21072
# Velocity P-wave (km/s) = 5.88932 6.82911 6.37656
#
# Compressibility (1/GPa) = 0.02158565
#
# Stress axis : x y z
#
# Youngs Moduli (GPa) = 67.55636 43.27682 97.01236
#
# Poissons Ratio (x) = 0.33268 0.56571
# Poissons Ratio (y) = 0.51932 -0.01967
# Poissons Ratio (z) = 0.39394 -0.00877
#
# Static dielectric constant tensor:
#      x y z
#    x 1.702890 0.000000 0.000000 
#    y 0.000000 1.693300 0.000000 
#    z 0.000000 0.000000 1.738320 
# 
# From -- ./inp_files/3136.got.cif
#   From: 2010.05.17/outbox.cif.g08.bks.cpg/sg23_2_cif.got.tgz:3136.got - 2010.06.04 12:02:01.
