data_PCOD9330884
_publ_section_title
;
Structure prediction by ZEFSAII (Michael W. Deem and Ramdas Pophale) SiO2 
 PCOD9330884
Probable space group: I 2 2 2
;
_chemical_formula_sum "Si O2"
_cell_formula_units_Z 64
_cell_length_a 11.528595
_cell_length_b 19.707424
_cell_length_c 13.757819
_cell_angle_alpha 90.000000
_cell_angle_beta 90.000000
_cell_angle_gamma 90.000000
_cell_volume 3125.761478
_symmetry_space_group_name_H-M "I 2 2 2"
_symmetry_group_IT_number 23
_symmetry_cell_setting 'orthorhombic'
loop_
_space_group_symop_operation_xyz
x,y,z
-x,-y,z
x,-y,-z
-x,y,-z
1/2+x,1/2+y,1/2+z
1/2-x,1/2-y,1/2+z
1/2+x,1/2-y,1/2-z
1/2-x,1/2+y,1/2-z
loop_
_atom_site_type_symbol
_atom_site_label
_atom_site_fract_x
_atom_site_fract_y
_atom_site_fract_z
Si Si1 0.432499 0.806324 0.091082
Si Si2 0.210703 0.841211 0.194645
Si Si3 0.286465 0.602208 0.184820
Si Si4 0.417395 0.791831 0.710318
Si Si5 0.365932 0.012701 0.615354
Si Si6 0.464941 0.420365 0.187547
Si Si7 0.645976 0.828905 0.624728
Si Si8 0.647041 0.665963 0.005662
O O1 0.312953 0.846035 0.115513
O O2 0.517274 0.798560 0.185023
O O3 0.500000 0.838608 0.000000
O O4 0.403176 0.730079 0.053535
O O5 0.115444 0.783599 0.178754
O O6 0.138313 0.905594 0.234967
O O7 0.286798 0.805147 0.279943
O O8 0.195927 0.660903 0.210351
O O9 0.214660 0.532887 0.183369
O O10 0.412755 0.605741 0.232847
O O11 0.324360 0.609181 0.072366
O O12 0.511128 0.816012 0.630927
O O13 0.339967 0.090621 0.629127
O O14 0.500000 0.000000 0.639629
O O15 0.352130 0.000000 0.500000
O O16 0.500000 0.500000 0.164566
O O17 0.421641 0.372796 0.094504
O O18 0.728373 0.805284 0.539688
#
# Coordination Sequence:
#
# PCOD9330884 Si02
#       8
#     8   8   8   8   8   8   8   8
#     4  11  22  41  64  88 124 172 229 284 329 388
#     4  10  22  39  61  88 128 171 221 269 327 395
#     4  12  21  34  59  87 134 182 217 259 322 402
#     4  11  23  38  58  89 128 173 222 270 327 396
#     4  11  21  34  53  89 131 173 211 251 318 398
#     4  11  25  41  65 100 140 178 212 263 340 429
#     4  10  21  37  58  87 129 168 210 266 320 399
#     4  11  21  37  60  91 131 179 216 266 322 406
#
# _framework density 20.475010999999999
#
# number of rings (size 3 to 8) (size 9 to 14) (size 15 to 20)
#    0.000    1.125    3.750    4.875    1.750    1.000 
#    0.000    0.000    0.000    0.000    0.000   16.625 
#    0.000    0.000    0.000    0.000    0.000    0.000 
#
# Total GULP energy -178162.398090 kJ/mol
# GULP energy per Si atom -5567.574940 kJ/mol
# Density = 2.042841 g / cm^3
# Si number density = 20.475011 Si / 1000 Ang^3
#
#
#
# Elastic Constant Matrix: (Units=GPa)
#
#
# Indices 1 2 3 4 5 6 
#
# 1 172.0486 45.0983 49.0117 0.0000 0.0000 0.0000
# 2 45.0983 79.2965 21.3713 -0.0001 0.0000 0.0000
# 3 49.0117 21.3713 49.3314 -0.0001 0.0000 0.0000
# 4 0.0000 -0.0001 -0.0001 16.5371 0.0000 0.0000
# 5 0.0000 0.0000 0.0000 0.0000 43.3000 0.0000
# 6 0.0000 0.0000 0.0000 0.0000 0.0000 40.7765
#
#
#
# Elastic Compliance Matrix: (Units=1/GPa)
#
#
# Indices 1 2 3 4 5 6 
#
# 1 0.008679 -0.002957 -0.007341 0.000000 0.000000 0.000000
# 2 -0.002957 0.015286 -0.003684 0.000000 0.000000 0.000000
# 3 -0.007341 -0.003684 0.029161 0.000000 0.000000 0.000000
# 4 0.000000 0.000000 0.000000 0.060470 0.000000 0.000000
# 5 0.000000 0.000000 0.000000 0.000000 0.023095 0.000000
# 6 0.000000 0.000000 0.000000 0.000000 0.000000 0.024524
#
#
# Mechanical properties :
#
#
# Convention : Reuss Voigt Hill
#
# Bulk Modulus (GPa) = 39.74554 59.07101 49.40828
# Shear Modulus (GPa) = 25.30800 32.46908 28.88854
#
# Velocity S-wave (km/s) = 3.51955 3.98652 3.76029
# Velocity P-wave (km/s) = 5.99752 7.07833 6.56022
#
# Compressibility (1/GPa) = 0.02516005
#
# Stress axis : x y z
#
# Youngs Moduli (GPa) = 115.22246 65.42080 34.29259
#
# Poissons Ratio (x) = 0.19347 0.25176
# Poissons Ratio (y) = 0.34075 0.12633
# Poissons Ratio (z) = 0.84590 0.24100
#
# Static dielectric constant tensor:
#      x y z
#    x 1.913620 0.000000 0.000000 
#    y 0.000000 1.747970 0.000000 
#    z 0.000000 0.000000 1.796260 
# 
# From -- ./inp_files/21049.got.cif
#   From: 2010.05.17/outbox.cif.g08.bks.cpg/sg23_11_cif.got.tgz:21049.got - 2010.06.04 12:02:01.
