data_PCOD9330356
_publ_section_title
;
Structure prediction by ZEFSAII (Michael W. Deem and Ramdas Pophale) SiO2 
 PCOD9330356
Probable space group: I 2 2 2
;
_chemical_formula_sum "Si O2"
_cell_formula_units_Z 56
_cell_length_a 15.640787
_cell_length_b 8.748303
_cell_length_c 19.469614
_cell_angle_alpha 90.000000
_cell_angle_beta 90.000000
_cell_angle_gamma 90.000000
_cell_volume 2664.033978
_symmetry_space_group_name_H-M "I 2 2 2"
_symmetry_group_IT_number 23
_symmetry_cell_setting 'orthorhombic'
loop_
_space_group_symop_operation_xyz
x,y,z
-x,-y,z
x,-y,-z
-x,y,-z
1/2+x,1/2+y,1/2+z
1/2-x,1/2-y,1/2+z
1/2+x,1/2-y,1/2-z
1/2-x,1/2+y,1/2-z
loop_
_atom_site_type_symbol
_atom_site_label
_atom_site_fract_x
_atom_site_fract_y
_atom_site_fract_z
Si Si1 0.697883 0.011744 0.917932
Si Si2 0.090722 0.678479 0.982685
Si Si3 0.921670 0.616710 0.694259
Si Si4 0.722196 0.968643 0.709865
Si Si5 0.097153 0.901103 0.220504
Si Si6 0.142299 0.817909 0.847516
Si Si7 0.204251 0.730049 0.108139
O O1 0.713029 0.839486 0.889268
O O2 0.619321 0.099898 0.881763
O O3 0.785259 0.092483 0.891252
O O4 0.690559 0.000000 0.000000
O O5 0.100036 0.707073 0.902716
O O6 0.086829 0.500000 0.000000
O O7 0.166995 0.735568 0.031269
O O8 0.000000 0.753479 0.000000
O O9 0.843376 0.557417 0.741370
O O10 0.944268 0.785236 0.723881
O O11 0.000000 0.500000 0.701291
O O12 0.815526 0.956044 0.741284
O O13 0.688924 0.796165 0.703791
O O14 0.723830 0.062937 0.638474
O O15 0.129151 0.799158 0.156204
O O16 0.075127 0.067631 0.187616
#
# Coordination Sequence:
#
# PCOD9330356 Si02
#       7
#     8   8   8   8   8   8   8
#     4  11  21  38  64  90 119 160 219 263 306 384
#     4  11  23  38  57  92 137 170 204 259 317 380
#     4  11  24  41  62  91 129 161 205 275 335 373
#     4  11  19  37  65  90 123 164 214 256 316 384
#     4  10  21  38  61  91 119 161 214 263 305 381
#     4  11  20  36  66  91 120 168 217 255 305 382
#     4  10  20  35  61  88 119 166 211 252 307 372
#
# _framework density 21.020752999999999
#
# number of rings (size 3 to 8) (size 9 to 14) (size 15 to 20)
#    0.000    1.286    7.143    0.857    0.000    2.571 
#    0.000    9.286    0.000    0.000    0.000    0.000 
#    0.000    0.000    0.000    0.000    0.000    0.000 
#
# Total GULP energy -156149.514316 kJ/mol
# GULP energy per Si atom -5576.768368 kJ/mol
# Density = 2.097291 g / cm^3
# Si number density = 21.020753 Si / 1000 Ang^3
#
#
#
# Elastic Constant Matrix: (Units=GPa)
#
#
# Indices 1 2 3 4 5 6 
#
# 1 19.0813 0.6323 0.8256 0.0000 0.0000 0.0000
# 2 0.6323 107.6239 27.9680 0.0000 0.0000 0.0000
# 3 0.8256 27.9680 86.9791 0.0000 0.0000 0.0000
# 4 0.0000 0.0000 0.0000 37.7862 0.0000 0.0000
# 5 0.0000 0.0000 0.0000 0.0000 2.8418 0.0000
# 6 0.0000 0.0000 0.0000 0.0000 0.0000 10.4603
#
#
#
# Elastic Compliance Matrix: (Units=1/GPa)
#
#
# Indices 1 2 3 4 5 6 
#
# 1 0.052433 -0.000195 -0.000435 0.000000 0.000000 0.000000
# 2 -0.000195 0.010140 -0.003259 0.000000 0.000000 0.000000
# 3 -0.000435 -0.003259 0.012549 0.000000 0.000000 0.000000
# 4 0.000000 0.000000 0.000000 0.026465 0.000000 0.000000
# 5 0.000000 0.000000 0.000000 0.000000 0.351887 0.000000
# 6 0.000000 0.000000 0.000000 0.000000 0.000000 0.095600
#
#
# Mechanical properties :
#
#
# Convention : Reuss Voigt Hill
#
# Bulk Modulus (GPa) = 14.84908 30.28178 22.56543
# Shear Modulus (GPa) = 8.63114 22.50156 15.56635
#
# Velocity S-wave (km/s) = 2.02853 3.27532 2.72421
# Velocity P-wave (km/s) = 3.54484 5.36102 4.54458
#
# Compressibility (1/GPa) = 0.06734424
#
# Stress axis : x y z
#
# Youngs Moduli (GPa) = 19.07206 98.62381 79.68816
#
# Poissons Ratio (x) = 0.01923 0.03466
# Poissons Ratio (y) = 0.00372 0.25966
# Poissons Ratio (z) = 0.00830 0.32137
#
# Static dielectric constant tensor:
#      x y z
#    x 1.824630 0.000000 0.000000 
#    y 0.000000 1.865710 0.000000 
#    z 0.000000 0.000000 1.799390 
# 
# From -- ./inp_files/27006.got.cif
#   From: 2010.05.17/outbox.cif.g08.bks.cpg/sg23_14_cif.got.tgz:27006.got - 2010.06.04 12:02:01.
