data_PCOD9330175
_publ_section_title
;
Structure prediction by ZEFSAII (Michael W. Deem and Ramdas Pophale) SiO2 
 PCOD9330175
Probable space group: I 2 2 2
;
_chemical_formula_sum "Si O2"
_cell_formula_units_Z 64
_cell_length_a 23.553557
_cell_length_b 8.852520
_cell_length_c 14.457786
_cell_angle_alpha 90.000000
_cell_angle_beta 90.000000
_cell_angle_gamma 90.000000
_cell_volume 3014.568878
_symmetry_space_group_name_H-M "I 2 2 2"
_symmetry_group_IT_number 23
_symmetry_cell_setting 'orthorhombic'
loop_
_space_group_symop_operation_xyz
x,y,z
-x,-y,z
x,-y,-z
-x,y,-z
1/2+x,1/2+y,1/2+z
1/2-x,1/2-y,1/2+z
1/2+x,1/2-y,1/2-z
1/2-x,1/2+y,1/2-z
loop_
_atom_site_type_symbol
_atom_site_label
_atom_site_fract_x
_atom_site_fract_y
_atom_site_fract_z
Si Si1 0.182640 0.172217 0.646678
Si Si2 0.088870 0.321725 0.101056
Si Si3 0.317363 0.327227 0.853412
Si Si4 0.588862 0.821237 0.399071
Si Si5 0.062037 0.817876 0.298449
Si Si6 0.204383 0.170066 0.867617
Si Si7 0.204384 0.170729 0.132471
Si Si8 0.562028 0.317543 0.201452
O O1 0.117943 0.231833 0.644934
O O2 0.197067 0.165534 0.756348
O O3 0.232781 0.274356 0.607446
O O4 0.185060 0.999748 0.611510
O O5 0.078994 0.500245 0.109899
O O6 0.156008 0.285229 0.100602
O O7 0.066310 0.240471 0.192854
O O8 0.066704 0.272023 0.000111
O O9 0.267215 0.225070 0.892635
O O10 0.302950 0.333845 0.743734
O O11 0.382087 0.267791 0.855214
O O12 0.566276 0.739921 0.307302
O O13 0.655983 0.784497 0.399505
O O14 0.000032 0.774524 0.335696
O O15 0.065611 0.000167 0.295868
O O16 0.193063 0.999643 0.899233
#
# Coordination Sequence:
#
# PCOD9330175 Si02
#       8
#     8   8   8   8   8   8   8   8
#     4   8  14  25  41  60  81 103 129 166 209 247
#     4  10  20  31  42  58  82 112 144 176 209 244
#     4   8  14  25  41  60  81 103 129 166 209 247
#     4  10  20  31  42  58  82 112 144 176 209 244
#     4   9  18  31  45  61  82 111 145 175 203 239
#     4   9  16  26  42  61  79 102 133 169 209 250
#     4   9  16  26  42  61  79 102 133 169 209 250
#     4   9  18  31  45  61  82 111 145 175 203 239
#
# _framework density 21.230232999999998
#
# number of rings (size 3 to 8) (size 9 to 14) (size 15 to 20)
#    0.000    3.000    0.000    3.000    0.000    9.000 
#    0.000    2.500    0.000    0.000    0.000    0.000 
#    0.000    1.000    0.000   11.500    0.000    3.750 
#
# Total GULP energy -178383.007010 kJ/mol
# GULP energy per Si atom -5574.468969 kJ/mol
# Density = 2.118191 g / cm^3
# Si number density = 21.230233 Si / 1000 Ang^3
#
#
#
# Elastic Constant Matrix: (Units=GPa)
#
#
# Indices 1 2 3 4 5 6 
#
# 1 169.8683 10.3909 -11.0620 0.0000 0.0000 0.0000
# 2 10.3909 17.6721 -5.9075 0.0000 0.0000 0.0000
# 3 -11.0620 -5.9075 38.2830 0.0000 0.0000 0.0000
# 4 0.0000 0.0000 0.0000 -36.9515 0.0000 0.0000
# 5 0.0000 0.0000 0.0000 0.0000 -13.2664 0.0000
# 6 0.0000 0.0000 0.0000 0.0000 0.0000 21.3864
#
#
#
# Elastic Compliance Matrix: (Units=1/GPa)
#
#
# Indices 1 2 3 4 5 6 
#
# 1 0.006166 -0.003195 0.001289 0.000000 0.000000 0.000000
# 2 -0.003195 0.061320 0.008539 0.000000 0.000000 0.000000
# 3 0.001289 0.008539 0.027811 0.000000 0.000000 0.000000
# 4 0.000000 0.000000 0.000000 -0.027062 0.000000 0.000000
# 5 0.000000 0.000000 0.000000 0.000000 -0.075379 0.000000
# 6 0.000000 0.000000 0.000000 0.000000 0.000000 0.046759
#
#
# Mechanical properties :
#
#
# Convention : Reuss Voigt Hill
#
# Bulk Modulus (GPa) = 9.21123 23.62958 16.42040
# Shear Modulus (GPa) = 79.95345 9.72716 44.84031
#
# Velocity S-wave (km/s) = 6.14345 2.14282 4.60074
# Velocity P-wave (km/s) = 7.39397 4.15651 5.99780
#
# Compressibility (1/GPa) = 0.10856318
#
# Stress axis : x y z
#
# Youngs Moduli (GPa) = 162.17257 16.30801 35.95658
#
# Poissons Ratio (x) = 0.05210 -0.04634
# Poissons Ratio (y) = 0.51812 -0.30704
# Poissons Ratio (z) = -0.20900 -0.13926
#
# Static dielectric constant tensor:
#      x y z
#    x 1.825670 0.000000 0.000000 
#    y 0.000000 1.714800 0.000000 
#    z 0.000000 0.000000 1.820860 
# 
# From -- ./inp_files/12281.got.cif
#   From: 2010.05.17/outbox.cif.g08.bks.cpg/sg23_7_cif.got.tgz:12281.got - 2010.06.04 12:02:01.
