data_PCOD9330417
_publ_section_title
;
Structure prediction by ZEFSAII (Michael W. Deem and Ramdas Pophale) SiO2 
 PCOD9330417
Probable space group: I 2 2 2
;
_chemical_formula_sum "Si O2"
_cell_formula_units_Z 48
_cell_length_a 15.825457
_cell_length_b 16.150369
_cell_length_c 8.954838
_cell_angle_alpha 90.000000
_cell_angle_beta 90.000000
_cell_angle_gamma 90.000000
_cell_volume 2288.739913
_symmetry_space_group_name_H-M "I 2 2 2"
_symmetry_group_IT_number 23
_symmetry_cell_setting 'orthorhombic'
loop_
_space_group_symop_operation_xyz
x,y,z
-x,-y,z
x,-y,-z
-x,y,-z
1/2+x,1/2+y,1/2+z
1/2-x,1/2-y,1/2+z
1/2+x,1/2-y,1/2-z
1/2-x,1/2+y,1/2-z
loop_
_atom_site_type_symbol
_atom_site_label
_atom_site_fract_x
_atom_site_fract_y
_atom_site_fract_z
Si Si1 0.278311 0.264162 0.400907
Si Si2 0.732911 0.928935 0.404288
Si Si3 0.637376 0.481062 0.325986
Si Si4 0.573802 0.694220 0.622163
Si Si5 0.078540 0.273028 0.435819
Si Si6 0.366375 0.632667 0.857076
O O1 0.295965 0.165639 0.375725
O O2 0.338054 0.288043 0.538792
O O3 0.180701 0.288121 0.434464
O O4 0.308811 0.315172 0.257371
O O5 0.771924 0.965676 0.252703
O O6 0.810890 0.910141 0.515513
O O7 0.683176 0.000000 0.500000
O O8 0.646087 0.500000 0.500000
O O9 0.584707 0.397487 0.312682
O O10 0.596569 0.558918 0.241773
O O11 0.500000 0.699448 0.500000
O O12 0.561687 0.753833 0.762238
O O13 0.076932 0.196766 0.554396
O O14 0.000000 0.327429 0.500000
#
# Coordination Sequence:
#
# PCOD9330417 Si02
#       6
#     8   8   8   8   8   8
#     4  11  21  41  65  85 123 164 206 255 306 360
#     4   9  20  36  60  89 120 160 209 251 307 365
#     4  11  21  38  57  87 128 165 201 251 305 371
#     4  12  25  41  59  93 126 165 207 249 307 373
#     4  11  23  39  60  88 122 162 208 250 303 364
#     4  10  20  36  61  86 121 167 203 246 306 367
#
# _framework density 20.972237
#
# number of rings (size 3 to 8) (size 9 to 14) (size 15 to 20)
#    0.000    1.333    5.000    3.000    0.000    0.333 
#    0.000    0.833    0.000    0.500    0.000    2.333 
#    0.000    0.000    0.000    0.000    0.000    0.000 
#
# Total GULP energy -133772.852178 kJ/mol
# GULP energy per Si atom -5573.868841 kJ/mol
# Density = 2.092450 g / cm^3
# Si number density = 20.972237 Si / 1000 Ang^3
#
#
#
# Elastic Constant Matrix: (Units=GPa)
#
#
# Indices 1 2 3 4 5 6 
#
# 1 102.9867 15.3070 34.7658 0.0000 0.0000 0.0000
# 2 15.3070 42.6963 -14.7561 0.0000 0.0000 0.0000
# 3 34.7658 -14.7561 101.9767 0.0000 0.0000 0.0000
# 4 0.0000 0.0000 0.0000 28.5133 0.0000 0.0000
# 5 0.0000 0.0000 0.0000 0.0000 30.2693 0.0000
# 6 0.0000 0.0000 0.0000 0.0000 0.0000 7.4920
#
#
#
# Elastic Compliance Matrix: (Units=1/GPa)
#
#
# Indices 1 2 3 4 5 6 
#
# 1 0.012355 -0.006195 -0.005109 0.000000 0.000000 0.000000
# 2 -0.006195 0.027760 0.006129 0.000000 0.000000 0.000000
# 3 -0.005109 0.006129 0.012435 0.000000 0.000000 0.000000
# 4 0.000000 0.000000 0.000000 0.035071 0.000000 0.000000
# 5 0.000000 0.000000 0.000000 0.000000 0.033037 0.000000
# 6 0.000000 0.000000 0.000000 0.000000 0.000000 0.133476
#
#
# Mechanical properties :
#
#
# Convention : Reuss Voigt Hill
#
# Bulk Modulus (GPa) = 23.69613 35.36591 29.53102
# Shear Modulus (GPa) = 17.95003 27.41112 22.68058
#
# Velocity S-wave (km/s) = 2.92874 3.61919 3.29212
# Velocity P-wave (km/s) = 4.77075 5.86213 5.34437
#
# Compressibility (1/GPa) = 0.04220099
#
# Stress axis : x y z
#
# Youngs Moduli (GPa) = 80.93697 36.02255 80.42054
#
# Poissons Ratio (x) = 0.22316 0.41083
# Poissons Ratio (y) = 0.50141 -0.49289
# Poissons Ratio (z) = 0.41347 -0.22078
#
# Static dielectric constant tensor:
#      x y z
#    x 1.849150 0.000000 0.000000 
#    y 0.000000 1.857590 0.000000 
#    z 0.000000 0.000000 1.758780 
# 
# From -- ./inp_files/9975.got.cif
#   From: 2010.05.17/outbox.cif.g08.bks.cpg/sg23_5_cif.got.tgz:9975.got - 2010.06.04 12:02:01.
