data_PCOD9330028
_publ_section_title
;
Structure prediction by ZEFSAII (Michael W. Deem and Ramdas Pophale) SiO2 
 PCOD9330028
Probable space group: I 2 2 2
;
_chemical_formula_sum "Si O2"
_cell_formula_units_Z 64
_cell_length_a 7.154934
_cell_length_b 13.405510
_cell_length_c 30.240418
_cell_angle_alpha 90.000000
_cell_angle_beta 90.000000
_cell_angle_gamma 90.000000
_cell_volume 2900.526001
_symmetry_space_group_name_H-M "I 2 2 2"
_symmetry_group_IT_number 23
_symmetry_cell_setting 'orthorhombic'
loop_
_space_group_symop_operation_xyz
x,y,z
-x,-y,z
x,-y,-z
-x,y,-z
1/2+x,1/2+y,1/2+z
1/2-x,1/2-y,1/2+z
1/2+x,1/2-y,1/2-z
1/2-x,1/2+y,1/2-z
loop_
_atom_site_type_symbol
_atom_site_label
_atom_site_fract_x
_atom_site_fract_y
_atom_site_fract_z
Si Si1 0.975883 0.219606 0.280677
Si Si2 0.625674 0.250769 0.683292
Si Si3 0.490342 0.716179 0.913037
Si Si4 0.608920 0.215838 0.454289
Si Si5 0.176633 0.929174 0.340679
Si Si6 0.378145 0.894965 0.608534
Si Si7 0.074629 0.388532 0.651099
Si Si8 0.985894 0.112534 0.884432
O O1 0.978508 0.224625 0.228226
O O2 0.821241 0.138452 0.296237
O O3 0.946181 0.326842 0.303565
O O4 0.181143 0.199177 0.301107
O O5 0.540604 0.172022 0.648982
O O6 0.636270 0.348778 0.651964
O O7 0.337331 0.716657 0.952933
O O8 0.379415 0.653939 0.876144
O O9 0.691239 0.660148 0.912516
O O10 0.507190 0.825437 0.890976
O O11 0.500000 0.225314 0.500000
O O12 0.526667 0.116336 0.430863
O O13 0.539813 0.308192 0.423711
O O14 0.312879 0.005128 0.366435
O O15 0.000000 0.000000 0.331854
O O16 0.294222 0.387643 0.642394
O O17 0.000000 0.500000 0.653042
O O18 0.000000 0.000000 0.901380
#
# Coordination Sequence:
#
# PCOD9330028 Si02
#       8
#     8   8   8   8   8   8   8   8
#     4  11  21  36  57  86 130 159 221 271 305 372
#     4  11  21  37  56  87 126 167 211 269 320 374
#     4   9  19  38  63  90 122 161 206 258 311 387
#     4  10  23  40  64  98 126 158 203 272 331 395
#     4   9  17  37  64  85 114 172 212 255 307 379
#     4  10  20  41  66  84 125 172 212 250 331 379
#     4  10  19  36  60  84 121 165 214 257 309 371
#     4  10  22  38  62  86 118 169 212 256 326 388
#
# _framework density 22.064962999999999
#
# number of rings (size 3 to 8) (size 9 to 14) (size 15 to 20)
#    0.000    2.000    3.750    1.500    1.750    2.750 
#    4.500    1.250    0.000    2.250    0.000    0.000 
#    0.000    0.000    0.000    0.000    0.000    0.000 
#
# Total GULP energy -178268.108899 kJ/mol
# GULP energy per Si atom -5570.878403 kJ/mol
# Density = 2.201474 g / cm^3
# Si number density = 22.064963 Si / 1000 Ang^3
#
#
#
# Elastic Constant Matrix: (Units=GPa)
#
#
# Indices 1 2 3 4 5 6 
#
# 1 99.7784 13.3651 33.9186 0.0000 0.0000 0.0000
# 2 13.3651 144.3836 39.5483 0.0000 0.0000 0.0000
# 3 33.9186 39.5483 111.6776 0.0000 0.0000 0.0000
# 4 0.0000 0.0000 0.0000 16.9591 0.0000 0.0000
# 5 0.0000 0.0000 0.0000 0.0000 34.3082 0.0000
# 6 0.0000 0.0000 0.0000 0.0000 0.0000 30.9019
#
#
#
# Elastic Compliance Matrix: (Units=1/GPa)
#
#
# Indices 1 2 3 4 5 6 
#
# 1 0.011178 -0.000116 -0.003354 0.000000 0.000000 0.000000
# 2 -0.000116 0.007671 -0.002681 0.000000 0.000000 0.000000
# 3 -0.003354 -0.002681 0.010923 0.000000 0.000000 0.000000
# 4 0.000000 0.000000 0.000000 0.058965 0.000000 0.000000
# 5 0.000000 0.000000 0.000000 0.000000 0.029148 0.000000
# 6 0.000000 0.000000 0.000000 0.000000 0.000000 0.032360
#
#
# Mechanical properties :
#
#
# Convention : Reuss Voigt Hill
#
# Bulk Modulus (GPa) = 57.24390 58.83373 58.03882
# Shear Modulus (GPa) = 29.69641 34.36767 32.03204
#
# Velocity S-wave (km/s) = 3.67258 3.95088 3.81427
# Velocity P-wave (km/s) = 6.63200 6.89452 6.76453
#
# Compressibility (1/GPa) = 0.01746911
#
# Stress axis : x y z
#
# Youngs Moduli (GPa) = 89.46266 130.35796 91.55408
#
# Poissons Ratio (x) = 0.01513 0.30706
# Poissons Ratio (y) = 0.01038 0.24549
# Poissons Ratio (z) = 0.30004 0.34953
#
# Static dielectric constant tensor:
#      x y z
#    x 1.981220 0.000000 0.000000 
#    y 0.000000 1.913640 0.000000 
#    z 0.000000 0.000000 1.786300 
# 
# From -- ./inp_files/30334.got.cif
#   From: 2010.05.17/outbox.cif.g08.bks.cpg/sg23_16_cif.got.tgz:30334.got - 2010.06.04 12:02:01.
