data_PCOD9330091
_publ_section_title
;
Structure prediction by ZEFSAII (Michael W. Deem and Ramdas Pophale) SiO2 
 PCOD9330091
Probable space group: I 2 2 2
;
_chemical_formula_sum "Si O2"
_cell_formula_units_Z 32
_cell_length_a 6.609480
_cell_length_b 20.200414
_cell_length_c 9.691429
_cell_angle_alpha 90.000000
_cell_angle_beta 90.000000
_cell_angle_gamma 90.000000
_cell_volume 1293.943703
_symmetry_space_group_name_H-M "I 2 2 2"
_symmetry_group_IT_number 23
_symmetry_cell_setting 'orthorhombic'
loop_
_space_group_symop_operation_xyz
x,y,z
-x,-y,z
x,-y,-z
-x,y,-z
1/2+x,1/2+y,1/2+z
1/2-x,1/2-y,1/2+z
1/2+x,1/2-y,1/2-z
1/2-x,1/2+y,1/2-z
loop_
_atom_site_type_symbol
_atom_site_label
_atom_site_fract_x
_atom_site_fract_y
_atom_site_fract_z
Si Si1 0.368267 0.200839 0.390976
Si Si2 0.632361 0.737084 0.102031
Si Si3 0.237290 0.116407 0.993336
Si Si4 0.969805 0.571687 0.733664
O O1 0.377237 0.256011 0.268958
O O2 0.634056 0.205706 0.430595
O O3 0.378397 0.125796 0.335325
O O4 0.111836 0.213040 0.419332
O O5 0.681570 0.814238 0.056551
O O6 0.318594 0.063540 0.103877
O O7 0.330362 0.100641 0.843531
O O8 0.000000 0.119012 0.000000
O O9 0.000000 0.500000 0.798197
#
# Coordination Sequence:
#
# PCOD9330091 Si02
#       4
#     8   8   8   8
#     4  11  23  41  64  96 134 182 227 294 358 420
#     4  11  21  39  64 101 140 173 233 290 356 422
#     4  10  19  37  68 101 135 187 236 291 348 410
#     4  10  22  41  62 100 142 183 242 285 343 426
#
# _framework density 24.730598000000001
#
# number of rings (size 3 to 8) (size 9 to 14) (size 15 to 20)
#    0.000    1.500    5.000    3.750    0.000    4.500 
#    0.000    0.000    0.000    0.000    0.000    0.000 
#    0.000    0.000    0.000    0.000    0.000    0.000 
#
# Total GULP energy -89247.850037 kJ/mol
# GULP energy per Si atom -5577.990627 kJ/mol
# Density = 2.467431 g / cm^3
# Si number density = 24.730598 Si / 1000 Ang^3
#
#
#
# Elastic Constant Matrix: (Units=GPa)
#
#
# Indices 1 2 3 4 5 6 
#
# 1 264.9294 49.7065 91.4293 0.0000 0.0000 0.0000
# 2 49.7065 149.9002 52.0160 0.0000 0.0000 0.0000
# 3 91.4293 52.0160 169.9311 0.0000 0.0000 0.0000
# 4 0.0000 0.0000 0.0000 38.9015 0.0000 0.0000
# 5 0.0000 0.0000 0.0000 0.0000 76.1464 0.0000
# 6 0.0000 0.0000 0.0000 0.0000 0.0000 17.5907
#
#
#
# Elastic Compliance Matrix: (Units=1/GPa)
#
#
# Indices 1 2 3 4 5 6 
#
# 1 0.004712 -0.000764 -0.002301 0.000000 0.000000 0.000000
# 2 -0.000764 0.007588 -0.001912 0.000000 0.000000 0.000000
# 3 -0.002301 -0.001912 0.007708 0.000000 0.000000 0.000000
# 4 0.000000 0.000000 0.000000 0.025706 0.000000 0.000000
# 5 0.000000 0.000000 0.000000 0.000000 0.013133 0.000000
# 6 0.000000 0.000000 0.000000 0.000000 0.000000 0.056848
#
#
# Mechanical properties :
#
#
# Convention : Reuss Voigt Hill
#
# Bulk Modulus (GPa) = 99.46212 107.89605 103.67909
# Shear Modulus (GPa) = 38.75964 52.63499 45.69731
#
# Velocity S-wave (km/s) = 3.96318 4.61839 4.30327
# Velocity P-wave (km/s) = 7.82610 8.49486 8.16733
#
# Compressibility (1/GPa) = 0.01005408
#
# Stress axis : x y z
#
# Youngs Moduli (GPa) = 212.21586 131.79135 129.73251
#
# Poissons Ratio (x) = 0.10068 0.29858
# Poissons Ratio (y) = 0.16212 0.24800
# Poissons Ratio (z) = 0.48841 0.25193
#
# Static dielectric constant tensor:
#      x y z
#    x 2.165060 0.000000 0.000000 
#    y 0.000000 1.870480 0.000000 
#    z 0.000000 0.000000 2.064060 
# 
# From -- ./inp_files/22946.got.cif
#   From: 2010.05.17/outbox.cif.g08.bks.cpg/sg23_12_cif.got.tgz:22946.got - 2010.06.04 12:02:01.
