data_PCOD9330071
_publ_section_title
;
Structure prediction by ZEFSAII (Michael W. Deem and Ramdas Pophale) SiO2 
 PCOD9330071
Probable space group: I 2 2 2
;
_chemical_formula_sum "Si O2"
_cell_formula_units_Z 32
_cell_length_a 7.459446
_cell_length_b 16.665908
_cell_length_c 11.100780
_cell_angle_alpha 90.000000
_cell_angle_beta 90.000000
_cell_angle_gamma 90.000000
_cell_volume 1380.031661
_symmetry_space_group_name_H-M "I 2 2 2"
_symmetry_group_IT_number 23
_symmetry_cell_setting 'orthorhombic'
loop_
_space_group_symop_operation_xyz
x,y,z
-x,-y,z
x,-y,-z
-x,y,-z
1/2+x,1/2+y,1/2+z
1/2-x,1/2-y,1/2+z
1/2+x,1/2-y,1/2-z
1/2-x,1/2+y,1/2-z
loop_
_atom_site_type_symbol
_atom_site_label
_atom_site_fract_x
_atom_site_fract_y
_atom_site_fract_z
Si Si1 0.789565 0.504273 0.354620
Si Si2 0.490727 0.628507 0.285942
Si Si3 0.964180 0.711194 0.875765
Si Si4 0.055939 0.265574 0.371623
O O1 0.777915 0.500000 0.500000
O O2 0.669569 0.582460 0.323947
O O3 0.672106 0.433940 0.290837
O O4 0.000000 0.500000 0.322731
O O5 0.432847 0.702592 0.373025
O O6 0.533306 0.679125 0.163970
O O7 0.760496 0.739236 0.874258
O O8 0.010844 0.679572 0.743470
O O9 0.000000 0.666459 0.000000
O O10 0.000000 0.298487 0.500000
#
# Coordination Sequence:
#
# PCOD9330071 Si02
#       4
#     8   8   8   8
#     4  10  19  37  61  87 114 152 205 253 297 345
#     4   9  21  37  57  86 120 147 192 251 297 343
#     4  10  20  37  60  85 119 160 195 242 296 350
#     4  10  22  38  55  88 124 159 195 240 298 361
#
# _framework density 23.187874000000001
#
# number of rings (size 3 to 8) (size 9 to 14) (size 15 to 20)
#    1.500    0.750    0.000    4.500    0.000    2.000 
#    4.500    2.500    0.000    1.500    0.000    0.000 
#    0.000    0.000    0.000    0.000    0.000    0.000 
#
# Total GULP energy -89124.970237 kJ/mol
# GULP energy per Si atom -5570.310640 kJ/mol
# Density = 2.313510 g / cm^3
# Si number density = 23.187874 Si / 1000 Ang^3
#
#
#
# Elastic Constant Matrix: (Units=GPa)
#
#
# Indices 1 2 3 4 5 6 
#
# 1 139.7318 11.5958 41.5987 0.0000 0.0000 0.0000
# 2 11.5958 89.4482 -1.0765 -0.0001 0.0000 0.0000
# 3 41.5987 -1.0765 174.8956 -0.0001 0.0001 0.0000
# 4 0.0000 -0.0001 -0.0001 3.5198 0.0001 0.0000
# 5 0.0000 0.0000 0.0001 0.0001 25.2493 0.0000
# 6 0.0000 0.0000 0.0000 0.0000 0.0000 30.6830
#
#
#
# Elastic Compliance Matrix: (Units=1/GPa)
#
#
# Indices 1 2 3 4 5 6 
#
# 1 0.007796 -0.001033 -0.001861 0.000000 0.000000 0.000000
# 2 -0.001033 0.011317 0.000315 0.000000 0.000000 0.000000
# 3 -0.001861 0.000315 0.006162 0.000000 0.000000 0.000000
# 4 0.000000 0.000000 0.000000 0.284111 -0.000001 0.000000
# 5 0.000000 0.000000 0.000000 -0.000001 0.039605 0.000000
# 6 0.000000 0.000000 0.000000 0.000000 0.000000 0.032591
#
#
# Mechanical properties :
#
#
# Convention : Reuss Voigt Hill
#
# Bulk Modulus (GPa) = 49.70414 56.47905 53.09159
# Shear Modulus (GPa) = 12.70822 35.35427 24.03124
#
# Velocity S-wave (km/s) = 2.34360 3.90896 3.22276
# Velocity P-wave (km/s) = 5.36705 6.69203 6.06583
#
# Compressibility (1/GPa) = 0.02011905
#
# Stress axis : x y z
#
# Youngs Moduli (GPa) = 128.26717 88.35971 162.27978
#
# Poissons Ratio (x) = 0.09128 0.30195
# Poissons Ratio (y) = 0.13251 -0.05118
# Poissons Ratio (z) = 0.23866 -0.02787
#
# Static dielectric constant tensor:
#      x y z
#    x 1.917310 0.000000 0.000000 
#    y 0.000000 1.886810 0.000000 
#    z 0.000000 0.000000 1.991180 
# 
# From -- ./inp_files/6614.got.cif
#   From: 2010.05.17/outbox.cif.g08.bks.cpg/sg23_4_cif.got.tgz:6614.got - 2010.06.04 12:02:01.
