data_PCOD9330451
_publ_section_title
;
Structure prediction by ZEFSAII (Michael W. Deem and Ramdas Pophale) SiO2 
 PCOD9330451
Probable space group: I 2 2 2
;
_chemical_formula_sum "Si O2"
_cell_formula_units_Z 64
_cell_length_a 9.221593
_cell_length_b 15.529705
_cell_length_c 23.796449
_cell_angle_alpha 90.000000
_cell_angle_beta 90.000000
_cell_angle_gamma 90.000000
_cell_volume 3407.856596
_symmetry_space_group_name_H-M "I 2 2 2"
_symmetry_group_IT_number 23
_symmetry_cell_setting 'orthorhombic'
loop_
_space_group_symop_operation_xyz
x,y,z
-x,-y,z
x,-y,-z
-x,y,-z
1/2+x,1/2+y,1/2+z
1/2-x,1/2-y,1/2+z
1/2+x,1/2-y,1/2-z
1/2-x,1/2+y,1/2-z
loop_
_atom_site_type_symbol
_atom_site_label
_atom_site_fract_x
_atom_site_fract_y
_atom_site_fract_z
Si Si1 0.197748 0.552587 0.711990
Si Si2 0.655180 0.714889 0.470991
Si Si3 0.367271 0.879932 0.956983
Si Si4 0.513042 0.828368 0.163680
Si Si5 0.096270 0.794446 0.241432
Si Si6 0.237739 0.706415 0.140134
Si Si7 0.626474 0.571583 0.784467
Si Si8 0.665624 0.529230 0.411114
O O1 0.039220 0.588159 0.698082
O O2 0.276852 0.635123 0.740388
O O3 0.245031 0.473650 0.750370
O O4 0.271629 0.535954 0.651473
O O5 0.500000 0.724397 0.500000
O O6 0.778544 0.700612 0.517619
O O7 0.684849 0.786027 0.423606
O O8 0.664729 0.623284 0.438495
O O9 0.420972 0.856582 0.894953
O O10 0.260959 0.960621 0.945608
O O11 0.500000 0.897882 0.000000
O O12 0.604627 0.768213 0.205085
O O13 0.370065 0.773759 0.147470
O O14 0.115807 0.739567 0.184435
O O15 0.950247 0.851463 0.248635
O O16 0.304472 0.616527 0.161077
O O17 0.500000 0.500000 0.794569
O O18 0.500000 0.500000 0.409236
#
# Coordination Sequence:
#
# PCOD9330451 Si02
#       8
#     8   8   8   8   8   8   8   8
#     4  10  20  37  58  89 127 155 210 246 315 378
#     4  12  24  41  58  85 126 176 215 250 304 371
#     4  12  25  40  59  87 126 172 214 253 304 361
#     4  10  21  38  57  87 124 159 201 262 308 360
#     4   9  18  36  57  85 122 159 203 250 317 367
#     4  10  20  40  59  84 126 154 211 268 303 366
#     4   9  19  35  61  88 122 166 200 256 323 383
#     4  12  23  37  57  83 125 176 212 241 297 382
#
# _framework density 18.780132999999999
#
# number of rings (size 3 to 8) (size 9 to 14) (size 15 to 20)
#    0.000    1.500    5.000    1.500    1.750    3.500 
#    6.750    0.000    0.000    0.000    0.000   14.875 
#    3.750    0.000    0.000    0.000    0.000    0.000 
#
# Total GULP energy -178673.615762 kJ/mol
# GULP energy per Si atom -5583.550493 kJ/mol
# Density = 1.873739 g / cm^3
# Si number density = 18.780133 Si / 1000 Ang^3
#
#
#
# Elastic Constant Matrix: (Units=GPa)
#
#
# Indices 1 2 3 4 5 6 
#
# 1 89.2674 42.1541 66.1546 0.0000 0.0000 0.0000
# 2 42.1541 85.8161 65.2841 0.0000 0.0000 0.0000
# 3 66.1546 65.2841 131.2085 0.0000 0.0000 0.0000
# 4 0.0000 0.0000 0.0000 5.3086 0.0000 0.0000
# 5 0.0000 0.0000 0.0000 0.0000 36.0177 0.0000
# 6 0.0000 0.0000 0.0000 0.0000 0.0000 15.6562
#
#
#
# Elastic Compliance Matrix: (Units=1/GPa)
#
#
# Indices 1 2 3 4 5 6 
#
# 1 0.018412 -0.003189 -0.007696 0.000000 0.000000 0.000000
# 2 -0.003189 0.019302 -0.007996 0.000000 0.000000 0.000000
# 3 -0.007696 -0.007996 0.015480 0.000000 0.000000 0.000000
# 4 0.000000 0.000000 0.000000 0.188373 0.000000 0.000000
# 5 0.000000 0.000000 0.000000 0.000000 0.027764 0.000000
# 6 0.000000 0.000000 0.000000 0.000000 0.000000 0.063872
#
#
# Mechanical properties :
#
#
# Convention : Reuss Voigt Hill
#
# Bulk Modulus (GPa) = 64.80290 72.60862 68.70576
# Shear Modulus (GPa) = 13.29390 20.24310 16.76850
#
# Velocity S-wave (km/s) = 2.66347 3.28670 2.99136
# Velocity P-wave (km/s) = 6.63625 7.29038 6.97099
#
# Compressibility (1/GPa) = 0.01543141
#
# Stress axis : x y z
#
# Youngs Moduli (GPa) = 54.31233 51.80698 64.59744
#
# Poissons Ratio (x) = 0.16523 0.49717
# Poissons Ratio (y) = 0.17322 0.51653
# Poissons Ratio (z) = 0.41801 0.41425
#
# Static dielectric constant tensor:
#      x y z
#    x 1.711000 0.000000 0.000000 
#    y 0.000000 1.673850 0.000000 
#    z 0.000000 0.000000 1.652120 
# 
# From -- ./inp_files/28083.got.cif
#   From: 2010.05.17/outbox.cif.g08.bks.cpg/sg23_15_cif.got.tgz:28083.got - 2010.06.04 12:02:01.
