data_PCOD9330012
_publ_section_title
;
Structure prediction by ZEFSAII (Michael W. Deem and Ramdas Pophale) SiO2 
 PCOD9330012
Probable space group: I 2 2 2
;
_chemical_formula_sum "Si O2"
_cell_formula_units_Z 40
_cell_length_a 8.255649
_cell_length_b 22.254629
_cell_length_c 9.582618
_cell_angle_alpha 90.000000
_cell_angle_beta 90.000000
_cell_angle_gamma 90.000000
_cell_volume 1760.579962
_symmetry_space_group_name_H-M "I 2 2 2"
_symmetry_group_IT_number 23
_symmetry_cell_setting 'orthorhombic'
loop_
_space_group_symop_operation_xyz
x,y,z
-x,-y,z
x,-y,-z
-x,y,-z
1/2+x,1/2+y,1/2+z
1/2-x,1/2-y,1/2+z
1/2+x,1/2-y,1/2-z
1/2-x,1/2+y,1/2-z
loop_
_atom_site_type_symbol
_atom_site_label
_atom_site_fract_x
_atom_site_fract_y
_atom_site_fract_z
Si Si1 0.890250 0.123606 0.705273
Si Si2 0.165889 0.274250 0.732800
Si Si3 0.500000 0.852484 0.000000
Si Si4 0.288632 0.640570 0.884526
Si Si5 0.500000 0.181763 0.500000
Si Si6 0.688017 0.569723 0.531423
O O1 0.835709 0.188572 0.766712
O O2 0.839237 0.127925 0.544766
O O3 0.795295 0.077972 0.801370
O O4 0.079806 0.106544 0.706637
O O5 0.185384 0.208981 0.667514
O O6 0.046052 0.310186 0.630122
O O7 0.105165 0.277987 0.893374
O O8 0.662408 0.891646 0.969984
O O9 0.097847 0.637589 0.896779
O O10 0.702523 0.500000 0.500000
O O11 0.500000 0.589551 0.500000
#
# Coordination Sequence:
#
# PCOD9330012 Si02
#       6
#     8   8   4   8   4   8
#     4   9  20  36  55  87 124 165 208 263 316 378
#     4  10  20  36  56  92 131 174 213 253 315 389
#     4  10  21  38  64  94 128 172 210 271 326 388
#     4  10  19  36  56  85 133 169 208 255 309 393
#     4  10  22  34  56  86 125 180 223 246 306 372
#     4  10  22  41  64  93 122 160 221 277 336 381
#
# _framework density 22.719785999999999
#
# number of rings (size 3 to 8) (size 9 to 14) (size 15 to 20)
#    0.000    2.200    0.000    2.700    2.800    1.600 
#   16.200    0.000    0.000    9.600    0.000    1.400 
#    0.000    0.000    0.000    0.000    0.000    0.000 
#
# Total GULP energy -111401.739146 kJ/mol
# GULP energy per Si atom -5570.086957 kJ/mol
# Density = 2.266807 g / cm^3
# Si number density = 22.719786 Si / 1000 Ang^3
#
#
#
# Elastic Constant Matrix: (Units=GPa)
#
#
# Indices 1 2 3 4 5 6 
#
# 1 88.0006 -6.9807 6.6533 -0.0006 -0.0001 0.0000
# 2 -6.9807 26.9240 0.4247 -0.0009 -0.0002 0.0000
# 3 6.6533 0.4247 92.4085 -0.0045 0.0002 -0.0007
# 4 -0.0006 -0.0009 -0.0045 58.8285 0.0003 -0.0003
# 5 -0.0001 -0.0002 0.0002 0.0003 45.2935 0.0000
# 6 0.0000 0.0000 -0.0007 -0.0003 0.0000 21.2073
#
#
#
# Elastic Compliance Matrix: (Units=1/GPa)
#
#
# Indices 1 2 3 4 5 6 
#
# 1 0.011669 0.003039 -0.000854 0.000000 0.000000 0.000000
# 2 0.003039 0.037936 -0.000393 0.000001 0.000000 0.000000
# 3 -0.000854 -0.000393 0.010885 0.000001 0.000000 0.000000
# 4 0.000000 0.000001 0.000001 0.016999 0.000000 0.000000
# 5 0.000000 0.000000 0.000000 0.000000 0.022078 0.000000
# 6 0.000000 0.000000 0.000000 0.000000 0.000000 0.047154
#
#
# Mechanical properties :
#
#
# Convention : Reuss Voigt Hill
#
# Bulk Modulus (GPa) = 15.60715 23.05862 19.33288
# Shear Modulus (GPa) = 30.39618 38.88158 34.63888
#
# Velocity S-wave (km/s) = 3.66166 4.14134 3.90887
# Velocity P-wave (km/s) = 4.97608 5.74793 5.37588
#
# Compressibility (1/GPa) = 0.06407319
#
# Stress axis : x y z
#
# Youngs Moduli (GPa) = 85.69560 26.36040 91.87111
#
# Poissons Ratio (x) = -0.08011 0.07847
# Poissons Ratio (y) = -0.26043 0.03612
# Poissons Ratio (z) = 0.07320 0.01036
#
# Static dielectric constant tensor:
#      x y z
#    x 2.028130 0.000000 0.000000 
#    y 0.000000 1.806700 0.000000 
#    z 0.000000 0.000000 1.911040 
# 
# From -- ./inp_files/7131.got.cif
#   From: 2010.05.17/outbox.cif.g08.bks.cpg/sg23_4_cif.got.tgz:7131.got - 2010.06.04 12:02:01.
