data_PCOD9330319
_publ_section_title
;
Structure prediction by ZEFSAII (Michael W. Deem and Ramdas Pophale) SiO2 
 PCOD9330319
Probable space group: I 2 2 2
;
_chemical_formula_sum "Si O2"
_cell_formula_units_Z 40
_cell_length_a 13.147100
_cell_length_b 11.635189
_cell_length_c 15.548355
_cell_angle_alpha 90.000000
_cell_angle_beta 90.000000
_cell_angle_gamma 90.000000
_cell_volume 2378.416212
_symmetry_space_group_name_H-M "I 2 2 2"
_symmetry_group_IT_number 23
_symmetry_cell_setting 'orthorhombic'
loop_
_space_group_symop_operation_xyz
x,y,z
-x,-y,z
x,-y,-z
-x,y,-z
1/2+x,1/2+y,1/2+z
1/2-x,1/2-y,1/2+z
1/2+x,1/2-y,1/2-z
1/2-x,1/2+y,1/2-z
loop_
_atom_site_type_symbol
_atom_site_label
_atom_site_fract_x
_atom_site_fract_y
_atom_site_fract_z
Si Si1 0.721256 0.737165 0.177453
Si Si2 0.958352 0.373531 0.362639
Si Si3 0.120815 0.993604 0.396878
Si Si4 0.772362 0.629677 0.516906
Si Si5 0.167995 0.755993 0.649152
O O1 0.627318 0.822567 0.201315
O O2 0.670575 0.622114 0.139538
O O3 0.775961 0.803501 0.097958
O O4 0.790420 0.715705 0.259196
O O5 0.890713 0.377246 0.450052
O O6 0.000000 0.500000 0.343578
O O7 0.052830 0.287873 0.364642
O O8 0.170041 0.106986 0.356481
O O9 0.133563 0.000000 0.500000
O O10 0.000000 0.000000 0.379465
O O11 0.737332 0.500000 0.500000
O O12 0.769728 0.700626 0.429469
#
# Coordination Sequence:
#
# PCOD9330319 Si02
#       5
#     8   8   8   8   8
#     4  10  24  33  50  90 108 145 179 214 283 322
#     4  10  20  35  55  83 108 138 184 223 268 318
#     4  11  20  36  55  80 115 140 173 233 281 314
#     4  10  20  35  55  83 108 138 184 223 268 318
#     4  12  21  34  56  79 120 141 174 229 267 327
#
# _framework density 16.817913999999998
#
# number of rings (size 3 to 8) (size 9 to 14) (size 15 to 20)
#    1.200    0.200    6.000    0.600    8.400    0.000 
#    0.000    0.000    0.000    1.200    0.000    5.600 
#    0.000    0.000    0.000    0.000    0.000    0.000 
#
# Total GULP energy -111355.393413 kJ/mol
# GULP energy per Si atom -5567.769671 kJ/mol
# Density = 1.677964 g / cm^3
# Si number density = 16.817914 Si / 1000 Ang^3
#
#
#
# Elastic Constant Matrix: (Units=GPa)
#
#
# Indices 1 2 3 4 5 6 
#
# 1 10.4750 9.3063 15.6550 0.0000 0.0000 0.0000
# 2 9.3063 117.5437 24.0592 0.0000 0.0000 0.0000
# 3 15.6550 24.0592 75.3028 0.0000 0.0000 0.0000
# 4 0.0000 0.0000 0.0000 19.8422 0.0000 0.0000
# 5 0.0000 0.0000 0.0000 0.0000 20.5214 0.0000
# 6 0.0000 0.0000 0.0000 0.0000 0.0000 4.4553
#
#
#
# Elastic Compliance Matrix: (Units=1/GPa)
#
#
# Indices 1 2 3 4 5 6 
#
# 1 0.141808 -0.005556 -0.027706 0.000000 0.000000 0.000000
# 2 -0.005556 0.009320 -0.001823 0.000000 0.000000 0.000000
# 3 -0.027706 -0.001823 0.019622 0.000000 0.000000 0.000000
# 4 0.000000 0.000000 0.000000 0.050398 0.000000 0.000000
# 5 0.000000 0.000000 0.000000 0.000000 0.048730 0.000000
# 6 0.000000 0.000000 0.000000 0.000000 0.000000 0.224452
#
#
# Mechanical properties :
#
#
# Convention : Reuss Voigt Hill
#
# Bulk Modulus (GPa) = 9.94226 33.48471 21.71349
# Shear Modulus (GPa) = 8.36083 19.25050 13.80567
#
# Velocity S-wave (km/s) = 2.23208 3.38693 2.86823
# Velocity P-wave (km/s) = 3.54506 5.93704 4.88957
#
# Compressibility (1/GPa) = 0.10058073
#
# Stress axis : x y z
#
# Youngs Moduli (GPa) = 7.05178 107.29064 50.96333
#
# Poissons Ratio (x) = 0.59615 1.41198
# Poissons Ratio (y) = 0.03918 0.09289
# Poissons Ratio (z) = 0.19538 0.19556
#
# Static dielectric constant tensor:
#      x y z
#    x 1.555080 0.000000 0.000000 
#    y 0.000000 1.596470 0.000000 
#    z 0.000000 0.000000 1.566650 
# 
# From -- ./inp_files/20734.got.cif
#   From: 2010.05.17/outbox.cif.g08.bks.cpg/sg23_11_cif.got.tgz:20734.got - 2010.06.04 12:02:01.
