data_PCOD9330114
_publ_section_title
;
Structure prediction by ZEFSAII (Michael W. Deem and Ramdas Pophale) SiO2 
 PCOD9330114
Probable space group: I 2 2 2
;
_chemical_formula_sum "Si O2"
_cell_formula_units_Z 48
_cell_length_a 27.251014
_cell_length_b 9.263235
_cell_length_c 9.232865
_cell_angle_alpha 90.000000
_cell_angle_beta 90.000000
_cell_angle_gamma 90.000000
_cell_volume 2330.675625
_symmetry_space_group_name_H-M "I 2 2 2"
_symmetry_group_IT_number 23
_symmetry_cell_setting 'orthorhombic'
loop_
_space_group_symop_operation_xyz
x,y,z
-x,-y,z
x,-y,-z
-x,y,-z
1/2+x,1/2+y,1/2+z
1/2-x,1/2-y,1/2+z
1/2+x,1/2-y,1/2-z
1/2-x,1/2+y,1/2-z
loop_
_atom_site_type_symbol
_atom_site_label
_atom_site_fract_x
_atom_site_fract_y
_atom_site_fract_z
Si Si1 0.356861 0.160430 0.534082
Si Si2 0.705802 0.199228 0.897211
Si Si3 0.891122 0.699987 0.731885
Si Si4 0.050549 0.582423 0.808285
Si Si5 0.006460 0.841423 0.328444
Si Si6 0.219162 0.375180 0.275488
O O1 0.359628 0.236126 0.377817
O O2 0.414913 0.146036 0.567475
O O3 0.325615 0.193981 0.678181
O O4 0.337435 0.000000 0.500000
O O5 0.647303 0.216943 0.896138
O O6 0.733797 0.327560 0.816512
O O7 0.714473 0.046911 0.810310
O O8 0.722626 0.189005 0.062955
O O9 0.913002 0.536218 0.737044
O O10 0.939065 0.793860 0.713550
O O11 0.000000 0.500000 0.845593
O O12 0.031918 0.719278 0.719462
O O13 0.000000 0.849223 0.500000
O O14 0.000000 0.000000 0.263927
#
# Coordination Sequence:
#
# PCOD9330114 Si02
#       6
#     8   8   8   8   8   8
#     4  10  19  38  64  92 127 159 210 265 311 371
#     4  11  24  42  65 100 126 170 211 269 320 386
#     4  10  21  39  65  91 122 164 214 260 313 370
#     4   9  19  35  63  91 119 160 208 255 302 373
#     4  10  23  40  58  88 134 165 207 258 320 377
#     4  11  24  41  68  93 134 163 215 265 325 383
#
# _framework density 20.594888000000001
#
# number of rings (size 3 to 8) (size 9 to 14) (size 15 to 20)
#    0.000    1.833    3.333    1.000    2.333   10.667 
#    3.000    1.667    0.000    0.000    0.000    0.000 
#    0.000    0.000    0.000    0.000    0.000    0.000 
#
# Total GULP energy -133662.991247 kJ/mol
# GULP energy per Si atom -5569.291302 kJ/mol
# Density = 2.054801 g / cm^3
# Si number density = 20.594888 Si / 1000 Ang^3
#
#
#
# Elastic Constant Matrix: (Units=GPa)
#
#
# Indices 1 2 3 4 5 6 
#
# 1 83.3909 19.7535 15.4385 0.0000 0.0000 0.0000
# 2 19.7535 73.7955 21.4328 0.0000 0.0000 0.0000
# 3 15.4385 21.4328 81.9015 0.0000 0.0000 0.0000
# 4 0.0000 0.0000 0.0000 23.6483 0.0000 0.0000
# 5 0.0000 0.0000 0.0000 0.0000 38.2223 0.0000
# 6 0.0000 0.0000 0.0000 0.0000 0.0000 17.3497
#
#
#
# Elastic Compliance Matrix: (Units=1/GPa)
#
#
# Indices 1 2 3 4 5 6 
#
# 1 0.013011 -0.002998 -0.001668 0.000000 0.000000 0.000000
# 2 -0.002998 0.015357 -0.003453 0.000000 0.000000 0.000000
# 3 -0.001668 -0.003453 0.013428 0.000000 0.000000 0.000000
# 4 0.000000 0.000000 0.000000 0.042286 0.000000 0.000000
# 5 0.000000 0.000000 0.000000 0.000000 0.026163 0.000000
# 6 0.000000 0.000000 0.000000 0.000000 0.000000 0.057638
#
#
# Mechanical properties :
#
#
# Convention : Reuss Voigt Hill
#
# Bulk Modulus (GPa) = 39.12993 39.14860 39.13927
# Shear Modulus (GPa) = 25.95511 28.00826 26.98169
#
# Velocity S-wave (km/s) = 3.55388 3.69177 3.62348
# Velocity P-wave (km/s) = 5.99009 6.10101 6.04580
#
# Compressibility (1/GPa) = 0.02555588
#
# Stress axis : x y z
#
# Youngs Moduli (GPa) = 76.85964 65.11875 74.47165
#
# Poissons Ratio (x) = 0.19524 0.12421
# Poissons Ratio (y) = 0.23045 0.25719
# Poissons Ratio (z) = 0.12819 0.22489
#
# Static dielectric constant tensor:
#      x y z
#    x 1.744070 0.000000 0.000000 
#    y 0.000000 1.763120 0.000000 
#    z 0.000000 0.000000 1.276900 
# 
# From -- ./inp_files/13370.got.cif
#   From: 2010.05.17/outbox.cif.g08.bks.cpg/sg23_7_cif.got.tgz:13370.got - 2010.06.04 12:02:01.
