data_PCOD9330637
_publ_section_title
;
Structure prediction by ZEFSAII (Michael W. Deem and Ramdas Pophale) SiO2 
 PCOD9330637
Probable space group: I 2 2 2
;
_chemical_formula_sum "Si O2"
_cell_formula_units_Z 40
_cell_length_a 10.407957
_cell_length_b 19.071925
_cell_length_c 7.712420
_cell_angle_alpha 90.000000
_cell_angle_beta 90.000000
_cell_angle_gamma 90.000000
_cell_volume 1530.913637
_symmetry_space_group_name_H-M "I 2 2 2"
_symmetry_group_IT_number 23
_symmetry_cell_setting 'orthorhombic'
loop_
_space_group_symop_operation_xyz
x,y,z
-x,-y,z
x,-y,-z
-x,y,-z
1/2+x,1/2+y,1/2+z
1/2-x,1/2-y,1/2+z
1/2+x,1/2-y,1/2-z
1/2-x,1/2+y,1/2-z
loop_
_atom_site_type_symbol
_atom_site_label
_atom_site_fract_x
_atom_site_fract_y
_atom_site_fract_z
Si Si1 0.336637 0.926031 0.427410
Si Si2 0.702408 0.918521 0.949538
Si Si3 0.618650 0.282945 0.159913
Si Si4 0.604877 0.176509 0.739802
Si Si5 0.894659 0.139878 0.301913
O O1 0.381002 0.920889 0.228290
O O2 0.381949 0.868746 0.564016
O O3 0.181306 0.920602 0.404687
O O4 0.369140 0.000000 0.500000
O O5 0.822919 0.871592 0.880796
O O6 0.635953 0.874862 0.100378
O O7 0.729637 0.000000 0.000000
O O8 0.527665 0.220361 0.233963
O O9 0.545425 0.352544 0.230387
O O10 0.620985 0.298889 0.952451
O O11 0.735243 0.223547 0.716262
#
# Coordination Sequence:
#
# PCOD9330637 Si02
#       5
#     8   8   8   8   8
#     4   9  18  39  66 103 147 188 248 323 382 443
#     4  10  20  39  70 108 144 192 254 323 387 451
#     4  10  22  43  66 102 159 197 242 316 377 472
#     4  11  22  42  72 105 151 199 246 308 399 458
#     4   8  20  39  61 102 143 191 236 315 367 457
#
# _framework density 26.12819
#
# number of rings (size 3 to 8) (size 9 to 14) (size 15 to 20)
#    1.200    1.200    2.000    0.000    0.000    5.600 
#    3.600   16.000    0.000    0.000    0.000   32.200 
#    0.000    0.000    0.000    0.000    0.000    0.000 
#
# Total GULP energy -111342.934010 kJ/mol
# GULP energy per Si atom -5567.146700 kJ/mol
# Density = 2.606872 g / cm^3
# Si number density = 26.128190 Si / 1000 Ang^3
#
#
#
# Elastic Constant Matrix: (Units=GPa)
#
#
# Indices 1 2 3 4 5 6 
#
# 1 139.3481 90.6840 62.5267 0.0001 0.0000 0.0001
# 2 90.6840 143.8960 60.8697 -0.0002 0.0001 -0.0001
# 3 62.5267 60.8697 189.6694 0.0004 0.0001 -0.0001
# 4 0.0001 -0.0002 0.0004 48.3790 0.0000 -0.0002
# 5 0.0000 0.0001 0.0001 0.0000 52.3957 -0.0001
# 6 0.0001 -0.0001 -0.0001 -0.0002 -0.0001 -20.4435
#
#
#
# Elastic Compliance Matrix: (Units=1/GPa)
#
#
# Indices 1 2 3 4 5 6 
#
# 1 0.012717 -0.007221 -0.001875 0.000000 0.000000 0.000000
# 2 -0.007221 0.012142 -0.001516 0.000000 0.000000 0.000000
# 3 -0.001875 -0.001516 0.006377 0.000000 0.000000 0.000000
# 4 0.000000 0.000000 0.000000 0.020670 0.000000 0.000000
# 5 0.000000 0.000000 0.000000 0.000000 0.019086 0.000000
# 6 0.000000 0.000000 0.000000 0.000000 0.000000 -0.048915
#
#
# Mechanical properties :
#
#
# Convention : Reuss Voigt Hill
#
# Bulk Modulus (GPa) = 99.88617 100.11937 100.00277
# Shear Modulus (GPa) = 107.21185 33.32179 70.26682
#
# Velocity S-wave (km/s) = 6.41265 3.57504 5.19148
# Velocity P-wave (km/s) = 9.65100 7.44600 8.61930
#
# Compressibility (1/GPa) = 0.01001140
#
# Stress axis : x y z
#
# Youngs Moduli (GPa) = 78.63579 82.36174 156.81595
#
# Poissons Ratio (x) = 0.59475 0.29400
# Poissons Ratio (y) = 0.56784 0.23773
# Poissons Ratio (z) = 0.14743 0.12486
#
# Static dielectric constant tensor:
#      x y z
#    x 2.252020 0.000000 0.000000 
#    y 0.000000 2.171690 0.000000 
#    z 0.000000 0.000000 2.094100 
# 
# From -- ./inp_files/9764.got.cif
#   From: 2010.05.17/outbox.cif.g08.bks.cpg/sg23_5_cif.got.tgz:9764.got - 2010.06.04 12:02:01.
