data_PCOD9330791
_publ_section_title
;
Structure prediction by ZEFSAII (Michael W. Deem and Ramdas Pophale) SiO2 
 PCOD9330791
Probable space group: I 2 2 2
;
_chemical_formula_sum "Si O2"
_cell_formula_units_Z 32
_cell_length_a 7.924272
_cell_length_b 9.263741
_cell_length_c 17.834882
_cell_angle_alpha 90.000000
_cell_angle_beta 90.000000
_cell_angle_gamma 90.000000
_cell_volume 1309.230213
_symmetry_space_group_name_H-M "I 2 2 2"
_symmetry_group_IT_number 23
_symmetry_cell_setting 'orthorhombic'
loop_
_space_group_symop_operation_xyz
x,y,z
-x,-y,z
x,-y,-z
-x,y,-z
1/2+x,1/2+y,1/2+z
1/2-x,1/2-y,1/2+z
1/2+x,1/2-y,1/2-z
1/2-x,1/2+y,1/2-z
loop_
_atom_site_type_symbol
_atom_site_label
_atom_site_fract_x
_atom_site_fract_y
_atom_site_fract_z
Si Si1 0.230006 0.763190 0.677851
Si Si2 0.231619 0.969604 0.913838
Si Si3 0.926856 0.814224 0.581922
Si Si4 0.397564 0.798365 0.343334
O O1 0.239763 0.613350 0.632491
O O2 0.409612 0.844543 0.669045
O O3 0.193056 0.723118 0.763592
O O4 0.070502 0.846078 0.642764
O O5 0.389570 0.858027 0.913461
O O6 0.092873 0.862717 0.878504
O O7 0.195551 0.000000 0.000000
O O8 0.739708 0.873628 0.601868
O O9 0.000000 0.845790 0.500000
#
# Coordination Sequence:
#
# PCOD9330791 Si02
#       4
#     8   8   8   8
#     4  12  19  36  51  76 121 143 187 225 277 335
#     4  10  21  35  57  85 113 144 181 229 283 333
#     4  10  21  34  55  81 112 145 181 223 282 328
#     4  10  23  32  51  82 109 155 179 226 283 324
#
# _framework density 24.441842999999999
#
# number of rings (size 3 to 8) (size 9 to 14) (size 15 to 20)
#    1.500    0.000    5.000    1.500    0.000    5.000 
#    0.000    0.000    0.000    0.000    0.000    8.750 
#    0.000   16.000    0.000    0.000    0.000    0.000 
#
# Total GULP energy -89337.558993 kJ/mol
# GULP energy per Si atom -5583.597437 kJ/mol
# Density = 2.438621 g / cm^3
# Si number density = 24.441843 Si / 1000 Ang^3
#
#
#
# Elastic Constant Matrix: (Units=GPa)
#
#
# Indices 1 2 3 4 5 6 
#
# 1 220.8185 13.1396 44.1278 0.0000 0.0000 0.0000
# 2 13.1396 86.7821 5.1835 0.0000 0.0000 0.0000
# 3 44.1278 5.1835 152.4220 0.0000 0.0000 0.0000
# 4 0.0000 0.0000 0.0000 -44.5954 0.0000 0.0000
# 5 0.0000 0.0000 0.0000 0.0000 76.5632 0.0000
# 6 0.0000 0.0000 0.0000 0.0000 0.0000 28.9159
#
#
#
# Elastic Compliance Matrix: (Units=1/GPa)
#
#
# Indices 1 2 3 4 5 6 
#
# 1 0.004843 -0.000651 -0.001380 0.000000 0.000000 0.000000
# 2 -0.000651 0.011634 -0.000207 0.000000 0.000000 0.000000
# 3 -0.001380 -0.000207 0.006967 0.000000 0.000000 0.000000
# 4 0.000000 0.000000 0.000000 -0.022424 0.000000 0.000000
# 5 0.000000 0.000000 0.000000 0.000000 0.013061 0.000000
# 6 0.000000 0.000000 0.000000 0.000000 0.000000 0.034583
#
#
# Mechanical properties :
#
#
# Convention : Reuss Voigt Hill
#
# Bulk Modulus (GPa) = 52.71952 64.99158 58.85555
# Shear Modulus (GPa) = 84.08499 38.68152 61.38325
#
# Velocity S-wave (km/s) = 5.87169 3.98250 5.01682
# Velocity P-wave (km/s) = 8.22102 6.91340 7.59540
#
# Compressibility (1/GPa) = 0.01896831
#
# Stress axis : x y z
#
# Youngs Moduli (GPa) = 206.47884 85.95469 143.52751
#
# Poissons Ratio (x) = 0.05594 0.19807
# Poissons Ratio (y) = 0.13439 0.02974
# Poissons Ratio (z) = 0.28494 0.01781
#
# Static dielectric constant tensor:
#      x y z
#    x 2.080650 0.000000 0.000000 
#    y 0.000000 1.942480 0.000000 
#    z 0.000000 0.000000 1.891110 
# 
# From -- ./inp_files/10653.got.cif
#   From: 2010.05.17/outbox.cif.g08.bks.cpg/sg23_6_cif.got.tgz:10653.got - 2010.06.04 12:02:01.
