data_PCOD9330875
_publ_section_title
;
Structure prediction by ZEFSAII (Michael W. Deem and Ramdas Pophale) SiO2 
 PCOD9330875
Probable space group: I 2 2 2
;
_chemical_formula_sum "Si O2"
_cell_formula_units_Z 60
_cell_length_a 13.067584
_cell_length_b 20.351164
_cell_length_c 10.560679
_cell_angle_alpha 90.000000
_cell_angle_beta 90.000000
_cell_angle_gamma 90.000000
_cell_volume 2808.512730
_symmetry_space_group_name_H-M "I 2 2 2"
_symmetry_group_IT_number 23
_symmetry_cell_setting 'orthorhombic'
loop_
_space_group_symop_operation_xyz
x,y,z
-x,-y,z
x,-y,-z
-x,y,-z
1/2+x,1/2+y,1/2+z
1/2-x,1/2-y,1/2+z
1/2+x,1/2-y,1/2-z
1/2-x,1/2+y,1/2-z
loop_
_atom_site_type_symbol
_atom_site_label
_atom_site_fract_x
_atom_site_fract_y
_atom_site_fract_z
Si Si1 0.284441 0.000000 0.500000
Si Si2 0.550613 0.199319 0.694887
Si Si3 0.064113 0.566515 0.817535
Si Si4 0.089406 0.230322 0.394826
Si Si5 0.264193 0.366146 0.225556
Si Si6 0.393024 0.325332 0.460865
Si Si7 0.381326 0.410579 0.970018
Si Si8 0.226899 0.277778 0.612284
O O1 0.365344 0.048793 0.562971
O O2 0.201318 0.038301 0.413420
O O3 0.510648 0.127650 0.658698
O O4 0.461567 0.236659 0.774059
O O5 0.586577 0.249607 0.586438
O O6 0.643526 0.192397 0.794040
O O7 0.159217 0.596402 0.734897
O O8 0.000000 0.500000 0.782036
O O9 0.118754 0.154383 0.384389
O O10 0.179311 0.266384 0.471312
O O11 0.000000 0.229188 0.500000
O O12 0.339048 0.360563 0.344205
O O13 0.243486 0.292270 0.173341
O O14 0.328820 0.395074 0.106696
O O15 0.500000 0.355187 0.500000
O O16 0.322696 0.322257 0.583636
O O17 0.500000 0.428250 0.000000
#
# Coordination Sequence:
#
# PCOD9330875 Si02
#       8
#     4   8   8   8   8   8   8   8
#     4  10  22  34  54  90 126 160 196 236 290 368
#     4  10  21  37  57  88 122 155 198 250 303 357
#     4  11  23  39  57  80 118 160 193 234 292 361
#     4   8  15  31  58  85 112 153 202 249 291 341
#     4   9  20  37  55  85 120 148 196 248 289 350
#     4  11  21  33  57  90 119 150 188 245 306 348
#     4   9  16  32  57  86 123 164 200 239 294 357
#     4   9  18  33  56  84 115 155 195 239 296 355
#
# _framework density 21.363621999999999
#
# number of rings (size 3 to 8) (size 9 to 14) (size 15 to 20)
#    0.000    2.400    0.000    4.400    0.000    6.400 
#    0.000    1.333    0.000   10.000    0.000    4.667 
#    0.000    0.000    0.000    0.000    0.000    0.000 
#
# Total GULP energy -167228.034902 kJ/mol
# GULP energy per Si atom -5574.267830 kJ/mol
# Density = 2.131500 g / cm^3
# Si number density = 21.363622 Si / 1000 Ang^3
#
#
#
# Elastic Constant Matrix: (Units=GPa)
#
#
# Indices 1 2 3 4 5 6 
#
# 1 160.1061 49.7526 44.6825 0.0000 0.0000 0.0000
# 2 49.7526 98.7189 15.2501 0.0001 0.0000 0.0000
# 3 44.6825 15.2501 64.6198 0.0002 0.0000 0.0001
# 4 0.0000 0.0001 0.0002 13.4469 0.0000 0.0001
# 5 0.0000 0.0000 0.0000 0.0000 39.7374 0.0000
# 6 0.0000 0.0000 0.0001 0.0001 0.0000 28.4907
#
#
#
# Elastic Compliance Matrix: (Units=1/GPa)
#
#
# Indices 1 2 3 4 5 6 
#
# 1 0.008846 -0.003646 -0.005256 0.000000 0.000000 0.000000
# 2 -0.003646 0.012016 -0.000315 0.000000 0.000000 0.000000
# 3 -0.005256 -0.000315 0.019184 0.000000 0.000000 0.000000
# 4 0.000000 0.000000 0.000000 0.074367 0.000000 0.000000
# 5 0.000000 0.000000 0.000000 0.000000 0.025165 0.000000
# 6 0.000000 0.000000 0.000000 0.000000 0.000000 0.035099
#
#
# Mechanical properties :
#
#
# Convention : Reuss Voigt Hill
#
# Bulk Modulus (GPa) = 46.27066 60.31278 53.29172
# Shear Modulus (GPa) = 24.96080 30.58564 27.77322
#
# Velocity S-wave (km/s) = 3.42186 3.78785 3.60950
# Velocity P-wave (km/s) = 6.10883 6.88645 6.50926
#
# Compressibility (1/GPa) = 0.02161197
#
# Stress axis : x y z
#
# Youngs Moduli (GPa) = 113.04855 83.22265 52.12740
#
# Poissons Ratio (x) = 0.30344 0.27399
# Poissons Ratio (y) = 0.41219 0.01640
# Poissons Ratio (z) = 0.59419 0.02618
#
# Static dielectric constant tensor:
#      x y z
#    x 1.866530 0.000000 0.000000 
#    y 0.000000 1.894770 0.000000 
#    z 0.000000 0.000000 1.878510 
# 
# From -- ./inp_files/15967.got.cif
#   From: 2010.05.17/outbox.cif.g08.bks.cpg/sg23_8_cif.got.tgz:15967.got - 2010.06.04 12:02:01.
