data_PCOD9330866
_publ_section_title
;
Structure prediction by ZEFSAII (Michael W. Deem and Ramdas Pophale) SiO2 
 PCOD9330866
Probable space group: I 2 2 2
;
_chemical_formula_sum "Si O2"
_cell_formula_units_Z 64
_cell_length_a 11.999944
_cell_length_b 12.972604
_cell_length_c 21.165799
_cell_angle_alpha 90.000000
_cell_angle_beta 90.000000
_cell_angle_gamma 90.000000
_cell_volume 3294.890969
_symmetry_space_group_name_H-M "I 2 2 2"
_symmetry_group_IT_number 23
_symmetry_cell_setting 'orthorhombic'
loop_
_space_group_symop_operation_xyz
x,y,z
-x,-y,z
x,-y,-z
-x,y,-z
1/2+x,1/2+y,1/2+z
1/2-x,1/2-y,1/2+z
1/2+x,1/2-y,1/2-z
1/2-x,1/2+y,1/2-z
loop_
_atom_site_type_symbol
_atom_site_label
_atom_site_fract_x
_atom_site_fract_y
_atom_site_fract_z
Si Si1 0.725872 0.378125 0.010384
Si Si2 0.047022 0.744162 0.568315
Si Si3 0.932081 0.101750 0.257277
Si Si4 0.417627 0.273740 0.441235
Si Si5 0.374724 0.031450 0.927217
Si Si6 0.155215 0.023968 0.872495
Si Si7 0.819388 0.209339 0.370060
Si Si8 0.418325 0.303992 0.661770
O O1 0.709917 0.334188 0.939481
O O2 0.742270 0.500000 0.000000
O O3 0.615748 0.348458 0.052506
O O4 0.826050 0.312626 0.041751
O O5 0.131305 0.653629 0.585128
O O6 0.000000 0.710712 0.500000
O O7 0.941708 0.742001 0.614628
O O8 0.858238 0.076968 0.195487
O O9 0.854520 0.132405 0.314609
O O10 0.025503 0.182223 0.230693
O O11 0.000000 0.000000 0.274831
O O12 0.500000 0.284662 0.500000
O O13 0.368767 0.387409 0.424331
O O14 0.495125 0.242014 0.381818
O O15 0.278846 0.982508 0.885844
O O16 0.500000 0.000000 0.911432
O O17 0.355100 0.000000 0.000000
O O18 0.082466 0.920069 0.868177
O O19 0.707552 0.264653 0.344617
#
# Coordination Sequence:
#
# PCOD9330866 Si02
#       8
#     8   8   8   8   8   8   8   8
#     4  11  25  42  62  94 128 166 219 265 315 386
#     4  10  21  37  55  93 124 160 210 245 312 379
#     4   9  22  43  62  86 120 169 222 262 301 368
#     4  11  21  39  62  92 128 168 202 258 325 381
#     4  11  20  31  58  94 134 165 182 242 327 384
#     4  10  22  38  63  93 130 158 213 257 310 390
#     4  11  23  41  67  87 125 168 212 268 311 369
#     4  10  22  41  61 100 126 161 212 263 323 392
#
# _framework density 19.424011
#
# number of rings (size 3 to 8) (size 9 to 14) (size 15 to 20)
#    0.000    1.625    3.750    1.875    5.250    3.500 
#    0.000    0.000    0.000    0.000    0.000    0.000 
#    0.000    0.000    0.000    0.000    0.000    0.000 
#
# Total GULP energy -178179.940890 kJ/mol
# GULP energy per Si atom -5568.123153 kJ/mol
# Density = 1.937980 g / cm^3
# Si number density = 19.424011 Si / 1000 Ang^3
#
#
#
# Elastic Constant Matrix: (Units=GPa)
#
#
# Indices 1 2 3 4 5 6 
#
# 1 119.1108 29.5050 40.1279 0.0000 0.0000 0.0000
# 2 29.5050 74.1468 20.9469 0.0000 0.0000 0.0000
# 3 40.1279 20.9469 48.1946 0.0000 0.0000 0.0000
# 4 0.0000 0.0000 0.0000 14.0620 0.0000 0.0000
# 5 0.0000 0.0000 0.0000 0.0000 28.2452 0.0000
# 6 0.0000 0.0000 0.0000 0.0000 0.0000 29.7219
#
#
#
# Elastic Compliance Matrix: (Units=1/GPa)
#
#
# Indices 1 2 3 4 5 6 
#
# 1 0.011982 -0.002222 -0.009010 0.000000 0.000000 0.000000
# 2 -0.002222 0.015787 -0.005011 0.000000 0.000000 0.000000
# 3 -0.009010 -0.005011 0.030429 0.000000 0.000000 0.000000
# 4 0.000000 0.000000 0.000000 0.071114 0.000000 0.000000
# 5 0.000000 0.000000 0.000000 0.000000 0.035404 0.000000
# 6 0.000000 0.000000 0.000000 0.000000 0.000000 0.033645
#
#
# Mechanical properties :
#
#
# Convention : Reuss Voigt Hill
#
# Bulk Modulus (GPa) = 38.89481 46.95686 42.92584
# Shear Modulus (GPa) = 20.88396 24.46397 22.67397
#
# Velocity S-wave (km/s) = 3.28252 3.55275 3.42031
# Velocity P-wave (km/s) = 5.86806 6.40754 6.14372
#
# Compressibility (1/GPa) = 0.02571037
#
# Stress axis : x y z
#
# Youngs Moduli (GPa) = 83.46178 63.34428 32.86311
#
# Poissons Ratio (x) = 0.14077 0.29610
# Poissons Ratio (y) = 0.18548 0.16468
# Poissons Ratio (z) = 0.75201 0.31742
#
# Static dielectric constant tensor:
#      x y z
#    x 1.729670 0.000000 0.000000 
#    y 0.000000 1.736990 0.000000 
#    z 0.000000 0.000000 1.681290 
# 
# From -- ./inp_files/28426.got.cif
#   From: 2010.05.17/outbox.cif.g08.bks.cpg/sg23_15_cif.got.tgz:28426.got - 2010.06.04 12:02:01.
