data_PCOD9330551
_publ_section_title
;
Structure prediction by ZEFSAII (Michael W. Deem and Ramdas Pophale) SiO2 
 PCOD9330551
Probable space group: I 2 2 2
;
_chemical_formula_sum "Si O2"
_cell_formula_units_Z 48
_cell_length_a 23.983349
_cell_length_b 9.035771
_cell_length_c 10.106737
_cell_angle_alpha 90.000000
_cell_angle_beta 90.000000
_cell_angle_gamma 90.000000
_cell_volume 2190.211261
_symmetry_space_group_name_H-M "I 2 2 2"
_symmetry_group_IT_number 23
_symmetry_cell_setting 'orthorhombic'
loop_
_space_group_symop_operation_xyz
x,y,z
-x,-y,z
x,-y,-z
-x,y,-z
1/2+x,1/2+y,1/2+z
1/2-x,1/2-y,1/2+z
1/2+x,1/2-y,1/2-z
1/2-x,1/2+y,1/2-z
loop_
_atom_site_type_symbol
_atom_site_label
_atom_site_fract_x
_atom_site_fract_y
_atom_site_fract_z
Si Si1 0.104913 0.670073 0.197695
Si Si2 0.199287 0.156156 0.158860
Si Si3 0.937455 0.566014 0.365530
Si Si4 0.499025 0.669718 0.802420
Si Si5 0.277482 0.308377 0.356994
Si Si6 0.923165 0.834967 0.061869
O O1 0.097034 0.500684 0.243725
O O2 0.168087 0.725576 0.201822
O O3 0.063090 0.763850 0.292863
O O4 0.084833 0.711737 0.050419
O O5 0.224719 0.245185 0.280297
O O6 0.132712 0.166204 0.149694
O O7 0.215276 0.983254 0.166834
O O8 0.221919 0.212941 0.015913
O O9 0.913068 0.500000 0.500000
O O10 0.954716 0.735887 0.380987
O O11 0.000000 0.500000 0.346249
O O12 0.500000 0.500000 0.840590
O O13 0.523510 0.683548 0.653293
O O14 0.924269 0.000000 0.000000
#
# Coordination Sequence:
#
# PCOD9330551 Si02
#       6
#     8   8   8   8   8   8
#     4  10  20  38  63  90 129 161 207 268 333 393
#     4  10  21  41  64  88 128 166 217 280 334 397
#     4   9  21  41  56  82 132 171 209 260 309 384
#     4  11  20  34  67  97 124 170 209 262 341 404
#     4  10  21  41  64  92 124 168 216 278 334 397
#     4  11  19  37  65  94 129 159 211 278 332 404
#
# _framework density 21.915693000000001
#
# number of rings (size 3 to 8) (size 9 to 14) (size 15 to 20)
#    0.000    1.833    5.000    0.500    0.000    2.667 
#    6.000   12.500    3.667    0.000    0.000    0.000 
#    0.000    0.000    0.000    0.000    0.000    0.000 
#
# Total GULP energy -134051.463797 kJ/mol
# GULP energy per Si atom -5585.477658 kJ/mol
# Density = 2.186581 g / cm^3
# Si number density = 21.915693 Si / 1000 Ang^3
#
#
#
# Elastic Constant Matrix: (Units=GPa)
#
#
# Indices 1 2 3 4 5 6 
#
# 1 72.8925 -0.2808 16.3507 0.0000 0.0000 0.0000
# 2 -0.2808 82.6166 13.8372 0.0000 0.0000 0.0000
# 3 16.3507 13.8372 50.7029 0.0000 0.0000 0.0000
# 4 0.0000 0.0000 0.0000 30.3637 0.0000 0.0000
# 5 0.0000 0.0000 0.0000 0.0000 33.5060 0.0000
# 6 0.0000 0.0000 0.0000 0.0000 0.0000 30.0087
#
#
#
# Elastic Compliance Matrix: (Units=1/GPa)
#
#
# Indices 1 2 3 4 5 6 
#
# 1 0.014851 0.000893 -0.005033 0.000000 0.000000 0.000000
# 2 0.000893 0.012738 -0.003764 0.000000 0.000000 0.000000
# 3 -0.005033 -0.003764 0.022373 0.000000 0.000000 0.000000
# 4 0.000000 0.000000 0.000000 0.032934 0.000000 0.000000
# 5 0.000000 0.000000 0.000000 0.000000 0.029845 0.000000
# 6 0.000000 0.000000 0.000000 0.000000 0.000000 0.033324
#
#
# Mechanical properties :
#
#
# Convention : Reuss Voigt Hill
#
# Bulk Modulus (GPa) = 29.27904 29.55847 29.41876
# Shear Modulus (GPa) = 28.85874 30.52934 29.69404
#
# Velocity S-wave (km/s) = 3.63272 3.73639 3.68492
# Velocity P-wave (km/s) = 5.56636 5.66840 5.61761
#
# Compressibility (1/GPa) = 0.03415412
#
# Stress axis : x y z
#
# Youngs Moduli (GPa) = 67.33438 78.50768 44.69647
#
# Poissons Ratio (x) = -0.07014 0.22496
# Poissons Ratio (y) = -0.06016 0.16825
# Poissons Ratio (z) = 0.33890 0.29553
#
# Static dielectric constant tensor:
#      x y z
#    x 1.768510 0.000000 0.000000 
#    y 0.000000 1.862130 0.000000 
#    z 0.000000 0.000000 1.863390 
# 
# From -- ./inp_files/18284.got.cif
#   From: 2010.05.17/outbox.cif.g08.bks.cpg/sg23_10_cif.got.tgz:18284.got - 2010.06.04 12:02:01.
