data_PCOD9330652
_publ_section_title
;
Structure prediction by ZEFSAII (Michael W. Deem and Ramdas Pophale) SiO2 
 PCOD9330652
Probable space group: I 2 2 2
;
_chemical_formula_sum "Si O2"
_cell_formula_units_Z 36
_cell_length_a 13.691418
_cell_length_b 12.080099
_cell_length_c 10.936238
_cell_angle_alpha 90.000000
_cell_angle_beta 90.000000
_cell_angle_gamma 90.000000
_cell_volume 1808.784702
_symmetry_space_group_name_H-M "I 2 2 2"
_symmetry_group_IT_number 23
_symmetry_cell_setting 'orthorhombic'
loop_
_space_group_symop_operation_xyz
x,y,z
-x,-y,z
x,-y,-z
-x,y,-z
1/2+x,1/2+y,1/2+z
1/2-x,1/2-y,1/2+z
1/2+x,1/2-y,1/2-z
1/2-x,1/2+y,1/2-z
loop_
_atom_site_type_symbol
_atom_site_label
_atom_site_fract_x
_atom_site_fract_y
_atom_site_fract_z
Si Si1 0.294125 0.033762 0.638211
Si Si2 0.433921 0.763095 0.376313
Si Si3 0.500000 0.732900 0.000000
Si Si4 0.406593 0.426631 0.800122
Si Si5 0.067035 0.396985 0.686275
O O1 0.181248 0.007719 0.662976
O O2 0.346448 0.955803 0.739312
O O3 0.318813 0.000000 0.500000
O O4 0.339411 0.156425 0.635757
O O5 0.500000 0.753992 0.500000
O O6 0.396235 0.647797 0.321005
O O7 0.509176 0.822961 0.284491
O O8 0.435653 0.656605 0.089578
O O9 0.574900 0.813153 0.073257
O O10 0.500000 0.500000 0.778337
O O11 0.000000 0.500000 0.647109
#
# Coordination Sequence:
#
# PCOD9330652 Si02
#       5
#     8   8   4   8   8
#     4  11  21  38  68  99 131 173 231 280 342 421
#     4  10  21  41  66  95 127 179 224 278 341 404
#     4  10  20  40  62  90 132 176 216 276 338 408
#     4  11  25  41  64  92 136 179 222 279 345 410
#     4   9  19  35  65  94 130 167 222 279 336 398
#
# _framework density 19.902864999999998
#
# number of rings (size 3 to 8) (size 9 to 14) (size 15 to 20)
#    0.000    1.778    2.222    2.000    0.000    5.778 
#    0.000    0.000   14.667    0.000    0.000    0.000 
#    0.000    0.000    0.000    0.000    0.000    0.000 
#
# Total GULP energy -100226.405791 kJ/mol
# GULP energy per Si atom -5568.133655 kJ/mol
# Density = 1.985757 g / cm^3
# Si number density = 19.902865 Si / 1000 Ang^3
#
#
#
# Elastic Constant Matrix: (Units=GPa)
#
#
# Indices 1 2 3 4 5 6 
#
# 1 89.1894 51.8417 33.3495 0.0000 0.0000 0.0000
# 2 51.8417 107.4405 58.7615 0.0000 0.0000 0.0000
# 3 33.3495 58.7615 82.6429 0.0000 0.0000 0.0000
# 4 0.0000 0.0000 0.0000 42.0069 0.0000 0.0000
# 5 0.0000 0.0000 0.0000 0.0000 16.4272 0.0000
# 6 0.0000 0.0000 0.0000 0.0000 0.0000 11.4781
#
#
#
# Elastic Compliance Matrix: (Units=1/GPa)
#
#
# Indices 1 2 3 4 5 6 
#
# 1 0.015703 -0.006728 -0.001553 0.000000 0.000000 0.000000
# 2 -0.006728 0.018112 -0.010164 0.000000 0.000000 0.000000
# 3 -0.001553 -0.010164 0.019954 0.000000 0.000000 0.000000
# 4 0.000000 0.000000 0.000000 0.023806 0.000000 0.000000
# 5 0.000000 0.000000 0.000000 0.000000 0.060875 0.000000
# 6 0.000000 0.000000 0.000000 0.000000 0.000000 0.087123
#
#
# Mechanical properties :
#
#
# Convention : Reuss Voigt Hill
#
# Bulk Modulus (GPa) = 59.24055 63.01982 61.13019
# Shear Modulus (GPa) = 18.65059 23.00377 20.82718
#
# Velocity S-wave (km/s) = 3.06450 3.40340 3.23838
# Velocity P-wave (km/s) = 6.50776 6.86852 6.69057
#
# Compressibility (1/GPa) = 0.01688033
#
# Stress axis : x y z
#
# Youngs Moduli (GPa) = 63.68067 55.21119 50.11599
#
# Poissons Ratio (x) = 0.37143 0.07785
# Poissons Ratio (y) = 0.42841 0.50936
# Poissons Ratio (z) = 0.09892 0.56114
#
# Static dielectric constant tensor:
#      x y z
#    x 1.695450 0.000000 0.000000 
#    y 0.000000 1.811980 0.000000 
#    z 0.000000 0.000000 1.755090 
# 
# From -- ./inp_files/16467.got.cif
#   From: 2010.05.17/outbox.cif.g08.bks.cpg/sg23_9_cif.got.tgz:16467.got - 2010.06.04 12:02:01.
