data_PCOD9330029
_publ_section_title
;
Structure prediction by ZEFSAII (Michael W. Deem and Ramdas Pophale) SiO2 
 PCOD9330029
Probable space group: I 2 2 2
;
_chemical_formula_sum "Si O2"
_cell_formula_units_Z 58
_cell_length_a 19.291115
_cell_length_b 14.836836
_cell_length_c 10.567996
_cell_angle_alpha 90.000000
_cell_angle_beta 90.000000
_cell_angle_gamma 90.000000
_cell_volume 3024.762404
_symmetry_space_group_name_H-M "I 2 2 2"
_symmetry_group_IT_number 23
_symmetry_cell_setting 'orthorhombic'
loop_
_space_group_symop_operation_xyz
x,y,z
-x,-y,z
x,-y,-z
-x,y,-z
1/2+x,1/2+y,1/2+z
1/2-x,1/2-y,1/2+z
1/2+x,1/2-y,1/2-z
1/2-x,1/2+y,1/2-z
loop_
_atom_site_type_symbol
_atom_site_label
_atom_site_fract_x
_atom_site_fract_y
_atom_site_fract_z
Si Si1 0.239826 0.852096 0.459146
Si Si2 0.960473 0.751369 0.340592
Si Si3 0.888944 0.714931 0.591856
Si Si4 0.570267 0.543458 0.861831
Si Si5 0.786977 0.031934 0.703064
Si Si6 0.109291 0.374512 0.149112
Si Si7 0.000000 0.500000 0.000000
Si Si8 0.657883 0.023057 0.854690
O O1 0.181469 0.775150 0.426832
O O2 0.230075 0.887065 0.603731
O O3 0.322001 0.839640 0.426813
O O4 0.224015 0.939161 0.372958
O O5 0.924085 0.695256 0.454581
O O6 0.938212 0.851119 0.378194
O O7 0.928458 0.709692 0.214896
O O8 0.043936 0.756208 0.338273
O O9 0.874283 0.621762 0.663598
O O10 0.500000 0.500000 0.816749
O O11 0.632740 0.531676 0.767173
O O12 0.585927 0.500000 0.000000
O O13 0.738480 0.034970 0.822804
O O14 0.052898 0.432872 0.072468
O O15 0.132727 0.446188 0.258107
O O16 0.646138 0.000000 0.000000
#
# Coordination Sequence:
#
# PCOD9330029 Si02
#       8
#     8   8   8   8   8   8   2   8
#     4  10  20  37  61  91 118 162 208 270 307 384
#     4  11  22  36  59  94 127 160 207 269 318 384
#     4  11  21  36  58  89 126 159 205 258 326 373
#     4  11  19  34  62  93 124 161 205 267 320 378
#     4  10  19  36  60  86 120 157 211 256 322 376
#     4  11  24  42  65  92 129 168 220 263 326 389
#     4  12  24  48  70  92 126 178 212 270 328 392
#     4  11  23  40  59  88 124 168 203 258 320 387
#
# _framework density 19.175059999999998
#
# number of rings (size 3 to 8) (size 9 to 14) (size 15 to 20)
#    0.000    1.241    4.138    4.966    1.931    0.000 
#    0.000    0.000    3.034    0.414    0.000    0.000 
#    0.000    0.000    0.000    0.000    0.000    0.000 
#
# Total GULP energy -161485.025159 kJ/mol
# GULP energy per Si atom -5568.449143 kJ/mol
# Density = 1.913142 g / cm^3
# Si number density = 19.175060 Si / 1000 Ang^3
#
#
#
# Elastic Constant Matrix: (Units=GPa)
#
#
# Indices 1 2 3 4 5 6 
#
# 1 152.1524 31.9390 35.1671 0.0000 0.0000 0.0000
# 2 31.9390 78.3843 15.8911 0.0000 0.0000 0.0000
# 3 35.1671 15.8911 35.9171 0.0000 0.0000 0.0000
# 4 0.0000 0.0000 0.0000 18.5071 0.0000 0.0000
# 5 0.0000 0.0000 0.0000 0.0000 28.2197 0.0000
# 6 0.0000 0.0000 0.0000 0.0000 0.0000 30.1236
#
#
#
# Elastic Compliance Matrix: (Units=1/GPa)
#
#
# Indices 1 2 3 4 5 6 
#
# 1 0.008775 -0.002014 -0.007701 0.000000 0.000000 0.000000
# 2 -0.002014 0.014477 -0.004433 0.000000 0.000000 0.000000
# 3 -0.007701 -0.004433 0.037343 0.000000 0.000000 0.000000
# 4 0.000000 0.000000 0.000000 0.054033 0.000000 0.000000
# 5 0.000000 0.000000 0.000000 0.000000 0.035436 0.000000
# 6 0.000000 0.000000 0.000000 0.000000 0.000000 0.033197
#
#
# Mechanical properties :
#
#
# Convention : Reuss Voigt Hill
#
# Bulk Modulus (GPa) = 30.96034 48.04980 39.50507
# Shear Modulus (GPa) = 22.48974 27.60051 25.04512
#
# Velocity S-wave (km/s) = 3.42843 3.79805 3.61796
# Velocity P-wave (km/s) = 5.64388 6.65932 6.17251
#
# Compressibility (1/GPa) = 0.03229939
#
# Stress axis : x y z
#
# Youngs Moduli (GPa) = 113.95957 69.07437 26.77880
#
# Poissons Ratio (x) = 0.13914 0.20621
# Poissons Ratio (y) = 0.22956 0.11871
# Poissons Ratio (z) = 0.87755 0.30620
#
# Static dielectric constant tensor:
#      x y z
#    x 1.735720 0.000000 0.000000 
#    y 0.000000 1.707040 0.000000 
#    z 0.000000 0.000000 1.674630 
# 
# From -- ./inp_files/17544.got.cif
#   From: 2010.05.17/outbox.cif.g08.bks.cpg/sg23_9_cif.got.tgz:17544.got - 2010.06.04 12:02:01.
