data_PCOD9330073
_publ_section_title
;
Structure prediction by ZEFSAII (Michael W. Deem and Ramdas Pophale) SiO2 
 PCOD9330073
Probable space group: I 2 2 2
;
_chemical_formula_sum "Si O2"
_cell_formula_units_Z 64
_cell_length_a 11.629428
_cell_length_b 27.760218
_cell_length_c 9.894111
_cell_angle_alpha 90.000000
_cell_angle_beta 90.000000
_cell_angle_gamma 90.000000
_cell_volume 3194.169841
_symmetry_space_group_name_H-M "I 2 2 2"
_symmetry_group_IT_number 23
_symmetry_cell_setting 'orthorhombic'
loop_
_space_group_symop_operation_xyz
x,y,z
-x,-y,z
x,-y,-z
-x,y,-z
1/2+x,1/2+y,1/2+z
1/2-x,1/2-y,1/2+z
1/2+x,1/2-y,1/2-z
1/2-x,1/2+y,1/2-z
loop_
_atom_site_type_symbol
_atom_site_label
_atom_site_fract_x
_atom_site_fract_y
_atom_site_fract_z
Si Si1 0.427717 0.888726 0.798448
Si Si2 0.076168 0.713974 0.381014
Si Si3 0.515710 0.395191 0.157628
Si Si4 0.303397 0.543891 0.811553
Si Si5 0.509257 0.296457 0.707358
Si Si6 0.745246 0.065704 0.613785
Si Si7 0.321882 0.897450 0.085425
Si Si8 0.196963 0.797745 0.003943
O O1 0.397493 0.831828 0.787060
O O2 0.375475 0.916826 0.672294
O O3 0.563633 0.891320 0.823459
O O4 0.366297 0.909978 0.934168
O O5 0.195596 0.731480 0.445194
O O6 0.000000 0.691010 0.500000
O O7 0.999474 0.756374 0.321616
O O8 0.438391 0.442023 0.188112
O O9 0.468652 0.349629 0.237754
O O10 0.651023 0.402995 0.178012
O O11 0.500000 0.384871 0.000000
O O12 0.274247 0.488318 0.836880
O O13 0.252102 0.564875 0.672633
O O14 0.254949 0.568252 0.950773
O O15 0.620809 0.277755 0.625755
O O16 0.397711 0.301714 0.613940
O O17 0.250322 0.848313 0.057017
#
# Coordination Sequence:
#
# PCOD9330073 Si02
#       8
#     8   8   8   8   8   8   8   8
#     4  10  21  40  62  85 123 169 211 262 325 379
#     4  11  22  40  63  87 123 168 208 258 325 380
#     4  10  19  37  61  91 123 164 207 262 323 384
#     4  10  21  38  63  89 130 168 214 269 334 379
#     4  11  23  38  64  94 122 161 211 262 317 383
#     4  10  22  39  60  96 126 167 217 271 320 397
#     4  10  19  40  65  83 121 171 204 259 324 383
#     4  10  22  41  60  91 125 161 204 264 315 384
#
# _framework density 20.036504000000001
#
# number of rings (size 3 to 8) (size 9 to 14) (size 15 to 20)
#    0.000    1.750    3.750    2.250    1.750    3.000 
#    4.500    3.750    0.000    1.500    0.000    0.000 
#    0.000    0.000    0.000    0.000    0.000    0.000 
#
# Total GULP energy -178313.752285 kJ/mol
# GULP energy per Si atom -5572.304759 kJ/mol
# Density = 1.999090 g / cm^3
# Si number density = 20.036504 Si / 1000 Ang^3
#
#
#
# Elastic Constant Matrix: (Units=GPa)
#
#
# Indices 1 2 3 4 5 6 
#
# 1 67.7374 -3.8694 14.8210 0.0002 0.0005 0.0002
# 2 -3.8694 54.1219 18.8865 0.0001 0.0001 0.0001
# 3 14.8210 18.8865 34.5375 -0.0009 -0.0001 0.0003
# 4 0.0002 0.0001 -0.0009 24.5290 -0.0001 0.0001
# 5 0.0005 0.0001 -0.0001 -0.0001 28.0044 -0.0002
# 6 0.0002 0.0001 0.0003 0.0001 -0.0002 18.8291
#
#
#
# Elastic Compliance Matrix: (Units=1/GPa)
#
#
# Indices 1 2 3 4 5 6 
#
# 1 0.017211 0.004706 -0.009959 -0.000001 0.000000 0.000000
# 2 0.004706 0.024121 -0.015210 -0.000001 0.000000 0.000000
# 3 -0.009959 -0.015210 0.041545 0.000002 0.000000 -0.000001
# 4 -0.000001 -0.000001 0.000002 0.040768 0.000000 0.000000
# 5 0.000000 0.000000 0.000000 0.000000 0.035709 0.000000
# 6 0.000000 0.000000 -0.000001 0.000000 0.000000 0.053109
#
#
# Mechanical properties :
#
#
# Convention : Reuss Voigt Hill
#
# Bulk Modulus (GPa) = 23.83737 24.00811 23.92274
# Shear Modulus (GPa) = 18.70057 22.70976 20.70516
#
# Velocity S-wave (km/s) = 3.05835 3.37028 3.21810
# Velocity P-wave (km/s) = 4.93904 5.21088 5.07678
#
# Compressibility (1/GPa) = 0.04195094
#
# Stress axis : x y z
#
# Youngs Moduli (GPa) = 58.10335 41.45798 24.07032
#
# Poissons Ratio (x) = -0.19509 0.23971
# Poissons Ratio (y) = -0.27342 0.36610
# Poissons Ratio (z) = 0.57865 0.63056
#
# Static dielectric constant tensor:
#      x y z
#    x 1.725140 0.000000 0.000000 
#    y 0.000000 1.700470 0.000000 
#    z 0.000000 0.000000 1.721050 
# 
# From -- ./inp_files/8964.got.cif
#   From: 2010.05.17/outbox.cif.g08.bks.cpg/sg23_5_cif.got.tgz:8964.got - 2010.06.04 12:02:01.
