data_PCOD9330777
_publ_section_title
;
Structure prediction by ZEFSAII (Michael W. Deem and Ramdas Pophale) SiO2 
 PCOD9330777
Probable space group: I 2 2 2
;
_chemical_formula_sum "Si O2"
_cell_formula_units_Z 52
_cell_length_a 5.475162
_cell_length_b 18.995419
_cell_length_c 26.599684
_cell_angle_alpha 90.000000
_cell_angle_beta 90.000000
_cell_angle_gamma 90.000000
_cell_volume 2766.446836
_symmetry_space_group_name_H-M "I 2 2 2"
_symmetry_group_IT_number 23
_symmetry_cell_setting 'orthorhombic'
loop_
_space_group_symop_operation_xyz
x,y,z
-x,-y,z
x,-y,-z
-x,y,-z
1/2+x,1/2+y,1/2+z
1/2-x,1/2-y,1/2+z
1/2+x,1/2-y,1/2-z
1/2-x,1/2+y,1/2-z
loop_
_atom_site_type_symbol
_atom_site_label
_atom_site_fract_x
_atom_site_fract_y
_atom_site_fract_z
Si Si1 0.500000 0.500000 0.095790
Si Si2 0.057139 0.155709 0.442035
Si Si3 0.058538 0.698509 0.886384
Si Si4 0.745049 0.423199 0.823248
Si Si5 0.440827 0.925345 0.216213
Si Si6 0.851856 0.197582 0.181456
Si Si7 0.343495 0.337861 0.778517
O O1 0.553991 0.429239 0.065309
O O2 0.723238 0.520396 0.132995
O O3 0.319912 0.182908 0.420942
O O4 0.000000 0.171752 0.500000
O O5 0.819225 0.186575 0.413110
O O6 0.077652 0.639850 0.841262
O O7 0.034060 0.776212 0.861832
O O8 0.475445 0.391021 0.816163
O O9 0.796659 0.448634 0.767052
O O10 0.298656 0.874188 0.178033
O O11 0.647677 0.877228 0.242865
O O12 0.500000 0.000000 0.191590
O O13 0.697936 0.268293 0.188798
O O14 0.969503 0.188900 0.236172
#
# Coordination Sequence:
#
# PCOD9330777 Si02
#       7
#     4   8   8   8   8   8   8
#     4  10  21  36  58  78 118 162 208 244 297 372
#     4  11  25  42  60  86 115 150 199 271 325 358
#     4  11  23  38  63  82 109 155 204 253 293 379
#     4  10  21  32  52  83 112 162 214 241 284 334
#     4  11  23  32  53  80 129 158 204 255 290 338
#     4  11  20  34  55  83 106 166 206 248 296 349
#     4  11  19  34  53  77 122 156 210 253 275 340
#
# _framework density 18.796675
#
# number of rings (size 3 to 8) (size 9 to 14) (size 15 to 20)
#    0.000    1.231    3.077    4.385    4.308    3.692 
#    0.000    3.077    0.000    0.000    0.000    0.000 
#    0.000    0.615    0.923    0.000    0.000    0.000 
#
# Total GULP energy -144850.416619 kJ/mol
# GULP energy per Si atom -5571.169870 kJ/mol
# Density = 1.875389 g / cm^3
# Si number density = 18.796675 Si / 1000 Ang^3
#
#
#
# Elastic Constant Matrix: (Units=GPa)
#
#
# Indices 1 2 3 4 5 6 
#
# 1 61.7117 19.1594 14.5069 0.0000 0.0000 0.0000
# 2 19.1594 100.1796 21.0557 0.0000 0.0000 0.0000
# 3 14.5069 21.0557 59.2703 0.0000 0.0000 0.0000
# 4 0.0000 0.0000 0.0000 21.8995 0.0000 0.0000
# 5 0.0000 0.0000 0.0000 0.0000 21.2037 0.0000
# 6 0.0000 0.0000 0.0000 0.0000 0.0000 29.5996
#
#
#
# Elastic Compliance Matrix: (Units=1/GPa)
#
#
# Indices 1 2 3 4 5 6 
#
# 1 0.017843 -0.002696 -0.003410 0.000000 0.000000 0.000000
# 2 -0.002696 0.011195 -0.003317 0.000000 0.000000 0.000000
# 3 -0.003410 -0.003317 0.018885 0.000000 0.000000 0.000000
# 4 0.000000 0.000000 0.000000 0.045663 0.000000 0.000000
# 5 0.000000 0.000000 0.000000 0.000000 0.047162 0.000000
# 6 0.000000 0.000000 0.000000 0.000000 0.000000 0.033784
#
#
# Mechanical properties :
#
#
# Convention : Reuss Voigt Hill
#
# Bulk Modulus (GPa) = 34.39082 36.73396 35.56239
# Shear Modulus (GPa) = 24.62220 25.63654 25.12937
#
# Velocity S-wave (km/s) = 3.62321 3.69709 3.66034
# Velocity P-wave (km/s) = 5.98661 6.14897 6.06833
#
# Compressibility (1/GPa) = 0.02907752
#
# Stress axis : x y z
#
# Youngs Moduli (GPa) = 56.04487 89.32688 52.95272
#
# Poissons Ratio (x) = 0.24081 0.18054
# Poissons Ratio (y) = 0.15109 0.17565
# Poissons Ratio (z) = 0.19109 0.29631
#
# Static dielectric constant tensor:
#      x y z
#    x 1.818870 0.000000 0.000000 
#    y 0.000000 1.718980 0.000000 
#    z 0.000000 0.000000 1.648690 
# 
# From -- ./inp_files/25424.got.cif
#   From: 2010.05.17/outbox.cif.g08.bks.cpg/sg23_13_cif.got.tgz:25424.got - 2010.06.04 12:02:01.
