data_PCOD9330649
_publ_section_title
;
Structure prediction by ZEFSAII (Michael W. Deem and Ramdas Pophale) SiO2 
 PCOD9330649
Probable space group: I 2 2 2
;
_chemical_formula_sum "Si O2"
_cell_formula_units_Z 48
_cell_length_a 12.398798
_cell_length_b 16.413109
_cell_length_c 11.089553
_cell_angle_alpha 90.000000
_cell_angle_beta 90.000000
_cell_angle_gamma 90.000000
_cell_volume 2256.755342
_symmetry_space_group_name_H-M "I 2 2 2"
_symmetry_group_IT_number 23
_symmetry_cell_setting 'orthorhombic'
loop_
_space_group_symop_operation_xyz
x,y,z
-x,-y,z
x,-y,-z
-x,y,-z
1/2+x,1/2+y,1/2+z
1/2-x,1/2-y,1/2+z
1/2+x,1/2-y,1/2-z
1/2-x,1/2+y,1/2-z
loop_
_atom_site_type_symbol
_atom_site_label
_atom_site_fract_x
_atom_site_fract_y
_atom_site_fract_z
Si Si1 0.116955 0.464340 0.834220
Si Si2 0.123068 0.855400 0.023351
Si Si3 0.326418 0.918474 0.922221
Si Si4 0.595335 0.231186 0.082319
Si Si5 0.777486 0.369294 0.754692
Si Si6 0.710891 0.178373 0.513020
O O1 0.119240 0.417363 0.707100
O O2 0.192084 0.540368 0.797316
O O3 0.156674 0.403625 0.938170
O O4 0.000000 0.500000 0.860021
O O5 0.185151 0.872530 0.151449
O O6 0.133917 0.757273 0.014073
O O7 0.198283 0.902195 0.926211
O O8 0.000000 0.878753 0.000000
O O9 0.371051 0.841187 0.992054
O O10 0.350388 0.000000 0.000000
O O11 0.615053 0.179096 0.206073
O O12 0.687716 0.298831 0.095902
O O13 0.500000 0.268326 0.000000
O O14 0.743648 0.326610 0.877761
#
# Coordination Sequence:
#
# PCOD9330649 Si02
#       6
#     8   8   8   8   8   8
#     4  12  24  40  67  97 138 179 218 283 345 396
#     4  10  24  42  67  96 133 183 230 282 347 407
#     4  10  20  40  62 100 128 169 233 290 325 396
#     4  10  22  40  66  94 128 173 219 280 338 396
#     4  10  22  43  60 100 130 167 228 278 331 416
#     4  10  25  40  63  96 143 174 221 276 334 418
#
# _framework density 21.269473999999999
#
# number of rings (size 3 to 8) (size 9 to 14) (size 15 to 20)
#    0.000    2.000    3.333    1.500   11.667    2.333 
#    0.000    0.000    0.000    1.000    0.000    0.000 
#    0.000    0.000    0.000    0.000    0.000    0.000 
#
# Total GULP energy -133613.016119 kJ/mol
# GULP energy per Si atom -5567.209005 kJ/mol
# Density = 2.122106 g / cm^3
# Si number density = 21.269474 Si / 1000 Ang^3
#
#
#
# Elastic Constant Matrix: (Units=GPa)
#
#
# Indices 1 2 3 4 5 6 
#
# 1 108.9436 30.6597 23.4989 0.0000 0.0000 0.0000
# 2 30.6597 80.0724 24.8883 0.0000 0.0000 0.0000
# 3 23.4989 24.8883 105.8705 0.0000 0.0000 0.0000
# 4 0.0000 0.0000 0.0000 24.6717 0.0000 0.0000
# 5 0.0000 0.0000 0.0000 0.0000 19.4558 0.0000
# 6 0.0000 0.0000 0.0000 0.0000 0.0000 13.2304
#
#
#
# Elastic Compliance Matrix: (Units=1/GPa)
#
#
# Indices 1 2 3 4 5 6 
#
# 1 0.010502 -0.003557 -0.001495 0.000000 0.000000 0.000000
# 2 -0.003557 0.014678 -0.002661 0.000000 0.000000 0.000000
# 3 -0.001495 -0.002661 0.010403 0.000000 0.000000 0.000000
# 4 0.000000 0.000000 0.000000 0.040532 0.000000 0.000000
# 5 0.000000 0.000000 0.000000 0.000000 0.051399 0.000000
# 6 0.000000 0.000000 0.000000 0.000000 0.000000 0.075583
#
#
# Mechanical properties :
#
#
# Convention : Reuss Voigt Hill
#
# Bulk Modulus (GPa) = 49.60916 50.33116 49.97016
# Shear Modulus (GPa) = 22.19835 25.86089 24.02962
#
# Velocity S-wave (km/s) = 3.23410 3.49071 3.36485
# Velocity P-wave (km/s) = 6.10906 6.32153 6.21620
#
# Compressibility (1/GPa) = 0.02015757
#
# Stress axis : x y z
#
# Youngs Moduli (GPa) = 95.21549 68.13072 96.12715
#
# Poissons Ratio (x) = 0.24232 0.14371
# Poissons Ratio (y) = 0.33866 0.25580
# Poissons Ratio (z) = 0.14235 0.18130
#
# Static dielectric constant tensor:
#      x y z
#    x 1.891390 0.000000 0.000000 
#    y 0.000000 1.801740 0.000000 
#    z 0.000000 0.000000 1.920720 
# 
# From -- ./inp_files/16692.got.cif
#   From: 2010.05.17/outbox.cif.g08.bks.cpg/sg23_9_cif.got.tgz:16692.got - 2010.06.04 12:02:01.
