data_PCOD9330852
_publ_section_title
;
Structure prediction by ZEFSAII (Michael W. Deem and Ramdas Pophale) SiO2 
 PCOD9330852
Probable space group: I 2 2 2
;
_chemical_formula_sum "Si O2"
_cell_formula_units_Z 32
_cell_length_a 17.410803
_cell_length_b 18.731938
_cell_length_c 4.934708
_cell_angle_alpha 90.000000
_cell_angle_beta 90.000000
_cell_angle_gamma 90.000000
_cell_volume 1609.396204
_symmetry_space_group_name_H-M "I 2 2 2"
_symmetry_group_IT_number 23
_symmetry_cell_setting 'orthorhombic'
loop_
_space_group_symop_operation_xyz
x,y,z
-x,-y,z
x,-y,-z
-x,y,-z
1/2+x,1/2+y,1/2+z
1/2-x,1/2-y,1/2+z
1/2+x,1/2-y,1/2-z
1/2-x,1/2+y,1/2-z
loop_
_atom_site_type_symbol
_atom_site_label
_atom_site_fract_x
_atom_site_fract_y
_atom_site_fract_z
Si Si1 0.000000 0.754554 0.500000
Si Si2 0.163287 0.194958 0.510989
Si Si3 0.251011 0.153216 0.010962
Si Si4 0.125518 0.452004 0.744438
Si Si5 0.000000 0.345730 0.000000
O O1 0.925909 0.800297 0.581074
O O2 0.025757 0.704733 0.751979
O O3 0.180276 0.166913 0.212361
O O4 0.196380 0.275661 0.530515
O O5 0.215960 0.149195 0.713243
O O6 0.303456 0.088940 0.109308
O O7 0.091522 0.500000 0.500000
O O8 0.065617 0.395418 0.870346
O O9 0.148640 0.500000 0.000000
#
# Coordination Sequence:
#
# PCOD9330852 Si02
#       5
#     4   8   8   8   4
#     4  12  22  38  63  96 121 162 190 254 314 370
#     4  10  21  36  62  83 120 153 198 249 310 351
#     4  10  21  39  57  85 115 163 200 249 291 352
#     4  12  25  41  59  85 124 173 209 239 286 356
#     4  12  25  38  58  88 130 164 205 234 286 370
#
# _framework density 19.883233000000001
#
# number of rings (size 3 to 8) (size 9 to 14) (size 15 to 20)
#    0.000    1.000    2.500    4.875    7.000    1.000 
#    0.000    0.000    0.000    0.000    0.000   13.125 
#    0.000    0.000    0.000    0.000    0.000    0.000 
#
# Total GULP energy -89467.650636 kJ/mol
# GULP energy per Si atom -5591.728165 kJ/mol
# Density = 1.983798 g / cm^3
# Si number density = 19.883233 Si / 1000 Ang^3
#
#
#
# Elastic Constant Matrix: (Units=GPa)
#
#
# Indices 1 2 3 4 5 6 
#
# 1 101.2817 16.1896 -0.0336 0.0000 0.0000 0.0000
# 2 16.1896 36.4251 8.8229 0.0000 0.0000 0.0000
# 3 -0.0336 8.8229 86.3922 0.0000 0.0000 0.0000
# 4 0.0000 0.0000 0.0000 27.1662 0.0000 0.0000
# 5 0.0000 0.0000 0.0000 0.0000 29.1063 0.0000
# 6 0.0000 0.0000 0.0000 0.0000 0.0000 7.5969
#
#
#
# Elastic Compliance Matrix: (Units=1/GPa)
#
#
# Indices 1 2 3 4 5 6 
#
# 1 0.010650 -0.004854 0.000500 0.000000 0.000000 0.000000
# 2 -0.004854 0.030363 -0.003103 0.000000 0.000000 0.000000
# 3 0.000500 -0.003103 0.011892 0.000000 0.000000 0.000000
# 4 0.000000 0.000000 0.000000 0.036810 0.000000 0.000000
# 5 0.000000 0.000000 0.000000 0.000000 0.034357 0.000000
# 6 0.000000 0.000000 0.000000 0.000000 0.000000 0.131632
#
#
# Mechanical properties :
#
#
# Convention : Reuss Voigt Hill
#
# Bulk Modulus (GPa) = 26.32267 30.45075 28.38671
# Shear Modulus (GPa) = 17.65029 26.04856 21.84943
#
# Velocity S-wave (km/s) = 2.98266 3.62343 3.31854
# Velocity P-wave (km/s) = 5.01289 5.73181 5.38436
#
# Compressibility (1/GPa) = 0.03799006
#
# Stress axis : x y z
#
# Youngs Moduli (GPa) = 93.90038 32.93505 84.08883
#
# Poissons Ratio (x) = 0.15988 -0.04204
# Poissons Ratio (y) = 0.45583 0.26090
# Poissons Ratio (z) = -0.04694 0.10219
#
# Static dielectric constant tensor:
#      x y z
#    x 1.702040 0.000000 0.000000 
#    y 0.000000 1.699770 0.000000 
#    z 0.000000 0.000000 1.704440 
# 
# From -- ./inp_files/2202.got.cif
#   From: 2010.05.17/outbox.cif.g08.bks.cpg/sg23_2_cif.got.tgz:2202.got - 2010.06.04 12:02:01.
