data_PCOD9330138
_publ_section_title
;
Structure prediction by ZEFSAII (Michael W. Deem and Ramdas Pophale) SiO2 
 PCOD9330138
Probable space group: I 2 2 2
;
_chemical_formula_sum "Si O2"
_cell_formula_units_Z 48
_cell_length_a 15.049492
_cell_length_b 16.065713
_cell_length_c 8.832064
_cell_angle_alpha 90.000000
_cell_angle_beta 90.000000
_cell_angle_gamma 90.000000
_cell_volume 2135.423670
_symmetry_space_group_name_H-M "I 2 2 2"
_symmetry_group_IT_number 23
_symmetry_cell_setting 'orthorhombic'
loop_
_space_group_symop_operation_xyz
x,y,z
-x,-y,z
x,-y,-z
-x,y,-z
1/2+x,1/2+y,1/2+z
1/2-x,1/2-y,1/2+z
1/2+x,1/2-y,1/2-z
1/2-x,1/2+y,1/2-z
loop_
_atom_site_type_symbol
_atom_site_label
_atom_site_fract_x
_atom_site_fract_y
_atom_site_fract_z
Si Si1 0.739683 0.528677 0.832036
Si Si2 0.109734 0.097614 0.756627
Si Si3 0.500000 0.500000 0.000000
Si Si4 0.500000 0.218760 0.000000
Si Si5 0.146615 0.413005 0.582042
Si Si6 0.355731 0.305749 0.798700
Si Si7 0.000000 0.000000 0.000000
Si Si8 0.298042 0.707171 0.537360
O O1 0.705220 0.445369 0.755349
O O2 0.825201 0.565257 0.751754
O O3 0.659293 0.595050 0.807296
O O4 0.756174 0.500000 0.000000
O O5 0.135292 0.188310 0.822013
O O6 0.058206 0.062535 0.607971
O O7 0.058066 0.057978 0.895295
O O8 0.571303 0.156179 0.927237
O O9 0.445306 0.273701 0.878330
O O10 0.124027 0.500000 0.500000
O O11 0.234958 0.370943 0.510303
O O12 0.345792 0.275137 0.624416
O O13 0.273175 0.273254 0.900669
#
# Coordination Sequence:
#
# PCOD9330138 Si02
#       8
#     8   8   2   4   8   8   2   8
#     4  11  23  40  69  99 129 175 235 282 330 417
#     4  11  21  40  60  98 127 177 216 288 333 410
#     4  10  24  36  64 102 138 164 232 280 362 402
#     4  10  23  43  69 104 149 180 224 294 352 418
#     4  10  19  39  70 103 127 178 234 281 341 400
#     4  10  24  42  67 103 135 184 227 288 351 414
#     4  10  20  34  56  86 140 160 214 258 352 386
#     4  10  22  41  68  95 138 180 235 280 342 430
#
# _framework density 22.477976000000002
#
# number of rings (size 3 to 8) (size 9 to 14) (size 15 to 20)
#    0.000    1.667    2.500    2.250    2.333    0.667 
#    3.000    0.000    0.000   12.000    6.500    0.000 
#    0.000    0.000    0.000    0.000    0.000    0.000 
#
# Total GULP energy -133988.882817 kJ/mol
# GULP energy per Si atom -5582.870117 kJ/mol
# Density = 2.242681 g / cm^3
# Si number density = 22.477976 Si / 1000 Ang^3
#
#
#
# Elastic Constant Matrix: (Units=GPa)
#
#
# Indices 1 2 3 4 5 6 
#
# 1 100.8899 19.0090 69.4056 0.0000 0.0000 0.0000
# 2 19.0090 52.6820 37.4777 0.0000 0.0000 0.0000
# 3 69.4056 37.4777 147.6832 0.0000 0.0000 0.0000
# 4 0.0000 0.0000 0.0000 33.7549 0.0000 0.0000
# 5 0.0000 0.0000 0.0000 0.0000 38.2650 0.0000
# 6 0.0000 0.0000 0.0000 0.0000 0.0000 30.3575
#
#
#
# Elastic Compliance Matrix: (Units=1/GPa)
#
#
# Indices 1 2 3 4 5 6 
#
# 1 0.014657 -0.000474 -0.006768 0.000000 0.000000 0.000000
# 2 -0.000474 0.023179 -0.005659 0.000000 0.000000 0.000000
# 3 -0.006768 -0.005659 0.011388 0.000000 0.000000 0.000000
# 4 0.000000 0.000000 0.000000 0.029625 0.000000 0.000000
# 5 0.000000 0.000000 0.000000 0.000000 0.026134 0.000000
# 6 0.000000 0.000000 0.000000 0.000000 0.000000 0.032941
#
#
# Mechanical properties :
#
#
# Convention : Reuss Voigt Hill
#
# Bulk Modulus (GPa) = 42.69591 61.44885 52.07238
# Shear Modulus (GPa) = 29.14882 32.16632 30.65757
#
# Velocity S-wave (km/s) = 3.60498 3.78698 3.69710
# Velocity P-wave (km/s) = 6.03023 6.82043 6.43747
#
# Compressibility (1/GPa) = 0.02342145
#
# Stress axis : x y z
#
# Youngs Moduli (GPa) = 68.22674 43.14268 87.81063
#
# Poissons Ratio (x) = 0.02045 0.59430
# Poissons Ratio (y) = 0.03233 0.49696
# Poissons Ratio (z) = 0.46176 0.24416
#
# Static dielectric constant tensor:
#      x y z
#    x 1.859570 0.000000 0.000000 
#    y 0.000000 1.889060 0.000000 
#    z 0.000000 0.000000 1.834760 
# 
# From -- ./inp_files/10013.got.cif
#   From: 2010.05.17/outbox.cif.g08.bks.cpg/sg23_6_cif.got.tgz:10013.got - 2010.06.04 12:02:01.
