data_PCOD9330363
_publ_section_title
;
Structure prediction by ZEFSAII (Michael W. Deem and Ramdas Pophale) SiO2 
 PCOD9330363
Probable space group: I 2 2 2
;
_chemical_formula_sum "Si O2"
_cell_formula_units_Z 40
_cell_length_a 8.564904
_cell_length_b 8.560926
_cell_length_c 24.515774
_cell_angle_alpha 90.000000
_cell_angle_beta 90.000000
_cell_angle_gamma 90.000000
_cell_volume 1797.582584
_symmetry_space_group_name_H-M "I 2 2 2"
_symmetry_group_IT_number 23
_symmetry_cell_setting 'orthorhombic'
loop_
_space_group_symop_operation_xyz
x,y,z
-x,-y,z
x,-y,-z
-x,y,-z
1/2+x,1/2+y,1/2+z
1/2-x,1/2-y,1/2+z
1/2+x,1/2-y,1/2-z
1/2-x,1/2+y,1/2-z
loop_
_atom_site_type_symbol
_atom_site_label
_atom_site_fract_x
_atom_site_fract_y
_atom_site_fract_z
Si Si1 0.823944 0.198949 0.886258
Si Si2 0.179725 0.309786 0.498545
Si Si3 0.389043 0.864517 0.213952
Si Si4 0.623733 0.373622 0.795402
Si Si5 0.820556 0.181342 0.117096
O O1 0.708091 0.279956 0.843674
O O2 0.003902 0.240234 0.875584
O O3 0.818546 0.009545 0.882077
O O4 0.772020 0.241264 0.947610
O O5 0.180166 0.500000 0.500000
O O6 0.258279 0.265156 0.441578
O O7 0.000000 0.258644 0.500000
O O8 0.511187 0.742457 0.239158
O O9 0.261513 0.930142 0.255720
O O10 0.296458 0.779175 0.165683
O O11 0.500000 0.000000 0.191306
O O12 0.500000 0.500000 0.815344
#
# Coordination Sequence:
#
# PCOD9330363 Si02
#       5
#     8   8   8   8   8
#     4  10  20  37  59  93 132 166 211 269 329 384
#     4   9  17  30  57  93 127 158 204 265 325 377
#     4  12  24  42  65  90 126 174 223 271 321 383
#     4  12  26  41  62  94 132 176 217 270 333 392
#     4  10  20  35  64  92 125 167 217 270 320 379
#
# _framework density 22.252105
#
# number of rings (size 3 to 8) (size 9 to 14) (size 15 to 20)
#    0.000    1.400    2.000    4.200    5.600    2.400 
#    0.000    0.000    0.000    5.400    0.000    5.600 
#    0.000    0.000    0.000    0.000    0.000    0.000 
#
# Total GULP energy -111762.510965 kJ/mol
# GULP energy per Si atom -5588.125548 kJ/mol
# Density = 2.220146 g / cm^3
# Si number density = 22.252105 Si / 1000 Ang^3
#
#
#
# Elastic Constant Matrix: (Units=GPa)
#
#
# Indices 1 2 3 4 5 6 
#
# 1 200.9628 49.7732 82.4554 0.0000 0.0000 0.0000
# 2 49.7732 24.6870 16.0181 0.0000 0.0000 0.0000
# 3 82.4554 16.0181 139.6721 0.0000 0.0000 0.0000
# 4 0.0000 0.0000 0.0000 15.6608 0.0000 0.0000
# 5 0.0000 0.0000 0.0000 0.0000 43.2564 0.0000
# 6 0.0000 0.0000 0.0000 0.0000 0.0000 32.0630
#
#
#
# Elastic Compliance Matrix: (Units=1/GPa)
#
#
# Indices 1 2 3 4 5 6 
#
# 1 0.012323 -0.021743 -0.004781 0.000000 0.000000 0.000000
# 2 -0.021743 0.082127 0.003417 0.000000 0.000000 0.000000
# 3 -0.004781 0.003417 0.009590 0.000000 0.000000 0.000000
# 4 0.000000 0.000000 0.000000 0.063854 0.000000 0.000000
# 5 0.000000 0.000000 0.000000 0.000000 0.023118 0.000000
# 6 0.000000 0.000000 0.000000 0.000000 0.000000 0.031189
#
#
# Mechanical properties :
#
#
# Convention : Reuss Voigt Hill
#
# Bulk Modulus (GPa) = 17.29306 73.53501 45.41403
# Shear Modulus (GPa) = 17.37983 32.66773 25.02378
#
# Velocity S-wave (km/s) = 2.79775 3.83570 3.35708
# Velocity P-wave (km/s) = 4.26905 7.26188 5.95650
#
# Compressibility (1/GPa) = 0.05782666
#
# Stress axis : x y z
#
# Youngs Moduli (GPa) = 81.14943 12.17625 104.27124
#
# Poissons Ratio (x) = 0.26475 0.49855
# Poissons Ratio (y) = 1.76442 -0.35632
# Poissons Ratio (z) = 0.38800 -0.04161
#
# Static dielectric constant tensor:
#      x y z
#    x 1.795020 0.000000 0.000000 
#    y 0.000000 1.868990 0.000000 
#    z 0.000000 0.000000 1.777580 
# 
# From -- ./inp_files/27884.got.cif
#   From: 2010.05.17/outbox.cif.g08.bks.cpg/sg23_14_cif.got.tgz:27884.got - 2010.06.04 12:02:01.
