data_PCOD9330621
_publ_section_title
;
Structure prediction by ZEFSAII (Michael W. Deem and Ramdas Pophale) SiO2 
 PCOD9330621
Probable space group: I 2 2 2
;
_chemical_formula_sum "Si O2"
_cell_formula_units_Z 40
_cell_length_a 13.630027
_cell_length_b 14.073361
_cell_length_c 8.048345
_cell_angle_alpha 90.000000
_cell_angle_beta 90.000000
_cell_angle_gamma 90.000000
_cell_volume 1543.835875
_symmetry_space_group_name_H-M "I 2 2 2"
_symmetry_group_IT_number 23
_symmetry_cell_setting 'orthorhombic'
loop_
_space_group_symop_operation_xyz
x,y,z
-x,-y,z
x,-y,-z
-x,y,-z
1/2+x,1/2+y,1/2+z
1/2-x,1/2-y,1/2+z
1/2+x,1/2-y,1/2-z
1/2-x,1/2+y,1/2-z
loop_
_atom_site_type_symbol
_atom_site_label
_atom_site_fract_x
_atom_site_fract_y
_atom_site_fract_z
Si Si1 0.609629 0.957372 0.246947
Si Si2 0.500176 0.795285 0.193860
Si Si3 0.263712 0.655336 0.449165
Si Si4 0.285710 0.855300 0.308026
Si Si5 0.466300 0.399121 0.690985
O O1 0.572765 0.854748 0.316413
O O2 0.673385 0.913252 0.098058
O O3 0.500000 0.000000 0.210959
O O4 0.676850 0.035661 0.337982
O O5 0.390617 0.812819 0.254780
O O6 0.516019 0.684294 0.207591
O O7 0.500000 0.822202 0.000000
O O8 0.245276 0.769113 0.422951
O O9 0.281137 0.639640 0.643638
O O10 0.349983 0.617966 0.329306
O O11 0.500000 0.500000 0.757165
O O12 0.500000 0.391905 0.500000
#
# Coordination Sequence:
#
# PCOD9330621 Si02
#       5
#     8   8   8   8   8
#     4  10  22  38  70  96 124 164 221 272 323 378
#     4  10  20  39  65  95 123 158 219 277 311 373
#     4  11  23  39  65  91 127 164 214 266 316 391
#     4  10  23  38  62  95 124 163 212 262 325 380
#     4  10  25  41  60  93 130 178 214 251 325 403
#
# _framework density 25.909490000000002
#
# number of rings (size 3 to 8) (size 9 to 14) (size 15 to 20)
#    0.000    1.800    2.000    0.600   11.200    0.400 
#    0.000    1.000    4.400    0.000    0.000    0.000 
#    0.000    0.000    0.000    0.000    0.000    0.000 
#
# Total GULP energy -111460.569698 kJ/mol
# GULP energy per Si atom -5573.028485 kJ/mol
# Density = 2.585052 g / cm^3
# Si number density = 25.909490 Si / 1000 Ang^3
#
#
#
# Elastic Constant Matrix: (Units=GPa)
#
#
# Indices 1 2 3 4 5 6 
#
# 1 94.8419 51.4860 16.6097 0.0000 0.0000 0.0000
# 2 51.4860 241.8258 49.1185 0.0000 0.0000 0.0000
# 3 16.6097 49.1185 59.0717 0.0000 0.0000 0.0000
# 4 0.0000 0.0000 0.0000 37.2330 0.0000 0.0000
# 5 0.0000 0.0000 0.0000 0.0000 11.4006 0.0000
# 6 0.0000 0.0000 0.0000 0.0000 0.0000 28.4290
#
#
#
# Elastic Compliance Matrix: (Units=1/GPa)
#
#
# Indices 1 2 3 4 5 6 
#
# 1 0.012032 -0.002255 -0.001508 0.000000 0.000000 0.000000
# 2 -0.002255 0.005398 -0.003855 0.000000 0.000000 0.000000
# 3 -0.001508 -0.003855 0.020558 0.000000 0.000000 0.000000
# 4 0.000000 0.000000 0.000000 0.026858 0.000000 0.000000
# 5 0.000000 0.000000 0.000000 0.000000 0.087715 0.000000
# 6 0.000000 0.000000 0.000000 0.000000 0.000000 0.035175
#
#
# Mechanical properties :
#
#
# Convention : Reuss Voigt Hill
#
# Bulk Modulus (GPa) = 43.95094 70.01865 56.98480
# Shear Modulus (GPa) = 23.74661 33.98086 28.86373
#
# Velocity S-wave (km/s) = 3.03070 3.62542 3.34132
# Velocity P-wave (km/s) = 5.40804 6.67892 6.07679
#
# Compressibility (1/GPa) = 0.02275264
#
# Stress axis : x y z
#
# Youngs Moduli (GPa) = 83.10936 185.24238 48.64372
#
# Poissons Ratio (x) = 0.41781 0.07334
# Poissons Ratio (y) = 0.18745 0.18750
# Poissons Ratio (z) = 0.12531 0.71403
#
# Static dielectric constant tensor:
#      x y z
#    x 2.099610 0.000000 0.000000 
#    y 0.000000 2.208840 0.000000 
#    z 0.000000 0.000000 2.074000 
# 
# From -- ./inp_files/16517.got.cif
#   From: 2010.05.17/outbox.cif.g08.bks.cpg/sg23_9_cif.got.tgz:16517.got - 2010.06.04 12:02:01.
