data_PCOD9330112
_publ_section_title
;
Structure prediction by ZEFSAII (Michael W. Deem and Ramdas Pophale) SiO2 
 PCOD9330112
Probable space group: I 2 2 2
;
_chemical_formula_sum "Si O2"
_cell_formula_units_Z 64
_cell_length_a 23.951086
_cell_length_b 15.096017
_cell_length_c 7.837355
_cell_angle_alpha 90.000000
_cell_angle_beta 90.000000
_cell_angle_gamma 90.000000
_cell_volume 2833.721109
_symmetry_space_group_name_H-M "I 2 2 2"
_symmetry_group_IT_number 23
_symmetry_cell_setting 'orthorhombic'
loop_
_space_group_symop_operation_xyz
x,y,z
-x,-y,z
x,-y,-z
-x,y,-z
1/2+x,1/2+y,1/2+z
1/2-x,1/2-y,1/2+z
1/2+x,1/2-y,1/2-z
1/2-x,1/2+y,1/2-z
loop_
_atom_site_type_symbol
_atom_site_label
_atom_site_fract_x
_atom_site_fract_y
_atom_site_fract_z
Si Si1 0.061096 0.477619 0.202542
Si Si2 0.680136 0.026623 0.702905
Si Si3 0.733017 0.621155 0.264507
Si Si4 0.112921 0.966819 0.188641
Si Si5 0.880329 0.840685 0.305001
Si Si6 0.547740 0.325859 0.886093
Si Si7 0.966694 0.716012 0.173376
Si Si8 0.756066 0.813265 0.373797
O O1 0.116577 0.525596 0.268127
O O2 0.066523 0.372228 0.220052
O O3 0.000000 0.500000 0.274810
O O4 0.058622 0.500000 0.000000
O O5 0.710933 0.120969 0.710757
O O6 0.678098 0.000000 0.500000
O O7 0.717710 0.950365 0.789040
O O8 0.674702 0.573824 0.301447
O O9 0.738725 0.711195 0.370503
O O10 0.734873 0.651060 0.065821
O O11 0.069994 0.892377 0.246063
O O12 0.111662 0.054037 0.306055
O O13 0.101220 0.000000 0.000000
O O14 0.901957 0.803428 0.486478
O O15 0.921557 0.794872 0.169633
O O16 0.815680 0.820896 0.279811
O O17 0.514849 0.243712 0.805917
O O18 0.500000 0.371998 0.000000
O O19 0.000000 0.701004 0.000000
#
# Coordination Sequence:
#
# PCOD9330112 Si02
#       8
#     8   8   8   8   8   8   8   8
#     4  10  19  38  64 100 133 180 224 297 354 410
#     4   9  20  39  64  96 135 181 236 280 356 429
#     4  11  24  41  67 102 142 186 239 294 365 428
#     4  12  25  43  70 103 145 181 242 299 353 431
#     4  11  23  43  69  94 145 192 230 293 365 429
#     4  10  24  43  67  99 137 192 230 279 360 438
#     4  11  22  40  68 104 140 175 248 296 350 430
#     4  11  23  42  66 101 142 189 237 299 360 435
#
# _framework density 22.585144
#
# number of rings (size 3 to 8) (size 9 to 14) (size 15 to 20)
#    0.000    1.375    3.750    1.875    1.750    4.500 
#    2.250    3.125    0.000    3.375    0.000    0.000 
#    0.000    0.000    0.000    0.000    0.000    0.000 
#
# Total GULP energy -178966.731390 kJ/mol
# GULP energy per Si atom -5592.710356 kJ/mol
# Density = 2.253374 g / cm^3
# Si number density = 22.585144 Si / 1000 Ang^3
#
#
#
# Elastic Constant Matrix: (Units=GPa)
#
#
# Indices 1 2 3 4 5 6 
#
# 1 150.7864 34.2093 21.7743 0.0000 0.0000 0.0000
# 2 34.2093 85.9290 8.3528 0.0000 0.0000 0.0000
# 3 21.7743 8.3528 48.6422 0.0000 0.0000 0.0000
# 4 0.0000 0.0000 0.0000 13.4934 0.0000 0.0000
# 5 0.0000 0.0000 0.0000 0.0000 11.4220 0.0000
# 6 0.0000 0.0000 0.0000 0.0000 0.0000 -49.0460
#
#
#
# Elastic Compliance Matrix: (Units=1/GPa)
#
#
# Indices 1 2 3 4 5 6 
#
# 1 0.007689 -0.002773 -0.002966 0.000000 0.000000 0.000000
# 2 -0.002773 0.012835 -0.000963 0.000000 0.000000 0.000000
# 3 -0.002966 -0.000963 0.022051 0.000000 0.000000 0.000000
# 4 0.000000 0.000000 0.000000 0.074110 0.000000 0.000000
# 5 0.000000 0.000000 0.000000 0.000000 0.087550 0.000000
# 6 0.000000 0.000000 0.000000 0.000000 0.000000 -0.020389
#
#
# Mechanical properties :
#
#
# Convention : Reuss Voigt Hill
#
# Bulk Modulus (GPa) = 34.27884 46.00336 40.14110
# Shear Modulus (GPa) = 24.15756 9.90861 17.03308
#
# Velocity S-wave (km/s) = 3.27405 2.09684 2.74920
# Velocity P-wave (km/s) = 5.43168 5.12595 5.28103
#
# Compressibility (1/GPa) = 0.02917251
#
# Stress axis : x y z
#
# Youngs Moduli (GPa) = 130.05115 77.91182 45.34884
#
# Poissons Ratio (x) = 0.21604 0.13450
# Poissons Ratio (y) = 0.36062 0.04366
# Poissons Ratio (z) = 0.38572 0.07501
#
# Static dielectric constant tensor:
#      x y z
#    x 1.827630 0.000000 0.000000 
#    y 0.000000 1.824990 0.000000 
#    z 0.000000 0.000000 2.113380 
# 
# From -- ./inp_files/12721.got.cif
#   From: 2010.05.17/outbox.cif.g08.bks.cpg/sg23_7_cif.got.tgz:12721.got - 2010.06.04 12:02:01.
