data_PCOD9330729
_publ_section_title
;
Structure prediction by ZEFSAII (Michael W. Deem and Ramdas Pophale) SiO2 
 PCOD9330729
Probable space group: I 2 2 2
;
_chemical_formula_sum "Si O2"
_cell_formula_units_Z 34
_cell_length_a 13.466811
_cell_length_b 9.052026
_cell_length_c 11.696670
_cell_angle_alpha 90.000000
_cell_angle_beta 90.000000
_cell_angle_gamma 90.000000
_cell_volume 1425.846569
_symmetry_space_group_name_H-M "I 2 2 2"
_symmetry_group_IT_number 23
_symmetry_cell_setting 'orthorhombic'
loop_
_space_group_symop_operation_xyz
x,y,z
-x,-y,z
x,-y,-z
-x,y,-z
1/2+x,1/2+y,1/2+z
1/2-x,1/2-y,1/2+z
1/2+x,1/2-y,1/2-z
1/2-x,1/2+y,1/2-z
loop_
_atom_site_type_symbol
_atom_site_label
_atom_site_fract_x
_atom_site_fract_y
_atom_site_fract_z
Si Si1 0.500000 0.500000 0.500000
Si Si2 0.858629 0.725833 0.208705
Si Si3 0.656995 0.707896 0.445606
Si Si4 0.163708 0.500000 0.500000
Si Si5 0.270288 0.468191 0.867564
Si Si6 0.500000 0.000000 0.821136
O O1 0.571758 0.593606 0.415687
O O2 0.762421 0.615791 0.198261
O O3 0.839574 0.866164 0.289304
O O4 0.950935 0.631713 0.252118
O O5 0.871723 0.764190 0.077060
O O6 0.763770 0.626302 0.452750
O O7 0.672768 0.862944 0.383983
O O8 0.090178 0.556262 0.401771
O O9 0.302680 0.500000 0.000000
#
# Coordination Sequence:
#
# PCOD9330729 Si02
#       6
#     2   8   8   4   8   4
#     4  10  24  38  66  98 138 174 230 290 348 414
#     4  11  23  41  70 100 137 181 236 291 355 425
#     4  10  22  43  64  97 139 184 226 291 352 421
#     4  10  20  42  66  90 140 182 228 284 358 412
#     4  10  23  44  68  99 137 182 233 288 360 428
#     4  11  22  36  67 102 130 180 235 286 345 430
#
# _framework density 23.845483000000002
#
# number of rings (size 3 to 8) (size 9 to 14) (size 15 to 20)
#    0.000    1.647    2.353    1.412    6.588    0.000 
#    0.000    0.000    0.000    7.059    0.000    0.000 
#    0.000    0.000    0.000    0.000    0.000    0.000 
#
# Total GULP energy -95023.025041 kJ/mol
# GULP energy per Si atom -5589.589708 kJ/mol
# Density = 2.379121 g / cm^3
# Si number density = 23.845483 Si / 1000 Ang^3
#
#
#
# Elastic Constant Matrix: (Units=GPa)
#
#
# Indices 1 2 3 4 5 6 
#
# 1 105.4091 19.7434 25.9839 0.0000 0.0000 0.0000
# 2 19.7434 87.0957 26.7152 0.0000 0.0000 0.0000
# 3 25.9839 26.7152 116.8555 0.0000 0.0000 0.0000
# 4 0.0000 0.0000 0.0000 43.4292 0.0000 0.0000
# 5 0.0000 0.0000 0.0000 0.0000 19.5387 0.0000
# 6 0.0000 0.0000 0.0000 0.0000 0.0000 50.7606
#
#
#
# Elastic Compliance Matrix: (Units=1/GPa)
#
#
# Indices 1 2 3 4 5 6 
#
# 1 0.010280 -0.001752 -0.001885 0.000000 0.000000 0.000000
# 2 -0.001752 0.012646 -0.002502 0.000000 0.000000 0.000000
# 3 -0.001885 -0.002502 0.009549 0.000000 0.000000 0.000000
# 4 0.000000 0.000000 0.000000 0.023026 0.000000 0.000000
# 5 0.000000 0.000000 0.000000 0.000000 0.051180 0.000000
# 6 0.000000 0.000000 0.000000 0.000000 0.000000 0.019700
#
#
# Mechanical properties :
#
#
# Convention : Reuss Voigt Hill
#
# Bulk Modulus (GPa) = 49.51257 50.47170 49.99213
# Shear Modulus (GPa) = 34.39001 38.54023 36.46512
#
# Velocity S-wave (km/s) = 3.80175 4.02462 3.91477
# Velocity P-wave (km/s) = 6.33088 6.54285 6.43774
#
# Compressibility (1/GPa) = 0.02019689
#
# Stress axis : x y z
#
# Youngs Moduli (GPa) = 97.27884 79.07588 104.72654
#
# Poissons Ratio (x) = 0.13854 0.19744
# Poissons Ratio (y) = 0.17043 0.26198
# Poissons Ratio (z) = 0.18340 0.19781
#
# Static dielectric constant tensor:
#      x y z
#    x 1.942630 0.000000 0.000000 
#    y 0.000000 2.044570 0.000000 
#    z 0.000000 0.000000 1.945300 
# 
# From -- ./inp_files/16374.got.cif
#   From: 2010.05.17/outbox.cif.g08.bks.cpg/sg23_9_cif.got.tgz:16374.got - 2010.06.04 12:02:01.
