data_PCOD9330090
_publ_section_title
;
Structure prediction by ZEFSAII (Michael W. Deem and Ramdas Pophale) SiO2 
 PCOD9330090
Probable space group: I 2 2 2
;
_chemical_formula_sum "Si O2"
_cell_formula_units_Z 48
_cell_length_a 16.954075
_cell_length_b 5.084358
_cell_length_c 27.017409
_cell_angle_alpha 90.000000
_cell_angle_beta 90.000000
_cell_angle_gamma 90.000000
_cell_volume 2328.916511
_symmetry_space_group_name_H-M "I 2 2 2"
_symmetry_group_IT_number 23
_symmetry_cell_setting 'orthorhombic'
loop_
_space_group_symop_operation_xyz
x,y,z
-x,-y,z
x,-y,-z
-x,y,-z
1/2+x,1/2+y,1/2+z
1/2-x,1/2-y,1/2+z
1/2+x,1/2-y,1/2-z
1/2-x,1/2+y,1/2-z
loop_
_atom_site_type_symbol
_atom_site_label
_atom_site_fract_x
_atom_site_fract_y
_atom_site_fract_z
Si Si1 0.307245 0.869208 0.947263
Si Si2 0.946775 0.261014 0.374860
Si Si3 0.463565 0.749854 0.555193
Si Si4 0.791122 0.367730 0.076945
Si Si5 0.775444 0.465578 0.187597
Si Si6 0.670656 0.038499 0.793863
O O1 0.377503 0.740512 0.915523
O O2 0.244038 0.630307 0.948583
O O3 0.269900 0.125092 0.921114
O O4 0.329693 0.000000 0.000000
O O5 0.905183 0.367699 0.324609
O O6 0.000000 0.500000 0.393302
O O7 0.000000 0.000000 0.368929
O O8 0.500000 0.500000 0.581294
O O9 0.500000 0.749036 0.500000
O O10 0.370332 0.765511 0.551427
O O11 0.500000 0.000000 0.581288
O O12 0.811254 0.431612 0.133711
O O13 0.738108 0.754748 0.190318
O O14 0.832967 0.433809 0.234454
O O15 0.703936 0.252726 0.194143
#
# Coordination Sequence:
#
# PCOD9330090 Si02
#       6
#     8   8   8   8   8   8
#     4  12  27  42  65 100 125 174 241 278 334 399
#     4  12  24  43  67  93 139 180 221 286 352 412
#     4  10  23  38  57  88 127 168 204 252 329 390
#     4  12  22  42  68  94 134 174 224 278 323 409
#     4  10  19  37  67  94 130 161 219 279 315 396
#     4  10  20  38  63  99 125 165 218 270 338 396
#
# _framework density 20.610441999999999
#
# number of rings (size 3 to 8) (size 9 to 14) (size 15 to 20)
#    0.000    1.000    3.333    3.500    7.000    0.333 
#    0.000    2.500    0.000    0.000    0.000    0.000 
#    0.000    0.000    0.000    0.000    0.000    0.000 
#
# Total GULP energy -133914.463559 kJ/mol
# GULP energy per Si atom -5579.769315 kJ/mol
# Density = 2.056353 g / cm^3
# Si number density = 20.610442 Si / 1000 Ang^3
#
#
#
# Elastic Constant Matrix: (Units=GPa)
#
#
# Indices 1 2 3 4 5 6 
#
# 1 77.9968 8.9512 19.0523 0.0000 0.0000 0.0000
# 2 8.9512 116.9628 -16.7625 0.0000 0.0000 0.0000
# 3 19.0523 -16.7625 92.4292 0.0000 0.0000 0.0000
# 4 0.0000 0.0000 0.0000 20.7392 0.0000 0.0000
# 5 0.0000 0.0000 0.0000 0.0000 16.8604 0.0000
# 6 0.0000 0.0000 0.0000 0.0000 0.0000 36.7884
#
#
#
# Elastic Compliance Matrix: (Units=1/GPa)
#
#
# Indices 1 2 3 4 5 6 
#
# 1 0.013752 -0.001498 -0.003106 0.000000 0.000000 0.000000
# 2 -0.001498 0.008941 0.001930 0.000000 0.000000 0.000000
# 3 -0.003106 0.001930 0.011809 0.000000 0.000000 0.000000
# 4 0.000000 0.000000 0.000000 0.048218 0.000000 0.000000
# 5 0.000000 0.000000 0.000000 0.000000 0.059311 0.000000
# 6 0.000000 0.000000 0.000000 0.000000 0.000000 0.027183
#
#
# Mechanical properties :
#
#
# Convention : Reuss Voigt Hill
#
# Bulk Modulus (GPa) = 34.29965 34.43010 34.36488
# Shear Modulus (GPa) = 27.13286 33.28744 30.21015
#
# Velocity S-wave (km/s) = 3.63224 4.02316 3.83269
# Velocity P-wave (km/s) = 5.85397 6.19052 6.02459
#
# Compressibility (1/GPa) = 0.02915482
#
# Stress axis : x y z
#
# Youngs Moduli (GPa) = 72.71851 111.84478 84.67818
#
# Poissons Ratio (x) = 0.16750 0.26303
# Poissons Ratio (y) = 0.10890 -0.16344
# Poissons Ratio (z) = 0.22588 -0.21588
#
# Static dielectric constant tensor:
#      x y z
#    x 1.765050 0.000000 0.000000 
#    y 0.000000 1.754950 0.000000 
#    z 0.000000 0.000000 1.772680 
# 
# From -- ./inp_files/29577.got.cif
#   From: 2010.05.17/outbox.cif.g08.bks.cpg/sg23_15_cif.got.tgz:29577.got - 2010.06.04 12:02:01.
