data_PCOD9330608
_publ_section_title
;
Structure prediction by ZEFSAII (Michael W. Deem and Ramdas Pophale) SiO2 
 PCOD9330608
Probable space group: I 2 2 2
;
_chemical_formula_sum "Si O2"
_cell_formula_units_Z 48
_cell_length_a 14.948870
_cell_length_b 8.974625
_cell_length_c 16.768669
_cell_angle_alpha 90.000000
_cell_angle_beta 90.000000
_cell_angle_gamma 90.000000
_cell_volume 2249.693058
_symmetry_space_group_name_H-M "I 2 2 2"
_symmetry_group_IT_number 23
_symmetry_cell_setting 'orthorhombic'
loop_
_space_group_symop_operation_xyz
x,y,z
-x,-y,z
x,-y,-z
-x,y,-z
1/2+x,1/2+y,1/2+z
1/2-x,1/2-y,1/2+z
1/2+x,1/2-y,1/2-z
1/2-x,1/2+y,1/2-z
loop_
_atom_site_type_symbol
_atom_site_label
_atom_site_fract_x
_atom_site_fract_y
_atom_site_fract_z
Si Si1 0.922915 0.885593 0.291114
Si Si2 0.587544 0.596128 0.603490
Si Si3 0.757608 0.586594 0.365317
Si Si4 0.946428 0.347921 0.576184
Si Si5 0.900672 0.431498 0.921151
Si Si6 0.276226 0.085263 0.294746
O O1 0.916936 0.857609 0.197157
O O2 0.948924 0.745153 0.343163
O O3 0.826955 0.951068 0.315089
O O4 0.000000 0.000000 0.305282
O O5 0.500000 0.500000 0.586179
O O6 0.673118 0.491051 0.594004
O O7 0.593634 0.755736 0.563185
O O8 0.838952 0.622124 0.426147
O O9 0.723243 0.737813 0.318835
O O10 0.789489 0.468002 0.296869
O O11 0.000000 0.500000 0.587257
O O12 0.000000 0.278128 0.500000
O O13 0.843189 0.487643 0.846914
O O14 0.000000 0.500000 0.912416
O O15 0.857440 0.500000 0.000000
#
# Coordination Sequence:
#
# PCOD9330608 Si02
#       6
#     8   8   8   8   8   8
#     4   9  20  38  63  94 125 162 221 273 319 382
#     4  10  21  41  70  99 122 165 223 281 334 390
#     4  10  21  39  66  96 127 168 227 282 328 394
#     4  10  22  39  54  86 133 176 216 256 326 402
#     4  11  24  42  60  91 130 166 212 269 337 406
#     4  10  20  39  62  94 126 167 224 278 331 385
#
# _framework density 21.336243
#
# number of rings (size 3 to 8) (size 9 to 14) (size 15 to 20)
#    0.000    2.000    0.000    4.000    0.000    8.333 
#   18.000    5.000    0.000    0.000    0.000    0.000 
#    0.000    0.000    0.000    0.000    0.000    0.000 
#
# Total GULP energy -133901.828119 kJ/mol
# GULP energy per Si atom -5579.242838 kJ/mol
# Density = 2.128768 g / cm^3
# Si number density = 21.336243 Si / 1000 Ang^3
#
#
#
# Elastic Constant Matrix: (Units=GPa)
#
#
# Indices 1 2 3 4 5 6 
#
# 1 89.8087 34.4742 41.2175 0.0000 0.0000 0.0000
# 2 34.4742 104.9433 24.2456 0.0000 0.0000 0.0000
# 3 41.2175 24.2456 81.5591 0.0000 0.0000 0.0000
# 4 0.0000 0.0000 0.0000 32.4833 0.0000 0.0000
# 5 0.0000 0.0000 0.0000 0.0000 21.0139 0.0000
# 6 0.0000 0.0000 0.0000 0.0000 0.0000 34.5656
#
#
#
# Elastic Compliance Matrix: (Units=1/GPa)
#
#
# Indices 1 2 3 4 5 6 
#
# 1 0.015643 -0.003557 -0.006848 0.000000 0.000000 0.000000
# 2 -0.003557 0.011040 -0.001485 0.000000 0.000000 0.000000
# 3 -0.006848 -0.001485 0.016163 0.000000 0.000000 0.000000
# 4 0.000000 0.000000 0.000000 0.030785 0.000000 0.000000
# 5 0.000000 0.000000 0.000000 0.000000 0.047587 0.000000
# 6 0.000000 0.000000 0.000000 0.000000 0.000000 0.028930
#
#
# Mechanical properties :
#
#
# Convention : Reuss Voigt Hill
#
# Bulk Modulus (GPa) = 52.44467 52.90953 52.67710
# Shear Modulus (GPa) = 27.73395 29.37081 28.55238
#
# Velocity S-wave (km/s) = 3.60926 3.71424 3.66212
# Velocity P-wave (km/s) = 6.48093 6.57616 6.52872
#
# Compressibility (1/GPa) = 0.01906771
#
# Stress axis : x y z
#
# Youngs Moduli (GPa) = 63.92630 90.57716 61.86863
#
# Poissons Ratio (x) = 0.32215 0.42369
# Poissons Ratio (y) = 0.22736 0.09185
# Poissons Ratio (z) = 0.43778 0.13447
#
# Static dielectric constant tensor:
#      x y z
#    x 1.742490 0.000000 0.000000 
#    y 0.000000 1.754950 0.000000 
#    z 0.000000 0.000000 1.799450 
# 
# From -- ./inp_files/24730.got.cif
#   From: 2010.05.17/outbox.cif.g08.bks.cpg/sg23_13_cif.got.tgz:24730.got - 2010.06.04 12:02:01.
