data_PCOD9330680
_publ_section_title
;
Structure prediction by ZEFSAII (Michael W. Deem and Ramdas Pophale) SiO2 
 PCOD9330680
Probable space group: I 2 2 2
;
_chemical_formula_sum "Si O2"
_cell_formula_units_Z 40
_cell_length_a 8.356800
_cell_length_b 11.519403
_cell_length_c 18.427346
_cell_angle_alpha 90.000000
_cell_angle_beta 90.000000
_cell_angle_gamma 90.000000
_cell_volume 1773.914857
_symmetry_space_group_name_H-M "I 2 2 2"
_symmetry_group_IT_number 23
_symmetry_cell_setting 'orthorhombic'
loop_
_space_group_symop_operation_xyz
x,y,z
-x,-y,z
x,-y,-z
-x,y,-z
1/2+x,1/2+y,1/2+z
1/2-x,1/2-y,1/2+z
1/2+x,1/2-y,1/2-z
1/2-x,1/2+y,1/2-z
loop_
_atom_site_type_symbol
_atom_site_label
_atom_site_fract_x
_atom_site_fract_y
_atom_site_fract_z
Si Si1 0.967575 0.628226 0.631033
Si Si2 0.613347 0.613351 0.611955
Si Si3 0.922433 0.200762 0.234932
Si Si4 0.000000 0.697873 0.000000
Si Si5 0.783035 0.193220 0.602007
Si Si6 0.000000 0.000000 0.675593
O O1 0.798086 0.603262 0.593634
O O2 0.948218 0.708599 0.701582
O O3 0.000000 0.500000 0.658777
O O4 0.099379 0.697509 0.583286
O O5 0.500000 0.500000 0.602528
O O6 0.583987 0.660876 0.693232
O O7 0.559327 0.717074 0.561931
O O8 0.811725 0.252897 0.171823
O O9 0.880931 0.079646 0.275208
O O10 0.841886 0.647268 0.959429
O O11 0.894712 0.087834 0.628058
#
# Coordination Sequence:
#
# PCOD9330680 Si02
#       6
#     8   8   8   4   8   4
#     4  11  22  35  62 105 132 174 232 288 364 424
#     4  11  22  39  62  93 138 181 227 296 350 413
#     4  10  21  38  64  99 141 181 219 298 364 428
#     4  10  23  44  64  93 134 186 241 271 360 416
#     4  10  23  40  69 102 139 190 230 299 353 434
#     4  10  20  40  70 106 142 178 238 292 370 418
#
# _framework density 22.548998000000001
#
# number of rings (size 3 to 8) (size 9 to 14) (size 15 to 20)
#    0.000    1.600    1.000    5.100    2.800    0.800 
#    0.000    1.000    0.000   14.400    0.000    0.000 
#    0.000    0.000    0.000    0.000    0.000    0.000 
#
# Total GULP energy -111391.211468 kJ/mol
# GULP energy per Si atom -5569.560573 kJ/mol
# Density = 2.249767 g / cm^3
# Si number density = 22.548998 Si / 1000 Ang^3
#
#
#
# Elastic Constant Matrix: (Units=GPa)
#
#
# Indices 1 2 3 4 5 6 
#
# 1 113.7878 38.4973 33.6102 0.0000 0.0000 0.0000
# 2 38.4973 132.9724 30.3231 0.0000 0.0000 0.0000
# 3 33.6102 30.3231 65.9120 0.0000 0.0000 0.0000
# 4 0.0000 0.0000 0.0000 15.4421 0.0000 0.0000
# 5 0.0000 0.0000 0.0000 0.0000 25.6568 0.0000
# 6 0.0000 0.0000 0.0000 0.0000 0.0000 60.4459
#
#
#
# Elastic Compliance Matrix: (Units=1/GPa)
#
#
# Indices 1 2 3 4 5 6 
#
# 1 0.010847 -0.002099 -0.004565 0.000000 0.000000 0.000000
# 2 -0.002099 0.008808 -0.002982 0.000000 0.000000 0.000000
# 3 -0.004565 -0.002982 0.018872 0.000000 0.000000 0.000000
# 4 0.000000 0.000000 0.000000 0.064758 0.000000 0.000000
# 5 0.000000 0.000000 0.000000 0.000000 0.038976 0.000000
# 6 0.000000 0.000000 0.000000 0.000000 0.000000 0.016544
#
#
# Mechanical properties :
#
#
# Convention : Reuss Voigt Hill
#
# Bulk Modulus (GPa) = 51.99169 57.50372 54.74770
# Shear Modulus (GPa) = 27.09901 34.32505 30.71203
#
# Velocity S-wave (km/s) = 3.47044 3.90583 3.69455
# Velocity P-wave (km/s) = 6.25826 6.77478 6.52164
#
# Compressibility (1/GPa) = 0.01923384
#
# Stress axis : x y z
#
# Youngs Moduli (GPa) = 92.19109 113.53210 52.98989
#
# Poissons Ratio (x) = 0.23833 0.24192
# Poissons Ratio (y) = 0.19353 0.15800
# Poissons Ratio (z) = 0.42089 0.33852
#
# Static dielectric constant tensor:
#      x y z
#    x 1.949080 0.000000 0.000000 
#    y 0.000000 1.869220 0.000000 
#    z 0.000000 0.000000 1.676080 
# 
# From -- ./inp_files/26098.got.cif
#   From: 2010.05.17/outbox.cif.g08.bks.cpg/sg23_14_cif.got.tgz:26098.got - 2010.06.04 12:02:01.
