data_PCOD9330424
_publ_section_title
;
Structure prediction by ZEFSAII (Michael W. Deem and Ramdas Pophale) SiO2 
 PCOD9330424
Probable space group: I 2 2 2
;
_chemical_formula_sum "Si O2"
_cell_formula_units_Z 32
_cell_length_a 5.095599
_cell_length_b 33.265055
_cell_length_c 7.088157
_cell_angle_alpha 90.000000
_cell_angle_beta 90.000000
_cell_angle_gamma 90.000000
_cell_volume 1201.480753
_symmetry_space_group_name_H-M "I 2 2 2"
_symmetry_group_IT_number 23
_symmetry_cell_setting 'orthorhombic'
loop_
_space_group_symop_operation_xyz
x,y,z
-x,-y,z
x,-y,-z
-x,y,-z
1/2+x,1/2+y,1/2+z
1/2-x,1/2-y,1/2+z
1/2+x,1/2-y,1/2-z
1/2-x,1/2+y,1/2-z
loop_
_atom_site_type_symbol
_atom_site_label
_atom_site_fract_x
_atom_site_fract_y
_atom_site_fract_z
Si Si1 0.253885 0.019094 0.790072
Si Si2 0.958864 0.149152 0.728147
Si Si3 0.379358 0.226116 0.294575
Si Si4 0.959288 0.393588 0.772791
O O1 0.312275 0.066084 0.789254
O O2 0.500000 0.000000 0.692296
O O3 0.000000 0.000000 0.700826
O O4 0.251087 0.000000 0.000000
O O5 0.795153 0.188882 0.778685
O O6 0.757948 0.113835 0.790359
O O7 0.000000 0.149823 0.500000
O O8 0.256703 0.141387 0.790236
O O9 0.500000 0.216069 0.500000
O O10 0.644210 0.240710 0.188658
O O11 0.000000 0.394123 0.000000
#
# Coordination Sequence:
#
# PCOD9330424 Si02
#       4
#     8   8   8   8
#     4  10  21  38  61  85 124 171 216 256 344 408
#     4  10  20  38  64  96 124 172 219 276 348 386
#     4  12  24  42  71 100 141 184 230 285 345 417
#     4  10  20  36  62  92 124 160 227 286 324 393
#
# _framework density 26.633803
#
# number of rings (size 3 to 8) (size 9 to 14) (size 15 to 20)
#    0.000    1.500    0.000    7.500    0.000    0.500 
#    0.000    1.250   55.000    0.000    0.000    0.000 
#    0.000    0.000    0.000    0.000    0.000    0.000 
#
# Total GULP energy -89350.081049 kJ/mol
# GULP energy per Si atom -5584.380066 kJ/mol
# Density = 2.657318 g / cm^3
# Si number density = 26.633803 Si / 1000 Ang^3
#
#
#
# Elastic Constant Matrix: (Units=GPa)
#
#
# Indices 1 2 3 4 5 6 
#
# 1 257.2365 73.0064 21.4849 0.0000 -0.0005 0.0000
# 2 73.0064 149.6376 11.2108 -0.0002 0.0042 0.0000
# 3 21.4849 11.2108 123.5019 -0.0013 0.0041 0.0003
# 4 0.0000 -0.0002 -0.0013 23.0746 -0.0067 -0.0001
# 5 -0.0005 0.0042 0.0041 -0.0067-3708.8119 0.0057
# 6 0.0000 0.0000 0.0003 -0.0001 0.0057 49.8200
#
#
#
# Elastic Compliance Matrix: (Units=1/GPa)
#
#
# Indices 1 2 3 4 5 6 
#
# 1 0.004555 -0.002178 -0.000595 0.000000 0.000000 0.000000
# 2 -0.002178 0.007770 -0.000326 0.000000 0.000000 0.000000
# 3 -0.000595 -0.000326 0.008230 0.000000 0.000000 0.000000
# 4 0.000000 0.000000 0.000000 0.043338 0.000000 0.000000
# 5 0.000000 0.000000 0.000000 0.000000 -0.000270 0.000000
# 6 0.000000 0.000000 0.000000 0.000000 0.000000 0.020072
#
#
# Mechanical properties :
#
#
# Convention : Reuss Voigt Hill
#
# Bulk Modulus (GPa) = 69.65204 82.42001 76.03602
# Shear Modulus (GPa) = 52.80985 -698.87186 -323.03100
#
# Velocity S-wave (km/s) = 4.45771 -16.21635 -11.02494
# Velocity P-wave (km/s) = 7.25971 17.87775 11.55228
#
# Compressibility (1/GPa) = 0.01435708
#
# Stress axis : x y z
#
# Youngs Moduli (GPa) = 219.52653 128.70281 121.50462
#
# Poissons Ratio (x) = 0.28030 0.07227
# Poissons Ratio (y) = 0.47811 0.03966
# Poissons Ratio (z) = 0.13056 0.04201
#
# Static dielectric constant tensor:
#      x y z
#    x 2.022360 0.000000 0.000000 
#    y 0.000000 6.501690 0.000000 
#    z 0.000000 0.000000 2.090400 
# 
# From -- ./inp_files/5773.got.cif
#   From: 2010.05.17/outbox.cif.g08.bks.cpg/sg23_3_cif.got.tgz:5773.got - 2010.06.04 12:02:01.
