data_PCOD9330665
_publ_section_title
;
Structure prediction by ZEFSAII (Michael W. Deem and Ramdas Pophale) SiO2 
 PCOD9330665
Probable space group: I 2 2 2
;
_chemical_formula_sum "Si O2"
_cell_formula_units_Z 48
_cell_length_a 14.309180
_cell_length_b 8.248545
_cell_length_c 19.110681
_cell_angle_alpha 90.000000
_cell_angle_beta 90.000000
_cell_angle_gamma 90.000000
_cell_volume 2255.632057
_symmetry_space_group_name_H-M "I 2 2 2"
_symmetry_group_IT_number 23
_symmetry_cell_setting 'orthorhombic'
loop_
_space_group_symop_operation_xyz
x,y,z
-x,-y,z
x,-y,-z
-x,y,-z
1/2+x,1/2+y,1/2+z
1/2-x,1/2-y,1/2+z
1/2+x,1/2-y,1/2-z
1/2-x,1/2+y,1/2-z
loop_
_atom_site_type_symbol
_atom_site_label
_atom_site_fract_x
_atom_site_fract_y
_atom_site_fract_z
Si Si1 0.134124 0.896328 0.287903
Si Si2 0.894352 0.050624 0.920309
Si Si3 0.275138 0.541685 0.081542
Si Si4 0.731318 0.136387 0.160954
Si Si5 0.584381 0.905141 0.612335
Si Si6 0.561171 0.763649 0.764939
O O1 0.211166 0.826610 0.233685
O O2 0.042969 0.784063 0.287475
O O3 0.168175 0.921292 0.367405
O O4 0.110466 0.083648 0.264539
O O5 0.806288 0.981397 0.876893
O O6 0.887603 0.242595 0.925365
O O7 0.000000 0.000000 0.893268
O O8 0.889174 0.000000 0.000000
O O9 0.293187 0.725916 0.103575
O O10 0.170425 0.523183 0.109737
O O11 0.284378 0.500000 0.000000
O O12 0.626097 0.112428 0.190911
O O13 0.557074 0.841015 0.688601
O O14 0.500000 0.000000 0.579528
#
# Coordination Sequence:
#
# PCOD9330665 Si02
#       6
#     8   8   8   8   8   8
#     4  10  20  40  65  92 129 174 234 282 340 422
#     4  11  23  40  61  90 130 177 214 265 351 422
#     4  11  24  40  62  98 136 177 227 293 358 415
#     4  11  21  41  67  92 129 176 226 279 342 417
#     4  12  23  38  63  98 134 168 220 286 345 421
#     4  10  21  38  65  97 123 172 228 283 338 400
#
# _framework density 21.280065
#
# number of rings (size 3 to 8) (size 9 to 14) (size 15 to 20)
#    0.000    1.167    3.333    4.000    0.000    1.667 
#    3.000    6.667    0.000    0.000    0.000    0.000 
#    0.000    0.000    0.000    0.000    0.000    0.000 
#
# Total GULP energy -133783.764731 kJ/mol
# GULP energy per Si atom -5574.323530 kJ/mol
# Density = 2.123163 g / cm^3
# Si number density = 21.280065 Si / 1000 Ang^3
#
#
#
# Elastic Constant Matrix: (Units=GPa)
#
#
# Indices 1 2 3 4 5 6 
#
# 1 88.7494 7.4953 52.5005 0.0000 0.0000 0.0000
# 2 7.4953 30.8270 32.2214 0.0000 0.0000 0.0000
# 3 52.5005 32.2214 124.7027 0.0000 0.0000 0.0000
# 4 0.0000 0.0000 0.0000 1.2707 0.0000 0.0000
# 5 0.0000 0.0000 0.0000 0.0000 71.0041 0.0000
# 6 0.0000 0.0000 0.0000 0.0000 0.0000 40.6647
#
#
#
# Elastic Compliance Matrix: (Units=1/GPa)
#
#
# Indices 1 2 3 4 5 6 
#
# 1 0.015382 0.004150 -0.007548 0.000000 0.000000 0.000000
# 2 0.004150 0.045561 -0.013519 0.000000 0.000000 0.000000
# 3 -0.007548 -0.013519 0.014690 0.000000 0.000000 0.000000
# 4 0.000000 0.000000 0.000000 0.786964 0.000000 0.000000
# 5 0.000000 0.000000 0.000000 0.000000 0.014084 0.000000
# 6 0.000000 0.000000 0.000000 0.000000 0.000000 0.024591
#
#
# Mechanical properties :
#
#
# Convention : Reuss Voigt Hill
#
# Bulk Modulus (GPa) = 23.92481 47.63486 35.77983
# Shear Modulus (GPa) = 5.26847 32.72535 18.99691
#
# Velocity S-wave (km/s) = 1.57517 3.92579 2.99107
# Velocity P-wave (km/s) = 3.81778 6.55610 5.36460
#
# Compressibility (1/GPa) = 0.04179762
#
# Stress axis : x y z
#
# Youngs Moduli (GPa) = 65.00895 21.94858 68.07270
#
# Poissons Ratio (x) = -0.09108 0.51384
# Poissons Ratio (y) = -0.26976 0.92030
# Poissons Ratio (z) = 0.49071 0.29673
#
# Static dielectric constant tensor:
#      x y z
#    x 1.852500 0.000000 0.000000 
#    y 0.000000 1.312730 0.000000 
#    z 0.000000 0.000000 1.798620 
# 
# From -- ./inp_files/24739.got.cif
#   From: 2010.05.17/outbox.cif.g08.bks.cpg/sg23_13_cif.got.tgz:24739.got - 2010.06.04 12:02:01.
