data_PCOD9330134
_publ_section_title
;
Structure prediction by ZEFSAII (Michael W. Deem and Ramdas Pophale) SiO2 
 PCOD9330134
Probable space group: I 2 2 2
;
_chemical_formula_sum "Si O2"
_cell_formula_units_Z 64
_cell_length_a 11.187122
_cell_length_b 14.661587
_cell_length_c 20.583557
_cell_angle_alpha 90.000000
_cell_angle_beta 90.000000
_cell_angle_gamma 90.000000
_cell_volume 3376.134830
_symmetry_space_group_name_H-M "I 2 2 2"
_symmetry_group_IT_number 23
_symmetry_cell_setting 'orthorhombic'
loop_
_space_group_symop_operation_xyz
x,y,z
-x,-y,z
x,-y,-z
-x,y,-z
1/2+x,1/2+y,1/2+z
1/2-x,1/2-y,1/2+z
1/2+x,1/2-y,1/2-z
1/2-x,1/2+y,1/2-z
loop_
_atom_site_type_symbol
_atom_site_label
_atom_site_fract_x
_atom_site_fract_y
_atom_site_fract_z
Si Si1 0.796125 0.224486 0.172064
Si Si2 0.022227 0.299209 0.928394
Si Si3 0.752988 0.904552 0.463251
Si Si4 0.349939 0.402236 0.821207
Si Si5 0.370892 0.393436 0.205674
Si Si6 0.852122 0.396260 0.425783
Si Si7 0.251135 0.794441 0.412337
Si Si8 0.134515 0.602108 0.581520
O O1 0.911329 0.241614 0.126576
O O2 0.738848 0.319829 0.196514
O O3 0.826079 0.161353 0.232347
O O4 0.702638 0.175555 0.124144
O O5 0.116674 0.380779 0.941651
O O6 0.889660 0.322432 0.905713
O O7 0.000000 0.254745 0.000000
O O8 0.835295 0.906537 0.399720
O O9 0.786381 0.825973 0.515054
O O10 0.757556 0.000000 0.500000
O O11 0.323904 0.502605 0.793553
O O12 0.485774 0.386603 0.799533
O O13 0.322713 0.348835 0.140144
O O14 0.772075 0.312713 0.401864
O O15 0.843070 0.392443 0.504245
O O16 0.824991 0.498556 0.401631
O O17 0.992474 0.384367 0.409453
#
# Coordination Sequence:
#
# PCOD9330134 Si02
#       8
#     8   8   8   8   8   8   8   8
#     4  11  23  42  65  83 129 175 203 264 317 378
#     4   9  21  37  61  92 124 160 213 256 316 379
#     4  10  19  39  66  92 126 168 205 273 325 376
#     4  10  23  45  62  91 126 162 220 263 317 381
#     4  11  25  40  62  90 126 172 209 258 315 384
#     4   9  18  34  62  91 120 148 205 271 306 373
#     4  11  21  36  60  96 124 160 208 254 325 382
#     4   9  18  36  60  90 117 157 205 258 323 359
#
# _framework density 18.956586999999999
#
# number of rings (size 3 to 8) (size 9 to 14) (size 15 to 20)
#    0.000    2.000    1.250    3.750    1.750    4.750 
#    2.250    0.000    0.000    3.750    0.000    0.000 
#    0.000    0.000    0.000    0.000    0.000    0.000 
#
# Total GULP energy -178486.229697 kJ/mol
# GULP energy per Si atom -5577.694678 kJ/mol
# Density = 1.891344 g / cm^3
# Si number density = 18.956587 Si / 1000 Ang^3
#
#
#
# Elastic Constant Matrix: (Units=GPa)
#
#
# Indices 1 2 3 4 5 6 
#
# 1 29.9077 28.0950 26.9359 0.0000 0.0000 0.0000
# 2 28.0950 104.9313 43.4641 0.0000 0.0000 0.0000
# 3 26.9359 43.4641 66.5765 0.0000 0.0000 0.0000
# 4 0.0000 0.0000 0.0000 37.9230 0.0000 0.0000
# 5 0.0000 0.0000 0.0000 0.0000 14.4749 0.0000
# 6 0.0000 0.0000 0.0000 0.0000 0.0000 17.8260
#
#
#
# Elastic Compliance Matrix: (Units=1/GPa)
#
#
# Indices 1 2 3 4 5 6 
#
# 1 0.056925 -0.007815 -0.017929 0.000000 0.000000 0.000000
# 2 -0.007815 0.014135 -0.006066 0.000000 0.000000 0.000000
# 3 -0.017929 -0.006066 0.026235 0.000000 0.000000 0.000000
# 4 0.000000 0.000000 0.000000 0.026369 0.000000 0.000000
# 5 0.000000 0.000000 0.000000 0.000000 0.069085 0.000000
# 6 0.000000 0.000000 0.000000 0.000000 0.000000 0.056098
#
#
# Mechanical properties :
#
#
# Convention : Reuss Voigt Hill
#
# Bulk Modulus (GPa) = 29.69642 44.26729 36.98186
# Shear Modulus (GPa) = 15.44676 20.90616 18.17646
#
# Velocity S-wave (km/s) = 2.85765 3.32451 3.09988
# Velocity P-wave (km/s) = 5.15633 6.17569 5.68889
#
# Compressibility (1/GPa) = 0.03367409
#
# Stress axis : x y z
#
# Youngs Moduli (GPa) = 17.56691 70.74533 38.11773
#
# Poissons Ratio (x) = 0.55288 0.68342
# Poissons Ratio (y) = 0.13729 0.23123
# Poissons Ratio (z) = 0.31496 0.42916
#
# Static dielectric constant tensor:
#      x y z
#    x 1.652160 0.000000 0.000000 
#    y 0.000000 1.676830 0.000000 
#    z 0.000000 0.000000 1.642690 
# 
# From -- ./inp_files/24433.got.cif
#   From: 2010.05.17/outbox.cif.g08.bks.cpg/sg23_13_cif.got.tgz:24433.got - 2010.06.04 12:02:01.
