data_PCOD9330592
_publ_section_title
;
Structure prediction by ZEFSAII (Michael W. Deem and Ramdas Pophale) SiO2 
 PCOD9330592
Probable space group: I 2 2 2
;
_chemical_formula_sum "Si O2"
_cell_formula_units_Z 64
_cell_length_a 21.966977
_cell_length_b 9.383438
_cell_length_c 14.881441
_cell_angle_alpha 90.000000
_cell_angle_beta 90.000000
_cell_angle_gamma 90.000000
_cell_volume 3067.448436
_symmetry_space_group_name_H-M "I 2 2 2"
_symmetry_group_IT_number 23
_symmetry_cell_setting 'orthorhombic'
loop_
_space_group_symop_operation_xyz
x,y,z
-x,-y,z
x,-y,-z
-x,y,-z
1/2+x,1/2+y,1/2+z
1/2-x,1/2-y,1/2+z
1/2+x,1/2-y,1/2-z
1/2-x,1/2+y,1/2-z
loop_
_atom_site_type_symbol
_atom_site_label
_atom_site_fract_x
_atom_site_fract_y
_atom_site_fract_z
Si Si1 0.145049 0.975377 0.224968
Si Si2 0.283964 0.006613 0.707185
Si Si3 0.066029 0.346351 0.044698
Si Si4 0.149839 0.715677 0.319856
Si Si5 0.171566 0.846077 0.037206
Si Si6 0.733568 0.638644 0.036160
Si Si7 0.929180 0.474551 0.599957
Si Si8 0.605592 0.794588 0.742415
O O1 0.216159 0.989563 0.252939
O O2 0.118270 0.863003 0.294645
O O3 0.143901 0.893204 0.131447
O O4 0.114528 0.127751 0.226725
O O5 0.279082 0.053311 0.603474
O O6 0.328310 0.129020 0.744475
O O7 0.311923 0.856268 0.738248
O O8 0.068974 0.354034 0.154336
O O9 0.081216 0.500000 0.000000
O O10 0.117521 0.231374 0.017726
O O11 0.000000 0.309374 0.000000
O O12 0.194777 0.755301 0.401541
O O13 0.101333 0.598172 0.342803
O O14 0.228472 0.737528 0.031788
O O15 0.192209 0.000000 0.000000
O O16 0.697083 0.500000 0.000000
O O17 0.902935 0.500000 0.500000
O O18 0.919923 0.332589 0.659059
O O19 0.000000 0.500000 0.593924
#
# Coordination Sequence:
#
# PCOD9330592 Si02
#       8
#     8   8   8   8   8   8   8   8
#     4  11  22  37  60  99 135 174 209 275 338 416
#     4  10  20  39  58  89 129 177 216 255 333 400
#     4  11  26  43  65  96 131 184 237 281 335 417
#     4  10  23  38  63  90 124 164 219 269 332 401
#     4  12  22  38  60  95 140 174 226 269 345 410
#     4  11  22  36  60  92 131 172 212 268 334 410
#     4  10  25  47  71  91 117 166 225 283 338 401
#     4  11  23  44  66  95 136 173 222 281 343 405
#
# _framework density 20.864246000000001
#
# number of rings (size 3 to 8) (size 9 to 14) (size 15 to 20)
#    0.000    1.250    2.500    3.375    5.250    5.750 
#    0.000    1.875    0.000    1.500    0.000    0.000 
#    0.000    0.000    0.000    0.000    0.000    0.000 
#
# Total GULP energy -178375.449089 kJ/mol
# GULP energy per Si atom -5574.232784 kJ/mol
# Density = 2.081676 g / cm^3
# Si number density = 20.864246 Si / 1000 Ang^3
#
#
#
# Elastic Constant Matrix: (Units=GPa)
#
#
# Indices 1 2 3 4 5 6 
#
# 1 26.8101 23.3009 12.9426 0.0000 0.0000 0.0000
# 2 23.3009 131.4837 30.3159 0.0000 0.0000 0.0000
# 3 12.9426 30.3159 98.9944 0.0000 0.0000 0.0000
# 4 0.0000 0.0000 0.0000 -6.4520 0.0000 0.0000
# 5 0.0000 0.0000 0.0000 0.0000 13.0288 0.0000
# 6 0.0000 0.0000 0.0000 0.0000 0.0000 13.8499
#
#
#
# Elastic Compliance Matrix: (Units=1/GPa)
#
#
# Indices 1 2 3 4 5 6 
#
# 1 0.045335 -0.007174 -0.003730 0.000000 0.000000 0.000000
# 2 -0.007174 0.009319 -0.001916 0.000000 0.000000 0.000000
# 3 -0.003730 -0.001916 0.011176 0.000000 0.000000 0.000000
# 4 0.000000 0.000000 0.000000 -0.154990 0.000000 0.000000
# 5 0.000000 0.000000 0.000000 0.000000 0.076753 0.000000
# 6 0.000000 0.000000 0.000000 0.000000 0.000000 0.072203
#
#
# Mechanical properties :
#
#
# Convention : Reuss Voigt Hill
#
# Bulk Modulus (GPa) = 24.88198 43.37854 34.13026
# Shear Modulus (GPa) = 50.59096 16.80059 33.69578
#
# Velocity S-wave (km/s) = 4.92954 2.84074 4.02307
# Velocity P-wave (km/s) = 6.65973 5.62101 6.16229
#
# Compressibility (1/GPa) = 0.04018972
#
# Stress axis : x y z
#
# Youngs Moduli (GPa) = 22.05794 107.31275 89.47782
#
# Poissons Ratio (x) = 0.76986 0.33377
# Poissons Ratio (y) = 0.15824 0.17142
# Poissons Ratio (z) = 0.08228 0.20559
#
# Static dielectric constant tensor:
#      x y z
#    x 1.745670 0.000000 0.000000 
#    y 0.000000 1.788490 0.000000 
#    z 0.000000 0.000000 1.966440 
# 
# From -- ./inp_files/22607.got.cif
#   From: 2010.05.17/outbox.cif.g08.bks.cpg/sg23_12_cif.got.tgz:22607.got - 2010.06.04 12:02:01.
