data_PCOD9330222
_publ_section_title
;
Structure prediction by ZEFSAII (Michael W. Deem and Ramdas Pophale) SiO2 
 PCOD9330222
Probable space group: I 2 2 2
;
_chemical_formula_sum "Si O2"
_cell_formula_units_Z 40
_cell_length_a 5.452949
_cell_length_b 14.928567
_cell_length_c 21.574008
_cell_angle_alpha 90.000000
_cell_angle_beta 90.000000
_cell_angle_gamma 90.000000
_cell_volume 1756.225962
_symmetry_space_group_name_H-M "I 2 2 2"
_symmetry_group_IT_number 23
_symmetry_cell_setting 'orthorhombic'
loop_
_space_group_symop_operation_xyz
x,y,z
-x,-y,z
x,-y,-z
-x,y,-z
1/2+x,1/2+y,1/2+z
1/2-x,1/2-y,1/2+z
1/2+x,1/2-y,1/2-z
1/2-x,1/2+y,1/2-z
loop_
_atom_site_type_symbol
_atom_site_label
_atom_site_fract_x
_atom_site_fract_y
_atom_site_fract_z
Si Si1 0.003585 0.895952 0.573624
Si Si2 0.750376 0.449652 0.258775
Si Si3 0.750218 0.450650 0.409226
Si Si4 0.740638 0.766617 0.127280
Si Si5 0.741335 0.786053 0.331383
O O1 0.786946 0.833770 0.600398
O O2 0.000000 0.889706 0.500000
O O3 0.231035 0.846489 0.606401
O O4 0.000000 0.000000 0.590887
O O5 0.500000 0.500000 0.240101
O O6 0.749767 0.448265 0.333646
O O7 0.749232 0.354723 0.224678
O O8 0.000000 0.500000 0.239523
O O9 0.500000 0.500000 0.428463
O O10 0.754036 0.344878 0.423882
O O11 0.000000 0.500000 0.428514
O O12 0.484876 0.774985 0.165243
O O13 0.992778 0.768829 0.164768
#
# Coordination Sequence:
#
# PCOD9330222 Si02
#       5
#     8   8   8   8   8
#     4   9  21  39  60  86 119 153 185 229 289 346
#     4  10  20  33  53  82 116 156 191 229 277 338
#     4  10  21  38  59  82 115 155 193 233 286 332
#     4  10  22  36  57  88 111 152 193 237 277 340
#     4  10  21  33  56  81 117 147 188 233 279 330
#
# _framework density 22.776112000000001
#
# number of rings (size 3 to 8) (size 9 to 14) (size 15 to 20)
#    1.200    1.000    0.000    3.000    2.800    2.400 
#    0.000    2.000    0.000    0.600    0.000    0.000 
#    0.000    0.000    0.000    0.000    0.000    0.000 
#
# Total GULP energy -111599.560920 kJ/mol
# GULP energy per Si atom -5579.978046 kJ/mol
# Density = 2.272427 g / cm^3
# Si number density = 22.776112 Si / 1000 Ang^3
#
#
#
# Elastic Constant Matrix: (Units=GPa)
#
#
# Indices 1 2 3 4 5 6 
#
# 1 210.2272 67.8533 18.9584 0.0000 0.0000 0.0000
# 2 67.8533 124.9920 11.6051 0.0000 0.0000 0.0000
# 3 18.9584 11.6051 76.6952 0.0000 0.0000 0.0000
# 4 0.0000 0.0000 0.0000 38.4489 0.0000 0.0000
# 5 0.0000 0.0000 0.0000 0.0000 27.3548 0.0000
# 6 0.0000 0.0000 0.0000 0.0000 0.0000 43.5089
#
#
#
# Elastic Compliance Matrix: (Units=1/GPa)
#
#
# Indices 1 2 3 4 5 6 
#
# 1 0.005839 -0.003079 -0.000977 0.000000 0.000000 0.000000
# 2 -0.003079 0.009738 -0.000712 0.000000 0.000000 0.000000
# 3 -0.000977 -0.000712 0.013388 0.000000 0.000000 0.000000
# 4 0.000000 0.000000 0.000000 0.026009 0.000000 0.000000
# 5 0.000000 0.000000 0.000000 0.000000 0.036557 0.000000
# 6 0.000000 0.000000 0.000000 0.000000 0.000000 0.022984
#
#
# Mechanical properties :
#
#
# Convention : Reuss Voigt Hill
#
# Bulk Modulus (GPa) = 51.47376 67.63867 59.55622
# Shear Modulus (GPa) = 38.30632 42.76236 40.53434
#
# Velocity S-wave (km/s) = 4.10550 4.33772 4.22321
# Velocity P-wave (km/s) = 6.71733 7.40604 7.07008
#
# Compressibility (1/GPa) = 0.01942737
#
# Stress axis : x y z
#
# Youngs Moduli (GPa) = 171.27322 102.69019 74.69360
#
# Poissons Ratio (x) = 0.31616 0.07300
# Poissons Ratio (y) = 0.52732 0.05322
# Poissons Ratio (z) = 0.16740 0.07316
#
# Static dielectric constant tensor:
#      x y z
#    x 2.084890 0.000000 0.000000 
#    y 0.000000 1.931220 0.000000 
#    z 0.000000 0.000000 1.859120 
# 
# From -- ./inp_files/29910.got.cif
#   From: 2010.05.17/outbox.cif.g08.bks.cpg/sg23_15_cif.got.tgz:29910.got - 2010.06.04 12:02:01.
