data_PCOD9330739
_publ_section_title
;
Structure prediction by ZEFSAII (Michael W. Deem and Ramdas Pophale) SiO2 
 PCOD9330739
Probable space group: I 2 2 2
;
_chemical_formula_sum "Si O2"
_cell_formula_units_Z 48
_cell_length_a 29.680806
_cell_length_b 7.947267
_cell_length_c 10.145266
_cell_angle_alpha 90.000000
_cell_angle_beta 90.000000
_cell_angle_gamma 90.000000
_cell_volume 2393.078432
_symmetry_space_group_name_H-M "I 2 2 2"
_symmetry_group_IT_number 23
_symmetry_cell_setting 'orthorhombic'
loop_
_space_group_symop_operation_xyz
x,y,z
-x,-y,z
x,-y,-z
-x,y,-z
1/2+x,1/2+y,1/2+z
1/2-x,1/2-y,1/2+z
1/2+x,1/2-y,1/2-z
1/2-x,1/2+y,1/2-z
loop_
_atom_site_type_symbol
_atom_site_label
_atom_site_fract_x
_atom_site_fract_y
_atom_site_fract_z
Si Si1 0.553262 0.302048 0.032219
Si Si2 0.339864 0.688844 0.442342
Si Si3 0.696636 0.118409 0.193311
Si Si4 0.500000 0.500000 0.500000
Si Si5 0.000000 0.500000 0.000000
Si Si6 0.617832 0.000000 0.000000
Si Si7 0.731965 0.135113 0.603732
Si Si8 0.560796 0.749629 0.656134
O O1 0.585516 0.160228 0.964901
O O2 0.561272 0.267203 0.187094
O O3 0.563739 0.500000 0.000000
O O4 0.500000 0.276712 0.000000
O O5 0.337173 0.500000 0.500000
O O6 0.314943 0.742630 0.306329
O O7 0.316154 0.803664 0.550970
O O8 0.390644 0.738294 0.409867
O O9 0.652038 0.059489 0.116033
O O10 0.733642 0.211416 0.105424
O O11 0.721260 0.960645 0.261340
O O12 0.532023 0.599168 0.596980
O O13 0.033343 0.405532 0.099442
O O14 0.750349 0.000000 0.500000
#
# Coordination Sequence:
#
# PCOD9330739 Si02
#       8
#     8   8   8   2   2   4   8   8
#     4  11  26  48  70 103 146 191 232 284 355 425
#     4  11  23  43  70  97 135 173 228 286 341 416
#     4  11  25  45  67 103 134 181 230 280 355 417
#     4  10  20  42  68  98 132 176 220 296 332 418
#     4  10  28  38  74  94 144 170 232 296 340 422
#     4  12  27  42  73 104 144 179 242 283 350 420
#     4  10  25  43  70  94 133 177 224 286 346 411
#     4  11  23  44  66 104 133 180 233 279 356 411
#
# _framework density 20.057846999999999
#
# number of rings (size 3 to 8) (size 9 to 14) (size 15 to 20)
#    0.000    1.167    2.500    2.250   11.667    2.000 
#    3.000    0.000    0.000    0.000    0.000    0.000 
#    0.000    0.000    0.000    0.000    0.000    0.000 
#
# Total GULP energy -133881.263497 kJ/mol
# GULP energy per Si atom -5578.385979 kJ/mol
# Density = 2.001219 g / cm^3
# Si number density = 20.057847 Si / 1000 Ang^3
#
#
#
# Elastic Constant Matrix: (Units=GPa)
#
#
# Indices 1 2 3 4 5 6 
#
# 1 135.3942 65.3551 36.4280 0.0000 0.0000 0.0000
# 2 65.3551 116.8449 56.0671 0.0000 0.0000 0.0000
# 3 36.4280 56.0671 84.0852 0.0000 0.0000 0.0000
# 4 0.0000 0.0000 0.0000 68.9883 0.0000 0.0000
# 5 0.0000 0.0000 0.0000 0.0000 80.3017 0.0000
# 6 0.0000 0.0000 0.0000 0.0000 0.0000 41.3356
#
#
#
# Elastic Compliance Matrix: (Units=1/GPa)
#
#
# Indices 1 2 3 4 5 6 
#
# 1 0.010164 -0.005253 -0.000901 0.000000 0.000000 0.000000
# 2 -0.005253 0.015300 -0.007926 0.000000 0.000000 0.000000
# 3 -0.000901 -0.007926 0.017568 0.000000 0.000000 0.000000
# 4 0.000000 0.000000 0.000000 0.014495 0.000000 0.000000
# 5 0.000000 0.000000 0.000000 0.000000 0.012453 0.000000
# 6 0.000000 0.000000 0.000000 0.000000 0.000000 0.024192
#
#
# Mechanical properties :
#
#
# Convention : Reuss Voigt Hill
#
# Bulk Modulus (GPa) = 67.23904 72.44718 69.84311
# Shear Modulus (GPa) = 39.28110 50.02342 44.65226
#
# Velocity S-wave (km/s) = 4.43017 4.99937 4.72335
# Velocity P-wave (km/s) = 7.73071 8.33801 8.04010
#
# Compressibility (1/GPa) = 0.01487231
#
# Stress axis : x y z
#
# Youngs Moduli (GPa) = 98.38991 65.36153 56.92206
#
# Poissons Ratio (x) = 0.34332 0.05127
# Poissons Ratio (y) = 0.51680 0.45116
# Poissons Ratio (z) = 0.08863 0.51805
#
# Static dielectric constant tensor:
#      x y z
#    x 1.673920 0.000000 0.000000 
#    y 0.000000 1.686220 0.000000 
#    z 0.000000 0.000000 1.702560 
# 
# From -- ./inp_files/13415.got.cif
#   From: 2010.05.17/outbox.cif.g08.bks.cpg/sg23_7_cif.got.tgz:13415.got - 2010.06.04 12:02:01.
