data_PCOD9330341
_publ_section_title
;
Structure prediction by ZEFSAII (Michael W. Deem and Ramdas Pophale) SiO2 
 PCOD9330341
Probable space group: I 2 2 2
;
_chemical_formula_sum "Si O2"
_cell_formula_units_Z 58
_cell_length_a 16.275373
_cell_length_b 11.520901
_cell_length_c 15.677664
_cell_angle_alpha 90.000000
_cell_angle_beta 90.000000
_cell_angle_gamma 90.000000
_cell_volume 2939.671133
_symmetry_space_group_name_H-M "I 2 2 2"
_symmetry_group_IT_number 23
_symmetry_cell_setting 'orthorhombic'
loop_
_space_group_symop_operation_xyz
x,y,z
-x,-y,z
x,-y,-z
-x,y,-z
1/2+x,1/2+y,1/2+z
1/2-x,1/2-y,1/2+z
1/2+x,1/2-y,1/2-z
1/2-x,1/2+y,1/2-z
loop_
_atom_site_type_symbol
_atom_site_label
_atom_site_fract_x
_atom_site_fract_y
_atom_site_fract_z
Si Si1 0.645954 0.560818 0.674655
Si Si2 0.205515 0.407930 0.927395
Si Si3 0.358848 0.464690 0.135707
Si Si4 0.665540 0.680916 0.382099
Si Si5 0.513694 0.731731 0.598473
Si Si6 0.000000 0.000000 0.500000
Si Si7 0.916358 0.450023 0.818593
Si Si8 0.265133 0.787332 0.286834
O O1 0.621652 0.505925 0.767085
O O2 0.669496 0.456809 0.611075
O O3 0.573722 0.636911 0.636620
O O4 0.717033 0.655789 0.687210
O O5 0.299088 0.434393 0.901123
O O6 0.189231 0.275059 0.953737
O O7 0.141115 0.447372 0.854295
O O8 0.186793 0.500000 0.000000
O O9 0.296843 0.355592 0.149759
O O10 0.434389 0.445086 0.069842
O O11 0.572869 0.710877 0.356954
O O12 0.724466 0.713453 0.305054
O O13 0.500000 0.707766 0.500000
O O14 0.545595 0.862555 0.610651
O O15 0.849420 0.362498 0.776991
O O16 0.000000 0.500000 0.775219
#
# Coordination Sequence:
#
# PCOD9330341 Si02
#       8
#     8   8   8   8   8   2   8   8
#     4  10  22  40  58  88 128 170 214 260 319 394
#     4  11  20  36  57  89 120 157 210 261 313 374
#     4  10  22  39  63  92 127 161 216 268 325 380
#     4  11  21  35  61  83 124 171 203 262 320 378
#     4  11  23  37  56  89 126 166 211 257 323 387
#     4  12  24  40  68 104 126 168 216 284 338 388
#     4  10  20  35  58  87 126 164 207 263 317 384
#     4   9  21  39  59  91 128 167 219 263 319 387
#
# _framework density 19.730097000000001
#
# number of rings (size 3 to 8) (size 9 to 14) (size 15 to 20)
#    0.000    1.655    3.448    1.241    3.862    1.103 
#    0.000    0.000    0.000    0.000    0.000    0.966 
#    0.000    0.000    0.000    0.000    0.000    0.000 
#
# Total GULP energy -161484.444747 kJ/mol
# GULP energy per Si atom -5568.429129 kJ/mol
# Density = 1.968519 g / cm^3
# Si number density = 19.730097 Si / 1000 Ang^3
#
#
#
# Elastic Constant Matrix: (Units=GPa)
#
#
# Indices 1 2 3 4 5 6 
#
# 1 106.8966 28.4102 26.2699 0.0000 0.0000 0.0000
# 2 28.4102 134.5626 21.8544 0.0000 0.0000 0.0000
# 3 26.2699 21.8544 47.3656 0.0000 0.0000 0.0000
# 4 0.0000 0.0000 0.0000 21.0060 0.0000 0.0000
# 5 0.0000 0.0000 0.0000 0.0000 24.5312 0.0000
# 6 0.0000 0.0000 0.0000 0.0000 0.0000 19.1607
#
#
#
# Elastic Compliance Matrix: (Units=1/GPa)
#
#
# Indices 1 2 3 4 5 6 
#
# 1 0.011087 -0.001451 -0.005480 0.000000 0.000000 0.000000
# 2 -0.001451 0.008223 -0.002990 0.000000 0.000000 0.000000
# 3 -0.005480 -0.002990 0.025531 0.000000 0.000000 0.000000
# 4 0.000000 0.000000 0.000000 0.047606 0.000000 0.000000
# 5 0.000000 0.000000 0.000000 0.000000 0.040764 0.000000
# 6 0.000000 0.000000 0.000000 0.000000 0.000000 0.052190
#
#
# Mechanical properties :
#
#
# Convention : Reuss Voigt Hill
#
# Bulk Modulus (GPa) = 39.99825 49.09931 44.54878
# Shear Modulus (GPa) = 23.41094 27.09225 25.25160
#
# Velocity S-wave (km/s) = 3.44838 3.70962 3.58138
# Velocity P-wave (km/s) = 6.01430 6.57935 6.30316
#
# Compressibility (1/GPa) = 0.02500110
#
# Stress axis : x y z
#
# Youngs Moduli (GPa) = 90.19521 121.60501 39.16826
#
# Poissons Ratio (x) = 0.17643 0.21463
# Poissons Ratio (y) = 0.13086 0.11710
# Poissons Ratio (z) = 0.49424 0.36355
#
# Static dielectric constant tensor:
#      x y z
#    x 1.749850 0.000000 0.000000 
#    y 0.000000 1.749620 0.000000 
#    z 0.000000 0.000000 1.747220 
# 
# From -- ./inp_files/24832.got.cif
#   From: 2010.05.17/outbox.cif.g08.bks.cpg/sg23_13_cif.got.tgz:24832.got - 2010.06.04 12:02:01.
