data_PCOD9330421
_publ_section_title
;
Structure prediction by ZEFSAII (Michael W. Deem and Ramdas Pophale) SiO2 
 PCOD9330421
Probable space group: I 2 2 2
;
_chemical_formula_sum "Si O2"
_cell_formula_units_Z 34
_cell_length_a 17.405944
_cell_length_b 6.424511
_cell_length_c 15.309665
_cell_angle_alpha 90.000000
_cell_angle_beta 90.000000
_cell_angle_gamma 90.000000
_cell_volume 1711.998370
_symmetry_space_group_name_H-M "I 2 2 2"
_symmetry_group_IT_number 23
_symmetry_cell_setting 'orthorhombic'
loop_
_space_group_symop_operation_xyz
x,y,z
-x,-y,z
x,-y,-z
-x,y,-z
1/2+x,1/2+y,1/2+z
1/2-x,1/2-y,1/2+z
1/2+x,1/2-y,1/2-z
1/2-x,1/2+y,1/2-z
loop_
_atom_site_type_symbol
_atom_site_label
_atom_site_fract_x
_atom_site_fract_y
_atom_site_fract_z
Si Si1 0.141673 0.885649 0.407578
Si Si2 0.292099 0.880300 0.588784
Si Si3 0.000000 0.000000 0.285649
Si Si4 0.048797 0.696764 0.141434
Si Si5 0.296331 0.000000 0.000000
Si Si6 0.000000 0.000000 0.000000
O O1 0.153401 0.644026 0.434186
O O2 0.128192 0.000000 0.500000
O O3 0.222974 0.977723 0.374947
O O4 0.074026 0.957549 0.344833
O O5 0.362256 0.857549 0.655349
O O6 0.255217 0.662971 0.555402
O O7 0.319370 0.000000 0.500000
O O8 0.997195 0.197569 0.220760
O O9 0.000000 0.500000 0.113298
O O10 0.050939 0.859641 0.062524
#
# Coordination Sequence:
#
# PCOD9330421 Si02
#       6
#     8   8   4   8   4   2
#     4   9  20  40  64  88 120 159 213 261 303 373
#     4   9  18  36  61  90 114 154 211 248 299 372
#     4  11  25  41  53  96 132 158 209 257 321 383
#     4  11  23  38  59  89 129 166 200 258 311 375
#     4   8  17  36  69  88 108 158 204 259 306 357
#     4  10  20  36  62  84 118 164 210 250 292 368
#
# _framework density 19.859831
#
# number of rings (size 3 to 8) (size 9 to 14) (size 15 to 20)
#    0.000    2.824    0.000    2.824    0.000    9.412 
#    8.471    4.706    0.000    0.000    0.000    0.000 
#    0.000    0.000    0.000    0.000    0.000    0.000 
#
# Total GULP energy -94731.053331 kJ/mol
# GULP energy per Si atom -5572.414902 kJ/mol
# Density = 1.981463 g / cm^3
# Si number density = 19.859831 Si / 1000 Ang^3
#
#
#
# Elastic Constant Matrix: (Units=GPa)
#
#
# Indices 1 2 3 4 5 6 
#
# 1 127.3254 57.1639 44.4835 0.0000 0.0000 0.0000
# 2 57.1639 123.4258 34.9216 0.0000 0.0000 0.0000
# 3 44.4835 34.9216 48.5916 0.0000 0.0000 0.0000
# 4 0.0000 0.0000 0.0000 9.1393 0.0000 0.0000
# 5 0.0000 0.0000 0.0000 0.0000 120.5174 0.0000
# 6 0.0000 0.0000 0.0000 0.0000 0.0000 20.6077
#
#
#
# Elastic Compliance Matrix: (Units=1/GPa)
#
#
# Indices 1 2 3 4 5 6 
#
# 1 0.012477 -0.003197 -0.009125 0.000000 0.000000 0.000000
# 2 -0.003197 0.010989 -0.004971 0.000000 0.000000 0.000000
# 3 -0.009125 -0.004971 0.032505 0.000000 0.000000 0.000000
# 4 0.000000 0.000000 0.000000 0.109418 0.000000 0.000000
# 5 0.000000 0.000000 0.000000 0.000000 0.008298 0.000000
# 6 0.000000 0.000000 0.000000 0.000000 0.000000 0.048526
#
#
# Mechanical properties :
#
#
# Convention : Reuss Voigt Hill
#
# Bulk Modulus (GPa) = 46.75844 63.60899 55.18371
# Shear Modulus (GPa) = 18.94466 40.90446 29.92456
#
# Velocity S-wave (km/s) = 3.09191 4.54327 3.88595
# Velocity P-wave (km/s) = 6.02842 7.72141 6.92684
#
# Compressibility (1/GPa) = 0.02138651
#
# Stress axis : x y z
#
# Youngs Moduli (GPa) = 80.14705 90.99876 30.76415
#
# Poissons Ratio (x) = 0.29092 0.28071
# Poissons Ratio (y) = 0.25623 0.15293
# Poissons Ratio (z) = 0.73131 0.45235
#
# Static dielectric constant tensor:
#      x y z
#    x 1.758380 0.000000 0.000000 
#    y 0.000000 1.716340 0.000000 
#    z 0.000000 0.000000 1.708250 
# 
# From -- ./inp_files/21871.got.cif
#   From: 2010.05.17/outbox.cif.g08.bks.cpg/sg23_11_cif.got.tgz:21871.got - 2010.06.04 12:02:01.
