data_PCOD9330571
_publ_section_title
;
Structure prediction by ZEFSAII (Michael W. Deem and Ramdas Pophale) SiO2 
 PCOD9330571
Probable space group: I 2 2 2
;
_chemical_formula_sum "Si O2"
_cell_formula_units_Z 58
_cell_length_a 13.730211
_cell_length_b 9.226458
_cell_length_c 21.857659
_cell_angle_alpha 90.000000
_cell_angle_beta 90.000000
_cell_angle_gamma 90.000000
_cell_volume 2768.954802
_symmetry_space_group_name_H-M "I 2 2 2"
_symmetry_group_IT_number 23
_symmetry_cell_setting 'orthorhombic'
loop_
_space_group_symop_operation_xyz
x,y,z
-x,-y,z
x,-y,-z
-x,y,-z
1/2+x,1/2+y,1/2+z
1/2-x,1/2-y,1/2+z
1/2+x,1/2-y,1/2-z
1/2-x,1/2+y,1/2-z
loop_
_atom_site_type_symbol
_atom_site_label
_atom_site_fract_x
_atom_site_fract_y
_atom_site_fract_z
Si Si1 0.000000 0.000000 0.500000
Si Si2 0.380705 0.255131 0.060110
Si Si3 0.458145 0.855551 0.151237
Si Si4 0.449603 0.361553 0.240086
Si Si5 0.903611 0.654272 0.965529
Si Si6 0.590595 0.905624 0.323873
Si Si7 0.797638 0.267128 0.568373
Si Si8 0.709670 0.537084 0.141438
O O1 0.063220 0.098502 0.543209
O O2 0.460022 0.169119 0.098531
O O3 0.290067 0.317053 0.099457
O O4 0.354637 0.195954 0.993836
O O5 0.471335 0.725640 0.199089
O O6 0.350814 0.860545 0.121180
O O7 0.500000 0.000000 0.180259
O O8 0.500000 0.500000 0.271235
O O9 0.403620 0.243703 0.285852
O O10 0.372240 0.425264 0.191390
O O11 0.929127 0.624613 0.895295
O O12 0.812750 0.762496 0.956497
O O13 0.876542 0.500000 0.000000
O O14 0.000000 0.708020 0.000000
O O15 0.690640 0.996556 0.324194
O O16 0.500000 0.000000 0.303337
O O17 0.808607 0.104325 0.597781
#
# Coordination Sequence:
#
# PCOD9330571 Si02
#       8
#     2   8   8   8   8   8   8   8
#     4  12  16  28  54 100 122 168 214 252 334 420
#     4  11  19  29  59  94 131 168 217 267 338 413
#     4  11  23  39  59  97 143 179 219 276 345 416
#     4  11  24  44  67  93 134 181 222 278 344 426
#     4  10  20  38  67 102 130 166 231 290 324 394
#     4  11  23  41  68  99 129 174 230 289 338 388
#     4  11  18  33  62  92 132 171 213 280 338 398
#     4  10  21  38  62  94 128 170 227 276 332 407
#
# _framework density 20.946532999999999
#
# number of rings (size 3 to 8) (size 9 to 14) (size 15 to 20)
#    0.000    1.241    5.517    2.069    1.931    2.207 
#    4.966    0.000    0.000    3.724    0.000    0.000 
#    0.000    0.000    0.000    0.000    0.000    0.000 
#
# Total GULP energy -161508.521284 kJ/mol
# GULP energy per Si atom -5569.259355 kJ/mol
# Density = 2.089886 g / cm^3
# Si number density = 20.946533 Si / 1000 Ang^3
#
#
#
# Elastic Constant Matrix: (Units=GPa)
#
#
# Indices 1 2 3 4 5 6 
#
# 1 78.3370 29.6216 19.0342 0.0000 0.0000 0.0000
# 2 29.6216 60.2539 20.7383 0.0000 0.0000 0.0000
# 3 19.0342 20.7383 98.0604 0.0000 0.0000 0.0000
# 4 0.0000 0.0000 0.0000 20.0346 0.0000 0.0000
# 5 0.0000 0.0000 0.0000 0.0000 2.3046 0.0000
# 6 0.0000 0.0000 0.0000 0.0000 0.0000 32.4142
#
#
#
# Elastic Compliance Matrix: (Units=1/GPa)
#
#
# Indices 1 2 3 4 5 6 
#
# 1 0.015894 -0.007282 -0.001545 0.000000 0.000000 0.000000
# 2 -0.007282 0.021236 -0.003078 0.000000 0.000000 0.000000
# 3 -0.001545 -0.003078 0.011149 0.000000 0.000000 0.000000
# 4 0.000000 0.000000 0.000000 0.049914 0.000000 0.000000
# 5 0.000000 0.000000 0.000000 0.000000 0.433910 0.000000
# 6 0.000000 0.000000 0.000000 0.000000 0.000000 0.030851
#
#
# Mechanical properties :
#
#
# Convention : Reuss Voigt Hill
#
# Bulk Modulus (GPa) = 40.86790 41.71550 41.29170
# Shear Modulus (GPa) = 8.40451 22.10117 15.25284
#
# Velocity S-wave (km/s) = 2.00526 3.25179 2.70141
# Velocity P-wave (km/s) = 4.99143 5.83586 5.43009
#
# Compressibility (1/GPa) = 0.02446908
#
# Stress axis : x y z
#
# Youngs Moduli (GPa) = 62.91531 47.09066 89.69764
#
# Poissons Ratio (x) = 0.34292 0.13860
# Poissons Ratio (y) = 0.45815 0.27605
# Poissons Ratio (z) = 0.09721 0.14492
#
# Static dielectric constant tensor:
#      x y z
#    x 1.821660 0.000000 0.000000 
#    y 0.000000 1.783470 0.000000 
#    z 0.000000 0.000000 1.710310 
# 
# From -- ./inp_files/28523.got.cif
#   From: 2010.05.17/outbox.cif.g08.bks.cpg/sg23_15_cif.got.tgz:28523.got - 2010.06.04 12:02:01.
