data_PCOD9330093
_publ_section_title
;
Structure prediction by ZEFSAII (Michael W. Deem and Ramdas Pophale) SiO2 
 PCOD9330093
Probable space group: I 2 2 2
;
_chemical_formula_sum "Si O2"
_cell_formula_units_Z 46
_cell_length_a 18.455723
_cell_length_b 10.684844
_cell_length_c 10.667712
_cell_angle_alpha 90.000000
_cell_angle_beta 90.000000
_cell_angle_gamma 90.000000
_cell_volume 2103.635695
_symmetry_space_group_name_H-M "I 2 2 2"
_symmetry_group_IT_number 23
_symmetry_cell_setting 'orthorhombic'
loop_
_space_group_symop_operation_xyz
x,y,z
-x,-y,z
x,-y,-z
-x,y,-z
1/2+x,1/2+y,1/2+z
1/2-x,1/2-y,1/2+z
1/2+x,1/2-y,1/2-z
1/2-x,1/2+y,1/2-z
loop_
_atom_site_type_symbol
_atom_site_label
_atom_site_fract_x
_atom_site_fract_y
_atom_site_fract_z
Si Si1 0.619625 0.963302 0.129147
Si Si2 0.542097 0.369533 0.884141
Si Si3 0.000000 0.000000 0.000000
Si Si4 0.544281 0.726684 0.665833
Si Si5 0.306351 0.210412 0.795114
Si Si6 0.500000 0.000000 0.332341
Si Si7 0.804104 0.795778 0.566330
O O1 0.677717 0.071077 0.156312
O O2 0.565928 0.959822 0.244068
O O3 0.658458 0.834952 0.101769
O O4 0.580939 0.000000 0.000000
O O5 0.500000 0.500000 0.871151
O O6 0.523946 0.299600 0.756335
O O7 0.626650 0.385905 0.912494
O O8 0.500000 0.303442 0.000000
O O9 0.953179 0.897262 0.078366
O O10 0.616842 0.733233 0.749255
O O11 0.532103 0.868090 0.611996
O O12 0.257257 0.193698 0.671694
O O13 0.280570 0.287369 0.919534
#
# Coordination Sequence:
#
# PCOD9330093 Si02
#       7
#     8   8   2   8   8   4   8
#     4   9  19  36  64  99 131 173 225 296 353 416
#     4  11  22  40  71 103 134 181 248 303 356 428
#     4  12  28  46  70 100 152 186 238 318 384 446
#     4  11  23  44  68 105 135 188 237 302 375 437
#     4  10  24  42  66 103 143 192 242 294 374 442
#     4  10  19  37  72  96 128 168 246 286 348 432
#     4  11  22  43  68 100 146 190 243 305 365 435
#
# _framework density 21.866903000000001
#
# number of rings (size 3 to 8) (size 9 to 14) (size 15 to 20)
#    0.000    1.565    4.348    0.261    0.000    3.130 
#    4.696    0.000    0.000    0.000    0.000    0.000 
#    0.000    0.000    0.000    0.000    0.000    0.000 
#
# Total GULP energy -128083.644463 kJ/mol
# GULP energy per Si atom -5568.854107 kJ/mol
# Density = 2.181713 g / cm^3
# Si number density = 21.866903 Si / 1000 Ang^3
#
#
#
# Elastic Constant Matrix: (Units=GPa)
#
#
# Indices 1 2 3 4 5 6 
#
# 1 66.8103 10.7117 42.1725 0.0000 0.0000 0.0000
# 2 10.7117 145.3123 29.2352 0.0000 0.0000 0.0000
# 3 42.1725 29.2352 120.7256 0.0000 0.0000 0.0000
# 4 0.0000 0.0000 0.0000 18.6784 0.0000 0.0000
# 5 0.0000 0.0000 0.0000 0.0000 72.5602 0.0000
# 6 0.0000 0.0000 0.0000 0.0000 0.0000 -77.3208
#
#
#
# Elastic Compliance Matrix: (Units=1/GPa)
#
#
# Indices 1 2 3 4 5 6 
#
# 1 0.019202 -0.000069 -0.006691 0.000000 0.000000 0.000000
# 2 -0.000069 0.007234 -0.001728 0.000000 0.000000 0.000000
# 3 -0.006691 -0.001728 0.011039 0.000000 0.000000 0.000000
# 4 0.000000 0.000000 0.000000 0.053538 0.000000 0.000000
# 5 0.000000 0.000000 0.000000 0.000000 0.013782 0.000000
# 6 0.000000 0.000000 0.000000 0.000000 0.000000 -0.012933
#
#
# Mechanical properties :
#
#
# Convention : Reuss Voigt Hill
#
# Bulk Modulus (GPa) = 48.78137 55.23191 52.00664
# Shear Modulus (GPa) = 43.22572 19.49879 31.36225
#
# Velocity S-wave (km/s) = 4.45091 2.98938 3.79124
# Velocity P-wave (km/s) = 6.98361 6.10149 6.55740
#
# Compressibility (1/GPa) = 0.02049963
#
# Stress axis : x y z
#
# Youngs Moduli (GPa) = 52.07660 138.22785 90.58778
#
# Poissons Ratio (x) = 0.00958 0.60613
# Poissons Ratio (y) = 0.00361 0.15651
# Poissons Ratio (z) = 0.34845 0.23882
#
# Static dielectric constant tensor:
#      x y z
#    x 1.683860 0.000000 0.000000 
#    y 0.000000 1.882870 0.000000 
#    z 0.000000 0.000000 1.953090 
# 
# From -- ./inp_files/17433.got.cif
#   From: 2010.05.17/outbox.cif.g08.bks.cpg/sg23_9_cif.got.tgz:17433.got - 2010.06.04 12:02:01.
