data_PCOD9330002
_publ_section_title
;
Structure prediction by ZEFSAII (Michael W. Deem and Ramdas Pophale) SiO2 
 PCOD9330002
Probable space group: I 2 2 2
;
_chemical_formula_sum "Si O2"
_cell_formula_units_Z 48
_cell_length_a 5.343402
_cell_length_b 13.821812
_cell_length_c 28.978484
_cell_angle_alpha 90.000000
_cell_angle_beta 90.000000
_cell_angle_gamma 90.000000
_cell_volume 2140.220364
_symmetry_space_group_name_H-M "I 2 2 2"
_symmetry_group_IT_number 23
_symmetry_cell_setting 'orthorhombic'
loop_
_space_group_symop_operation_xyz
x,y,z
-x,-y,z
x,-y,-z
-x,y,-z
1/2+x,1/2+y,1/2+z
1/2-x,1/2-y,1/2+z
1/2+x,1/2-y,1/2-z
1/2-x,1/2+y,1/2-z
loop_
_atom_site_type_symbol
_atom_site_label
_atom_site_fract_x
_atom_site_fract_y
_atom_site_fract_z
Si Si1 0.500000 0.500000 0.380174
Si Si2 0.500000 0.793562 0.500000
Si Si3 0.284664 0.306489 0.586336
Si Si4 0.594220 0.818330 0.348510
Si Si5 0.886848 0.311624 0.249937
Si Si6 0.599311 0.875542 0.843098
Si Si7 0.253360 0.436951 0.930777
O O1 0.454413 0.597348 0.408644
O O2 0.260589 0.471933 0.349690
O O3 0.669240 0.732514 0.535425
O O4 0.689581 0.859329 0.470246
O O5 0.361803 0.216843 0.620068
O O6 0.031573 0.346749 0.608486
O O7 0.556792 0.865493 0.298570
O O8 0.712838 0.714687 0.336495
O O9 0.766762 0.881358 0.381998
O O10 0.602534 0.272001 0.250034
O O11 0.931393 0.368876 0.297348
O O12 0.500000 0.500000 0.939307
O O13 0.000000 0.500000 0.928502
#
# Coordination Sequence:
#
# PCOD9330002 Si02
#       7
#     4   4   8   8   8   8   8
#     4  10  22  39  62 104 138 182 228 294 361 398
#     4  10  25  45  70 102 132 184 246 275 367 442
#     4  10  20  42  65  97 135 183 229 294 340 429
#     4   9  21  39  65  96 133 185 236 274 347 414
#     4  10  19  35  66 100 132 186 242 280 330 411
#     4  10  20  38  69  95 141 185 231 289 345 421
#     4  11  26  46  69 100 139 177 220 295 354 414
#
# _framework density 22.427598
#
# number of rings (size 3 to 8) (size 9 to 14) (size 15 to 20)
#    0.000    2.000    1.667    0.750    4.667    1.667 
#    6.000    1.667    3.667    6.000    0.000    0.000 
#    0.000    0.000    0.000    0.000    0.000    0.000 
#
# Total GULP energy -133884.408847 kJ/mol
# GULP energy per Si atom -5578.517035 kJ/mol
# Density = 2.237655 g / cm^3
# Si number density = 22.427598 Si / 1000 Ang^3
#
#
#
# Elastic Constant Matrix: (Units=GPa)
#
#
# Indices 1 2 3 4 5 6 
#
# 1 94.9338 30.6235 36.2555 0.0000 0.0000 0.0000
# 2 30.6235 96.1440 62.5860 0.0000 0.0000 0.0000
# 3 36.2555 62.5860 169.1313 0.0000 0.0000 0.0000
# 4 0.0000 0.0000 0.0000 27.0710 0.0000 0.0000
# 5 0.0000 0.0000 0.0000 0.0000 16.5048 0.0000
# 6 0.0000 0.0000 0.0000 0.0000 0.0000 36.3341
#
#
#
# Elastic Compliance Matrix: (Units=1/GPa)
#
#
# Indices 1 2 3 4 5 6 
#
# 1 0.012033 -0.002837 -0.001530 0.000000 0.000000 0.000000
# 2 -0.002837 0.014370 -0.004710 0.000000 0.000000 0.000000
# 3 -0.001530 -0.004710 0.007983 0.000000 0.000000 0.000000
# 4 0.000000 0.000000 0.000000 0.036940 0.000000 0.000000
# 5 0.000000 0.000000 0.000000 0.000000 0.060589 0.000000
# 6 0.000000 0.000000 0.000000 0.000000 0.000000 0.027522
#
#
# Mechanical properties :
#
#
# Convention : Reuss Voigt Hill
#
# Bulk Modulus (GPa) = 61.59797 68.79324 65.19560
# Shear Modulus (GPa) = 27.32225 31.36493 29.34359
#
# Velocity S-wave (km/s) = 3.49412 3.74371 3.62106
# Velocity P-wave (km/s) = 6.61841 7.03045 6.82754
#
# Compressibility (1/GPa) = 0.01623430
#
# Stress axis : x y z
#
# Youngs Moduli (GPa) = 83.10505 69.58740 125.26311
#
# Poissons Ratio (x) = 0.19742 0.19160
# Poissons Ratio (y) = 0.23577 0.58993
# Poissons Ratio (z) = 0.12712 0.32772
#
# Static dielectric constant tensor:
#      x y z
#    x 1.920640 0.000000 0.000000 
#    y 0.000000 1.857470 0.000000 
#    z 0.000000 0.000000 1.876670 
# 
# From -- ./inp_files/28961.got.cif
#   From: 2010.05.17/outbox.cif.g08.bks.cpg/sg23_15_cif.got.tgz:28961.got - 2010.06.04 12:02:01.
