data_PCOD9330881
_publ_section_title
;
Structure prediction by ZEFSAII (Michael W. Deem and Ramdas Pophale) SiO2 
 PCOD9330881
Probable space group: I 2 2 2
;
_chemical_formula_sum "Si O2"
_cell_formula_units_Z 60
_cell_length_a 5.681362
_cell_length_b 20.728918
_cell_length_c 19.599314
_cell_angle_alpha 90.000000
_cell_angle_beta 90.000000
_cell_angle_gamma 90.000000
_cell_volume 2308.181557
_symmetry_space_group_name_H-M "I 2 2 2"
_symmetry_group_IT_number 23
_symmetry_cell_setting 'orthorhombic'
loop_
_space_group_symop_operation_xyz
x,y,z
-x,-y,z
x,-y,-z
-x,y,-z
1/2+x,1/2+y,1/2+z
1/2-x,1/2-y,1/2+z
1/2+x,1/2-y,1/2-z
1/2-x,1/2+y,1/2-z
loop_
_atom_site_type_symbol
_atom_site_label
_atom_site_fract_x
_atom_site_fract_y
_atom_site_fract_z
Si Si1 0.217682 0.756347 0.355057
Si Si2 0.872307 0.067596 0.234031
Si Si3 0.237375 0.338488 0.755524
Si Si4 0.500000 0.857152 0.000000
Si Si5 0.284329 0.259459 0.425242
Si Si6 0.013246 0.423658 0.360600
Si Si7 0.220435 0.090918 0.619418
Si Si8 0.294919 0.881805 0.589225
O O1 0.226945 0.731918 0.276833
O O2 0.463384 0.730999 0.388691
O O3 0.213856 0.831392 0.372195
O O4 0.957876 0.733241 0.380395
O O5 0.782158 0.086997 0.159247
O O6 0.739303 0.057116 0.306714
O O7 0.007208 0.131702 0.253905
O O8 0.000000 0.000000 0.224690
O O9 0.108972 0.385445 0.701188
O O10 0.169417 0.351803 0.833283
O O11 0.279023 0.811283 0.017212
O O12 0.554369 0.900722 0.065480
O O13 0.275294 0.185257 0.452547
O O14 0.000000 0.500000 0.350669
O O15 0.461235 0.080505 0.577230
O O16 0.952890 0.079217 0.591142
#
# Coordination Sequence:
#
# PCOD9330881 Si02
#       8
#     8   8   8   4   8   8   8   8
#     4  10  21  37  58  85 114 140 203 265 330 399
#     4  11  22  38  58  85 120 162 214 273 334 399
#     4  11  21  35  60  81 110 152 199 278 332 396
#     4  12  25  42  62  78 122 174 231 282 322 386
#     4  10  22  39  56  85 113 152 199 263 323 388
#     4  12  24  42  57  79 114 167 233 281 326 372
#     4   9  19  34  56  88 114 148 184 258 334 399
#     4   9  19  33  57  85 115 140 190 256 332 396
#
# _framework density 25.994486999999999
#
# number of rings (size 3 to 8) (size 9 to 14) (size 15 to 20)
#    0.000    1.600    4.000    1.000    0.000    8.000 
#    2.400    0.000    0.000    0.000    0.000    0.000 
#    0.000    0.000    0.000   48.600    0.000  356.000 
#
# Total GULP energy -167331.324415 kJ/mol
# GULP energy per Si atom -5577.710814 kJ/mol
# Density = 2.593532 g / cm^3
# Si number density = 25.994487 Si / 1000 Ang^3
#
#
#
# Elastic Constant Matrix: (Units=GPa)
#
#
# Indices 1 2 3 4 5 6 
#
# 1 174.0953 19.1158 33.6921 0.0000 0.0000 0.0000
# 2 19.1158 65.9628 20.2778 0.0000 0.0000 0.0000
# 3 33.6921 20.2778 103.2861 0.0000 0.0000 0.0000
# 4 0.0000 0.0000 0.0000 23.7555 0.0000 0.0000
# 5 0.0000 0.0000 0.0000 0.0000 35.6786 0.0000
# 6 0.0000 0.0000 0.0000 0.0000 0.0000 23.3413
#
#
#
# Elastic Compliance Matrix: (Units=1/GPa)
#
#
# Indices 1 2 3 4 5 6 
#
# 1 0.006227 -0.001256 -0.001785 0.000000 0.000000 0.000000
# 2 -0.001256 0.016387 -0.002808 0.000000 0.000000 0.000000
# 3 -0.001785 -0.002808 0.010815 0.000000 0.000000 0.000000
# 4 0.000000 0.000000 0.000000 0.042095 0.000000 0.000000
# 5 0.000000 0.000000 0.000000 0.000000 0.028028 0.000000
# 6 0.000000 0.000000 0.000000 0.000000 0.000000 0.042843
#
#
# Mechanical properties :
#
#
# Convention : Reuss Voigt Hill
#
# Bulk Modulus (GPa) = 46.01282 54.39062 50.20172
# Shear Modulus (GPa) = 30.24136 34.57233 32.40684
#
# Velocity S-wave (km/s) = 3.41453 3.65085 3.53467
# Velocity P-wave (km/s) = 5.76930 6.22423 6.00107
#
# Compressibility (1/GPa) = 0.02173307
#
# Stress axis : x y z
#
# Youngs Moduli (GPa) = 160.58352 61.02361 92.46222
#
# Poissons Ratio (x) = 0.07664 0.16502
# Poissons Ratio (y) = 0.20169 0.25959
# Poissons Ratio (z) = 0.28660 0.17132
#
# Static dielectric constant tensor:
#      x y z
#    x 2.331650 0.000000 0.000000 
#    y 0.000000 2.069380 0.000000 
#    z 0.000000 0.000000 2.123850 
# 
# From -- ./inp_files/25813.got.cif
#   From: 2010.05.17/outbox.cif.g08.bks.cpg/sg23_13_cif.got.tgz:25813.got - 2010.06.04 12:02:01.
