data_PCOD9330344
_publ_section_title
;
Structure prediction by ZEFSAII (Michael W. Deem and Ramdas Pophale) SiO2 
 PCOD9330344
Probable space group: I 2 2 2
;
_chemical_formula_sum "Si O2"
_cell_formula_units_Z 46
_cell_length_a 23.282077
_cell_length_b 16.176000
_cell_length_c 5.725473
_cell_angle_alpha 90.000000
_cell_angle_beta 90.000000
_cell_angle_gamma 90.000000
_cell_volume 2156.275411
_symmetry_space_group_name_H-M "I 2 2 2"
_symmetry_group_IT_number 23
_symmetry_cell_setting 'orthorhombic'
loop_
_space_group_symop_operation_xyz
x,y,z
-x,-y,z
x,-y,-z
-x,y,-z
1/2+x,1/2+y,1/2+z
1/2-x,1/2-y,1/2+z
1/2+x,1/2-y,1/2-z
1/2-x,1/2+y,1/2-z
loop_
_atom_site_type_symbol
_atom_site_label
_atom_site_fract_x
_atom_site_fract_y
_atom_site_fract_z
Si Si1 0.000000 0.500000 0.500000
Si Si2 0.169248 0.421137 0.655079
Si Si3 0.521789 0.403893 0.750642
Si Si4 0.941389 0.408820 0.113795
Si Si5 0.345535 0.582657 0.656392
Si Si6 0.246334 0.204341 0.984124
Si Si7 0.238458 0.000000 0.500000
O O1 0.961696 0.435664 0.365145
O O2 0.149255 0.500000 0.500000
O O3 0.122592 0.378215 0.829608
O O4 0.198879 0.356970 0.481617
O O5 0.220554 0.455805 0.815149
O O6 0.500000 0.500000 0.750767
O O7 0.500000 0.368838 0.500000
O O8 0.590490 0.399518 0.742044
O O9 0.500000 0.368476 0.000000
O O10 0.933499 0.500000 0.000000
O O11 0.000000 0.370580 0.000000
O O12 0.348384 0.500000 0.500000
O O13 0.313673 0.654166 0.514645
O O14 0.303189 0.563710 0.870592
O O15 0.248143 0.251853 0.736788
#
# Coordination Sequence:
#
# PCOD9330344 Si02
#       7
#     2   8   8   8   8   8   4
#     4   8  14  28  44  86 120 140 186 256 336 358
#     4  12  22  38  67  96 128 176 230 293 337 414
#     4  10  20  35  59 104 136 162 212 291 350 405
#     4   9  18  30  53  92 127 155 201 274 338 379
#     4  12  23  40  70 100 140 178 230 297 343 416
#     4  12  28  46  63 100 145 190 231 278 357 426
#     4  12  20  36  62 104 128 168 232 278 354 390
#
# _framework density 21.333082999999998
#
# number of rings (size 3 to 8) (size 9 to 14) (size 15 to 20)
#    0.000    1.217    6.957    2.087    0.000    0.000 
#    0.000    0.000    0.000    1.043    2.261    0.000 
#    0.000    0.000    0.000    0.000    0.000    0.000 
#
# Total GULP energy -128063.227612 kJ/mol
# GULP energy per Si atom -5567.966418 kJ/mol
# Density = 2.128453 g / cm^3
# Si number density = 21.333083 Si / 1000 Ang^3
#
#
#
# Elastic Constant Matrix: (Units=GPa)
#
#
# Indices 1 2 3 4 5 6 
#
# 1 187.0505 24.4113 58.9118 0.0000 0.0000 0.0000
# 2 24.4113 44.8459 28.7901 0.0000 0.0000 0.0000
# 3 58.9118 28.7901 134.7898 0.0000 0.0000 0.0000
# 4 0.0000 0.0000 0.0000 91.6632 0.0000 0.0000
# 5 0.0000 0.0000 0.0000 0.0000 56.9150 0.0000
# 6 0.0000 0.0000 0.0000 0.0000 0.0000 -10.6099
#
#
#
# Elastic Compliance Matrix: (Units=1/GPa)
#
#
# Indices 1 2 3 4 5 6 
#
# 1 0.006342 -0.001938 -0.002358 0.000000 0.000000 0.000000
# 2 -0.001938 0.026435 -0.004799 0.000000 0.000000 0.000000
# 3 -0.002358 -0.004799 0.009474 0.000000 0.000000 0.000000
# 4 0.000000 0.000000 0.000000 0.010909 0.000000 0.000000
# 5 0.000000 0.000000 0.000000 0.000000 0.017570 0.000000
# 6 0.000000 0.000000 0.000000 0.000000 0.000000 -0.094251
#
#
# Mechanical properties :
#
#
# Convention : Reuss Voigt Hill
#
# Bulk Modulus (GPa) = 41.56193 65.65695 53.60944
# Shear Modulus (GPa) = 1859.18456 44.56521 951.87488
#
# Velocity S-wave (km/s) = 29.55326 4.57554 21.14628
# Velocity P-wave (km/s) = 34.41005 7.66537 24.92799
#
# Compressibility (1/GPa) = 0.02406048
#
# Stress axis : x y z
#
# Youngs Moduli (GPa) = 157.68684 37.82920 105.54703
#
# Poissons Ratio (x) = 0.07333 0.24885
# Poissons Ratio (y) = 0.30566 0.50652
# Poissons Ratio (z) = 0.37178 0.18154
#
# Static dielectric constant tensor:
#      x y z
#    x 1.739520 0.000000 0.000000 
#    y 0.000000 1.823870 0.000000 
#    z 0.000000 0.000000 1.811750 
# 
# From -- ./inp_files/4477.got.cif
#   From: 2010.05.17/outbox.cif.g08.bks.cpg/sg23_3_cif.got.tgz:4477.got - 2010.06.04 12:02:01.
