data_PCOD9330882
_publ_section_title
;
Structure prediction by ZEFSAII (Michael W. Deem and Ramdas Pophale) SiO2 
 PCOD9330882
Probable space group: I 2 2 2
;
_chemical_formula_sum "Si O2"
_cell_formula_units_Z 36
_cell_length_a 13.251331
_cell_length_b 5.041854
_cell_length_c 21.369843
_cell_angle_alpha 90.000000
_cell_angle_beta 90.000000
_cell_angle_gamma 90.000000
_cell_volume 1427.746483
_symmetry_space_group_name_H-M "I 2 2 2"
_symmetry_group_IT_number 23
_symmetry_cell_setting 'orthorhombic'
loop_
_space_group_symop_operation_xyz
x,y,z
-x,-y,z
x,-y,-z
-x,y,-z
1/2+x,1/2+y,1/2+z
1/2-x,1/2-y,1/2+z
1/2+x,1/2-y,1/2-z
1/2-x,1/2+y,1/2-z
loop_
_atom_site_type_symbol
_atom_site_label
_atom_site_fract_x
_atom_site_fract_y
_atom_site_fract_z
Si Si1 0.735262 0.070815 0.906409
Si Si2 0.801248 0.188876 0.223936
Si Si3 0.896530 0.904712 0.404015
Si Si4 0.000000 0.000000 0.285096
Si Si5 0.047982 0.246246 0.069252
O O1 0.778831 0.925388 0.844707
O O2 0.666512 0.326490 0.894749
O O3 0.834074 0.196930 0.938519
O O4 0.667685 0.831086 0.934934
O O5 0.733932 0.991224 0.267548
O O6 0.916185 0.150215 0.245381
O O7 0.937058 0.817168 0.334798
O O8 0.000000 0.000000 0.435430
O O9 0.000000 0.500000 0.101609
O O10 0.000000 0.000000 0.103805
O O11 0.000000 0.250673 0.000000
#
# Coordination Sequence:
#
# PCOD9330882 Si02
#       5
#     8   8   8   4   8
#     4  12  21  39  60  89 121 170 218 260 316 382
#     4  12  22  37  53  82 123 171 216 254 301 363
#     4  10  21  37  58  85 126 165 213 258 309 368
#     4  10  22  36  54  78 129 173 210 262 296 356
#     4  10  23  43  65  93 123 156 203 263 331 387
#
# _framework density 25.214559000000001
#
# number of rings (size 3 to 8) (size 9 to 14) (size 15 to 20)
#    0.667    0.444    4.444    2.000    1.556    2.667 
#    0.000    0.000    0.000    0.000    0.000   46.667 
#    0.000    0.000    0.000    0.000    0.000    0.000 
#
# Total GULP energy -100536.241696 kJ/mol
# GULP energy per Si atom -5585.346761 kJ/mol
# Density = 2.515717 g / cm^3
# Si number density = 25.214559 Si / 1000 Ang^3
#
#
#
# Elastic Constant Matrix: (Units=GPa)
#
#
# Indices 1 2 3 4 5 6 
#
# 1 211.8709 59.8065 20.9846 0.0000 0.0000 0.0000
# 2 59.8065 179.4573 -8.1337 0.0000 0.0000 0.0000
# 3 20.9846 -8.1337 63.5610 0.0000 0.0000 0.0000
# 4 0.0000 0.0000 0.0000 -2.9870 0.0000 0.0000
# 5 0.0000 0.0000 0.0000 0.0000 26.8009 0.0000
# 6 0.0000 0.0000 0.0000 0.0000 0.0000 49.3827
#
#
#
# Elastic Compliance Matrix: (Units=1/GPa)
#
#
# Indices 1 2 3 4 5 6 
#
# 1 0.005463 -0.001913 -0.002048 0.000000 0.000000 0.000000
# 2 -0.001913 0.006275 0.001435 0.000000 0.000000 0.000000
# 3 -0.002048 0.001435 0.016593 0.000000 0.000000 0.000000
# 4 0.000000 0.000000 0.000000 -0.334786 0.000000 0.000000
# 5 0.000000 0.000000 0.000000 0.000000 0.037312 0.000000
# 6 0.000000 0.000000 0.000000 0.000000 0.000000 0.020250
#
#
# Mechanical properties :
#
#
# Convention : Reuss Voigt Hill
#
# Bulk Modulus (GPa) = 42.96182 66.68934 54.82558
# Shear Modulus (GPa) = -21.17928 40.12145 9.47109
#
# Velocity S-wave (km/s) = -2.90135 3.99331 1.94019
# Velocity P-wave (km/s) = 2.41902 6.91146 5.17783
#
# Compressibility (1/GPa) = 0.02327648
#
# Stress axis : x y z
#
# Youngs Moduli (GPa) = 183.05458 159.36123 60.26712
#
# Poissons Ratio (x) = 0.30492 0.12345
# Poissons Ratio (y) = 0.35026 -0.08647
# Poissons Ratio (z) = 0.37497 -0.22864
#
# Static dielectric constant tensor:
#      x y z
#    x 2.028300 0.000000 0.000000 
#    y 0.000000 1.908270 0.000000 
#    z 0.000000 0.000000 1.912200 
# 
# From -- ./inp_files/28195.got.cif
#   From: 2010.05.17/outbox.cif.g08.bks.cpg/sg23_15_cif.got.tgz:28195.got - 2010.06.04 12:02:01.
