data_PCOD9330143
_publ_section_title
;
Structure prediction by ZEFSAII (Michael W. Deem and Ramdas Pophale) SiO2 
 PCOD9330143
Probable space group: I 2 2 2
;
_chemical_formula_sum "Si O2"
_cell_formula_units_Z 48
_cell_length_a 12.598312
_cell_length_b 8.260603
_cell_length_c 17.993824
_cell_angle_alpha 90.000000
_cell_angle_beta 90.000000
_cell_angle_gamma 90.000000
_cell_volume 1872.611036
_symmetry_space_group_name_H-M "I 2 2 2"
_symmetry_group_IT_number 23
_symmetry_cell_setting 'orthorhombic'
loop_
_space_group_symop_operation_xyz
x,y,z
-x,-y,z
x,-y,-z
-x,y,-z
1/2+x,1/2+y,1/2+z
1/2-x,1/2-y,1/2+z
1/2+x,1/2-y,1/2-z
1/2-x,1/2+y,1/2-z
loop_
_atom_site_type_symbol
_atom_site_label
_atom_site_fract_x
_atom_site_fract_y
_atom_site_fract_z
Si Si1 0.883407 0.240878 0.001168
Si Si2 0.247829 0.008873 0.767881
Si Si3 0.096678 0.359761 0.380223
Si Si4 0.888929 0.794887 0.684371
Si Si5 0.614460 0.986685 0.374364
Si Si6 0.150737 0.301124 0.536639
O O1 0.891481 0.382739 0.939891
O O2 0.774361 0.159989 0.976403
O O3 0.868837 0.319452 0.082219
O O4 0.000000 0.163925 0.000000
O O5 0.300324 0.128083 0.828244
O O6 0.128760 0.064529 0.745546
O O7 0.295823 0.836451 0.794967
O O8 0.301695 0.022609 0.687659
O O9 0.995382 0.708293 0.324700
O O10 0.105353 0.257382 0.455840
O O11 0.100230 0.539822 0.422322
O O12 0.865621 0.837301 0.597984
O O13 0.500000 0.000000 0.336090
#
# Coordination Sequence:
#
# PCOD9330143 Si02
#       6
#     8   8   8   8   8   8
#     4   9  18  32  59  97 132 171 221 284 343 403
#     4  11  22  39  64  96 128 172 225 282 345 414
#     4  10  23  40  66  96 128 184 235 277 346 425
#     4  11  23  41  66  97 130 180 233 283 346 417
#     4   9  17  33  58  89 128 170 215 270 343 414
#     4  10  19  40  66  96 128 179 242 280 326 423
#
# _framework density 25.632657999999999
#
# number of rings (size 3 to 8) (size 9 to 14) (size 15 to 20)
#    0.000    2.000    1.667    4.500    2.333    2.667 
#    0.000    2.500    0.000    6.000    0.000    0.000 
#    0.000    0.000    0.000    0.000    0.000    0.000 
#
# Total GULP energy -133608.403118 kJ/mol
# GULP energy per Si atom -5567.016797 kJ/mol
# Density = 2.557432 g / cm^3
# Si number density = 25.632658 Si / 1000 Ang^3
#
#
#
# Elastic Constant Matrix: (Units=GPa)
#
#
# Indices 1 2 3 4 5 6 
#
# 1 147.2137 40.1025 25.4772 0.0000 0.0000 0.0000
# 2 40.1025 61.9541 25.6503 0.0000 0.0000 0.0000
# 3 25.4772 25.6503 150.5437 0.0000 0.0000 0.0000
# 4 0.0000 0.0000 0.0000 -10.6388 0.0000 0.0000
# 5 0.0000 0.0000 0.0000 0.0000 42.7865 0.0000
# 6 0.0000 0.0000 0.0000 0.0000 0.0000 31.0142
#
#
#
# Elastic Compliance Matrix: (Units=1/GPa)
#
#
# Indices 1 2 3 4 5 6 
#
# 1 0.008285 -0.005146 -0.000525 0.000000 0.000000 0.000000
# 2 -0.005146 0.020562 -0.002633 0.000000 0.000000 0.000000
# 3 -0.000525 -0.002633 0.007180 0.000000 0.000000 0.000000
# 4 0.000000 0.000000 0.000000 -0.093996 0.000000 0.000000
# 5 0.000000 0.000000 0.000000 0.000000 0.023372 0.000000
# 6 0.000000 0.000000 0.000000 0.000000 0.000000 0.032243
#
#
# Mechanical properties :
#
#
# Convention : Reuss Voigt Hill
#
# Bulk Modulus (GPa) = 51.49347 60.24128 55.86737
# Shear Modulus (GPa) = 241.23214 30.53116 135.88165
#
# Velocity S-wave (km/s) = 9.71162 3.45498 7.28877
# Velocity P-wave (km/s) = 12.07836 6.28241 9.62692
#
# Compressibility (1/GPa) = 0.01941994
#
# Stress axis : x y z
#
# Youngs Moduli (GPa) = 120.69287 48.63428 139.27454
#
# Poissons Ratio (x) = 0.25025 0.07318
# Poissons Ratio (y) = 0.62104 0.36665
# Poissons Ratio (z) = 0.06342 0.12803
#
# Static dielectric constant tensor:
#      x y z
#    x 2.369970 0.000000 0.000000 
#    y 0.000000 2.224160 0.000000 
#    z 0.000000 0.000000 1.995360 
# 
# From -- ./inp_files/22446.got.cif
#   From: 2010.05.17/outbox.cif.g08.bks.cpg/sg23_12_cif.got.tgz:22446.got - 2010.06.04 12:02:01.
