data_PCOD9330877
_publ_section_title
;
Structure prediction by ZEFSAII (Michael W. Deem and Ramdas Pophale) SiO2 
 PCOD9330877
Probable space group: I 2 2 2
;
_chemical_formula_sum "Si O2"
_cell_formula_units_Z 44
_cell_length_a 14.100900
_cell_length_b 5.042691
_cell_length_c 27.750939
_cell_angle_alpha 90.000000
_cell_angle_beta 90.000000
_cell_angle_gamma 90.000000
_cell_volume 1973.271631
_symmetry_space_group_name_H-M "I 2 2 2"
_symmetry_group_IT_number 23
_symmetry_cell_setting 'orthorhombic'
loop_
_space_group_symop_operation_xyz
x,y,z
-x,-y,z
x,-y,-z
-x,y,-z
1/2+x,1/2+y,1/2+z
1/2-x,1/2-y,1/2+z
1/2+x,1/2-y,1/2-z
1/2-x,1/2+y,1/2-z
loop_
_atom_site_type_symbol
_atom_site_label
_atom_site_fract_x
_atom_site_fract_y
_atom_site_fract_z
Si Si1 0.349734 0.031487 0.446680
Si Si2 0.780937 0.536567 0.552846
Si Si3 0.897978 0.097840 0.186133
Si Si4 0.807628 0.441111 0.343650
Si Si5 0.607047 0.558427 0.797598
Si Si6 0.000000 0.500000 0.137719
O O1 0.306535 0.327000 0.444078
O O2 0.392570 0.000000 0.500000
O O3 0.261514 0.830759 0.444902
O O4 0.419232 0.950920 0.403895
O O5 0.825675 0.500000 0.500000
O O6 0.839799 0.503720 0.601696
O O7 0.803881 0.006656 0.160024
O O8 0.889773 0.009195 0.240922
O O9 0.920788 0.403701 0.177884
O O10 0.000000 0.000000 0.163190
O O11 0.826232 0.144356 0.326225
O O12 0.861285 0.643806 0.308316
O O13 0.500000 0.500000 0.813524
#
# Coordination Sequence:
#
# PCOD9330877 Si02
#       6
#     8   8   8   8   8   4
#     4  10  21  37  57  90 135 182 220 259 315 396
#     4  10  21  39  63  94 128 167 219 273 332 400
#     4  11  26  39  65  97 139 177 224 270 324 410
#     4  12  23  45  70  95 131 176 221 273 346 399
#     4  11  27  45  68  94 128 172 228 289 340 397
#     4  12  23  36  60  90 142 178 225 264 322 388
#
# _framework density 22.297993999999999
#
# number of rings (size 3 to 8) (size 9 to 14) (size 15 to 20)
#    0.000    1.091    1.818    4.091    7.636    0.000 
#    0.000    2.727    0.000    3.273    0.000    0.000 
#    0.000    0.000    0.000    0.000    0.000    0.000 
#
# Total GULP energy -122595.407802 kJ/mol
# GULP energy per Si atom -5572.518536 kJ/mol
# Density = 2.224724 g / cm^3
# Si number density = 22.297994 Si / 1000 Ang^3
#
#
#
# Elastic Constant Matrix: (Units=GPa)
#
#
# Indices 1 2 3 4 5 6 
#
# 1 39.6377 -6.7879 -6.0622 0.0000 0.0000 0.0000
# 2 -6.7879 21.6775 -2.2707 0.0000 0.0000 0.0000
# 3 -6.0622 -2.2707 151.9373 0.0000 0.0000 0.0000
# 4 0.0000 0.0000 0.0000 34.3606 0.0000 0.0000
# 5 0.0000 0.0000 0.0000 0.0000 18.1399 0.0000
# 6 0.0000 0.0000 0.0000 0.0000 0.0000 48.6741
#
#
#
# Elastic Compliance Matrix: (Units=1/GPa)
#
#
# Indices 1 2 3 4 5 6 
#
# 1 0.026875 0.008541 0.001200 0.000000 0.000000 0.000000
# 2 0.008541 0.048917 0.001072 0.000000 0.000000 0.000000
# 3 0.001200 0.001072 0.006646 0.000000 0.000000 0.000000
# 4 0.000000 0.000000 0.000000 0.029103 0.000000 0.000000
# 5 0.000000 0.000000 0.000000 0.000000 0.055127 0.000000
# 6 0.000000 0.000000 0.000000 0.000000 0.000000 0.020545
#
#
# Mechanical properties :
#
#
# Convention : Reuss Voigt Hill
#
# Bulk Modulus (GPa) = 9.60956 20.33454 14.97205
# Shear Modulus (GPa) = 24.96571 35.45983 30.21277
#
# Velocity S-wave (km/s) = 3.34973 3.99214 3.68496
# Velocity P-wave (km/s) = 4.39089 5.51261 4.98341
#
# Compressibility (1/GPa) = 0.10406306
#
# Stress axis : x y z
#
# Youngs Moduli (GPa) = 37.20983 20.44262 150.47649
#
# Poissons Ratio (x) = -0.17460 -0.18056
# Poissons Ratio (y) = -0.31781 -0.16129
# Poissons Ratio (z) = -0.04465 -0.02191
#
# Static dielectric constant tensor:
#      x y z
#    x 1.787160 0.000000 0.000000 
#    y 0.000000 1.526340 0.000000 
#    z 0.000000 0.000000 1.845000 
# 
# From -- ./inp_files/28919.got.cif
#   From: 2010.05.17/outbox.cif.g08.bks.cpg/sg23_15_cif.got.tgz:28919.got - 2010.06.04 12:02:01.
