data_PCOD9330935
_publ_section_title
;
Structure prediction by ZEFSAII (Michael W. Deem and Ramdas Pophale) SiO2 
 PCOD9330935
Probable space group: I 2 2 2
;
_chemical_formula_sum "Si O2"
_cell_formula_units_Z 56
_cell_length_a 14.930687
_cell_length_b 7.254883
_cell_length_c 21.303761
_cell_angle_alpha 90.000000
_cell_angle_beta 90.000000
_cell_angle_gamma 90.000000
_cell_volume 2307.631642
_symmetry_space_group_name_H-M "I 2 2 2"
_symmetry_group_IT_number 23
_symmetry_cell_setting 'orthorhombic'
loop_
_space_group_symop_operation_xyz
x,y,z
-x,-y,z
x,-y,-z
-x,y,-z
1/2+x,1/2+y,1/2+z
1/2-x,1/2-y,1/2+z
1/2+x,1/2-y,1/2-z
1/2-x,1/2+y,1/2-z
loop_
_atom_site_type_symbol
_atom_site_label
_atom_site_fract_x
_atom_site_fract_y
_atom_site_fract_z
Si Si1 0.150393 0.751200 0.376694
Si Si2 0.297272 0.281507 0.990697
Si Si3 0.667956 0.885487 0.659918
Si Si4 0.463997 0.787104 0.092697
Si Si5 0.334719 0.104386 0.803222
Si Si6 0.485170 0.774972 0.426705
Si Si7 0.664559 0.299737 0.622971
O O1 0.195600 0.679982 0.442062
O O2 0.226231 0.883590 0.352493
O O3 0.135697 0.602231 0.322127
O O4 0.054672 0.825464 0.397246
O O5 0.396564 0.259772 0.962539
O O6 0.221988 0.215473 0.941803
O O7 0.279404 0.500000 0.000000
O O8 0.653376 0.836689 0.732145
O O9 0.609992 0.766503 0.610204
O O10 0.647042 0.098208 0.651573
O O11 0.399452 0.776408 0.152897
O O12 0.500000 0.000000 0.084925
O O13 0.231977 0.106535 0.827800
O O14 0.500000 0.730414 0.500000
O O15 0.562793 0.654668 0.393579
O O16 0.500000 0.000000 0.424816
#
# Coordination Sequence:
#
# PCOD9330935 Si02
#       7
#     8   8   8   8   8   8   8
#     4  11  22  37  61  84 120 158 196 249 302 359
#     4  11  21  38  63  91 121 152 202 251 307 359
#     4  11  21  38  61  88 117 158 205 254 302 367
#     4   9  22  39  58  88 122 159 199 242 302 377
#     4  10  23  39  57  85 122 162 204 240 308 375
#     4   9  19  34  61  89 115 147 202 262 306 351
#     4  10  21  38  59  87 117 153 201 254 301 366
#
# _framework density 24.267306000000001
#
# number of rings (size 3 to 8) (size 9 to 14) (size 15 to 20)
#    0.000    1.857    1.429    2.143    2.000   14.286 
#    0.000    0.714    0.000    4.286    0.000    0.000 
#    0.000    0.000    0.000    0.000    0.000    0.000 
#
# Total GULP energy -156308.500291 kJ/mol
# GULP energy per Si atom -5582.446439 kJ/mol
# Density = 2.421207 g / cm^3
# Si number density = 24.267306 Si / 1000 Ang^3
#
#
#
# Elastic Constant Matrix: (Units=GPa)
#
#
# Indices 1 2 3 4 5 6 
#
# 1 151.8388 21.6560 39.9746 0.0000 0.0000 0.0000
# 2 21.6560 44.1080 7.8842 0.0000 0.0000 0.0000
# 3 39.9746 7.8842 130.2175 0.0000 0.0000 0.0000
# 4 0.0000 0.0000 0.0000 19.9956 0.0000 0.0000
# 5 0.0000 0.0000 0.0000 0.0000 16.3771 0.0000
# 6 0.0000 0.0000 0.0000 0.0000 0.0000 40.3413
#
#
#
# Elastic Compliance Matrix: (Units=1/GPa)
#
#
# Indices 1 2 3 4 5 6 
#
# 1 0.007629 -0.003363 -0.002138 0.000000 0.000000 0.000000
# 2 -0.003363 0.024402 -0.000445 0.000000 0.000000 0.000000
# 3 -0.002138 -0.000445 0.008363 0.000000 0.000000 0.000000
# 4 0.000000 0.000000 0.000000 0.050011 0.000000 0.000000
# 5 0.000000 0.000000 0.000000 0.000000 0.061061 0.000000
# 6 0.000000 0.000000 0.000000 0.000000 0.000000 0.024788
#
#
# Mechanical properties :
#
#
# Convention : Reuss Voigt Hill
#
# Bulk Modulus (GPa) = 35.08665 51.68821 43.38743
# Shear Modulus (GPa) = 25.29758 32.45276 28.87517
#
# Velocity S-wave (km/s) = 3.23221 3.66088 3.45321
# Velocity P-wave (km/s) = 5.33098 6.26220 5.81526
#
# Compressibility (1/GPa) = 0.02850087
#
# Stress axis : x y z
#
# Youngs Moduli (GPa) = 131.08671 40.97949 119.57721
#
# Poissons Ratio (x) = 0.13782 0.25568
# Poissons Ratio (y) = 0.44088 0.05321
# Poissons Ratio (z) = 0.28029 0.01824
#
# Static dielectric constant tensor:
#      x y z
#    x 1.978970 0.000000 0.000000 
#    y 0.000000 2.052460 0.000000 
#    z 0.000000 0.000000 1.928250 
# 
# From -- ./inp_files/27009.got.cif
#   From: 2010.05.17/outbox.cif.g08.bks.cpg/sg23_14_cif.got.tgz:27009.got - 2010.06.04 12:02:01.
