data_PCOD9330984
_publ_section_title
;
Structure prediction by ZEFSAII (Michael W. Deem and Ramdas Pophale) SiO2 
 PCOD9330984
Probable space group: I 2 2 2
;
_chemical_formula_sum "Si O2"
_cell_formula_units_Z 38
_cell_length_a 11.349409
_cell_length_b 19.601053
_cell_length_c 7.434803
_cell_angle_alpha 90.000000
_cell_angle_beta 90.000000
_cell_angle_gamma 90.000000
_cell_volume 1653.949006
_symmetry_space_group_name_H-M "I 2 2 2"
_symmetry_group_IT_number 23
_symmetry_cell_setting 'orthorhombic'
loop_
_space_group_symop_operation_xyz
x,y,z
-x,-y,z
x,-y,-z
-x,y,-z
1/2+x,1/2+y,1/2+z
1/2-x,1/2-y,1/2+z
1/2+x,1/2-y,1/2-z
1/2-x,1/2+y,1/2-z
loop_
_atom_site_type_symbol
_atom_site_label
_atom_site_fract_x
_atom_site_fract_y
_atom_site_fract_z
Si Si1 0.103927 0.719518 0.135005
Si Si2 0.000000 0.690637 0.500000
Si Si3 0.185011 0.581729 0.246900
Si Si4 0.131302 0.021591 0.787220
Si Si5 0.246751 0.652563 0.591985
Si Si6 0.000000 0.500000 0.500000
O O1 0.133484 0.638989 0.115824
O O2 0.211234 0.770497 0.108463
O O3 0.062899 0.729830 0.340510
O O4 0.000000 0.738511 0.000000
O O5 0.895438 0.651218 0.391681
O O6 0.273476 0.524179 0.184624
O O7 0.260767 0.627726 0.386667
O O8 0.085163 0.543077 0.365941
O O9 0.177094 0.099849 0.789075
O O10 0.000000 0.000000 0.730939
O O11 0.139283 0.000000 0.000000
#
# Coordination Sequence:
#
# PCOD9330984 Si02
#       6
#     8   4   8   8   8   2
#     4  11  26  41  70 102 142 176 231 288 352 407
#     4  10  25  44  65 102 133 189 230 270 355 406
#     4  10  21  38  66  99 133 180 229 283 341 407
#     4   9  18  32  61  97 131 174 231 276 337 409
#     4  10  21  39  65  99 138 177 228 288 337 413
#     4  12  18  44  72  92 136 172 242 282 328 424
#
# _framework density 22.975314000000001
#
# number of rings (size 3 to 8) (size 9 to 14) (size 15 to 20)
#    0.000    1.895    3.158    2.526   11.789    0.000 
#    0.000    0.526    0.000    0.000    0.000    0.000 
#    0.000    0.000    0.000    0.000    0.000    0.000 
#
# Total GULP energy -105901.216736 kJ/mol
# GULP energy per Si atom -5573.748249 kJ/mol
# Density = 2.292302 g / cm^3
# Si number density = 22.975314 Si / 1000 Ang^3
#
#
#
# Elastic Constant Matrix: (Units=GPa)
#
#
# Indices 1 2 3 4 5 6 
#
# 1 174.9581 80.3278 26.8865 0.0000 0.0000 0.0000
# 2 80.3278 127.0354 20.1852 0.0000 0.0000 0.0001
# 3 26.8865 20.1852 59.7812 -0.0005 0.0004 0.0003
# 4 0.0000 0.0000 -0.0005 26.3173 0.0001 0.0002
# 5 0.0000 0.0000 0.0004 0.0001 6.1285 -0.0001
# 6 0.0000 0.0001 0.0003 0.0002 -0.0001 41.4710
#
#
#
# Elastic Compliance Matrix: (Units=1/GPa)
#
#
# Indices 1 2 3 4 5 6 
#
# 1 0.008289 -0.004913 -0.002069 0.000000 0.000000 0.000000
# 2 -0.004913 0.011230 -0.001582 0.000000 0.000000 0.000000
# 3 -0.002069 -0.001582 0.018193 0.000000 -0.000001 0.000000
# 4 0.000000 0.000000 0.000000 0.037998 -0.000001 0.000000
# 5 0.000000 0.000000 -0.000001 -0.000001 0.163173 0.000000
# 6 0.000000 0.000000 0.000000 0.000000 0.000000 0.024113
#
#
# Mechanical properties :
#
#
# Convention : Reuss Voigt Hill
#
# Bulk Modulus (GPa) = 48.58373 68.50817 58.54595
# Shear Modulus (GPa) = 17.42254 30.40838 23.91546
#
# Velocity S-wave (km/s) = 2.75674 3.64197 3.22983
# Velocity P-wave (km/s) = 5.59686 6.89697 6.28064
#
# Compressibility (1/GPa) = 0.02058302
#
# Stress axis : x y z
#
# Youngs Moduli (GPa) = 120.63924 89.05005 54.96750
#
# Poissons Ratio (x) = 0.43747 0.11374
# Poissons Ratio (y) = 0.59266 0.08697
# Poissons Ratio (z) = 0.24964 0.14090
#
# Static dielectric constant tensor:
#      x y z
#    x 1.883730 0.000000 0.000000 
#    y 0.000000 1.909810 0.000000 
#    z 0.000000 0.000000 1.905940 
# 
# From -- ./inp_files/8232.got.cif
#   From: 2010.05.17/outbox.cif.g08.bks.cpg/sg23_5_cif.got.tgz:8232.got - 2010.06.04 12:02:01.
