data_PCOD9330041
_publ_section_title
;
Structure prediction by ZEFSAII (Michael W. Deem and Ramdas Pophale) SiO2 
 PCOD9330041
Probable space group: I 2 2 2
;
_chemical_formula_sum "Si O2"
_cell_formula_units_Z 28
_cell_length_a 14.285229
_cell_length_b 9.058141
_cell_length_c 11.343151
_cell_angle_alpha 90.000000
_cell_angle_beta 90.000000
_cell_angle_gamma 90.000000
_cell_volume 1467.776726
_symmetry_space_group_name_H-M "I 2 2 2"
_symmetry_group_IT_number 23
_symmetry_cell_setting 'orthorhombic'
loop_
_space_group_symop_operation_xyz
x,y,z
-x,-y,z
x,-y,-z
-x,y,-z
1/2+x,1/2+y,1/2+z
1/2-x,1/2-y,1/2+z
1/2+x,1/2-y,1/2-z
1/2-x,1/2+y,1/2-z
loop_
_atom_site_type_symbol
_atom_site_label
_atom_site_fract_x
_atom_site_fract_y
_atom_site_fract_z
Si Si1 0.039315 0.757483 0.375759
Si Si2 0.651577 0.000000 0.000000
Si Si3 0.335543 0.794305 0.208430
Si Si4 0.294247 0.471095 0.139270
O O1 0.091045 0.607529 0.415822
O O2 0.114687 0.872670 0.327861
O O3 0.947932 0.720642 0.300041
O O4 0.000000 0.820212 0.500000
O O5 0.698154 0.886518 0.908085
O O6 0.297019 0.629039 0.201639
O O7 0.295534 0.879634 0.319669
O O8 0.296077 0.500000 0.000000
#
# Coordination Sequence:
#
# PCOD9330041 Si02
#       4
#     8   4   8   8
#     4  10  19  37  63  93 121 166 219 267 310 380
#     4  10  19  36  64  92 123 164 223 268 312 382
#     4  11  23  35  62  94 129 161 217 278 321 372
#     4  12  23  38  63  98 129 168 218 270 328 384
#
# _framework density 19.07647
#
# number of rings (size 3 to 8) (size 9 to 14) (size 15 to 20)
#    0.000    1.143    5.714    6.429    0.000    0.000 
#    0.000    0.000    0.000   13.714    0.000    0.000 
#    0.000    0.000    0.000    0.000    0.000    0.000 
#
# Total GULP energy -78125.631889 kJ/mol
# GULP energy per Si atom -5580.402278 kJ/mol
# Density = 1.903305 g / cm^3
# Si number density = 19.076470 Si / 1000 Ang^3
#
#
#
# Elastic Constant Matrix: (Units=GPa)
#
#
# Indices 1 2 3 4 5 6 
#
# 1 83.5881 39.3877 35.9420 0.0000 0.0000 0.0000
# 2 39.3877 156.1721 27.2589 0.0000 0.0000 0.0000
# 3 35.9420 27.2589 32.6399 0.0000 0.0000 0.0000
# 4 0.0000 0.0000 0.0000 27.3587 0.0000 0.0000
# 5 0.0000 0.0000 0.0000 0.0000 31.7748 0.0000
# 6 0.0000 0.0000 0.0000 0.0000 0.0000 29.4007
#
#
#
# Elastic Compliance Matrix: (Units=1/GPa)
#
#
# Indices 1 2 3 4 5 6 
#
# 1 0.023067 -0.001620 -0.024048 0.000000 0.000000 0.000000
# 2 -0.001620 0.007610 -0.004571 0.000000 0.000000 0.000000
# 3 -0.024048 -0.004571 0.060935 0.000000 0.000000 0.000000
# 4 0.000000 0.000000 0.000000 0.036551 0.000000 0.000000
# 5 0.000000 0.000000 0.000000 0.000000 0.031472 0.000000
# 6 0.000000 0.000000 0.000000 0.000000 0.000000 0.034013
#
#
# Mechanical properties :
#
#
# Convention : Reuss Voigt Hill
#
# Bulk Modulus (GPa) = 32.11888 53.06414 42.59151
# Shear Modulus (GPa) = 18.90330 29.02760 23.96545
#
# Velocity S-wave (km/s) = 3.15131 3.90506 3.54825
# Velocity P-wave (km/s) = 5.48766 6.94331 6.25796
#
# Compressibility (1/GPa) = 0.03113434
#
# Stress axis : x y z
#
# Youngs Moduli (GPa) = 43.35153 131.41175 16.41084
#
# Poissons Ratio (x) = 0.21293 0.39464
# Poissons Ratio (y) = 0.07024 0.07501
# Poissons Ratio (z) = 1.04251 0.60067
#
# Static dielectric constant tensor:
#      x y z
#    x 1.685900 0.000000 0.000000 
#    y 0.000000 1.714860 0.000000 
#    z 0.000000 0.000000 1.664980 
# 
# From -- ./inp_files/16267.got.cif
#   From: 2010.05.17/outbox.cif.g08.bks.cpg/sg23_9_cif.got.tgz:16267.got - 2010.06.04 12:02:01.
