data_PCOD9330188
_publ_section_title
;
Structure prediction by ZEFSAII (Michael W. Deem and Ramdas Pophale) SiO2 
 PCOD9330188
Probable space group: I 2 2 2
;
_chemical_formula_sum "Si O2"
_cell_formula_units_Z 48
_cell_length_a 5.692391
_cell_length_b 20.383893
_cell_length_c 20.607479
_cell_angle_alpha 90.000000
_cell_angle_beta 90.000000
_cell_angle_gamma 90.000000
_cell_volume 2391.149446
_symmetry_space_group_name_H-M "I 2 2 2"
_symmetry_group_IT_number 23
_symmetry_cell_setting 'orthorhombic'
loop_
_space_group_symop_operation_xyz
x,y,z
-x,-y,z
x,-y,-z
-x,y,-z
1/2+x,1/2+y,1/2+z
1/2-x,1/2-y,1/2+z
1/2+x,1/2-y,1/2-z
1/2-x,1/2+y,1/2-z
loop_
_atom_site_type_symbol
_atom_site_label
_atom_site_fract_x
_atom_site_fract_y
_atom_site_fract_z
Si Si1 0.179388 0.685283 0.158068
Si Si2 0.742841 0.463952 0.181106
Si Si3 0.247279 0.108317 0.885110
Si Si4 0.016487 0.292306 0.698380
Si Si5 0.500000 0.837870 0.000000
Si Si6 0.500000 0.500000 0.307394
Si Si7 0.881305 0.211119 0.910608
O O1 0.220766 0.608105 0.151255
O O2 0.043480 0.698978 0.225661
O O3 0.423053 0.722467 0.172889
O O4 0.040071 0.724445 0.101878
O O5 0.500000 0.500000 0.155000
O O6 0.666283 0.459033 0.257503
O O7 0.000000 0.500000 0.176493
O O8 0.329468 0.154937 0.826496
O O9 0.037664 0.146961 0.919739
O O10 0.442265 0.114106 0.940161
O O11 0.165784 0.042013 0.853459
O O12 0.250666 0.302682 0.657566
O O13 0.695931 0.789595 0.031038
#
# Coordination Sequence:
#
# PCOD9330188 Si02
#       7
#     8   8   8   8   4   4   8
#     4  11  20  33  58  88 122 165 211 261 332 390
#     4  10  24  38  58  89 140 174 211 252 322 413
#     4  10  21  39  58  85 118 173 214 275 316 383
#     4  10  20  31  57  89 119 154 211 266 321 388
#     4  10  22  42  59  82 124 165 232 284 328 370
#     4  10  22  36  61  86 126 178 228 265 330 388
#     4  10  21  36  59  83 122 158 214 277 334 380
#
# _framework density 20.074028999999999
#
# number of rings (size 3 to 8) (size 9 to 14) (size 15 to 20)
#    0.500    1.333    1.667    2.500    4.667    1.333 
#    0.000    2.500    0.000    2.000    0.000    0.000 
#    0.000   38.667    0.000    0.000    0.000    0.000 
#
# Total GULP energy -133656.847213 kJ/mol
# GULP energy per Si atom -5569.035301 kJ/mol
# Density = 2.002834 g / cm^3
# Si number density = 20.074029 Si / 1000 Ang^3
#
#
#
# Elastic Constant Matrix: (Units=GPa)
#
#
# Indices 1 2 3 4 5 6 
#
# 1 55.3268 1.5678 -7.6287 0.0000 0.0000 0.0000
# 2 1.5678 66.9471 -15.1207 0.0000 0.0000 0.0000
# 3 -7.6287 -15.1207 30.1857 0.0000 0.0000 0.0000
# 4 0.0000 0.0000 0.0000 17.2028 0.0000 0.0000
# 5 0.0000 0.0000 0.0000 0.0000 40.0755 0.0000
# 6 0.0000 0.0000 0.0000 0.0000 0.0000 8.3812
#
#
#
# Elastic Compliance Matrix: (Units=1/GPa)
#
#
# Indices 1 2 3 4 5 6 
#
# 1 0.018757 0.000712 0.005097 0.000000 0.000000 0.000000
# 2 0.000712 0.016870 0.008630 0.000000 0.000000 0.000000
# 3 0.005097 0.008630 0.038740 0.000000 0.000000 0.000000
# 4 0.000000 0.000000 0.000000 0.058130 0.000000 0.000000
# 5 0.000000 0.000000 0.000000 0.000000 0.024953 0.000000
# 6 0.000000 0.000000 0.000000 0.000000 0.000000 0.119315
#
#
# Mechanical properties :
#
#
# Convention : Reuss Voigt Hill
#
# Bulk Modulus (GPa) = 9.68571 12.23296 10.95933
# Shear Modulus (GPa) = 17.71162 24.70797 21.20979
#
# Velocity S-wave (km/s) = 2.97360 3.51214 3.25403
# Velocity P-wave (km/s) = 4.07740 4.74911 4.42602
#
# Compressibility (1/GPa) = 0.10324491
#
# Stress axis : x y z
#
# Youngs Moduli (GPa) = 53.31333 59.27770 25.81339
#
# Poissons Ratio (x) = -0.04220 -0.13157
# Poissons Ratio (y) = -0.03796 -0.22278
# Poissons Ratio (z) = -0.27174 -0.51159
#
# Static dielectric constant tensor:
#      x y z
#    x 1.894010 0.000000 0.000000 
#    y 0.000000 1.760870 0.000000 
#    z 0.000000 0.000000 1.707750 
# 
# From -- ./inp_files/25714.got.cif
#   From: 2010.05.17/outbox.cif.g08.bks.cpg/sg23_13_cif.got.tgz:25714.got - 2010.06.04 12:02:01.
