data_PCOD9330691
_publ_section_title
;
Structure prediction by ZEFSAII (Michael W. Deem and Ramdas Pophale) SiO2 
 PCOD9330691
Probable space group: I 2 2 2
;
_chemical_formula_sum "Si O2"
_cell_formula_units_Z 42
_cell_length_a 11.642908
_cell_length_b 8.766757
_cell_length_c 23.666626
_cell_angle_alpha 90.000000
_cell_angle_beta 90.000000
_cell_angle_gamma 90.000000
_cell_volume 2415.665419
_symmetry_space_group_name_H-M "I 2 2 2"
_symmetry_group_IT_number 23
_symmetry_cell_setting 'orthorhombic'
loop_
_space_group_symop_operation_xyz
x,y,z
-x,-y,z
x,-y,-z
-x,y,-z
1/2+x,1/2+y,1/2+z
1/2-x,1/2-y,1/2+z
1/2+x,1/2-y,1/2-z
1/2-x,1/2+y,1/2-z
loop_
_atom_site_type_symbol
_atom_site_label
_atom_site_fract_x
_atom_site_fract_y
_atom_site_fract_z
Si Si1 0.394247 0.209712 0.684879
Si Si2 0.000000 0.000000 0.756596
Si Si3 0.500000 0.000000 0.591939
Si Si4 0.602619 0.293511 0.959217
Si Si5 0.000000 0.500000 0.500000
Si Si6 0.305999 0.000000 0.500000
Si Si7 0.000000 0.500000 0.278444
Si Si8 0.124815 0.211634 0.668673
O O1 0.440526 0.371904 0.705472
O O2 0.465181 0.139498 0.632662
O O3 0.413988 0.092016 0.736903
O O4 0.261703 0.223095 0.669212
O O5 0.913071 0.911109 0.715314
O O6 0.390863 0.964407 0.552163
O O7 0.721290 0.361574 0.982724
O O8 0.588019 0.336919 0.894142
O O9 0.582918 0.110669 0.963993
O O10 0.500000 0.346088 0.000000
O O11 0.933973 0.372118 0.314412
#
# Coordination Sequence:
#
# PCOD9330691 Si02
#       8
#     8   4   4   8   2   4   4   8
#     4  10  20  41  57  85 119 150 196 246 288 351
#     4  10  24  36  59  93 112 150 208 230 298 358
#     4  10  22  39  63  86 114 160 196 236 300 342
#     4  10  22  38  59  89 122 150 196 246 289 353
#     4   8  22  38  54  90 122 142 190 240 294 336
#     4  11  21  40  62  88 115 157 202 236 284 367
#     4   9  21  35  59  83 115 152 198 234 294 360
#     4  11  20  37  60  84 117 158 184 251 295 342
#
# _framework density 17.386514999999999
#
# number of rings (size 3 to 8) (size 9 to 14) (size 15 to 20)
#    0.571    1.333    1.905    2.000    2.667    0.000 
#    3.429    0.000    0.000    2.286    0.000    0.000 
#    0.000    0.000    0.000    0.000    0.000    0.000 
#
# Total GULP energy -117023.761001 kJ/mol
# GULP energy per Si atom -5572.560048 kJ/mol
# Density = 1.734694 g / cm^3
# Si number density = 17.386515 Si / 1000 Ang^3
#
#
#
# Elastic Constant Matrix: (Units=GPa)
#
#
# Indices 1 2 3 4 5 6 
#
# 1 128.2930 52.9859 73.9003 0.0000 0.0000 0.0000
# 2 52.9859 117.2827 57.8455 0.0000 0.0000 0.0000
# 3 73.9003 57.8455 139.6184 0.0000 0.0000 0.0000
# 4 0.0000 0.0000 0.0000 0.8045 0.0000 0.0000
# 5 0.0000 0.0000 0.0000 0.0000 26.9862 0.0000
# 6 0.0000 0.0000 0.0000 0.0000 0.0000 9.8726
#
#
#
# Elastic Compliance Matrix: (Units=1/GPa)
#
#
# Indices 1 2 3 4 5 6 
#
# 1 0.011931 -0.002860 -0.005130 0.000000 0.000000 0.000000
# 2 -0.002860 0.011402 -0.003210 0.000000 0.000000 0.000000
# 3 -0.005130 -0.003210 0.011208 0.000000 0.000000 0.000000
# 4 0.000000 0.000000 0.000000 1.243056 0.000000 0.000000
# 5 0.000000 0.000000 0.000000 0.000000 0.037056 0.000000
# 6 0.000000 0.000000 0.000000 0.000000 0.000000 0.101290
#
#
# Mechanical properties :
#
#
# Convention : Reuss Voigt Hill
#
# Bulk Modulus (GPa) = 82.37183 83.85082 83.11132
# Shear Modulus (GPa) = 3.46647 20.89682 12.18165
#
# Velocity S-wave (km/s) = 1.41354 3.47060 2.64983
# Velocity P-wave (km/s) = 7.08123 8.02448 7.56757
#
# Compressibility (1/GPa) = 0.01214007
#
# Stress axis : x y z
#
# Youngs Moduli (GPa) = 83.81577 87.70617 89.22360
#
# Poissons Ratio (x) = 0.25083 0.45773
# Poissons Ratio (y) = 0.23970 0.28642
# Poissons Ratio (z) = 0.42999 0.28155
#
# Static dielectric constant tensor:
#      x y z
#    x 1.562920 0.000000 0.000000 
#    y 0.000000 1.600750 0.000000 
#    z 0.000000 0.000000 1.592400 
# 
# From -- ./inp_files/8652.got.cif
#   From: 2010.05.17/outbox.cif.g08.bks.cpg/sg23_5_cif.got.tgz:8652.got - 2010.06.04 12:02:01.
