data_PCOD9330148
_publ_section_title
;
Structure prediction by ZEFSAII (Michael W. Deem and Ramdas Pophale) SiO2 
 PCOD9330148
Probable space group: I 2 2 2
;
_chemical_formula_sum "Si O2"
_cell_formula_units_Z 32
_cell_length_a 30.425761
_cell_length_b 6.198604
_cell_length_c 7.449305
_cell_angle_alpha 90.000000
_cell_angle_beta 90.000000
_cell_angle_gamma 90.000000
_cell_volume 1404.918392
_symmetry_space_group_name_H-M "I 2 2 2"
_symmetry_group_IT_number 23
_symmetry_cell_setting 'orthorhombic'
loop_
_space_group_symop_operation_xyz
x,y,z
-x,-y,z
x,-y,-z
-x,y,-z
1/2+x,1/2+y,1/2+z
1/2-x,1/2-y,1/2+z
1/2+x,1/2-y,1/2-z
1/2-x,1/2+y,1/2-z
loop_
_atom_site_type_symbol
_atom_site_label
_atom_site_fract_x
_atom_site_fract_y
_atom_site_fract_z
Si Si1 0.263103 0.500000 0.000000
Si Si2 0.840210 0.000000 0.000000
Si Si3 0.465986 0.663779 0.135690
Si Si4 0.305308 0.842615 0.776812
Si Si5 0.387314 0.121068 0.687073
O O1 0.291288 0.285230 0.044148
O O2 0.232765 0.521605 0.177539
O O3 0.868248 0.854235 0.134549
O O4 0.813568 0.161189 0.124433
O O5 0.500000 0.500000 0.242117
O O6 0.433568 0.829015 0.223484
O O7 0.440007 0.500000 0.000000
O O8 0.500000 0.771189 0.000000
O O9 0.350046 0.981409 0.787438
O O10 0.394554 0.000000 0.500000
#
# Coordination Sequence:
#
# PCOD9330148 Si02
#       5
#     4   4   8   8   8
#     4  12  24  46  66 102 147 195 262 296 374 424
#     4  10  20  42  65 104 146 182 246 308 369 428
#     4   6  16  37  72 105 143 185 225 306 359 437
#     4  11  24  43  70  99 148 199 242 316 357 443
#     4  10  19  40  74 108 140 195 249 294 378 438
#
# _framework density 22.777125000000002
#
# number of rings (size 3 to 8) (size 9 to 14) (size 15 to 20)
#    1.500    1.000    3.750    1.500    0.000    0.000 
#    2.250    0.625    0.000   22.500    0.000    0.000 
#    0.000    0.000    0.000    0.000    0.000    0.000 
#
# Total GULP energy -89158.274446 kJ/mol
# GULP energy per Si atom -5572.392153 kJ/mol
# Density = 2.272528 g / cm^3
# Si number density = 22.777125 Si / 1000 Ang^3
#
#
#
# Elastic Constant Matrix: (Units=GPa)
#
#
# Indices 1 2 3 4 5 6 
#
# 1 164.1520 69.3839 63.7776 0.0000 0.0000 0.0000
# 2 69.3839 100.5924 27.5653 0.0000 0.0000 0.0000
# 3 63.7776 27.5653 78.8451 0.0000 0.0000 0.0000
# 4 0.0000 0.0000 0.0000 36.1032 0.0000 0.0000
# 5 0.0000 0.0000 0.0000 0.0000 29.8642 0.0000
# 6 0.0000 0.0000 0.0000 0.0000 0.0000 62.0695
#
#
#
# Elastic Compliance Matrix: (Units=1/GPa)
#
#
# Indices 1 2 3 4 5 6 
#
# 1 0.011340 -0.005870 -0.007120 0.000000 0.000000 0.000000
# 2 -0.005870 0.014033 -0.000158 0.000000 0.000000 0.000000
# 3 -0.007120 -0.000158 0.018498 0.000000 0.000000 0.000000
# 4 0.000000 0.000000 0.000000 0.027698 0.000000 0.000000
# 5 0.000000 0.000000 0.000000 0.000000 0.033485 0.000000
# 6 0.000000 0.000000 0.000000 0.000000 0.000000 0.016111
#
#
# Mechanical properties :
#
#
# Convention : Reuss Voigt Hill
#
# Bulk Modulus (GPa) = 56.90177 73.89368 65.39772
# Shear Modulus (GPa) = 32.61157 37.79824 35.20491
#
# Velocity S-wave (km/s) = 3.78798 4.07809 3.93571
# Velocity P-wave (km/s) = 6.64589 7.39506 7.03046
#
# Compressibility (1/GPa) = 0.01757415
#
# Stress axis : x y z
#
# Youngs Moduli (GPa) = 88.18633 71.25830 54.06058
#
# Poissons Ratio (x) = 0.41831 0.38492
# Poissons Ratio (y) = 0.51769 0.00853
# Poissons Ratio (z) = 0.62791 0.01124
#
# Static dielectric constant tensor:
#      x y z
#    x 1.866820 0.000000 0.000000 
#    y 0.000000 3.579320 0.000000 
#    z 0.000000 0.000000 1.893320 
# 
# From -- ./inp_files/13167.got.cif
#   From: 2010.05.17/outbox.cif.g08.bks.cpg/sg23_7_cif.got.tgz:13167.got - 2010.06.04 12:02:01.
