data_PCOD9330693
_publ_section_title
;
Structure prediction by ZEFSAII (Michael W. Deem and Ramdas Pophale) SiO2 
 PCOD9330693
Probable space group: I 2 2 2
;
_chemical_formula_sum "Si O2"
_cell_formula_units_Z 60
_cell_length_a 11.567232
_cell_length_b 11.614161
_cell_length_c 19.668935
_cell_angle_alpha 90.000000
_cell_angle_beta 90.000000
_cell_angle_gamma 90.000000
_cell_volume 2642.397400
_symmetry_space_group_name_H-M "I 2 2 2"
_symmetry_group_IT_number 23
_symmetry_cell_setting 'orthorhombic'
loop_
_space_group_symop_operation_xyz
x,y,z
-x,-y,z
x,-y,-z
-x,y,-z
1/2+x,1/2+y,1/2+z
1/2-x,1/2-y,1/2+z
1/2+x,1/2-y,1/2-z
1/2-x,1/2+y,1/2-z
loop_
_atom_site_type_symbol
_atom_site_label
_atom_site_fract_x
_atom_site_fract_y
_atom_site_fract_z
Si Si1 0.875472 0.444339 0.838305
Si Si2 0.071015 0.305884 0.432470
Si Si3 0.165682 0.468314 0.314309
Si Si4 0.117936 0.187080 0.124444
Si Si5 0.000000 0.239550 0.000000
Si Si6 0.887641 0.149065 0.198326
Si Si7 0.296642 0.834980 0.590579
Si Si8 0.876003 0.285114 0.333089
O O1 0.850021 0.410188 0.759876
O O2 0.887521 0.326213 0.877453
O O3 0.792835 0.537387 0.876081
O O4 0.000000 0.500000 0.840070
O O5 0.119236 0.408072 0.383144
O O6 0.177881 0.217097 0.440702
O O7 0.000000 0.342582 0.500000
O O8 0.970934 0.249576 0.386856
O O9 0.306446 0.459621 0.319081
O O10 0.099700 0.588707 0.302271
O O11 0.066902 0.155512 0.051934
O O12 0.253917 0.177777 0.134809
O O13 0.022313 0.145227 0.178694
O O14 0.901181 0.315303 0.037434
O O15 0.830866 0.250917 0.153142
O O16 0.874528 0.190096 0.275419
#
# Coordination Sequence:
#
# PCOD9330693 Si02
#       8
#     8   8   8   8   4   8   8   8
#     4  12  19  37  65 103 124 167 226 281 338 410
#     4  11  25  45  64  95 137 182 225 276 346 426
#     4  11  23  39  66  97 131 171 230 282 342 410
#     4  11  23  37  62  92 128 169 222 269 342 409
#     4  10  20  41  60  93 128 168 210 269 336 395
#     4  10  21  38  60  95 130 168 220 292 342 397
#     4  10  22  38  67  96 133 169 223 285 329 407
#     4  12  23  39  66  93 128 178 222 283 343 413
#
# _framework density 22.706652999999999
#
# number of rings (size 3 to 8) (size 9 to 14) (size 15 to 20)
#    0.000    1.067    5.333    2.800    1.867    2.667 
#    0.000    0.667    0.000    8.000    0.000    0.000 
#    0.000    0.000    0.000    0.000    0.000    0.000 
#
# Total GULP energy -167214.827459 kJ/mol
# GULP energy per Si atom -5573.827582 kJ/mol
# Density = 2.265497 g / cm^3
# Si number density = 22.706653 Si / 1000 Ang^3
#
#
#
# Elastic Constant Matrix: (Units=GPa)
#
#
# Indices 1 2 3 4 5 6 
#
# 1 147.0705 18.8497 34.4506 0.0000 0.0000 0.0000
# 2 18.8497 39.4253 -10.6049 0.0000 0.0000 0.0000
# 3 34.4506 -10.6049 101.2315 0.0000 0.0000 0.0000
# 4 0.0000 0.0000 0.0000 9.1984 0.0000 0.0000
# 5 0.0000 0.0000 0.0000 0.0000 15.4229 0.0000
# 6 0.0000 0.0000 0.0000 0.0000 0.0000 27.7918
#
#
#
# Elastic Compliance Matrix: (Units=1/GPa)
#
#
# Indices 1 2 3 4 5 6 
#
# 1 0.008185 -0.004798 -0.003288 0.000000 0.000000 0.000000
# 2 -0.004798 0.028912 0.004661 0.000000 0.000000 0.000000
# 3 -0.003288 0.004661 0.011486 0.000000 0.000000 0.000000
# 4 0.000000 0.000000 0.000000 0.108714 0.000000 0.000000
# 5 0.000000 0.000000 0.000000 0.000000 0.064839 0.000000
# 6 0.000000 0.000000 0.000000 0.000000 0.000000 0.035982
#
#
# Mechanical properties :
#
#
# Convention : Reuss Voigt Hill
#
# Bulk Modulus (GPa) = 23.96114 41.45758 32.70936
# Shear Modulus (GPa) = 17.92910 26.81807 22.37359
#
# Velocity S-wave (km/s) = 2.81302 3.44039 3.14240
# Velocity P-wave (km/s) = 4.59632 5.83775 5.25383
#
# Compressibility (1/GPa) = 0.04173425
#
# Stress axis : x y z
#
# Youngs Moduli (GPa) = 122.18181 34.58765 87.06552
#
# Poissons Ratio (x) = 0.16594 0.28626
# Poissons Ratio (y) = 0.58617 -0.40585
# Poissons Ratio (z) = 0.40172 -0.16123
#
# Static dielectric constant tensor:
#      x y z
#    x 1.959340 0.000000 0.000000 
#    y 0.000000 2.668410 0.000000 
#    z 0.000000 0.000000 2.076480 
# 
# From -- ./inp_files/26770.got.cif
#   From: 2010.05.17/outbox.cif.g08.bks.cpg/sg23_14_cif.got.tgz:26770.got - 2010.06.04 12:02:01.
