data_PCOD9330975
_publ_section_title
;
Structure prediction by ZEFSAII (Michael W. Deem and Ramdas Pophale) SiO2 
 PCOD9330975
Probable space group: I 2 2 2
;
_chemical_formula_sum "Si O2"
_cell_formula_units_Z 40
_cell_length_a 15.103416
_cell_length_b 8.026725
_cell_length_c 15.122530
_cell_angle_alpha 90.000000
_cell_angle_beta 90.000000
_cell_angle_gamma 90.000000
_cell_volume 1833.318932
_symmetry_space_group_name_H-M "I 2 2 2"
_symmetry_group_IT_number 23
_symmetry_cell_setting 'orthorhombic'
loop_
_space_group_symop_operation_xyz
x,y,z
-x,-y,z
x,-y,-z
-x,y,-z
1/2+x,1/2+y,1/2+z
1/2-x,1/2-y,1/2+z
1/2+x,1/2-y,1/2-z
1/2-x,1/2+y,1/2-z
loop_
_atom_site_type_symbol
_atom_site_label
_atom_site_fract_x
_atom_site_fract_y
_atom_site_fract_z
Si Si1 0.773461 0.005578 0.178999
Si Si2 0.000000 0.500000 0.155147
Si Si3 0.558275 0.661017 0.740353
Si Si4 0.623948 0.349731 0.060785
Si Si5 0.185928 0.617556 0.146583
Si Si6 0.662137 0.000000 0.000000
O O1 0.849071 0.868334 0.190544
O O2 0.710958 0.985695 0.264729
O O3 0.720638 0.982354 0.088549
O O4 0.817827 0.188404 0.176293
O O5 0.017092 0.335426 0.213013
O O6 0.093524 0.547192 0.108911
O O7 0.500000 0.500000 0.717721
O O8 0.577898 0.656281 0.844376
O O9 0.728556 0.381816 0.082959
O O10 0.611720 0.172800 0.013514
O O11 0.594907 0.500000 0.000000
#
# Coordination Sequence:
#
# PCOD9330975 Si02
#       6
#     8   4   8   8   8   4
#     4  10  21  41  64  91 126 168 214 259 318 383
#     4  12  22  38  67  95 124 164 222 264 312 367
#     4  11  24  42  64  94 130 168 213 261 317 386
#     4  10  24  41  64  93 127 170 208 260 322 382
#     4  10  21  38  64  93 122 168 215 257 315 383
#     4  10  22  38  65  95 122 160 218 266 310 371
#
# _framework density 21.818352000000001
#
# number of rings (size 3 to 8) (size 9 to 14) (size 15 to 20)
#    0.000    1.600    2.000    3.600    8.400    2.000 
#    0.000    1.000    0.000    5.400    0.000    0.000 
#    0.000    0.000    0.000    0.000    0.000    0.000 
#
# Total GULP energy -111780.577035 kJ/mol
# GULP energy per Si atom -5589.028852 kJ/mol
# Density = 2.176869 g / cm^3
# Si number density = 21.818352 Si / 1000 Ang^3
#
#
#
# Elastic Constant Matrix: (Units=GPa)
#
#
# Indices 1 2 3 4 5 6 
#
# 1 100.4403 27.8506 7.2490 0.0000 0.0000 0.0000
# 2 27.8506 161.0258 48.2604 0.0000 0.0000 0.0000
# 3 7.2490 48.2604 49.7929 0.0000 0.0000 0.0000
# 4 0.0000 0.0000 0.0000 26.2615 0.0000 0.0000
# 5 0.0000 0.0000 0.0000 0.0000 27.6989 0.0000
# 6 0.0000 0.0000 0.0000 0.0000 0.0000 -41.1083
#
#
#
# Elastic Compliance Matrix: (Units=1/GPa)
#
#
# Indices 1 2 3 4 5 6 
#
# 1 0.010461 -0.001907 0.000325 0.000000 0.000000 0.000000
# 2 -0.001907 0.009100 -0.008543 0.000000 0.000000 0.000000
# 3 0.000325 -0.008543 0.028316 0.000000 0.000000 0.000000
# 4 0.000000 0.000000 0.000000 0.038079 0.000000 0.000000
# 5 0.000000 0.000000 0.000000 0.000000 0.036103 0.000000
# 6 0.000000 0.000000 0.000000 0.000000 0.000000 -0.024326
#
#
# Mechanical properties :
#
#
# Convention : Reuss Voigt Hill
#
# Bulk Modulus (GPa) = 36.19427 53.10876 44.65152
# Shear Modulus (GPa) = 39.31114 17.76368 28.53741
#
# Velocity S-wave (km/s) = 4.24930 2.85645 3.62049
# Velocity P-wave (km/s) = 6.37968 5.93913 6.16334
#
# Compressibility (1/GPa) = 0.02762868
#
# Stress axis : x y z
#
# Youngs Moduli (GPa) = 95.58921 109.88718 35.31631
#
# Poissons Ratio (x) = 0.20954 -0.01148
# Poissons Ratio (y) = 0.18227 0.30169
# Poissons Ratio (z) = -0.03108 0.93872
#
# Static dielectric constant tensor:
#      x y z
#    x 1.846010 0.000000 0.000000 
#    y 0.000000 1.775910 0.000000 
#    z 0.000000 0.000000 1.752830 
# 
# From -- ./inp_files/9626.got.cif
#   From: 2010.05.17/outbox.cif.g08.bks.cpg/sg23_5_cif.got.tgz:9626.got - 2010.06.04 12:02:01.
