data_PCOD9330337
_publ_section_title
;
Structure prediction by ZEFSAII (Michael W. Deem and Ramdas Pophale) SiO2 
 PCOD9330337
Probable space group: I 2 2 2
;
_chemical_formula_sum "Si O2"
_cell_formula_units_Z 56
_cell_length_a 20.274337
_cell_length_b 7.837875
_cell_length_c 15.975677
_cell_angle_alpha 90.000000
_cell_angle_beta 90.000000
_cell_angle_gamma 90.000000
_cell_volume 2538.658393
_symmetry_space_group_name_H-M "I 2 2 2"
_symmetry_group_IT_number 23
_symmetry_cell_setting 'orthorhombic'
loop_
_space_group_symop_operation_xyz
x,y,z
-x,-y,z
x,-y,-z
-x,y,-z
1/2+x,1/2+y,1/2+z
1/2-x,1/2-y,1/2+z
1/2+x,1/2-y,1/2-z
1/2-x,1/2+y,1/2-z
loop_
_atom_site_type_symbol
_atom_site_label
_atom_site_fract_x
_atom_site_fract_y
_atom_site_fract_z
Si Si1 0.000000 0.804521 0.900742
Si Si2 0.859540 0.694765 0.839763
Si Si3 0.073865 0.203526 0.677083
Si Si4 0.926135 0.203528 0.677082
Si Si5 0.140461 0.694764 0.839762
Si Si6 0.873292 0.791418 0.500000
Si Si7 0.719742 0.209257 0.500000
O O1 0.933767 0.711176 0.874516
O O2 0.066234 0.711178 0.874517
O O3 0.000000 0.000000 0.866254
O O4 0.000000 0.816228 0.000000
O O5 0.869693 0.764182 0.746176
O O6 0.838525 0.500001 0.830618
O O7 0.814823 0.771977 0.914033
O O8 0.093127 0.269636 0.585496
O O9 0.000000 0.266657 0.701000
O O10 0.069327 0.999999 0.670659
O O11 0.869693 0.235821 0.746175
O O12 0.906874 0.269636 0.585495
O O13 0.185178 0.771976 0.914032
O O14 0.796314 0.747577 0.499999
O O15 0.877141 0.000000 0.500000
O O16 0.712864 0.000000 0.500000
#
# Coordination Sequence:
#
# PCOD9330337 Si02
#       7
#     8   8   8   8   8   8   8
#     4  11  21  33  53  82 113 144 183 231 278 326
#     4  11  21  34  55  83 115 149 181 223 280 338
#     4  10  20  35  58  86 110 141 189 240 281 323
#     4  10  20  35  58  86 110 141 189 240 281 323
#     4  11  21  34  55  83 115 149 181 223 280 338
#     4   9  19  38  59  77 108 152 194 234 274 324
#     4   9  20  36  54  80 113 152 191 219 268 343
#
# _framework density 22.058896000000001
#
# number of rings (size 3 to 8) (size 9 to 14) (size 15 to 20)
#    0.000    1.857    2.857    1.714    0.000    3.429 
#    0.000    0.714    0.000    6.857    0.000    0.000 
#    0.000    0.000    0.000    0.000    0.000    0.000 
#
# Total GULP energy -156223.242330 kJ/mol
# GULP energy per Si atom -5579.401512 kJ/mol
# Density = 2.200869 g / cm^3
# Si number density = 22.058896 Si / 1000 Ang^3
#
#
#
# Elastic Constant Matrix: (Units=GPa)
#
#
# Indices 1 2 3 4 5 6 
#
# 1 64.8456 1.9428 43.9757 0.0000 0.0000 0.0000
# 2 1.9428 26.4014 14.7849 0.0000 0.0000 0.0000
# 3 43.9757 14.7849 186.5612 0.0000 0.0000 0.0000
# 4 0.0000 0.0000 0.0000 49.8885 0.0000 0.0000
# 5 0.0000 0.0000 0.0000 0.0000 26.6088 0.0000
# 6 0.0000 0.0000 0.0000 0.0000 0.0000 9.1271
#
#
#
# Elastic Compliance Matrix: (Units=1/GPa)
#
#
# Indices 1 2 3 4 5 6 
#
# 1 0.018387 0.001124 -0.004423 0.000000 0.000000 0.000000
# 2 0.001124 0.039705 -0.003412 0.000000 0.000000 0.000000
# 3 -0.004423 -0.003412 0.006673 0.000000 0.000000 0.000000
# 4 0.000000 0.000000 0.000000 0.020045 0.000000 0.000000
# 5 0.000000 0.000000 0.000000 0.000000 0.037582 0.000000
# 6 0.000000 0.000000 0.000000 0.000000 0.000000 0.109564
#
#
# Mechanical properties :
#
#
# Convention : Reuss Voigt Hill
#
# Bulk Modulus (GPa) = 19.47671 44.35721 31.91696
# Shear Modulus (GPa) = 19.04826 31.59853 25.32339
#
# Velocity S-wave (km/s) = 2.94176 3.78889 3.39188
# Velocity P-wave (km/s) = 4.51521 6.26842 5.46261
#
# Compressibility (1/GPa) = 0.05134338
#
# Stress axis : x y z
#
# Youngs Moduli (GPa) = 54.38547 25.18605 149.85378
#
# Poissons Ratio (x) = -0.02831 0.66284
# Poissons Ratio (y) = -0.06113 0.51123
# Poissons Ratio (z) = 0.24056 0.08592
#
# Static dielectric constant tensor:
#      x y z
#    x 1.765120 0.000000 0.000000 
#    y 0.000000 1.848960 0.000000 
#    z 0.000000 0.000000 1.860840 
# 
# From -- ./inp_files/22416.got.cif
#   From: 2010.05.17/outbox.cif.g08.bks.cpg/sg23_12_cif.got.tgz:22416.got - 2010.06.04 12:02:01.
