data_PCOD9330655
_publ_section_title
;
Structure prediction by ZEFSAII (Michael W. Deem and Ramdas Pophale) SiO2 
 PCOD9330655
Probable space group: I 2 2 2
;
_chemical_formula_sum "Si O2"
_cell_formula_units_Z 32
_cell_length_a 5.059929
_cell_length_b 15.761889
_cell_length_c 17.008141
_cell_angle_alpha 90.000000
_cell_angle_beta 90.000000
_cell_angle_gamma 90.000000
_cell_volume 1356.467945
_symmetry_space_group_name_H-M "I 2 2 2"
_symmetry_group_IT_number 23
_symmetry_cell_setting 'orthorhombic'
loop_
_space_group_symop_operation_xyz
x,y,z
-x,-y,z
x,-y,-z
-x,y,-z
1/2+x,1/2+y,1/2+z
1/2-x,1/2-y,1/2+z
1/2+x,1/2-y,1/2-z
1/2-x,1/2+y,1/2-z
loop_
_atom_site_type_symbol
_atom_site_label
_atom_site_fract_x
_atom_site_fract_y
_atom_site_fract_z
Si Si1 0.883524 0.597954 0.797226
Si Si2 0.626181 0.090448 0.878823
Si Si3 0.500000 0.500000 0.000000
Si Si4 0.500000 0.500000 0.500000
Si Si5 0.648289 0.357408 0.892374
Si Si6 0.000000 0.713003 0.500000
O O1 0.797786 0.619541 0.708008
O O2 0.639709 0.623674 0.853733
O O3 0.000000 0.500000 0.802060
O O4 0.137467 0.650152 0.824744
O O5 0.500000 0.000000 0.863429
O O6 0.429869 0.151988 0.926733
O O7 0.845317 0.063759 0.942021
O O8 0.681005 0.560085 0.053175
O O9 0.680360 0.278813 0.951876
#
# Coordination Sequence:
#
# PCOD9330655 Si02
#       6
#     8   8   2   2   8   4
#     4  11  24  44  71 102 139 188 237 292 357 426
#     4  11  25  45  71 101 139 182 242 295 359 424
#     4  10  20  40  62  98 134 184 234 278 340 438
#     4  12  22  42  80 106 132 200 238 308 358 430
#     4  11  25  42  70 101 142 188 229 296 357 425
#     4  11  25  47  65 104 142 180 237 293 361 427
#
# _framework density 23.590678
#
# number of rings (size 3 to 8) (size 9 to 14) (size 15 to 20)
#    0.000    1.000    5.000    0.000    7.000    9.000 
#    0.000    0.000    0.000    0.000    0.000    0.000 
#    0.000    0.000    0.000    0.000    0.000    0.000 
#
# Total GULP energy -89126.911410 kJ/mol
# GULP energy per Si atom -5570.431963 kJ/mol
# Density = 2.353698 g / cm^3
# Si number density = 23.590678 Si / 1000 Ang^3
#
#
#
# Elastic Constant Matrix: (Units=GPa)
#
#
# Indices 1 2 3 4 5 6 
#
# 1 96.3997 3.2853 37.0789 0.0000 0.0000 0.0000
# 2 3.2853 89.0517 40.9640 0.0000 0.0000 0.0000
# 3 37.0789 40.9640 160.1160 0.0000 0.0000 0.0000
# 4 0.0000 0.0000 0.0000-4899.6291 0.0003 0.0000
# 5 0.0000 0.0000 0.0000 0.0003 -515.9009 0.0000
# 6 0.0000 0.0000 0.0000 0.0000 0.0000 4.0829
#
#
#
# Elastic Compliance Matrix: (Units=1/GPa)
#
#
# Indices 1 2 3 4 5 6 
#
# 1 0.011452 0.000904 -0.002883 0.000000 0.000000 0.000000
# 2 0.000904 0.012799 -0.003484 0.000000 0.000000 0.000000
# 3 -0.002883 -0.003484 0.007804 0.000000 0.000000 0.000000
# 4 0.000000 0.000000 0.000000 -0.000204 0.000000 0.000000
# 5 0.000000 0.000000 0.000000 0.000000 -0.001938 0.000000
# 6 0.000000 0.000000 0.000000 0.000000 0.000000 0.244922
#
#
# Mechanical properties :
#
#
# Convention : Reuss Voigt Hill
#
# Bulk Modulus (GPa) = 47.32933 56.46931 51.89932
# Shear Modulus (GPa) = 17.07635 -1064.67346 -523.79856
#
# Velocity S-wave (km/s) = 2.69338 -21.26713 -14.91705
# Velocity P-wave (km/s) = 5.45699 24.06378 16.57237
#
# Compressibility (1/GPa) = 0.02112855
#
# Stress axis : x y z
#
# Youngs Moduli (GPa) = 87.32380 78.13356 128.13283
#
# Poissons Ratio (x) = -0.07062 0.36942
# Poissons Ratio (y) = -0.07892 0.44637
# Poissons Ratio (z) = 0.25177 0.27219
#
# Static dielectric constant tensor:
#      x y z
#    x 2.121640 0.000000 0.000000 
#    y 0.000000 2.005330 0.000000 
#    z 0.000000 0.000000 1.963990 
# 
# From -- ./inp_files/18996.got.cif
#   From: 2010.05.17/outbox.cif.g08.bks.cpg/sg23_10_cif.got.tgz:18996.got - 2010.06.04 12:02:01.
