data_PCOD9330052
_publ_section_title
;
Structure prediction by ZEFSAII (Michael W. Deem and Ramdas Pophale) SiO2 
 PCOD9330052
Probable space group: I 2 2 2
;
_chemical_formula_sum "Si O2"
_cell_formula_units_Z 40
_cell_length_a 7.992678
_cell_length_b 13.316271
_cell_length_c 17.125141
_cell_angle_alpha 90.000000
_cell_angle_beta 90.000000
_cell_angle_gamma 90.000000
_cell_volume 1822.674417
_symmetry_space_group_name_H-M "I 2 2 2"
_symmetry_group_IT_number 23
_symmetry_cell_setting 'orthorhombic'
loop_
_space_group_symop_operation_xyz
x,y,z
-x,-y,z
x,-y,-z
-x,y,-z
1/2+x,1/2+y,1/2+z
1/2-x,1/2-y,1/2+z
1/2+x,1/2-y,1/2-z
1/2-x,1/2+y,1/2-z
loop_
_atom_site_type_symbol
_atom_site_label
_atom_site_fract_x
_atom_site_fract_y
_atom_site_fract_z
Si Si1 0.772124 0.147208 0.093098
Si Si2 0.615215 0.142314 0.248641
Si Si3 0.500000 0.500000 0.500000
Si Si4 0.000000 0.743177 0.500000
Si Si5 0.174612 0.379818 0.863888
Si Si6 0.028460 0.841522 0.332270
Si Si7 0.000000 0.500000 0.000000
O O1 0.670290 0.098994 0.164968
O O2 0.830703 0.258766 0.120627
O O3 0.652558 0.173083 0.021679
O O4 0.905913 0.073414 0.059283
O O5 0.459814 0.100433 0.296764
O O6 0.547611 0.253040 0.222941
O O7 0.785743 0.139232 0.299821
O O8 0.042623 0.805675 0.422416
O O9 0.362604 0.411962 0.838500
O O10 0.115469 0.433462 0.942954
#
# Coordination Sequence:
#
# PCOD9330052 Si02
#       7
#     8   8   2   4   8   8   2
#     4  10  23  43  67  98 130 177 217 280 325 401
#     4  10  19  39  67  97 127 170 222 267 330 382
#     4  12  26  42  64 102 136 172 222 272 336 392
#     4   8  20  35  64  97 122 168 214 259 338 379
#     4  10  23  43  65  95 133 176 220 271 322 392
#     4  10  19  36  67 101 121 173 216 269 324 395
#     4  12  26  44  62  98 140 184 222 260 334 394
#
# _framework density 21.945772999999999
#
# number of rings (size 3 to 8) (size 9 to 14) (size 15 to 20)
#    0.000    2.400    4.000    0.600    8.400    0.400 
#    3.600    1.000    0.000    0.000    0.000    0.000 
#    0.000    0.000    0.000    0.000    0.000    0.000 
#
# Total GULP energy -111485.709310 kJ/mol
# GULP energy per Si atom -5574.285466 kJ/mol
# Density = 2.189582 g / cm^3
# Si number density = 21.945773 Si / 1000 Ang^3
#
#
#
# Elastic Constant Matrix: (Units=GPa)
#
#
# Indices 1 2 3 4 5 6 
#
# 1 159.1710 19.5427 70.9114 0.0000 0.0000 0.0000
# 2 19.5427 53.2273 30.5388 0.0000 0.0000 0.0000
# 3 70.9114 30.5388 114.9377 0.0000 0.0000 0.0000
# 4 0.0000 0.0000 0.0000 -0.9210 0.0000 0.0000
# 5 0.0000 0.0000 0.0000 0.0000 54.4541 0.0000
# 6 0.0000 0.0000 0.0000 0.0000 0.0000 -26.7486
#
#
#
# Elastic Compliance Matrix: (Units=1/GPa)
#
#
# Indices 1 2 3 4 5 6 
#
# 1 0.008665 -0.000135 -0.005310 0.000000 0.000000 0.000000
# 2 -0.000135 0.022169 -0.005807 0.000000 0.000000 0.000000
# 3 -0.005310 -0.005807 0.013519 0.000000 0.000000 0.000000
# 4 0.000000 0.000000 0.000000 -1.085815 0.000000 0.000000
# 5 0.000000 0.000000 0.000000 0.000000 0.018364 0.000000
# 6 0.000000 0.000000 0.000000 0.000000 0.000000 -0.037385
#
#
# Mechanical properties :
#
#
# Convention : Reuss Voigt Hill
#
# Bulk Modulus (GPa) = 45.76842 63.25798 54.51320
# Shear Modulus (GPa) = -4.85109 19.11312 7.13102
#
# Velocity S-wave (km/s) = -1.48838 2.95435 1.80456
# Velocity P-wave (km/s) = 4.23637 6.36591 5.40701
#
# Compressibility (1/GPa) = 0.02184913
#
# Stress axis : x y z
#
# Youngs Moduli (GPa) = 115.41093 45.10892 73.96847
#
# Poissons Ratio (x) = 0.00608 0.39277
# Poissons Ratio (y) = 0.01555 0.42954
# Poissons Ratio (z) = 0.61282 0.26195
#
# Static dielectric constant tensor:
#      x y z
#    x 2.217860 0.000000 0.000000 
#    y 0.000000 1.884910 0.000000 
#    z 0.000000 0.000000 1.855240 
# 
# From -- ./inp_files/19808.got.cif
#   From: 2010.05.17/outbox.cif.g08.bks.cpg/sg23_10_cif.got.tgz:19808.got - 2010.06.04 12:02:01.
