data_PCOD9330848
_publ_section_title
;
Structure prediction by ZEFSAII (Michael W. Deem and Ramdas Pophale) SiO2 
 PCOD9330848
Probable space group: I 2 2 2
;
_chemical_formula_sum "Si O2"
_cell_formula_units_Z 40
_cell_length_a 8.921005
_cell_length_b 27.704677
_cell_length_c 7.780689
_cell_angle_alpha 90.000000
_cell_angle_beta 90.000000
_cell_angle_gamma 90.000000
_cell_volume 1923.025001
_symmetry_space_group_name_H-M "I 2 2 2"
_symmetry_group_IT_number 23
_symmetry_cell_setting 'orthorhombic'
loop_
_space_group_symop_operation_xyz
x,y,z
-x,-y,z
x,-y,-z
-x,y,-z
1/2+x,1/2+y,1/2+z
1/2-x,1/2-y,1/2+z
1/2+x,1/2-y,1/2-z
1/2-x,1/2+y,1/2-z
loop_
_atom_site_type_symbol
_atom_site_label
_atom_site_fract_x
_atom_site_fract_y
_atom_site_fract_z
Si Si1 0.821699 0.447444 0.030902
Si Si2 0.168742 0.816446 0.932519
Si Si3 0.612393 0.898306 0.120029
Si Si4 0.627924 0.146318 0.356156
Si Si5 0.173680 0.779286 0.540712
O O1 0.814070 0.428365 0.225359
O O2 0.752500 0.500000 0.000000
O O3 0.784682 0.403653 0.901353
O O4 0.000000 0.452006 0.000000
O O5 0.255909 0.866511 0.960419
O O6 0.183731 0.803927 0.728811
O O7 0.247375 0.772386 0.031089
O O8 0.000000 0.819533 0.000000
O O9 0.484689 0.861652 0.197192
O O10 0.500000 0.929161 0.000000
O O11 0.500000 0.154607 0.500000
O O12 0.745193 0.188210 0.395132
O O13 0.000000 0.773496 0.500000
#
# Coordination Sequence:
#
# PCOD9330848 Si02
#       5
#     8   8   8   8   8
#     4   8  15  34  61  88 120 150 198 256 316 374
#     4  12  26  40  58  89 130 175 219 264 314 383
#     4  10  21  36  60  94 124 164 204 268 322 373
#     4   9  18  38  59  82 126 161 206 254 310 378
#     4  12  25  39  59  88 126 172 223 265 316 373
#
# _framework density 20.800560999999998
#
# number of rings (size 3 to 8) (size 9 to 14) (size 15 to 20)
#    0.000    2.200    4.000    2.400    8.400    0.000 
#    0.000    8.000    0.000    0.600    0.000    1.400 
#    0.000    0.000    0.000    0.000    0.000    0.000 
#
# Total GULP energy -111428.620078 kJ/mol
# GULP energy per Si atom -5571.431004 kJ/mol
# Density = 2.075322 g / cm^3
# Si number density = 20.800561 Si / 1000 Ang^3
#
#
#
# Elastic Constant Matrix: (Units=GPa)
#
#
# Indices 1 2 3 4 5 6 
#
# 1 105.9020 44.1067 22.4799 0.0091 0.0000 -0.0004
# 2 44.1067 116.7305 7.1200 0.0285 -0.0004 -0.0003
# 3 22.4799 7.1200 42.8844 0.1237 -0.0033 -0.0091
# 4 0.0091 0.0285 0.1237 579.6457 -0.0090 -0.0364
# 5 0.0000 -0.0004 -0.0033 -0.0090 25.3872 0.0017
# 6 -0.0004 -0.0003 -0.0091 -0.0364 0.0017 -2.9306
#
#
#
# Elastic Compliance Matrix: (Units=1/GPa)
#
#
# Indices 1 2 3 4 5 6 
#
# 1 0.012498 -0.004367 -0.005827 0.000001 -0.000001 0.000017
# 2 -0.004367 0.010180 0.000599 -0.000001 0.000000 -0.000002
# 3 -0.005827 0.000599 0.026273 -0.000006 0.000003 -0.000081
# 4 0.000001 -0.000001 -0.000006 0.001725 0.000001 -0.000021
# 5 -0.000001 0.000000 0.000003 0.000001 0.039390 0.000023
# 6 0.000017 -0.000002 -0.000081 -0.000021 0.000023 -0.341231
#
#
# Mechanical properties :
#
#
# Convention : Reuss Voigt Hill
#
# Bulk Modulus (GPa) = 33.59907 45.88110 39.74009
# Shear Modulus (GPa) = -22.51705 133.20782 55.34539
#
# Velocity S-wave (km/s) = -3.29374 8.01121 5.16386
# Velocity P-wave (km/s) = 1.31266 10.37681 7.39599
#
# Compressibility (1/GPa) = 0.02976273
#
# Stress axis : x y z
#
# Youngs Moduli (GPa) = 80.01060 98.22867 38.06140
#
# Poissons Ratio (x) = 0.42898 0.22177
# Poissons Ratio (y) = 0.34942 -0.02280
# Poissons Ratio (z) = 0.46619 -0.05884
#
# Static dielectric constant tensor:
#      x y z
#    x 1.494470 -0.000060 -0.000010 
#    y -0.000060 1.845300 0.000000 
#    z -0.000010 0.000000 1.971360 
# 
# From -- ./inp_files/7078.got.cif
#   From: 2010.05.17/outbox.cif.g08.bks.cpg/sg23_4_cif.got.tgz:7078.got - 2010.06.04 12:02:01.
