data_PCOD9330543
_publ_section_title
;
Structure prediction by ZEFSAII (Michael W. Deem and Ramdas Pophale) SiO2 
 PCOD9330543
Probable space group: I 2 2 2
;
_chemical_formula_sum "Si O2"
_cell_formula_units_Z 48
_cell_length_a 32.969928
_cell_length_b 8.046375
_cell_length_c 8.804237
_cell_angle_alpha 90.000000
_cell_angle_beta 90.000000
_cell_angle_gamma 90.000000
_cell_volume 2335.661986
_symmetry_space_group_name_H-M "I 2 2 2"
_symmetry_group_IT_number 23
_symmetry_cell_setting 'orthorhombic'
loop_
_space_group_symop_operation_xyz
x,y,z
-x,-y,z
x,-y,-z
-x,y,-z
1/2+x,1/2+y,1/2+z
1/2-x,1/2-y,1/2+z
1/2+x,1/2-y,1/2-z
1/2-x,1/2+y,1/2-z
loop_
_atom_site_type_symbol
_atom_site_label
_atom_site_fract_x
_atom_site_fract_y
_atom_site_fract_z
Si Si1 0.708971 0.426995 0.736283
Si Si2 0.409345 0.165651 0.907299
Si Si3 0.123348 0.154969 0.696457
Si Si4 0.455863 0.540152 0.180908
Si Si5 0.275101 0.230397 0.576912
Si Si6 0.147029 0.491019 0.163782
O O1 0.662151 0.458871 0.777641
O O2 0.724961 0.602500 0.676878
O O3 0.716333 0.298188 0.593749
O O4 0.732804 0.356732 0.881636
O O5 0.444658 0.265711 0.822760
O O6 0.376487 0.117135 0.784532
O O7 0.387735 0.288192 0.026904
O O8 0.422259 0.000000 0.000000
O O9 0.140815 0.323164 0.773117
O O10 0.081633 0.066484 0.749668
O O11 0.500000 0.500000 0.246303
O O12 0.457830 0.500000 0.000000
O O13 0.309902 0.100663 0.632587
O O14 0.126479 0.500000 0.000000
#
# Coordination Sequence:
#
# PCOD9330543 Si02
#       6
#     8   8   8   8   8   8
#     4  11  24  41  59  88 122 159 212 259 321 374
#     4   9  20  36  61  92 118 159 201 254 314 377
#     4  10  20  38  62  89 119 160 203 258 314 375
#     4   9  18  37  63  95 126 156 203 260 318 379
#     4  11  25  40  59  86 117 167 207 263 313 378
#     4  11  21  39  59  85 122 162 209 254 314 373
#
# _framework density 20.550920000000001
#
# number of rings (size 3 to 8) (size 9 to 14) (size 15 to 20)
#    0.000    1.833    1.667    2.000    2.333    0.000 
#    0.000   14.167    0.000    3.000    0.000    0.000 
#    0.000    0.000    0.000    0.000    0.000    0.000 
#
# Total GULP energy -133721.024168 kJ/mol
# GULP energy per Si atom -5571.709340 kJ/mol
# Density = 2.050415 g / cm^3
# Si number density = 20.550920 Si / 1000 Ang^3
#
#
#
# Elastic Constant Matrix: (Units=GPa)
#
#
# Indices 1 2 3 4 5 6 
#
# 1 143.7810 53.2770 22.8824 0.0000 0.0000 0.0000
# 2 53.2770 80.3612 15.4801 0.0000 0.0000 0.0000
# 3 22.8824 15.4801 40.5124 0.0000 0.0000 0.0000
# 4 0.0000 0.0000 0.0000 21.8913 0.0000 0.0000
# 5 0.0000 0.0000 0.0000 0.0000 26.4149 0.0000
# 6 0.0000 0.0000 0.0000 0.0000 0.0000 -18.0879
#
#
#
# Elastic Compliance Matrix: (Units=1/GPa)
#
#
# Indices 1 2 3 4 5 6 
#
# 1 0.009595 -0.005740 -0.003226 0.000000 0.000000 0.000000
# 2 -0.005740 0.016866 -0.003203 0.000000 0.000000 0.000000
# 3 -0.003226 -0.003203 0.027730 0.000000 0.000000 0.000000
# 4 0.000000 0.000000 0.000000 0.045680 0.000000 0.000000
# 5 0.000000 0.000000 0.000000 0.000000 0.037857 0.000000
# 6 0.000000 0.000000 0.000000 0.000000 0.000000 -0.055286
#
#
# Mechanical properties :
#
#
# Convention : Reuss Voigt Hill
#
# Bulk Modulus (GPa) = 33.49697 49.77040 41.63369
# Shear Modulus (GPa) = 42.83287 17.57799 30.20543
#
# Velocity S-wave (km/s) = 4.57029 2.92779 3.83794
# Velocity P-wave (km/s) = 6.64718 5.97494 6.32000
#
# Compressibility (1/GPa) = 0.02985344
#
# Stress axis : x y z
#
# Youngs Moduli (GPa) = 104.21668 59.29037 36.06217
#
# Poissons Ratio (x) = 0.34032 0.11635
# Poissons Ratio (y) = 0.59820 0.11549
# Poissons Ratio (z) = 0.33625 0.18988
#
# Static dielectric constant tensor:
#      x y z
#    x 1.755370 0.000000 0.000000 
#    y 0.000000 1.207960 0.000000 
#    z 0.000000 0.000000 1.878490 
# 
# From -- ./inp_files/13339.got.cif
#   From: 2010.05.17/outbox.cif.g08.bks.cpg/sg23_7_cif.got.tgz:13339.got - 2010.06.04 12:02:01.
