data_PCOD9330966
_publ_section_title
;
Structure prediction by ZEFSAII (Michael W. Deem and Ramdas Pophale) SiO2 
 PCOD9330966
Probable space group: I 2 2 2
;
_chemical_formula_sum "Si O2"
_cell_formula_units_Z 64
_cell_length_a 25.410906
_cell_length_b 13.192601
_cell_length_c 8.930457
_cell_angle_alpha 90.000000
_cell_angle_beta 90.000000
_cell_angle_gamma 90.000000
_cell_volume 2993.810182
_symmetry_space_group_name_H-M "I 2 2 2"
_symmetry_group_IT_number 23
_symmetry_cell_setting 'orthorhombic'
loop_
_space_group_symop_operation_xyz
x,y,z
-x,-y,z
x,-y,-z
-x,y,-z
1/2+x,1/2+y,1/2+z
1/2-x,1/2-y,1/2+z
1/2+x,1/2-y,1/2-z
1/2-x,1/2+y,1/2-z
loop_
_atom_site_type_symbol
_atom_site_label
_atom_site_fract_x
_atom_site_fract_y
_atom_site_fract_z
Si Si1 0.437455 0.021192 0.835730
Si Si2 0.249965 0.733543 0.453560
Si Si3 0.701140 0.558012 0.357521
Si Si4 0.593083 0.392208 0.077957
Si Si5 0.930137 0.665908 0.871950
Si Si6 0.214515 0.874963 0.679751
Si Si7 0.859238 0.785119 0.673693
Si Si8 0.545614 0.769431 0.711983
O O1 0.429526 0.139519 0.807343
O O2 0.500000 0.000000 0.847312
O O3 0.424154 0.948883 0.692783
O O4 0.413636 0.000000 0.000000
O O5 0.264910 0.646635 0.570140
O O6 0.250383 0.839293 0.542565
O O7 0.284492 0.713138 0.306425
O O8 0.189472 0.728800 0.402438
O O9 0.675713 0.500000 0.500000
O O10 0.733357 0.474696 0.265671
O O11 0.661454 0.609908 0.243343
O O12 0.654753 0.395837 0.128019
O O13 0.561370 0.338921 0.214857
O O14 0.577459 0.500000 0.000000
O O15 0.595312 0.311040 0.943228
O O16 0.879592 0.721668 0.810608
O O17 0.982821 0.712089 0.794525
O O18 0.936386 0.698677 0.044202
#
# Coordination Sequence:
#
# PCOD9330966 Si02
#       8
#     8   8   8   8   8   8   8   8
#     4   9  17  35  64  94 126 170 212 262 337 407
#     4  10  21  38  63  91 120 161 210 270 321 395
#     4  10  21  38  64  89 118 166 213 262 330 400
#     4  11  23  39  64  93 127 176 232 274 325 398
#     4  10  22  39  66  95 136 174 219 278 342 405
#     4  10  21  39  63  90 121 163 216 263 331 393
#     4  11  22  39  63  91 124 166 216 266 336 394
#     4  10  22  40  63  97 132 178 226 276 334 402
#
# _framework density 21.377441000000001
#
# number of rings (size 3 to 8) (size 9 to 14) (size 15 to 20)
#    0.000    1.875    2.500    1.125    3.500    3.000 
#    0.000   10.625    0.000    3.000    0.000    0.000 
#    0.000    0.000    0.000    0.000    0.000    0.000 
#
# Total GULP energy -178204.573819 kJ/mol
# GULP energy per Si atom -5568.892932 kJ/mol
# Density = 2.132878 g / cm^3
# Si number density = 21.377441 Si / 1000 Ang^3
#
#
#
# Elastic Constant Matrix: (Units=GPa)
#
#
# Indices 1 2 3 4 5 6 
#
# 1 8.3532 11.4773 15.8625 0.0000 0.0000 0.0000
# 2 11.4773 83.4491 43.5650 0.0000 0.0000 0.0000
# 3 15.8625 43.5650 110.2851 0.0000 0.0000 0.0000
# 4 0.0000 0.0000 0.0000 50.7732 0.0000 0.0000
# 5 0.0000 0.0000 0.0000 0.0000 21.2436 0.0000
# 6 0.0000 0.0000 0.0000 0.0000 0.0000 19.0654
#
#
#
# Elastic Compliance Matrix: (Units=1/GPa)
#
#
# Indices 1 2 3 4 5 6 
#
# 1 0.176626 -0.013896 -0.019915 0.000000 0.000000 0.000000
# 2 -0.013896 0.016190 -0.004397 0.000000 0.000000 0.000000
# 3 -0.019915 -0.004397 0.013669 0.000000 0.000000 0.000000
# 4 0.000000 0.000000 0.000000 0.019695 0.000000 0.000000
# 5 0.000000 0.000000 0.000000 0.000000 0.047073 0.000000
# 6 0.000000 0.000000 0.000000 0.000000 0.000000 0.052451
#
#
# Mechanical properties :
#
#
# Convention : Reuss Voigt Hill
#
# Bulk Modulus (GPa) = 7.68820 38.21076 22.94948
# Shear Modulus (GPa) = 11.22395 26.96195 19.09295
#
# Velocity S-wave (km/s) = 2.29385 3.55524 2.99178
# Velocity P-wave (km/s) = 3.25882 5.89628 4.76372
#
# Compressibility (1/GPa) = 0.13006937
#
# Stress axis : x y z
#
# Youngs Moduli (GPa) = 5.66168 61.76725 73.16002
#
# Poissons Ratio (x) = 0.85829 1.45701
# Poissons Ratio (y) = 0.07867 0.32166
# Poissons Ratio (z) = 0.11275 0.27157
#
# Static dielectric constant tensor:
#      x y z
#    x 1.753590 0.000000 0.000000 
#    y 0.000000 1.833150 0.000000 
#    z 0.000000 0.000000 1.885600 
# 
# From -- ./inp_files/13499.got.cif
#   From: 2010.05.17/outbox.cif.g08.bks.cpg/sg23_7_cif.got.tgz:13499.got - 2010.06.04 12:02:01.
