data_PCOD9330694
_publ_section_title
;
Structure prediction by ZEFSAII (Michael W. Deem and Ramdas Pophale) SiO2 
 PCOD9330694
Probable space group: I 2 2 2
;
_chemical_formula_sum "Si O2"
_cell_formula_units_Z 38
_cell_length_a 12.492934
_cell_length_b 10.817136
_cell_length_c 13.664776
_cell_angle_alpha 90.000000
_cell_angle_beta 90.000000
_cell_angle_gamma 90.000000
_cell_volume 1846.627303
_symmetry_space_group_name_H-M "I 2 2 2"
_symmetry_group_IT_number 23
_symmetry_cell_setting 'orthorhombic'
loop_
_space_group_symop_operation_xyz
x,y,z
-x,-y,z
x,-y,-z
-x,y,-z
1/2+x,1/2+y,1/2+z
1/2-x,1/2-y,1/2+z
1/2+x,1/2-y,1/2-z
1/2-x,1/2+y,1/2-z
loop_
_atom_site_type_symbol
_atom_site_label
_atom_site_fract_x
_atom_site_fract_y
_atom_site_fract_z
Si Si1 0.667564 0.500000 0.000000
Si Si2 0.686195 0.103011 0.079116
Si Si3 0.042787 0.816005 0.644182
Si Si4 0.207228 0.781368 0.401899
Si Si5 0.148515 0.916063 0.832600
Si Si6 0.000000 0.000000 0.000000
O O1 0.595337 0.596979 0.939800
O O2 0.737377 0.421968 0.923882
O O3 0.597999 0.180743 0.137525
O O4 0.773882 0.035158 0.147945
O O5 0.728933 0.205637 0.002638
O O6 0.645300 0.000000 0.000000
O O7 0.082666 0.791574 0.371941
O O8 0.072098 0.892768 0.740827
O O9 0.272784 0.701354 0.326174
O O10 0.073490 0.919749 0.928173
#
# Coordination Sequence:
#
# PCOD9330694 Si02
#       6
#     4   8   8   8   8   2
#     4  10  21  38  64  99 130 161 208 284 340 391
#     4   9  19  41  63  95 130 177 217 277 347 405
#     4  11  23  36  69  99 133 168 228 289 332 419
#     4  10  20  41  61  96 130 176 216 275 346 399
#     4  11  25  40  68  94 129 182 226 274 339 424
#     4  12  24  48  60  90 132 184 232 280 346 432
#
# _framework density 20.578056
#
# number of rings (size 3 to 8) (size 9 to 14) (size 15 to 20)
#    0.000    1.684    3.158    3.789    5.895    5.895 
#    0.000    0.000    0.000    0.632    0.000    0.000 
#    0.000    0.000    0.000    0.000    0.000    0.000 
#
# Total GULP energy -105777.060892 kJ/mol
# GULP energy per Si atom -5567.213731 kJ/mol
# Density = 2.053122 g / cm^3
# Si number density = 20.578056 Si / 1000 Ang^3
#
#
#
# Elastic Constant Matrix: (Units=GPa)
#
#
# Indices 1 2 3 4 5 6 
#
# 1 92.9552 60.5339 44.3953 0.0000 0.0000 0.0000
# 2 60.5339 123.4256 26.6463 0.0000 0.0000 0.0000
# 3 44.3953 26.6463 103.1583 0.0000 0.0000 0.0000
# 4 0.0000 0.0000 0.0000 23.8162 0.0000 0.0000
# 5 0.0000 0.0000 0.0000 0.0000 23.9983 0.0000
# 6 0.0000 0.0000 0.0000 0.0000 0.0000 36.7074
#
#
#
# Elastic Compliance Matrix: (Units=1/GPa)
#
#
# Indices 1 2 3 4 5 6 
#
# 1 0.018800 -0.007915 -0.006046 0.000000 0.000000 0.000000
# 2 -0.007915 0.011913 0.000329 0.000000 0.000000 0.000000
# 3 -0.006046 0.000329 0.012211 0.000000 0.000000 0.000000
# 4 0.000000 0.000000 0.000000 0.041988 0.000000 0.000000
# 5 0.000000 0.000000 0.000000 0.000000 0.041670 0.000000
# 6 0.000000 0.000000 0.000000 0.000000 0.000000 0.027242
#
#
# Mechanical properties :
#
#
# Convention : Reuss Voigt Hill
#
# Bulk Modulus (GPa) = 63.85928 64.74334 64.30131
# Shear Modulus (GPa) = 26.83721 29.43527 28.13624
#
# Velocity S-wave (km/s) = 3.61524 3.78619 3.70170
# Velocity P-wave (km/s) = 6.96611 7.11648 7.04170
#
# Compressibility (1/GPa) = 0.01565943
#
# Stress axis : x y z
#
# Youngs Moduli (GPa) = 53.19145 83.94244 81.89402
#
# Poissons Ratio (x) = 0.66441 0.49516
# Poissons Ratio (y) = 0.42102 -0.02696
# Poissons Ratio (z) = 0.32161 -0.02763
#
# Static dielectric constant tensor:
#      x y z
#    x 1.778610 0.000000 0.000000 
#    y 0.000000 1.814830 0.000000 
#    z 0.000000 0.000000 1.866010 
# 
# From -- ./inp_files/21445.got.cif
#   From: 2010.05.17/outbox.cif.g08.bks.cpg/sg23_11_cif.got.tgz:21445.got - 2010.06.04 12:02:01.
