data_PCOD9330333
_publ_section_title
;
Structure prediction by ZEFSAII (Michael W. Deem and Ramdas Pophale) SiO2 
 PCOD9330333
Probable space group: I 2 2 2
;
_chemical_formula_sum "Si O2"
_cell_formula_units_Z 54
_cell_length_a 5.049662
_cell_length_b 26.097366
_cell_length_c 20.636473
_cell_angle_alpha 90.000000
_cell_angle_beta 90.000000
_cell_angle_gamma 90.000000
_cell_volume 2719.533791
_symmetry_space_group_name_H-M "I 2 2 2"
_symmetry_group_IT_number 23
_symmetry_cell_setting 'orthorhombic'
loop_
_space_group_symop_operation_xyz
x,y,z
-x,-y,z
x,-y,-z
-x,y,-z
1/2+x,1/2+y,1/2+z
1/2-x,1/2-y,1/2+z
1/2+x,1/2-y,1/2-z
1/2-x,1/2+y,1/2-z
loop_
_atom_site_type_symbol
_atom_site_label
_atom_site_fract_x
_atom_site_fract_y
_atom_site_fract_z
Si Si1 0.000000 0.500000 0.407862
Si Si2 0.159635 0.128170 0.257051
Si Si3 0.056355 0.275167 0.718071
Si Si4 0.000000 0.000000 0.000000
Si Si5 0.824424 0.050935 0.195911
Si Si6 0.029736 0.556227 0.832341
Si Si7 0.574453 0.697777 0.874641
Si Si8 0.595071 0.147094 0.428417
O O1 0.736553 0.481956 0.448685
O O2 0.894153 0.544862 0.360071
O O3 0.390908 0.164927 0.229499
O O4 0.268925 0.082141 0.301470
O O5 0.993673 0.102923 0.199473
O O6 0.014089 0.164898 0.308756
O O7 0.336376 0.247343 0.733110
O O8 0.959341 0.256039 0.648092
O O9 0.701982 0.049418 0.267726
O O10 0.000000 0.000000 0.189133
O O11 0.129924 0.596343 0.885207
O O12 0.000000 0.500000 0.861358
O O13 0.363537 0.679255 0.926517
O O14 0.866430 0.681530 0.895351
O O15 0.500000 0.133957 0.500000
#
# Coordination Sequence:
#
# PCOD9330333 Si02
#       8
#     4   8   8   2   8   8   8   8
#     4  11  22  40  64  90 125 160 212 242 305 368
#     4  10  21  33  58  91 128 158 196 260 337 397
#     4  10  20  35  57  89 123 150 189 254 338 403
#     4  10  24  42  60  90 124 162 202 254 276 362
#     4  12  20  36  60  95 129 169 207 252 324 378
#     4  11  21  35  55  86 134 171 214 272 322 371
#     4  10  20  38  58  84 120 156 200 273 331 374
#     4  11  23  39  59  84 119 175 232 267 315 382
#
# _framework density 19.856345999999998
#
# number of rings (size 3 to 8) (size 9 to 14) (size 15 to 20)
#    0.000    1.333    4.444    3.111    2.074    0.296 
#    0.000    0.000    0.000    1.778    1.926    2.074 
#    0.000    0.000    0.000    0.000    0.000    0.000 
#
# Total GULP energy -150379.844992 kJ/mol
# GULP energy per Si atom -5569.623889 kJ/mol
# Density = 1.981115 g / cm^3
# Si number density = 19.856346 Si / 1000 Ang^3
#
#
#
# Elastic Constant Matrix: (Units=GPa)
#
#
# Indices 1 2 3 4 5 6 
#
# 1 86.0034 18.2995 16.2629 0.0000 0.0000 0.0000
# 2 18.2995 55.1775 18.2067 0.0000 0.0000 0.0000
# 3 16.2629 18.2067 88.4173 0.0000 0.0000 0.0000
# 4 0.0000 0.0000 0.0000 12.5091 0.0000 0.0000
# 5 0.0000 0.0000 0.0000 0.0000 36.0007 0.0000
# 6 0.0000 0.0000 0.0000 0.0000 0.0000 34.3541
#
#
#
# Elastic Compliance Matrix: (Units=1/GPa)
#
#
# Indices 1 2 3 4 5 6 
#
# 1 0.012712 -0.003695 -0.001577 0.000000 0.000000 0.000000
# 2 -0.003695 0.020519 -0.003545 0.000000 0.000000 0.000000
# 3 -0.001577 -0.003545 0.012330 0.000000 0.000000 0.000000
# 4 0.000000 0.000000 0.000000 0.079942 0.000000 0.000000
# 5 0.000000 0.000000 0.000000 0.000000 0.027777 0.000000
# 6 0.000000 0.000000 0.000000 0.000000 0.000000 0.029109
#
#
# Mechanical properties :
#
#
# Convention : Reuss Voigt Hill
#
# Bulk Modulus (GPa) = 35.81059 37.23737 36.52398
# Shear Modulus (GPa) = 23.88534 28.36138 26.12336
#
# Velocity S-wave (km/s) = 3.47206 3.78342 3.63108
# Velocity P-wave (km/s) = 5.84359 6.15466 6.00114
#
# Compressibility (1/GPa) = 0.02792470
#
# Stress axis : x y z
#
# Youngs Moduli (GPa) = 78.66581 48.73574 81.10188
#
# Poissons Ratio (x) = 0.18010 0.12791
# Poissons Ratio (y) = 0.29071 0.28754
# Poissons Ratio (z) = 0.12407 0.17279
#
# Static dielectric constant tensor:
#      x y z
#    x 1.810000 0.000000 0.000000 
#    y 0.000000 1.761850 0.000000 
#    z 0.000000 0.000000 1.726740 
# 
# From -- ./inp_files/25838.got.cif
#   From: 2010.05.17/outbox.cif.g08.bks.cpg/sg23_13_cif.got.tgz:25838.got - 2010.06.04 12:02:01.
