data_PCOD9330509
_publ_section_title
;
Structure prediction by ZEFSAII (Michael W. Deem and Ramdas Pophale) SiO2 
 PCOD9330509
Probable space group: I 2 2 2
;
_chemical_formula_sum "Si O2"
_cell_formula_units_Z 58
_cell_length_a 20.753138
_cell_length_b 15.363503
_cell_length_c 9.121524
_cell_angle_alpha 90.000000
_cell_angle_beta 90.000000
_cell_angle_gamma 90.000000
_cell_volume 2908.314903
_symmetry_space_group_name_H-M "I 2 2 2"
_symmetry_group_IT_number 23
_symmetry_cell_setting 'orthorhombic'
loop_
_space_group_symop_operation_xyz
x,y,z
-x,-y,z
x,-y,-z
-x,y,-z
1/2+x,1/2+y,1/2+z
1/2-x,1/2-y,1/2+z
1/2+x,1/2-y,1/2-z
1/2-x,1/2+y,1/2-z
loop_
_atom_site_type_symbol
_atom_site_label
_atom_site_fract_x
_atom_site_fract_y
_atom_site_fract_z
Si Si1 0.883467 0.707634 0.787770
Si Si2 0.634117 0.926686 0.886992
Si Si3 0.296169 0.956661 0.654633
Si Si4 0.526333 0.148967 0.285440
Si Si5 0.000000 0.500000 0.000000
Si Si6 0.691343 0.341980 0.279627
Si Si7 0.931787 0.177164 0.955687
Si Si8 0.704263 0.229134 0.983718
O O1 0.838414 0.632174 0.857346
O O2 0.848026 0.743166 0.644202
O O3 0.951192 0.660641 0.750926
O O4 0.897997 0.786181 0.898005
O O5 0.573533 0.866994 0.848239
O O6 0.662876 0.974516 0.746576
O O7 0.689095 0.866954 0.955880
O O8 0.613538 0.000000 0.000000
O O9 0.234353 0.926925 0.748554
O O10 0.279847 0.000000 0.500000
O O11 0.547106 0.235159 0.370195
O O12 0.535953 0.066553 0.393068
O O13 0.621884 0.363774 0.348879
O O14 0.728045 0.278749 0.397009
O O15 0.694260 0.292660 0.121733
O O16 0.000000 0.132501 0.000000
#
# Coordination Sequence:
#
# PCOD9330509 Si02
#       8
#     8   8   8   8   2   8   8   8
#     4  10  20  38  54  86 121 166 203 239 295 354
#     4  12  23  39  51  84 124 160 202 248 285 351
#     4  11  24  38  59  84 122 161 207 246 295 353
#     4  11  22  33  56  80 126 165 206 233 289 355
#     4  12  20  32  50  80 116 184 198 222 278 348
#     4  11  22  41  59  84 118 159 210 249 304 351
#     4  10  20  39  59  84 116 154 201 254 297 364
#     4  11  24  38  58  84 120 163 201 250 296 357
#
# _framework density 19.942820000000001
#
# number of rings (size 3 to 8) (size 9 to 14) (size 15 to 20)
#    0.000    1.103    6.207    3.310    3.862    0.552 
#    2.483    0.000    0.000    0.000    0.000    1.931 
#    0.000    0.000    0.000    0.000    0.000    0.000 
#
# Total GULP energy -161894.426109 kJ/mol
# GULP energy per Si atom -5582.566418 kJ/mol
# Density = 1.989743 g / cm^3
# Si number density = 19.942820 Si / 1000 Ang^3
#
#
#
# Elastic Constant Matrix: (Units=GPa)
#
#
# Indices 1 2 3 4 5 6 
#
# 1 130.2267 15.7458 51.0415 0.0000 0.0000 0.0000
# 2 15.7458 6.3935 7.8134 0.0000 0.0000 0.0000
# 3 51.0415 7.8134 83.6746 0.0000 0.0000 0.0000
# 4 0.0000 0.0000 0.0000 31.8233 0.0000 0.0000
# 5 0.0000 0.0000 0.0000 0.0000 23.5196 0.0000
# 6 0.0000 0.0000 0.0000 0.0000 0.0000 -3.6674
#
#
#
# Elastic Compliance Matrix: (Units=1/GPa)
#
#
# Indices 1 2 3 4 5 6 
#
# 1 0.012852 -0.024914 -0.005513 0.000000 0.000000 0.000000
# 2 -0.024914 0.224855 -0.005799 0.000000 0.000000 0.000000
# 3 -0.005513 -0.005799 0.015856 0.000000 0.000000 0.000000
# 4 0.000000 0.000000 0.000000 0.031424 0.000000 0.000000
# 5 0.000000 0.000000 0.000000 0.000000 0.042518 0.000000
# 6 0.000000 0.000000 0.000000 0.000000 0.000000 -0.272673
#
#
# Mechanical properties :
#
#
# Convention : Reuss Voigt Hill
#
# Bulk Modulus (GPa) = 5.52152 41.05513 23.28832
# Shear Modulus (GPa) = 26.64474 20.04803 23.34639
#
# Velocity S-wave (km/s) = 3.65918 3.17405 3.42521
# Velocity P-wave (km/s) = 4.54175 5.83643 5.22931
#
# Compressibility (1/GPa) = 0.18110951
#
# Stress axis : x y z
#
# Youngs Moduli (GPa) = 77.80713 4.44731 63.06864
#
# Poissons Ratio (x) = 0.11080 0.34772
# Poissons Ratio (y) = 1.93853 0.36572
# Poissons Ratio (z) = 0.42898 0.02579
#
# Static dielectric constant tensor:
#      x y z
#    x 1.755260 0.000000 0.000000 
#    y 0.000000 1.685620 0.000000 
#    z 0.000000 0.000000 2.140870 
# 
# From -- ./inp_files/11290.got.cif
#   From: 2010.05.17/outbox.cif.g08.bks.cpg/sg23_6_cif.got.tgz:11290.got - 2010.06.04 12:02:01.
