data_PCOD9330727
_publ_section_title
;
Structure prediction by ZEFSAII (Michael W. Deem and Ramdas Pophale) SiO2 
 PCOD9330727
Probable space group: I 2 2 2
;
_chemical_formula_sum "Si O2"
_cell_formula_units_Z 54
_cell_length_a 13.725622
_cell_length_b 12.491992
_cell_length_c 15.828354
_cell_angle_alpha 90.000000
_cell_angle_beta 90.000000
_cell_angle_gamma 90.000000
_cell_volume 2713.935279
_symmetry_space_group_name_H-M "I 2 2 2"
_symmetry_group_IT_number 23
_symmetry_cell_setting 'orthorhombic'
loop_
_space_group_symop_operation_xyz
x,y,z
-x,-y,z
x,-y,-z
-x,y,-z
1/2+x,1/2+y,1/2+z
1/2-x,1/2-y,1/2+z
1/2+x,1/2-y,1/2-z
1/2-x,1/2+y,1/2-z
loop_
_atom_site_type_symbol
_atom_site_label
_atom_site_fract_x
_atom_site_fract_y
_atom_site_fract_z
Si Si1 0.439655 0.200154 0.208617
Si Si2 0.837468 0.846774 0.044027
Si Si3 0.161146 0.306089 0.886586
Si Si4 0.000000 0.000000 0.000000
Si Si5 0.335497 0.190622 0.810367
Si Si6 0.857069 0.479159 0.411131
Si Si7 0.215286 0.500000 0.000000
Si Si8 0.236475 0.839115 0.359555
O O1 0.411013 0.191432 0.307210
O O2 0.553483 0.225673 0.202541
O O3 0.415276 0.091064 0.157290
O O4 0.366601 0.284904 0.163914
O O5 0.742212 0.916994 0.064483
O O6 0.814977 0.745794 0.103230
O O7 0.850126 0.793768 0.951021
O O8 0.929850 0.923528 0.054908
O O9 0.266920 0.286655 0.842974
O O10 0.157473 0.413256 0.943083
O O11 0.286268 0.134153 0.729129
O O12 0.335640 0.096010 0.877062
O O13 0.906307 0.500000 0.500000
O O14 0.273195 0.570174 0.930593
#
# Coordination Sequence:
#
# PCOD9330727 Si02
#       8
#     8   8   8   2   8   8   4   8
#     4  10  23  37  61  90 119 162 201 250 311 359
#     4  10  21  38  60  91 118 158 195 252 306 359
#     4  10  21  42  62  85 129 156 204 255 298 366
#     4  12  20  32  64  94 114 156 194 240 308 382
#     4  11  21  38  62  88 121 161 197 255 307 357
#     4  11  20  39  57  89 119 149 206 254 304 348
#     4  10  20  42  66  84 118 172 194 250 310 344
#     4   9  22  41  60  86 127 156 204 251 298 363
#
# _framework density 19.897306
#
# number of rings (size 3 to 8) (size 9 to 14) (size 15 to 20)
#    0.000    1.778    2.222    1.333    2.074    1.185 
#    0.000    2.222    0.000    0.000    0.000    0.000 
#    0.000    0.000    0.000    0.000    0.000    0.000 
#
# Total GULP energy -150477.617021 kJ/mol
# GULP energy per Si atom -5573.245075 kJ/mol
# Density = 1.985202 g / cm^3
# Si number density = 19.897306 Si / 1000 Ang^3
#
#
#
# Elastic Constant Matrix: (Units=GPa)
#
#
# Indices 1 2 3 4 5 6 
#
# 1 104.3574 37.9783 37.1080 0.0000 0.0000 0.0000
# 2 37.9783 73.4417 35.7589 0.0000 0.0000 0.0000
# 3 37.1080 35.7589 125.3244 0.0000 0.0000 0.0000
# 4 0.0000 0.0000 0.0000 31.8826 0.0000 0.0000
# 5 0.0000 0.0000 0.0000 0.0000 -3.0470 0.0000
# 6 0.0000 0.0000 0.0000 0.0000 0.0000 36.4079
#
#
#
# Elastic Compliance Matrix: (Units=1/GPa)
#
#
# Indices 1 2 3 4 5 6 
#
# 1 0.012269 -0.005314 -0.002117 0.000000 0.000000 0.000000
# 2 -0.005314 0.018115 -0.003595 0.000000 0.000000 0.000000
# 3 -0.002117 -0.003595 0.009632 0.000000 0.000000 0.000000
# 4 0.000000 0.000000 0.000000 0.031365 0.000000 0.000000
# 5 0.000000 0.000000 0.000000 0.000000 -0.328193 0.000000
# 6 0.000000 0.000000 0.000000 0.000000 0.000000 0.027467
#
#
# Mechanical properties :
#
#
# Convention : Reuss Voigt Hill
#
# Bulk Modulus (GPa) = 55.66698 58.31268 56.98983
# Shear Modulus (GPa) = -24.83772 25.86725 0.51477
#
# Velocity S-wave (km/s) = -3.53696 3.60952 0.50919
# Velocity P-wave (km/s) = 3.37013 6.83681 5.38979
#
# Compressibility (1/GPa) = 0.01796397
#
# Stress axis : x y z
#
# Youngs Moduli (GPa) = 81.50649 55.20358 103.82251
#
# Poissons Ratio (x) = 0.29335 0.21974
# Poissons Ratio (y) = 0.43313 0.37327
# Poissons Ratio (z) = 0.17251 0.19847
#
# Static dielectric constant tensor:
#      x y z
#    x 1.695120 0.000000 0.000000 
#    y 0.000000 1.710700 0.000000 
#    z 0.000000 0.000000 1.722000 
# 
# From -- ./inp_files/21628.got.cif
#   From: 2010.05.17/outbox.cif.g08.bks.cpg/sg23_11_cif.got.tgz:21628.got - 2010.06.04 12:02:01.
