data_PCOD9330074
_publ_section_title
;
Structure prediction by ZEFSAII (Michael W. Deem and Ramdas Pophale) SiO2 
 PCOD9330074
Probable space group: I 2 2 2
;
_chemical_formula_sum "Si O2"
_cell_formula_units_Z 58
_cell_length_a 9.388058
_cell_length_b 11.881411
_cell_length_c 24.268586
_cell_angle_alpha 90.000000
_cell_angle_beta 90.000000
_cell_angle_gamma 90.000000
_cell_volume 2707.000003
_symmetry_space_group_name_H-M "I 2 2 2"
_symmetry_group_IT_number 23
_symmetry_cell_setting 'orthorhombic'
loop_
_space_group_symop_operation_xyz
x,y,z
-x,-y,z
x,-y,-z
-x,y,-z
1/2+x,1/2+y,1/2+z
1/2-x,1/2-y,1/2+z
1/2+x,1/2-y,1/2-z
1/2-x,1/2+y,1/2-z
loop_
_atom_site_type_symbol
_atom_site_label
_atom_site_fract_x
_atom_site_fract_y
_atom_site_fract_z
Si Si1 0.500000 0.500000 0.000000
Si Si2 0.006786 0.128652 0.129585
Si Si3 0.878411 0.162936 0.296516
Si Si4 0.261908 0.925178 0.946278
Si Si5 0.178981 0.358719 0.379914
Si Si6 0.153964 0.541078 0.734026
Si Si7 0.437082 0.291287 0.076744
Si Si8 0.835779 0.837933 0.229385
O O1 0.430165 0.592888 0.957949
O O2 0.111311 0.114610 0.078365
O O3 0.077649 0.205550 0.176176
O O4 0.847217 0.164393 0.117362
O O5 0.000000 0.000000 0.152790
O O6 0.759607 0.068875 0.284252
O O7 0.882249 0.190396 0.360776
O O8 0.799496 0.258384 0.259418
O O9 0.037752 0.141056 0.273263
O O10 0.353113 0.811964 0.951583
O O11 0.337225 0.016376 0.905983
O O12 0.240701 0.000000 0.000000
O O13 0.131219 0.370076 0.315822
O O14 0.092861 0.263034 0.411981
O O15 0.249340 0.444518 0.707070
O O16 0.000000 0.500000 0.751935
#
# Coordination Sequence:
#
# PCOD9330074 Si02
#       8
#     2   8   8   8   8   8   8   8
#     4  12  32  52  66  86 136 192 256 300 310 400
#     4  10  19  37  62 104 148 166 204 282 373 430
#     4  12  25  39  69 101 139 190 225 278 350 424
#     4  11  22  41  74 104 134 171 226 304 369 410
#     4  11  21  40  71 109 140 172 217 301 370 423
#     4  12  23  40  64 104 143 180 223 280 352 433
#     4  12  26  48  69  99 133 187 249 288 347 415
#     4  12  21  41  62 104 149 178 222 277 346 436
#
# _framework density 21.425932
#
# number of rings (size 3 to 8) (size 9 to 14) (size 15 to 20)
#    0.000    0.552    5.517    4.966    1.931    3.034 
#    0.000    0.000    0.000    0.828    0.000    0.000 
#    0.000    0.000    0.000    0.000    0.000    0.000 
#
# Total GULP energy -161576.266472 kJ/mol
# GULP energy per Si atom -5571.595396 kJ/mol
# Density = 2.137717 g / cm^3
# Si number density = 21.425932 Si / 1000 Ang^3
#
#
#
# Elastic Constant Matrix: (Units=GPa)
#
#
# Indices 1 2 3 4 5 6 
#
# 1 151.5196 36.1150 20.8961 0.0000 0.0000 0.0000
# 2 36.1150 77.4407 21.6265 0.0000 0.0000 0.0000
# 3 20.8961 21.6265 84.8990 0.0000 0.0000 0.0000
# 4 0.0000 0.0000 0.0000 28.6050 0.0000 0.0000
# 5 0.0000 0.0000 0.0000 0.0000 2.3589 0.0000
# 6 0.0000 0.0000 0.0000 0.0000 0.0000 26.0515
#
#
#
# Elastic Compliance Matrix: (Units=1/GPa)
#
#
# Indices 1 2 3 4 5 6 
#
# 1 0.007508 -0.003214 -0.001029 0.000000 0.000000 0.000000
# 2 -0.003214 0.015278 -0.003101 0.000000 0.000000 0.000000
# 3 -0.001029 -0.003101 0.012822 0.000000 0.000000 0.000000
# 4 0.000000 0.000000 0.000000 0.034959 0.000000 0.000000
# 5 0.000000 0.000000 0.000000 0.000000 0.423932 0.000000
# 6 0.000000 0.000000 0.000000 0.000000 0.000000 0.038386
#
#
# Mechanical properties :
#
#
# Convention : Reuss Voigt Hill
#
# Bulk Modulus (GPa) = 47.80146 52.34829 50.07487
# Shear Modulus (GPa) = 9.01641 27.08452 18.05047
#
# Velocity S-wave (km/s) = 2.05361 3.55928 2.90566
# Velocity P-wave (km/s) = 5.28976 6.43246 5.88889
#
# Compressibility (1/GPa) = 0.02091986
#
# Stress axis : x y z
#
# Youngs Moduli (GPa) = 133.19520 65.45426 77.99172
#
# Poissons Ratio (x) = 0.21036 0.08027
# Poissons Ratio (y) = 0.42807 0.24183
# Poissons Ratio (z) = 0.13709 0.20296
#
# Static dielectric constant tensor:
#      x y z
#    x 1.794190 0.000000 0.000000 
#    y 0.000000 2.070060 0.000000 
#    z 0.000000 0.000000 1.876770 
# 
# From -- ./inp_files/29282.got.cif
#   From: 2010.05.17/outbox.cif.g08.bks.cpg/sg23_15_cif.got.tgz:29282.got - 2010.06.04 12:02:01.
