data_PCOD9330055
_publ_section_title
;
Structure prediction by ZEFSAII (Michael W. Deem and Ramdas Pophale) SiO2 
 PCOD9330055
Probable space group: I 2 2 2
;
_chemical_formula_sum "Si O2"
_cell_formula_units_Z 48
_cell_length_a 19.956466
_cell_length_b 8.727126
_cell_length_c 10.944372
_cell_angle_alpha 90.000000
_cell_angle_beta 90.000000
_cell_angle_gamma 90.000000
_cell_volume 1906.100210
_symmetry_space_group_name_H-M "I 2 2 2"
_symmetry_group_IT_number 23
_symmetry_cell_setting 'orthorhombic'
loop_
_space_group_symop_operation_xyz
x,y,z
-x,-y,z
x,-y,-z
-x,y,-z
1/2+x,1/2+y,1/2+z
1/2-x,1/2-y,1/2+z
1/2+x,1/2-y,1/2-z
1/2-x,1/2+y,1/2-z
loop_
_atom_site_type_symbol
_atom_site_label
_atom_site_fract_x
_atom_site_fract_y
_atom_site_fract_z
Si Si1 0.943198 0.139453 0.396680
Si Si2 0.037146 0.338429 0.226584
Si Si3 0.243672 0.807110 0.886842
Si Si4 0.615451 0.818354 0.508335
Si Si5 0.639949 0.153631 0.061934
Si Si6 0.338301 0.602750 0.712883
O O1 0.887804 0.206325 0.485802
O O2 0.897746 0.040201 0.303082
O O3 0.000000 0.124152 0.500000
O O4 0.983244 0.246401 0.304078
O O5 0.058200 0.260914 0.100355
O O6 0.106496 0.351801 0.305439
O O7 0.000000 0.500000 0.206902
O O8 0.186440 0.689881 0.923220
O O9 0.292630 0.725682 0.788686
O O10 0.283527 0.841225 0.014425
O O11 0.206117 0.958003 0.832406
O O12 0.627080 0.705678 0.393574
O O13 0.601210 0.000000 0.500000
O O14 0.611166 0.000000 0.000000
#
# Coordination Sequence:
#
# PCOD9330055 Si02
#       6
#     8   8   8   8   8   8
#     4   9  20  38  68 102 138 188 250 303 377 443
#     4  11  22  39  66 107 147 190 255 313 375 455
#     4  11  26  46  74 105 150 195 252 307 393 461
#     4  12  27  42  68 111 150 196 244 315 384 459
#     4  10  19  36  69 103 135 187 245 313 367 438
#     4  11  24  47  72 106 146 196 249 315 383 467
#
# _framework density 25.182306000000001
#
# number of rings (size 3 to 8) (size 9 to 14) (size 15 to 20)
#    0.000    1.333    1.667    3.500    7.000    2.333 
#    0.000    0.833    0.000    9.000    0.000    0.000 
#    0.000    0.000    0.000    0.000    0.000    0.000 
#
# Total GULP energy -133728.017646 kJ/mol
# GULP energy per Si atom -5572.000735 kJ/mol
# Density = 2.512499 g / cm^3
# Si number density = 25.182306 Si / 1000 Ang^3
#
#
#
# Elastic Constant Matrix: (Units=GPa)
#
#
# Indices 1 2 3 4 5 6 
#
# 1 119.3620 30.0199 79.9930 0.0000 0.0000 0.0000
# 2 30.0199 66.0624 39.6356 0.0000 0.0000 0.0000
# 3 79.9930 39.6356 155.6102 0.0000 0.0000 0.0000
# 4 0.0000 0.0000 0.0000 37.2416 0.0000 0.0000
# 5 0.0000 0.0000 0.0000 0.0000 41.3301 0.0000
# 6 0.0000 0.0000 0.0000 0.0000 0.0000 59.7280
#
#
#
# Elastic Compliance Matrix: (Units=1/GPa)
#
#
# Indices 1 2 3 4 5 6 
#
# 1 0.013058 -0.002250 -0.006140 0.000000 0.000000 0.000000
# 2 -0.002250 0.018256 -0.003493 0.000000 0.000000 0.000000
# 3 -0.006140 -0.003493 0.010472 0.000000 0.000000 0.000000
# 4 0.000000 0.000000 0.000000 0.026852 0.000000 0.000000
# 5 0.000000 0.000000 0.000000 0.000000 0.024195 0.000000
# 6 0.000000 0.000000 0.000000 0.000000 0.000000 0.016743
#
#
# Mechanical properties :
#
#
# Convention : Reuss Voigt Hill
#
# Bulk Modulus (GPa) = 55.49377 71.14794 63.32086
# Shear Modulus (GPa) = 35.88122 40.41903 38.15012
#
# Velocity S-wave (km/s) = 3.77882 4.01066 3.89647
# Velocity P-wave (km/s) = 6.41280 7.05420 6.74113
#
# Compressibility (1/GPa) = 0.01802004
#
# Stress axis : x y z
#
# Youngs Moduli (GPa) = 76.57871 54.77792 95.49112
#
# Poissons Ratio (x) = 0.12327 0.58628
# Poissons Ratio (y) = 0.17233 0.33356
# Poissons Ratio (z) = 0.47017 0.19134
#
# Static dielectric constant tensor:
#      x y z
#    x 1.995650 0.000000 0.000000 
#    y 0.000000 2.050070 0.000000 
#    z 0.000000 0.000000 2.013050 
# 
# From -- ./inp_files/17954.got.cif
#   From: 2010.05.17/outbox.cif.g08.bks.cpg/sg23_9_cif.got.tgz:17954.got - 2010.06.04 12:02:01.
