data_PCOD9330311
_publ_section_title
;
Structure prediction by ZEFSAII (Michael W. Deem and Ramdas Pophale) SiO2 
 PCOD9330311
Probable space group: I 2 2 2
;
_chemical_formula_sum "Si O2"
_cell_formula_units_Z 40
_cell_length_a 11.005412
_cell_length_b 13.892903
_cell_length_c 13.681978
_cell_angle_alpha 90.000000
_cell_angle_beta 90.000000
_cell_angle_gamma 90.000000
_cell_volume 2091.935051
_symmetry_space_group_name_H-M "I 2 2 2"
_symmetry_group_IT_number 23
_symmetry_cell_setting 'orthorhombic'
loop_
_space_group_symop_operation_xyz
x,y,z
-x,-y,z
x,-y,-z
-x,y,-z
1/2+x,1/2+y,1/2+z
1/2-x,1/2-y,1/2+z
1/2+x,1/2-y,1/2-z
1/2-x,1/2+y,1/2-z
loop_
_atom_site_type_symbol
_atom_site_label
_atom_site_fract_x
_atom_site_fract_y
_atom_site_fract_z
Si Si1 0.360122 0.387216 0.207749
Si Si2 0.360122 0.612784 0.207749
Si Si3 0.748031 0.287016 0.385609
Si Si4 0.751969 0.787016 0.885609
Si Si5 0.500000 0.891517 0.882022
O O1 0.329840 0.500000 0.212511
O O2 0.500000 0.378826 0.173526
O O3 0.270930 0.324607 0.139849
O O4 0.347114 0.338059 0.314361
O O5 0.347114 0.661941 0.314361
O O6 0.270930 0.675393 0.139849
O O7 0.724425 0.301464 0.500000
O O8 0.876948 0.336456 0.356934
O O9 0.623052 0.836456 0.856934
O O10 0.500000 0.000000 0.843082
O O11 0.500000 0.896463 0.000000
#
# Coordination Sequence:
#
# PCOD9330311 Si02
#       5
#     8   8   8   8   8
#     4  10  21  36  55  81 111 142 178 222 271 320
#     4  10  21  36  55  81 111 142 178 222 271 320
#     4  10  20  35  54  79 109 142 181 221 265 319
#     4  10  20  35  54  79 109 142 181 221 265 319
#     4   9  16  28  49  75 100 131 173 217 259 305
#
# _framework density 19.121051999999999
#
# number of rings (size 3 to 8) (size 9 to 14) (size 15 to 20)
#    0.000    2.200    2.000    1.200    0.000    4.000 
#    0.000    4.000    0.000    0.000    0.000    5.600 
#    0.000    0.000    0.000    0.000    0.000    0.000 
#
# Total GULP energy -111529.097281 kJ/mol
# GULP energy per Si atom -5576.454864 kJ/mol
# Density = 1.907753 g / cm^3
# Si number density = 19.121052 Si / 1000 Ang^3
#
#
#
# Elastic Constant Matrix: (Units=GPa)
#
#
# Indices 1 2 3 4 5 6 
#
# 1 25.2806 5.5644 -17.3910 0.0000 0.0000 0.0000
# 2 5.5644 128.3544 -9.9517 0.0000 0.0000 0.0000
# 3 -17.3910 -9.9517 28.2640 0.0000 0.0000 0.0000
# 4 0.0000 0.0000 0.0000 17.0182 0.0000 0.0000
# 5 0.0000 0.0000 0.0000 0.0000 17.3058 0.0000
# 6 0.0000 0.0000 0.0000 0.0000 0.0000 25.6664
#
#
#
# Elastic Compliance Matrix: (Units=1/GPa)
#
#
# Indices 1 2 3 4 5 6 
#
# 1 0.068600 0.000307 0.042318 0.000000 0.000000 0.000000
# 2 0.000307 0.008011 0.003010 0.000000 0.000000 0.000000
# 3 0.042318 0.003010 0.062479 0.000000 0.000000 0.000000
# 4 0.000000 0.000000 0.000000 0.058761 0.000000 0.000000
# 5 0.000000 0.000000 0.000000 0.000000 0.057784 0.000000
# 6 0.000000 0.000000 0.000000 0.000000 0.000000 0.038961
#
#
# Mechanical properties :
#
#
# Convention : Reuss Voigt Hill
#
# Bulk Modulus (GPa) = 4.34105 15.37138 9.85622
# Shear Modulus (GPa) = 17.84995 25.57656 21.71325
#
# Velocity S-wave (km/s) = 3.05868 3.66131 3.37347
# Velocity P-wave (km/s) = 3.84047 5.09215 4.50995
#
# Compressibility (1/GPa) = 0.23035909
#
# Stress axis : x y z
#
# Youngs Moduli (GPa) = 14.57730 124.82899 16.00539
#
# Poissons Ratio (x) = -0.03833 -0.67732
# Poissons Ratio (y) = -0.00448 -0.04817
# Poissons Ratio (z) = -0.61688 -0.37568
#
# Static dielectric constant tensor:
#      x y z
#    x 1.671560 0.000000 0.000000 
#    y 0.000000 1.694430 0.000000 
#    z 0.000000 0.000000 1.652250 
# 
# From -- ./inp_files/15544.got.cif
#   From: 2010.05.17/outbox.cif.g08.bks.cpg/sg23_8_cif.got.tgz:15544.got - 2010.06.04 12:02:01.
