data_PCOD9330322
_publ_section_title
;
Structure prediction by ZEFSAII (Michael W. Deem and Ramdas Pophale) SiO2 
 PCOD9330322
Probable space group: I 2 2 2
;
_chemical_formula_sum "Si O2"
_cell_formula_units_Z 64
_cell_length_a 7.314117
_cell_length_b 20.916773
_cell_length_c 18.159581
_cell_angle_alpha 90.000000
_cell_angle_beta 90.000000
_cell_angle_gamma 90.000000
_cell_volume 2778.192984
_symmetry_space_group_name_H-M "I 2 2 2"
_symmetry_group_IT_number 23
_symmetry_cell_setting 'orthorhombic'
loop_
_space_group_symop_operation_xyz
x,y,z
-x,-y,z
x,-y,-z
-x,y,-z
1/2+x,1/2+y,1/2+z
1/2-x,1/2-y,1/2+z
1/2+x,1/2-y,1/2-z
1/2-x,1/2+y,1/2-z
loop_
_atom_site_type_symbol
_atom_site_label
_atom_site_fract_x
_atom_site_fract_y
_atom_site_fract_z
Si Si1 0.825710 0.630516 0.406696
Si Si2 0.294552 0.133257 0.593197
Si Si3 0.723152 0.995146 0.833625
Si Si4 0.249752 0.110930 0.068864
Si Si5 0.649129 0.265003 0.338353
Si Si6 0.723157 0.736522 0.834465
Si Si7 0.237809 0.384130 0.924978
Si Si8 0.222245 0.504133 0.831143
O O1 0.739057 0.578754 0.351906
O O2 0.714167 0.626718 0.483187
O O3 0.856018 0.699277 0.370084
O O4 0.030337 0.608536 0.424715
O O5 0.254110 0.203303 0.625314
O O6 0.221942 0.123388 0.510872
O O7 0.516508 0.124384 0.585352
O O8 0.230465 0.076110 0.645865
O O9 0.803368 0.043024 0.895088
O O10 0.500000 0.000000 0.832998
O O11 0.783530 0.012544 0.751318
O O12 0.186370 0.169744 0.118887
O O13 0.690744 0.270198 0.252094
O O14 0.437388 0.248637 0.345014
O O15 0.673129 0.672757 0.878266
O O16 0.286242 0.452522 0.890753
O O17 0.000000 0.500000 0.830909
#
# Coordination Sequence:
#
# PCOD9330322 Si02
#       8
#     8   8   8   8   8   8   8   8
#     4  10  20  35  56  81 109 143 183 225 271 326
#     4   9  17  29  47  73 103 133 166 209 263 318
#     4   9  17  31  52  79 110 143 180 222 268 321
#     4  10  20  35  56  81 109 143 183 225 271 326
#     4  11  22  36  54  77 108 143 180 225 275 329
#     4  11  22  36  54  77 108 143 180 225 275 329
#     4   9  17  29  47  73 103 133 166 209 263 318
#     4   9  15  25  45  72 102 133 168 212 258 309
#
# _framework density 23.036556000000001
#
# number of rings (size 3 to 8) (size 9 to 14) (size 15 to 20)
#    0.000    2.250    0.000    3.750    0.000    8.500 
#    0.000    0.625    0.000    1.500    0.000    2.625 
#    0.000   12.000    0.000    0.000    0.000    0.000 
#
# Total GULP energy -178894.008123 kJ/mol
# GULP energy per Si atom -5590.437754 kJ/mol
# Density = 2.298412 g / cm^3
# Si number density = 23.036556 Si / 1000 Ang^3
#
#
#
# Elastic Constant Matrix: (Units=GPa)
#
#
# Indices 1 2 3 4 5 6 
#
# 1 50.7817 -24.8420 -28.3319 0.0000 0.0000 0.0000
# 2 -24.8420 118.9102 31.4108 0.0000 0.0000 0.0000
# 3 -28.3319 31.4108 129.3618 0.0000 0.0000 0.0000
# 4 0.0000 0.0000 0.0000 91.5792 0.0000 0.0000
# 5 0.0000 0.0000 0.0000 0.0000 13.6165 0.0000
# 6 0.0000 0.0000 0.0000 0.0000 0.0000 23.9932
#
#
#
# Elastic Compliance Matrix: (Units=1/GPa)
#
#
# Indices 1 2 3 4 5 6 
#
# 1 0.023994 0.003873 0.004315 0.000000 0.000000 0.000000
# 2 0.003873 0.009611 -0.001486 0.000000 0.000000 0.000000
# 3 0.004315 -0.001486 0.009036 0.000000 0.000000 0.000000
# 4 0.000000 0.000000 0.000000 0.010920 0.000000 0.000000
# 5 0.000000 0.000000 0.000000 0.000000 0.073440 0.000000
# 6 0.000000 0.000000 0.000000 0.000000 0.000000 0.041678
#
#
# Mechanical properties :
#
#
# Convention : Reuss Voigt Hill
#
# Bulk Modulus (GPa) = 17.84278 28.39196 23.11737
# Shear Modulus (GPa) = 28.74273 47.22556 37.98414
#
# Velocity S-wave (km/s) = 3.53611 4.53263 4.06503
# Velocity P-wave (km/s) = 4.94311 6.30433 5.66475
#
# Compressibility (1/GPa) = 0.05604506
#
# Stress axis : x y z
#
# Youngs Moduli (GPa) = 41.67721 104.04501 110.66959
#
# Poissons Ratio (x) = -0.40296 -0.47749
# Poissons Ratio (y) = -0.16141 0.16440
# Poissons Ratio (z) = -0.17982 0.15456
#
# Static dielectric constant tensor:
#      x y z
#    x 1.918050 0.000000 0.000000 
#    y 0.000000 1.802830 0.000000 
#    z 0.000000 0.000000 1.798480 
# 
# From -- ./inp_files/24007.got.cif
#   From: 2010.05.17/outbox.cif.g08.bks.cpg/sg23_13_cif.got.tgz:24007.got - 2010.06.04 12:02:01.
