data_PCOD9330961
_publ_section_title
;
Structure prediction by ZEFSAII (Michael W. Deem and Ramdas Pophale) SiO2 
 PCOD9330961
Probable space group: I 2 2 2
;
_chemical_formula_sum "Si O2"
_cell_formula_units_Z 40
_cell_length_a 5.129894
_cell_length_b 20.525649
_cell_length_c 18.224172
_cell_angle_alpha 90.000000
_cell_angle_beta 90.000000
_cell_angle_gamma 90.000000
_cell_volume 1918.903323
_symmetry_space_group_name_H-M "I 2 2 2"
_symmetry_group_IT_number 23
_symmetry_cell_setting 'orthorhombic'
loop_
_space_group_symop_operation_xyz
x,y,z
-x,-y,z
x,-y,-z
-x,y,-z
1/2+x,1/2+y,1/2+z
1/2-x,1/2-y,1/2+z
1/2+x,1/2-y,1/2-z
1/2-x,1/2+y,1/2-z
loop_
_atom_site_type_symbol
_atom_site_label
_atom_site_fract_x
_atom_site_fract_y
_atom_site_fract_z
Si Si1 0.953757 0.242499 0.580530
Si Si2 0.959769 0.825191 0.121296
Si Si3 0.567416 0.076738 0.918444
Si Si4 0.903848 0.574184 0.258607
Si Si5 0.415625 0.355439 0.785433
O O1 0.700091 0.288988 0.583566
O O2 0.000000 0.213809 0.500000
O O3 0.202579 0.286361 0.597735
O O4 0.938363 0.188711 0.643672
O O5 0.863453 0.899044 0.099553
O O6 0.977682 0.817949 0.209329
O O7 0.407908 0.096156 0.844589
O O8 0.500000 0.000000 0.921819
O O9 0.500000 0.101558 0.000000
O O10 0.124991 0.617405 0.220778
O O11 0.000000 0.500000 0.256812
O O12 0.628829 0.586904 0.220456
#
# Coordination Sequence:
#
# PCOD9330961 Si02
#       5
#     8   8   8   8   8
#     4  12  25  40  61  88 120 156 199 250 301 350
#     4  11  22  39  61  88 120 160 201 240 291 354
#     4   9  19  37  60  90 125 161 199 243 291 346
#     4  10  21  38  63  89 116 156 199 242 294 355
#     4  11  22  40  62  86 120 156 197 244 294 356
#
# _framework density 20.845241000000001
#
# number of rings (size 3 to 8) (size 9 to 14) (size 15 to 20)
#    0.000    1.400    0.000    6.600    0.000    1.600 
#    0.000    6.000    0.000   30.000    0.000    0.000 
#    0.000    0.000    0.000    0.000    0.000    0.000 
#
# Total GULP energy -111717.864307 kJ/mol
# GULP energy per Si atom -5585.893215 kJ/mol
# Density = 2.079780 g / cm^3
# Si number density = 20.845241 Si / 1000 Ang^3
#
#
#
# Elastic Constant Matrix: (Units=GPa)
#
#
# Indices 1 2 3 4 5 6 
#
# 1 109.1831 21.2645 43.6671 0.0000 0.0000 0.0000
# 2 21.2645 69.9712 67.1580 0.0000 0.0000 0.0000
# 3 43.6671 67.1580 163.5679 0.0000 0.0000 0.0000
# 4 0.0000 0.0000 0.0000 31.1941 0.0000 0.0000
# 5 0.0000 0.0000 0.0000 0.0000 14.9955 0.0000
# 6 0.0000 0.0000 0.0000 0.0000 0.0000 27.4969
#
#
#
# Elastic Compliance Matrix: (Units=1/GPa)
#
#
# Indices 1 2 3 4 5 6 
#
# 1 0.010281 -0.000809 -0.002413 0.000000 0.000000 0.000000
# 2 -0.000809 0.023650 -0.009494 0.000000 0.000000 0.000000
# 3 -0.002413 -0.009494 0.010656 0.000000 0.000000 0.000000
# 4 0.000000 0.000000 0.000000 0.032057 0.000000 0.000000
# 5 0.000000 0.000000 0.000000 0.000000 0.066687 0.000000
# 6 0.000000 0.000000 0.000000 0.000000 0.000000 0.036368
#
#
# Mechanical properties :
#
#
# Convention : Reuss Voigt Hill
#
# Bulk Modulus (GPa) = 52.20393 67.43347 59.81870
# Shear Modulus (GPa) = 23.63883 28.77945 26.20914
#
# Velocity S-wave (km/s) = 3.37117 3.71971 3.54972
# Velocity P-wave (km/s) = 6.34437 7.13219 6.74978
#
# Compressibility (1/GPa) = 0.01915565
#
# Stress axis : x y z
#
# Youngs Moduli (GPa) = 97.26300 42.28322 93.84405
#
# Poissons Ratio (x) = 0.03420 0.22642
# Poissons Ratio (y) = 0.07867 0.89099
# Poissons Ratio (z) = 0.23466 0.40145
#
# Static dielectric constant tensor:
#      x y z
#    x 1.799090 0.000000 0.000000 
#    y 0.000000 1.816350 0.000000 
#    z 0.000000 0.000000 1.731670 
# 
# From -- ./inp_files/23021.got.cif
#   From: 2010.05.17/outbox.cif.g08.bks.cpg/sg23_12_cif.got.tgz:23021.got - 2010.06.04 12:02:01.
