data_PCOD9330016
_publ_section_title
;
Structure prediction by ZEFSAII (Michael W. Deem and Ramdas Pophale) SiO2 
 PCOD9330016
Probable space group: I 2 2 2
;
_chemical_formula_sum "Si O2"
_cell_formula_units_Z 56
_cell_length_a 22.098178
_cell_length_b 8.105020
_cell_length_c 14.691867
_cell_angle_alpha 90.000000
_cell_angle_beta 90.000000
_cell_angle_gamma 90.000000
_cell_volume 2631.404097
_symmetry_space_group_name_H-M "I 2 2 2"
_symmetry_group_IT_number 23
_symmetry_cell_setting 'orthorhombic'
loop_
_space_group_symop_operation_xyz
x,y,z
-x,-y,z
x,-y,-z
-x,y,-z
1/2+x,1/2+y,1/2+z
1/2-x,1/2-y,1/2+z
1/2+x,1/2-y,1/2-z
1/2-x,1/2+y,1/2-z
loop_
_atom_site_type_symbol
_atom_site_label
_atom_site_fract_x
_atom_site_fract_y
_atom_site_fract_z
Si Si1 0.068483 0.996054 0.185755
Si Si2 0.124849 0.799424 0.497505
Si Si3 0.763333 0.195636 0.788769
Si Si4 0.381685 0.815717 0.796737
Si Si5 0.383860 0.201356 0.803757
Si Si6 0.763508 0.309412 0.988817
Si Si7 0.313518 0.564724 0.596926
O O1 0.084507 0.825317 0.238649
O O2 0.118838 0.996602 0.107751
O O3 0.080988 0.158328 0.246925
O O4 0.000000 0.000000 0.154810
O O5 0.102500 0.728001 0.401693
O O6 0.099048 0.727478 0.590812
O O7 0.195230 0.745088 0.499217
O O8 0.119655 0.000000 0.500000
O O9 0.691080 0.209668 0.781716
O O10 0.812840 0.248654 0.714328
O O11 0.783403 0.278892 0.884801
O O12 0.777773 0.005043 0.816788
O O13 0.393868 0.009536 0.778153
O O14 0.756524 0.500000 0.000000
O O15 0.806215 0.253842 0.072007
O O16 0.287564 0.500000 0.500000
#
# Coordination Sequence:
#
# PCOD9330016 Si02
#       7
#     8   8   8   8   8   8   8
#     4  11  26  44  62  89 123 170 221 262 303 371
#     4  10  19  36  57  92 128 160 195 252 319 384
#     4   9  21  34  55  96 125 157 195 246 320 387
#     4  11  23  38  63  90 125 167 201 258 323 370
#     4  11  23  38  64  89 124 158 212 255 316 383
#     4   9  18  30  55  90 132 155 188 242 311 384
#     4   9  19  39  60  89 126 161 202 253 316 374
#
# _framework density 21.281413000000001
#
# number of rings (size 3 to 8) (size 9 to 14) (size 15 to 20)
#    0.000    2.000    1.429    1.286    8.000    3.143 
#    0.000    1.429    0.000    1.714    0.000    0.000 
#    0.000    0.000    0.000    0.000    0.000    0.000 
#
# Total GULP energy -156080.079416 kJ/mol
# GULP energy per Si atom -5574.288551 kJ/mol
# Density = 2.123298 g / cm^3
# Si number density = 21.281413 Si / 1000 Ang^3
#
#
#
# Elastic Constant Matrix: (Units=GPa)
#
#
# Indices 1 2 3 4 5 6 
#
# 1 45.4042 4.1906 -30.8766 0.0000 0.0000 0.0000
# 2 4.1906 102.0623 6.8018 0.0000 0.0000 0.0000
# 3 -30.8766 6.8018 49.7922 0.0000 0.0000 0.0000
# 4 0.0000 0.0000 0.0000 31.2869 0.0000 0.0000
# 5 0.0000 0.0000 0.0000 0.0000 3.0342 0.0000
# 6 0.0000 0.0000 0.0000 0.0000 0.0000 18.2099
#
#
#
# Elastic Compliance Matrix: (Units=1/GPa)
#
#
# Indices 1 2 3 4 5 6 
#
# 1 0.039126 -0.003253 0.024707 0.000000 0.000000 0.000000
# 2 -0.003253 0.010158 -0.003405 0.000000 0.000000 0.000000
# 3 0.024707 -0.003405 0.035870 0.000000 0.000000 0.000000
# 4 0.000000 0.000000 0.000000 0.031962 0.000000 0.000000
# 5 0.000000 0.000000 0.000000 0.000000 0.329576 0.000000
# 6 0.000000 0.000000 0.000000 0.000000 0.000000 0.054915
#
#
# Mechanical properties :
#
#
# Convention : Reuss Voigt Hill
#
# Bulk Modulus (GPa) = 8.24726 17.49893 12.87309
# Shear Modulus (GPa) = 9.88284 24.98238 17.43261
#
# Velocity S-wave (km/s) = 2.15731 3.42995 2.86518
# Velocity P-wave (km/s) = 3.17632 4.89148 4.12405
#
# Compressibility (1/GPa) = 0.12125237
#
# Stress axis : x y z
#
# Youngs Moduli (GPa) = 25.55823 98.44045 27.87873
#
# Poissons Ratio (x) = 0.32023 -0.68880
# Poissons Ratio (y) = 0.08314 0.09493
# Poissons Ratio (z) = -0.63147 0.33518
#
# Static dielectric constant tensor:
#      x y z
#    x 1.760300 0.000000 0.000000 
#    y 0.000000 2.211910 0.000000 
#    z 0.000000 0.000000 1.846510 
# 
# From -- ./inp_files/12074.got.cif
#   From: 2010.05.17/outbox.cif.g08.bks.cpg/sg23_7_cif.got.tgz:12074.got - 2010.06.04 12:02:01.
