data_PCOD9330789
_publ_section_title
;
Structure prediction by ZEFSAII (Michael W. Deem and Ramdas Pophale) SiO2 
 PCOD9330789
Probable space group: I 2 2 2
;
_chemical_formula_sum "Si O2"
_cell_formula_units_Z 48
_cell_length_a 8.119183
_cell_length_b 32.072399
_cell_length_c 7.369865
_cell_angle_alpha 90.000000
_cell_angle_beta 90.000000
_cell_angle_gamma 90.000000
_cell_volume 1919.125203
_symmetry_space_group_name_H-M "I 2 2 2"
_symmetry_group_IT_number 23
_symmetry_cell_setting 'orthorhombic'
loop_
_space_group_symop_operation_xyz
x,y,z
-x,-y,z
x,-y,-z
-x,y,-z
1/2+x,1/2+y,1/2+z
1/2-x,1/2-y,1/2+z
1/2+x,1/2-y,1/2-z
1/2-x,1/2+y,1/2-z
loop_
_atom_site_type_symbol
_atom_site_label
_atom_site_fract_x
_atom_site_fract_y
_atom_site_fract_z
Si Si1 0.323655 0.316589 0.773119
Si Si2 0.212351 0.912792 0.293844
Si Si3 0.659992 0.167270 0.376224
Si Si4 0.679036 0.591809 0.768710
Si Si5 0.516641 0.243385 0.786315
Si Si6 0.802595 0.997960 0.280325
O O1 0.280914 0.362134 0.693179
O O2 0.482249 0.290025 0.712567
O O3 0.180297 0.282430 0.754290
O O4 0.313496 0.326878 0.988024
O O5 0.307535 0.870973 0.242195
O O6 0.219782 0.911209 0.515227
O O7 0.019258 0.909456 0.248791
O O8 0.272083 0.957617 0.223414
O O9 0.500000 0.156709 0.500000
O O10 0.619915 0.211153 0.287620
O O11 0.749389 0.547109 0.703872
O O12 0.500000 0.246123 0.000000
O O13 0.784735 0.000000 0.500000
O O14 0.000000 0.000000 0.246336
#
# Coordination Sequence:
#
# PCOD9330789 Si02
#       6
#     8   8   8   8   8   8
#     4  10  21  34  54  75  99 133 169 209 250 300
#     4   8  13  23  46  70  98 130 157 197 250 306
#     4   9  19  34  49  73 102 133 169 210 247 296
#     4   8  14  23  44  71 100 125 157 202 255 298
#     4  11  23  36  52  72 101 136 172 210 249 293
#     4   7  10  19  36  69  99 121 151 194 247 301
#
# _framework density 25.011396999999999
#
# number of rings (size 3 to 8) (size 9 to 14) (size 15 to 20)
#    0.000    3.167    0.000    3.000    7.000    0.000 
#    0.000    0.000    0.000   23.500    0.000    2.333 
#    0.000    4.000    0.000    1.500    0.000    1.000 
#
# Total GULP energy -133705.091648 kJ/mol
# GULP energy per Si atom -5571.045485 kJ/mol
# Density = 2.495447 g / cm^3
# Si number density = 25.011397 Si / 1000 Ang^3
#
#
#
# Elastic Constant Matrix: (Units=GPa)
#
#
# Indices 1 2 3 4 5 6 
#
# 1 41.4626 48.5110 -1.9715 0.0216 0.0009 0.0000
# 2 48.5110 311.8445 20.1904 -0.1022 0.0027 0.0030
# 3 -1.9715 20.1904 66.3499 -0.1236 0.0012 0.0022
# 4 0.0216 -0.1022 -0.1236 -237.0507 -0.0262 -0.0646
# 5 0.0009 0.0027 0.0012 -0.0262 1.9931 0.0020
# 6 0.0000 0.0030 0.0022 -0.0646 0.0020 20.6309
#
#
#
# Elastic Compliance Matrix: (Units=1/GPa)
#
#
# Indices 1 2 3 4 5 6 
#
# 1 0.029838 -0.004793 0.002345 0.000004 -0.000008 0.000000
# 2 -0.004793 0.004041 -0.001372 -0.000001 -0.000002 0.000000
# 3 0.002345 -0.001372 0.015559 -0.000007 -0.000009 -0.000001
# 4 0.000004 -0.000001 -0.000007 -0.004218 -0.000056 -0.000013
# 5 -0.000008 -0.000002 -0.000009 -0.000056 0.501739 -0.000049
# 6 0.000000 0.000000 -0.000001 -0.000013 -0.000049 0.048471
#
#
# Mechanical properties :
#
#
# Convention : Reuss Voigt Hill
#
# Bulk Modulus (GPa) = 23.92501 61.45743 42.69122
# Shear Modulus (GPa) = 8.10369 -19.35689 -5.62660
#
# Velocity S-wave (km/s) = 1.80195 -2.78497 -1.50150
# Velocity P-wave (km/s) = 3.73039 3.77938 3.75497
#
# Compressibility (1/GPa) = 0.04179727
#
# Stress axis : x y z
#
# Youngs Moduli (GPa) = 33.51433 247.44806 64.27207
#
# Poissons Ratio (x) = 1.18614 -0.15074
# Poissons Ratio (y) = 0.16065 0.08819
# Poissons Ratio (z) = -0.07860 0.33955
#
# Static dielectric constant tensor:
#      x y z
#    x 2.152010 0.000010 -0.000140 
#    y 0.000010 2.125740 0.000000 
#    z -0.000140 0.000000 2.069640 
# 
# From -- ./inp_files/8761.got.cif
#   From: 2010.05.17/outbox.cif.g08.bks.cpg/sg23_5_cif.got.tgz:8761.got - 2010.06.04 12:02:01.
