data_PCOD9330453
_publ_section_title
;
Structure prediction by ZEFSAII (Michael W. Deem and Ramdas Pophale) SiO2 
 PCOD9330453
Probable space group: I 2 2 2
;
_chemical_formula_sum "Si O2"
_cell_formula_units_Z 24
_cell_length_a 5.239449
_cell_length_b 16.836665
_cell_length_c 11.814854
_cell_angle_alpha 90.000000
_cell_angle_beta 90.000000
_cell_angle_gamma 90.000000
_cell_volume 1042.245545
_symmetry_space_group_name_H-M "I 2 2 2"
_symmetry_group_IT_number 23
_symmetry_cell_setting 'orthorhombic'
loop_
_space_group_symop_operation_xyz
x,y,z
-x,-y,z
x,-y,-z
-x,y,-z
1/2+x,1/2+y,1/2+z
1/2-x,1/2-y,1/2+z
1/2+x,1/2-y,1/2-z
1/2-x,1/2+y,1/2-z
loop_
_atom_site_type_symbol
_atom_site_label
_atom_site_fract_x
_atom_site_fract_y
_atom_site_fract_z
Si Si1 0.375760 0.332331 0.171803
Si Si2 0.543253 0.848422 0.869975
Si Si3 0.881864 0.415811 0.152494
O O1 0.447374 0.241776 0.150696
O O2 0.597618 0.389093 0.124702
O O3 0.319474 0.347226 0.306290
O O4 0.101409 0.353004 0.118650
O O5 0.389405 0.908100 0.789311
O O6 0.500000 0.867023 0.000000
O O7 0.000000 0.500000 0.120835
#
# Coordination Sequence:
#
# PCOD9330453 Si02
#       3
#     8   8   8
#     4  10  20  39  55  88 116 150 200 229 292 345
#     4  10  21  37  63  85 117 154 196 240 293 343
#     4  10  20  37  59  83 118 152 186 242 298 345
#
# _framework density 23.027204999999999
#
# number of rings (size 3 to 8) (size 9 to 14) (size 15 to 20)
#    2.000    0.000    3.333    1.000    0.000    2.000 
#    0.000    0.000    7.333    6.000    0.000    0.000 
#    0.000    0.000    0.000    0.000    0.000    0.000 
#
# Total GULP energy -66826.382194 kJ/mol
# GULP energy per Si atom -5568.865183 kJ/mol
# Density = 2.297479 g / cm^3
# Si number density = 23.027205 Si / 1000 Ang^3
#
#
#
# Elastic Constant Matrix: (Units=GPa)
#
#
# Indices 1 2 3 4 5 6 
#
# 1 145.1070 16.9206 45.7706 0.0000 0.0000 0.0000
# 2 16.9206 68.6212 13.1813 0.0000 0.0000 0.0000
# 3 45.7706 13.1813 170.2538 0.0001 0.0000 0.0000
# 4 0.0000 0.0000 0.0001 -25.5615 0.0000 0.0000
# 5 0.0000 0.0000 0.0000 0.0000 16.9110 0.0000
# 6 0.0000 0.0000 0.0000 0.0000 0.0000 26.1638
#
#
#
# Elastic Compliance Matrix: (Units=1/GPa)
#
#
# Indices 1 2 3 4 5 6 
#
# 1 0.007683 -0.001520 -0.001948 0.000000 0.000000 0.000000
# 2 -0.001520 0.015094 -0.000760 0.000000 0.000000 0.000000
# 3 -0.001948 -0.000760 0.006456 0.000000 0.000000 0.000000
# 4 0.000000 0.000000 0.000000 -0.039121 0.000000 0.000000
# 5 0.000000 0.000000 0.000000 0.000000 0.059133 0.000000
# 6 0.000000 0.000000 0.000000 0.000000 0.000000 0.038221
#
#
# Mechanical properties :
#
#
# Convention : Reuss Voigt Hill
#
# Bulk Modulus (GPa) = 48.13065 59.52522 53.82794
# Shear Modulus (GPa) = 48.61592 24.04328 36.32960
#
# Velocity S-wave (km/s) = 4.59981 3.23480 3.97631
# Velocity P-wave (km/s) = 7.01128 6.31332 6.67143
#
# Compressibility (1/GPa) = 0.02077678
#
# Stress axis : x y z
#
# Youngs Moduli (GPa) = 130.15505 66.25327 154.89329
#
# Poissons Ratio (x) = 0.10073 0.30170
# Poissons Ratio (y) = 0.19788 0.11769
# Poissons Ratio (z) = 0.25352 0.05034
#
# Static dielectric constant tensor:
#      x y z
#    x 1.900660 0.000000 0.000000 
#    y 0.000000 1.841030 0.000000 
#    z 0.000000 0.000000 1.991130 
# 
# From -- ./inp_files/34.got.cif
#   From: 2010.05.17/outbox.cif.g08.bks.cpg/sg23_1_cif.got.tgz:34.got - 2010.06.04 12:02:01.
