data_PCOD9330609
_publ_section_title
;
Structure prediction by ZEFSAII (Michael W. Deem and Ramdas Pophale) SiO2 
 PCOD9330609
Probable space group: I 2 2 2
;
_chemical_formula_sum "Si O2"
_cell_formula_units_Z 64
_cell_length_a 9.139491
_cell_length_b 13.573928
_cell_length_c 25.708652
_cell_angle_alpha 90.000000
_cell_angle_beta 90.000000
_cell_angle_gamma 90.000000
_cell_volume 3189.384331
_symmetry_space_group_name_H-M "I 2 2 2"
_symmetry_group_IT_number 23
_symmetry_cell_setting 'orthorhombic'
loop_
_space_group_symop_operation_xyz
x,y,z
-x,-y,z
x,-y,-z
-x,y,-z
1/2+x,1/2+y,1/2+z
1/2-x,1/2-y,1/2+z
1/2+x,1/2-y,1/2-z
1/2-x,1/2+y,1/2-z
loop_
_atom_site_type_symbol
_atom_site_label
_atom_site_fract_x
_atom_site_fract_y
_atom_site_fract_z
Si Si1 0.994329 0.679496 0.267560
Si Si2 0.695840 0.877649 0.607815
Si Si3 0.115381 0.082478 0.831208
Si Si4 0.309209 0.639467 0.775863
Si Si5 0.566834 0.905732 0.873776
Si Si6 0.399242 0.180786 0.343228
Si Si7 0.962966 0.774714 0.558383
Si Si8 0.638514 0.560580 0.890143
O O1 0.826011 0.694828 0.252269
O O2 0.004993 0.608909 0.316694
O O3 0.063055 0.782700 0.283556
O O4 0.067275 0.640529 0.214746
O O5 0.751473 0.889661 0.667921
O O6 0.525273 0.853735 0.616084
O O7 0.796074 0.797889 0.577319
O O8 0.746319 0.982928 0.585988
O O9 0.145329 0.064562 0.769408
O O10 0.264019 0.074377 0.863292
O O11 0.079600 0.199974 0.837457
O O12 0.000000 0.000000 0.848141
O O13 0.530581 0.807734 0.904458
O O14 0.500000 0.000000 0.901159
O O15 0.240904 0.137480 0.358456
O O16 0.052032 0.875088 0.568144
O O17 0.000000 0.744362 0.500000
O O18 0.500000 0.500000 0.864140
#
# Coordination Sequence:
#
# PCOD9330609 Si02
#       8
#     8   8   8   8   8   8   8   8
#     4   9  19  33  57  87 130 167 199 253 303 374
#     4  10  21  36  63  94 123 168 207 254 322 380
#     4  10  22  36  59  94 130 170 205 253 310 382
#     4   9  18  33  52  89 127 165 206 244 303 376
#     4  11  23  39  63  89 126 164 214 261 316 374
#     4  10  20  39  62  94 139 166 206 253 312 389
#     4  11  24  44  64  89 121 160 216 275 326 377
#     4  10  22  39  65  92 125 164 204 260 320 385
#
# _framework density 20.066569000000001
#
# number of rings (size 3 to 8) (size 9 to 14) (size 15 to 20)
#    0.000    2.000    2.500    0.375    1.750    8.000 
#    0.000    0.625    0.000    3.000    0.000    0.000 
#    0.000    0.000    0.000    0.000    0.000    0.000 
#
# Total GULP energy -178243.834128 kJ/mol
# GULP energy per Si atom -5570.119816 kJ/mol
# Density = 2.002090 g / cm^3
# Si number density = 20.066569 Si / 1000 Ang^3
#
#
#
# Elastic Constant Matrix: (Units=GPa)
#
#
# Indices 1 2 3 4 5 6 
#
# 1 91.0061 28.0538 25.1071 0.0000 0.0000 0.0000
# 2 28.0538 76.0048 14.3678 0.0000 0.0000 0.0000
# 3 25.1071 14.3678 57.1456 0.0000 0.0000 0.0000
# 4 0.0000 0.0000 0.0000 -1.7825 0.0000 0.0000
# 5 0.0000 0.0000 0.0000 0.0000 13.8416 0.0000
# 6 0.0000 0.0000 0.0000 0.0000 0.0000 39.8271
#
#
#
# Elastic Compliance Matrix: (Units=1/GPa)
#
#
# Indices 1 2 3 4 5 6 
#
# 1 0.013615 -0.004089 -0.004954 0.000000 0.000000 0.000000
# 2 -0.004089 0.015042 -0.001985 0.000000 0.000000 0.000000
# 3 -0.004954 -0.001985 0.020175 0.000000 0.000000 0.000000
# 4 0.000000 0.000000 0.000000 -0.561001 0.000000 0.000000
# 5 0.000000 0.000000 0.000000 0.000000 0.072246 0.000000
# 6 0.000000 0.000000 0.000000 0.000000 0.000000 0.025109
#
#
# Mechanical properties :
#
#
# Convention : Reuss Voigt Hill
#
# Bulk Modulus (GPa) = 37.34769 39.91266 38.63017
# Shear Modulus (GPa) = -13.02649 20.81909 3.89630
#
# Velocity S-wave (km/s) = -2.55063 3.22452 1.39496
# Velocity P-wave (km/s) = 3.15880 5.81349 4.67839
#
# Compressibility (1/GPa) = 0.02677541
#
# Stress axis : x y z
#
# Youngs Moduli (GPa) = 73.44583 66.48208 49.56672
#
# Poissons Ratio (x) = 0.27185 0.24555
# Poissons Ratio (y) = 0.30032 0.09840
# Poissons Ratio (z) = 0.36384 0.13199
#
# Static dielectric constant tensor:
#      x y z
#    x 1.803050 0.000000 0.000000 
#    y 0.000000 1.771170 0.000000 
#    z 0.000000 0.000000 1.752240 
# 
# From -- ./inp_files/28093.got.cif
#   From: 2010.05.17/outbox.cif.g08.bks.cpg/sg23_15_cif.got.tgz:28093.got - 2010.06.04 12:02:01.
