data_PCOD9330844
_publ_section_title
;
Structure prediction by ZEFSAII (Michael W. Deem and Ramdas Pophale) SiO2 
 PCOD9330844
Probable space group: I 2 2 2
;
_chemical_formula_sum "Si O2"
_cell_formula_units_Z 64
_cell_length_a 15.951424
_cell_length_b 8.078715
_cell_length_c 23.515431
_cell_angle_alpha 90.000000
_cell_angle_beta 90.000000
_cell_angle_gamma 90.000000
_cell_volume 3030.363243
_symmetry_space_group_name_H-M "I 2 2 2"
_symmetry_group_IT_number 23
_symmetry_cell_setting 'orthorhombic'
loop_
_space_group_symop_operation_xyz
x,y,z
-x,-y,z
x,-y,-z
-x,y,-z
1/2+x,1/2+y,1/2+z
1/2-x,1/2-y,1/2+z
1/2+x,1/2-y,1/2-z
1/2-x,1/2+y,1/2-z
loop_
_atom_site_type_symbol
_atom_site_label
_atom_site_fract_x
_atom_site_fract_y
_atom_site_fract_z
Si Si1 0.674551 0.149136 0.244234
Si Si2 0.905830 0.529786 0.636566
Si Si3 0.856975 0.026111 0.210563
Si Si4 0.921167 0.097203 0.321730
Si Si5 0.307281 0.164813 0.465046
Si Si6 0.592969 0.557377 0.419663
Si Si7 0.755449 0.655680 0.565697
Si Si8 0.260261 0.978565 0.355633
O O1 0.657331 0.332504 0.270459
O O2 0.678819 0.033197 0.301125
O O3 0.616605 0.086266 0.191614
O O4 0.768941 0.123517 0.219681
O O5 0.911360 0.717936 0.657898
O O6 0.830284 0.541415 0.590303
O O7 0.000000 0.500000 0.614060
O O8 0.923574 0.101508 0.254016
O O9 0.890651 0.055158 0.147914
O O10 0.835178 0.002537 0.335407
O O11 0.000000 0.000000 0.345787
O O12 0.388416 0.272552 0.451656
O O13 0.237515 0.258525 0.503805
O O14 0.327578 0.000000 0.500000
O O15 0.276531 0.115208 0.402623
O O16 0.500000 0.500000 0.431234
O O17 0.668746 0.440462 0.439047
O O18 0.739722 0.802374 0.611332
#
# Coordination Sequence:
#
# PCOD9330844 Si02
#       8
#     8   8   8   8   8   8   8   8
#     4  11  20  38  63  97 138 174 221 267 341 412
#     4  11  23  39  67 100 138 180 225 278 341 413
#     4  11  22  37  64  97 139 179 217 270 333 419
#     4  10  21  36  59  97 138 175 221 271 337 414
#     4  10  24  44  72  95 126 177 232 286 344 397
#     4  12  25  42  69  96 131 173 226 276 342 404
#     4  10  21  46  64  94 132 173 228 283 333 402
#     4   9  20  39  67  92 129 176 223 274 341 404
#
# _framework density 21.119581
#
# number of rings (size 3 to 8) (size 9 to 14) (size 15 to 20)
#    0.000    1.500    2.500    3.000    5.250    2.000 
#    0.000    4.375    0.000   18.375    0.000    0.000 
#    0.000    0.000    0.000    0.000    0.000    0.000 
#
# Total GULP energy -178497.653820 kJ/mol
# GULP energy per Si atom -5578.051682 kJ/mol
# Density = 2.107151 g / cm^3
# Si number density = 21.119581 Si / 1000 Ang^3
#
#
#
# Elastic Constant Matrix: (Units=GPa)
#
#
# Indices 1 2 3 4 5 6 
#
# 1 108.0786 33.5788 38.8237 0.0000 0.0000 0.0000
# 2 33.5788 61.7469 47.4527 0.0000 0.0000 0.0000
# 3 38.8237 47.4527 128.5016 0.0000 0.0000 0.0000
# 4 0.0000 0.0000 0.0000 31.8496 0.0000 0.0000
# 5 0.0000 0.0000 0.0000 0.0000 -18.5457 0.0000
# 6 0.0000 0.0000 0.0000 0.0000 0.0000 21.6022
#
#
#
# Elastic Compliance Matrix: (Units=1/GPa)
#
#
# Indices 1 2 3 4 5 6 
#
# 1 0.011367 -0.004946 -0.001608 0.000000 0.000000 0.000000
# 2 -0.004946 0.024764 -0.007651 0.000000 0.000000 0.000000
# 3 -0.001608 -0.007651 0.011093 0.000000 0.000000 0.000000
# 4 0.000000 0.000000 0.000000 0.031398 0.000000 0.000000
# 5 0.000000 0.000000 0.000000 0.000000 -0.053921 0.000000
# 6 0.000000 0.000000 0.000000 0.000000 0.000000 0.046292
#
#
# Mechanical properties :
#
#
# Convention : Reuss Voigt Hill
#
# Bulk Modulus (GPa) = 53.14765 59.78195 56.46480
# Shear Modulus (GPa) = 47.31609 18.87936 33.09773
#
# Velocity S-wave (km/s) = 4.73841 2.99310 3.96303
# Velocity P-wave (km/s) = 7.42674 6.34923 6.90902
#
# Compressibility (1/GPa) = 0.01881551
#
# Stress axis : x y z
#
# Youngs Moduli (GPa) = 87.97659 40.38077 90.14714
#
# Poissons Ratio (x) = 0.19971 0.14494
# Poissons Ratio (y) = 0.43511 0.68968
# Poissons Ratio (z) = 0.14145 0.30894
#
# Static dielectric constant tensor:
#      x y z
#    x 1.760450 0.000000 0.000000 
#    y 0.000000 1.901480 0.000000 
#    z 0.000000 0.000000 1.855320 
# 
# From -- ./inp_files/28566.got.cif
#   From: 2010.05.17/outbox.cif.g08.bks.cpg/sg23_15_cif.got.tgz:28566.got - 2010.06.04 12:02:01.
