data_PCOD9330728
_publ_section_title
;
Structure prediction by ZEFSAII (Michael W. Deem and Ramdas Pophale) SiO2 
 PCOD9330728
Probable space group: I 2 2 2
;
_chemical_formula_sum "Si O2"
_cell_formula_units_Z 40
_cell_length_a 6.391873
_cell_length_b 17.773703
_cell_length_c 16.237669
_cell_angle_alpha 90.000000
_cell_angle_beta 90.000000
_cell_angle_gamma 90.000000
_cell_volume 1844.716959
_symmetry_space_group_name_H-M "I 2 2 2"
_symmetry_group_IT_number 23
_symmetry_cell_setting 'orthorhombic'
loop_
_space_group_symop_operation_xyz
x,y,z
-x,-y,z
x,-y,-z
-x,y,-z
1/2+x,1/2+y,1/2+z
1/2-x,1/2-y,1/2+z
1/2+x,1/2-y,1/2-z
1/2-x,1/2+y,1/2-z
loop_
_atom_site_type_symbol
_atom_site_label
_atom_site_fract_x
_atom_site_fract_y
_atom_site_fract_z
Si Si1 0.000000 0.000000 0.500000
Si Si2 0.668914 0.120193 0.424970
Si Si3 0.839970 0.567110 0.607093
Si Si4 0.122226 0.638026 0.227504
Si Si5 0.985306 0.772739 0.350806
Si Si6 0.000000 0.701454 0.500000
Si Si7 0.000000 0.000000 0.000000
O O1 0.840098 0.055765 0.449834
O O2 0.500000 0.128558 0.500000
O O3 0.529322 0.107274 0.343204
O O4 0.807690 0.192362 0.394274
O O5 0.832790 0.576442 0.703728
O O6 0.899144 0.645507 0.565489
O O7 0.629655 0.549293 0.561860
O O8 0.000000 0.500000 0.588100
O O9 0.340740 0.664812 0.189826
O O10 0.027682 0.710041 0.279720
O O11 0.861565 0.746667 0.434061
#
# Coordination Sequence:
#
# PCOD9330728 Si02
#       7
#     2   8   8   8   8   4   2
#     4  12  28  48  78 108 144 206 252 308 374 464
#     4  12  26  49  76 106 148 192 250 306 381 449
#     4  11  24  43  65  98 140 180 234 281 349 425
#     4  11  25  44  72 107 144 189 237 314 363 443
#     4  11  23  44  69 108 142 181 243 295 372 433
#     4  10  20  42  66  88 140 174 218 290 332 422
#     4  12  22  44  66  94 132 194 234 282 358 426
#
# _framework density 21.683543
#
# number of rings (size 3 to 8) (size 9 to 14) (size 15 to 20)
#    0.000    0.800    4.000    3.300    0.000    6.400 
#    7.200    1.000    0.000    0.000    0.000    0.000 
#    0.000    0.000    0.000    0.000    0.000    0.000 
#
# Total GULP energy -111405.909228 kJ/mol
# GULP energy per Si atom -5570.295461 kJ/mol
# Density = 2.163419 g / cm^3
# Si number density = 21.683543 Si / 1000 Ang^3
#
#
#
# Elastic Constant Matrix: (Units=GPa)
#
#
# Indices 1 2 3 4 5 6 
#
# 1 95.2762 29.6715 77.1906 0.0000 0.0000 0.0000
# 2 29.6715 63.4279 53.7129 0.0000 0.0000 0.0000
# 3 77.1906 53.7129 217.5087 0.0000 0.0000 0.0000
# 4 0.0000 0.0000 0.0000 44.9499 0.0000 0.0000
# 5 0.0000 0.0000 0.0000 0.0000 -95.7459 0.0000
# 6 0.0000 0.0000 0.0000 0.0000 0.0000 -49.9954
#
#
#
# Elastic Compliance Matrix: (Units=1/GPa)
#
#
# Indices 1 2 3 4 5 6 
#
# 1 0.015235 -0.003222 -0.004611 0.000000 0.000000 0.000000
# 2 -0.003222 0.020616 -0.003948 0.000000 0.000000 0.000000
# 3 -0.004611 -0.003948 0.007209 0.000000 0.000000 0.000000
# 4 0.000000 0.000000 0.000000 0.022247 0.000000 0.000000
# 5 0.000000 0.000000 0.000000 0.000000 -0.010444 0.000000
# 6 0.000000 0.000000 0.000000 0.000000 0.000000 -0.020002
#
#
# Mechanical properties :
#
#
# Convention : Reuss Voigt Hill
#
# Bulk Modulus (GPa) = 51.28614 77.48476 64.38545
# Shear Modulus (GPa) = 77.01584 -5.78243 35.61670
#
# Velocity S-wave (km/s) = 5.96617 -1.63479 4.05726
# Velocity P-wave (km/s) = 8.43586 5.67878 7.19070
#
# Compressibility (1/GPa) = 0.01949845
#
# Stress axis : x y z
#
# Youngs Moduli (GPa) = 65.63843 48.50552 138.72088
#
# Poissons Ratio (x) = 0.15629 0.63964
# Poissons Ratio (y) = 0.21150 0.54761
# Poissons Ratio (z) = 0.30266 0.19148
#
# Static dielectric constant tensor:
#      x y z
#    x 1.777740 0.000000 0.000000 
#    y 0.000000 5.201880 0.000000 
#    z 0.000000 0.000000 1.933340 
# 
# From -- ./inp_files/23058.got.cif
#   From: 2010.05.17/outbox.cif.g08.bks.cpg/sg23_12_cif.got.tgz:23058.got - 2010.06.04 12:02:01.
