data_PCOD9330296
_publ_section_title
;
Structure prediction by ZEFSAII (Michael W. Deem and Ramdas Pophale) SiO2 
 PCOD9330296
Probable space group: I 2 2 2
;
_chemical_formula_sum "Si O2"
_cell_formula_units_Z 32
_cell_length_a 29.915810
_cell_length_b 5.307527
_cell_length_c 9.461403
_cell_angle_alpha 90.000000
_cell_angle_beta 90.000000
_cell_angle_gamma 90.000000
_cell_volume 1502.271816
_symmetry_space_group_name_H-M "I 2 2 2"
_symmetry_group_IT_number 23
_symmetry_cell_setting 'orthorhombic'
loop_
_space_group_symop_operation_xyz
x,y,z
-x,-y,z
x,-y,-z
-x,y,-z
1/2+x,1/2+y,1/2+z
1/2-x,1/2-y,1/2+z
1/2+x,1/2-y,1/2-z
1/2-x,1/2+y,1/2-z
loop_
_atom_site_type_symbol
_atom_site_label
_atom_site_fract_x
_atom_site_fract_y
_atom_site_fract_z
Si Si1 0.225468 0.151709 0.795429
Si Si2 0.959498 0.194765 0.749200
Si Si3 0.636646 0.394214 0.339814
Si Si4 0.500000 0.000000 0.500000
Si Si5 0.815438 0.500000 0.000000
Si Si6 0.500000 0.000000 0.000000
O O1 0.242850 0.406598 0.717683
O O2 0.176290 0.041527 0.760160
O O3 0.215885 0.273591 0.948888
O O4 0.909857 0.089700 0.759652
O O5 0.968202 0.347992 0.606499
O O6 0.000000 0.000000 0.750872
O O7 0.968025 0.350216 0.893121
O O8 0.630272 0.500000 0.500000
O O9 0.654136 0.110835 0.374126
#
# Coordination Sequence:
#
# PCOD9330296 Si02
#       6
#     8   8   8   2   4   2
#     4  11  22  40  67  98 137 180 217 281 350 414
#     4  11  22  42  68  99 140 181 228 287 348 414
#     4  10  21  37  68 100 132 173 233 294 352 403
#     4  10  20  34  68 112 132 166 238 286 354 408
#     4  10  21  40  68  99 136 170 233 292 345 402
#     4  10  26  42  68  88 144 194 226 270 348 424
#
# _framework density 21.301069999999999
#
# number of rings (size 3 to 8) (size 9 to 14) (size 15 to 20)
#    0.000    1.500    2.500    3.000    0.000    6.000 
#    0.000    0.000   19.250    0.000    0.000    0.000 
#    0.000    0.000    0.000    0.000    0.000    0.000 
#
# Total GULP energy -89173.401321 kJ/mol
# GULP energy per Si atom -5573.337583 kJ/mol
# Density = 2.125259 g / cm^3
# Si number density = 21.301070 Si / 1000 Ang^3
#
#
#
# Elastic Constant Matrix: (Units=GPa)
#
#
# Indices 1 2 3 4 5 6 
#
# 1 194.7852 82.1497 51.3222 0.0000 0.0000 0.0000
# 2 82.1497 137.9607 40.5214 0.0000 0.0000 0.0000
# 3 51.3222 40.5214 89.3726 0.0000 0.0000 0.0000
# 4 0.0000 0.0000 0.0000 -63.2774 0.0000 0.0000
# 5 0.0000 0.0000 0.0000 0.0000 7.6686 0.0000
# 6 0.0000 0.0000 0.0000 0.0000 0.0000 28.8776
#
#
#
# Elastic Compliance Matrix: (Units=1/GPa)
#
#
# Indices 1 2 3 4 5 6 
#
# 1 0.007336 -0.003612 -0.002575 0.000000 0.000000 0.000000
# 2 -0.003612 0.010140 -0.002524 0.000000 0.000000 0.000000
# 3 -0.002575 -0.002524 0.013812 0.000000 0.000000 0.000000
# 4 0.000000 0.000000 0.000000 -0.015803 0.000000 0.000000
# 5 0.000000 0.000000 0.000000 0.000000 0.130402 0.000000
# 6 0.000000 0.000000 0.000000 0.000000 0.000000 0.034629
#
#
# Mechanical properties :
#
#
# Convention : Reuss Voigt Hill
#
# Bulk Modulus (GPa) = 72.11151 85.56725 78.83938
# Shear Modulus (GPa) = 24.68431 11.19544 17.93987
#
# Velocity S-wave (km/s) = 3.40785 2.29504 2.90523
# Velocity P-wave (km/s) = 7.02934 6.87609 6.95313
#
# Compressibility (1/GPa) = 0.01386741
#
# Stress axis : x y z
#
# Youngs Moduli (GPa) = 136.32321 98.61674 72.40124
#
# Poissons Ratio (x) = 0.35617 0.18642
# Poissons Ratio (y) = 0.49236 0.18271
# Poissons Ratio (z) = 0.35102 0.24887
#
# Static dielectric constant tensor:
#      x y z
#    x 1.834130 0.000000 0.000000 
#    y 0.000000 1.944110 0.000000 
#    z 0.000000 0.000000 1.783110 
# 
# From -- ./inp_files/5179.got.cif
#   From: 2010.05.17/outbox.cif.g08.bks.cpg/sg23_3_cif.got.tgz:5179.got - 2010.06.04 12:02:01.
