data_PCOD9330721
_publ_section_title
;
Structure prediction by ZEFSAII (Michael W. Deem and Ramdas Pophale) SiO2 
 PCOD9330721
Probable space group: I 2 2 2
;
_chemical_formula_sum "Si O2"
_cell_formula_units_Z 48
_cell_length_a 12.112436
_cell_length_b 11.167300
_cell_length_c 16.309263
_cell_angle_alpha 90.000000
_cell_angle_beta 90.000000
_cell_angle_gamma 90.000000
_cell_volume 2206.043210
_symmetry_space_group_name_H-M "I 2 2 2"
_symmetry_group_IT_number 23
_symmetry_cell_setting 'orthorhombic'
loop_
_space_group_symop_operation_xyz
x,y,z
-x,-y,z
x,-y,-z
-x,y,-z
1/2+x,1/2+y,1/2+z
1/2-x,1/2-y,1/2+z
1/2+x,1/2-y,1/2-z
1/2-x,1/2+y,1/2-z
loop_
_atom_site_type_symbol
_atom_site_label
_atom_site_fract_x
_atom_site_fract_y
_atom_site_fract_z
Si Si1 0.149450 0.185088 0.628333
Si Si2 0.487565 0.190421 0.754174
Si Si3 0.000000 0.825581 0.000000
Si Si4 0.736039 0.899304 0.792630
Si Si5 0.300271 0.500000 0.000000
Si Si6 0.655427 0.635233 0.637546
Si Si7 0.837974 0.677087 0.885005
O O1 0.045729 0.255324 0.665530
O O2 0.131939 0.096022 0.553138
O O3 0.248776 0.275718 0.606807
O O4 0.199039 0.116523 0.707342
O O5 0.606054 0.903491 0.777598
O O6 0.418048 0.294959 0.705846
O O7 0.581640 0.144778 0.691350
O O8 0.081964 0.740539 0.050412
O O9 0.926306 0.894875 0.064477
O O10 0.785853 0.017239 0.831420
O O11 0.759856 0.780612 0.847026
O O12 0.225411 0.427926 0.933053
#
# Coordination Sequence:
#
# PCOD9330721 Si02
#       7
#     8   8   4   8   4   8   8
#     4  10  23  42  66  99 140 181 232 282 345 416
#     4   9  22  44  67 102 133 188 232 273 363 412
#     4  10  20  42  64 104 126 179 227 282 354 394
#     4  10  23  43  67  97 139 178 232 288 337 424
#     4  12  24  45  67 102 146 176 226 300 334 404
#     4  10  21  42  68 101 138 175 239 291 339 421
#     4  10  23  42  66 101 138 175 228 284 346 413
#
# _framework density 21.758412
#
# number of rings (size 3 to 8) (size 9 to 14) (size 15 to 20)
#    0.000    2.000    1.667    0.000    7.000    8.333 
#    3.000    1.667    0.000    0.000    4.333    0.000 
#    0.000    0.000    0.000    0.000    0.000    0.000 
#
# Total GULP energy -134208.830819 kJ/mol
# GULP energy per Si atom -5592.034617 kJ/mol
# Density = 2.170889 g / cm^3
# Si number density = 21.758412 Si / 1000 Ang^3
#
#
#
# Elastic Constant Matrix: (Units=GPa)
#
#
# Indices 1 2 3 4 5 6 
#
# 1 72.9856 38.8053 42.3288 0.0000 0.0000 0.0000
# 2 38.8053 103.8423 63.8623 0.0000 0.0000 0.0000
# 3 42.3288 63.8623 100.8246 0.0000 0.0000 0.0000
# 4 0.0000 0.0000 0.0000 24.1102 0.0000 0.0000
# 5 0.0000 0.0000 0.0000 0.0000 36.1629 0.0000
# 6 0.0000 0.0000 0.0000 0.0000 0.0000 41.7814
#
#
#
# Elastic Compliance Matrix: (Units=1/GPa)
#
#
# Indices 1 2 3 4 5 6 
#
# 1 0.018887 -0.003574 -0.005666 0.000000 0.000000 0.000000
# 2 -0.003574 0.016451 -0.008920 0.000000 0.000000 0.000000
# 3 -0.005666 -0.008920 0.017947 0.000000 0.000000 0.000000
# 4 0.000000 0.000000 0.000000 0.041476 0.000000 0.000000
# 5 0.000000 0.000000 0.000000 0.000000 0.027653 0.000000
# 6 0.000000 0.000000 0.000000 0.000000 0.000000 0.023934
#
#
# Mechanical properties :
#
#
# Convention : Reuss Voigt Hill
#
# Bulk Modulus (GPa) = 58.93961 63.07169 61.00565
# Shear Modulus (GPa) = 26.55025 29.25464 27.90245
#
# Velocity S-wave (km/s) = 3.49697 3.67075 3.58491
# Velocity P-wave (km/s) = 6.59182 6.85683 6.72563
#
# Compressibility (1/GPa) = 0.01696652
#
# Stress axis : x y z
#
# Youngs Moduli (GPa) = 52.94548 60.78643 55.72063
#
# Poissons Ratio (x) = 0.21723 0.31570
# Poissons Ratio (y) = 0.18921 0.49702
# Poissons Ratio (z) = 0.29998 0.54220
#
# Static dielectric constant tensor:
#      x y z
#    x 1.776360 0.000000 0.000000 
#    y 0.000000 1.809660 0.000000 
#    z 0.000000 0.000000 1.737890 
# 
# From -- ./inp_files/21565.got.cif
#   From: 2010.05.17/outbox.cif.g08.bks.cpg/sg23_11_cif.got.tgz:21565.got - 2010.06.04 12:02:01.
