data_PCOD9330968
_publ_section_title
;
Structure prediction by ZEFSAII (Michael W. Deem and Ramdas Pophale) SiO2 
 PCOD9330968
Probable space group: I 2 2 2
;
_chemical_formula_sum "Si O2"
_cell_formula_units_Z 44
_cell_length_a 13.591333
_cell_length_b 12.227060
_cell_length_c 12.593876
_cell_angle_alpha 90.000000
_cell_angle_beta 90.000000
_cell_angle_gamma 90.000000
_cell_volume 2092.876056
_symmetry_space_group_name_H-M "I 2 2 2"
_symmetry_group_IT_number 23
_symmetry_cell_setting 'orthorhombic'
loop_
_space_group_symop_operation_xyz
x,y,z
-x,-y,z
x,-y,-z
-x,y,-z
1/2+x,1/2+y,1/2+z
1/2-x,1/2-y,1/2+z
1/2+x,1/2-y,1/2-z
1/2-x,1/2+y,1/2-z
loop_
_atom_site_type_symbol
_atom_site_label
_atom_site_fract_x
_atom_site_fract_y
_atom_site_fract_z
Si Si1 0.812306 0.862926 0.437858
Si Si2 0.500000 0.690048 0.500000
Si Si3 0.213214 0.932237 0.783149
Si Si4 0.151457 0.622324 0.648816
Si Si5 0.322750 0.797739 0.381788
Si Si6 0.500000 0.500000 0.000000
Si Si7 0.000000 0.500000 0.500000
Si Si8 0.000000 0.000000 0.162324
O O1 0.755176 0.916888 0.338603
O O2 0.818558 0.735838 0.405195
O O3 0.755646 0.866037 0.549816
O O4 0.920398 0.917167 0.446921
O O5 0.411218 0.763017 0.458653
O O6 0.469356 0.604893 0.591986
O O7 0.225362 0.816917 0.842881
O O8 0.097396 0.960991 0.778976
O O9 0.266453 0.028035 0.846143
O O10 0.135320 0.648667 0.773940
O O11 0.063878 0.574427 0.578972
#
# Coordination Sequence:
#
# PCOD9330968 Si02
#       8
#     8   4   8   8   8   2   2   4
#     4  11  23  40  64  94 130 169 213 268 324 378
#     4   9  18  34  60  89 124 160 206 263 312 373
#     4  10  21  38  63  93 129 169 216 266 316 380
#     4  11  24  42  64  92 126 170 218 265 321 384
#     4  10  22  39  62  94 127 168 215 265 326 381
#     4  12  24  40  62  88 124 166 204 256 318 380
#     4  12  26  44  64  86 124 172 218 268 320 386
#     4   9  17  34  61  93 124 165 211 255 309 370
#
# _framework density 21.023700999999999
#
# number of rings (size 3 to 8) (size 9 to 14) (size 15 to 20)
#    0.000    1.636    0.000    4.364    0.000    4.364 
#    0.000    9.091    0.000    0.000    0.000    0.000 
#    0.000    0.000    0.000    0.000    0.000    0.000 
#
# Total GULP energy -122764.722638 kJ/mol
# GULP energy per Si atom -5580.214665 kJ/mol
# Density = 2.097585 g / cm^3
# Si number density = 21.023701 Si / 1000 Ang^3
#
#
#
# Elastic Constant Matrix: (Units=GPa)
#
#
# Indices 1 2 3 4 5 6 
#
# 1 69.2521 33.4366 63.8796 0.0000 0.0000 0.0000
# 2 33.4366 91.4726 53.8217 0.0000 0.0000 0.0000
# 3 63.8796 53.8217 138.9431 0.0000 0.0000 0.0000
# 4 0.0000 0.0000 0.0000 -9.4807 0.0000 0.0000
# 5 0.0000 0.0000 0.0000 0.0000 15.6688 0.0000
# 6 0.0000 0.0000 0.0000 0.0000 0.0000 32.6373
#
#
#
# Elastic Compliance Matrix: (Units=1/GPa)
#
#
# Indices 1 2 3 4 5 6 
#
# 1 0.025764 -0.003171 -0.010617 0.000000 0.000000 0.000000
# 2 -0.003171 0.014550 -0.004178 0.000000 0.000000 0.000000
# 3 -0.010617 -0.004178 0.013697 0.000000 0.000000 0.000000
# 4 0.000000 0.000000 0.000000 -0.105478 0.000000 0.000000
# 5 0.000000 0.000000 0.000000 0.000000 0.063821 0.000000
# 6 0.000000 0.000000 0.000000 0.000000 0.000000 0.030640
#
#
# Mechanical properties :
#
#
# Convention : Reuss Voigt Hill
#
# Bulk Modulus (GPa) = 55.31345 66.88262 61.09803
# Shear Modulus (GPa) = 58.85658 17.66709 38.26183
#
# Velocity S-wave (km/s) = 5.29680 2.90201 4.27070
# Velocity P-wave (km/s) = 7.98595 6.56589 7.31048
#
# Compressibility (1/GPa) = 0.01807879
#
# Stress axis : x y z
#
# Youngs Moduli (GPa) = 38.81346 68.72976 73.00936
#
# Poissons Ratio (x) = 0.21793 0.77514
# Poissons Ratio (y) = 0.12307 0.30505
# Poissons Ratio (z) = 0.41208 0.28717
#
# Static dielectric constant tensor:
#      x y z
#    x 1.749380 0.000000 0.000000 
#    y 0.000000 1.788680 0.000000 
#    z 0.000000 0.000000 1.799440 
# 
# From -- ./inp_files/21524.got.cif
#   From: 2010.05.17/outbox.cif.g08.bks.cpg/sg23_11_cif.got.tgz:21524.got - 2010.06.04 12:02:01.
