data_PCOD9330519
_publ_section_title
;
Structure prediction by ZEFSAII (Michael W. Deem and Ramdas Pophale) SiO2 
 PCOD9330519
Probable space group: I 2 2 2
;
_chemical_formula_sum "Si O2"
_cell_formula_units_Z 64
_cell_length_a 11.534660
_cell_length_b 17.341619
_cell_length_c 15.395956
_cell_angle_alpha 90.000000
_cell_angle_beta 90.000000
_cell_angle_gamma 90.000000
_cell_volume 3079.648137
_symmetry_space_group_name_H-M "I 2 2 2"
_symmetry_group_IT_number 23
_symmetry_cell_setting 'orthorhombic'
loop_
_space_group_symop_operation_xyz
x,y,z
-x,-y,z
x,-y,-z
-x,y,-z
1/2+x,1/2+y,1/2+z
1/2-x,1/2-y,1/2+z
1/2+x,1/2-y,1/2-z
1/2-x,1/2+y,1/2-z
loop_
_atom_site_type_symbol
_atom_site_label
_atom_site_fract_x
_atom_site_fract_y
_atom_site_fract_z
Si Si1 0.536090 0.387633 0.226708
Si Si2 0.718081 0.729742 0.030018
Si Si3 0.044281 0.364005 0.591884
Si Si4 0.249550 0.952390 0.821662
Si Si5 0.632586 0.366416 0.476411
Si Si6 0.150606 0.737627 0.663140
Si Si7 0.396861 0.579460 0.944381
Si Si8 0.689149 0.618598 0.329240
O O1 0.662475 0.422968 0.246307
O O2 0.570907 0.299818 0.208932
O O3 0.460209 0.424248 0.148715
O O4 0.445386 0.392033 0.305363
O O5 0.699523 0.725421 0.925920
O O6 0.617518 0.786928 0.065655
O O7 0.832146 0.779656 0.053279
O O8 0.704487 0.642316 0.062497
O O9 0.127633 0.414163 0.653780
O O10 0.000000 0.399664 0.500000
O O11 0.931880 0.333649 0.640232
O O12 0.176004 0.929207 0.907980
O O13 0.257256 0.042326 0.803773
O O14 0.500000 0.373259 0.500000
O O15 0.699830 0.376248 0.566886
O O16 0.259529 0.697462 0.710441
O O17 0.372390 0.500000 0.000000
O O18 0.500000 0.618839 0.000000
#
# Coordination Sequence:
#
# PCOD9330519 Si02
#       8
#     8   8   8   8   8   8   8   8
#     4  12  24  38  63  89 132 161 211 270 323 377
#     4   9  17  36  59  86 113 155 212 255 291 380
#     4   9  18  38  65  87 121 166 210 249 304 384
#     4  11  24  37  62  94 129 161 201 265 325 381
#     4  10  20  38  59  83 122 165 199 240 318 392
#     4  10  21  38  59  83 120 162 213 255 306 375
#     4  11  22  36  63  89 115 155 208 266 325 352
#     4  11  25  38  58  93 123 164 207 258 322 383
#
# _framework density 20.781594999999999
#
# number of rings (size 3 to 8) (size 9 to 14) (size 15 to 20)
#    0.000    1.625    3.750    1.875    5.250    1.000 
#    0.000    3.125    0.000    0.375    0.000    0.000 
#    0.000    0.000    0.000    0.000    0.000    0.000 
#
# Total GULP energy -178300.605206 kJ/mol
# GULP energy per Si atom -5571.893913 kJ/mol
# Density = 2.073429 g / cm^3
# Si number density = 20.781595 Si / 1000 Ang^3
#
#
#
# Elastic Constant Matrix: (Units=GPa)
#
#
# Indices 1 2 3 4 5 6 
#
# 1 56.4936 19.3562 3.7114 0.0000 0.0000 0.0000
# 2 19.3562 105.7794 17.2326 0.0000 0.0000 0.0000
# 3 3.7114 17.2326 56.1404 0.0000 0.0000 0.0000
# 4 0.0000 0.0000 0.0000 15.9804 0.0000 0.0000
# 5 0.0000 0.0000 0.0000 0.0000 28.2262 0.0000
# 6 0.0000 0.0000 0.0000 0.0000 0.0000 12.0753
#
#
#
# Elastic Compliance Matrix: (Units=1/GPa)
#
#
# Indices 1 2 3 4 5 6 
#
# 1 0.018887 -0.003424 -0.000198 0.000000 0.000000 0.000000
# 2 -0.003424 0.010572 -0.003019 0.000000 0.000000 0.000000
# 3 -0.000198 -0.003019 0.018752 0.000000 0.000000 0.000000
# 4 0.000000 0.000000 0.000000 0.062577 0.000000 0.000000
# 5 0.000000 0.000000 0.000000 0.000000 0.035428 0.000000
# 6 0.000000 0.000000 0.000000 0.000000 0.000000 0.082814
#
#
# Mechanical properties :
#
#
# Convention : Reuss Voigt Hill
#
# Bulk Modulus (GPa) = 28.62810 33.22378 30.92594
# Shear Modulus (GPa) = 19.68860 23.13059 21.40960
#
# Velocity S-wave (km/s) = 3.08133 3.33983 3.21318
# Velocity P-wave (km/s) = 5.14442 5.55828 5.35535
#
# Compressibility (1/GPa) = 0.03493071
#
# Stress axis : x y z
#
# Youngs Moduli (GPa) = 52.94587 94.58987 53.32715
#
# Poissons Ratio (x) = 0.32387 0.01054
# Poissons Ratio (y) = 0.18128 0.16098
# Poissons Ratio (z) = 0.01046 0.28554
#
# Static dielectric constant tensor:
#      x y z
#    x 1.771330 0.000000 0.000000 
#    y 0.000000 1.816140 0.000000 
#    z 0.000000 0.000000 1.821500 
# 
# From -- ./inp_files/21036.got.cif
#   From: 2010.05.17/outbox.cif.g08.bks.cpg/sg23_11_cif.got.tgz:21036.got - 2010.06.04 12:02:01.
