data_PCOD9330039
_publ_section_title
;
Structure prediction by ZEFSAII (Michael W. Deem and Ramdas Pophale) SiO2 
 PCOD9330039
Probable space group: I 2 2 2
;
_chemical_formula_sum "Si O2"
_cell_formula_units_Z 58
_cell_length_a 10.817207
_cell_length_b 8.898619
_cell_length_c 27.314439
_cell_angle_alpha 90.000000
_cell_angle_beta 90.000000
_cell_angle_gamma 90.000000
_cell_volume 2629.238834
_symmetry_space_group_name_H-M "I 2 2 2"
_symmetry_group_IT_number 23
_symmetry_cell_setting 'orthorhombic'
loop_
_space_group_symop_operation_xyz
x,y,z
-x,-y,z
x,-y,-z
-x,y,-z
1/2+x,1/2+y,1/2+z
1/2-x,1/2-y,1/2+z
1/2+x,1/2-y,1/2-z
1/2-x,1/2+y,1/2-z
loop_
_atom_site_type_symbol
_atom_site_label
_atom_site_fract_x
_atom_site_fract_y
_atom_site_fract_z
Si Si1 0.649324 0.354110 0.867799
Si Si2 0.500000 0.000000 0.000000
Si Si3 0.818877 0.670654 0.982782
Si Si4 0.355961 0.514054 0.763592
Si Si5 0.375064 0.668841 0.097350
Si Si6 0.749190 0.281932 0.684021
Si Si7 0.725304 0.886215 0.063399
Si Si8 0.405071 0.363378 0.402559
O O1 0.635617 0.371425 0.809936
O O2 0.520183 0.349364 0.897391
O O3 0.697231 0.517931 0.884145
O O4 0.718570 0.209044 0.886662
O O5 0.594129 0.086353 0.963422
O O6 0.684256 0.683697 0.955525
O O7 0.917458 0.732098 0.942999
O O8 0.837840 0.500000 0.000000
O O9 0.807804 0.785322 0.027448
O O10 0.500000 0.500000 0.747996
O O11 0.272238 0.582798 0.721143
O O12 0.293812 0.361322 0.784149
O O13 0.348940 0.789931 0.140215
O O14 0.626589 0.285454 0.649321
O O15 0.789991 0.042735 0.074482
O O16 0.500000 0.500000 0.396935
#
# Coordination Sequence:
#
# PCOD9330039 Si02
#       8
#     8   2   8   8   8   8   8   8
#     4  10  19  36  63  93 133 175 210 274 349 408
#     4  12  24  40  56 108 144 172 230 286 336 428
#     4  11  21  40  68 100 129 174 238 281 335 405
#     4  11  22  43  70  97 133 175 231 289 357 423
#     4   9  18  38  61  94 134 172 212 275 344 405
#     4  10  23  42  68  97 131 180 230 282 351 425
#     4  12  24  38  65  98 139 178 224 282 350 411
#     4  11  26  49  68  92 144 193 231 287 354 413
#
# _framework density 22.059616999999999
#
# number of rings (size 3 to 8) (size 9 to 14) (size 15 to 20)
#    0.000    1.379    5.517    1.241    3.862    1.103 
#    0.000    3.448    3.034    0.000    0.000    0.000 
#    0.000    0.000    0.000    0.000    0.000    0.000 
#
# Total GULP energy -161505.850503 kJ/mol
# GULP energy per Si atom -5569.167259 kJ/mol
# Density = 2.200941 g / cm^3
# Si number density = 22.059617 Si / 1000 Ang^3
#
#
#
# Elastic Constant Matrix: (Units=GPa)
#
#
# Indices 1 2 3 4 5 6 
#
# 1 62.6869 24.9764 23.8000 0.0000 0.0000 0.0000
# 2 24.9764 101.8196 49.5306 0.0000 0.0000 0.0000
# 3 23.8000 49.5306 63.5697 0.0000 0.0000 0.0000
# 4 0.0000 0.0000 0.0000 46.7286 0.0000 0.0000
# 5 0.0000 0.0000 0.0000 0.0000 6.0759 0.0000
# 6 0.0000 0.0000 0.0000 0.0000 0.0000 32.6329
#
#
#
# Elastic Compliance Matrix: (Units=1/GPa)
#
#
# Indices 1 2 3 4 5 6 
#
# 1 0.018825 -0.001915 -0.005556 0.000000 0.000000 0.000000
# 2 -0.001915 0.016011 -0.011758 0.000000 0.000000 0.000000
# 3 -0.005556 -0.011758 0.026972 0.000000 0.000000 0.000000
# 4 0.000000 0.000000 0.000000 0.021400 0.000000 0.000000
# 5 0.000000 0.000000 0.000000 0.000000 0.164584 0.000000
# 6 0.000000 0.000000 0.000000 0.000000 0.000000 0.030644
#
#
# Mechanical properties :
#
#
# Convention : Reuss Voigt Hill
#
# Bulk Modulus (GPa) = 42.82633 47.18781 45.00707
# Shear Modulus (GPa) = 15.40000 25.73878 20.56939
#
# Velocity S-wave (km/s) = 2.64504 3.41953 3.05691
# Velocity P-wave (km/s) = 5.36511 6.08509 5.73641
#
# Compressibility (1/GPa) = 0.02335012
#
# Stress axis : x y z
#
# Youngs Moduli (GPa) = 53.12201 62.45819 37.07567
#
# Poissons Ratio (x) = 0.11962 0.20598
# Poissons Ratio (y) = 0.10174 0.43593
# Poissons Ratio (z) = 0.29512 0.73437
#
# Static dielectric constant tensor:
#      x y z
#    x 1.910370 0.000000 0.000000 
#    y 0.000000 1.873720 0.000000 
#    z 0.000000 0.000000 1.825430 
# 
# From -- ./inp_files/29485.got.cif
#   From: 2010.05.17/outbox.cif.g08.bks.cpg/sg23_15_cif.got.tgz:29485.got - 2010.06.04 12:02:01.
