data_PCOD9330542
_publ_section_title
;
Structure prediction by ZEFSAII (Michael W. Deem and Ramdas Pophale) SiO2 
 PCOD9330542
Probable space group: I 2 2 2
;
_chemical_formula_sum "Si O2"
_cell_formula_units_Z 58
_cell_length_a 8.276978
_cell_length_b 11.702461
_cell_length_c 27.524410
_cell_angle_alpha 90.000000
_cell_angle_beta 90.000000
_cell_angle_gamma 90.000000
_cell_volume 2666.042214
_symmetry_space_group_name_H-M "I 2 2 2"
_symmetry_group_IT_number 23
_symmetry_cell_setting 'orthorhombic'
loop_
_space_group_symop_operation_xyz
x,y,z
-x,-y,z
x,-y,-z
-x,y,-z
1/2+x,1/2+y,1/2+z
1/2-x,1/2-y,1/2+z
1/2+x,1/2-y,1/2-z
1/2-x,1/2+y,1/2-z
loop_
_atom_site_type_symbol
_atom_site_label
_atom_site_fract_x
_atom_site_fract_y
_atom_site_fract_z
Si Si1 0.564331 0.120531 0.128997
Si Si2 0.931375 0.879539 0.213070
Si Si3 0.337191 0.864144 0.583904
Si Si4 0.522073 0.710684 0.057715
Si Si5 0.441419 0.381446 0.394118
Si Si6 0.000000 0.500000 0.000000
Si Si7 0.176426 0.943069 0.364584
Si Si8 0.117118 0.251324 0.708659
O O1 0.462920 0.164167 0.081868
O O2 0.751796 0.106035 0.117584
O O3 0.523320 0.208514 0.171843
O O4 0.500000 0.000000 0.145488
O O5 0.744948 0.850251 0.219827
O O6 0.960616 0.877951 0.155789
O O7 0.037612 0.788803 0.241848
O O8 0.000000 0.000000 0.231157
O O9 0.446639 0.749982 0.587446
O O10 0.152896 0.824884 0.577855
O O11 0.391236 0.925246 0.535207
O O12 0.313414 0.960917 0.625865
O O13 0.649087 0.626476 0.084152
O O14 0.500000 0.708118 0.000000
O O15 0.500000 0.500000 0.420033
O O16 0.204308 0.851455 0.321667
O O17 0.000000 0.000000 0.354417
#
# Coordination Sequence:
#
# PCOD9330542 Si02
#       8
#     8   8   8   8   8   2   8   8
#     4  10  20  38  62  89 118 163 214 262 319 383
#     4  11  24  41  62  91 126 164 212 262 322 385
#     4  10  22  38  59  91 124 165 207 262 322 383
#     4   9  18  35  59  88 119 154 202 262 324 375
#     4  10  22  42  62  84 129 175 210 258 315 383
#     4  12  24  36  60  92 132 160 212 264 312 404
#     4   9  19  37  63  89 121 156 205 262 327 382
#     4  11  23  39  65  94 124 166 207 273 327 394
#
# _framework density 21.755095000000001
#
# number of rings (size 3 to 8) (size 9 to 14) (size 15 to 20)
#    0.000    1.931    0.000    4.552    1.931    3.310 
#    2.483    1.724    0.000    0.000    0.000    0.000 
#    0.000    0.000    0.000    0.000    0.000    0.000 
#
# Total GULP energy -161710.657239 kJ/mol
# GULP energy per Si atom -5576.229560 kJ/mol
# Density = 2.170558 g / cm^3
# Si number density = 21.755095 Si / 1000 Ang^3
#
#
#
# Elastic Constant Matrix: (Units=GPa)
#
#
# Indices 1 2 3 4 5 6 
#
# 1 64.3336 32.8195 -7.5717 0.0000 0.0000 0.0000
# 2 32.8195 111.2867 9.9363 0.0000 0.0000 0.0000
# 3 -7.5717 9.9363 27.3999 0.0000 0.0000 0.0000
# 4 0.0000 0.0000 0.0000 11.8469 0.0000 0.0000
# 5 0.0000 0.0000 0.0000 0.0000 25.4543 0.0000
# 6 0.0000 0.0000 0.0000 0.0000 0.0000 34.4324
#
#
#
# Elastic Compliance Matrix: (Units=1/GPa)
#
#
# Indices 1 2 3 4 5 6 
#
# 1 0.019804 -0.006541 0.007845 0.000000 0.000000 0.000000
# 2 -0.006541 0.011447 -0.005959 0.000000 0.000000 0.000000
# 3 0.007845 -0.005959 0.040825 0.000000 0.000000 0.000000
# 4 0.000000 0.000000 0.000000 0.084411 0.000000 0.000000
# 5 0.000000 0.000000 0.000000 0.000000 0.039286 0.000000
# 6 0.000000 0.000000 0.000000 0.000000 0.000000 0.029042
#
#
# Mechanical properties :
#
#
# Convention : Reuss Voigt Hill
#
# Bulk Modulus (GPa) = 15.93210 30.37650 23.15430
# Shear Modulus (GPa) = 19.60427 25.53579 22.57003
#
# Velocity S-wave (km/s) = 3.00515 3.42977 3.22446
# Velocity P-wave (km/s) = 4.40233 5.44772 4.95269
#
# Compressibility (1/GPa) = 0.06276635
#
# Stress axis : x y z
#
# Youngs Moduli (GPa) = 50.49490 87.36101 24.49472
#
# Poissons Ratio (x) = 0.57141 -0.19215
# Poissons Ratio (y) = 0.33028 0.14595
# Poissons Ratio (z) = -0.39611 0.52054
#
# Static dielectric constant tensor:
#      x y z
#    x 1.829630 0.000000 0.000000 
#    y 0.000000 2.013760 0.000000 
#    z 0.000000 0.000000 1.781070 
# 
# From -- ./inp_files/14949.got.cif
#   From: 2010.05.17/outbox.cif.g08.bks.cpg/sg23_8_cif.got.tgz:14949.got - 2010.06.04 12:02:01.
