data_PCOD9330894
_publ_section_title
;
Structure prediction by ZEFSAII (Michael W. Deem and Ramdas Pophale) SiO2 
 PCOD9330894
Probable space group: I 2 2 2
;
_chemical_formula_sum "Si O2"
_cell_formula_units_Z 56
_cell_length_a 20.498555
_cell_length_b 16.095643
_cell_length_c 8.765104
_cell_angle_alpha 90.000000
_cell_angle_beta 90.000000
_cell_angle_gamma 90.000000
_cell_volume 2891.935829
_symmetry_space_group_name_H-M "I 2 2 2"
_symmetry_group_IT_number 23
_symmetry_cell_setting 'orthorhombic'
loop_
_space_group_symop_operation_xyz
x,y,z
-x,-y,z
x,-y,-z
-x,y,-z
1/2+x,1/2+y,1/2+z
1/2-x,1/2-y,1/2+z
1/2+x,1/2-y,1/2-z
1/2-x,1/2+y,1/2-z
loop_
_atom_site_type_symbol
_atom_site_label
_atom_site_fract_x
_atom_site_fract_y
_atom_site_fract_z
Si Si1 0.142522 0.372347 0.614849
Si Si2 0.191809 0.907693 0.437767
Si Si3 0.422983 0.988872 0.325438
Si Si4 0.925463 0.784851 0.467366
Si Si5 0.692585 0.799574 0.417169
Si Si6 0.259370 0.862349 0.139390
Si Si7 0.383199 0.804602 0.306720
O O1 0.109044 0.446512 0.708379
O O2 0.092899 0.305620 0.539825
O O3 0.180422 0.318770 0.741685
O O4 0.194000 0.402553 0.487268
O O5 0.128357 0.849911 0.469319
O O6 0.252690 0.863787 0.524342
O O7 0.215897 0.911926 0.260858
O O8 0.181352 0.000000 0.500000
O O9 0.411368 0.895218 0.272192
O O10 0.500000 0.000000 0.330437
O O11 0.396805 0.000000 0.500000
O O12 0.917681 0.768072 0.285623
O O13 0.000000 0.807656 0.500000
O O14 0.715913 0.706123 0.442168
O O15 0.625350 0.804092 0.511996
O O16 0.309817 0.807948 0.240997
#
# Coordination Sequence:
#
# PCOD9330894 Si02
#       7
#     8   8   8   8   8   8   8
#     4  11  21  38  65  91 125 168 205 259 309 373
#     4  11  24  41  63  93 123 160 205 270 323 367
#     4  11  23  38  56  90 135 173 207 247 298 376
#     4  11  23  42  62  86 121 169 220 260 308 374
#     4  11  19  39  63  91 125 156 201 260 310 377
#     4  10  21  38  61  91 119 155 205 255 318 369
#     4  10  21  37  59  92 123 162 212 250 312 371
#
# _framework density 19.364191000000002
#
# number of rings (size 3 to 8) (size 9 to 14) (size 15 to 20)
#    0.000    1.286    5.714    1.714    4.000    2.571 
#    0.000    3.571    0.000    0.000    0.000    0.000 
#    0.000    0.000    0.000    0.000    0.000    0.000 
#
# Total GULP energy -156161.003399 kJ/mol
# GULP energy per Si atom -5577.178693 kJ/mol
# Density = 1.932012 g / cm^3
# Si number density = 19.364191 Si / 1000 Ang^3
#
#
#
# Elastic Constant Matrix: (Units=GPa)
#
#
# Indices 1 2 3 4 5 6 
#
# 1 84.3039 35.6840 40.6735 0.0000 0.0000 0.0000
# 2 35.6840 92.2709 41.7804 0.0000 0.0000 0.0000
# 3 40.6735 41.7804 113.2545 0.0000 0.0000 0.0000
# 4 0.0000 0.0000 0.0000 24.4734 0.0000 0.0000
# 5 0.0000 0.0000 0.0000 0.0000 21.3818 0.0000
# 6 0.0000 0.0000 0.0000 0.0000 0.0000 14.3118
#
#
#
# Elastic Compliance Matrix: (Units=1/GPa)
#
#
# Indices 1 2 3 4 5 6 
#
# 1 0.015593 -0.004195 -0.004052 0.000000 0.000000 0.000000
# 2 -0.004195 0.014140 -0.003710 0.000000 0.000000 0.000000
# 3 -0.004052 -0.003710 0.011653 0.000000 0.000000 0.000000
# 4 0.000000 0.000000 0.000000 0.040861 0.000000 0.000000
# 5 0.000000 0.000000 0.000000 0.000000 0.046769 0.000000
# 6 0.000000 0.000000 0.000000 0.000000 0.000000 0.069872
#
#
# Mechanical properties :
#
#
# Convention : Reuss Voigt Hill
#
# Bulk Modulus (GPa) = 57.23531 58.45613 57.84572
# Shear Modulus (GPa) = 21.86980 23.47949 22.67465
#
# Velocity S-wave (km/s) = 3.36429 3.48590 3.42564
# Velocity P-wave (km/s) = 6.68676 6.81581 6.75159
#
# Compressibility (1/GPa) = 0.01747173
#
# Stress axis : x y z
#
# Youngs Moduli (GPa) = 64.13278 70.72218 85.81160
#
# Poissons Ratio (x) = 0.29670 0.34772
# Poissons Ratio (y) = 0.26906 0.31833
# Poissons Ratio (z) = 0.25988 0.26235
#
# Static dielectric constant tensor:
#      x y z
#    x 1.704730 0.000000 0.000000 
#    y 0.000000 1.723260 0.000000 
#    z 0.000000 0.000000 1.766570 
# 
# From -- ./inp_files/12059.got.cif
#   From: 2010.05.17/outbox.cif.g08.bks.cpg/sg23_7_cif.got.tgz:12059.got - 2010.06.04 12:02:01.
