data_PCOD9330001
_publ_section_title
;
Structure prediction by ZEFSAII (Michael W. Deem and Ramdas Pophale) SiO2 
 PCOD9330001
Probable space group: I 2 2 2
;
_chemical_formula_sum "Si O2"
_cell_formula_units_Z 58
_cell_length_a 15.860824
_cell_length_b 13.759495
_cell_length_c 12.598418
_cell_angle_alpha 90.000000
_cell_angle_beta 90.000000
_cell_angle_gamma 90.000000
_cell_volume 2749.440049
_symmetry_space_group_name_H-M "I 2 2 2"
_symmetry_group_IT_number 23
_symmetry_cell_setting 'orthorhombic'
loop_
_space_group_symop_operation_xyz
x,y,z
-x,-y,z
x,-y,-z
-x,y,-z
1/2+x,1/2+y,1/2+z
1/2-x,1/2-y,1/2+z
1/2+x,1/2-y,1/2-z
1/2-x,1/2+y,1/2-z
loop_
_atom_site_type_symbol
_atom_site_label
_atom_site_fract_x
_atom_site_fract_y
_atom_site_fract_z
Si Si1 0.762547 0.716198 0.123512
Si Si2 0.134153 0.320590 0.773956
Si Si3 0.500000 0.500000 0.500000
Si Si4 0.242336 0.490320 0.817368
Si Si5 0.900047 0.212402 0.015573
Si Si6 0.473176 0.664724 0.838566
Si Si7 0.386467 0.465882 0.337377
Si Si8 0.642249 0.648026 0.958868
O O1 0.716346 0.766569 0.222863
O O2 0.770596 0.601142 0.146181
O O3 0.850612 0.761369 0.090365
O O4 0.703293 0.725856 0.017427
O O5 0.159387 0.433365 0.778761
O O6 0.115729 0.295233 0.895753
O O7 0.061074 0.269386 0.703117
O O8 0.436157 0.541369 0.411283
O O9 0.306092 0.493253 0.718951
O O10 0.293982 0.429585 0.906914
O O11 0.865124 0.119943 0.080679
O O12 0.000000 0.204693 0.000000
O O13 0.445086 0.587952 0.749342
O O14 0.571114 0.670717 0.870151
O O15 0.418571 0.626183 0.939711
#
# Coordination Sequence:
#
# PCOD9330001 Si02
#       8
#     8   8   2   8   8   8   8   8
#     4  11  23  42  63 100 130 172 230 273 341 406
#     4  10  23  40  62  96 136 175 219 270 337 397
#     4  12  24  36  52  90 136 174 218 260 336 406
#     4  12  22  40  67  97 132 170 222 285 327 403
#     4  11  23  44  65  90 138 179 222 270 335 407
#     4   9  20  39  55  95 133 162 212 274 335 398
#     4  11  23  38  55  94 134 168 220 267 336 398
#     4  10  19  35  65  89 127 168 210 279 335 373
#
# _framework density 21.095203000000001
#
# number of rings (size 3 to 8) (size 9 to 14) (size 15 to 20)
#    0.000    1.379    6.207    1.241    1.931    2.207 
#    2.483    1.379    0.000    0.000    0.000    3.862 
#    0.000    0.000    0.000    0.000    0.000    0.000 
#
# Total GULP energy -161510.703318 kJ/mol
# GULP energy per Si atom -5569.334597 kJ/mol
# Density = 2.104719 g / cm^3
# Si number density = 21.095203 Si / 1000 Ang^3
#
#
#
# Elastic Constant Matrix: (Units=GPa)
#
#
# Indices 1 2 3 4 5 6 
#
# 1 65.6354 33.8066 11.2990 0.0000 0.0000 0.0000
# 2 33.8066 67.9613 16.0227 0.0000 0.0000 0.0000
# 3 11.2990 16.0227 76.1237 0.0000 0.0000 0.0000
# 4 0.0000 0.0000 0.0000 11.6013 0.0000 0.0000
# 5 0.0000 0.0000 0.0000 0.0000 30.4354 0.0000
# 6 0.0000 0.0000 0.0000 0.0000 0.0000 27.8001
#
#
#
# Elastic Compliance Matrix: (Units=1/GPa)
#
#
# Indices 1 2 3 4 5 6 
#
# 1 0.020548 -0.009999 -0.000945 0.000000 0.000000 0.000000
# 2 -0.009999 0.020348 -0.002799 0.000000 0.000000 0.000000
# 3 -0.000945 -0.002799 0.013866 0.000000 0.000000 0.000000
# 4 0.000000 0.000000 0.000000 0.086198 0.000000 0.000000
# 5 0.000000 0.000000 0.000000 0.000000 0.032857 0.000000
# 6 0.000000 0.000000 0.000000 0.000000 0.000000 0.035971
#
#
# Mechanical properties :
#
#
# Convention : Reuss Voigt Hill
#
# Bulk Modulus (GPa) = 36.66172 36.88634 36.77403
# Shear Modulus (GPa) = 20.29507 23.87349 22.08428
#
# Velocity S-wave (km/s) = 3.10509 3.36773 3.23907
# Velocity P-wave (km/s) = 5.50203 5.71364 5.60884
#
# Compressibility (1/GPa) = 0.02727640
#
# Stress axis : x y z
#
# Youngs Moduli (GPa) = 48.66551 49.14523 72.11921
#
# Poissons Ratio (x) = 0.49139 0.06818
# Poissons Ratio (y) = 0.48659 0.20185
# Poissons Ratio (z) = 0.04601 0.13755
#
# Static dielectric constant tensor:
#      x y z
#    x 1.856280 0.000000 0.000000 
#    y 0.000000 1.962080 0.000000 
#    z 0.000000 0.000000 1.787250 
# 
# From -- ./inp_files/17548.got.cif
#   From: 2010.05.17/outbox.cif.g08.bks.cpg/sg23_9_cif.got.tgz:17548.got - 2010.06.04 12:02:01.
