data_PCOD9330443
_publ_section_title
;
Structure prediction by ZEFSAII (Michael W. Deem and Ramdas Pophale) SiO2 
 PCOD9330443
Probable space group: I 2 2 2
;
_chemical_formula_sum "Si O2"
_cell_formula_units_Z 56
_cell_length_a 20.007116
_cell_length_b 16.446773
_cell_length_c 8.860364
_cell_angle_alpha 90.000000
_cell_angle_beta 90.000000
_cell_angle_gamma 90.000000
_cell_volume 2915.524883
_symmetry_space_group_name_H-M "I 2 2 2"
_symmetry_group_IT_number 23
_symmetry_cell_setting 'orthorhombic'
loop_
_space_group_symop_operation_xyz
x,y,z
-x,-y,z
x,-y,-z
-x,y,-z
1/2+x,1/2+y,1/2+z
1/2-x,1/2-y,1/2+z
1/2+x,1/2-y,1/2-z
1/2-x,1/2+y,1/2-z
loop_
_atom_site_type_symbol
_atom_site_label
_atom_site_fract_x
_atom_site_fract_y
_atom_site_fract_z
Si Si1 0.183345 0.660573 0.064907
Si Si2 0.791818 0.069781 0.758606
Si Si3 0.299711 0.078202 0.733954
Si Si4 0.755601 0.320198 0.514105
Si Si5 0.437935 0.551201 0.154056
Si Si6 0.110655 0.500000 0.500000
Si Si7 0.000000 0.204316 0.500000
Si Si8 0.898153 0.670217 0.637455
O O1 0.252283 0.631303 0.146765
O O2 0.124975 0.660695 0.189165
O O3 0.168381 0.602112 0.924364
O O4 0.201737 0.749506 0.004153
O O5 0.770557 0.100825 0.923896
O O6 0.870502 0.061589 0.745544
O O7 0.760058 0.984346 0.713246
O O8 0.347183 0.035651 0.858075
O O9 0.269336 0.157592 0.813067
O O10 0.828394 0.303330 0.443205
O O11 0.500000 0.500000 0.223469
O O12 0.460535 0.641385 0.106582
O O13 0.422976 0.500000 0.000000
O O14 0.079210 0.417635 0.569825
O O15 0.047744 0.262097 0.598287
#
# Coordination Sequence:
#
# PCOD9330443 Si02
#       8
#     8   8   8   8   8   4   4   8
#     4  11  21  31  58  90 118 152 206 252 309 360
#     4  11  19  34  57  88 118 162 195 249 314 365
#     4  11  18  35  56  84 122 152 185 260 308 375
#     4  10  21  35  55  90 123 153 196 256 319 366
#     4   9  20  35  56  87 118 163 213 246 291 377
#     4  10  20  37  56  86 119 146 206 244 324 368
#     4  10  21  39  58  80 124 162 202 257 303 368
#     4  10  21  37  57  85 117 162 204 254 307 365
#
# _framework density 19.207518
#
# number of rings (size 3 to 8) (size 9 to 14) (size 15 to 20)
#    0.000    1.857    4.286    3.857    0.000    4.857 
#    0.000    0.000    0.000   12.857    0.000    6.000 
#    0.000    0.000    0.000    0.000    0.000    0.000 
#
# Total GULP energy -156074.225516 kJ/mol
# GULP energy per Si atom -5574.079483 kJ/mol
# Density = 1.916380 g / cm^3
# Si number density = 19.207518 Si / 1000 Ang^3
#
#
#
# Elastic Constant Matrix: (Units=GPa)
#
#
# Indices 1 2 3 4 5 6 
#
# 1 77.3041 30.1729 48.2460 0.0000 0.0000 0.0000
# 2 30.1729 102.0133 57.7404 0.0000 0.0000 0.0000
# 3 48.2460 57.7404 90.5940 0.0000 0.0000 0.0000
# 4 0.0000 0.0000 0.0000 20.7876 0.0000 0.0000
# 5 0.0000 0.0000 0.0000 0.0000 13.5261 0.0000
# 6 0.0000 0.0000 0.0000 0.0000 0.0000 9.6441
#
#
#
# Elastic Compliance Matrix: (Units=1/GPa)
#
#
# Indices 1 2 3 4 5 6 
#
# 1 0.019378 0.000171 -0.010429 0.000000 0.000000 0.000000
# 2 0.000171 0.015336 -0.009866 0.000000 0.000000 0.000000
# 3 -0.010429 -0.009866 0.022880 0.000000 0.000000 0.000000
# 4 0.000000 0.000000 0.000000 0.048106 0.000000 0.000000
# 5 0.000000 0.000000 0.000000 0.000000 0.073931 0.000000
# 6 0.000000 0.000000 0.000000 0.000000 0.000000 0.103690
#
#
# Mechanical properties :
#
#
# Convention : Reuss Voigt Hill
#
# Bulk Modulus (GPa) = 57.64537 60.24779 58.94658
# Shear Modulus (GPa) = 15.18141 17.70835 16.44488
#
# Velocity S-wave (km/s) = 2.81444 3.03966 2.92921
# Velocity P-wave (km/s) = 6.37483 6.61470 6.49587
#
# Compressibility (1/GPa) = 0.01734745
#
# Stress axis : x y z
#
# Youngs Moduli (GPa) = 51.60551 65.20584 43.70594
#
# Poissons Ratio (x) = -0.01118 0.45581
# Poissons Ratio (y) = -0.00885 0.43119
# Poissons Ratio (z) = 0.53819 0.64331
#
# Static dielectric constant tensor:
#      x y z
#    x 1.648140 0.000000 0.000000 
#    y 0.000000 1.722140 0.000000 
#    z 0.000000 0.000000 1.693390 
# 
# From -- ./inp_files/12100.got.cif
#   From: 2010.05.17/outbox.cif.g08.bks.cpg/sg23_7_cif.got.tgz:12100.got - 2010.06.04 12:02:01.
