data_PCOD9330995
_publ_section_title
;
Structure prediction by ZEFSAII (Michael W. Deem and Ramdas Pophale) SiO2 
 PCOD9330995
Probable space group: I 2 2 2
;
_chemical_formula_sum "Si O2"
_cell_formula_units_Z 64
_cell_length_a 13.111170
_cell_length_b 9.273261
_cell_length_c 24.175173
_cell_angle_alpha 90.000000
_cell_angle_beta 90.000000
_cell_angle_gamma 90.000000
_cell_volume 2939.297346
_symmetry_space_group_name_H-M "I 2 2 2"
_symmetry_group_IT_number 23
_symmetry_cell_setting 'orthorhombic'
loop_
_space_group_symop_operation_xyz
x,y,z
-x,-y,z
x,-y,-z
-x,y,-z
1/2+x,1/2+y,1/2+z
1/2-x,1/2-y,1/2+z
1/2+x,1/2-y,1/2-z
1/2-x,1/2+y,1/2-z
loop_
_atom_site_type_symbol
_atom_site_label
_atom_site_fract_x
_atom_site_fract_y
_atom_site_fract_z
Si Si1 0.638554 0.272595 0.356754
Si Si2 0.739179 0.916170 0.244819
Si Si3 0.108699 0.875917 0.466481
Si Si4 0.768911 0.581858 0.555974
Si Si5 0.611250 0.926634 0.847322
Si Si6 0.035743 0.333725 0.795986
Si Si7 0.680628 0.580220 0.150469
Si Si8 0.995555 0.826642 0.313161
O O1 0.690216 0.337780 0.300630
O O2 0.671246 0.370385 0.408047
O O3 0.519724 0.239405 0.348247
O O4 0.705189 0.126726 0.365045
O O5 0.655242 0.829396 0.281489
O O6 0.805027 0.988519 0.293643
O O7 0.677266 0.031319 0.206781
O O8 0.163975 0.723328 0.459556
O O9 0.115794 0.948631 0.405276
O O10 0.000000 0.856299 0.500000
O O11 0.166652 0.000000 0.500000
O O12 0.743924 0.500000 0.500000
O O13 0.834990 0.483551 0.597749
O O14 0.586485 0.756008 0.850151
O O15 0.500000 0.000000 0.841737
O O16 0.986034 0.245170 0.745900
O O17 0.000000 0.500000 0.795421
O O18 0.500000 0.500000 0.187111
O O19 0.611174 0.716818 0.169084
#
# Coordination Sequence:
#
# PCOD9330995 Si02
#       8
#     8   8   8   8   8   8   8   8
#     4  10  21  39  59 100 136 172 239 291 324 419
#     4  11  20  39  64  96 139 188 226 272 353 426
#     4  10  24  42  59  88 136 179 233 287 347 406
#     4  10  24  39  66  92 132 185 242 293 345 417
#     4  11  20  39  62  92 132 187 241 271 339 432
#     4  12  20  38  67  88 139 192 220 271 354 427
#     4  11  22  36  57  91 139 178 213 295 329 405
#     4  12  23  34  56  97 138 179 225 276 342 409
#
# _framework density 21.773911999999999
#
# number of rings (size 3 to 8) (size 9 to 14) (size 15 to 20)
#    0.000    1.125    5.000    2.250    5.250    0.000 
#    0.000    1.250    0.000    0.000    0.000    7.000 
#    3.750    0.000    0.250    0.000    0.000    0.000 
#
# Total GULP energy -178226.126797 kJ/mol
# GULP energy per Si atom -5569.566462 kJ/mol
# Density = 2.172435 g / cm^3
# Si number density = 21.773912 Si / 1000 Ang^3
#
#
#
# Elastic Constant Matrix: (Units=GPa)
#
#
# Indices 1 2 3 4 5 6 
#
# 1 89.8408 26.1592 65.8311 0.0000 0.0000 0.0000
# 2 26.1592 116.8232 58.5373 0.0000 0.0000 0.0000
# 3 65.8311 58.5373 163.4406 0.0000 0.0000 0.0000
# 4 0.0000 0.0000 0.0000 27.9597 0.0000 0.0000
# 5 0.0000 0.0000 0.0000 0.0000 30.1740 0.0000
# 6 0.0000 0.0000 0.0000 0.0000 0.0000 26.9701
#
#
#
# Elastic Compliance Matrix: (Units=1/GPa)
#
#
# Indices 1 2 3 4 5 6 
#
# 1 0.015809 -0.000426 -0.006215 0.000000 0.000000 0.000000
# 2 -0.000426 0.010444 -0.003569 0.000000 0.000000 0.000000
# 3 -0.006215 -0.003569 0.009900 0.000000 0.000000 0.000000
# 4 0.000000 0.000000 0.000000 0.035766 0.000000 0.000000
# 5 0.000000 0.000000 0.000000 0.000000 0.033141 0.000000
# 6 0.000000 0.000000 0.000000 0.000000 0.000000 0.037078
#
#
# Mechanical properties :
#
#
# Convention : Reuss Voigt Hill
#
# Bulk Modulus (GPa) = 63.56087 74.57331 69.06709
# Shear Modulus (GPa) = 29.79714 31.65922 30.72818
#
# Velocity S-wave (km/s) = 3.70331 3.81727 3.76072
# Velocity P-wave (km/s) = 6.89497 7.33158 7.11662
#
# Compressibility (1/GPa) = 0.01573295
#
# Stress axis : x y z
#
# Youngs Moduli (GPa) = 63.25565 95.75253 101.01006
#
# Poissons Ratio (x) = 0.04076 0.62778
# Poissons Ratio (y) = 0.02693 0.36050
# Poissons Ratio (z) = 0.39314 0.34174
#
# Static dielectric constant tensor:
#      x y z
#    x 1.894980 0.000000 0.000000 
#    y 0.000000 1.934690 0.000000 
#    z 0.000000 0.000000 1.856710 
# 
# From -- ./inp_files/28411.got.cif
#   From: 2010.05.17/outbox.cif.g08.bks.cpg/sg23_15_cif.got.tgz:28411.got - 2010.06.04 12:02:01.
