data_PCOD9330497
_publ_section_title
;
Structure prediction by ZEFSAII (Michael W. Deem and Ramdas Pophale) SiO2 
 PCOD9330497
Probable space group: I 2 2 2
;
_chemical_formula_sum "Si O2"
_cell_formula_units_Z 64
_cell_length_a 14.807693
_cell_length_b 7.614838
_cell_length_c 25.524032
_cell_angle_alpha 90.000000
_cell_angle_beta 90.000000
_cell_angle_gamma 90.000000
_cell_volume 2878.043480
_symmetry_space_group_name_H-M "I 2 2 2"
_symmetry_group_IT_number 23
_symmetry_cell_setting 'orthorhombic'
loop_
_space_group_symop_operation_xyz
x,y,z
-x,-y,z
x,-y,-z
-x,y,-z
1/2+x,1/2+y,1/2+z
1/2-x,1/2-y,1/2+z
1/2+x,1/2-y,1/2-z
1/2-x,1/2+y,1/2-z
loop_
_atom_site_type_symbol
_atom_site_label
_atom_site_fract_x
_atom_site_fract_y
_atom_site_fract_z
Si Si1 0.331949 0.818699 0.401761
Si Si2 0.705780 0.294732 0.807551
Si Si3 0.996718 0.796136 0.673008
Si Si4 0.486703 0.706904 0.559098
Si Si5 0.285404 0.768866 0.595671
Si Si6 0.307795 0.283113 0.799920
Si Si7 0.211935 0.791252 0.490184
Si Si8 0.530049 0.798165 0.056199
O O1 0.274477 0.739365 0.354007
O O2 0.439239 0.794112 0.402119
O O3 0.303130 0.749112 0.458994
O O4 0.297421 0.019410 0.402954
O O5 0.602975 0.223355 0.813116
O O6 0.693122 0.506245 0.808858
O O7 0.754635 0.252053 0.753220
O O8 0.088187 0.718383 0.697869
O O9 0.004074 0.786796 0.609650
O O10 0.000000 0.000000 0.688754
O O11 0.500000 0.500000 0.556476
O O12 0.500000 0.781212 0.500000
O O13 0.386178 0.718963 0.581032
O O14 0.246289 0.706229 0.650540
O O15 0.218466 0.714756 0.548376
O O16 0.136502 0.722469 0.450864
O O17 0.199966 0.000000 0.500000
O O18 0.500000 0.000000 0.057612
O O19 0.500000 0.720335 0.000000
#
# Coordination Sequence:
#
# PCOD9330497 Si02
#       8
#     8   8   8   8   8   8   8   8
#     4  10  20  39  65  90 118 162 212 255 303 368
#     4  10  22  42  65  90 123 157 208 259 307 373
#     4  10  22  42  66  89 119 161 212 256 303 379
#     4  11  23  38  55  91 130 168 202 252 317 376
#     4  10  21  39  64  93 122 160 214 259 302 371
#     4  10  23  41  63  94 119 159 209 255 312 366
#     4  10  20  37  65  91 122 167 206 251 311 372
#     4  11  24  38  54  96 133 160 202 249 313 371
#
# _framework density 22.23733
#
# number of rings (size 3 to 8) (size 9 to 14) (size 15 to 20)
#    0.000    1.750    2.500    1.125    3.500    3.500 
#    6.750    2.500    0.000    0.000    0.000    0.000 
#    0.000    0.000    0.000    0.000    0.000    0.000 
#
# Total GULP energy -178589.497303 kJ/mol
# GULP energy per Si atom -5580.921791 kJ/mol
# Density = 2.218672 g / cm^3
# Si number density = 22.237330 Si / 1000 Ang^3
#
#
#
# Elastic Constant Matrix: (Units=GPa)
#
#
# Indices 1 2 3 4 5 6 
#
# 1 141.6499 5.0642 62.2068 0.0000 0.0000 0.0000
# 2 5.0642 39.6509 4.6598 0.0000 0.0000 0.0000
# 3 62.2068 4.6598 134.0021 0.0000 0.0000 0.0000
# 4 0.0000 0.0000 0.0000 17.0476 0.0000 0.0000
# 5 0.0000 0.0000 0.0000 0.0000 -45.8196 0.0000
# 6 0.0000 0.0000 0.0000 0.0000 0.0000 5.1602
#
#
#
# Elastic Compliance Matrix: (Units=1/GPa)
#
#
# Indices 1 2 3 4 5 6 
#
# 1 0.008884 -0.000653 -0.004102 0.000000 0.000000 0.000000
# 2 -0.000653 0.025372 -0.000579 0.000000 0.000000 0.000000
# 3 -0.004102 -0.000579 0.009387 0.000000 0.000000 0.000000
# 4 0.000000 0.000000 0.000000 0.058659 0.000000 0.000000
# 5 0.000000 0.000000 0.000000 0.000000 -0.021825 0.000000
# 6 0.000000 0.000000 0.000000 0.000000 0.000000 0.193789
#
#
# Mechanical properties :
#
#
# Convention : Reuss Voigt Hill
#
# Bulk Modulus (GPa) = 30.32556 51.01827 40.67192
# Shear Modulus (GPa) = 16.89615 11.50245 14.19930
#
# Velocity S-wave (km/s) = 2.75946 2.27680 2.52967
# Velocity P-wave (km/s) = 4.88054 5.46847 5.18285
#
# Compressibility (1/GPa) = 0.03297549
#
# Stress axis : x y z
#
# Youngs Moduli (GPa) = 112.55905 39.41423 106.53319
#
# Poissons Ratio (x) = 0.02573 0.43695
# Poissons Ratio (y) = 0.07347 0.06171
# Poissons Ratio (z) = 0.46167 0.02283
#
# Static dielectric constant tensor:
#      x y z
#    x 1.937120 0.000000 0.000000 
#    y 0.000000 1.803200 0.000000 
#    z 0.000000 0.000000 1.820850 
# 
# From -- ./inp_files/28568.got.cif
#   From: 2010.05.17/outbox.cif.g08.bks.cpg/sg23_15_cif.got.tgz:28568.got - 2010.06.04 12:02:01.
