data_PCOD9330889
_publ_section_title
;
Structure prediction by ZEFSAII (Michael W. Deem and Ramdas Pophale) SiO2 
 PCOD9330889
Probable space group: I 2 2 2
;
_chemical_formula_sum "Si O2"
_cell_formula_units_Z 56
_cell_length_a 15.715861
_cell_length_b 8.955443
_cell_length_c 20.206339
_cell_angle_alpha 90.000000
_cell_angle_beta 90.000000
_cell_angle_gamma 90.000000
_cell_volume 2843.890614
_symmetry_space_group_name_H-M "I 2 2 2"
_symmetry_group_IT_number 23
_symmetry_cell_setting 'orthorhombic'
loop_
_space_group_symop_operation_xyz
x,y,z
-x,-y,z
x,-y,-z
-x,y,-z
1/2+x,1/2+y,1/2+z
1/2-x,1/2-y,1/2+z
1/2+x,1/2-y,1/2-z
1/2-x,1/2+y,1/2-z
loop_
_atom_site_type_symbol
_atom_site_label
_atom_site_fract_x
_atom_site_fract_y
_atom_site_fract_z
Si Si1 0.636523 0.821802 0.822823
Si Si2 0.636523 0.178198 0.822823
Si Si3 0.835845 0.172509 0.192563
Si Si4 0.601258 0.164026 0.573836
Si Si5 0.500000 0.320122 0.078931
Si Si6 0.664155 0.327491 0.307437
Si Si7 0.398742 0.835974 0.426164
O O1 0.737315 0.783441 0.821431
O O2 0.581267 0.743990 0.880082
O O3 0.615008 0.765582 0.748833
O O4 0.626393 0.000000 0.828575
O O5 0.615008 0.234418 0.748833
O O6 0.581267 0.256010 0.880082
O O7 0.737315 0.216559 0.821431
O O8 0.878037 0.204341 0.122843
O O9 0.836424 1.000000 0.212508
O O10 0.636034 0.185759 0.500000
O O11 0.500000 0.155403 0.569193
O O12 0.631580 1.000000 0.598532
O O13 0.500000 0.500000 0.082836
O O14 0.500000 0.279775 0.000000
O O15 0.621963 0.295659 0.377157
#
# Coordination Sequence:
#
# PCOD9330889 Si02
#       7
#     8   8   8   8   8   8   8
#     4  10  22  40  61  85 115 153 195 239 291 351
#     4  10  22  40  61  85 115 153 195 239 291 351
#     4  10  21  37  59  87 117 151 194 243 292 343
#     4   9  19  35  54  79 113 153 193 231 279 340
#     4  11  25  43  63  89 120 155 198 249 303 357
#     4  10  21  37  59  87 117 151 194 243 292 343
#     4   9  19  35  54  79 113 153 193 231 279 340
#
# _framework density 19.691334000000001
#
# number of rings (size 3 to 8) (size 9 to 14) (size 15 to 20)
#    0.000    2.143    0.000    3.000    2.000    6.857 
#    0.000    7.143    0.000    0.000    0.000    0.000 
#    0.000    0.000    0.000    0.000    0.000    0.000 
#
# Total GULP energy -155999.394585 kJ/mol
# GULP energy per Si atom -5571.406949 kJ/mol
# Density = 1.964652 g / cm^3
# Si number density = 19.691334 Si / 1000 Ang^3
#
#
#
# Elastic Constant Matrix: (Units=GPa)
#
#
# Indices 1 2 3 4 5 6 
#
# 1 55.6748 33.5798 47.5263 0.0000 0.0000 0.0000
# 2 33.5798 57.8966 51.2748 0.0000 0.0000 0.0000
# 3 47.5263 51.2748 126.3771 0.0000 0.0000 0.0000
# 4 0.0000 0.0000 0.0000 26.1122 0.0000 0.0000
# 5 0.0000 0.0000 0.0000 0.0000 36.5535 0.0000
# 6 0.0000 0.0000 0.0000 0.0000 0.0000 28.1256
#
#
#
# Elastic Compliance Matrix: (Units=1/GPa)
#
#
# Indices 1 2 3 4 5 6 
#
# 1 0.030968 -0.011936 -0.006803 0.000000 0.000000 0.000000
# 2 -0.011936 0.031560 -0.008316 0.000000 0.000000 0.000000
# 3 -0.006803 -0.008316 0.013845 0.000000 0.000000 0.000000
# 4 0.000000 0.000000 0.000000 0.038296 0.000000 0.000000
# 5 0.000000 0.000000 0.000000 0.000000 0.027357 0.000000
# 6 0.000000 0.000000 0.000000 0.000000 0.000000 0.035555
#
#
# Mechanical properties :
#
#
# Convention : Reuss Voigt Hill
#
# Bulk Modulus (GPa) = 44.91842 56.07893 50.49867
# Shear Modulus (GPa) = 20.91057 25.32945 23.12001
#
# Velocity S-wave (km/s) = 3.26224 3.59043 3.43026
# Velocity P-wave (km/s) = 6.08691 6.76233 6.43349
#
# Compressibility (1/GPa) = 0.02226258
#
# Stress axis : x y z
#
# Youngs Moduli (GPa) = 32.29110 31.68570 72.22659
#
# Poissons Ratio (x) = 0.37821 0.49138
# Poissons Ratio (y) = 0.38544 0.60063
# Poissons Ratio (z) = 0.21968 0.26350
#
# Static dielectric constant tensor:
#      x y z
#    x 1.728960 0.000000 0.000000 
#    y 0.000000 1.708420 0.000000 
#    z 0.000000 0.000000 1.724330 
# 
# From -- ./inp_files/26990.got.cif
#   From: 2010.05.17/outbox.cif.g08.bks.cpg/sg23_14_cif.got.tgz:26990.got - 2010.06.04 12:02:01.
