data_PCOD9330293
_publ_section_title
;
Structure prediction by ZEFSAII (Michael W. Deem and Ramdas Pophale) SiO2 
 PCOD9330293
Probable space group: I 2 2 2
;
_chemical_formula_sum "Si O2"
_cell_formula_units_Z 36
_cell_length_a 10.247740
_cell_length_b 11.270821
_cell_length_c 12.534659
_cell_angle_alpha 90.000000
_cell_angle_beta 90.000000
_cell_angle_gamma 90.000000
_cell_volume 1447.758670
_symmetry_space_group_name_H-M "I 2 2 2"
_symmetry_group_IT_number 23
_symmetry_cell_setting 'orthorhombic'
loop_
_space_group_symop_operation_xyz
x,y,z
-x,-y,z
x,-y,-z
-x,y,-z
1/2+x,1/2+y,1/2+z
1/2-x,1/2-y,1/2+z
1/2+x,1/2-y,1/2-z
1/2-x,1/2+y,1/2-z
loop_
_atom_site_type_symbol
_atom_site_label
_atom_site_fract_x
_atom_site_fract_y
_atom_site_fract_z
Si Si1 0.646454 0.271218 0.116983
Si Si2 0.671004 0.624259 0.542962
Si Si3 0.576791 0.883728 0.165286
Si Si4 0.253068 0.500000 0.000000
Si Si5 0.909286 0.671089 0.158179
O O1 0.493075 0.231275 0.114062
O O2 0.671626 0.215185 0.236638
O O3 0.740616 0.194535 0.041873
O O4 0.668288 0.406202 0.076454
O O5 0.629879 0.500000 0.500000
O O6 0.775892 0.598961 0.636587
O O7 0.564967 0.708736 0.594905
O O8 0.542921 0.875366 0.290387
O O9 0.500000 0.000000 0.125710
O O10 0.165670 0.581942 0.920053
#
# Coordination Sequence:
#
# PCOD9330293 Si02
#       5
#     8   8   8   4   8
#     4   9  21  33  59  92 128 167 216 272 341 380
#     4  11  19  36  64  95 128 163 223 279 330 403
#     4  10  20  34  62  96 121 164 230 273 321 391
#     4  10  20  42  56  92 142 172 216 274 350 416
#     4   9  23  36  62  95 130 178 214 278 341 400
#
# _framework density 24.866023999999999
#
# number of rings (size 3 to 8) (size 9 to 14) (size 15 to 20)
#    1.333    0.889    2.222    0.667    6.222    0.000 
#    0.000    9.444    0.000    0.000    0.000    6.222 
#    0.000    0.000    0.000    0.000    0.000    0.000 
#
# Total GULP energy -100408.351784 kJ/mol
# GULP energy per Si atom -5578.241766 kJ/mol
# Density = 2.480943 g / cm^3
# Si number density = 24.866024 Si / 1000 Ang^3
#
#
#
# Elastic Constant Matrix: (Units=GPa)
#
#
# Indices 1 2 3 4 5 6 
#
# 1 79.2986 32.0317 35.3449 0.0000 0.0000 0.0000
# 2 32.0317 176.3607 59.2492 0.0000 0.0000 0.0000
# 3 35.3449 59.2492 129.9046 0.0000 0.0000 0.0000
# 4 0.0000 0.0000 0.0000 61.0602 0.0000 0.0000
# 5 0.0000 0.0000 0.0000 0.0000 33.2655 0.0000
# 6 0.0000 0.0000 0.0000 0.0000 0.0000 18.2897
#
#
#
# Elastic Compliance Matrix: (Units=1/GPa)
#
#
# Indices 1 2 3 4 5 6 
#
# 1 0.014709 -0.001567 -0.003287 0.000000 0.000000 0.000000
# 2 -0.001567 0.006863 -0.002704 0.000000 0.000000 0.000000
# 3 -0.003287 -0.002704 0.009826 0.000000 0.000000 0.000000
# 4 0.000000 0.000000 0.000000 0.016377 0.000000 0.000000
# 5 0.000000 0.000000 0.000000 0.000000 0.030061 0.000000
# 6 0.000000 0.000000 0.000000 0.000000 0.000000 0.054676
#
#
# Mechanical properties :
#
#
# Convention : Reuss Voigt Hill
#
# Bulk Modulus (GPa) = 61.42119 70.97952 66.20035
# Shear Modulus (GPa) = 32.66793 39.78561 36.22677
#
# Velocity S-wave (km/s) = 3.62851 4.00434 3.82105
# Velocity P-wave (km/s) = 6.50456 7.07010 6.79322
#
# Compressibility (1/GPa) = 0.01628103
#
# Stress axis : x y z
#
# Youngs Moduli (GPa) = 67.98657 145.70420 101.77486
#
# Poissons Ratio (x) = 0.22834 0.33456
# Poissons Ratio (y) = 0.10654 0.27519
# Poissons Ratio (z) = 0.22349 0.39397
#
# Static dielectric constant tensor:
#      x y z
#    x 2.017930 0.000000 0.000000 
#    y 0.000000 1.978140 0.000000 
#    z 0.000000 0.000000 2.104480 
# 
# From -- ./inp_files/16462.got.cif
#   From: 2010.05.17/outbox.cif.g08.bks.cpg/sg23_9_cif.got.tgz:16462.got - 2010.06.04 12:02:01.
