data_PCOD9330669
_publ_section_title
;
Structure prediction by ZEFSAII (Michael W. Deem and Ramdas Pophale) SiO2 
 PCOD9330669
Probable space group: I 2 2 2
;
_chemical_formula_sum "Si O2"
_cell_formula_units_Z 58
_cell_length_a 24.037239
_cell_length_b 11.738969
_cell_length_c 10.103268
_cell_angle_alpha 90.000000
_cell_angle_beta 90.000000
_cell_angle_gamma 90.000000
_cell_volume 2850.863414
_symmetry_space_group_name_H-M "I 2 2 2"
_symmetry_group_IT_number 23
_symmetry_cell_setting 'orthorhombic'
loop_
_space_group_symop_operation_xyz
x,y,z
-x,-y,z
x,-y,-z
-x,y,-z
1/2+x,1/2+y,1/2+z
1/2-x,1/2-y,1/2+z
1/2+x,1/2-y,1/2-z
1/2-x,1/2+y,1/2-z
loop_
_atom_site_type_symbol
_atom_site_label
_atom_site_fract_x
_atom_site_fract_y
_atom_site_fract_z
Si Si1 0.807386 0.290916 0.306700
Si Si2 0.215920 0.235791 0.402710
Si Si3 0.000000 0.000000 0.000000
Si Si4 0.083175 0.833997 0.377578
Si Si5 0.486362 0.688160 0.314310
Si Si6 0.552866 0.063005 0.359648
Si Si7 0.388337 0.400463 0.839914
Si Si8 0.852046 0.466862 0.643786
O O1 0.779599 0.234147 0.437786
O O2 0.773321 0.263733 0.175608
O O3 0.870171 0.243821 0.309917
O O4 0.812449 0.426609 0.322523
O O5 0.176230 0.134893 0.345841
O O6 0.183036 0.352280 0.373120
O O7 0.977519 0.096668 0.101020
O O8 0.023875 0.803085 0.316924
O O9 0.087199 0.827435 0.536190
O O10 0.100708 0.965880 0.356907
O O11 0.469175 0.808355 0.375149
O O12 0.426244 0.633506 0.283566
O O13 0.603818 0.053104 0.259585
O O14 0.500000 0.000000 0.297496
O O15 0.564412 0.000000 0.500000
O O16 0.877610 0.500000 0.500000
#
# Coordination Sequence:
#
# PCOD9330669 Si02
#       8
#     8   8   2   8   8   8   8   8
#     4  10  23  40  63  92 127 163 209 262 310 369
#     4  10  22  42  62  93 123 164 209 262 311 369
#     4  12  24  36  56  92 136 168 200 256 312 390
#     4  10  21  39  66  95 123 160 209 258 308 373
#     4  12  22  41  62  90 130 165 206 254 319 370
#     4  11  24  42  62  90 128 171 211 256 311 383
#     4  10  20  40  66  93 124 158 208 261 308 369
#     4  10  22  43  65  91 125 160 216 268 308 367
#
# _framework density 20.344712999999999
#
# number of rings (size 3 to 8) (size 9 to 14) (size 15 to 20)
#    0.000    1.517    2.759    2.069    1.931    2.483 
#    4.966    0.000    0.000    0.000    0.000    0.000 
#    0.000    0.000    0.000    0.000    0.000    0.000 
#
# Total GULP energy -161608.911207 kJ/mol
# GULP energy per Si atom -5572.721076 kJ/mol
# Density = 2.029841 g / cm^3
# Si number density = 20.344713 Si / 1000 Ang^3
#
#
#
# Elastic Constant Matrix: (Units=GPa)
#
#
# Indices 1 2 3 4 5 6 
#
# 1 40.7763 2.2782 16.0347 0.0000 0.0000 0.0000
# 2 2.2782 99.5459 15.5625 0.0000 0.0000 0.0000
# 3 16.0347 15.5625 32.3009 0.0000 0.0000 0.0000
# 4 0.0000 0.0000 0.0000 21.8672 0.0000 0.0000
# 5 0.0000 0.0000 0.0000 0.0000 22.4580 0.0000
# 6 0.0000 0.0000 0.0000 0.0000 0.0000 15.6000
#
#
#
# Elastic Compliance Matrix: (Units=1/GPa)
#
#
# Indices 1 2 3 4 5 6 
#
# 1 0.030775 0.001821 -0.016155 0.000000 0.000000 0.000000
# 2 0.001821 0.010972 -0.006190 0.000000 0.000000 0.000000
# 3 -0.016155 -0.006190 0.041961 0.000000 0.000000 0.000000
# 4 0.000000 0.000000 0.000000 0.045731 0.000000 0.000000
# 5 0.000000 0.000000 0.000000 0.000000 0.044528 0.000000
# 6 0.000000 0.000000 0.000000 0.000000 0.000000 0.064102
#
#
# Mechanical properties :
#
#
# Convention : Reuss Voigt Hill
#
# Bulk Modulus (GPa) = 23.44115 26.70824 25.07470
# Shear Modulus (GPa) = 17.04534 21.23489 19.14012
#
# Velocity S-wave (km/s) = 2.89766 3.23422 3.07056
# Velocity P-wave (km/s) = 4.76889 5.20608 4.99227
#
# Compressibility (1/GPa) = 0.04266002
#
# Stress axis : x y z
#
# Youngs Moduli (GPa) = 32.49400 91.14368 23.83178
#
# Poissons Ratio (x) = -0.16599 0.38499
# Poissons Ratio (y) = -0.05918 0.14752
# Poissons Ratio (z) = 0.52493 0.56420
#
# Static dielectric constant tensor:
#      x y z
#    x 1.699530 0.000000 0.000000 
#    y 0.000000 1.778350 0.000000 
#    z 0.000000 0.000000 1.786730 
# 
# From -- ./inp_files/13050.got.cif
#   From: 2010.05.17/outbox.cif.g08.bks.cpg/sg23_7_cif.got.tgz:13050.got - 2010.06.04 12:02:01.
