data_PCOD9330675
_publ_section_title
;
Structure prediction by ZEFSAII (Michael W. Deem and Ramdas Pophale) SiO2 
 PCOD9330675
Probable space group: I 2 2 2
;
_chemical_formula_sum "Si O2"
_cell_formula_units_Z 48
_cell_length_a 14.446889
_cell_length_b 18.687504
_cell_length_c 8.384436
_cell_angle_alpha 90.000000
_cell_angle_beta 90.000000
_cell_angle_gamma 90.000000
_cell_volume 2263.598975
_symmetry_space_group_name_H-M "I 2 2 2"
_symmetry_group_IT_number 23
_symmetry_cell_setting 'orthorhombic'
loop_
_space_group_symop_operation_xyz
x,y,z
-x,-y,z
x,-y,-z
-x,y,-z
1/2+x,1/2+y,1/2+z
1/2-x,1/2-y,1/2+z
1/2+x,1/2-y,1/2-z
1/2-x,1/2+y,1/2-z
loop_
_atom_site_type_symbol
_atom_site_label
_atom_site_fract_x
_atom_site_fract_y
_atom_site_fract_z
Si Si1 0.761789 0.802863 0.599019
Si Si2 0.174213 0.547071 0.844426
Si Si3 0.764016 0.500000 0.500000
Si Si4 0.500000 0.877047 0.500000
Si Si5 0.430781 0.251245 0.292078
Si Si6 0.099030 0.109112 0.018367
Si Si7 0.627619 0.708276 0.782245
O O1 0.742265 0.883768 0.654149
O O2 0.842563 0.757977 0.682993
O O3 0.670653 0.760666 0.649753
O O4 0.797612 0.799741 0.419591
O O5 0.180838 0.507164 0.670747
O O6 0.071645 0.576985 0.892909
O O7 0.200546 0.500000 0.000000
O O8 0.692177 0.566186 0.486141
O O9 0.557351 0.823034 0.385610
O O10 0.416183 0.320026 0.408730
O O11 0.524684 0.262174 0.189909
O O12 0.110900 0.132617 0.200630
O O13 0.000000 0.071986 0.000000
#
# Coordination Sequence:
#
# PCOD9330675 Si02
#       7
#     8   8   4   4   8   8   8
#     4  12  23  41  69 105 144 186 242 310 365 442
#     4  12  27  48  73 104 152 202 250 296 367 454
#     4  12  25  44  73 108 142 208 250 286 364 466
#     4  12  23  50  74 105 146 192 242 320 380 421
#     4  11  21  42  72 104 139 181 243 311 377 424
#     4  10  20  40  68 100 144 183 232 299 367 435
#     4  11  22  38  66 105 140 183 242 307 374 430
#
# _framework density 21.205169000000001
#
# number of rings (size 3 to 8) (size 9 to 14) (size 15 to 20)
#    0.000    0.667    5.833    4.000    0.000    0.000 
#    0.000    1.667    0.000    0.000    0.000    0.000 
#    0.000    0.000    0.000    0.000    0.000    0.000 
#
# Total GULP energy -133706.704059 kJ/mol
# GULP energy per Si atom -5571.112669 kJ/mol
# Density = 2.115691 g / cm^3
# Si number density = 21.205169 Si / 1000 Ang^3
#
#
#
# Elastic Constant Matrix: (Units=GPa)
#
#
# Indices 1 2 3 4 5 6 
#
# 1 115.4557 39.5709 57.5349 0.0000 0.0000 0.0000
# 2 39.5709 79.6782 47.7523 0.0000 0.0000 0.0000
# 3 57.5349 47.7523 143.8488 0.0000 0.0000 0.0000
# 4 0.0000 0.0000 0.0000 24.2510 0.0000 0.0000
# 5 0.0000 0.0000 0.0000 0.0000 35.2243 0.0000
# 6 0.0000 0.0000 0.0000 0.0000 0.0000 33.7278
#
#
#
# Elastic Compliance Matrix: (Units=1/GPa)
#
#
# Indices 1 2 3 4 5 6 
#
# 1 0.011644 -0.003735 -0.003418 0.000000 0.000000 0.000000
# 2 -0.003735 0.016865 -0.004105 0.000000 0.000000 0.000000
# 3 -0.003418 -0.004105 0.009681 0.000000 0.000000 0.000000
# 4 0.000000 0.000000 0.000000 0.041235 0.000000 0.000000
# 5 0.000000 0.000000 0.000000 0.000000 0.028389 0.000000
# 6 0.000000 0.000000 0.000000 0.000000 0.000000 0.029649
#
#
# Mechanical properties :
#
#
# Convention : Reuss Voigt Hill
#
# Bulk Modulus (GPa) = 63.78911 69.85544 66.82227
# Shear Modulus (GPa) = 30.26535 31.58227 30.92381
#
# Velocity S-wave (km/s) = 3.78201 3.86342 3.82293
# Velocity P-wave (km/s) = 7.01560 7.27430 7.14612
#
# Compressibility (1/GPa) = 0.01567666
#
# Stress axis : x y z
#
# Youngs Moduli (GPa) = 85.87758 59.29285 103.29160
#
# Poissons Ratio (x) = 0.22145 0.35301
# Poissons Ratio (y) = 0.32074 0.42400
# Poissons Ratio (z) = 0.29349 0.24339
#
# Static dielectric constant tensor:
#      x y z
#    x 1.797230 0.000000 0.000000 
#    y 0.000000 1.810580 0.000000 
#    z 0.000000 0.000000 1.821420 
# 
# From -- ./inp_files/9984.got.cif
#   From: 2010.05.17/outbox.cif.g08.bks.cpg/sg23_5_cif.got.tgz:9984.got - 2010.06.04 12:02:01.
