data_PCOD9330263
_publ_section_title
;
Structure prediction by ZEFSAII (Michael W. Deem and Ramdas Pophale) SiO2 
 PCOD9330263
Probable space group: I 2 2 2
;
_chemical_formula_sum "Si O2"
_cell_formula_units_Z 40
_cell_length_a 24.451664
_cell_length_b 7.439633
_cell_length_c 11.236797
_cell_angle_alpha 90.000000
_cell_angle_beta 90.000000
_cell_angle_gamma 90.000000
_cell_volume 2044.101546
_symmetry_space_group_name_H-M "I 2 2 2"
_symmetry_group_IT_number 23
_symmetry_cell_setting 'orthorhombic'
loop_
_space_group_symop_operation_xyz
x,y,z
-x,-y,z
x,-y,-z
-x,y,-z
1/2+x,1/2+y,1/2+z
1/2-x,1/2-y,1/2+z
1/2+x,1/2-y,1/2-z
1/2-x,1/2+y,1/2-z
loop_
_atom_site_type_symbol
_atom_site_label
_atom_site_fract_x
_atom_site_fract_y
_atom_site_fract_z
Si Si1 0.643046 0.197284 0.831576
Si Si2 0.318358 0.000000 0.500000
Si Si3 0.703737 0.000000 0.000000
Si Si4 0.254959 0.742636 0.678949
Si Si5 0.935109 0.991911 0.355837
Si Si6 0.361730 0.801669 0.279417
O O1 0.695734 0.281741 0.769077
O O2 0.592504 0.324137 0.813167
O O3 0.632158 0.997719 0.782176
O O4 0.664173 0.163659 0.965297
O O5 0.278591 0.891412 0.588892
O O6 0.354420 0.860904 0.419197
O O7 0.741778 0.062687 0.105967
O O8 0.197279 0.778194 0.741816
O O9 0.924976 0.000000 0.500000
O O10 0.906831 0.831485 0.278668
O O11 0.000000 0.000000 0.338581
#
# Coordination Sequence:
#
# PCOD9330263 Si02
#       6
#     8   4   4   8   8   8
#     4  10  22  38  56  90 126 162 207 260 324 393
#     4  10  22  38  60  97 137 178 212 272 334 396
#     4  10  20  34  54  91 127 166 196 260 326 390
#     4  10  21  33  59  93 127 170 205 261 332 396
#     4  11  25  42  66  93 124 173 227 279 329 392
#     4  10  23  39  62  94 133 173 215 271 332 399
#
# _framework density 19.5685
#
# number of rings (size 3 to 8) (size 9 to 14) (size 15 to 20)
#    0.000    1.800    0.000    3.600   15.400    0.800 
#    0.000    2.000    0.000   14.400    0.000    0.000 
#    0.000    0.000    0.000    0.000    0.000    0.000 
#
# Total GULP energy -111448.900204 kJ/mol
# GULP energy per Si atom -5572.445010 kJ/mol
# Density = 1.952396 g / cm^3
# Si number density = 19.568500 Si / 1000 Ang^3
#
#
#
# Elastic Constant Matrix: (Units=GPa)
#
#
# Indices 1 2 3 4 5 6 
#
# 1 142.1647 72.0793 50.3234 0.0000 0.0000 0.0000
# 2 72.0793 124.1764 36.7348 0.0000 0.0000 0.0000
# 3 50.3234 36.7348 93.9192 0.0000 0.0000 0.0000
# 4 0.0000 0.0000 0.0000 25.5171 0.0000 0.0000
# 5 0.0000 0.0000 0.0000 0.0000 22.5257 0.0000
# 6 0.0000 0.0000 0.0000 0.0000 0.0000 31.0179
#
#
#
# Elastic Compliance Matrix: (Units=1/GPa)
#
#
# Indices 1 2 3 4 5 6 
#
# 1 0.011087 -0.005290 -0.003871 0.000000 0.000000 0.000000
# 2 -0.005290 0.011631 -0.001715 0.000000 0.000000 0.000000
# 3 -0.003871 -0.001715 0.013392 0.000000 0.000000 0.000000
# 4 0.000000 0.000000 0.000000 0.039189 0.000000 0.000000
# 5 0.000000 0.000000 0.000000 0.000000 0.044394 0.000000
# 6 0.000000 0.000000 0.000000 0.000000 0.000000 0.032239
#
#
# Mechanical properties :
#
#
# Convention : Reuss Voigt Hill
#
# Bulk Modulus (GPa) = 69.64834 75.39284 72.52059
# Shear Modulus (GPa) = 28.01580 29.22032 28.61806
#
# Velocity S-wave (km/s) = 3.78786 3.86843 3.82836
# Velocity P-wave (km/s) = 7.40269 7.65273 7.52875
#
# Compressibility (1/GPa) = 0.01435784
#
# Stress axis : x y z
#
# Youngs Moduli (GPa) = 90.19914 85.97707 74.66915
#
# Poissons Ratio (x) = 0.45483 0.28906
# Poissons Ratio (y) = 0.47716 0.12804
# Poissons Ratio (z) = 0.34918 0.14743
#
# Static dielectric constant tensor:
#      x y z
#    x 1.652770 0.000000 0.000000 
#    y 0.000000 1.733210 0.000000 
#    z 0.000000 0.000000 1.817810 
# 
# From -- ./inp_files/17896.got.cif
#   From: 2010.05.17/outbox.cif.g08.bks.cpg/sg23_9_cif.got.tgz:17896.got - 2010.06.04 12:02:01.
