data_PCOD9330908
_publ_section_title
;
Structure prediction by ZEFSAII (Michael W. Deem and Ramdas Pophale) SiO2 
 PCOD9330908
Probable space group: I 2 2 2
;
_chemical_formula_sum "Si O2"
_cell_formula_units_Z 56
_cell_length_a 11.471385
_cell_length_b 20.437410
_cell_length_c 11.139418
_cell_angle_alpha 90.000000
_cell_angle_beta 90.000000
_cell_angle_gamma 90.000000
_cell_volume 2611.585292
_symmetry_space_group_name_H-M "I 2 2 2"
_symmetry_group_IT_number 23
_symmetry_cell_setting 'orthorhombic'
loop_
_space_group_symop_operation_xyz
x,y,z
-x,-y,z
x,-y,-z
-x,y,-z
1/2+x,1/2+y,1/2+z
1/2-x,1/2-y,1/2+z
1/2+x,1/2-y,1/2-z
1/2-x,1/2+y,1/2-z
loop_
_atom_site_type_symbol
_atom_site_label
_atom_site_fract_x
_atom_site_fract_y
_atom_site_fract_z
Si Si1 0.872810 0.992962 0.692870
Si Si2 0.369333 0.571501 0.548837
Si Si3 0.452441 0.722292 0.844766
Si Si4 0.248786 0.377725 0.103057
Si Si5 0.310505 0.640367 0.163704
Si Si6 0.438449 0.209243 0.619459
Si Si7 0.763347 0.313152 0.418119
O O1 0.883573 0.947659 0.811707
O O2 0.780491 0.952940 0.616835
O O3 0.838844 0.067707 0.711168
O O4 0.000000 0.000000 0.635868
O O5 0.334140 0.500000 0.500000
O O6 0.500000 0.588445 0.500000
O O7 0.278271 0.626941 0.503847
O O8 0.354524 0.666023 0.844635
O O9 0.573235 0.682759 0.867814
O O10 0.481367 0.755955 0.717245
O O11 0.388822 0.777322 0.929202
O O12 0.134284 0.352010 0.169874
O O13 0.243155 0.364315 0.960976
O O14 0.243798 0.669956 0.276543
O O15 0.500000 0.186877 0.500000
O O16 0.340844 0.260629 0.573393
#
# Coordination Sequence:
#
# PCOD9330908 Si02
#       7
#     8   8   8   8   8   8   8
#     4  12  22  36  62  92 131 159 204 275 325 394
#     4  11  20  36  60  95 127 164 210 265 326 381
#     4  10  22  38  58  92 127 172 210 266 337 391
#     4  11  24  38  59  96 125 168 218 261 341 393
#     4  11  21  39  60  88 132 162 209 267 330 390
#     4  10  22  40  63  87 126 174 219 269 318 403
#     4  10  21  37  62  93 127 168 216 265 324 395
#
# _framework density 21.442916
#
# number of rings (size 3 to 8) (size 9 to 14) (size 15 to 20)
#    0.000    1.286    4.286    2.143    4.000    0.571 
#    7.714    0.000    0.000    6.000    0.000    1.000 
#    0.000    0.000    0.000    0.000    0.000    0.000 
#
# Total GULP energy -156098.858242 kJ/mol
# GULP energy per Si atom -5574.959223 kJ/mol
# Density = 2.139411 g / cm^3
# Si number density = 21.442916 Si / 1000 Ang^3
#
#
#
# Elastic Constant Matrix: (Units=GPa)
#
#
# Indices 1 2 3 4 5 6 
#
# 1 64.1019 49.0802 40.5006 0.0000 0.0000 0.0000
# 2 49.0802 124.3319 36.0551 -0.0001 0.0000 0.0000
# 3 40.5006 36.0551 88.6601 -0.0001 -0.0001 0.0000
# 4 0.0000 -0.0001 -0.0001 24.3911 0.0000 0.0000
# 5 0.0000 0.0000 -0.0001 0.0000 13.3339 0.0000
# 6 0.0000 0.0000 0.0000 0.0000 0.0000 27.2744
#
#
#
# Elastic Compliance Matrix: (Units=1/GPa)
#
#
# Indices 1 2 3 4 5 6 
#
# 1 0.027852 -0.008282 -0.009355 0.000000 0.000000 0.000000
# 2 -0.008282 0.011581 -0.000926 0.000000 0.000000 0.000000
# 3 -0.009355 -0.000926 0.015929 0.000000 0.000000 0.000000
# 4 0.000000 0.000000 0.000000 0.040998 0.000000 0.000000
# 5 0.000000 0.000000 0.000000 0.000000 0.074997 0.000000
# 6 0.000000 0.000000 0.000000 0.000000 0.000000 0.036664
#
#
# Mechanical properties :
#
#
# Convention : Reuss Voigt Hill
#
# Bulk Modulus (GPa) = 54.83772 58.70729 56.77251
# Shear Modulus (GPa) = 19.90237 23.09709 21.49973
#
# Velocity S-wave (km/s) = 3.04987 3.28555 3.16990
# Velocity P-wave (km/s) = 6.16698 6.46768 6.31912
#
# Compressibility (1/GPa) = 0.01823562
#
# Stress axis : x y z
#
# Youngs Moduli (GPa) = 35.90444 86.34962 62.77775
#
# Poissons Ratio (x) = 0.71512 0.58729
# Poissons Ratio (y) = 0.29735 0.05816
# Poissons Ratio (z) = 0.33589 0.08000
#
# Static dielectric constant tensor:
#      x y z
#    x 1.830840 0.000000 0.000000 
#    y 0.000000 1.820240 0.000000 
#    z 0.000000 0.000000 1.845690 
# 
# From -- ./inp_files/15909.got.cif
#   From: 2010.05.17/outbox.cif.g08.bks.cpg/sg23_8_cif.got.tgz:15909.got - 2010.06.04 12:02:01.
