data_PCOD9330488
_publ_section_title
;
Structure prediction by ZEFSAII (Michael W. Deem and Ramdas Pophale) SiO2 
 PCOD9330488
Probable space group: I 2 2 2
;
_chemical_formula_sum "Si O2"
_cell_formula_units_Z 64
_cell_length_a 12.571709
_cell_length_b 16.630688
_cell_length_c 14.716801
_cell_angle_alpha 90.000000
_cell_angle_beta 90.000000
_cell_angle_gamma 90.000000
_cell_volume 3076.932388
_symmetry_space_group_name_H-M "I 2 2 2"
_symmetry_group_IT_number 23
_symmetry_cell_setting 'orthorhombic'
loop_
_space_group_symop_operation_xyz
x,y,z
-x,-y,z
x,-y,-z
-x,y,-z
1/2+x,1/2+y,1/2+z
1/2-x,1/2-y,1/2+z
1/2+x,1/2-y,1/2-z
1/2-x,1/2+y,1/2-z
loop_
_atom_site_type_symbol
_atom_site_label
_atom_site_fract_x
_atom_site_fract_y
_atom_site_fract_z
Si Si1 0.876191 0.911922 0.979909
Si Si2 0.207324 0.413854 0.999779
Si Si3 0.108388 0.038874 0.640618
Si Si4 0.748356 0.239558 0.969483
Si Si5 0.140377 0.724265 0.669818
Si Si6 0.226705 0.893796 0.708970
Si Si7 0.149946 0.158589 0.783701
Si Si8 0.101040 0.309013 0.695073
O O1 0.820925 0.839617 0.034089
O O2 0.868112 0.888642 0.875052
O O3 0.000000 0.914001 0.000000
O O4 0.829498 0.000000 0.000000
O O5 0.310599 0.436456 0.061360
O O6 0.184015 0.322809 0.034298
O O7 0.144273 0.500000 0.000000
O O8 0.232287 0.398716 0.894635
O O9 0.090946 0.117000 0.700834
O O10 0.159345 0.975153 0.711954
O O11 0.000000 0.000000 0.606168
O O12 0.663908 0.232516 0.888194
O O13 0.684900 0.233538 0.066254
O O14 0.154893 0.813029 0.714233
O O15 0.222418 0.667137 0.724180
O O16 0.022739 0.688058 0.671787
O O17 0.327084 0.885090 0.775991
O O18 0.111177 0.250525 0.782982
#
# Coordination Sequence:
#
# PCOD9330488 Si02
#       8
#     8   8   8   8   8   8   8   8
#     4  10  24  42  63  91 128 170 212 268 322 382
#     4   9  19  38  56  88 129 159 197 255 329 381
#     4  11  21  34  59  91 123 157 198 267 322 376
#     4  10  20  37  63  92 125 169 208 265 321 385
#     4   9  20  39  56  84 125 162 203 259 316 377
#     4   9  21  33  56  86 121 156 201 253 310 385
#     4  10  22  38  58  91 124 153 212 262 314 381
#     4  11  20  37  62  89 120 163 215 260 314 382
#
# _framework density 20.799937
#
# number of rings (size 3 to 8) (size 9 to 14) (size 15 to 20)
#    0.000    2.125    1.250    1.875    3.500    4.250 
#    2.250    0.625    0.000    1.125    0.000    0.000 
#    0.000    0.000    0.000    0.000    0.000    0.000 
#
# Total GULP energy -178211.749528 kJ/mol
# GULP energy per Si atom -5569.117173 kJ/mol
# Density = 2.075260 g / cm^3
# Si number density = 20.799937 Si / 1000 Ang^3
#
#
#
# Elastic Constant Matrix: (Units=GPa)
#
#
# Indices 1 2 3 4 5 6 
#
# 1 77.1858 37.8921 10.4899 0.0000 0.0000 0.0000
# 2 37.8921 120.3093 7.9154 0.0000 0.0000 0.0000
# 3 10.4899 7.9154 52.4956 0.0000 0.0000 0.0000
# 4 0.0000 0.0000 0.0000 22.9430 0.0000 0.0000
# 5 0.0000 0.0000 0.0000 0.0000 14.1022 0.0000
# 6 0.0000 0.0000 0.0000 0.0000 0.0000 21.4720
#
#
#
# Elastic Compliance Matrix: (Units=1/GPa)
#
#
# Indices 1 2 3 4 5 6 
#
# 1 0.015620 -0.004761 -0.002403 0.000000 0.000000 0.000000
# 2 -0.004761 0.009847 -0.000533 0.000000 0.000000 0.000000
# 3 -0.002403 -0.000533 0.019610 0.000000 0.000000 0.000000
# 4 0.000000 0.000000 0.000000 0.043586 0.000000 0.000000
# 5 0.000000 0.000000 0.000000 0.000000 0.070911 0.000000
# 6 0.000000 0.000000 0.000000 0.000000 0.000000 0.046572
#
#
# Mechanical properties :
#
#
# Convention : Reuss Voigt Hill
#
# Bulk Modulus (GPa) = 33.69228 40.28728 36.98978
# Shear Modulus (GPa) = 21.60431 24.61632 23.11031
#
# Velocity S-wave (km/s) = 3.22634 3.44391 3.33690
# Velocity P-wave (km/s) = 5.48748 5.93506 5.71566
#
# Compressibility (1/GPa) = 0.02968039
#
# Stress axis : x y z
#
# Youngs Moduli (GPa) = 64.02103 101.55745 50.99479
#
# Poissons Ratio (x) = 0.48356 0.12255
# Poissons Ratio (y) = 0.30483 0.02719
# Poissons Ratio (z) = 0.15386 0.05416
#
# Static dielectric constant tensor:
#      x y z
#    x 1.766300 0.000000 0.000000 
#    y 0.000000 1.824940 0.000000 
#    z 0.000000 0.000000 1.775930 
# 
# From -- ./inp_files/21057.got.cif
#   From: 2010.05.17/outbox.cif.g08.bks.cpg/sg23_11_cif.got.tgz:21057.got - 2010.06.04 12:02:01.
