data_PCOD9330965
_publ_section_title
;
Structure prediction by ZEFSAII (Michael W. Deem and Ramdas Pophale) SiO2 
 PCOD9330965
Probable space group: I 2 2 2
;
_chemical_formula_sum "Si O2"
_cell_formula_units_Z 54
_cell_length_a 6.093783
_cell_length_b 29.981868
_cell_length_c 15.386839
_cell_angle_alpha 90.000000
_cell_angle_beta 90.000000
_cell_angle_gamma 90.000000
_cell_volume 2811.221608
_symmetry_space_group_name_H-M "I 2 2 2"
_symmetry_group_IT_number 23
_symmetry_cell_setting 'orthorhombic'
loop_
_space_group_symop_operation_xyz
x,y,z
-x,-y,z
x,-y,-z
-x,y,-z
1/2+x,1/2+y,1/2+z
1/2-x,1/2-y,1/2+z
1/2+x,1/2-y,1/2-z
1/2-x,1/2+y,1/2-z
loop_
_atom_site_type_symbol
_atom_site_label
_atom_site_fract_x
_atom_site_fract_y
_atom_site_fract_z
Si Si1 0.617194 0.116735 0.094944
Si Si2 0.099824 0.805759 0.181027
Si Si3 0.474764 0.547528 0.654447
Si Si4 0.500000 0.500000 0.500000
Si Si5 0.260132 0.376879 0.738646
Si Si6 0.000000 0.201578 0.500000
Si Si7 0.680546 0.776009 0.642201
Si Si8 0.614325 0.142416 0.580099
O O1 0.780424 0.158743 0.117035
O O2 0.754342 0.070802 0.115423
O O3 0.431277 0.122187 0.167968
O O4 0.500000 0.117856 0.000000
O O5 0.250165 0.785180 0.257974
O O6 0.900902 0.831761 0.229508
O O7 0.986265 0.764713 0.132986
O O8 0.500000 0.500000 0.702236
O O9 0.614977 0.533085 0.568039
O O10 0.575433 0.584484 0.713399
O O11 0.172645 0.384317 0.834630
O O12 0.116609 0.229745 0.576086
O O13 0.175062 0.169434 0.453419
O O14 0.558724 0.820453 0.611252
O O15 0.500000 0.117606 0.500000
#
# Coordination Sequence:
#
# PCOD9330965 Si02
#       8
#     8   8   8   2   8   4   8   8
#     4  11  24  42  61  91 129 171 204 260 321 379
#     4  11  24  39  61  83 128 165 219 262 317 382
#     4   9  21  38  63  91 125 162 206 251 298 388
#     4   8  16  40  58  88 128 156 200 248 274 376
#     4  11  21  41  62  89 125 164 205 255 323 373
#     4  10  22  40  62  84 115 154 228 267 304 368
#     4  11  22  41  59  86 118 170 211 269 315 367
#     4  10  21  38  63  91 118 156 216 266 311 370
#
# _framework density 19.208729000000002
#
# number of rings (size 3 to 8) (size 9 to 14) (size 15 to 20)
#    0.444    1.185    2.963    1.778    0.000    2.370 
#   10.667    0.000    0.000    0.000    0.000    7.778 
#    0.000    0.000    0.000    0.000    0.000    0.000 
#
# Total GULP energy -150342.516038 kJ/mol
# GULP energy per Si atom -5568.241335 kJ/mol
# Density = 1.916501 g / cm^3
# Si number density = 19.208729 Si / 1000 Ang^3
#
#
#
# Elastic Constant Matrix: (Units=GPa)
#
#
# Indices 1 2 3 4 5 6 
#
# 1 72.2646 11.0384 40.0233 0.0000 0.0000 0.0000
# 2 11.0384 55.8934 16.2215 0.0000 0.0000 0.0000
# 3 40.0233 16.2215 124.9214 0.0000 0.0000 0.0000
# 4 0.0000 0.0000 0.0000 14.6622 0.0000 0.0000
# 5 0.0000 0.0000 0.0000 0.0000 39.9480 0.0000
# 6 0.0000 0.0000 0.0000 0.0000 0.0000 4.1039
#
#
#
# Elastic Compliance Matrix: (Units=1/GPa)
#
#
# Indices 1 2 3 4 5 6 
#
# 1 0.017005 -0.001847 -0.005208 0.000000 0.000000 0.000000
# 2 -0.001847 0.018792 -0.001849 0.000000 0.000000 0.000000
# 3 -0.005208 -0.001849 0.009914 0.000000 0.000000 0.000000
# 4 0.000000 0.000000 0.000000 0.068203 0.000000 0.000000
# 5 0.000000 0.000000 0.000000 0.000000 0.025033 0.000000
# 6 0.000000 0.000000 0.000000 0.000000 0.000000 0.243672
#
#
# Mechanical properties :
#
#
# Convention : Reuss Voigt Hill
#
# Bulk Modulus (GPa) = 35.83761 43.07176 39.45468
# Shear Modulus (GPa) = 12.20326 24.12922 18.16624
#
# Velocity S-wave (km/s) = 2.52325 3.54808 3.07861
# Velocity P-wave (km/s) = 5.21406 6.26553 5.76382
#
# Compressibility (1/GPa) = 0.02790365
#
# Stress axis : x y z
#
# Youngs Moduli (GPa) = 58.80726 53.21300 100.86998
#
# Poissons Ratio (x) = 0.09827 0.52536
# Poissons Ratio (y) = 0.10860 0.18647
# Poissons Ratio (z) = 0.30629 0.09837
#
# Static dielectric constant tensor:
#      x y z
#    x 1.729870 0.000000 0.000000 
#    y 0.000000 1.741800 0.000000 
#    z 0.000000 0.000000 1.713520 
# 
# From -- ./inp_files/19361.got.cif
#   From: 2010.05.17/outbox.cif.g08.bks.cpg/sg23_10_cif.got.tgz:19361.got - 2010.06.04 12:02:01.
