data_PCOD9330738
_publ_section_title
;
Structure prediction by ZEFSAII (Michael W. Deem and Ramdas Pophale) SiO2 
 PCOD9330738
Probable space group: I 2 2 2
;
_chemical_formula_sum "Si O2"
_cell_formula_units_Z 46
_cell_length_a 22.570816
_cell_length_b 5.729179
_cell_length_c 17.216812
_cell_angle_alpha 90.000000
_cell_angle_beta 90.000000
_cell_angle_gamma 90.000000
_cell_volume 2226.344612
_symmetry_space_group_name_H-M "I 2 2 2"
_symmetry_group_IT_number 23
_symmetry_cell_setting 'orthorhombic'
loop_
_space_group_symop_operation_xyz
x,y,z
-x,-y,z
x,-y,-z
-x,y,-z
1/2+x,1/2+y,1/2+z
1/2-x,1/2-y,1/2+z
1/2+x,1/2-y,1/2-z
1/2-x,1/2+y,1/2-z
loop_
_atom_site_type_symbol
_atom_site_label
_atom_site_fract_x
_atom_site_fract_y
_atom_site_fract_z
Si Si1 0.435242 0.616004 0.577442
Si Si2 0.888458 0.953915 0.236829
Si Si3 0.055098 0.323679 0.362490
Si Si4 0.234557 0.748882 0.789202
Si Si5 0.500000 0.000000 0.500000
Si Si6 0.089103 0.000000 0.500000
Si Si7 0.654066 0.797953 0.125688
O O1 0.500000 0.500000 0.584449
O O2 0.406845 0.500000 0.500000
O O3 0.404221 0.584306 0.658284
O O4 0.453969 0.873478 0.556227
O O5 0.940491 0.815194 0.281358
O O6 0.835761 0.780637 0.211418
O O7 0.866603 0.138760 0.301323
O O8 0.053678 0.150350 0.436021
O O9 0.117751 0.461624 0.368537
O O10 0.000000 0.500000 0.364835
O O11 0.246235 0.479827 0.762464
O O12 0.275037 0.798703 0.865059
O O13 0.130295 0.174197 0.548907
#
# Coordination Sequence:
#
# PCOD9330738 Si02
#       7
#     8   8   8   8   2   4   8
#     4   9  20  38  60  89 128 163 200 263 328 398
#     4  10  22  39  66  98 129 167 231 278 335 415
#     4  11  24  41  66  96 134 183 228 286 348 415
#     4  10  20  42  68  95 133 171 224 288 347 399
#     4   8  18  40  60  84 128 174 200 252 356 400
#     4  10  24  43  62  97 140 181 235 280 344 418
#     4  10  22  39  66  95 128 181 221 279 343 404
#
# _framework density 20.661671999999999
#
# number of rings (size 3 to 8) (size 9 to 14) (size 15 to 20)
#    0.000    2.261    1.739    0.522    2.435    6.957 
#    1.565    1.739    1.913    1.043    0.000    0.000 
#    0.000    0.000    0.000    0.000    0.000    0.000 
#
# Total GULP energy -128145.005062 kJ/mol
# GULP energy per Si atom -5571.521959 kJ/mol
# Density = 2.061464 g / cm^3
# Si number density = 20.661672 Si / 1000 Ang^3
#
#
#
# Elastic Constant Matrix: (Units=GPa)
#
#
# Indices 1 2 3 4 5 6 
#
# 1 67.0766 15.4944 41.1669 0.0000 0.0000 0.0000
# 2 15.4944 63.0800 29.9005 0.0000 0.0000 0.0000
# 3 41.1669 29.9005 135.8983 0.0000 0.0000 0.0000
# 4 0.0000 0.0000 0.0000 33.4814 0.0000 0.0000
# 5 0.0000 0.0000 0.0000 0.0000 16.2211 0.0000
# 6 0.0000 0.0000 0.0000 0.0000 0.0000 36.8817
#
#
#
# Elastic Compliance Matrix: (Units=1/GPa)
#
#
# Indices 1 2 3 4 5 6 
#
# 1 0.018562 -0.002115 -0.005158 0.000000 0.000000 0.000000
# 2 -0.002115 0.017940 -0.003307 0.000000 0.000000 0.000000
# 3 -0.005158 -0.003307 0.009648 0.000000 0.000000 0.000000
# 4 0.000000 0.000000 0.000000 0.029867 0.000000 0.000000
# 5 0.000000 0.000000 0.000000 0.000000 0.061648 0.000000
# 6 0.000000 0.000000 0.000000 0.000000 0.000000 0.027114
#
#
# Mechanical properties :
#
#
# Convention : Reuss Voigt Hill
#
# Bulk Modulus (GPa) = 40.01206 48.79760 44.40483
# Shear Modulus (GPa) = 25.73764 29.28303 27.51034
#
# Velocity S-wave (km/s) = 3.53324 3.76874 3.65289
# Velocity P-wave (km/s) = 6.00436 6.52737 6.27132
#
# Compressibility (1/GPa) = 0.02499247
#
# Stress axis : x y z
#
# Youngs Moduli (GPa) = 53.87282 55.74247 103.64486
#
# Poissons Ratio (x) = 0.11788 0.53457
# Poissons Ratio (y) = 0.11392 0.34270
# Poissons Ratio (z) = 0.27786 0.18431
#
# Static dielectric constant tensor:
#      x y z
#    x 1.781170 0.000000 0.000000 
#    y 0.000000 1.772570 0.000000 
#    z 0.000000 0.000000 1.662590 
# 
# From -- ./inp_files/25350.got.cif
#   From: 2010.05.17/outbox.cif.g08.bks.cpg/sg23_13_cif.got.tgz:25350.got - 2010.06.04 12:02:01.
