data_PCOD9330767
_publ_section_title
;
Structure prediction by ZEFSAII (Michael W. Deem and Ramdas Pophale) SiO2 
 PCOD9330767
Probable space group: I 2 2 2
;
_chemical_formula_sum "Si O2"
_cell_formula_units_Z 48
_cell_length_a 8.185237
_cell_length_b 8.811606
_cell_length_c 30.801644
_cell_angle_alpha 90.000000
_cell_angle_beta 90.000000
_cell_angle_gamma 90.000000
_cell_volume 2221.571144
_symmetry_space_group_name_H-M "I 2 2 2"
_symmetry_group_IT_number 23
_symmetry_cell_setting 'orthorhombic'
loop_
_space_group_symop_operation_xyz
x,y,z
-x,-y,z
x,-y,-z
-x,y,-z
1/2+x,1/2+y,1/2+z
1/2-x,1/2-y,1/2+z
1/2+x,1/2-y,1/2-z
1/2-x,1/2+y,1/2-z
loop_
_atom_site_type_symbol
_atom_site_label
_atom_site_fract_x
_atom_site_fract_y
_atom_site_fract_z
Si Si1 0.500000 0.500000 0.000000
Si Si2 0.000000 0.500000 0.500000
Si Si3 0.164861 0.555523 0.116416
Si Si4 0.541762 0.824360 0.212259
Si Si5 0.710173 0.780242 0.122005
Si Si6 0.391876 0.239983 0.936639
Si Si7 0.000000 0.000000 0.861961
Si Si8 0.177715 0.249660 0.804949
O O1 0.408802 0.386993 0.967567
O O2 0.117512 0.397353 0.470224
O O3 0.266024 0.400731 0.117412
O O4 0.250497 0.702262 0.095189
O O5 0.127342 0.609482 0.165163
O O6 0.000000 0.500000 0.093443
O O7 0.664405 0.811252 0.172004
O O8 0.372823 0.748097 0.198049
O O9 0.609409 0.755124 0.256473
O O10 0.500000 0.000000 0.220101
O O11 0.552091 0.805225 0.091604
O O12 0.870232 0.886898 0.113312
O O13 0.108897 0.105391 0.830639
#
# Coordination Sequence:
#
# PCOD9330767 Si02
#       8
#     2   2   8   8   8   8   4   8
#     4  10  20  46  76 106 140 174 242 296 348 474
#     4  10  28  42  88 108 148 178 248 308 360 470
#     4  12  25  45  74 107 147 198 238 305 374 455
#     4  12  27  43  66  96 140 199 246 311 363 430
#     4  12  25  44  73 103 144 192 247 301 377 445
#     4  11  24  47  74 114 143 191 241 300 380 451
#     4  12  26  44  67 105 140 194 242 318 362 436
#     4  12  27  44  66  98 146 189 259 302 364 428
#
# _framework density 21.606331000000001
#
# number of rings (size 3 to 8) (size 9 to 14) (size 15 to 20)
#    0.000    0.333    6.667    1.500    5.833    0.000 
#    0.000    0.417    0.000    3.500    0.000    0.000 
#    0.000    0.000    0.000    0.000    0.000    0.000 
#
# Total GULP energy -134013.067855 kJ/mol
# GULP energy per Si atom -5583.877827 kJ/mol
# Density = 2.155715 g / cm^3
# Si number density = 21.606331 Si / 1000 Ang^3
#
#
#
# Elastic Constant Matrix: (Units=GPa)
#
#
# Indices 1 2 3 4 5 6 
#
# 1 103.2758 39.5289 38.5139 0.0000 0.0000 0.0000
# 2 39.5289 120.7956 41.2259 0.0000 0.0000 0.0000
# 3 38.5139 41.2259 104.6562 0.0000 0.0000 0.0000
# 4 0.0000 0.0000 0.0000 48.1763 0.0000 0.0000
# 5 0.0000 0.0000 0.0000 0.0000 37.8812 0.0000
# 6 0.0000 0.0000 0.0000 0.0000 0.0000 27.2894
#
#
#
# Elastic Compliance Matrix: (Units=1/GPa)
#
#
# Indices 1 2 3 4 5 6 
#
# 1 0.011986 -0.002792 -0.003311 0.000000 0.000000 0.000000
# 2 -0.002792 0.010215 -0.002996 0.000000 0.000000 0.000000
# 3 -0.003311 -0.002996 0.011954 0.000000 0.000000 0.000000
# 4 0.000000 0.000000 0.000000 0.020757 0.000000 0.000000
# 5 0.000000 0.000000 0.000000 0.000000 0.026398 0.000000
# 6 0.000000 0.000000 0.000000 0.000000 0.000000 0.036644
#
#
# Mechanical properties :
#
#
# Convention : Reuss Voigt Hill
#
# Bulk Modulus (GPa) = 62.67338 63.02946 62.85142
# Shear Modulus (GPa) = 35.34259 36.63333 35.98796
#
# Velocity S-wave (km/s) = 4.04883 4.12210 4.08563
# Velocity P-wave (km/s) = 7.13634 7.20352 7.17001
#
# Compressibility (1/GPa) = 0.01595574
#
# Stress axis : x y z
#
# Youngs Moduli (GPa) = 83.42816 97.89745 83.65527
#
# Poissons Ratio (x) = 0.27337 0.27699
# Poissons Ratio (y) = 0.23296 0.25065
# Poissons Ratio (z) = 0.27624 0.29332
#
# Static dielectric constant tensor:
#      x y z
#    x 1.871270 0.000000 0.000000 
#    y 0.000000 1.854850 0.000000 
#    z 0.000000 0.000000 1.798030 
# 
# From -- ./inp_files/7440.got.cif
#   From: 2010.05.17/outbox.cif.g08.bks.cpg/sg23_4_cif.got.tgz:7440.got - 2010.06.04 12:02:01.
