data_PCOD9330122
_publ_section_title
;
Structure prediction by ZEFSAII (Michael W. Deem and Ramdas Pophale) SiO2 
 PCOD9330122
Probable space group: I 2 2 2
;
_chemical_formula_sum "Si O2"
_cell_formula_units_Z 54
_cell_length_a 14.244604
_cell_length_b 14.316507
_cell_length_c 10.545980
_cell_angle_alpha 90.000000
_cell_angle_beta 90.000000
_cell_angle_gamma 90.000000
_cell_volume 2150.673053
_symmetry_space_group_name_H-M "I 2 2 2"
_symmetry_group_IT_number 23
_symmetry_cell_setting 'orthorhombic'
loop_
_space_group_symop_operation_xyz
x,y,z
-x,-y,z
x,-y,-z
-x,y,-z
1/2+x,1/2+y,1/2+z
1/2-x,1/2-y,1/2+z
1/2+x,1/2-y,1/2-z
1/2-x,1/2+y,1/2-z
loop_
_atom_site_type_symbol
_atom_site_label
_atom_site_fract_x
_atom_site_fract_y
_atom_site_fract_z
Si Si1 0.491191 0.245248 0.222853
Si Si2 0.340295 0.109445 0.606035
Si Si3 0.799868 0.090169 0.064295
Si Si4 0.500000 0.660466 0.500000
Si Si5 0.500000 0.500000 0.000000
Si Si6 0.306324 0.259833 0.828734
Si Si7 0.870065 0.398040 0.171840
Si Si8 0.146925 0.109982 0.651314
O O1 0.498140 0.287672 0.364810
O O2 0.582963 0.278028 0.143903
O O3 0.458336 0.138511 0.245233
O O4 0.395101 0.288295 0.169444
O O5 0.328672 0.194089 0.704371
O O6 0.393968 0.125690 0.476014
O O7 0.233139 0.101625 0.557910
O O8 0.362807 0.010279 0.670494
O O9 0.741111 0.186787 0.072150
O O10 0.822379 0.071517 0.212019
O O11 0.900576 0.106477 0.998639
O O12 0.753291 0.000000 0.000000
O O13 0.563479 0.555418 0.094404
O O14 0.229443 0.341800 0.801385
#
# Coordination Sequence:
#
# PCOD9330122 Si02
#       8
#     8   8   8   4   2   8   8   8
#     4  11  23  41  69 102 139 186 232 298 365 433
#     4  10  23  43  72  98 137 184 240 295 357 426
#     4  10  22  41  68 105 141 185 244 299 366 427
#     4  10  19  38  68 105 132 178 250 303 360 413
#     4  12  24  36  62  96 152 176 236 294 372 432
#     4  11  24  43  66 106 144 181 231 296 364 428
#     4  11  22  45  69 101 136 185 242 292 357 426
#     4  10  24  42  62 106 137 185 238 297 372 429
#
# _framework density 25.108418
#
# number of rings (size 3 to 8) (size 9 to 14) (size 15 to 20)
#    0.000    1.481    4.444    2.000    8.296    1.778 
#    0.000    1.481    0.000    1.778    0.000    0.000 
#    0.000    0.000    0.000    0.000    0.000    0.000 
#
# Total GULP energy -150682.985990 kJ/mol
# GULP energy per Si atom -5580.851333 kJ/mol
# Density = 2.505127 g / cm^3
# Si number density = 25.108418 Si / 1000 Ang^3
#
#
#
# Elastic Constant Matrix: (Units=GPa)
#
#
# Indices 1 2 3 4 5 6 
#
# 1 120.1746 28.3208 9.9610 0.0000 0.0000 0.0000
# 2 28.3208 85.3687 22.0830 0.0000 0.0000 0.0000
# 3 9.9610 22.0830 61.7745 0.0000 0.0000 0.0000
# 4 0.0000 0.0000 0.0000 36.5816 0.0000 0.0000
# 5 0.0000 0.0000 0.0000 0.0000 30.5009 0.0000
# 6 0.0000 0.0000 0.0000 0.0000 0.0000 48.7816
#
#
#
# Elastic Compliance Matrix: (Units=1/GPa)
#
#
# Indices 1 2 3 4 5 6 
#
# 1 0.009037 -0.002888 -0.000425 0.000000 0.000000 0.000000
# 2 -0.002888 0.013830 -0.004478 0.000000 0.000000 0.000000
# 3 -0.000425 -0.004478 0.017857 0.000000 0.000000 0.000000
# 4 0.000000 0.000000 0.000000 0.027336 0.000000 0.000000
# 5 0.000000 0.000000 0.000000 0.000000 0.032786 0.000000
# 6 0.000000 0.000000 0.000000 0.000000 0.000000 0.020500
#
#
# Mechanical properties :
#
#
# Convention : Reuss Voigt Hill
#
# Bulk Modulus (GPa) = 39.77360 43.11636 41.44498
# Shear Modulus (GPa) = 34.40926 36.96971 35.68948
#
# Velocity S-wave (km/s) = 3.70594 3.84135 3.77426
# Velocity P-wave (km/s) = 5.84698 6.07322 5.96117
#
# Compressibility (1/GPa) = 0.02514231
#
# Stress axis : x y z
#
# Youngs Moduli (GPa) = 110.65539 72.30405 55.99946
#
# Poissons Ratio (x) = 0.20882 0.02379
# Poissons Ratio (y) = 0.31959 0.25079
# Poissons Ratio (z) = 0.04700 0.32381
#
# Static dielectric constant tensor:
#      x y z
#    x 2.120320 0.000000 0.000000 
#    y 0.000000 2.176100 0.000000 
#    z 0.000000 0.000000 1.901410 
# 
# From -- ./inp_files/16829.got.cif
#   From: 2010.05.17/outbox.cif.g08.bks.cpg/sg23_9_cif.got.tgz:16829.got - 2010.06.04 12:02:01.
