data_PCOD9330140
_publ_section_title
;
Structure prediction by ZEFSAII (Michael W. Deem and Ramdas Pophale) SiO2 
 PCOD9330140
Probable space group: I 2 2 2
;
_chemical_formula_sum "Si O2"
_cell_formula_units_Z 48
_cell_length_a 9.339346
_cell_length_b 28.622076
_cell_length_c 8.266509
_cell_angle_alpha 90.000000
_cell_angle_beta 90.000000
_cell_angle_gamma 90.000000
_cell_volume 2209.732681
_symmetry_space_group_name_H-M "I 2 2 2"
_symmetry_group_IT_number 23
_symmetry_cell_setting 'orthorhombic'
loop_
_space_group_symop_operation_xyz
x,y,z
-x,-y,z
x,-y,-z
-x,y,-z
1/2+x,1/2+y,1/2+z
1/2-x,1/2-y,1/2+z
1/2+x,1/2-y,1/2-z
1/2-x,1/2+y,1/2-z
loop_
_atom_site_type_symbol
_atom_site_label
_atom_site_fract_x
_atom_site_fract_y
_atom_site_fract_z
Si Si1 0.074382 0.700012 0.831105
Si Si2 0.276873 0.552132 0.207082
Si Si3 0.577378 0.711502 0.174653
Si Si4 0.707055 0.950645 0.674534
Si Si5 0.973468 0.394699 0.316175
Si Si6 0.462641 0.609121 0.806378
O O1 0.247218 0.709293 0.839534
O O2 0.986106 0.745393 0.774182
O O3 0.036036 0.656400 0.715996
O O4 0.000000 0.685840 0.000000
O O5 0.234993 0.500055 0.259748
O O6 0.190619 0.596588 0.273798
O O7 0.437515 0.566532 0.246787
O O8 0.250052 0.548715 0.013953
O O9 0.525852 0.662203 0.250780
O O10 0.500000 0.715389 0.000000
O O11 0.548174 0.933096 0.701406
O O12 0.805526 0.908658 0.737468
O O13 0.000000 0.408003 0.500000
O O14 0.500000 0.612437 0.000000
#
# Coordination Sequence:
#
# PCOD9330140 Si02
#       6
#     8   8   8   8   8   8
#     4  12  26  45  72  97 133 172 217 271 329 395
#     4  10  21  36  67  95 126 170 215 268 320 390
#     4  11  24  44  70 102 134 168 216 269 331 393
#     4  10  19  40  63  96 127 166 219 266 324 380
#     4  12  26  41  61  91 132 173 221 265 322 383
#     4   9  19  37  65  96 129 161 211 266 321 385
#
# _framework density 21.722083999999999
#
# number of rings (size 3 to 8) (size 9 to 14) (size 15 to 20)
#    0.000    1.333    1.667    4.000    7.000    4.667 
#    0.000    0.833    0.000    2.000    0.000    0.000 
#    0.000    0.000    0.000    0.000    0.000    0.000 
#
# Total GULP energy -133800.050729 kJ/mol
# GULP energy per Si atom -5575.002114 kJ/mol
# Density = 2.167264 g / cm^3
# Si number density = 21.722084 Si / 1000 Ang^3
#
#
#
# Elastic Constant Matrix: (Units=GPa)
#
#
# Indices 1 2 3 4 5 6 
#
# 1 54.1568 10.0893 -1.0885 0.0005 0.0005 0.0023
# 2 10.0893 119.8021 -5.2222 -0.0010 -0.0004 -0.0004
# 3 -1.0885 -5.2222 22.9155 0.0004 0.0078 0.0090
# 4 0.0005 -0.0010 0.0004 9.8224 0.0002 0.0005
# 5 0.0005 -0.0004 0.0078 0.0002 6.4912 0.0021
# 6 0.0023 -0.0004 0.0090 0.0005 0.0021 42.6509
#
#
#
# Elastic Compliance Matrix: (Units=1/GPa)
#
#
# Indices 1 2 3 4 5 6 
#
# 1 0.018766 -0.001557 0.000537 -0.000001 -0.000002 -0.000001
# 2 -0.001557 0.008560 0.001877 0.000001 -0.000002 0.000000
# 3 0.000537 0.001877 0.044092 -0.000002 -0.000053 -0.000009
# 4 -0.000001 0.000001 -0.000002 0.101808 -0.000003 -0.000001
# 5 -0.000002 -0.000002 -0.000053 -0.000003 0.154055 -0.000008
# 6 -0.000001 0.000000 -0.000009 -0.000001 -0.000008 0.023446
#
#
# Mechanical properties :
#
#
# Convention : Reuss Voigt Hill
#
# Bulk Modulus (GPa) = 13.67425 22.71464 18.19444
# Shear Modulus (GPa) = 13.39078 24.66594 19.02836
#
# Velocity S-wave (km/s) = 2.48555 3.37341 2.96293
# Velocity P-wave (km/s) = 3.81393 5.06486 4.48324
#
# Compressibility (1/GPa) = 0.07313016
#
# Stress axis : x y z
#
# Youngs Moduli (GPa) = 53.28860 116.82197 22.67999
#
# Poissons Ratio (x) = 0.18189 -0.01217
# Poissons Ratio (y) = 0.08297 -0.04257
# Poissons Ratio (z) = -0.02859 -0.21925
#
# Static dielectric constant tensor:
#      x y z
#    x 1.767800 0.000000 0.000000 
#    y 0.000000 1.776960 0.000000 
#    z 0.000000 0.000000 1.817830 
# 
# From -- ./inp_files/7351.got.cif
#   From: 2010.05.17/outbox.cif.g08.bks.cpg/sg23_4_cif.got.tgz:7351.got - 2010.06.04 12:02:01.
