data_PCOD9330450
_publ_section_title
;
Structure prediction by ZEFSAII (Michael W. Deem and Ramdas Pophale) SiO2 
 PCOD9330450
Probable space group: I 2 2 2
;
_chemical_formula_sum "Si O2"
_cell_formula_units_Z 56
_cell_length_a 15.833293
_cell_length_b 11.373922
_cell_length_c 13.834224
_cell_angle_alpha 90.000000
_cell_angle_beta 90.000000
_cell_angle_gamma 90.000000
_cell_volume 2491.358911
_symmetry_space_group_name_H-M "I 2 2 2"
_symmetry_group_IT_number 23
_symmetry_cell_setting 'orthorhombic'
loop_
_space_group_symop_operation_xyz
x,y,z
-x,-y,z
x,-y,-z
-x,y,-z
1/2+x,1/2+y,1/2+z
1/2-x,1/2-y,1/2+z
1/2+x,1/2-y,1/2-z
1/2-x,1/2+y,1/2-z
loop_
_atom_site_type_symbol
_atom_site_label
_atom_site_fract_x
_atom_site_fract_y
_atom_site_fract_z
Si Si1 0.292316 0.190356 0.071878
Si Si2 0.114873 0.085196 0.083458
Si Si3 0.561110 0.227877 0.797895
Si Si4 0.805364 0.620450 0.191894
Si Si5 0.134877 0.009562 0.709393
Si Si6 0.377122 0.260837 0.871784
Si Si7 0.472732 0.837075 0.395002
O O1 0.215077 0.101664 0.068328
O O2 0.364342 0.157796 0.149345
O O3 0.244721 0.307947 0.109101
O O4 0.336686 0.215570 0.970250
O O5 0.070772 0.211086 0.083609
O O6 0.099841 0.033488 0.188603
O O7 0.085879 0.000000 0.000000
O O8 0.591326 0.364216 0.807322
O O9 0.472486 0.217243 0.853821
O O10 0.542346 0.189314 0.687629
O O11 0.736047 0.525204 0.220054
O O12 0.823653 0.709233 0.281062
O O13 0.897237 0.585478 0.151850
O O14 0.120656 0.902986 0.634952
O O15 0.500000 0.878571 0.500000
#
# Coordination Sequence:
#
# PCOD9330450 Si02
#       7
#     8   8   8   8   8   8   8
#     4  10  21  37  56  88 117 166 190 240 310 359
#     4  11  21  36  60  94 117 151 208 246 301 353
#     4  10  21  35  58  88 124 150 198 243 309 355
#     4   9  21  37  53  88 119 157 199 233 304 360
#     4  11  20  36  61  87 118 157 194 250 295 358
#     4  11  20  37  59  85 125 153 194 252 300 363
#     4  10  20  37  58  89 122 158 191 252 306 351
#
# _framework density 22.477692000000001
#
# number of rings (size 3 to 8) (size 9 to 14) (size 15 to 20)
#    0.000    1.714    4.286    2.571    0.000    7.143 
#    0.000    2.857    0.000   12.000    3.714    0.000 
#    0.000    0.000    0.000    0.000    0.000    0.000 
#
# Total GULP energy -156479.732586 kJ/mol
# GULP energy per Si atom -5588.561878 kJ/mol
# Density = 2.242653 g / cm^3
# Si number density = 22.477692 Si / 1000 Ang^3
#
#
#
# Elastic Constant Matrix: (Units=GPa)
#
#
# Indices 1 2 3 4 5 6 
#
# 1 127.9681 32.8108 66.1433 0.0000 0.0000 0.0000
# 2 32.8108 27.8617 10.5507 0.0000 0.0000 0.0000
# 3 66.1433 10.5507 133.9384 0.0000 0.0000 0.0000
# 4 0.0000 0.0000 0.0000 4.0722 0.0000 0.0000
# 5 0.0000 0.0000 0.0000 0.0000 -49.1933 0.0000
# 6 0.0000 0.0000 0.0000 0.0000 0.0000 28.6032
#
#
#
# Elastic Compliance Matrix: (Units=1/GPa)
#
#
# Indices 1 2 3 4 5 6 
#
# 1 0.014898 -0.015212 -0.006159 0.000000 0.000000 0.000000
# 2 -0.015212 0.052528 0.003375 0.000000 0.000000 0.000000
# 3 -0.006159 0.003375 0.010242 0.000000 0.000000 0.000000
# 4 0.000000 0.000000 0.000000 0.245565 0.000000 0.000000
# 5 0.000000 0.000000 0.000000 0.000000 -0.020328 0.000000
# 6 0.000000 0.000000 0.000000 0.000000 0.000000 0.034961
#
#
# Mechanical properties :
#
#
# Convention : Reuss Voigt Hill
#
# Bulk Modulus (GPa) = 23.99533 56.53086 40.26310
# Shear Modulus (GPa) = 12.89487 8.71399 10.80443
#
# Velocity S-wave (km/s) = 2.39775 1.97108 2.19481
# Velocity P-wave (km/s) = 4.28532 5.51222 4.93703
#
# Compressibility (1/GPa) = 0.04167478
#
# Stress axis : x y z
#
# Youngs Moduli (GPa) = 67.12190 19.03740 97.63917
#
# Poissons Ratio (x) = 0.28960 0.60135
# Poissons Ratio (y) = 1.02108 -0.32949
# Poissons Ratio (z) = 0.41340 -0.06424
#
# Static dielectric constant tensor:
#      x y z
#    x 1.864550 0.000000 0.000000 
#    y 0.000000 2.086410 0.000000 
#    z 0.000000 0.000000 1.796450 
# 
# From -- ./inp_files/21686.got.cif
#   From: 2010.05.17/outbox.cif.g08.bks.cpg/sg23_11_cif.got.tgz:21686.got - 2010.06.04 12:02:01.
