data_PCOD9330563
_publ_section_title
;
Structure prediction by ZEFSAII (Michael W. Deem and Ramdas Pophale) SiO2 
 PCOD9330563
Probable space group: I 2 2 2
;
_chemical_formula_sum "Si O2"
_cell_formula_units_Z 58
_cell_length_a 8.373817
_cell_length_b 31.402147
_cell_length_c 10.623629
_cell_angle_alpha 90.000000
_cell_angle_beta 90.000000
_cell_angle_gamma 90.000000
_cell_volume 2793.545207
_symmetry_space_group_name_H-M "I 2 2 2"
_symmetry_group_IT_number 23
_symmetry_cell_setting 'orthorhombic'
loop_
_space_group_symop_operation_xyz
x,y,z
-x,-y,z
x,-y,-z
-x,y,-z
1/2+x,1/2+y,1/2+z
1/2-x,1/2-y,1/2+z
1/2+x,1/2-y,1/2-z
1/2-x,1/2+y,1/2-z
loop_
_atom_site_type_symbol
_atom_site_label
_atom_site_fract_x
_atom_site_fract_y
_atom_site_fract_z
Si Si1 0.825602 0.873383 0.952619
Si Si2 0.814006 0.622736 0.724881
Si Si3 0.246660 0.983979 0.313651
Si Si4 0.558353 0.569506 0.861855
Si Si5 0.881976 0.281686 0.303205
Si Si6 0.424681 0.938328 0.136580
Si Si7 0.756890 0.279512 0.588763
Si Si8 0.000000 0.500000 0.000000
O O1 0.723396 0.905308 0.869607
O O2 0.824760 0.825983 0.898056
O O3 0.721546 0.871788 0.078197
O O4 0.000000 0.887435 0.000000
O O5 0.653649 0.606663 0.793064
O O6 0.862381 0.670777 0.755924
O O7 0.947105 0.585526 0.726645
O O8 0.342434 0.981719 0.184249
O O9 0.383074 0.972356 0.413684
O O10 0.100106 0.951779 0.305555
O O11 0.177491 0.028983 0.357320
O O12 0.500000 0.582083 0.000000
O O13 0.777170 0.273036 0.434246
O O14 0.839023 0.251146 0.185253
O O15 0.063119 0.279150 0.355140
O O16 0.500000 0.943433 0.000000
#
# Coordination Sequence:
#
# PCOD9330563 Si02
#       8
#     8   8   8   8   8   8   8   2
#     4  10  20  38  64  95 126 175 217 268 341 403
#     4  10  21  40  64  90 136 172 213 282 333 393
#     4  11  22  39  66  92 127 173 219 263 335 400
#     4  11  22  43  64  96 130 173 222 274 328 405
#     4  10  22  42  64  97 133 177 223 275 338 404
#     4  10  21  40  66  96 133 166 218 278 335 400
#     4  10  22  40  67  92 135 177 224 273 337 409
#     4  12  20  38  62  88 120 170 212 254 320 386
#
# _framework density 20.762150999999999
#
# number of rings (size 3 to 8) (size 9 to 14) (size 15 to 20)
#    0.000    1.655    2.759    2.069    3.862    0.000 
#    2.483    7.931    3.034   10.759    0.000    0.000 
#    0.000    0.000    0.000    0.000    0.000    0.000 
#
# Total GULP energy -161463.821026 kJ/mol
# GULP energy per Si atom -5567.717966 kJ/mol
# Density = 2.071489 g / cm^3
# Si number density = 20.762151 Si / 1000 Ang^3
#
#
#
# Elastic Constant Matrix: (Units=GPa)
#
#
# Indices 1 2 3 4 5 6 
#
# 1 102.7402 29.0740 27.7373 0.0000 0.0000 0.0000
# 2 29.0740 56.7249 46.2649 -0.0001 0.0000 -0.0002
# 3 27.7373 46.2649 79.8403 -0.0003 0.0000 0.0008
# 4 0.0000 -0.0001 -0.0003 13.0461 0.0000 0.0004
# 5 0.0000 0.0000 0.0000 0.0000 43.3312 -0.0001
# 6 0.0000 -0.0002 0.0008 0.0004 -0.0001 14.7845
#
#
#
# Elastic Compliance Matrix: (Units=1/GPa)
#
#
# Indices 1 2 3 4 5 6 
#
# 1 0.011435 -0.004969 -0.001093 0.000000 0.000000 0.000000
# 2 -0.004969 0.035587 -0.018895 0.000000 0.000000 0.000002
# 3 -0.001093 -0.018895 0.023854 0.000000 0.000000 -0.000002
# 4 0.000000 0.000000 0.000000 0.076651 0.000000 -0.000002
# 5 0.000000 0.000000 0.000000 0.000000 0.023078 0.000000
# 6 0.000000 0.000002 -0.000002 -0.000002 0.000000 0.067638
#
#
# Mechanical properties :
#
#
# Convention : Reuss Voigt Hill
#
# Bulk Modulus (GPa) = 47.70860 49.49531 48.60196
# Shear Modulus (GPa) = 16.94090 23.31432 20.12761
#
# Velocity S-wave (km/s) = 2.85958 3.35464 3.11696
# Velocity P-wave (km/s) = 5.82507 6.23665 6.03437
#
# Compressibility (1/GPa) = 0.02096058
#
# Stress axis : x y z
#
# Youngs Moduli (GPa) = 87.45385 28.10039 41.92221
#
# Poissons Ratio (x) = 0.13964 0.04582
# Poissons Ratio (y) = 0.43459 0.79212
# Poissons Ratio (z) = 0.09558 0.53096
#
# Static dielectric constant tensor:
#      x y z
#    x 1.764530 0.000000 0.000000 
#    y 0.000000 1.791730 0.000000 
#    z 0.000000 0.000000 1.794910 
# 
# From -- ./inp_files/14955.got.cif
#   From: 2010.05.17/outbox.cif.g08.bks.cpg/sg23_8_cif.got.tgz:14955.got - 2010.06.04 12:02:01.
