data_PCOD9330473
_publ_section_title
;
Structure prediction by ZEFSAII (Michael W. Deem and Ramdas Pophale) SiO2 
 PCOD9330473
Probable space group: I 2 2 2
;
_chemical_formula_sum "Si O2"
_cell_formula_units_Z 48
_cell_length_a 10.818538
_cell_length_b 12.044628
_cell_length_c 17.936992
_cell_angle_alpha 90.000000
_cell_angle_beta 90.000000
_cell_angle_gamma 90.000000
_cell_volume 2337.284509
_symmetry_space_group_name_H-M "I 2 2 2"
_symmetry_group_IT_number 23
_symmetry_cell_setting 'orthorhombic'
loop_
_space_group_symop_operation_xyz
x,y,z
-x,-y,z
x,-y,-z
-x,y,-z
1/2+x,1/2+y,1/2+z
1/2-x,1/2-y,1/2+z
1/2+x,1/2-y,1/2-z
1/2-x,1/2+y,1/2-z
loop_
_atom_site_type_symbol
_atom_site_label
_atom_site_fract_x
_atom_site_fract_y
_atom_site_fract_z
Si Si1 0.617029 0.576880 0.237995
Si Si2 0.733941 0.109524 0.678758
Si Si3 0.091535 0.673984 0.321325
Si Si4 0.322935 0.851190 0.147578
Si Si5 0.356758 0.784474 0.988504
Si Si6 0.370000 0.126132 0.473635
O O1 0.500000 0.500000 0.258138
O O2 0.691260 0.504422 0.176811
O O3 0.584374 0.696348 0.203563
O O4 0.706798 0.599428 0.308554
O O5 0.680414 0.120218 0.760984
O O6 0.814871 0.217926 0.661104
O O7 0.630442 0.119182 0.615864
O O8 0.143157 0.667321 0.405262
O O9 0.956093 0.619957 0.319529
O O10 0.328840 0.866193 0.058350
O O11 0.500000 0.744732 0.000000
O O12 0.249761 0.692306 0.997343
O O13 0.500000 0.176165 0.500000
O O14 0.362002 0.000000 0.500000
#
# Coordination Sequence:
#
# PCOD9330473 Si02
#       6
#     8   8   8   8   8   8
#     4  11  21  37  61  91 126 160 206 260 313 374
#     4  10  21  36  58  88 118 156 205 249 307 373
#     4  10  20  37  62  87 119 163 204 253 313 366
#     4   9  20  37  58  87 120 159 204 253 309 370
#     4   9  19  38  58  82 116 161 203 251 306 365
#     4  10  21  35  52  84 123 154 192 249 313 380
#
# _framework density 20.536653000000001
#
# number of rings (size 3 to 8) (size 9 to 14) (size 15 to 20)
#    0.000    2.167    1.667    1.000    0.000    6.333 
#    3.000    0.833    0.000    4.000    0.000    0.000 
#    0.000    0.000    0.000    0.000    0.000    0.000 
#
# Total GULP energy -133856.713789 kJ/mol
# GULP energy per Si atom -5577.363075 kJ/mol
# Density = 2.048991 g / cm^3
# Si number density = 20.536653 Si / 1000 Ang^3
#
#
#
# Elastic Constant Matrix: (Units=GPa)
#
#
# Indices 1 2 3 4 5 6 
#
# 1 116.3855 23.8644 59.5500 0.0000 0.0000 0.0000
# 2 23.8644 63.6460 8.4995 0.0000 0.0000 0.0000
# 3 59.5500 8.4995 138.3791 0.0000 0.0000 0.0000
# 4 0.0000 0.0000 0.0000 11.7528 0.0000 0.0000
# 5 0.0000 0.0000 0.0000 0.0000 32.9447 0.0000
# 6 0.0000 0.0000 0.0000 0.0000 0.0000 15.4920
#
#
#
# Elastic Compliance Matrix: (Units=1/GPa)
#
#
# Indices 1 2 3 4 5 6 
#
# 1 0.011864 -0.003798 -0.004872 0.000000 0.000000 0.000000
# 2 -0.003798 0.017058 0.000587 0.000000 0.000000 0.000000
# 3 -0.004872 0.000587 0.009287 0.000000 0.000000 0.000000
# 4 0.000000 0.000000 0.000000 0.085086 0.000000 0.000000
# 5 0.000000 0.000000 0.000000 0.000000 0.030354 0.000000
# 6 0.000000 0.000000 0.000000 0.000000 0.000000 0.064549
#
#
# Mechanical properties :
#
#
# Convention : Reuss Voigt Hill
#
# Bulk Modulus (GPa) = 45.36818 55.80427 50.58622
# Shear Modulus (GPa) = 20.68581 27.13769 23.91175
#
# Velocity S-wave (km/s) = 3.17718 3.63909 3.41595
# Velocity P-wave (km/s) = 5.96646 6.69995 6.34381
#
# Compressibility (1/GPa) = 0.02204188
#
# Stress axis : x y z
#
# Youngs Moduli (GPa) = 84.29040 58.62506 107.67526
#
# Poissons Ratio (x) = 0.22264 0.52461
# Poissons Ratio (y) = 0.32011 -0.06316
# Poissons Ratio (z) = 0.41068 -0.03439
#
# Static dielectric constant tensor:
#      x y z
#    x 1.732890 0.000000 0.000000 
#    y 0.000000 1.757730 0.000000 
#    z 0.000000 0.000000 1.743160 
# 
# From -- ./inp_files/15765.got.cif
#   From: 2010.05.17/outbox.cif.g08.bks.cpg/sg23_8_cif.got.tgz:15765.got - 2010.06.04 12:02:01.
