data_PCOD9330798
_publ_section_title
;
Structure prediction by ZEFSAII (Michael W. Deem and Ramdas Pophale) SiO2 
 PCOD9330798
Probable space group: I 2 2 2
;
_chemical_formula_sum "Si O2"
_cell_formula_units_Z 56
_cell_length_a 5.351304
_cell_length_b 17.012998
_cell_length_c 25.582334
_cell_angle_alpha 90.000000
_cell_angle_beta 90.000000
_cell_angle_gamma 90.000000
_cell_volume 2329.059798
_symmetry_space_group_name_H-M "I 2 2 2"
_symmetry_group_IT_number 23
_symmetry_cell_setting 'orthorhombic'
loop_
_space_group_symop_operation_xyz
x,y,z
-x,-y,z
x,-y,-z
-x,y,-z
1/2+x,1/2+y,1/2+z
1/2-x,1/2-y,1/2+z
1/2+x,1/2-y,1/2-z
1/2-x,1/2+y,1/2-z
loop_
_atom_site_type_symbol
_atom_site_label
_atom_site_fract_x
_atom_site_fract_y
_atom_site_fract_z
Si Si1 0.242565 0.966887 0.940282
Si Si2 0.987104 0.629682 0.057433
Si Si3 0.161479 0.288641 0.552725
Si Si4 0.844213 0.205541 0.628291
Si Si5 0.739457 0.951884 0.771118
Si Si6 0.809560 0.928407 0.654566
Si Si7 0.398393 0.725176 0.720348
O O1 0.216630 0.873619 0.943509
O O2 0.500000 0.000000 0.917603
O O3 0.000000 0.000000 0.912039
O O4 0.243388 0.000000 0.000000
O O5 0.842621 0.713516 0.052338
O O6 0.855078 0.580453 0.102818
O O7 0.256607 0.652372 0.079764
O O8 0.000000 0.594301 0.000000
O O9 0.000000 0.287917 0.500000
O O10 0.983326 0.278454 0.602761
O O11 0.616939 0.230179 0.664736
O O12 0.032294 0.151487 0.660072
O O13 0.674087 0.938238 0.709552
O O14 0.808862 0.864188 0.790098
O O15 0.500000 0.000000 0.792846
O O16 0.000000 0.000000 0.773548
O O17 0.000000 0.000000 0.648339
O O18 0.673487 0.735974 0.744908
#
# Coordination Sequence:
#
# PCOD9330798 Si02
#       7
#     8   8   8   8   8   8   8
#     4  10  21  34  61  91 122 169 239 270 333 395
#     4  11  24  40  69  95 137 189 238 289 355 409
#     4  11  22  41  63  96 136 182 229 297 337 419
#     4  11  25  43  70 104 132 185 236 287 355 424
#     4  11  24  45  77 106 143 186 231 298 369 438
#     4  10  24  43  67 101 134 182 237 290 357 434
#     4  12  25  46  76 109 142 181 240 297 361 429
#
# _framework density 24.044038
#
# number of rings (size 3 to 8) (size 9 to 14) (size 15 to 20)
#    0.000    1.143    4.286    1.714   12.000    0.000 
#    0.000    2.857    0.000    0.000    0.000    0.000 
#    0.000    0.000    0.000    0.000    0.000    0.000 
#
# Total GULP energy -156686.838413 kJ/mol
# GULP energy per Si atom -5595.958515 kJ/mol
# Density = 2.398931 g / cm^3
# Si number density = 24.044038 Si / 1000 Ang^3
#
#
#
# Elastic Constant Matrix: (Units=GPa)
#
#
# Indices 1 2 3 4 5 6 
#
# 1 91.4006 13.1207 -1.4962 0.0000 0.0000 0.0000
# 2 13.1207 109.2933 7.3675 0.0000 0.0000 0.0000
# 3 -1.4962 7.3675 78.3546 0.0000 0.0000 0.0000
# 4 0.0000 0.0000 0.0000 16.5175 0.0000 0.0000
# 5 0.0000 0.0000 0.0000 0.0000 17.9010 0.0000
# 6 0.0000 0.0000 0.0000 0.0000 0.0000 62.0743
#
#
#
# Elastic Compliance Matrix: (Units=1/GPa)
#
#
# Indices 1 2 3 4 5 6 
#
# 1 0.011142 -0.001361 0.000341 0.000000 0.000000 0.000000
# 2 -0.001361 0.009374 -0.000907 0.000000 0.000000 0.000000
# 3 0.000341 -0.000907 0.012854 0.000000 0.000000 0.000000
# 4 0.000000 0.000000 0.000000 0.060542 0.000000 0.000000
# 5 0.000000 0.000000 0.000000 0.000000 0.055863 0.000000
# 6 0.000000 0.000000 0.000000 0.000000 0.000000 0.016110
#
#
# Mechanical properties :
#
#
# Convention : Reuss Voigt Hill
#
# Bulk Modulus (GPa) = 33.88025 35.22582 34.55303
# Shear Modulus (GPa) = 27.84312 36.63567 32.23939
#
# Velocity S-wave (km/s) = 3.40664 3.90768 3.66573
# Velocity P-wave (km/s) = 5.44014 5.91966 5.68495
#
# Compressibility (1/GPa) = 0.02951572
#
# Stress axis : x y z
#
# Youngs Moduli (GPa) = 89.75261 106.67585 77.79484
#
# Poissons Ratio (x) = 0.14514 -0.02650
# Poissons Ratio (y) = 0.12211 0.07059
# Poissons Ratio (z) = -0.03058 0.09680
#
# Static dielectric constant tensor:
#      x y z
#    x 1.938000 0.000000 0.000000 
#    y 0.000000 1.945720 0.000000 
#    z 0.000000 0.000000 1.884540 
# 
# From -- ./inp_files/29964.got.cif
#   From: 2010.05.17/outbox.cif.g08.bks.cpg/sg23_15_cif.got.tgz:29964.got - 2010.06.04 12:02:01.
