data_PCOD9330949
_publ_section_title
;
Structure prediction by ZEFSAII (Michael W. Deem and Ramdas Pophale) SiO2 
 PCOD9330949
Probable space group: I 2 2 2
;
_chemical_formula_sum "Si O2"
_cell_formula_units_Z 44
_cell_length_a 8.734648
_cell_length_b 31.183308
_cell_length_c 8.086702
_cell_angle_alpha 90.000000
_cell_angle_beta 90.000000
_cell_angle_gamma 90.000000
_cell_volume 2202.617227
_symmetry_space_group_name_H-M "I 2 2 2"
_symmetry_group_IT_number 23
_symmetry_cell_setting 'orthorhombic'
loop_
_space_group_symop_operation_xyz
x,y,z
-x,-y,z
x,-y,-z
-x,y,-z
1/2+x,1/2+y,1/2+z
1/2-x,1/2-y,1/2+z
1/2+x,1/2-y,1/2-z
1/2-x,1/2+y,1/2-z
loop_
_atom_site_type_symbol
_atom_site_label
_atom_site_fract_x
_atom_site_fract_y
_atom_site_fract_z
Si Si1 0.403732 0.216648 0.253724
Si Si2 0.000000 0.646925 0.000000
Si Si3 0.000000 0.923824 0.500000
Si Si4 0.738341 0.204500 0.096091
Si Si5 0.203534 0.000000 0.500000
Si Si6 0.664294 0.023676 0.152830
Si Si7 0.748834 0.387387 0.754117
O O1 0.398136 0.178264 0.385703
O O2 0.576312 0.216429 0.183481
O O3 0.359871 0.260980 0.340468
O O4 0.292754 0.208168 0.098743
O O5 0.887218 0.620211 0.115894
O O6 0.097208 0.898569 0.362510
O O7 0.885455 0.959129 0.422412
O O8 0.775607 0.156522 0.154310
O O9 0.285932 0.018207 0.658347
O O10 0.691989 0.074565 0.133765
O O11 0.500000 0.000000 0.154718
O O12 0.747912 0.000000 0.000000
#
# Coordination Sequence:
#
# PCOD9330949 Si02
#       7
#     8   4   4   8   4   8   8
#     4  10  21  38  61  87 119 171 191 259 304 378
#     4  10  22  38  63  88 124 156 209 254 316 358
#     4   9  20  38  60  84 120 156 204 250 306 368
#     4  10  21  38  61  88 128 157 212 246 313 365
#     4   9  19  40  62  79 118 167 202 247 320 375
#     4  10  22  37  63  91 122 161 208 258 316 377
#     4  10  22  39  59  93 121 160 208 262 301 377
#
# _framework density 19.976236
#
# number of rings (size 3 to 8) (size 9 to 14) (size 15 to 20)
#    0.000    2.182    0.000    2.455    5.091    8.727 
#    0.000    7.273    0.000    0.000    0.000    0.000 
#    0.000    0.000    0.000    0.000    0.000    0.000 
#
# Total GULP energy -122527.998242 kJ/mol
# GULP energy per Si atom -5569.454466 kJ/mol
# Density = 1.993077 g / cm^3
# Si number density = 19.976236 Si / 1000 Ang^3
#
#
#
# Elastic Constant Matrix: (Units=GPa)
#
#
# Indices 1 2 3 4 5 6 
#
# 1 42.3487 53.0170 19.5781 0.0001 0.0002 -0.0003
# 2 53.0170 166.5178 66.7874 -0.0004 0.0002 0.0000
# 3 19.5781 66.7874 101.3597 -0.0013 0.0007 -0.0008
# 4 0.0001 -0.0004 -0.0013 43.8285 0.0001 0.0003
# 5 0.0002 0.0002 0.0007 0.0001 11.7312 -0.0002
# 6 -0.0003 0.0000 -0.0008 0.0003 -0.0002 -1.7201
#
#
#
# Elastic Compliance Matrix: (Units=1/GPa)
#
#
# Indices 1 2 3 4 5 6 
#
# 1 0.039323 -0.012876 0.000889 0.000000 0.000000 -0.000007
# 2 -0.012876 0.012379 -0.005670 0.000000 0.000000 0.000005
# 3 0.000889 -0.005670 0.013430 0.000000 -0.000001 -0.000007
# 4 0.000000 0.000000 0.000000 0.022816 0.000000 0.000004
# 5 0.000000 0.000000 -0.000001 0.000000 0.085243 -0.000008
# 6 -0.000007 0.000005 -0.000007 0.000004 -0.000008 -0.581371
#
#
# Mechanical properties :
#
#
# Convention : Reuss Voigt Hill
#
# Bulk Modulus (GPa) = 33.53712 65.44348 49.49030
# Shear Modulus (GPa) = -13.77683 22.15751 4.19034
#
# Velocity S-wave (km/s) = -2.62899 3.33407 1.44990
# Velocity P-wave (km/s) = 2.75853 6.90313 5.25655
#
# Compressibility (1/GPa) = 0.02981771
#
# Stress axis : x y z
#
# Youngs Moduli (GPa) = 25.43072 80.78208 74.46087
#
# Poissons Ratio (x) = 1.04018 -0.06620
# Poissons Ratio (y) = 0.32745 0.42216
# Poissons Ratio (z) = -0.02261 0.45800
#
# Static dielectric constant tensor:
#      x y z
#    x 1.753630 0.000000 0.000000 
#    y 0.000000 1.630050 0.000000 
#    z 0.000000 0.000000 1.759610 
# 
# From -- ./inp_files/7298.got.cif
#   From: 2010.05.17/outbox.cif.g08.bks.cpg/sg23_4_cif.got.tgz:7298.got - 2010.06.04 12:02:01.
