data_PCOD9330696
_publ_section_title
;
Structure prediction by ZEFSAII (Michael W. Deem and Ramdas Pophale) SiO2 
 PCOD9330696
Probable space group: I 2 2 2
;
_chemical_formula_sum "Si O2"
_cell_formula_units_Z 40
_cell_length_a 22.006997
_cell_length_b 12.346216
_cell_length_c 8.383673
_cell_angle_alpha 90.000000
_cell_angle_beta 90.000000
_cell_angle_gamma 90.000000
_cell_volume 2277.870266
_symmetry_space_group_name_H-M "I 2 2 2"
_symmetry_group_IT_number 23
_symmetry_cell_setting 'orthorhombic'
loop_
_space_group_symop_operation_xyz
x,y,z
-x,-y,z
x,-y,-z
-x,y,-z
1/2+x,1/2+y,1/2+z
1/2-x,1/2-y,1/2+z
1/2+x,1/2-y,1/2-z
1/2-x,1/2+y,1/2-z
loop_
_atom_site_type_symbol
_atom_site_label
_atom_site_fract_x
_atom_site_fract_y
_atom_site_fract_z
Si Si1 0.500000 0.500000 0.000000
Si Si2 0.216475 0.125793 0.506775
Si Si3 0.684053 0.283699 0.640601
Si Si4 0.000000 0.500000 0.000000
Si Si5 0.848387 0.000000 0.000000
Si Si6 0.097945 0.884781 0.709733
Si Si7 0.934146 0.286929 0.958148
O O1 0.541461 0.424094 0.108647
O O2 0.267310 0.198060 0.421976
O O3 0.198943 0.176268 0.679827
O O4 0.155387 0.124888 0.403851
O O5 0.237187 0.000000 0.500000
O O6 0.689299 0.392759 0.535084
O O7 0.616521 0.235829 0.595509
O O8 0.046789 0.411811 0.075054
O O9 0.888440 0.025620 0.845375
O O10 0.089114 0.772761 0.801915
O O11 0.000000 0.235299 0.000000
#
# Coordination Sequence:
#
# PCOD9330696 Si02
#       7
#     2   8   8   2   4   8   8
#     4  12  24  34  62  90 136 166 198 272 316 376
#     4  12  25  43  64  94 131 168 219 264 319 394
#     4  11  23  41  66  91 129 171 209 272 324 377
#     4   8  20  40  62  92 120 160 212 248 298 400
#     4  10  20  41  62  96 124 163 220 260 316 398
#     4  11  23  37  60  96 124 167 210 259 322 377
#     4   9  22  39  66  90 123 164 211 258 314 385
#
# _framework density 17.560262999999999
#
# number of rings (size 3 to 8) (size 9 to 14) (size 15 to 20)
#    0.600    0.800    3.000    2.400    9.800    0.000 
#    0.000    0.000    0.000    4.200    0.000    0.000 
#    0.000    0.000    0.000    0.000    0.000    0.000 
#
# Total GULP energy -111340.186284 kJ/mol
# GULP energy per Si atom -5567.009314 kJ/mol
# Density = 1.752030 g / cm^3
# Si number density = 17.560263 Si / 1000 Ang^3
#
#
#
# Elastic Constant Matrix: (Units=GPa)
#
#
# Indices 1 2 3 4 5 6 
#
# 1 119.2110 53.8235 61.5786 0.0000 0.0000 0.0000
# 2 53.8235 149.0906 52.0296 0.0000 0.0000 0.0000
# 3 61.5786 52.0296 123.8122 0.0000 0.0000 0.0000
# 4 0.0000 0.0000 0.0000 23.5368 0.0000 0.0000
# 5 0.0000 0.0000 0.0000 0.0000 5.6161 0.0000
# 6 0.0000 0.0000 0.0000 0.0000 0.0000 31.7779
#
#
#
# Elastic Compliance Matrix: (Units=1/GPa)
#
#
# Indices 1 2 3 4 5 6 
#
# 1 0.012129 -0.002664 -0.004913 0.000000 0.000000 0.000000
# 2 -0.002664 0.008445 -0.002224 0.000000 0.000000 0.000000
# 3 -0.004913 -0.002224 0.011455 0.000000 0.000000 0.000000
# 4 0.000000 0.000000 0.000000 0.042487 0.000000 0.000000
# 5 0.000000 0.000000 0.000000 0.000000 0.178059 0.000000
# 6 0.000000 0.000000 0.000000 0.000000 0.000000 0.031468
#
#
# Mechanical properties :
#
#
# Convention : Reuss Voigt Hill
#
# Bulk Modulus (GPa) = 80.46932 80.77525 80.62229
# Shear Modulus (GPa) = 16.24497 27.16497 21.70497
#
# Velocity S-wave (km/s) = 3.04484 3.93740 3.51953
# Velocity P-wave (km/s) = 7.63450 8.17127 7.90744
#
# Compressibility (1/GPa) = 0.01242710
#
# Stress axis : x y z
#
# Youngs Moduli (GPa) = 82.44590 118.40989 87.30020
#
# Poissons Ratio (x) = 0.31548 0.42890
# Poissons Ratio (y) = 0.21966 0.19414
# Poissons Ratio (z) = 0.40505 0.26333
#
# Static dielectric constant tensor:
#      x y z
#    x 1.605130 0.000000 0.000000 
#    y 0.000000 1.643800 0.000000 
#    z 0.000000 0.000000 1.593620 
# 
# From -- ./inp_files/8532.got.cif
#   From: 2010.05.17/outbox.cif.g08.bks.cpg/sg23_5_cif.got.tgz:8532.got - 2010.06.04 12:02:01.
