data_PCOD9330111
_publ_section_title
;
Structure prediction by ZEFSAII (Michael W. Deem and Ramdas Pophale) SiO2 
 PCOD9330111
Probable space group: I 2 2 2
;
_chemical_formula_sum "Si O2"
_cell_formula_units_Z 64
_cell_length_a 9.475016
_cell_length_b 32.139707
_cell_length_c 10.809579
_cell_angle_alpha 90.000000
_cell_angle_beta 90.000000
_cell_angle_gamma 90.000000
_cell_volume 3291.778809
_symmetry_space_group_name_H-M "I 2 2 2"
_symmetry_group_IT_number 23
_symmetry_cell_setting 'orthorhombic'
loop_
_space_group_symop_operation_xyz
x,y,z
-x,-y,z
x,-y,-z
-x,y,-z
1/2+x,1/2+y,1/2+z
1/2-x,1/2-y,1/2+z
1/2+x,1/2-y,1/2-z
1/2-x,1/2+y,1/2-z
loop_
_atom_site_type_symbol
_atom_site_label
_atom_site_fract_x
_atom_site_fract_y
_atom_site_fract_z
Si Si1 0.062486 0.666621 0.862728
Si Si2 0.974364 0.886217 0.357951
Si Si3 0.810200 0.623499 0.719734
Si Si4 0.830251 0.834094 0.980649
Si Si5 0.992823 0.452752 0.647884
Si Si6 0.012292 0.211241 0.355512
Si Si7 0.256925 0.397579 0.259820
Si Si8 0.753808 0.267507 0.709789
O O1 0.176416 0.628757 0.848315
O O2 0.145162 0.704936 0.799474
O O3 0.930687 0.652040 0.780111
O O4 0.000000 0.673827 0.000000
O O5 0.815266 0.888349 0.312805
O O6 0.013775 0.837490 0.337167
O O7 0.000000 0.895401 0.500000
O O8 0.089328 0.912049 0.282492
O O9 0.742569 0.648520 0.604359
O O10 0.886424 0.580295 0.684293
O O11 0.786534 0.866699 0.874133
O O12 0.772671 0.791047 0.921252
O O13 0.000000 0.831767 0.000000
O O14 0.000000 0.500000 0.695201
O O15 0.000000 0.454175 0.500000
O O16 0.847400 0.432907 0.694867
O O17 0.166692 0.224607 0.312416
O O18 0.000000 0.220670 0.500000
O O19 0.895120 0.235306 0.277595
#
# Coordination Sequence:
#
# PCOD9330111 Si02
#       8
#     8   8   8   8   8   8   8   8
#     4  10  22  38  60  85 116 161 211 248 299 362
#     4  11  22  41  64  86 115 161 216 260 300 367
#     4  11  22  35  70  91 119 165 206 247 303 374
#     4  11  20  38  62  93 122 156 210 254 309 360
#     4  10  21  38  62  98 136 159 188 245 312 376
#     4  11  26  42  58  85 123 163 207 262 329 365
#     4  10  19  38  62  88 123 155 201 254 293 369
#     4  11  26  41  58  87 120 162 205 270 315 369
#
# _framework density 19.442374999999998
#
# number of rings (size 3 to 8) (size 9 to 14) (size 15 to 20)
#    0.000    1.375    5.000    0.750    5.250    1.000 
#    0.000    0.625    0.000   16.500    0.000    0.000 
#    0.000    0.000    0.000    0.000    0.000    0.000 
#
# Total GULP energy -178748.189500 kJ/mol
# GULP energy per Si atom -5585.880922 kJ/mol
# Density = 1.939812 g / cm^3
# Si number density = 19.442375 Si / 1000 Ang^3
#
#
#
# Elastic Constant Matrix: (Units=GPa)
#
#
# Indices 1 2 3 4 5 6 
#
# 1 118.6794 28.0666 24.5340 -0.0007 0.0001 0.0004
# 2 28.0666 46.2099 19.6530 0.0004 0.0000 0.0000
# 3 24.5340 19.6530 73.3612 -0.0017 0.0013 0.0017
# 4 -0.0007 0.0004 -0.0017 23.6953 -0.0005 -0.0020
# 5 0.0001 0.0000 0.0013 -0.0005 33.8054 0.0006
# 6 0.0004 0.0000 0.0017 -0.0020 0.0006 -53.8836
#
#
#
# Elastic Compliance Matrix: (Units=1/GPa)
#
#
# Indices 1 2 3 4 5 6 
#
# 1 0.010082 -0.005292 -0.001954 0.000000 0.000000 0.000000
# 2 -0.005292 0.027201 -0.005517 -0.000001 0.000000 0.000000
# 3 -0.001954 -0.005517 0.015763 0.000001 -0.000001 0.000000
# 4 0.000000 -0.000001 0.000001 0.042202 0.000001 -0.000002
# 5 0.000000 0.000000 -0.000001 0.000001 0.029581 0.000000
# 6 0.000000 0.000000 0.000000 -0.000002 0.000000 -0.018559
#
#
# Mechanical properties :
#
#
# Convention : Reuss Voigt Hill
#
# Bulk Modulus (GPa) = 36.33864 42.52862 39.43363
# Shear Modulus (GPa) = 35.46861 11.78988 23.62925
#
# Velocity S-wave (km/s) = 4.27581 2.46519 3.48997
# Velocity P-wave (km/s) = 6.56565 5.47947 6.04700
#
# Compressibility (1/GPa) = 0.02751892
#
# Stress axis : x y z
#
# Youngs Moduli (GPa) = 99.19116 36.76304 63.44140
#
# Poissons Ratio (x) = 0.19456 0.12395
# Poissons Ratio (y) = 0.52495 0.35001
# Poissons Ratio (z) = 0.19380 0.20283
#
# Static dielectric constant tensor:
#      x y z
#    x 1.675540 0.000000 0.000000 
#    y 0.000000 1.658780 0.000000 
#    z 0.000000 0.000000 1.697890 
# 
# From -- ./inp_files/15009.got.cif
#   From: 2010.05.17/outbox.cif.g08.bks.cpg/sg23_8_cif.got.tgz:15009.got - 2010.06.04 12:02:01.
