data_PCOD9330413
_publ_section_title
;
Structure prediction by ZEFSAII (Michael W. Deem and Ramdas Pophale) SiO2 
 PCOD9330413
Probable space group: I 2 2 2
;
_chemical_formula_sum "Si O2"
_cell_formula_units_Z 24
_cell_length_a 25.558140
_cell_length_b 7.639534
_cell_length_c 4.745621
_cell_angle_alpha 90.000000
_cell_angle_beta 90.000000
_cell_angle_gamma 90.000000
_cell_volume 926.593318
_symmetry_space_group_name_H-M "I 2 2 2"
_symmetry_group_IT_number 23
_symmetry_cell_setting 'orthorhombic'
loop_
_space_group_symop_operation_xyz
x,y,z
-x,-y,z
x,-y,-z
-x,y,-z
1/2+x,1/2+y,1/2+z
1/2-x,1/2-y,1/2+z
1/2+x,1/2-y,1/2-z
1/2-x,1/2+y,1/2-z
loop_
_atom_site_type_symbol
_atom_site_label
_atom_site_fract_x
_atom_site_fract_y
_atom_site_fract_z
Si Si1 0.224403 0.173831 0.683905
Si Si2 0.373240 0.791415 0.460953
Si Si3 0.941891 0.710780 0.544396
O O1 0.230542 0.311190 0.424433
O O2 0.174055 0.197365 0.880720
O O3 0.227137 0.000000 0.500000
O O4 0.392602 0.736157 0.152453
O O5 0.362531 0.000000 0.500000
O O6 0.425294 0.755233 0.639395
O O7 0.944216 0.500000 0.500000
O O8 0.000000 0.781073 0.500000
#
# Coordination Sequence:
#
# PCOD9330413 Si02
#       3
#     8   8   8
#     4  12  26  44  66  94 132 178 229 282 340 404
#     4  10  20  36  60  92 131 171 216 270 330 393
#     4   9  17  31  56  92 132 168 207 263 326 389
#
# _framework density 25.901330999999999
#
# number of rings (size 3 to 8) (size 9 to 14) (size 15 to 20)
#    0.000    1.667    0.000    5.000    0.000    9.333 
#    0.000    0.000    0.000    1.000    0.000    4.667 
#    0.000   16.000    0.000    0.000    0.000    0.000 
#
# Total GULP energy -67087.455239 kJ/mol
# GULP energy per Si atom -5590.621270 kJ/mol
# Density = 2.584238 g / cm^3
# Si number density = 25.901331 Si / 1000 Ang^3
#
#
#
# Elastic Constant Matrix: (Units=GPa)
#
#
# Indices 1 2 3 4 5 6 
#
# 1 127.5945 24.5263 23.7583 0.0001 0.0000 0.0000
# 2 24.5263 94.7637 35.8464 0.0003 -0.0001 0.0000
# 3 23.7583 35.8464 125.6629 0.0008 -0.0001 0.0000
# 4 0.0001 0.0003 0.0008 38.6649 -0.0001 0.0000
# 5 0.0000 -0.0001 -0.0001 -0.0001 37.2966 0.0000
# 6 0.0000 0.0000 0.0000 0.0000 0.0000 0.0752
#
#
#
# Elastic Compliance Matrix: (Units=1/GPa)
#
#
# Indices 1 2 3 4 5 6 
#
# 1 0.008377 -0.001759 -0.001082 0.000000 0.000000 -0.000001
# 2 -0.001759 0.012198 -0.003147 0.000000 0.000000 0.000003
# 3 -0.001082 -0.003147 0.009060 0.000000 0.000000 -0.000005
# 4 0.000000 0.000000 0.000000 0.025863 0.000000 -0.000001
# 5 0.000000 0.000000 0.000000 0.000000 0.026812 0.000014
# 6 -0.000001 0.000003 -0.000005 -0.000001 0.000014 13.289878
#
#
# Mechanical properties :
#
#
# Convention : Reuss Voigt Hill
#
# Bulk Modulus (GPa) = 56.62726 57.36478 56.99602
# Shear Modulus (GPa) = 0.37341 32.80002 16.58672
#
# Velocity S-wave (km/s) = 0.38011 3.56243 2.53332
# Velocity P-wave (km/s) = 4.70136 6.25434 5.53261
#
# Compressibility (1/GPa) = 0.01765934
#
# Stress axis : x y z
#
# Youngs Moduli (GPa) = 119.37615 81.97911 110.37377
#
# Poissons Ratio (x) = 0.14418 0.11943
# Poissons Ratio (y) = 0.20995 0.34736
# Poissons Ratio (z) = 0.12917 0.25800
#
# Static dielectric constant tensor:
#      x y z
#    x 2.056810 0.000000 0.000000 
#    y 0.000000 2.110860 0.000000 
#    z 0.000000 0.000000 1.946100 
# 
# From -- ./inp_files/4161.got.cif
#   From: 2010.05.17/outbox.cif.g08.bks.cpg/sg23_3_cif.got.tgz:4161.got - 2010.06.04 12:02:01.
