data_PCOD9330418
_publ_section_title
;
Structure prediction by ZEFSAII (Michael W. Deem and Ramdas Pophale) SiO2 
 PCOD9330418
Probable space group: I 2 2 2
;
_chemical_formula_sum "Si O2"
_cell_formula_units_Z 64
_cell_length_a 13.842549
_cell_length_b 12.609470
_cell_length_c 17.955844
_cell_angle_alpha 90.000000
_cell_angle_beta 90.000000
_cell_angle_gamma 90.000000
_cell_volume 3134.142408
_symmetry_space_group_name_H-M "I 2 2 2"
_symmetry_group_IT_number 23
_symmetry_cell_setting 'orthorhombic'
loop_
_space_group_symop_operation_xyz
x,y,z
-x,-y,z
x,-y,-z
-x,y,-z
1/2+x,1/2+y,1/2+z
1/2-x,1/2-y,1/2+z
1/2+x,1/2-y,1/2-z
1/2-x,1/2+y,1/2-z
loop_
_atom_site_type_symbol
_atom_site_label
_atom_site_fract_x
_atom_site_fract_y
_atom_site_fract_z
Si Si1 0.310453 0.735032 0.619015
Si Si2 0.019165 0.875980 0.872015
Si Si3 0.238981 0.153949 0.640630
Si Si4 0.893751 0.299123 0.970965
Si Si5 0.473878 0.376772 0.080904
Si Si6 0.537566 0.736996 0.776217
Si Si7 0.306413 0.916869 0.209487
Si Si8 0.326629 0.159015 0.229411
O O1 0.417234 0.685173 0.625117
O O2 0.317679 0.788267 0.538545
O O3 0.241429 0.635662 0.636830
O O4 0.289924 0.817876 0.686294
O O5 0.082635 0.816134 0.934417
O O6 0.056680 0.847718 0.789209
O O7 0.000000 0.000000 0.883156
O O8 0.336418 0.136193 0.593005
O O9 0.140275 0.134146 0.596764
O O10 0.235965 0.090679 0.718693
O O11 0.235141 0.275311 0.669680
O O12 0.000000 0.338970 0.000000
O O13 0.500000 0.500000 0.083173
O O14 0.536247 0.318725 0.144064
O O15 0.500000 0.333158 0.000000
O O16 0.607805 0.836766 0.770400
O O17 0.430772 0.785694 0.769750
O O18 0.334615 0.038279 0.205387
#
# Coordination Sequence:
#
# PCOD9330418 Si02
#       8
#     8   8   8   8   8   8   8   8
#     4   9  22  35  56  88 120 157 203 253 308 373
#     4  10  20  36  61  89 123 162 202 250 311 384
#     4  10  22  41  63  91 126 163 208 275 316 385
#     4  10  21  40  60  91 135 161 197 256 334 385
#     4  10  23  42  65  93 125 165 218 274 326 372
#     4  10  20  38  63  87 122 168 210 266 314 375
#     4  11  21  37  64  89 117 167 218 258 322 378
#     4   9  21  40  57  86 121 162 215 260 309 381
#
# _framework density 20.420258
#
# number of rings (size 3 to 8) (size 9 to 14) (size 15 to 20)
#    0.000    2.125    1.250    1.500    3.500    4.250 
#    2.250    0.000    0.000    1.500    0.000    0.000 
#    0.000    0.000    0.000    0.000    0.000    0.000 
#
# Total GULP energy -178444.152834 kJ/mol
# GULP energy per Si atom -5576.379776 kJ/mol
# Density = 2.037378 g / cm^3
# Si number density = 20.420258 Si / 1000 Ang^3
#
#
#
# Elastic Constant Matrix: (Units=GPa)
#
#
# Indices 1 2 3 4 5 6 
#
# 1 64.3592 -8.9710 17.1322 0.0000 0.0000 0.0000
# 2 -8.9710 44.7049 -3.8591 0.0000 0.0000 0.0000
# 3 17.1322 -3.8591 84.8216 0.0000 0.0000 0.0000
# 4 0.0000 0.0000 0.0000 10.6120 0.0000 0.0000
# 5 0.0000 0.0000 0.0000 0.0000 33.1812 0.0000
# 6 0.0000 0.0000 0.0000 0.0000 0.0000 9.6394
#
#
#
# Elastic Compliance Matrix: (Units=1/GPa)
#
#
# Indices 1 2 3 4 5 6 
#
# 1 0.016837 0.003097 -0.003260 0.000000 0.000000 0.000000
# 2 0.003097 0.023027 0.000422 0.000000 0.000000 0.000000
# 3 -0.003260 0.000422 0.012467 0.000000 0.000000 0.000000
# 4 0.000000 0.000000 0.000000 0.094233 0.000000 0.000000
# 5 0.000000 0.000000 0.000000 0.000000 0.030138 0.000000
# 6 0.000000 0.000000 0.000000 0.000000 0.000000 0.103741
#
#
# Mechanical properties :
#
#
# Convention : Reuss Voigt Hill
#
# Bulk Modulus (GPa) = 18.92133 22.49886 20.71010
# Shear Modulus (GPa) = 16.80444 23.32543 20.06493
#
# Velocity S-wave (km/s) = 2.87179 3.38341 3.13804
# Velocity P-wave (km/s) = 4.50359 5.12885 4.82636
#
# Compressibility (1/GPa) = 0.05285040
#
# Stress axis : x y z
#
# Youngs Moduli (GPa) = 59.39194 43.42746 80.21129
#
# Poissons Ratio (x) = -0.13451 0.26148
# Poissons Ratio (y) = -0.18396 -0.03385
# Poissons Ratio (z) = 0.19361 -0.01833
#
# Static dielectric constant tensor:
#      x y z
#    x 1.776820 0.000000 0.000000 
#    y 0.000000 1.697180 0.000000 
#    z 0.000000 0.000000 1.802430 
# 
# From -- ./inp_files/24855.got.cif
#   From: 2010.05.17/outbox.cif.g08.bks.cpg/sg23_13_cif.got.tgz:24855.got - 2010.06.04 12:02:01.
