data_PCOD9330697
_publ_section_title
;
Structure prediction by ZEFSAII (Michael W. Deem and Ramdas Pophale) SiO2 
 PCOD9330697
Probable space group: I 2 2 2
;
_chemical_formula_sum "Si O2"
_cell_formula_units_Z 18
_cell_length_a 9.168690
_cell_length_b 10.515674
_cell_length_c 8.823083
_cell_angle_alpha 90.000000
_cell_angle_beta 90.000000
_cell_angle_gamma 90.000000
_cell_volume 850.677151
_symmetry_space_group_name_H-M "I 2 2 2"
_symmetry_group_IT_number 23
_symmetry_cell_setting 'orthorhombic'
loop_
_space_group_symop_operation_xyz
x,y,z
-x,-y,z
x,-y,-z
-x,y,-z
1/2+x,1/2+y,1/2+z
1/2-x,1/2-y,1/2+z
1/2+x,1/2-y,1/2-z
1/2-x,1/2+y,1/2-z
loop_
_atom_site_type_symbol
_atom_site_label
_atom_site_fract_x
_atom_site_fract_y
_atom_site_fract_z
Si Si1 0.500000 0.000000 0.000000
Si Si2 0.278653 0.621682 0.591286
Si Si3 0.835798 0.137089 0.437772
O O1 0.607662 0.081304 0.103980
O O2 0.339852 0.500000 0.500000
O O3 0.270110 0.750831 0.495522
O O4 0.342989 0.637442 0.756391
O O5 0.000000 0.154999 0.500000
O O6 0.786076 0.000000 0.500000
#
# Coordination Sequence:
#
# PCOD9330697 Si02
#       3
#     2   8   8
#     4   8  20  40  64  78 120 164 204 238 296 376
#     4  10  20  41  63  87 124 161 202 248 304 368
#     4  11  22  38  62  91 126 156 204 253 303 356
#
# _framework density 21.159614999999999
#
# number of rings (size 3 to 8) (size 9 to 14) (size 15 to 20)
#    1.333    0.444    2.222    2.667    0.000    0.000 
#    0.000   21.111    0.000    0.000    0.000    0.000 
#    0.000    0.000    0.000    0.000    0.000    0.000 
#
# Total GULP energy -50178.616653 kJ/mol
# GULP energy per Si atom -5575.401850 kJ/mol
# Density = 2.111145 g / cm^3
# Si number density = 21.159615 Si / 1000 Ang^3
#
#
#
# Elastic Constant Matrix: (Units=GPa)
#
#
# Indices 1 2 3 4 5 6 
#
# 1 64.5363 11.5633 36.7324 0.0000 0.0000 0.0000
# 2 11.5633 204.0362 87.7742 0.0000 0.0000 0.0000
# 3 36.7324 87.7742 215.7083 0.0000 0.0000 0.0000
# 4 0.0000 0.0000 0.0000 37.5492 0.0000 0.0000
# 5 0.0000 0.0000 0.0000 0.0000 38.9675 0.0000
# 6 0.0000 0.0000 0.0000 0.0000 0.0000 52.6973
#
#
#
# Elastic Compliance Matrix: (Units=1/GPa)
#
#
# Indices 1 2 3 4 5 6 
#
# 1 0.017178 0.000345 -0.003066 0.000000 0.000000 0.000000
# 2 0.000345 0.005948 -0.002479 0.000000 0.000000 0.000000
# 3 -0.003066 -0.002479 0.006167 0.000000 0.000000 0.000000
# 4 0.000000 0.000000 0.000000 0.026632 0.000000 0.000000
# 5 0.000000 0.000000 0.000000 0.000000 0.025662 0.000000
# 6 0.000000 0.000000 0.000000 0.000000 0.000000 0.018976
#
#
# Mechanical properties :
#
#
# Convention : Reuss Voigt Hill
#
# Bulk Modulus (GPa) = 52.92721 84.04670 68.48695
# Shear Modulus (GPa) = 42.64012 49.05686 45.84849
#
# Velocity S-wave (km/s) = 4.49393 4.82022 4.65993
# Velocity P-wave (km/s) = 7.21074 8.41344 7.83520
#
# Compressibility (1/GPa) = 0.01889387
#
# Stress axis : x y z
#
# Youngs Moduli (GPa) = 58.21322 168.12341 162.16053
#
# Poissons Ratio (x) = -0.05806 0.49714
# Poissons Ratio (y) = -0.02010 0.40201
# Poissons Ratio (z) = 0.17847 0.41680
#
# Static dielectric constant tensor:
#      x y z
#    x 1.792020 0.000000 0.000000 
#    y 0.000000 1.823910 0.000000 
#    z 0.000000 0.000000 0.139900 
# 
# From -- ./inp_files/950.got.cif
#   From: 2010.05.17/outbox.cif.g08.bks.cpg/sg23_1_cif.got.tgz:950.got - 2010.06.04 12:02:01.
