data_PCOD9330732
_publ_section_title
;
Structure prediction by ZEFSAII (Michael W. Deem and Ramdas Pophale) SiO2 
 PCOD9330732
Probable space group: I 2 2 2
;
_chemical_formula_sum "Si O2"
_cell_formula_units_Z 64
_cell_length_a 17.237117
_cell_length_b 12.090440
_cell_length_c 13.142843
_cell_angle_alpha 90.000000
_cell_angle_beta 90.000000
_cell_angle_gamma 90.000000
_cell_volume 2739.025375
_symmetry_space_group_name_H-M "I 2 2 2"
_symmetry_group_IT_number 23
_symmetry_cell_setting 'orthorhombic'
loop_
_space_group_symop_operation_xyz
x,y,z
-x,-y,z
x,-y,-z
-x,y,-z
1/2+x,1/2+y,1/2+z
1/2-x,1/2-y,1/2+z
1/2+x,1/2-y,1/2-z
1/2-x,1/2+y,1/2-z
loop_
_atom_site_type_symbol
_atom_site_label
_atom_site_fract_x
_atom_site_fract_y
_atom_site_fract_z
Si Si1 0.278034 0.087171 0.409217
Si Si2 0.752422 0.404845 0.759079
Si Si3 0.456340 0.155453 0.097230
Si Si4 0.585511 0.808590 0.751106
Si Si5 0.061387 0.639467 0.186379
Si Si6 0.608816 0.371403 0.622238
Si Si7 0.285763 0.763887 0.943798
Si Si8 0.865578 0.879425 0.102894
O O1 0.368592 0.105434 0.384575
O O2 0.238261 0.197007 0.454000
O O3 0.271400 0.000000 0.500000
O O4 0.243830 0.027084 0.308775
O O5 0.839358 0.379753 0.725157
O O6 0.694892 0.377932 0.668650
O O7 0.732131 0.319691 0.850313
O O8 0.529327 0.216355 0.153774
O O9 0.426954 0.092813 0.198910
O O10 0.376879 0.210894 0.059375
O O11 0.500000 0.108241 0.000000
O O12 0.530235 0.876240 0.670826
O O13 0.614549 0.700435 0.694365
O O14 0.068092 0.775191 0.186151
O O15 0.594147 0.502888 0.623211
O O16 0.600839 0.337526 0.504841
O O17 0.227314 0.867480 0.921966
#
# Coordination Sequence:
#
# PCOD9330732 Si02
#       8
#     8   8   8   8   8   8   8   8
#     4  10  22  40  69  97 127 172 226 279 328 396
#     4  10  21  39  62  99 125 170 224 274 323 394
#     4  10  23  41  68  96 132 182 217 265 340 403
#     4   9  23  42  63  91 138 169 217 269 336 396
#     4  10  22  43  61  95 133 173 211 279 330 396
#     4  11  22  38  65  94 128 168 221 273 323 398
#     4  10  20  42  66  93 128 172 224 273 323 387
#     4  10  23  39  64  96 123 175 221 269 331 391
#
# _framework density 23.365974999999999
#
# number of rings (size 3 to 8) (size 9 to 14) (size 15 to 20)
#    0.750    1.250    2.500    0.000    3.500    2.500 
#    0.000    4.375    5.500    0.750    0.000    0.000 
#    0.000    0.000    0.000    0.000    0.000    0.000 
#
# Total GULP energy -178197.657280 kJ/mol
# GULP energy per Si atom -5568.676790 kJ/mol
# Density = 2.331279 g / cm^3
# Si number density = 23.365975 Si / 1000 Ang^3
#
#
#
# Elastic Constant Matrix: (Units=GPa)
#
#
# Indices 1 2 3 4 5 6 
#
# 1 148.3174 15.3697 32.1388 0.0000 0.0000 0.0000
# 2 15.3697 63.2616 38.3239 0.0000 0.0000 0.0000
# 3 32.1388 38.3239 87.6122 0.0000 0.0000 0.0000
# 4 0.0000 0.0000 0.0000 3.6916 0.0000 0.0000
# 5 0.0000 0.0000 0.0000 0.0000 45.6083 0.0000
# 6 0.0000 0.0000 0.0000 0.0000 0.0000 10.9845
#
#
#
# Elastic Compliance Matrix: (Units=1/GPa)
#
#
# Indices 1 2 3 4 5 6 
#
# 1 0.007326 -0.000207 -0.002597 0.000000 0.000000 0.000000
# 2 -0.000207 0.021512 -0.009334 0.000000 0.000000 0.000000
# 3 -0.002597 -0.009334 0.016450 0.000000 0.000000 0.000000
# 4 0.000000 0.000000 0.000000 0.270885 0.000000 0.000000
# 5 0.000000 0.000000 0.000000 0.000000 0.021926 0.000000
# 6 0.000000 0.000000 0.000000 0.000000 0.000000 0.091037
#
#
# Mechanical properties :
#
#
# Convention : Reuss Voigt Hill
#
# Bulk Modulus (GPa) = 47.59108 52.31735 49.95421
# Shear Modulus (GPa) = 10.85973 26.28081 18.57027
#
# Velocity S-wave (km/s) = 2.15818 3.35736 2.82220
# Velocity P-wave (km/s) = 5.15967 6.12113 5.66085
#
# Compressibility (1/GPa) = 0.02101234
#
# Stress axis : x y z
#
# Youngs Moduli (GPa) = 136.49091 46.48515 60.79136
#
# Poissons Ratio (x) = 0.00961 0.15789
# Poissons Ratio (y) = 0.02820 0.56744
# Poissons Ratio (z) = 0.35449 0.43390
#
# Static dielectric constant tensor:
#      x y z
#    x 1.903310 0.000000 0.000000 
#    y 0.000000 1.965970 0.000000 
#    z 0.000000 0.000000 1.904180 
# 
# From -- ./inp_files/22213.got.cif
#   From: 2010.05.17/outbox.cif.g08.bks.cpg/sg23_12_cif.got.tgz:22213.got - 2010.06.04 12:02:01.
