data_PCOD9330731
_publ_section_title
;
Structure prediction by ZEFSAII (Michael W. Deem and Ramdas Pophale) SiO2 
 PCOD9330731
Probable space group: I 2 2 2
;
_chemical_formula_sum "Si O2"
_cell_formula_units_Z 48
_cell_length_a 13.756280
_cell_length_b 6.377181
_cell_length_c 26.082287
_cell_angle_alpha 90.000000
_cell_angle_beta 90.000000
_cell_angle_gamma 90.000000
_cell_volume 2288.102207
_symmetry_space_group_name_H-M "I 2 2 2"
_symmetry_group_IT_number 23
_symmetry_cell_setting 'orthorhombic'
loop_
_space_group_symop_operation_xyz
x,y,z
-x,-y,z
x,-y,-z
-x,y,-z
1/2+x,1/2+y,1/2+z
1/2-x,1/2-y,1/2+z
1/2+x,1/2-y,1/2-z
1/2-x,1/2+y,1/2-z
loop_
_atom_site_type_symbol
_atom_site_label
_atom_site_fract_x
_atom_site_fract_y
_atom_site_fract_z
Si Si1 0.893032 0.511441 0.279081
Si Si2 0.259719 0.077369 0.401918
Si Si3 0.889656 0.033972 0.131067
Si Si4 0.779662 0.837566 0.047713
Si Si5 0.893209 0.423439 0.600658
Si Si6 0.737544 0.775053 0.695450
O O1 0.898243 0.590750 0.337586
O O2 0.843015 0.286147 0.284242
O O3 0.826006 0.644132 0.242089
O O4 0.000000 0.500000 0.256882
O O5 0.345636 0.243003 0.387505
O O6 0.161171 0.207296 0.414442
O O7 0.278485 0.914142 0.447996
O O8 0.252379 0.941942 0.349961
O O9 0.875097 0.895646 0.080079
O O10 0.816308 0.930503 0.172291
O O11 0.000000 0.000000 0.148498
O O12 0.683824 0.905912 0.080284
O O13 0.777579 0.000000 0.000000
O O14 0.000000 0.500000 0.582955
#
# Coordination Sequence:
#
# PCOD9330731 Si02
#       6
#     8   8   8   8   8   8
#     4  11  23  39  61  93 132 177 233 292 335 415
#     4  10  20  42  66  91 133 177 213 290 340 407
#     4  10  23  40  64  95 129 171 222 279 338 414
#     4  10  22  41  66  97 130 173 221 280 347 417
#     4  10  21  41  59  93 131 171 228 280 339 410
#     4  11  23  40  61  91 130 177 231 279 348 412
#
# _framework density 20.978083999999999
#
# number of rings (size 3 to 8) (size 9 to 14) (size 15 to 20)
#    0.000    1.667    5.000    1.000    2.333    6.000 
#    0.000    1.667    0.000   12.000    0.000    0.000 
#    0.000    0.000    0.000    0.000    0.000    0.000 
#
# Total GULP energy -133671.506261 kJ/mol
# GULP energy per Si atom -5569.646094 kJ/mol
# Density = 2.093034 g / cm^3
# Si number density = 20.978084 Si / 1000 Ang^3
#
#
#
# Elastic Constant Matrix: (Units=GPa)
#
#
# Indices 1 2 3 4 5 6 
#
# 1 112.8011 33.3401 -1.5686 0.0000 0.0000 0.0000
# 2 33.3401 130.4556 25.4110 0.0000 0.0000 0.0000
# 3 -1.5686 25.4110 58.3592 0.0000 0.0000 0.0000
# 4 0.0000 0.0000 0.0000 48.2408 0.0000 0.0000
# 5 0.0000 0.0000 0.0000 0.0000 16.1742 0.0000
# 6 0.0000 0.0000 0.0000 0.0000 0.0000 13.0403
#
#
#
# Elastic Compliance Matrix: (Units=1/GPa)
#
#
# Indices 1 2 3 4 5 6 
#
# 1 0.009703 -0.002765 0.001465 0.000000 0.000000 0.000000
# 2 -0.002765 0.009164 -0.004064 0.000000 0.000000 0.000000
# 3 0.001465 -0.004064 0.018944 0.000000 0.000000 0.000000
# 4 0.000000 0.000000 0.000000 0.020729 0.000000 0.000000
# 5 0.000000 0.000000 0.000000 0.000000 0.061827 0.000000
# 6 0.000000 0.000000 0.000000 0.000000 0.000000 0.076685
#
#
# Mechanical properties :
#
#
# Convention : Reuss Voigt Hill
#
# Bulk Modulus (GPa) = 36.92557 46.22011 41.57284
# Shear Modulus (GPa) = 23.06177 31.78663 27.42420
#
# Velocity S-wave (km/s) = 3.31921 3.89682 3.61955
# Velocity P-wave (km/s) = 5.68592 6.50595 6.10971
#
# Compressibility (1/GPa) = 0.02708151
#
# Stress axis : x y z
#
# Youngs Moduli (GPa) = 103.06329 109.12509 52.78608
#
# Poissons Ratio (x) = 0.30173 -0.07732
# Poissons Ratio (y) = 0.28497 0.21455
# Poissons Ratio (z) = -0.15096 0.44353
#
# Static dielectric constant tensor:
#      x y z
#    x 1.766110 0.000000 0.000000 
#    y 0.000000 1.800630 0.000000 
#    z 0.000000 0.000000 1.799150 
# 
# From -- ./inp_files/19239.got.cif
#   From: 2010.05.17/outbox.cif.g08.bks.cpg/sg23_10_cif.got.tgz:19239.got - 2010.06.04 12:02:01.
