data_PCOD9330320
_publ_section_title
;
Structure prediction by ZEFSAII (Michael W. Deem and Ramdas Pophale) SiO2 
 PCOD9330320
Probable space group: I 2 2 2
;
_chemical_formula_sum "Si O2"
_cell_formula_units_Z 48
_cell_length_a 8.678640
_cell_length_b 9.201877
_cell_length_c 32.344620
_cell_angle_alpha 90.000000
_cell_angle_beta 90.000000
_cell_angle_gamma 90.000000
_cell_volume 2583.034166
_symmetry_space_group_name_H-M "I 2 2 2"
_symmetry_group_IT_number 23
_symmetry_cell_setting 'orthorhombic'
loop_
_space_group_symop_operation_xyz
x,y,z
-x,-y,z
x,-y,-z
-x,y,-z
1/2+x,1/2+y,1/2+z
1/2-x,1/2-y,1/2+z
1/2+x,1/2-y,1/2-z
1/2-x,1/2+y,1/2-z
loop_
_atom_site_type_symbol
_atom_site_label
_atom_site_fract_x
_atom_site_fract_y
_atom_site_fract_z
Si Si1 0.065649 0.337806 0.289020
Si Si2 0.935425 0.335715 0.866573
Si Si3 0.066273 0.664125 0.958305
Si Si4 0.935425 0.164285 0.366573
Si Si5 0.565649 0.662194 0.289020
Si Si6 0.566273 0.664125 0.041695
O O1 0.250000 0.339822 0.287335
O O2 0.000000 0.500000 0.287724
O O3 0.009049 0.259535 0.330703
O O4 0.000000 0.250000 0.250000
O O5 0.972119 0.276163 0.912769
O O6 0.750000 0.339843 0.862255
O O7 0.000000 0.500000 0.863590
O O8 0.009049 0.240465 0.830703
O O9 0.250000 0.656909 0.961950
O O10 0.000000 0.500000 0.957445
O O11 0.000000 0.735225 0.000000
O O12 0.972119 0.223837 0.412769
O O13 0.000000 0.000000 0.363590
O O14 0.500000 0.500000 0.287724
O O15 0.500000 0.500000 0.042555
O O16 0.500000 0.735225 0.000000
#
# Coordination Sequence:
#
# PCOD9330320 Si02
#       6
#     8   8   8   8   8   8
#     4  12  25  42  62  84 111 144 181 225 274 329
#     4  10  20  35  55  83 115 149 187 229 275 325
#     4   9  16  26  45  73 108 144 182 225 269 316
#     4  10  20  35  55  83 115 149 187 229 275 325
#     4  12  25  42  62  84 111 144 181 225 274 329
#     4   9  16  26  45  73 108 144 182 225 269 316
#
# _framework density 18.582795999999998
#
# number of rings (size 3 to 8) (size 9 to 14) (size 15 to 20)
#    0.000    1.667    0.000    7.000    0.000    4.000 
#    0.000    0.000    0.000    1.000    0.000    7.000 
#    0.000    0.000    0.000    0.000    0.000    0.000 
#
# Total GULP energy -133978.301779 kJ/mol
# GULP energy per Si atom -5582.429241 kJ/mol
# Density = 1.854050 g / cm^3
# Si number density = 18.582796 Si / 1000 Ang^3
#
#
#
# Elastic Constant Matrix: (Units=GPa)
#
#
# Indices 1 2 3 4 5 6 
#
# 1 145.3231 47.8240 99.6045 0.0000 0.0000 0.0000
# 2 47.8240 88.4654 83.3763 0.0000 0.0000 0.0000
# 3 99.6045 83.3763 232.5820 0.0000 0.0000 0.0000
# 4 0.0000 0.0000 0.0000 23.5308 0.0000 0.0000
# 5 0.0000 0.0000 0.0000 0.0000 17.3721 0.0000
# 6 0.0000 0.0000 0.0000 0.0000 0.0000 26.7034
#
#
#
# Elastic Compliance Matrix: (Units=1/GPa)
#
#
# Indices 1 2 3 4 5 6 
#
# 1 0.009984 -0.002065 -0.003535 0.000000 0.000000 0.000000
# 2 -0.002065 0.017499 -0.005389 0.000000 0.000000 0.000000
# 3 -0.003535 -0.005389 0.007745 0.000000 0.000000 0.000000
# 4 0.000000 0.000000 0.000000 0.042497 0.000000 0.000000
# 5 0.000000 0.000000 0.000000 0.000000 0.057563 0.000000
# 6 0.000000 0.000000 0.000000 0.000000 0.000000 0.037448
#
#
# Mechanical properties :
#
#
# Convention : Reuss Voigt Hill
#
# Bulk Modulus (GPa) = 75.47303 103.10891 89.29097
# Shear Modulus (GPa) = 25.10890 29.22565 27.16727
#
# Velocity S-wave (km/s) = 3.67984 3.97006 3.82770
# Velocity P-wave (km/s) = 7.66535 8.75339 8.22738
#
# Compressibility (1/GPa) = 0.01324977
#
# Stress axis : x y z
#
# Youngs Moduli (GPa) = 100.16017 57.14636 129.11134
#
# Poissons Ratio (x) = 0.11803 0.45645
# Poissons Ratio (y) = 0.20687 0.69572
# Poissons Ratio (z) = 0.35410 0.30793
#
# Static dielectric constant tensor:
#      x y z
#    x 1.618600 0.000000 0.000000 
#    y 0.000000 1.603770 0.000000 
#    z 0.000000 0.000000 1.691830 
# 
# From -- ./inp_files/30246.got.cif
#   From: 2010.05.17/outbox.cif.g08.bks.cpg/sg23_16_cif.got.tgz:30246.got - 2010.06.04 12:02:01.
