data_PCOD9330879
_publ_section_title
;
Structure prediction by ZEFSAII (Michael W. Deem and Ramdas Pophale) SiO2 
 PCOD9330879
Probable space group: I 2 2 2
;
_chemical_formula_sum "Si O2"
_cell_formula_units_Z 48
_cell_length_a 8.683407
_cell_length_b 11.196644
_cell_length_c 23.337692
_cell_angle_alpha 90.000000
_cell_angle_beta 90.000000
_cell_angle_gamma 90.000000
_cell_volume 2269.007499
_symmetry_space_group_name_H-M "I 2 2 2"
_symmetry_group_IT_number 23
_symmetry_cell_setting 'orthorhombic'
loop_
_space_group_symop_operation_xyz
x,y,z
-x,-y,z
x,-y,-z
-x,y,-z
1/2+x,1/2+y,1/2+z
1/2-x,1/2-y,1/2+z
1/2+x,1/2-y,1/2-z
1/2-x,1/2+y,1/2-z
loop_
_atom_site_type_symbol
_atom_site_label
_atom_site_fract_x
_atom_site_fract_y
_atom_site_fract_z
Si Si1 0.926142 0.797954 0.083926
Si Si2 0.787743 0.203316 0.727544
Si Si3 0.253205 0.638220 0.521501
Si Si4 0.037057 0.360879 0.186600
Si Si5 0.928739 0.321670 0.631452
Si Si6 0.254057 0.947983 0.831362
O O1 0.934286 0.678469 0.121506
O O2 0.877782 0.901699 0.127353
O O3 0.088290 0.836564 0.056387
O O4 0.791764 0.790284 0.036390
O O5 0.833477 0.309039 0.771340
O O6 0.613576 0.210713 0.706698
O O7 0.891813 0.207150 0.670482
O O8 0.792616 0.085655 0.767222
O O9 0.237502 0.500000 0.500000
O O10 0.114574 0.676224 0.564041
O O11 0.000000 0.500000 0.192959
O O12 0.808306 0.419228 0.656756
O O13 0.095789 0.370132 0.648912
#
# Coordination Sequence:
#
# PCOD9330879 Si02
#       6
#     8   8   8   8   8   8
#     4  10  21  37  58  83 123 160 203 260 310 372
#     4  11  21  38  61  88 127 163 206 259 315 385
#     4  11  21  36  59  92 126 159 214 270 315 370
#     4  11  23  42  64  91 129 167 214 263 321 388
#     4  11  21  37  59  85 126 161 205 256 319 379
#     4  10  22  36  55  89 121 162 201 248 326 380
#
# _framework density 21.154623000000001
#
# number of rings (size 3 to 8) (size 9 to 14) (size 15 to 20)
#    0.000    1.333    5.000    2.000    0.000    0.667 
#    0.000    4.167    0.000    0.000    0.000    0.000 
#   20.000    0.000    0.000    0.000    0.000    0.000 
#
# Total GULP energy -133961.879587 kJ/mol
# GULP energy per Si atom -5581.744983 kJ/mol
# Density = 2.110647 g / cm^3
# Si number density = 21.154623 Si / 1000 Ang^3
#
#
#
# Elastic Constant Matrix: (Units=GPa)
#
#
# Indices 1 2 3 4 5 6 
#
# 1 47.9959 26.7108 16.9167 0.0000 0.0000 0.0000
# 2 26.7108 62.6024 24.2833 0.0000 0.0000 0.0000
# 3 16.9167 24.2833 128.3860 0.0000 0.0000 0.0000
# 4 0.0000 0.0000 0.0000 35.6664 0.0000 0.0000
# 5 0.0000 0.0000 0.0000 0.0000 30.8164 0.0000
# 6 0.0000 0.0000 0.0000 0.0000 0.0000 17.9156
#
#
#
# Elastic Compliance Matrix: (Units=1/GPa)
#
#
# Indices 1 2 3 4 5 6 
#
# 1 0.027595 -0.011184 -0.001521 0.000000 0.000000 0.000000
# 2 -0.011184 0.021772 -0.002644 0.000000 0.000000 0.000000
# 3 -0.001521 -0.002644 0.008490 0.000000 0.000000 0.000000
# 4 0.000000 0.000000 0.000000 0.028038 0.000000 0.000000
# 5 0.000000 0.000000 0.000000 0.000000 0.032450 0.000000
# 6 0.000000 0.000000 0.000000 0.000000 0.000000 0.055817
#
#
# Mechanical properties :
#
#
# Convention : Reuss Voigt Hill
#
# Bulk Modulus (GPa) = 36.82156 41.64511 39.23333
# Shear Modulus (GPa) = 23.37401 28.28459 25.82930
#
# Velocity S-wave (km/s) = 3.32763 3.66052 3.49804
# Velocity P-wave (km/s) = 5.67520 6.13145 5.90773
#
# Compressibility (1/GPa) = 0.02715800
#
# Stress axis : x y z
#
# Youngs Moduli (GPa) = 36.23789 45.93138 117.79237
#
# Poissons Ratio (x) = 0.51371 0.17912
# Poissons Ratio (y) = 0.40530 0.31147
# Poissons Ratio (z) = 0.05511 0.12145
#
# Static dielectric constant tensor:
#      x y z
#    x 1.783210 0.000000 0.000000 
#    y 0.000000 1.771090 0.000000 
#    z 0.000000 0.000000 1.850260 
# 
# From -- ./inp_files/27971.got.cif
#   From: 2010.05.17/outbox.cif.g08.bks.cpg/sg23_14_cif.got.tgz:27971.got - 2010.06.04 12:02:01.
