data_PCOD9330584
_publ_section_title
;
Structure prediction by ZEFSAII (Michael W. Deem and Ramdas Pophale) SiO2 
 PCOD9330584
Probable space group: I 2 2 2
;
_chemical_formula_sum "Si O2"
_cell_formula_units_Z 36
_cell_length_a 9.092256
_cell_length_b 25.055746
_cell_length_c 7.981360
_cell_angle_alpha 90.000000
_cell_angle_beta 90.000000
_cell_angle_gamma 90.000000
_cell_volume 1818.259616
_symmetry_space_group_name_H-M "I 2 2 2"
_symmetry_group_IT_number 23
_symmetry_cell_setting 'orthorhombic'
loop_
_space_group_symop_operation_xyz
x,y,z
-x,-y,z
x,-y,-z
-x,y,-z
1/2+x,1/2+y,1/2+z
1/2-x,1/2-y,1/2+z
1/2+x,1/2-y,1/2-z
1/2-x,1/2+y,1/2-z
loop_
_atom_site_type_symbol
_atom_site_label
_atom_site_fract_x
_atom_site_fract_y
_atom_site_fract_z
Si Si1 0.738480 0.925705 0.944783
Si Si2 0.000000 0.500000 0.500000
Si Si3 0.184741 0.680465 0.366314
Si Si4 0.588065 0.133005 0.331305
Si Si5 0.168313 0.797436 0.513343
Si Si6 0.500000 0.500000 0.500000
O O1 0.624155 0.958102 0.065198
O O2 0.656069 0.916187 0.769721
O O3 0.755211 0.867815 0.028119
O O4 0.885896 0.959014 0.914428
O O5 0.176588 0.734976 0.469061
O O6 0.025213 0.662319 0.295130
O O7 0.278609 0.692083 0.200949
O O8 0.500000 0.118636 0.500000
O O9 0.720633 0.171361 0.390230
O O10 0.000000 0.815398 0.500000
#
# Coordination Sequence:
#
# PCOD9330584 Si02
#       6
#     8   2   8   8   8   2
#     4  11  21  43  65  93 121 161 215 268 314 384
#     4  10  20  38  74  78 112 162 222 258 304 368
#     4  11  21  39  64  92 128 172 208 255 315 393
#     4  10  22  40  65  92 130 168 211 253 319 390
#     4  11  23  36  60  97 132 166 204 257 322 390
#     4  10  28  38  68  96 120 158 224 272 340 356
#
# _framework density 19.799153
#
# number of rings (size 3 to 8) (size 9 to 14) (size 15 to 20)
#    0.000    1.333    2.222    4.000    3.111    0.000 
#    6.000    0.556    0.000    5.333    0.000    0.000 
#    0.000    0.000    0.000    0.000    0.000    0.000 
#
# Total GULP energy -100332.508051 kJ/mol
# GULP energy per Si atom -5574.028225 kJ/mol
# Density = 1.975409 g / cm^3
# Si number density = 19.799153 Si / 1000 Ang^3
#
#
#
# Elastic Constant Matrix: (Units=GPa)
#
#
# Indices 1 2 3 4 5 6 
#
# 1 151.0383 66.3097 43.2089 0.0000 -0.0001 -0.0001
# 2 66.3097 89.3283 45.6946 0.0000 0.0001 0.0000
# 3 43.2089 45.6946 83.1396 0.0003 -0.0001 -0.0002
# 4 0.0000 0.0000 0.0003 2.2161 0.0000 0.0000
# 5 -0.0001 0.0001 -0.0001 0.0000 20.7769 -0.0001
# 6 -0.0001 0.0000 -0.0002 0.0000 -0.0001 41.8914
#
#
#
# Elastic Compliance Matrix: (Units=1/GPa)
#
#
# Indices 1 2 3 4 5 6 
#
# 1 0.009963 -0.006604 -0.001549 0.000000 0.000000 0.000000
# 2 -0.006604 0.019950 -0.007533 0.000001 0.000000 0.000000
# 3 -0.001549 -0.007533 0.016973 -0.000002 0.000000 0.000000
# 4 0.000000 0.000001 -0.000002 0.451241 -0.000001 0.000000
# 5 0.000000 0.000000 0.000000 -0.000001 0.048130 0.000000
# 6 0.000000 0.000000 0.000000 0.000000 0.000000 0.023871
#
#
# Mechanical properties :
#
#
# Convention : Reuss Voigt Hill
#
# Bulk Modulus (GPa) = 64.44930 70.43695 67.44312
# Shear Modulus (GPa) = 8.24171 24.19643 16.21907
#
# Velocity S-wave (km/s) = 2.04247 3.49964 2.86524
# Velocity P-wave (km/s) = 6.17936 7.20992 6.71444
#
# Compressibility (1/GPa) = 0.01551607
#
# Stress axis : x y z
#
# Youngs Moduli (GPa) = 100.37178 50.12574 58.91773
#
# Poissons Ratio (x) = 0.33101 0.09123
# Poissons Ratio (y) = 0.66281 0.44381
# Poissons Ratio (z) = 0.15543 0.37758
#
# Static dielectric constant tensor:
#      x y z
#    x 1.728380 0.000000 0.000000 
#    y 0.000000 1.713200 0.000000 
#    z 0.000000 0.000000 1.710600 
# 
# From -- ./inp_files/6756.got.cif
#   From: 2010.05.17/outbox.cif.g08.bks.cpg/sg23_4_cif.got.tgz:6756.got - 2010.06.04 12:02:01.
