data_PCOD9330032
_publ_section_title
;
Structure prediction by ZEFSAII (Michael W. Deem and Ramdas Pophale) SiO2 
 PCOD9330032
Probable space group: I 2 2 2
;
_chemical_formula_sum "Si O2"
_cell_formula_units_Z 64
_cell_length_a 5.052378
_cell_length_b 28.273538
_cell_length_c 20.171341
_cell_angle_alpha 90.000000
_cell_angle_beta 90.000000
_cell_angle_gamma 90.000000
_cell_volume 2881.447850
_symmetry_space_group_name_H-M "I 2 2 2"
_symmetry_group_IT_number 23
_symmetry_cell_setting 'orthorhombic'
loop_
_space_group_symop_operation_xyz
x,y,z
-x,-y,z
x,-y,-z
-x,y,-z
1/2+x,1/2+y,1/2+z
1/2-x,1/2-y,1/2+z
1/2+x,1/2-y,1/2-z
1/2-x,1/2+y,1/2-z
loop_
_atom_site_type_symbol
_atom_site_label
_atom_site_fract_x
_atom_site_fract_y
_atom_site_fract_z
Si Si1 0.764026 0.152691 0.957669
Si Si2 0.750292 0.527254 0.172636
Si Si3 0.042924 0.815036 0.573151
Si Si4 0.793958 0.222539 0.230639
Si Si5 0.554714 0.371725 0.802563
Si Si6 0.231089 0.907556 0.827660
Si Si7 0.223284 0.466459 0.327676
Si Si8 0.039994 0.749664 0.908681
O O1 0.774532 0.130690 0.885144
O O2 0.825995 0.207784 0.948324
O O3 0.500000 0.145915 0.000000
O O4 0.000000 0.130396 0.000000
O O5 0.500000 0.500000 0.144266
O O6 0.725345 0.583948 0.170394
O O7 0.752257 0.516665 0.251951
O O8 0.000000 0.500000 0.144330
O O9 0.283476 0.778135 0.564701
O O10 0.000000 0.836616 0.500000
O O11 0.099053 0.849924 0.634477
O O12 0.773761 0.788682 0.596119
O O13 0.499321 0.243775 0.229034
O O14 0.797095 0.171219 0.264480
O O15 0.924866 0.226315 0.158276
O O16 0.365401 0.392171 0.744896
O O17 0.539455 0.920223 0.823426
O O18 0.017841 0.949385 0.848285
O O19 0.000000 0.500000 0.362928
#
# Coordination Sequence:
#
# PCOD9330032 Si02
#       8
#     8   8   8   8   8   8   8   8
#     4  12  25  41  60  84 123 168 214 265 316 382
#     4  10  21  38  61  96 129 164 211 268 337 399
#     4  12  26  42  65  92 130 178 228 269 332 402
#     4  12  23  39  61  97 133 170 215 275 336 388
#     4  11  23  41  67  96 135 170 219 285 337 397
#     4  11  23  37  61  92 119 158 207 261 328 386
#     4  10  19  36  60  90 122 152 198 259 325 397
#     4  12  23  44  62  87 127 177 223 264 317 395
#
# _framework density 22.211055000000002
#
# number of rings (size 3 to 8) (size 9 to 14) (size 15 to 20)
#    0.000    0.750    3.750    6.375    0.000    6.000 
#    0.000    0.000    0.000    6.000    0.000    3.500 
#    0.000    0.000    0.000    0.000    0.000    0.000 
#
# Total GULP energy -178574.311524 kJ/mol
# GULP energy per Si atom -5580.447235 kJ/mol
# Density = 2.216050 g / cm^3
# Si number density = 22.211055 Si / 1000 Ang^3
#
#
#
# Elastic Constant Matrix: (Units=GPa)
#
#
# Indices 1 2 3 4 5 6 
#
# 1 123.3140 11.9251 20.9443 0.0000 0.0000 0.0000
# 2 11.9251 73.4621 12.6539 0.0000 0.0000 0.0000
# 3 20.9443 12.6539 75.9660 0.0000 0.0000 0.0000
# 4 0.0000 0.0000 0.0000 20.9364 0.0000 0.0000
# 5 0.0000 0.0000 0.0000 0.0000 15.0419 0.0000
# 6 0.0000 0.0000 0.0000 0.0000 0.0000 66.0911
#
#
#
# Elastic Compliance Matrix: (Units=1/GPa)
#
#
# Indices 1 2 3 4 5 6 
#
# 1 0.008581 -0.001015 -0.002197 0.000000 0.000000 0.000000
# 2 -0.001015 0.014135 -0.002075 0.000000 0.000000 0.000000
# 3 -0.002197 -0.002075 0.014115 0.000000 0.000000 0.000000
# 4 0.000000 0.000000 0.000000 0.047764 0.000000 0.000000
# 5 0.000000 0.000000 0.000000 0.000000 0.066481 0.000000
# 6 0.000000 0.000000 0.000000 0.000000 0.000000 0.015131
#
#
# Mechanical properties :
#
#
# Convention : Reuss Voigt Hill
#
# Bulk Modulus (GPa) = 38.08330 40.42096 39.25213
# Shear Modulus (GPa) = 26.94981 35.56180 31.25580
#
# Velocity S-wave (km/s) = 3.48710 4.00570 3.75536
# Velocity P-wave (km/s) = 5.77897 6.29541 6.04271
#
# Compressibility (1/GPa) = 0.02625823
#
# Stress axis : x y z
#
# Youngs Moduli (GPa) = 116.54210 70.74876 70.84649
#
# Poissons Ratio (x) = 0.07177 0.15563
# Poissons Ratio (y) = 0.11823 0.14699
# Poissons Ratio (z) = 0.25601 0.14678
#
# Static dielectric constant tensor:
#      x y z
#    x 1.857470 0.000000 0.000000 
#    y 0.000000 1.913440 0.000000 
#    z 0.000000 0.000000 1.849020 
# 
# From -- ./inp_files/25845.got.cif
#   From: 2010.05.17/outbox.cif.g08.bks.cpg/sg23_13_cif.got.tgz:25845.got - 2010.06.04 12:02:01.
