data_PCOD9330502
_publ_section_title
;
Structure prediction by ZEFSAII (Michael W. Deem and Ramdas Pophale) SiO2 
 PCOD9330502
Probable space group: I 2 2 2
;
_chemical_formula_sum "Si O2"
_cell_formula_units_Z 60
_cell_length_a 19.407045
_cell_length_b 5.444661
_cell_length_c 23.148353
_cell_angle_alpha 90.000000
_cell_angle_beta 90.000000
_cell_angle_gamma 90.000000
_cell_volume 2445.965651
_symmetry_space_group_name_H-M "I 2 2 2"
_symmetry_group_IT_number 23
_symmetry_cell_setting 'orthorhombic'
loop_
_space_group_symop_operation_xyz
x,y,z
-x,-y,z
x,-y,-z
-x,y,-z
1/2+x,1/2+y,1/2+z
1/2-x,1/2-y,1/2+z
1/2+x,1/2-y,1/2-z
1/2-x,1/2+y,1/2-z
loop_
_atom_site_type_symbol
_atom_site_label
_atom_site_fract_x
_atom_site_fract_y
_atom_site_fract_z
Si Si1 0.470518 0.246295 0.064806
Si Si2 0.830145 0.072299 0.129545
Si Si3 0.302521 0.752195 0.467378
Si Si4 0.899939 0.268677 0.792936
Si Si5 0.419358 0.014652 0.411282
Si Si6 0.632434 0.284789 0.853558
Si Si7 0.000000 0.000000 0.711909
Si Si8 0.801797 0.280974 0.690688
O O1 0.500000 0.500000 0.087252
O O2 0.390052 0.259314 0.078982
O O3 0.500000 0.000000 0.092868
O O4 0.500000 0.239627 0.000000
O O5 0.867212 0.252191 0.083689
O O6 0.777634 0.195583 0.174013
O O7 0.787855 0.846756 0.098688
O O8 0.892344 0.967564 0.166458
O O9 0.285762 0.500000 0.500000
O O10 0.274278 0.000000 0.500000
O O11 0.382448 0.816524 0.452824
O O12 0.912598 0.469398 0.841874
O O13 0.828483 0.282057 0.756723
O O14 0.959754 0.207022 0.748606
O O15 0.500000 0.000000 0.424142
O O16 0.561559 0.348735 0.819211
O O17 0.675412 0.527603 0.839577
O O18 0.661127 0.024692 0.833719
#
# Coordination Sequence:
#
# PCOD9330502 Si02
#       8
#     8   8   8   8   8   8   4   8
#     4  10  20  37  67  95 136 174 225 297 363 408
#     4  11  26  48  73 105 151 193 248 304 356 451
#     4  11  24  50  78 104 142 186 237 300 374 430
#     4  10  25  39  69 104 146 192 236 287 365 430
#     4  11  25  44  76 111 148 182 241 305 367 441
#     4  11  24  42  68 104 139 188 242 296 356 433
#     4  10  22  42  65 102 145 184 234 300 360 424
#     4  11  28  42  72 103 147 197 244 287 353 440
#
# _framework density 24.530189
#
# number of rings (size 3 to 8) (size 9 to 14) (size 15 to 20)
#    0.000    1.333    2.000    1.600   13.067    1.867 
#    2.400    0.000   11.733    0.000    0.000    0.000 
#    0.000    0.000    0.000    0.000    0.000    0.000 
#
# Total GULP energy -167100.497586 kJ/mol
# GULP energy per Si atom -5570.016586 kJ/mol
# Density = 2.447436 g / cm^3
# Si number density = 24.530189 Si / 1000 Ang^3
#
#
#
# Elastic Constant Matrix: (Units=GPa)
#
#
# Indices 1 2 3 4 5 6 
#
# 1 33.0051 14.0840 5.0423 0.0000 0.0000 0.0000
# 2 14.0840 166.8254 14.5704 0.0000 0.0000 0.0000
# 3 5.0423 14.5704 58.8424 0.0000 0.0000 0.0000
# 4 0.0000 0.0000 0.0000 -32.9210 0.0000 0.0000
# 5 0.0000 0.0000 0.0000 0.0000 17.6288 0.0000
# 6 0.0000 0.0000 0.0000 0.0000 0.0000 29.6230
#
#
#
# Elastic Compliance Matrix: (Units=1/GPa)
#
#
# Indices 1 2 3 4 5 6 
#
# 1 0.031682 -0.002491 -0.002098 0.000000 0.000000 0.000000
# 2 -0.002491 0.006323 -0.001352 0.000000 0.000000 0.000000
# 3 -0.002098 -0.001352 0.017509 0.000000 0.000000 0.000000
# 4 0.000000 0.000000 0.000000 -0.030376 0.000000 0.000000
# 5 0.000000 0.000000 0.000000 0.000000 0.056725 0.000000
# 6 0.000000 0.000000 0.000000 0.000000 0.000000 0.033758
#
#
# Mechanical properties :
#
#
# Convention : Reuss Voigt Hill
#
# Bulk Modulus (GPa) = 22.91962 36.22960 29.57461
# Shear Modulus (GPa) = 35.19947 17.86458 26.53203
#
# Velocity S-wave (km/s) = 3.79218 2.70157 3.29235
# Velocity P-wave (km/s) = 5.34208 4.95306 5.15124
#
# Compressibility (1/GPa) = 0.04363075
#
# Stress axis : x y z
#
# Youngs Moduli (GPa) = 31.56366 158.15968 57.11305
#
# Poissons Ratio (x) = 0.39405 0.11982
# Poissons Ratio (y) = 0.07864 0.07722
# Poissons Ratio (z) = 0.06622 0.21385
#
# Static dielectric constant tensor:
#      x y z
#    x 1.975340 0.000000 0.000000 
#    y 0.000000 2.054170 0.000000 
#    z 0.000000 0.000000 1.926830 
# 
# From -- ./inp_files/28699.got.cif
#   From: 2010.05.17/outbox.cif.g08.bks.cpg/sg23_15_cif.got.tgz:28699.got - 2010.06.04 12:02:01.
