data_PCOD9330641
_publ_section_title
;
Structure prediction by ZEFSAII (Michael W. Deem and Ramdas Pophale) SiO2 
 PCOD9330641
Probable space group: I 2 2 2
;
_chemical_formula_sum "Si O2"
_cell_formula_units_Z 54
_cell_length_a 13.345779
_cell_length_b 15.902272
_cell_length_c 11.185318
_cell_angle_alpha 90.000000
_cell_angle_beta 90.000000
_cell_angle_gamma 90.000000
_cell_volume 2373.839992
_symmetry_space_group_name_H-M "I 2 2 2"
_symmetry_group_IT_number 23
_symmetry_cell_setting 'orthorhombic'
loop_
_space_group_symop_operation_xyz
x,y,z
-x,-y,z
x,-y,-z
-x,y,-z
1/2+x,1/2+y,1/2+z
1/2-x,1/2-y,1/2+z
1/2+x,1/2-y,1/2-z
1/2-x,1/2+y,1/2-z
loop_
_atom_site_type_symbol
_atom_site_label
_atom_site_fract_x
_atom_site_fract_y
_atom_site_fract_z
Si Si1 0.138312 0.450299 0.890222
Si Si2 0.832944 0.833198 0.122604
Si Si3 0.416353 0.245064 0.850078
Si Si4 0.272065 0.093128 0.778055
Si Si5 0.163341 0.000000 0.000000
Si Si6 0.227801 0.823793 0.465632
Si Si7 0.098025 0.633908 0.327379
Si Si8 0.500000 0.000000 0.000000
O O1 0.176477 0.518533 0.795480
O O2 0.071511 0.390281 0.808956
O O3 0.094697 0.500000 0.000000
O O4 0.225977 0.396837 0.952209
O O5 0.896582 0.802297 0.234619
O O6 0.810380 0.751921 0.039413
O O7 0.717281 0.852704 0.162929
O O8 0.880635 0.916977 0.065550
O O9 0.350539 0.160122 0.830347
O O10 0.528947 0.212725 0.857504
O O11 0.367885 0.291818 0.962288
O O12 0.218667 0.048781 0.890148
O O13 0.213559 0.143308 0.671030
O O14 0.066525 0.560029 0.417238
#
# Coordination Sequence:
#
# PCOD9330641 Si02
#       8
#     8   8   8   8   4   8   8   2
#     4  10  21  40  64  95 138 181 215 274 355 415
#     4  11  23  38  62  96 132 173 226 274 342 399
#     4  11  22  39  60  95 131 182 225 259 341 412
#     4  10  21  34  61  93 128 177 210 274 336 412
#     4  12  19  38  65  96 134 172 219 290 337 410
#     4  10  20  40  58  87 136 176 226 265 328 425
#     4  12  23  38  64  95 144 168 214 289 332 418
#     4  12  26  36  62 112 134 154 220 266 384 408
#
# _framework density 22.747952000000002
#
# number of rings (size 3 to 8) (size 9 to 14) (size 15 to 20)
#    0.000    1.185    4.444    2.222    0.000    0.000 
#    0.000   15.185    0.000    0.000    0.000   87.111 
#    0.000    0.000    0.000    0.000    0.000    0.000 
#
# Total GULP energy -150825.460028 kJ/mol
# GULP energy per Si atom -5586.128149 kJ/mol
# Density = 2.269618 g / cm^3
# Si number density = 22.747952 Si / 1000 Ang^3
#
#
#
# Elastic Constant Matrix: (Units=GPa)
#
#
# Indices 1 2 3 4 5 6 
#
# 1 57.8998 34.4689 31.2541 0.0000 0.0000 0.0000
# 2 34.4689 130.0615 51.5318 0.0000 0.0000 0.0000
# 3 31.2541 51.5318 135.8544 0.0000 0.0000 0.0000
# 4 0.0000 0.0000 0.0000 64.5617 0.0000 0.0000
# 5 0.0000 0.0000 0.0000 0.0000 15.2587 0.0000
# 6 0.0000 0.0000 0.0000 0.0000 0.0000 220.6996
#
#
#
# Elastic Compliance Matrix: (Units=1/GPa)
#
#
# Indices 1 2 3 4 5 6 
#
# 1 0.021700 -0.004440 -0.003308 0.000000 0.000000 0.000000
# 2 -0.004440 0.009957 -0.002755 0.000000 0.000000 0.000000
# 3 -0.003308 -0.002755 0.009167 0.000000 0.000000 0.000000
# 4 0.000000 0.000000 0.000000 0.015489 0.000000 0.000000
# 5 0.000000 0.000000 0.000000 0.000000 0.065536 0.000000
# 6 0.000000 0.000000 0.000000 0.000000 0.000000 0.004531
#
#
# Mechanical properties :
#
#
# Convention : Reuss Voigt Hill
#
# Bulk Modulus (GPa) = 50.46168 62.03613 56.24891
# Shear Modulus (GPa) = 32.46880 73.87472 53.17176
#
# Velocity S-wave (km/s) = 3.78210 5.70490 4.83994
# Velocity P-wave (km/s) = 6.42678 8.40980 7.48426
#
# Compressibility (1/GPa) = 0.01981702
#
# Stress axis : x y z
#
# Youngs Moduli (GPa) = 46.08241 100.43015 109.08685
#
# Poissons Ratio (x) = 0.44594 0.36086
# Poissons Ratio (y) = 0.20462 0.30058
# Poissons Ratio (z) = 0.15244 0.27672
#
# Static dielectric constant tensor:
#      x y z
#    x 1.844420 0.000000 0.000000 
#    y 0.000000 1.904640 0.000000 
#    z 0.000000 0.000000 0.213740 
# 
# From -- ./inp_files/16827.got.cif
#   From: 2010.05.17/outbox.cif.g08.bks.cpg/sg23_9_cif.got.tgz:16827.got - 2010.06.04 12:02:01.
