data_PCOD9330315
_publ_section_title
;
Structure prediction by ZEFSAII (Michael W. Deem and Ramdas Pophale) SiO2 
 PCOD9330315
Probable space group: I 2 2 2
;
_chemical_formula_sum "Si O2"
_cell_formula_units_Z 64
_cell_length_a 8.612413
_cell_length_b 14.550781
_cell_length_c 25.082207
_cell_angle_alpha 90.000000
_cell_angle_beta 90.000000
_cell_angle_gamma 90.000000
_cell_volume 3143.235348
_symmetry_space_group_name_H-M "I 2 2 2"
_symmetry_group_IT_number 23
_symmetry_cell_setting 'orthorhombic'
loop_
_space_group_symop_operation_xyz
x,y,z
-x,-y,z
x,-y,-z
-x,y,-z
1/2+x,1/2+y,1/2+z
1/2-x,1/2-y,1/2+z
1/2+x,1/2-y,1/2-z
1/2-x,1/2+y,1/2-z
loop_
_atom_site_type_symbol
_atom_site_label
_atom_site_fract_x
_atom_site_fract_y
_atom_site_fract_z
Si Si1 0.562760 0.217337 0.943489
Si Si2 0.063926 0.895394 0.270081
Si Si3 0.436074 0.895394 0.270081
Si Si4 0.936839 0.602286 0.110892
Si Si5 0.562760 0.717337 0.556511
Si Si6 0.936169 0.896268 0.160373
Si Si7 0.936839 0.897714 0.610892
Si Si8 0.936169 0.603732 0.660373
O O1 0.750000 0.216054 0.944860
O O2 0.510744 0.321849 0.931309
O O3 0.513700 0.157315 0.892574
O O4 0.500000 0.184669 0.000000
O O5 0.250000 0.895515 0.265479
O O6 0.021787 0.862095 0.329392
O O7 0.993732 0.853188 0.216351
O O8 0.000000 0.000000 0.270324
O O9 0.478213 0.862095 0.329392
O O10 0.506268 0.853188 0.216351
O O11 0.500000 0.000000 0.270324
O O12 0.989257 0.678151 0.068691
O O13 0.750000 0.597117 0.109519
O O14 0.000000 0.500000 0.102808
O O15 0.500000 0.684669 0.500000
O O16 0.513700 0.657315 0.607426
O O17 0.750000 0.898131 0.162055
O O18 0.000000 0.000000 0.157378
O O19 0.000000 0.000000 0.602808
O O20 0.000000 0.500000 0.657378
#
# Coordination Sequence:
#
# PCOD9330315 Si02
#       8
#     8   8   8   8   8   8   8   8
#     4  10  23  40  55  75 105 140 180 222 261 307
#     4   9  16  29  52  80 108 136 169 209 257 315
#     4   9  16  29  52  80 108 136 169 209 257 315
#     4   9  19  36  56  80 109 139 172 213 261 311
#     4  10  23  40  55  75 105 140 180 222 261 307
#     4  10  20  35  55  79 108 139 172 215 264 312
#     4   9  19  36  56  80 109 139 172 213 261 311
#     4  10  20  35  55  79 108 139 172 215 264 312
#
# _framework density 20.361187999999999
#
# number of rings (size 3 to 8) (size 9 to 14) (size 15 to 20)
#    0.000    2.500    0.000    3.000    0.000    6.000 
#    0.000    5.000    0.000    0.000    0.000    0.000 
#    0.000    0.000    0.000    0.000    0.000    0.000 
#
# Total GULP energy -178545.797399 kJ/mol
# GULP energy per Si atom -5579.556169 kJ/mol
# Density = 2.031484 g / cm^3
# Si number density = 20.361188 Si / 1000 Ang^3
#
#
#
# Elastic Constant Matrix: (Units=GPa)
#
#
# Indices 1 2 3 4 5 6 
#
# 1 28.0652 2.8811 16.8136 0.0000 0.0000 0.0000
# 2 2.8811 39.2334 5.7041 0.0000 0.0000 0.0000
# 3 16.8136 5.7041 94.1128 0.0000 0.0000 0.0000
# 4 0.0000 0.0000 0.0000 30.3795 0.0000 0.0000
# 5 0.0000 0.0000 0.0000 0.0000 23.6914 0.0000
# 6 0.0000 0.0000 0.0000 0.0000 0.0000 13.6002
#
#
#
# Elastic Compliance Matrix: (Units=1/GPa)
#
#
# Indices 1 2 3 4 5 6 
#
# 1 0.040045 -0.001917 -0.007038 0.000000 0.000000 0.000000
# 2 -0.001917 0.025807 -0.001222 0.000000 0.000000 0.000000
# 3 -0.007038 -0.001222 0.011957 0.000000 0.000000 0.000000
# 4 0.000000 0.000000 0.000000 0.032917 0.000000 0.000000
# 5 0.000000 0.000000 0.000000 0.000000 0.042209 0.000000
# 6 0.000000 0.000000 0.000000 0.000000 0.000000 0.073528
#
#
# Mechanical properties :
#
#
# Convention : Reuss Voigt Hill
#
# Bulk Modulus (GPa) = 17.40504 23.57875 20.49190
# Shear Modulus (GPa) = 18.79924 22.60173 20.70048
#
# Velocity S-wave (km/s) = 3.04186 3.33534 3.19198
# Velocity P-wave (km/s) = 4.57208 5.14179 4.86528
#
# Compressibility (1/GPa) = 0.05745462
#
# Stress axis : x y z
#
# Youngs Moduli (GPa) = 24.97222 38.74929 83.63348
#
# Poissons Ratio (x) = 0.07430 0.58860
# Poissons Ratio (y) = 0.04788 0.10216
# Poissons Ratio (z) = 0.17575 0.04734
#
# Static dielectric constant tensor:
#      x y z
#    x 1.692390 0.000000 0.000000 
#    y 0.000000 1.722580 0.000000 
#    z 0.000000 0.000000 1.745600 
# 
# From -- ./inp_files/28092.got.cif
#   From: 2010.05.17/outbox.cif.g08.bks.cpg/sg23_15_cif.got.tgz:28092.got - 2010.06.04 12:02:01.
