data_PCOD9330972
_publ_section_title
;
Structure prediction by ZEFSAII (Michael W. Deem and Ramdas Pophale) SiO2 
 PCOD9330972
Probable space group: I 2 2 2
;
_chemical_formula_sum "Si O2"
_cell_formula_units_Z 64
_cell_length_a 9.139724
_cell_length_b 30.782073
_cell_length_c 11.981860
_cell_angle_alpha 90.000000
_cell_angle_beta 90.000000
_cell_angle_gamma 90.000000
_cell_volume 3370.972315
_symmetry_space_group_name_H-M "I 2 2 2"
_symmetry_group_IT_number 23
_symmetry_cell_setting 'orthorhombic'
loop_
_space_group_symop_operation_xyz
x,y,z
-x,-y,z
x,-y,-z
-x,y,-z
1/2+x,1/2+y,1/2+z
1/2-x,1/2-y,1/2+z
1/2+x,1/2-y,1/2-z
1/2-x,1/2+y,1/2-z
loop_
_atom_site_type_symbol
_atom_site_label
_atom_site_fract_x
_atom_site_fract_y
_atom_site_fract_z
Si Si1 0.144466 0.280607 0.266225
Si Si2 0.914874 0.045172 0.744687
Si Si3 0.176445 0.092948 0.844705
Si Si4 0.308675 0.806025 0.765847
Si Si5 0.668650 0.654035 0.133608
Si Si6 0.659784 0.371055 0.113724
Si Si7 0.168413 0.504312 0.631937
Si Si8 0.669779 0.161249 0.013454
O O1 0.194712 0.231042 0.269755
O O2 0.245165 0.303060 0.170814
O O3 0.173280 0.304108 0.385209
O O4 0.972878 0.288646 0.244156
O O5 0.880671 0.079393 0.646215
O O6 0.015467 0.072023 0.832667
O O7 0.767243 0.030005 0.803342
O O8 0.000000 0.000000 0.714060
O O9 0.200795 0.121101 0.733901
O O10 0.282159 0.052329 0.838377
O O11 0.221368 0.122811 0.948948
O O12 0.275303 0.849781 0.697511
O O13 0.290464 0.817070 0.896350
O O14 0.492163 0.655852 0.128775
O O15 0.711234 0.635658 0.012809
O O16 0.192674 0.500000 0.500000
O O17 0.000000 0.500000 0.657912
O O18 0.500000 0.145761 0.000000
#
# Coordination Sequence:
#
# PCOD9330972 Si02
#       8
#     8   8   8   8   8   8   8   8
#     4  10  22  41  59  86 122 156 205 249 307 358
#     4   9  20  39  58  90 120 152 200 250 300 358
#     4   9  19  38  60  84 118 152 196 243 298 356
#     4  11  23  38  61  88 116 160 204 250 302 363
#     4   9  20  41  60  85 119 158 195 249 303 359
#     4  10  21  38  64  88 117 159 204 247 309 360
#     4  10  22  35  56  83 116 160 192 239 302 364
#     4   9  21  38  61  85 116 159 194 245 303 361
#
# _framework density 18.985619
#
# number of rings (size 3 to 8) (size 9 to 14) (size 15 to 20)
#    0.000    2.375    0.000    0.750    5.250    4.750 
#    2.250   16.250    0.000    0.750    0.000    0.000 
#    0.000    0.000    0.000    0.000    0.000    0.000 
#
# Total GULP energy -178489.865208 kJ/mol
# GULP energy per Si atom -5577.808288 kJ/mol
# Density = 1.894241 g / cm^3
# Si number density = 18.985619 Si / 1000 Ang^3
#
#
#
# Elastic Constant Matrix: (Units=GPa)
#
#
# Indices 1 2 3 4 5 6 
#
# 1 104.2601 51.1261 28.6460 0.0001 -0.0002 0.0001
# 2 51.1261 98.7689 27.0301 0.0002 -0.0001 0.0000
# 3 28.6460 27.0301 80.4508 0.0000 -0.0001 -0.0005
# 4 0.0001 0.0002 0.0000 10.9612 0.0001 0.0000
# 5 -0.0002 -0.0001 -0.0001 0.0001 27.5885 0.0002
# 6 0.0001 0.0000 -0.0005 0.0000 0.0002 28.4484
#
#
#
# Elastic Compliance Matrix: (Units=1/GPa)
#
#
# Indices 1 2 3 4 5 6 
#
# 1 0.013359 -0.006182 -0.002680 0.000000 0.000000 0.000000
# 2 -0.006182 0.014010 -0.002506 0.000000 0.000000 0.000000
# 3 -0.002680 -0.002506 0.014226 0.000000 0.000000 0.000000
# 4 0.000000 0.000000 0.000000 0.091231 0.000000 0.000000
# 5 0.000000 0.000000 0.000000 0.000000 0.036247 0.000000
# 6 0.000000 0.000000 0.000000 0.000000 0.000000 0.035151
#
#
# Mechanical properties :
#
#
# Convention : Reuss Voigt Hill
#
# Bulk Modulus (GPa) = 53.02142 55.23158 54.12650
# Shear Modulus (GPa) = 21.43655 25.17813 23.30734
#
# Velocity S-wave (km/s) = 3.36384 3.64561 3.50756
# Velocity P-wave (km/s) = 6.56316 6.84654 6.70634
#
# Compressibility (1/GPa) = 0.01886030
#
# Stress axis : x y z
#
# Youngs Moduli (GPa) = 74.85587 71.37582 70.29303
#
# Poissons Ratio (x) = 0.44122 0.18837
# Poissons Ratio (y) = 0.46274 0.17616
# Poissons Ratio (z) = 0.20060 0.17888
#
# Static dielectric constant tensor:
#      x y z
#    x 1.677350 0.000000 0.000000 
#    y 0.000000 1.575630 0.000000 
#    z 0.000000 0.000000 1.644140 
# 
# From -- ./inp_files/14979.got.cif
#   From: 2010.05.17/outbox.cif.g08.bks.cpg/sg23_8_cif.got.tgz:14979.got - 2010.06.04 12:02:01.
