data_PCOD9330575
_publ_section_title
;
Structure prediction by ZEFSAII (Michael W. Deem and Ramdas Pophale) SiO2 
 PCOD9330575
Probable space group: I 2 2 2
;
_chemical_formula_sum "Si O2"
_cell_formula_units_Z 48
_cell_length_a 22.122806
_cell_length_b 8.532281
_cell_length_c 12.842788
_cell_angle_alpha 90.000000
_cell_angle_beta 90.000000
_cell_angle_gamma 90.000000
_cell_volume 2424.178943
_symmetry_space_group_name_H-M "I 2 2 2"
_symmetry_group_IT_number 23
_symmetry_cell_setting 'orthorhombic'
loop_
_space_group_symop_operation_xyz
x,y,z
-x,-y,z
x,-y,-z
-x,y,-z
1/2+x,1/2+y,1/2+z
1/2-x,1/2-y,1/2+z
1/2+x,1/2-y,1/2-z
1/2-x,1/2+y,1/2-z
loop_
_atom_site_type_symbol
_atom_site_label
_atom_site_fract_x
_atom_site_fract_y
_atom_site_fract_z
Si Si1 0.365018 0.181109 0.768571
Si Si2 0.001992 0.684308 0.236532
Si Si3 0.407339 0.892772 0.900864
Si Si4 0.439723 0.674204 0.547941
Si Si5 0.186395 0.815373 0.520441
Si Si6 0.181819 0.321856 0.038167
O O1 0.432920 0.240504 0.741697
O O2 0.334149 0.275554 0.862265
O O3 0.327298 0.184081 0.662508
O O4 0.376570 0.006236 0.814406
O O5 0.032608 0.675560 0.349529
O O6 0.044928 0.796157 0.168257
O O7 0.000000 0.500000 0.199433
O O8 0.360468 0.765962 0.942278
O O9 0.421731 0.000000 0.000000
O O10 0.439018 0.500000 0.500000
O O11 0.500000 0.754678 0.500000
O O12 0.376453 0.745720 0.515206
O O13 0.253937 0.752693 0.497285
O O14 0.186141 0.000000 0.500000
O O15 0.181641 0.500000 0.000000
#
# Coordination Sequence:
#
# PCOD9330575 Si02
#       6
#     8   8   8   8   8   8
#     4  10  21  39  63  88 119 161 208 260 308 367
#     4  10  20  38  68  93 121 166 210 255 312 374
#     4   9  20  39  62  91 119 157 214 258 307 372
#     4  11  24  39  59  95 130 153 198 259 317 368
#     4  10  24  41  58  89 127 163 206 259 312 373
#     4  11  23  41  65  88 122 164 211 254 305 376
#
# _framework density 19.800518
#
# number of rings (size 3 to 8) (size 9 to 14) (size 15 to 20)
#    0.000    1.833    1.667    2.000    0.000   15.000 
#    0.000    0.833    0.000    0.000    0.000    0.000 
#    0.000    0.000    0.000    0.000    0.000    0.000 
#
# Total GULP energy -133923.077722 kJ/mol
# GULP energy per Si atom -5580.128238 kJ/mol
# Density = 1.975545 g / cm^3
# Si number density = 19.800518 Si / 1000 Ang^3
#
#
#
# Elastic Constant Matrix: (Units=GPa)
#
#
# Indices 1 2 3 4 5 6 
#
# 1 99.9462 41.9974 57.4637 0.0000 0.0000 0.0000
# 2 41.9974 55.7570 34.3085 0.0000 0.0000 0.0000
# 3 57.4637 34.3085 120.0096 0.0000 0.0000 0.0000
# 4 0.0000 0.0000 0.0000 22.1825 0.0000 0.0000
# 5 0.0000 0.0000 0.0000 0.0000 13.9041 0.0000
# 6 0.0000 0.0000 0.0000 0.0000 0.0000 31.0582
#
#
#
# Elastic Compliance Matrix: (Units=1/GPa)
#
#
# Indices 1 2 3 4 5 6 
#
# 1 0.017182 -0.009561 -0.005494 0.000000 0.000000 0.000000
# 2 -0.009561 0.027084 -0.003165 0.000000 0.000000 0.000000
# 3 -0.005494 -0.003165 0.011868 0.000000 0.000000 0.000000
# 4 0.000000 0.000000 0.000000 0.045080 0.000000 0.000000
# 5 0.000000 0.000000 0.000000 0.000000 0.071921 0.000000
# 6 0.000000 0.000000 0.000000 0.000000 0.000000 0.032198
#
#
# Mechanical properties :
#
#
# Convention : Reuss Voigt Hill
#
# Bulk Modulus (GPa) = 50.77565 60.36132 55.56848
# Shear Modulus (GPa) = 20.13399 22.89185 21.51292
#
# Velocity S-wave (km/s) = 3.19225 3.40387 3.29976
# Velocity P-wave (km/s) = 6.26790 6.78228 6.53016
#
# Compressibility (1/GPa) = 0.01969448
#
# Stress axis : x y z
#
# Youngs Moduli (GPa) = 58.20212 36.92226 84.26127
#
# Poissons Ratio (x) = 0.35302 0.46290
# Poissons Ratio (y) = 0.55648 0.26666
# Poissons Ratio (z) = 0.31974 0.11685
#
# Static dielectric constant tensor:
#      x y z
#    x 1.721760 0.000000 0.000000 
#    y 0.000000 1.709710 0.000000 
#    z 0.000000 0.000000 1.744120 
# 
# From -- ./inp_files/18289.got.cif
#   From: 2010.05.17/outbox.cif.g08.bks.cpg/sg23_10_cif.got.tgz:18289.got - 2010.06.04 12:02:01.
