data_PCOD9330200
_publ_section_title
;
Structure prediction by ZEFSAII (Michael W. Deem and Ramdas Pophale) SiO2 
 PCOD9330200
Probable space group: I 2 2 2
;
_chemical_formula_sum "Si O2"
_cell_formula_units_Z 64
_cell_length_a 11.851700
_cell_length_b 27.952728
_cell_length_c 7.361450
_cell_angle_alpha 90.000000
_cell_angle_beta 90.000000
_cell_angle_gamma 90.000000
_cell_volume 2438.755236
_symmetry_space_group_name_H-M "I 2 2 2"
_symmetry_group_IT_number 23
_symmetry_cell_setting 'orthorhombic'
loop_
_space_group_symop_operation_xyz
x,y,z
-x,-y,z
x,-y,-z
-x,y,-z
1/2+x,1/2+y,1/2+z
1/2-x,1/2-y,1/2+z
1/2+x,1/2-y,1/2-z
1/2-x,1/2+y,1/2-z
loop_
_atom_site_type_symbol
_atom_site_label
_atom_site_fract_x
_atom_site_fract_y
_atom_site_fract_z
Si Si1 0.406884 0.789239 0.280157
Si Si2 0.672811 0.320301 0.861400
Si Si3 0.871407 0.559401 0.705735
Si Si4 0.627140 0.422945 0.724757
Si Si5 0.122717 0.444263 0.284247
Si Si6 0.117027 0.075651 0.186254
Si Si7 0.629048 0.681352 0.724850
Si Si8 0.369911 0.788069 0.843916
O O1 0.308283 0.818703 0.370435
O O2 0.408023 0.733704 0.340296
O O3 0.531622 0.808818 0.279252
O O4 0.385400 0.787116 0.061213
O O5 0.633315 0.365392 0.749154
O O6 0.646757 0.267322 0.785522
O O7 0.617395 0.321662 0.058467
O O8 0.871612 0.574935 0.492780
O O9 0.878671 0.501799 0.710138
O O10 0.742752 0.571311 0.773077
O O11 0.997423 0.572944 0.782204
O O12 0.752979 0.434912 0.802001
O O13 0.500174 0.439676 0.784859
O O14 0.628956 0.443367 0.518910
O O15 0.090821 0.131472 0.150505
O O16 0.760811 0.682114 0.688157
#
# Coordination Sequence:
#
# PCOD9330200 Si02
#       8
#     8   8   8   8   8   8   8   8
#     4   9  18  33  51  69  93 130 175 219 261 304
#     4  10  20  33  49  71 100 133 170 211 256 306
#     4   8  15  30  52  76 101 130 165 206 253 303
#     4  10  20  32  49  76 106 134 167 209 256 306
#     4   8  15  30  52  76 101 130 165 206 253 303
#     4  10  20  32  49  76 106 134 167 209 256 306
#     4  10  20  33  49  71 100 133 170 211 256 306
#     4   9  18  33  51  69  93 130 175 219 261 304
#
# _framework density 26.242895999999998
#
# number of rings (size 3 to 8) (size 9 to 14) (size 15 to 20)
#    0.000    2.750    0.000    2.250    0.000    4.500 
#    0.000    5.000    0.000    0.750    0.000    3.500 
#    0.000    0.000    0.000    0.000    0.000    0.000 
#
# Total GULP energy -178329.698107 kJ/mol
# GULP energy per Si atom -5572.803066 kJ/mol
# Density = 2.618317 g / cm^3
# Si number density = 26.242896 Si / 1000 Ang^3
#
#
#
# Elastic Constant Matrix: (Units=GPa)
#
#
# Indices 1 2 3 4 5 6 
#
# 1 264.1979 12.8107 16.5169 -0.0014 0.0073 -0.0043
# 2 12.8107 80.9186 3.2479 0.0033 0.0008 -0.0035
# 3 16.5169 3.2479 82.0128 0.0111 0.0241 -0.0154
# 4 -0.0014 0.0033 0.0111 -7.7641 -0.0015 -0.0051
# 5 0.0073 0.0008 0.0241 -0.0015 -3.0467 0.0043
# 6 -0.0043 -0.0035 -0.0154 -0.0051 0.0043 -76.9713
#
#
#
# Elastic Compliance Matrix: (Units=1/GPa)
#
#
# Indices 1 2 3 4 5 6 
#
# 1 0.003860 -0.000581 -0.000754 -0.000002 0.000003 0.000000
# 2 -0.000581 0.012465 -0.000377 0.000005 -0.000001 0.000000
# 3 -0.000754 -0.000377 0.012360 0.000018 0.000096 -0.000002
# 4 -0.000002 0.000005 0.000018 -0.128798 0.000063 0.000009
# 5 0.000003 -0.000001 0.000096 0.000063 -0.328222 -0.000018
# 6 0.000000 0.000000 -0.000002 0.000009 -0.000018 -0.012992
#
#
# Mechanical properties :
#
#
# Convention : Reuss Voigt Hill
#
# Bulk Modulus (GPa) = 39.58576 54.69781 47.14178
# Shear Modulus (GPa) = -11.64194 8.74717 -1.44738
#
# Velocity S-wave (km/s) = -2.10852 1.82767 -0.74346
# Velocity P-wave (km/s) = 3.03139 5.03408 4.15520
#
# Compressibility (1/GPa) = 0.02526161
#
# Stress axis : x y z
#
# Youngs Moduli (GPa) = 259.04231 80.22349 80.90583
#
# Poissons Ratio (x) = 0.04660 0.06104
# Poissons Ratio (y) = 0.15047 0.03047
# Poissons Ratio (z) = 0.19544 0.03022
#
# Static dielectric constant tensor:
#      x y z
#    x 2.189640 0.000000 0.000000 
#    y 0.000000 2.001140 0.000000 
#    z 0.000000 0.000000 2.136990 
# 
# From -- ./inp_files/8942.got.cif
#   From: 2010.05.17/outbox.cif.g08.bks.cpg/sg23_5_cif.got.tgz:8942.got - 2010.06.04 12:02:01.
