data_PCOD9330212
_publ_section_title
;
Structure prediction by ZEFSAII (Michael W. Deem and Ramdas Pophale) SiO2 
 PCOD9330212
Probable space group: I 2 2 2
;
_chemical_formula_sum "Si O2"
_cell_formula_units_Z 64
_cell_length_a 8.883955
_cell_length_b 19.154970
_cell_length_c 19.643284
_cell_angle_alpha 90.000000
_cell_angle_beta 90.000000
_cell_angle_gamma 90.000000
_cell_volume 3342.734794
_symmetry_space_group_name_H-M "I 2 2 2"
_symmetry_group_IT_number 23
_symmetry_cell_setting 'orthorhombic'
loop_
_space_group_symop_operation_xyz
x,y,z
-x,-y,z
x,-y,-z
-x,y,-z
1/2+x,1/2+y,1/2+z
1/2-x,1/2-y,1/2+z
1/2+x,1/2-y,1/2-z
1/2-x,1/2+y,1/2-z
loop_
_atom_site_type_symbol
_atom_site_label
_atom_site_fract_x
_atom_site_fract_y
_atom_site_fract_z
Si Si1 0.820344 0.191475 0.048602
Si Si2 0.185348 0.642382 0.323745
Si Si3 0.662208 0.078799 0.972725
Si Si4 0.925947 0.252838 0.636928
Si Si5 0.662208 0.921201 0.472725
Si Si6 0.679655 0.691475 0.048603
Si Si7 0.074053 0.252838 0.136927
Si Si8 0.814653 0.357617 0.176256
O O1 0.704817 0.195075 0.111888
O O2 0.980026 0.215803 0.076208
O O3 0.796618 0.119970 0.009491
O O4 0.749999 0.250000 0.000000
O O5 0.172030 0.594668 0.391786
O O6 0.049660 0.698963 0.327169
O O7 0.336847 0.689341 0.328197
O O8 0.180328 0.606223 0.250000
O O9 0.500000 0.107627 0.000000
O O10 0.667285 0.000000 0.000000
O O11 0.019973 0.215802 0.576209
O O12 0.836846 0.189342 0.671804
O O13 0.500000 0.892373 0.500000
O O14 0.796618 0.880031 0.509492
O O15 0.672031 0.905330 0.391787
O O16 0.667284 0.000000 0.500000
O O17 0.795182 0.695076 0.111889
O O18 0.950341 0.301036 0.172832
#
# Coordination Sequence:
#
# PCOD9330212 Si02
#       8
#     8   8   8   8   8   8   8   8
#     4  11  17  33  60  86 110 148 194 251 282 331
#     4  11  22  37  57  88 125 157 189 243 304 356
#     4  11  22  37  59  87 116 153 203 244 286 349
#     4  10  20  32  60  88 115 148 196 240 296 339
#     4  11  22  37  59  87 116 153 203 244 286 349
#     4  11  17  33  60  86 110 148 194 251 282 331
#     4  10  20  32  60  88 115 148 196 240 296 339
#     4  11  22  37  57  88 125 157 189 243 304 356
#
# _framework density 19.146000000000001
#
# number of rings (size 3 to 8) (size 9 to 14) (size 15 to 20)
#    0.000    1.250    7.500    1.500    0.000    0.000 
#    0.000    5.000    0.000    1.500    0.000    0.000 
#    0.000    0.000    0.000    0.000    0.000    0.000 
#
# Total GULP energy -178275.046421 kJ/mol
# GULP energy per Si atom -5571.095201 kJ/mol
# Density = 1.910242 g / cm^3
# Si number density = 19.146000 Si / 1000 Ang^3
#
#
#
# Elastic Constant Matrix: (Units=GPa)
#
#
# Indices 1 2 3 4 5 6 
#
# 1 94.5365 14.8993 27.8855 0.0000 0.0000 0.0000
# 2 14.8993 76.7261 43.7390 0.0000 0.0000 0.0000
# 3 27.8855 43.7390 152.9660 0.0000 0.0000 0.0000
# 4 0.0000 0.0000 0.0000 12.4384 0.0000 0.0000
# 5 0.0000 0.0000 0.0000 0.0000 5.1294 0.0000
# 6 0.0000 0.0000 0.0000 0.0000 0.0000 24.6530
#
#
#
# Elastic Compliance Matrix: (Units=1/GPa)
#
#
# Indices 1 2 3 4 5 6 
#
# 1 0.011273 -0.001216 -0.001707 0.000000 0.000000 0.000000
# 2 -0.001216 0.015703 -0.004268 0.000000 0.000000 0.000000
# 3 -0.001707 -0.004268 0.008069 0.000000 0.000000 0.000000
# 4 0.000000 0.000000 0.000000 0.080396 0.000000 0.000000
# 5 0.000000 0.000000 0.000000 0.000000 0.194955 0.000000
# 6 0.000000 0.000000 0.000000 0.000000 0.000000 0.040563
#
#
# Mechanical properties :
#
#
# Convention : Reuss Voigt Hill
#
# Bulk Modulus (GPa) = 48.39832 55.25290 51.82561
# Shear Modulus (GPa) = 13.43257 24.29114 18.86186
#
# Velocity S-wave (km/s) = 2.65162 3.56579 3.14213
# Velocity P-wave (km/s) = 5.89137 6.77307 6.34755
#
# Compressibility (1/GPa) = 0.02066188
#
# Stress axis : x y z
#
# Youngs Moduli (GPa) = 88.70610 63.68315 123.92844
#
# Poissons Ratio (x) = 0.07742 0.21160
# Poissons Ratio (y) = 0.10784 0.52898
# Poissons Ratio (z) = 0.15146 0.27183
#
# Static dielectric constant tensor:
#      x y z
#    x 1.719890 0.000000 0.000000 
#    y 0.000000 1.669620 0.000000 
#    z 0.000000 0.000000 1.789600 
# 
# From -- ./inp_files/26426.got.cif
#   From: 2010.05.17/outbox.cif.g08.bks.cpg/sg23_14_cif.got.tgz:26426.got - 2010.06.04 12:02:01.
