data_PCOD9330674
_publ_section_title
;
Structure prediction by ZEFSAII (Michael W. Deem and Ramdas Pophale) SiO2 
 PCOD9330674
Probable space group: I 2 2 2
;
_chemical_formula_sum "Si O2"
_cell_formula_units_Z 44
_cell_length_a 13.650221
_cell_length_b 5.590109
_cell_length_c 26.033016
_cell_angle_alpha 90.000000
_cell_angle_beta 90.000000
_cell_angle_gamma 90.000000
_cell_volume 1986.481131
_symmetry_space_group_name_H-M "I 2 2 2"
_symmetry_group_IT_number 23
_symmetry_cell_setting 'orthorhombic'
loop_
_space_group_symop_operation_xyz
x,y,z
-x,-y,z
x,-y,-z
-x,y,-z
1/2+x,1/2+y,1/2+z
1/2-x,1/2-y,1/2+z
1/2+x,1/2-y,1/2-z
1/2-x,1/2+y,1/2-z
loop_
_atom_site_type_symbol
_atom_site_label
_atom_site_fract_x
_atom_site_fract_y
_atom_site_fract_z
Si Si1 0.149691 0.148169 0.448299
Si Si2 0.500000 0.000000 0.000000
Si Si3 0.728714 0.670726 0.127823
Si Si4 0.404377 0.853837 0.670686
Si Si5 0.000000 0.000000 0.000000
Si Si6 0.343738 0.434460 0.419023
Si Si7 0.198594 0.384232 0.734109
O O1 0.066044 0.335388 0.462952
O O2 0.249446 0.281351 0.433737
O O3 0.162793 0.000000 0.500000
O O4 0.140806 0.963799 0.400955
O O5 0.805346 0.494661 0.155439
O O6 0.692435 0.846441 0.172907
O O7 0.796940 0.803005 0.085622
O O8 0.391482 0.618093 0.636607
O O9 0.398244 0.833965 0.732010
O O10 0.500000 0.000000 0.655210
O O11 0.074319 0.125513 0.960901
O O12 0.234381 0.657784 0.745225
#
# Coordination Sequence:
#
# PCOD9330674 Si02
#       7
#     8   2   8   8   2   8   8
#     4  11  24  42  69  94 128 178 230 291 364 433
#     4  12  24  44  72  96 128 168 232 296 368 434
#     4  10  21  40  67  94 132 183 233 285 354 434
#     4  10  21  37  64  98 138 182 230 291 351 421
#     4  12  22  32  62  98 140 182 222 292 336 434
#     4  11  22  40  61 100 140 183 235 281 351 425
#     4  10  20  40  68 100 134 187 235 281 353 420
#
# _framework density 22.149719999999999
#
# number of rings (size 3 to 8) (size 9 to 14) (size 15 to 20)
#    0.000    1.455    1.818    4.091    0.000    1.455 
#    0.000    3.636   12.000    4.364    0.000    0.000 
#    0.000    0.000    0.000    0.000    0.000    0.000 
#
# Total GULP energy -122604.048671 kJ/mol
# GULP energy per Si atom -5572.911303 kJ/mol
# Density = 2.209931 g / cm^3
# Si number density = 22.149720 Si / 1000 Ang^3
#
#
#
# Elastic Constant Matrix: (Units=GPa)
#
#
# Indices 1 2 3 4 5 6 
#
# 1 90.0589 24.2171 39.8342 0.0000 0.0000 0.0000
# 2 24.2171 68.8920 16.6347 0.0000 0.0000 0.0000
# 3 39.8342 16.6347 88.1407 0.0000 0.0000 0.0000
# 4 0.0000 0.0000 0.0000 -72.7672 0.0000 0.0000
# 5 0.0000 0.0000 0.0000 0.0000 5.3856 0.0000
# 6 0.0000 0.0000 0.0000 0.0000 0.0000 11.6568
#
#
#
# Elastic Compliance Matrix: (Units=1/GPa)
#
#
# Indices 1 2 3 4 5 6 
#
# 1 0.014746 -0.003745 -0.005957 0.000000 0.000000 0.000000
# 2 -0.003745 0.016160 -0.001357 0.000000 0.000000 0.000000
# 3 -0.005957 -0.001357 0.014294 0.000000 0.000000 0.000000
# 4 0.000000 0.000000 0.000000 -0.013742 0.000000 0.000000
# 5 0.000000 0.000000 0.000000 0.000000 0.185681 0.000000
# 6 0.000000 0.000000 0.000000 0.000000 0.000000 0.085787
#
#
# Mechanical properties :
#
#
# Convention : Reuss Voigt Hill
#
# Bulk Modulus (GPa) = 43.32730 45.38483 44.35607
# Shear Modulus (GPa) = 15.02682 -0.05127 7.48778
#
# Velocity S-wave (km/s) = 2.60748 -0.15230 1.84062
# Velocity P-wave (km/s) = 5.35433 4.52809 4.95845
#
# Compressibility (1/GPa) = 0.02308014
#
# Stress axis : x y z
#
# Youngs Moduli (GPa) = 67.81509 61.88240 69.95907
#
# Poissons Ratio (x) = 0.23175 0.41678
# Poissons Ratio (y) = 0.25397 0.09495
# Poissons Ratio (z) = 0.40401 0.08399
#
# Static dielectric constant tensor:
#      x y z
#    x 2.054140 0.000000 0.000000 
#    y 0.000000 1.966390 0.000000 
#    z 0.000000 0.000000 1.902230 
# 
# From -- ./inp_files/29556.got.cif
#   From: 2010.05.17/outbox.cif.g08.bks.cpg/sg23_15_cif.got.tgz:29556.got - 2010.06.04 12:02:01.
