data_PCOD9330611
_publ_section_title
;
Structure prediction by ZEFSAII (Michael W. Deem and Ramdas Pophale) SiO2 
 PCOD9330611
Probable space group: I 2 2 2
;
_chemical_formula_sum "Si O2"
_cell_formula_units_Z 48
_cell_length_a 18.044908
_cell_length_b 14.245114
_cell_length_c 9.358305
_cell_angle_alpha 90.000000
_cell_angle_beta 90.000000
_cell_angle_gamma 90.000000
_cell_volume 2405.568879
_symmetry_space_group_name_H-M "I 2 2 2"
_symmetry_group_IT_number 23
_symmetry_cell_setting 'orthorhombic'
loop_
_space_group_symop_operation_xyz
x,y,z
-x,-y,z
x,-y,-z
-x,y,-z
1/2+x,1/2+y,1/2+z
1/2-x,1/2-y,1/2+z
1/2+x,1/2-y,1/2-z
1/2-x,1/2+y,1/2-z
loop_
_atom_site_type_symbol
_atom_site_label
_atom_site_fract_x
_atom_site_fract_y
_atom_site_fract_z
Si Si1 0.166166 0.712338 0.360656
Si Si2 0.421198 0.408871 0.426965
Si Si3 0.417211 0.977503 0.833017
Si Si4 0.799004 0.430543 0.868357
Si Si5 0.127873 0.924301 0.375768
Si Si6 0.704417 0.258771 0.546615
O O1 0.107279 0.631558 0.325008
O O2 0.131130 0.812440 0.410597
O O3 0.224167 0.686895 0.485398
O O4 0.211131 0.726219 0.211260
O O5 0.386553 0.500000 0.500000
O O6 0.500000 0.393549 0.500000
O O7 0.425779 0.430411 0.259054
O O8 0.368016 0.321990 0.451297
O O9 0.500000 0.000000 0.777791
O O10 0.356949 0.040881 0.751724
O O11 0.416479 0.000000 0.000000
O O12 0.712862 0.443913 0.824533
O O13 0.805505 0.328073 0.938686
O O14 0.812645 0.500000 0.000000
O O15 0.112191 0.000000 0.500000
#
# Coordination Sequence:
#
# PCOD9330611 Si02
#       6
#     8   8   8   8   8   8
#     4  10  22  40  65 100 131 166 236 268 336 405
#     4  10  23  40  59  90 124 160 212 274 336 398
#     4  11  26  42  61  95 142 186 220 275 346 415
#     4  10  20  39  63  97 127 169 227 271 327 396
#     4   9  21  40  67  93 127 171 218 281 333 393
#     4  10  22  38  66  97 127 176 218 282 325 391
#
# _framework density 19.953699
#
# number of rings (size 3 to 8) (size 9 to 14) (size 15 to 20)
#    0.000    2.000    1.667    0.000    9.333    3.000 
#    0.000    1.667    7.333    0.000    0.000    0.000 
#    0.000    0.000    0.000    0.000    0.000    0.000 
#
# Total GULP energy -133871.578055 kJ/mol
# GULP energy per Si atom -5577.982419 kJ/mol
# Density = 1.990828 g / cm^3
# Si number density = 19.953699 Si / 1000 Ang^3
#
#
#
# Elastic Constant Matrix: (Units=GPa)
#
#
# Indices 1 2 3 4 5 6 
#
# 1 92.9742 44.4409 62.0712 0.0000 0.0000 0.0000
# 2 44.4409 94.8966 37.1963 0.0000 0.0000 0.0000
# 3 62.0712 37.1963 95.0209 0.0000 0.0000 0.0000
# 4 0.0000 0.0000 0.0000 33.8726 0.0000 0.0000
# 5 0.0000 0.0000 0.0000 0.0000 25.2281 0.0000
# 6 0.0000 0.0000 0.0000 0.0000 0.0000 49.2212
#
#
#
# Elastic Compliance Matrix: (Units=1/GPa)
#
#
# Indices 1 2 3 4 5 6 
#
# 1 0.021108 -0.005292 -0.011717 0.000000 0.000000 0.000000
# 2 -0.005292 0.013775 -0.001935 0.000000 0.000000 0.000000
# 3 -0.011717 -0.001935 0.018935 0.000000 0.000000 0.000000
# 4 0.000000 0.000000 0.000000 0.029522 0.000000 0.000000
# 5 0.000000 0.000000 0.000000 0.000000 0.039638 0.000000
# 6 0.000000 0.000000 0.000000 0.000000 0.000000 0.020316
#
#
# Mechanical properties :
#
#
# Convention : Reuss Voigt Hill
#
# Bulk Modulus (GPa) = 62.77614 63.36763 63.07188
# Shear Modulus (GPa) = 26.81076 30.94324 28.87700
#
# Velocity S-wave (km/s) = 3.66956 3.94223 3.80834
# Velocity P-wave (km/s) = 7.03444 7.24899 7.14252
#
# Compressibility (1/GPa) = 0.01592962
#
# Stress axis : x y z
#
# Youngs Moduli (GPa) = 47.37640 72.59691 52.81190
#
# Poissons Ratio (x) = 0.38421 0.61877
# Poissons Ratio (y) = 0.25073 0.10219
# Poissons Ratio (z) = 0.55509 0.14047
#
# Static dielectric constant tensor:
#      x y z
#    x 1.712220 0.000000 0.000000 
#    y 0.000000 1.754970 0.000000 
#    z 0.000000 0.000000 1.678570 
# 
# From -- ./inp_files/11051.got.cif
#   From: 2010.05.17/outbox.cif.g08.bks.cpg/sg23_6_cif.got.tgz:11051.got - 2010.06.04 12:02:01.
