data_PCOD9330515
_publ_section_title
;
Structure prediction by ZEFSAII (Michael W. Deem and Ramdas Pophale) SiO2 
 PCOD9330515
Probable space group: I 2 2 2
;
_chemical_formula_sum "Si O2"
_cell_formula_units_Z 24
_cell_length_a 16.106597
_cell_length_b 4.959755
_cell_length_c 12.052668
_cell_angle_alpha 90.000000
_cell_angle_beta 90.000000
_cell_angle_gamma 90.000000
_cell_volume 962.824671
_symmetry_space_group_name_H-M "I 2 2 2"
_symmetry_group_IT_number 23
_symmetry_cell_setting 'orthorhombic'
loop_
_space_group_symop_operation_xyz
x,y,z
-x,-y,z
x,-y,-z
-x,y,-z
1/2+x,1/2+y,1/2+z
1/2-x,1/2-y,1/2+z
1/2+x,1/2-y,1/2-z
1/2-x,1/2+y,1/2-z
loop_
_atom_site_type_symbol
_atom_site_label
_atom_site_fract_x
_atom_site_fract_y
_atom_site_fract_z
Si Si1 0.055851 0.755804 0.326361
Si Si2 0.234508 0.940763 0.318959
Si Si3 0.885334 0.735792 0.925173
O O1 0.150457 0.808556 0.366034
O O2 0.068740 0.760872 0.192395
O O3 0.000000 0.500000 0.355755
O O4 0.000000 0.000000 0.362908
O O5 0.285433 0.679105 0.272282
O O6 0.293776 0.122487 0.393977
O O7 0.919763 0.500000 0.000000
O O8 0.884474 0.000000 0.000000
#
# Coordination Sequence:
#
# PCOD9330515 Si02
#       3
#     8   8   8
#     4  11  22  36  57  86 120 158 197 245 302 359
#     4  10  20  38  58  81 118 165 212 242 282 364
#     4  11  22  36  57  86 120 158 197 245 302 359
#
# _framework density 24.926658
#
# number of rings (size 3 to 8) (size 9 to 14) (size 15 to 20)
#    0.000    1.333    0.000   10.000    0.000    4.000 
#    0.000    0.000    0.000    1.000    0.000   23.333 
#    0.000    0.000    0.000    0.000    0.000    0.000 
#
# Total GULP energy -67038.830951 kJ/mol
# GULP energy per Si atom -5586.569246 kJ/mol
# Density = 2.486992 g / cm^3
# Si number density = 24.926658 Si / 1000 Ang^3
#
#
#
# Elastic Constant Matrix: (Units=GPa)
#
#
# Indices 1 2 3 4 5 6 
#
# 1 165.7272 73.7204 -3.8346 0.0000 0.0000 0.0000
# 2 73.7204 246.1362 16.7961 0.0000 0.0000 0.0000
# 3 -3.8346 16.7961 48.0339 0.0000 0.0000 0.0000
# 4 0.0000 0.0000 0.0000 38.6105 0.0000 0.0000
# 5 0.0000 0.0000 0.0000 0.0000 208.0482 0.0000
# 6 0.0000 0.0000 0.0000 0.0000 0.0000 78.9548
#
#
#
# Elastic Compliance Matrix: (Units=1/GPa)
#
#
# Indices 1 2 3 4 5 6 
#
# 1 0.007044 -0.002201 0.001332 0.000000 0.000000 0.000000
# 2 -0.002201 0.004850 -0.001871 0.000000 0.000000 0.000000
# 3 0.001332 -0.001871 0.021579 0.000000 0.000000 0.000000
# 4 0.000000 0.000000 0.000000 0.025900 0.000000 0.000000
# 5 0.000000 0.000000 0.000000 0.000000 0.004807 0.000000
# 6 0.000000 0.000000 0.000000 0.000000 0.000000 0.012665
#
#
# Mechanical properties :
#
#
# Convention : Reuss Voigt Hill
#
# Bulk Modulus (GPa) = 35.72424 70.36234 53.04329
# Shear Modulus (GPa) = 54.55212 90.00372 72.27792
#
# Velocity S-wave (km/s) = 4.68322 6.01546 5.39066
# Velocity P-wave (km/s) = 6.60350 8.74853 7.75058
#
# Compressibility (1/GPa) = 0.02799220
#
# Stress axis : x y z
#
# Youngs Moduli (GPa) = 141.97103 206.20347 46.34065
#
# Poissons Ratio (x) = 0.45376 -0.06171
# Poissons Ratio (y) = 0.31241 0.08672
# Poissons Ratio (z) = -0.18907 0.38589
#
# Static dielectric constant tensor:
#      x y z
#    x 1.955780 0.000000 0.000000 
#    y 0.000000 1.841630 0.000000 
#    z 0.000000 0.000000 2.228520 
# 
# From -- ./inp_files/1117.got.cif
#   From: 2010.05.17/outbox.cif.g08.bks.cpg/sg23_1_cif.got.tgz:1117.got - 2010.06.04 12:02:01.
