data_PCOD9330919
_publ_section_title
;
Structure prediction by ZEFSAII (Michael W. Deem and Ramdas Pophale) SiO2 
 PCOD9330919
Probable space group: I 2 2 2
;
_chemical_formula_sum "Si O2"
_cell_formula_units_Z 64
_cell_length_a 15.620352
_cell_length_b 15.065253
_cell_length_c 11.580021
_cell_angle_alpha 90.000000
_cell_angle_beta 90.000000
_cell_angle_gamma 90.000000
_cell_volume 2725.063287
_symmetry_space_group_name_H-M "I 2 2 2"
_symmetry_group_IT_number 23
_symmetry_cell_setting 'orthorhombic'
loop_
_space_group_symop_operation_xyz
x,y,z
-x,-y,z
x,-y,-z
-x,y,-z
1/2+x,1/2+y,1/2+z
1/2-x,1/2-y,1/2+z
1/2+x,1/2-y,1/2-z
1/2-x,1/2+y,1/2-z
loop_
_atom_site_type_symbol
_atom_site_label
_atom_site_fract_x
_atom_site_fract_y
_atom_site_fract_z
Si Si1 0.630409 0.321630 0.748452
Si Si2 0.906118 0.590140 0.550760
Si Si3 0.533883 0.403611 0.168039
Si Si4 0.148391 0.235497 0.425171
Si Si5 0.348272 0.483479 0.639121
Si Si6 0.673889 0.173543 0.308250
Si Si7 0.344719 0.184084 0.437376
Si Si8 0.671406 0.964847 0.266401
O O1 0.546784 0.337670 0.824403
O O2 0.643152 0.417057 0.688013
O O3 0.723215 0.304153 0.807600
O O4 0.609530 0.247333 0.653900
O O5 0.862003 0.500000 0.500000
O O6 0.870746 0.684719 0.512461
O O7 0.902596 0.574711 0.686110
O O8 0.000000 0.590045 0.500000
O O9 0.500000 0.500000 0.131756
O O10 0.599648 0.358055 0.079563
O O11 0.579569 0.424425 0.293692
O O12 0.132156 0.274722 0.297170
O O13 0.248087 0.219113 0.434032
O O14 0.351803 0.500000 0.500000
O O15 0.258906 0.445825 0.692949
O O16 0.629622 0.191291 0.430257
O O17 0.666810 0.069307 0.282270
O O18 0.336437 0.085369 0.387073
#
# Coordination Sequence:
#
# PCOD9330919 Si02
#       8
#     8   8   8   8   8   8   8   8
#     4   9  23  38  62  94 133 174 224 276 336 415
#     4  11  25  44  72  99 129 173 229 298 351 405
#     4  10  22  43  62  96 145 178 222 282 356 422
#     4  11  24  41  68 100 132 176 230 288 340 430
#     4  10  21  37  66  94 130 174 222 277 340 415
#     4  10  23  43  63  96 135 173 229 287 344 412
#     4  11  24  39  68  98 132 181 229 285 349 419
#     4  11  22  43  68  98 129 176 229 287 353 419
#
# _framework density 23.485693000000001
#
# number of rings (size 3 to 8) (size 9 to 14) (size 15 to 20)
#    0.000    1.625    2.500    0.750   10.500    2.250 
#    0.000    0.000    0.000    0.750    0.000    0.000 
#    0.000    0.000    0.000    0.000    0.000    0.000 
#
# Total GULP energy -178816.795934 kJ/mol
# GULP energy per Si atom -5588.024873 kJ/mol
# Density = 2.343224 g / cm^3
# Si number density = 23.485693 Si / 1000 Ang^3
#
#
#
# Elastic Constant Matrix: (Units=GPa)
#
#
# Indices 1 2 3 4 5 6 
#
# 1 34.2427 8.6594 -15.9424 0.0000 0.0000 0.0000
# 2 8.6594 108.8373 22.3820 0.0000 0.0000 0.0000
# 3 -15.9424 22.3820 113.5540 0.0000 0.0000 0.0000
# 4 0.0000 0.0000 0.0000 32.8437 0.0000 0.0000
# 5 0.0000 0.0000 0.0000 0.0000 12.6121 0.0000
# 6 0.0000 0.0000 0.0000 0.0000 0.0000 26.5393
#
#
#
# Elastic Compliance Matrix: (Units=1/GPa)
#
#
# Indices 1 2 3 4 5 6 
#
# 1 0.032604 -0.003685 0.005304 0.000000 0.000000 0.000000
# 2 -0.003685 0.009993 -0.002487 0.000000 0.000000 0.000000
# 3 0.005304 -0.002487 0.010041 0.000000 0.000000 0.000000
# 4 0.000000 0.000000 0.000000 0.030447 0.000000 0.000000
# 5 0.000000 0.000000 0.000000 0.000000 0.079289 0.000000
# 6 0.000000 0.000000 0.000000 0.000000 0.000000 0.037680
#
#
# Mechanical properties :
#
#
# Convention : Reuss Voigt Hill
#
# Bulk Modulus (GPa) = 19.64546 31.87023 25.75785
# Shear Modulus (GPa) = 22.85631 30.50134 26.67882
#
# Velocity S-wave (km/s) = 3.12300 3.60769 3.37406
# Velocity P-wave (km/s) = 4.62463 5.56358 5.11569
#
# Compressibility (1/GPa) = 0.05090234
#
# Stress axis : x y z
#
# Youngs Moduli (GPa) = 30.67070 100.07379 99.58981
#
# Poissons Ratio (x) = 0.36875 -0.52820
# Poissons Ratio (y) = 0.11302 0.24767
# Poissons Ratio (z) = -0.16267 0.24888
#
# Static dielectric constant tensor:
#      x y z
#    x 1.868650 0.000000 0.000000 
#    y 0.000000 1.891660 0.000000 
#    z 0.000000 0.000000 1.971560 
# 
# From -- ./inp_files/17578.got.cif
#   From: 2010.05.17/outbox.cif.g08.bks.cpg/sg23_9_cif.got.tgz:17578.got - 2010.06.04 12:02:01.
