data_PCOD9330530
_publ_section_title
;
Structure prediction by ZEFSAII (Michael W. Deem and Ramdas Pophale) SiO2 
 PCOD9330530
Probable space group: I 2 2 2
;
_chemical_formula_sum "Si O2"
_cell_formula_units_Z 48
_cell_length_a 8.005608
_cell_length_b 18.847424
_cell_length_c 13.360044
_cell_angle_alpha 90.000000
_cell_angle_beta 90.000000
_cell_angle_gamma 90.000000
_cell_volume 2015.831419
_symmetry_space_group_name_H-M "I 2 2 2"
_symmetry_group_IT_number 23
_symmetry_cell_setting 'orthorhombic'
loop_
_space_group_symop_operation_xyz
x,y,z
-x,-y,z
x,-y,-z
-x,y,-z
1/2+x,1/2+y,1/2+z
1/2-x,1/2-y,1/2+z
1/2+x,1/2-y,1/2-z
1/2-x,1/2+y,1/2-z
loop_
_atom_site_type_symbol
_atom_site_label
_atom_site_fract_x
_atom_site_fract_y
_atom_site_fract_z
Si Si1 0.792335 0.061480 0.174859
Si Si2 0.239101 0.787765 0.852962
Si Si3 0.000000 0.239926 0.500000
Si Si4 0.000000 0.127036 0.000000
Si Si5 0.241894 0.617678 0.045302
Si Si6 0.862724 0.084750 0.735924
Si Si7 0.390113 0.870331 0.339987
O O1 0.629693 0.090152 0.233523
O O2 0.861484 0.083449 0.065282
O O3 0.942285 0.093086 0.242973
O O4 0.800529 0.977152 0.190402
O O5 0.415760 0.783146 0.909911
O O6 0.230287 0.842464 0.762399
O O7 0.177368 0.709468 0.825513
O O8 0.105790 0.822353 0.928369
O O9 0.852105 0.189253 0.539238
O O10 0.334751 0.565876 0.121279
O O11 0.066856 0.630260 0.102484
O O12 0.217465 0.595118 0.930926
#
# Coordination Sequence:
#
# PCOD9330530 Si02
#       7
#     8   8   4   4   8   8   8
#     4  10  23  42  64  91 128 174 222 272 332 404
#     4  10  21  36  61  93 125 169 222 276 335 399
#     4  10  20  38  60  92 132 172 218 286 342 394
#     4  10  22  43  66  92 130 177 226 280 334 399
#     4  10  21  38  61  92 133 171 217 275 343 404
#     4  10  22  38  61  92 125 171 219 270 333 403
#     4  10  22  39  62  94 130 173 220 275 339 407
#
# _framework density 23.811513000000001
#
# number of rings (size 3 to 8) (size 9 to 14) (size 15 to 20)
#    0.000    2.000    0.000    4.000    0.000   14.667 
#    0.000    3.333    0.000    1.000    0.000    0.000 
#    0.000    0.000    0.000    0.000    0.000    0.000 
#
# Total GULP energy -133943.848151 kJ/mol
# GULP energy per Si atom -5580.993673 kJ/mol
# Density = 2.375732 g / cm^3
# Si number density = 23.811513 Si / 1000 Ang^3
#
#
#
# Elastic Constant Matrix: (Units=GPa)
#
#
# Indices 1 2 3 4 5 6 
#
# 1 65.8185 -8.5457 18.5651 0.0000 0.0000 0.0000
# 2 -8.5457 27.1086 18.8364 0.0000 0.0000 0.0000
# 3 18.5651 18.8364 108.5044 0.0000 0.0000 0.0000
# 4 0.0000 0.0000 0.0000 10.6381 0.0000 0.0000
# 5 0.0000 0.0000 0.0000 0.0000 40.3882 0.0000
# 6 0.0000 0.0000 0.0000 0.0000 0.0000 24.4261
#
#
#
# Elastic Compliance Matrix: (Units=1/GPa)
#
#
# Indices 1 2 3 4 5 6 
#
# 1 0.017596 0.008687 -0.004519 0.000000 0.000000 0.000000
# 2 0.008687 0.046237 -0.009513 0.000000 0.000000 0.000000
# 3 -0.004519 -0.009513 0.011641 0.000000 0.000000 0.000000
# 4 0.000000 0.000000 0.000000 0.094002 0.000000 0.000000
# 5 0.000000 0.000000 0.000000 0.000000 0.024760 0.000000
# 6 0.000000 0.000000 0.000000 0.000000 0.000000 0.040940
#
#
# Mechanical properties :
#
#
# Convention : Reuss Voigt Hill
#
# Bulk Modulus (GPa) = 15.43606 28.79370 22.11488
# Shear Modulus (GPa) = 18.69443 26.59553 22.64498
#
# Velocity S-wave (km/s) = 2.80500 3.34566 3.08719
# Velocity P-wave (km/s) = 4.12158 5.20031 4.69205
#
# Compressibility (1/GPa) = 0.06478337
#
# Stress axis : x y z
#
# Youngs Moduli (GPa) = 56.83214 21.62767 85.90454
#
# Poissons Ratio (x) = -0.18787 0.38817
# Poissons Ratio (y) = -0.49368 0.81721
# Poissons Ratio (z) = 0.25680 0.20575
#
# Static dielectric constant tensor:
#      x y z
#    x 5.944610 0.000000 0.000000 
#    y 0.000000 1.900980 0.000000 
#    z 0.000000 0.000000 2.114760 
# 
# From -- ./inp_files/20024.got.cif
#   From: 2010.05.17/outbox.cif.g08.bks.cpg/sg23_11_cif.got.tgz:20024.got - 2010.06.04 12:02:01.
