data_PCOD9330797
_publ_section_title
;
Structure prediction by ZEFSAII (Michael W. Deem and Ramdas Pophale) SiO2 
 PCOD9330797
Probable space group: I 2 2 2
;
_chemical_formula_sum "Si O2"
_cell_formula_units_Z 46
_cell_length_a 18.196233
_cell_length_b 7.058305
_cell_length_c 16.666937
_cell_angle_alpha 90.000000
_cell_angle_beta 90.000000
_cell_angle_gamma 90.000000
_cell_volume 2140.610760
_symmetry_space_group_name_H-M "I 2 2 2"
_symmetry_group_IT_number 23
_symmetry_cell_setting 'orthorhombic'
loop_
_space_group_symop_operation_xyz
x,y,z
-x,-y,z
x,-y,-z
-x,y,-z
1/2+x,1/2+y,1/2+z
1/2-x,1/2-y,1/2+z
1/2+x,1/2-y,1/2-z
1/2-x,1/2+y,1/2-z
loop_
_atom_site_type_symbol
_atom_site_label
_atom_site_fract_x
_atom_site_fract_y
_atom_site_fract_z
Si Si1 0.682677 0.500000 0.000000
Si Si2 0.321014 0.405291 0.828581
Si Si3 0.829203 0.545465 0.232331
Si Si4 0.933771 0.695960 0.546937
Si Si5 0.565438 0.713977 0.222393
Si Si6 0.042328 0.698433 0.868588
Si Si7 0.500000 0.500000 0.500000
O O1 0.713553 0.582391 0.917917
O O2 0.636064 0.326689 0.963884
O O3 0.256071 0.500016 0.777831
O O4 0.335739 0.189016 0.806370
O O5 0.396057 0.518875 0.806642
O O6 0.870187 0.348619 0.245206
O O7 0.875362 0.647693 0.161028
O O8 0.921743 0.500000 0.500000
O O9 0.957714 0.687861 0.639049
O O10 0.000000 0.792107 0.500000
O O11 0.503902 0.721248 0.291574
O O12 0.000000 0.500000 0.890314
O O13 0.041414 0.854272 0.939299
#
# Coordination Sequence:
#
# PCOD9330797 Si02
#       7
#     4   8   8   8   8   8   2
#     4  10  23  38  52  88 125 160 194 252 298 362
#     4  11  22  40  63  89 125 166 206 254 309 382
#     4  11  22  41  65  91 121 169 209 256 312 376
#     4  10  21  34  60  94 127 159 191 244 299 374
#     4  10  22  41  64  95 126 164 210 248 322 374
#     4  10  24  41  69  94 125 165 211 278 315 380
#     4  12  22  48  64  98 122 160 226 282 336 354
#
# _framework density 21.489194999999999
#
# number of rings (size 3 to 8) (size 9 to 14) (size 15 to 20)
#    0.000    1.565    1.739    2.609    9.739    0.000 
#    6.261    0.000    1.913    0.000    0.000    0.000 
#    0.000    0.000    0.000    0.000    0.000    0.000 
#
# Total GULP energy -128189.720478 kJ/mol
# GULP energy per Si atom -5573.466108 kJ/mol
# Density = 2.144028 g / cm^3
# Si number density = 21.489195 Si / 1000 Ang^3
#
#
#
# Elastic Constant Matrix: (Units=GPa)
#
#
# Indices 1 2 3 4 5 6 
#
# 1 37.1311 -3.4472 -5.4594 0.0000 0.0000 0.0000
# 2 -3.4472 78.1575 15.2429 0.0000 0.0000 0.0000
# 3 -5.4594 15.2429 95.2605 0.0000 0.0000 0.0000
# 4 0.0000 0.0000 0.0000 42.0817 0.0000 0.0000
# 5 0.0000 0.0000 0.0000 0.0000 7.2627 0.0000
# 6 0.0000 0.0000 0.0000 0.0000 0.0000 37.2529
#
#
#
# Elastic Compliance Matrix: (Units=1/GPa)
#
#
# Indices 1 2 3 4 5 6 
#
# 1 0.027225 0.000925 0.001412 0.000000 0.000000 0.000000
# 2 0.000925 0.013238 -0.002065 0.000000 0.000000 0.000000
# 3 0.001412 -0.002065 0.010909 0.000000 0.000000 0.000000
# 4 0.000000 0.000000 0.000000 0.023763 0.000000 0.000000
# 5 0.000000 0.000000 0.000000 0.000000 0.137690 0.000000
# 6 0.000000 0.000000 0.000000 0.000000 0.000000 0.026844
#
#
# Mechanical properties :
#
#
# Convention : Reuss Voigt Hill
#
# Bulk Modulus (GPa) = 19.26154 24.80242 22.03198
# Shear Modulus (GPa) = 19.49852 30.93366 25.21609
#
# Velocity S-wave (km/s) = 3.01552 3.79819 3.42925
# Velocity P-wave (km/s) = 4.59426 5.54994 5.09456
#
# Compressibility (1/GPa) = 0.05191694
#
# Stress axis : x y z
#
# Youngs Moduli (GPa) = 36.73078 75.53850 91.66799
#
# Poissons Ratio (x) = -0.06990 -0.12945
# Poissons Ratio (y) = -0.03399 0.18932
# Poissons Ratio (z) = -0.05187 0.15601
#
# Static dielectric constant tensor:
#      x y z
#    x 1.778670 0.000000 0.000000 
#    y 0.000000 1.826590 0.000000 
#    z 0.000000 0.000000 1.825310 
# 
# From -- ./inp_files/22337.got.cif
#   From: 2010.05.17/outbox.cif.g08.bks.cpg/sg23_12_cif.got.tgz:22337.got - 2010.06.04 12:02:01.
