data_PCOD9330384
_publ_section_title
;
Structure prediction by ZEFSAII (Michael W. Deem and Ramdas Pophale) SiO2 
 PCOD9330384
Probable space group: I 2 2 2
;
_chemical_formula_sum "Si O2"
_cell_formula_units_Z 52
_cell_length_a 8.680386
_cell_length_b 25.665657
_cell_length_c 12.914420
_cell_angle_alpha 90.000000
_cell_angle_beta 90.000000
_cell_angle_gamma 90.000000
_cell_volume 2877.175345
_symmetry_space_group_name_H-M "I 2 2 2"
_symmetry_group_IT_number 23
_symmetry_cell_setting 'orthorhombic'
loop_
_space_group_symop_operation_xyz
x,y,z
-x,-y,z
x,-y,-z
-x,y,-z
1/2+x,1/2+y,1/2+z
1/2-x,1/2-y,1/2+z
1/2+x,1/2-y,1/2-z
1/2-x,1/2+y,1/2-z
loop_
_atom_site_type_symbol
_atom_site_label
_atom_site_fract_x
_atom_site_fract_y
_atom_site_fract_z
Si Si1 0.053407 0.139563 0.223695
Si Si2 0.755971 0.740118 0.976514
Si Si3 0.436138 0.442058 0.892000
Si Si4 0.111277 0.664171 0.184263
Si Si5 0.544111 0.741579 0.169353
Si Si6 0.935239 0.445228 0.115737
Si Si7 0.000000 0.831003 0.000000
O O1 0.007286 0.091041 0.294479
O O2 0.229052 0.150686 0.257532
O O3 0.962095 0.190370 0.260960
O O4 0.036703 0.135397 0.101317
O O5 0.690443 0.736557 0.092991
O O6 0.847574 0.691122 0.926566
O O7 0.606946 0.744116 0.902658
O O8 0.860000 0.791537 0.975005
O O9 0.500000 0.500000 0.886389
O O10 0.250771 0.445398 0.891859
O O11 0.500000 0.418241 0.000000
O O12 0.024009 0.609442 0.170952
O O13 0.040080 0.708789 0.255747
O O14 0.000000 0.500000 0.160595
O O15 0.000000 0.442456 0.000000
#
# Coordination Sequence:
#
# PCOD9330384 Si02
#       7
#     8   8   8   8   8   8   4
#     4  10  22  34  57  83 117 150 187 237 282 344
#     4  10  22  34  55  80 118 152 183 240 275 353
#     4  10  21  40  60  83 113 146 187 237 295 343
#     4  10  20  36  56  83 115 153 185 236 287 345
#     4  10  20  38  53  85 115 151 195 220 296 340
#     4  10  21  37  54  84 112 147 187 235 289 340
#     4  12  20  38  51  84 117 148 194 226 284 334
#
# _framework density 18.073283
#
# number of rings (size 3 to 8) (size 9 to 14) (size 15 to 20)
#    0.000    1.846    3.077    1.846    7.538    0.000 
#    5.538    0.385    0.000    0.000    0.000    2.154 
#    0.000    0.000    0.000    0.000    0.000    0.000 
#
# Total GULP energy -145044.520538 kJ/mol
# GULP energy per Si atom -5578.635405 kJ/mol
# Density = 1.803215 g / cm^3
# Si number density = 18.073283 Si / 1000 Ang^3
#
#
#
# Elastic Constant Matrix: (Units=GPa)
#
#
# Indices 1 2 3 4 5 6 
#
# 1 36.5616 13.5578 26.1023 0.0000 0.0000 0.0000
# 2 13.5578 119.8485 68.0551 0.0000 0.0000 0.0000
# 3 26.1023 68.0551 126.4579 0.0000 0.0000 0.0000
# 4 0.0000 0.0000 0.0000 31.2368 0.0000 0.0000
# 5 0.0000 0.0000 0.0000 0.0000 14.0083 0.0000
# 6 0.0000 0.0000 0.0000 0.0000 0.0000 16.4872
#
#
#
# Elastic Compliance Matrix: (Units=1/GPa)
#
#
# Indices 1 2 3 4 5 6 
#
# 1 0.032081 0.000189 -0.006723 0.000000 0.000000 0.000000
# 2 0.000189 0.012017 -0.006506 0.000000 0.000000 0.000000
# 3 -0.006723 -0.006506 0.012797 0.000000 0.000000 0.000000
# 4 0.000000 0.000000 0.000000 0.032013 0.000000 0.000000
# 5 0.000000 0.000000 0.000000 0.000000 0.071386 0.000000
# 6 0.000000 0.000000 0.000000 0.000000 0.000000 0.060653
#
#
# Mechanical properties :
#
#
# Convention : Reuss Voigt Hill
#
# Bulk Modulus (GPa) = 32.45337 55.36647 43.90992
# Shear Modulus (GPa) = 19.43254 24.02333 21.72793
#
# Velocity S-wave (km/s) = 3.28259 3.64980 3.47106
# Velocity P-wave (km/s) = 5.68883 6.96149 6.35709
#
# Compressibility (1/GPa) = 0.03081345
#
# Stress axis : x y z
#
# Youngs Moduli (GPa) = 31.17087 83.21604 78.14402
#
# Poissons Ratio (x) = -0.01570 0.52540
# Poissons Ratio (y) = -0.00588 0.50841
# Poissons Ratio (z) = 0.20958 0.54141
#
# Static dielectric constant tensor:
#      x y z
#    x 1.667390 0.000000 0.000000 
#    y 0.000000 1.632850 0.000000 
#    z 0.000000 0.000000 1.639740 
# 
# From -- ./inp_files/13009.got.cif
#   From: 2010.05.17/outbox.cif.g08.bks.cpg/sg23_7_cif.got.tgz:13009.got - 2010.06.04 12:02:01.
