data_PCOD9330868
_publ_section_title
;
Structure prediction by ZEFSAII (Michael W. Deem and Ramdas Pophale) SiO2 
 PCOD9330868
Probable space group: I 2 2 2
;
_chemical_formula_sum "Si O2"
_cell_formula_units_Z 64
_cell_length_a 21.982777
_cell_length_b 17.186105
_cell_length_c 9.036857
_cell_angle_alpha 90.000000
_cell_angle_beta 90.000000
_cell_angle_gamma 90.000000
_cell_volume 3414.109336
_symmetry_space_group_name_H-M "I 2 2 2"
_symmetry_group_IT_number 23
_symmetry_cell_setting 'orthorhombic'
loop_
_space_group_symop_operation_xyz
x,y,z
-x,-y,z
x,-y,-z
-x,y,-z
1/2+x,1/2+y,1/2+z
1/2-x,1/2-y,1/2+z
1/2+x,1/2-y,1/2-z
1/2-x,1/2+y,1/2-z
loop_
_atom_site_type_symbol
_atom_site_label
_atom_site_fract_x
_atom_site_fract_y
_atom_site_fract_z
Si Si1 0.357470 0.890131 0.600544
Si Si2 0.223267 0.956153 0.641270
Si Si3 0.298155 0.331023 0.638559
Si Si4 0.264582 0.392240 0.327131
Si Si5 0.435701 0.956788 0.856090
Si Si6 0.063800 0.291475 0.487445
Si Si7 0.862914 0.326262 0.791890
Si Si8 0.169232 0.249365 0.690389
O O1 0.288360 0.920961 0.591892
O O2 0.394971 0.946420 0.710199
O O3 0.378865 0.879583 0.432473
O O4 0.356190 0.804800 0.678504
O O5 0.189521 0.884986 0.719708
O O6 0.195703 0.000000 0.500000
O O7 0.234264 0.021331 0.765253
O O8 0.290924 0.382210 0.491512
O O9 0.342893 0.257754 0.643588
O O10 0.230893 0.293677 0.646883
O O11 0.196035 0.359669 0.297525
O O12 0.309021 0.335601 0.235090
O O13 0.445105 0.869438 0.914944
O O14 0.500000 0.000000 0.829410
O O15 0.406311 0.000000 0.000000
O O16 0.082813 0.316104 0.323207
O O17 0.120722 0.248244 0.559939
O O18 0.000000 0.247699 0.500000
#
# Coordination Sequence:
#
# PCOD9330868 Si02
#       8
#     8   8   8   8   8   8   8   8
#     4  10  21  37  56  82 117 157 206 246 286 346
#     4  11  23  32  53  91 120 144 188 244 308 371
#     4  10  21  37  57  83 118 156 197 238 310 364
#     4  11  20  35  57  83 121 153 192 245 310 365
#     4  10  21  39  59  73 112 163 207 244 293 336
#     4  11  22  38  59  82 111 160 212 244 290 352
#     4  11  22  37  60  85 115 162 208 253 294 358
#     4   9  20  35  57  80 111 159 199 241 289 359
#
# _framework density 18.745739
#
# number of rings (size 3 to 8) (size 9 to 14) (size 15 to 20)
#    0.000    1.625    5.000    0.375    3.500    0.000 
#    0.000    3.125    2.750    0.000    0.000    1.750 
#    0.000    2.000    0.000    0.000    0.000    0.000 
#
# Total GULP energy -178551.880889 kJ/mol
# GULP energy per Si atom -5579.746278 kJ/mol
# Density = 1.870307 g / cm^3
# Si number density = 18.745739 Si / 1000 Ang^3
#
#
#
# Elastic Constant Matrix: (Units=GPa)
#
#
# Indices 1 2 3 4 5 6 
#
# 1 49.8067 11.1496 32.0682 0.0000 0.0000 0.0000
# 2 11.1496 51.6040 24.5350 0.0000 0.0000 0.0000
# 3 32.0682 24.5350 105.9242 0.0000 0.0000 0.0000
# 4 0.0000 0.0000 0.0000 32.3118 0.0000 0.0000
# 5 0.0000 0.0000 0.0000 0.0000 13.0944 0.0000
# 6 0.0000 0.0000 0.0000 0.0000 0.0000 18.1576
#
#
#
# Elastic Compliance Matrix: (Units=1/GPa)
#
#
# Indices 1 2 3 4 5 6 
#
# 1 0.025128 -0.002037 -0.007136 0.000000 0.000000 0.000000
# 2 -0.002037 0.021942 -0.004466 0.000000 0.000000 0.000000
# 3 -0.007136 -0.004466 0.012635 0.000000 0.000000 0.000000
# 4 0.000000 0.000000 0.000000 0.030948 0.000000 0.000000
# 5 0.000000 0.000000 0.000000 0.000000 0.076368 0.000000
# 6 0.000000 0.000000 0.000000 0.000000 0.000000 0.055073
#
#
# Mechanical properties :
#
#
# Convention : Reuss Voigt Hill
#
# Bulk Modulus (GPa) = 30.83659 38.09340 34.46499
# Shear Modulus (GPa) = 19.21744 22.01825 20.61784
#
# Velocity S-wave (km/s) = 3.20529 3.43092 3.32002
# Velocity P-wave (km/s) = 5.49401 6.00501 5.75519
#
# Compressibility (1/GPa) = 0.03242901
#
# Stress axis : x y z
#
# Youngs Moduli (GPa) = 39.79648 45.57552 79.14266
#
# Poissons Ratio (x) = 0.09281 0.56474
# Poissons Ratio (y) = 0.08105 0.35343
# Poissons Ratio (z) = 0.28397 0.20353
#
# Static dielectric constant tensor:
#      x y z
#    x 1.641190 0.000000 0.000000 
#    y 0.000000 1.659230 0.000000 
#    z 0.000000 0.000000 1.723660 
# 
# From -- ./inp_files/12178.got.cif
#   From: 2010.05.17/outbox.cif.g08.bks.cpg/sg23_7_cif.got.tgz:12178.got - 2010.06.04 12:02:01.
