data_PCOD9330481
_publ_section_title
;
Structure prediction by ZEFSAII (Michael W. Deem and Ramdas Pophale) SiO2 
 PCOD9330481
Probable space group: I 2 2 2
;
_chemical_formula_sum "Si O2"
_cell_formula_units_Z 40
_cell_length_a 8.701622
_cell_length_b 19.031202
_cell_length_c 11.508007
_cell_angle_alpha 90.000000
_cell_angle_beta 90.000000
_cell_angle_gamma 90.000000
_cell_volume 1905.752727
_symmetry_space_group_name_H-M "I 2 2 2"
_symmetry_group_IT_number 23
_symmetry_cell_setting 'orthorhombic'
loop_
_space_group_symop_operation_xyz
x,y,z
-x,-y,z
x,-y,-z
-x,y,-z
1/2+x,1/2+y,1/2+z
1/2-x,1/2-y,1/2+z
1/2+x,1/2-y,1/2-z
1/2-x,1/2+y,1/2-z
loop_
_atom_site_type_symbol
_atom_site_label
_atom_site_fract_x
_atom_site_fract_y
_atom_site_fract_z
Si Si1 0.024621 0.720351 0.814275
Si Si2 0.500000 0.405268 0.000000
Si Si3 0.000000 0.000000 0.706629
Si Si4 0.383564 0.856104 0.090687
Si Si5 0.540374 0.378115 0.636551
Si Si6 0.248437 0.207873 0.488995
O O1 0.023954 0.673740 0.700445
O O2 0.000649 0.804239 0.801908
O O3 0.888718 0.700459 0.900752
O O4 0.184274 0.706460 0.881309
O O5 0.425967 0.449596 0.106641
O O6 0.632095 0.353357 0.040968
O O7 0.949403 0.060073 0.797905
O O8 0.225387 0.892467 0.134527
O O9 0.323231 0.784578 0.029375
O O10 0.500000 0.892514 0.000000
O O11 0.500000 0.371425 0.500000
#
# Coordination Sequence:
#
# PCOD9330481 Si02
#       6
#     8   4   4   8   8   8
#     4  10  21  38  60  96 124 157 197 267 331 361
#     4  11  22  40  64  94 116 159 212 254 306 365
#     4  11  25  38  62  88 123 169 210 242 288 387
#     4  11  22  33  62  96 127 158 202 268 329 370
#     4  11  22  41  60  88 127 166 211 249 306 378
#     4  10  20  37  62  92 125 153 201 269 320 365
#
# _framework density 20.989082
#
# number of rings (size 3 to 8) (size 9 to 14) (size 15 to 20)
#    0.000    1.400    5.000    2.700    5.600    1.600 
#    0.000    0.000    0.000   32.400    0.000    0.000 
#    0.000    0.000    0.000    0.000    0.000    0.000 
#
# Total GULP energy -111379.107431 kJ/mol
# GULP energy per Si atom -5568.955372 kJ/mol
# Density = 2.094131 g / cm^3
# Si number density = 20.989082 Si / 1000 Ang^3
#
#
#
# Elastic Constant Matrix: (Units=GPa)
#
#
# Indices 1 2 3 4 5 6 
#
# 1 65.9797 10.8320 16.2270 0.0000 0.0000 0.0000
# 2 10.8320 60.8838 10.1751 0.0000 0.0000 -0.0001
# 3 16.2270 10.1751 70.0281 0.0000 0.0000 -0.0001
# 4 0.0000 0.0000 0.0000 14.0946 0.0000 -0.0001
# 5 0.0000 0.0000 0.0000 0.0000 24.7609 0.0000
# 6 0.0000 -0.0001 -0.0001 -0.0001 0.0000 2.3892
#
#
#
# Elastic Compliance Matrix: (Units=1/GPa)
#
#
# Indices 1 2 3 4 5 6 
#
# 1 0.016391 -0.002338 -0.003458 0.000000 0.000000 0.000000
# 2 -0.002338 0.017167 -0.001953 0.000000 0.000000 0.000000
# 3 -0.003458 -0.001953 0.015365 0.000000 0.000000 0.000001
# 4 0.000000 0.000000 0.000000 0.070949 0.000000 0.000002
# 5 0.000000 0.000000 0.000000 0.000000 0.040386 0.000000
# 6 0.000000 0.000000 0.000001 0.000002 0.000000 0.418544
#
#
# Mechanical properties :
#
#
# Convention : Reuss Voigt Hill
#
# Bulk Modulus (GPa) = 29.91809 30.15111 30.03460
# Shear Modulus (GPa) = 8.25844 18.89277 13.57561
#
# Velocity S-wave (km/s) = 1.98574 3.00346 2.54597
# Velocity P-wave (km/s) = 4.42071 5.14043 4.79409
#
# Compressibility (1/GPa) = 0.03342459
#
# Stress axis : x y z
#
# Youngs Moduli (GPa) = 61.01070 58.25121 65.08272
#
# Poissons Ratio (x) = 0.13620 0.22508
# Poissons Ratio (y) = 0.14265 0.12708
# Poissons Ratio (z) = 0.21099 0.11374
#
# Static dielectric constant tensor:
#      x y z
#    x 1.804850 0.000000 0.000000 
#    y 0.000000 1.748720 0.000000 
#    z 0.000000 0.000000 1.413240 
# 
# From -- ./inp_files/14630.got.cif
#   From: 2010.05.17/outbox.cif.g08.bks.cpg/sg23_8_cif.got.tgz:14630.got - 2010.06.04 12:02:01.
