data_PCOD9330349
_publ_section_title
;
Structure prediction by ZEFSAII (Michael W. Deem and Ramdas Pophale) SiO2 
 PCOD9330349
Probable space group: I 2 2 2
;
_chemical_formula_sum "Si O2"
_cell_formula_units_Z 56
_cell_length_a 15.463883
_cell_length_b 11.953695
_cell_length_c 13.732632
_cell_angle_alpha 90.000000
_cell_angle_beta 90.000000
_cell_angle_gamma 90.000000
_cell_volume 2538.484453
_symmetry_space_group_name_H-M "I 2 2 2"
_symmetry_group_IT_number 23
_symmetry_cell_setting 'orthorhombic'
loop_
_space_group_symop_operation_xyz
x,y,z
-x,-y,z
x,-y,-z
-x,y,-z
1/2+x,1/2+y,1/2+z
1/2-x,1/2-y,1/2+z
1/2+x,1/2-y,1/2-z
1/2-x,1/2+y,1/2-z
loop_
_atom_site_type_symbol
_atom_site_label
_atom_site_fract_x
_atom_site_fract_y
_atom_site_fract_z
Si Si1 0.333995 0.069360 0.358785
Si Si2 0.768129 0.210827 0.083357
Si Si3 0.791909 0.909291 0.181629
Si Si4 0.166827 0.670067 0.783392
Si Si5 0.864717 0.394200 0.446507
Si Si6 0.074541 0.082505 0.854677
Si Si7 0.471203 0.191724 0.238829
O O1 0.302597 0.162453 0.434793
O O2 0.265000 0.099423 0.276448
O O3 0.426369 0.109039 0.317285
O O4 0.328904 0.935912 0.355385
O O5 0.737017 0.177460 0.195063
O O6 0.855564 0.135922 0.070373
O O7 0.682252 0.190316 0.020206
O O8 0.824562 0.785517 0.158003
O O9 0.720743 0.947380 0.104295
O O10 0.868414 0.992575 0.203026
O O11 0.072576 0.668152 0.733387
O O12 0.906862 0.500000 0.500000
O O13 0.923020 0.334743 0.363873
O O14 0.044119 0.184380 0.784858
O O15 0.000000 0.000000 0.893797
#
# Coordination Sequence:
#
# PCOD9330349 Si02
#       7
#     8   8   8   8   8   8   8
#     4   9  19  34  56  82 117 156 206 245 287 365
#     4  10  21  36  58  87 124 163 198 248 309 368
#     4  10  20  35  60  84 111 163 198 261 293 356
#     4  11  19  37  60  86 120 160 212 244 303 352
#     4  11  21  39  59  92 132 154 200 250 323 378
#     4  11  19  38  63  92 117 150 213 262 295 350
#     4  10  22  33  61  95 115 157 202 260 302 361
#
# _framework density 22.060406
#
# number of rings (size 3 to 8) (size 9 to 14) (size 15 to 20)
#    0.000    1.714    4.286    2.143    0.000    0.571 
#    0.000    4.286    0.000    0.000    0.000    2.000 
#    0.000    0.000    0.000    0.000    0.000    0.000 
#
# Total GULP energy -155877.894459 kJ/mol
# GULP energy per Si atom -5567.067659 kJ/mol
# Density = 2.201020 g / cm^3
# Si number density = 22.060406 Si / 1000 Ang^3
#
#
#
# Elastic Constant Matrix: (Units=GPa)
#
#
# Indices 1 2 3 4 5 6 
#
# 1 120.6932 46.1075 27.2699 0.0000 0.0000 0.0000
# 2 46.1075 178.9652 35.6983 0.0000 0.0000 0.0000
# 3 27.2699 35.6983 64.3696 0.0000 0.0000 0.0000
# 4 0.0000 0.0000 0.0000 14.2637 0.0000 0.0000
# 5 0.0000 0.0000 0.0000 0.0000 -7.3068 0.0000
# 6 0.0000 0.0000 0.0000 0.0000 0.0000 0.3199
#
#
#
# Elastic Compliance Matrix: (Units=1/GPa)
#
#
# Indices 1 2 3 4 5 6 
#
# 1 0.009698 -0.001888 -0.003062 0.000000 0.000000 0.000000
# 2 -0.001888 0.006650 -0.002888 0.000000 0.000000 0.000000
# 3 -0.003062 -0.002888 0.018434 0.000000 0.000000 0.000000
# 4 0.000000 0.000000 0.000000 0.070108 0.000000 0.000000
# 5 0.000000 0.000000 0.000000 0.000000 -0.136859 0.000000
# 6 0.000000 0.000000 0.000000 0.000000 0.000000 3.125869
#
#
# Mechanical properties :
#
#
# Convention : Reuss Voigt Hill
#
# Bulk Modulus (GPa) = 52.33683 64.68662 58.51172
# Shear Modulus (GPa) = 1.60465 18.45219 10.02842
#
# Velocity S-wave (km/s) = 0.85380 2.89526 2.13442
# Velocity P-wave (km/s) = 4.97471 6.36890 5.71448
#
# Compressibility (1/GPa) = 0.01910700
#
# Stress axis : x y z
#
# Youngs Moduli (GPa) = 103.10897 150.37137 54.24713
#
# Poissons Ratio (x) = 0.28389 0.16609
# Poissons Ratio (y) = 0.19466 0.15668
# Poissons Ratio (z) = 0.31569 0.43431
#
# Static dielectric constant tensor:
#      x y z
#    x 1.843590 0.000000 0.000000 
#    y 0.000000 1.932530 0.000000 
#    z 0.000000 0.000000 2.068710 
# 
# From -- ./inp_files/16784.got.cif
#   From: 2010.05.17/outbox.cif.g08.bks.cpg/sg23_9_cif.got.tgz:16784.got - 2010.06.04 12:02:01.
