data_PCOD9330216
_publ_section_title
;
Structure prediction by ZEFSAII (Michael W. Deem and Ramdas Pophale) SiO2 
 PCOD9330216
Probable space group: I 2 2 2
;
_chemical_formula_sum "Si O2"
_cell_formula_units_Z 52
_cell_length_a 6.990202
_cell_length_b 19.719482
_cell_length_c 14.822871
_cell_angle_alpha 90.000000
_cell_angle_beta 90.000000
_cell_angle_gamma 90.000000
_cell_volume 2043.231416
_symmetry_space_group_name_H-M "I 2 2 2"
_symmetry_group_IT_number 23
_symmetry_cell_setting 'orthorhombic'
loop_
_space_group_symop_operation_xyz
x,y,z
-x,-y,z
x,-y,-z
-x,y,-z
1/2+x,1/2+y,1/2+z
1/2-x,1/2-y,1/2+z
1/2+x,1/2-y,1/2-z
1/2-x,1/2+y,1/2-z
loop_
_atom_site_type_symbol
_atom_site_label
_atom_site_fract_x
_atom_site_fract_y
_atom_site_fract_z
Si Si1 0.827609 0.098619 0.698942
Si Si2 0.276216 0.344136 0.973714
Si Si3 0.284739 0.681149 0.840279
Si Si4 0.287168 0.675289 0.368833
Si Si5 0.747399 0.703364 0.362575
Si Si6 0.000000 0.000000 0.825316
Si Si7 0.238414 0.424670 0.464133
O O1 0.735334 0.099051 0.601405
O O2 0.731033 0.147639 0.771067
O O3 0.041388 0.130688 0.684393
O O4 0.846993 0.030893 0.756570
O O5 0.265117 0.273033 0.918826
O O6 0.500000 0.352799 0.000000
O O7 0.174397 0.347076 0.071371
O O8 0.331410 0.755854 0.881079
O O9 0.198306 0.701047 0.743199
O O10 0.514614 0.693489 0.367746
O O11 0.271784 0.618701 0.445663
O O12 0.852386 0.637290 0.406032
O O13 0.899358 0.947967 0.892627
O O14 0.180265 0.500000 0.500000
#
# Coordination Sequence:
#
# PCOD9330216 Si02
#       7
#     8   8   8   8   8   4   8
#     4  10  21  33  50  78 110 148 184 225 295 348
#     4  10  21  36  51  76 112 148 187 232 296 345
#     4  10  20  33  50  75 112 147 186 232 278 344
#     4  11  19  30  53  83 112 142 186 237 285 346
#     4  11  20  32  53  81 110 147 188 232 292 348
#     4  12  19  32  53  78 120 142 187 242 295 364
#     4  12  20  30  52  86 116 143 186 248 307 344
#
# _framework density 25.449883
#
# number of rings (size 3 to 8) (size 9 to 14) (size 15 to 20)
#    0.000    1.231    7.692    1.615    0.000    0.000 
#    0.000    3.462    0.000    0.462    0.000    1.077 
#    0.000    4.923    0.308    0.000    0.000    0.000 
#
# Total GULP energy -144841.187818 kJ/mol
# GULP energy per Si atom -5570.814916 kJ/mol
# Density = 2.539196 g / cm^3
# Si number density = 25.449883 Si / 1000 Ang^3
#
#
#
# Elastic Constant Matrix: (Units=GPa)
#
#
# Indices 1 2 3 4 5 6 
#
# 1 64.3630 17.4650 20.5019 0.0000 0.0000 0.0000
# 2 17.4650 60.4009 23.6057 0.0000 0.0000 0.0000
# 3 20.5019 23.6057 249.9184 -0.0001 0.0000 0.0000
# 4 0.0000 0.0000 -0.0001 49.7135 0.0000 0.0000
# 5 0.0000 0.0000 0.0000 0.0000 8.4882 0.0000
# 6 0.0000 0.0000 0.0000 0.0000 0.0000 15.2651
#
#
#
# Elastic Compliance Matrix: (Units=1/GPa)
#
#
# Indices 1 2 3 4 5 6 
#
# 1 0.017084 -0.004560 -0.000971 0.000000 0.000000 0.000000
# 2 -0.004560 0.018408 -0.001365 0.000000 0.000000 0.000000
# 3 -0.000971 -0.001365 0.004210 0.000000 0.000000 0.000000
# 4 0.000000 0.000000 0.000000 0.020115 0.000000 0.000000
# 5 0.000000 0.000000 0.000000 0.000000 0.117811 0.000000
# 6 0.000000 0.000000 0.000000 0.000000 0.000000 0.065509
#
#
# Mechanical properties :
#
#
# Convention : Reuss Voigt Hill
#
# Bulk Modulus (GPa) = 38.59504 55.31415 46.95459
# Shear Modulus (GPa) = 18.82784 35.56734 27.19759
#
# Velocity S-wave (km/s) = 2.72288 3.74243 3.27260
# Velocity P-wave (km/s) = 5.00834 6.36051 5.72449
#
# Compressibility (1/GPa) = 0.02591007
#
# Stress axis : x y z
#
# Youngs Moduli (GPa) = 58.53587 54.32425 237.53942
#
# Poissons Ratio (x) = 0.24774 0.23058
# Poissons Ratio (y) = 0.26694 0.32415
# Poissons Ratio (z) = 0.05682 0.07413
#
# Static dielectric constant tensor:
#      x y z
#    x 2.160180 0.000000 0.000000 
#    y 0.000000 2.096570 0.000000 
#    z 0.000000 0.000000 2.044780 
# 
# From -- ./inp_files/20978.got.cif
#   From: 2010.05.17/outbox.cif.g08.bks.cpg/sg23_11_cif.got.tgz:20978.got - 2010.06.04 12:02:01.
