data_PCOD9330792
_publ_section_title
;
Structure prediction by ZEFSAII (Michael W. Deem and Ramdas Pophale) SiO2 
 PCOD9330792
Probable space group: I 2 2 2
;
_chemical_formula_sum "Si O2"
_cell_formula_units_Z 24
_cell_length_a 11.571516
_cell_length_b 12.695423
_cell_length_c 7.072170
_cell_angle_alpha 90.000000
_cell_angle_beta 90.000000
_cell_angle_gamma 90.000000
_cell_volume 1038.939187
_symmetry_space_group_name_H-M "I 2 2 2"
_symmetry_group_IT_number 23
_symmetry_cell_setting 'orthorhombic'
loop_
_space_group_symop_operation_xyz
x,y,z
-x,-y,z
x,-y,-z
-x,y,-z
1/2+x,1/2+y,1/2+z
1/2-x,1/2-y,1/2+z
1/2+x,1/2-y,1/2-z
1/2-x,1/2+y,1/2-z
loop_
_atom_site_type_symbol
_atom_site_label
_atom_site_fract_x
_atom_site_fract_y
_atom_site_fract_z
Si Si1 0.061562 0.098829 0.204813
Si Si2 0.975419 0.333714 0.772256
Si Si3 0.186899 0.517612 0.227722
O O1 0.194298 0.063674 0.194998
O O2 0.043368 0.214246 0.290680
O O3 0.000000 0.000000 0.300895
O O4 0.000000 0.106838 0.000000
O O5 0.087943 0.399231 0.712624
O O6 0.000000 0.332957 0.000000
O O7 0.863716 0.403265 0.718562
O O8 0.198654 0.500000 0.000000
#
# Coordination Sequence:
#
# PCOD9330792 Si02
#       3
#     8   8   8
#     4  10  21  34  55  85 120 153 191 238 300 336
#     4   8  17  35  57  86 113 158 190 232 299 348
#     4   9  18  35  61  83 117 153 200 238 281 354
#
# _framework density 23.100484999999999
#
# number of rings (size 3 to 8) (size 9 to 14) (size 15 to 20)
#    0.000    3.000    0.000    2.000    4.667    0.667 
#    0.000    0.000    0.000   16.000    0.000    0.000 
#    0.000    0.000    0.000    0.000    0.000    0.000 
#
# Total GULP energy -66905.988389 kJ/mol
# GULP energy per Si atom -5575.499032 kJ/mol
# Density = 2.304791 g / cm^3
# Si number density = 23.100485 Si / 1000 Ang^3
#
#
#
# Elastic Constant Matrix: (Units=GPa)
#
#
# Indices 1 2 3 4 5 6 
#
# 1 162.3290 107.1772 22.4965 0.0000 0.0000 0.0000
# 2 107.1772 286.9266 22.2006 0.0000 0.0000 0.0000
# 3 22.4965 22.2006 113.1245 0.0000 0.0000 0.0000
# 4 0.0000 0.0000 0.0000 -15.0432 0.0000 0.0000
# 5 0.0000 0.0000 0.0000 0.0000 25.8926 0.0000
# 6 0.0000 0.0000 0.0000 0.0000 0.0000 -10.8858
#
#
#
# Elastic Compliance Matrix: (Units=1/GPa)
#
#
# Indices 1 2 3 4 5 6 
#
# 1 0.008300 -0.003018 -0.001058 0.000000 0.000000 0.000000
# 2 -0.003018 0.004637 -0.000310 0.000000 0.000000 0.000000
# 3 -0.001058 -0.000310 0.009111 0.000000 0.000000 0.000000
# 4 0.000000 0.000000 0.000000 -0.066475 0.000000 0.000000
# 5 0.000000 0.000000 0.000000 0.000000 0.038621 0.000000
# 6 0.000000 0.000000 0.000000 0.000000 0.000000 -0.091863
#
#
# Mechanical properties :
#
#
# Convention : Reuss Voigt Hill
#
# Bulk Modulus (GPa) = 75.32969 96.23652 85.78311
# Shear Modulus (GPa) = -59.19143 27.35978 -15.91583
#
# Velocity S-wave (km/s) = -5.06745 3.44522 -2.62769
# Velocity P-wave (km/s) = 1.24837 7.58791 5.29235
#
# Compressibility (1/GPa) = 0.01327498
#
# Stress axis : x y z
#
# Youngs Moduli (GPa) = 120.48365 215.67246 109.75710
#
# Poissons Ratio (x) = 0.65099 0.11614
# Poissons Ratio (y) = 0.36367 0.03399
# Poissons Ratio (z) = 0.12749 0.06679
#
# Static dielectric constant tensor:
#      x y z
#    x 1.832180 0.000000 0.000000 
#    y 0.000000 1.869520 0.000000 
#    z 0.000000 0.000000 1.997510 
# 
# From -- ./inp_files/1961.got.cif
#   From: 2010.05.17/outbox.cif.g08.bks.cpg/sg23_1_cif.got.tgz:1961.got - 2010.06.04 12:02:01.
