data_PCOD9330298
_publ_section_title
;
Structure prediction by ZEFSAII (Michael W. Deem and Ramdas Pophale) SiO2 
 PCOD9330298
Probable space group: I 2 2 2
;
_chemical_formula_sum "Si O2"
_cell_formula_units_Z 40
_cell_length_a 27.751439
_cell_length_b 5.290432
_cell_length_c 16.633109
_cell_angle_alpha 90.000000
_cell_angle_beta 90.000000
_cell_angle_gamma 90.000000
_cell_volume 2442.024843
_symmetry_space_group_name_H-M "I 2 2 2"
_symmetry_group_IT_number 23
_symmetry_cell_setting 'orthorhombic'
loop_
_space_group_symop_operation_xyz
x,y,z
-x,-y,z
x,-y,-z
-x,y,-z
1/2+x,1/2+y,1/2+z
1/2-x,1/2-y,1/2+z
1/2+x,1/2-y,1/2-z
1/2-x,1/2+y,1/2-z
loop_
_atom_site_type_symbol
_atom_site_label
_atom_site_fract_x
_atom_site_fract_y
_atom_site_fract_z
Si Si1 0.478834 0.252295 0.408715
Si Si2 0.133711 0.673097 0.079947
Si Si3 0.685998 0.966207 0.730388
Si Si4 0.272625 0.500000 0.000000
Si Si5 0.206837 0.000000 0.000000
Si Si6 0.298016 0.468749 0.176419
O O1 0.500000 0.500000 0.368324
O O2 0.500000 0.251494 0.500000
O O3 0.421476 0.255493 0.413654
O O4 0.500000 0.000000 0.370253
O O5 0.150195 0.517605 0.157210
O O6 0.138198 0.500000 0.000000
O O7 0.170343 0.909587 0.070081
O O8 0.683405 0.198401 0.793197
O O9 0.679656 0.698200 0.773104
O O10 0.740402 0.973956 0.694638
O O11 0.302531 0.519216 0.081821
O O12 0.239969 0.753006 0.988364
#
# Coordination Sequence:
#
# PCOD9330298 Si02
#       6
#     8   8   8   4   4   8
#     4  10  20  35  48  70  99 135 173 208 260 289
#     4  12  23  34  55  75 104 140 188 217 250 319
#     4  10  22  33  50  72 102 130 169 233 256 292
#     4  12  22  36  56  70  97 140 179 220 272 322
#     4  12  22  30  51  78  90 130 192 218 245 298
#     4  10  21  37  48  70 102 129 172 224 274 295
#
# _framework density 16.379850999999999
#
# number of rings (size 3 to 8) (size 9 to 14) (size 15 to 20)
#    0.000    1.200    5.000    2.400    8.400    0.000 
#    0.000    0.000    0.000    0.000    0.000    0.000 
#    0.000    0.000    0.000   13.500    0.000    0.200 
#
# Total GULP energy -111639.058310 kJ/mol
# GULP energy per Si atom -5581.952915 kJ/mol
# Density = 1.634257 g / cm^3
# Si number density = 16.379851 Si / 1000 Ang^3
#
#
#
# Elastic Constant Matrix: (Units=GPa)
#
#
# Indices 1 2 3 4 5 6 
#
# 1 51.9386 10.0440 11.8112 0.0000 0.0000 0.0000
# 2 10.0440 103.7163 6.5998 0.0000 0.0000 0.0000
# 3 11.8112 6.5998 70.4332 0.0000 0.0000 0.0000
# 4 0.0000 0.0000 0.0000 18.6126 0.0000 0.0000
# 5 0.0000 0.0000 0.0000 0.0000 4.6939 0.0000
# 6 0.0000 0.0000 0.0000 0.0000 0.0000 8.1721
#
#
#
# Elastic Compliance Matrix: (Units=1/GPa)
#
#
# Indices 1 2 3 4 5 6 
#
# 1 0.020332 -0.001763 -0.003244 0.000000 0.000000 0.000000
# 2 -0.001763 0.009852 -0.000628 0.000000 0.000000 0.000000
# 3 -0.003244 -0.000628 0.014801 0.000000 0.000000 0.000000
# 4 0.000000 0.000000 0.000000 0.053727 0.000000 0.000000
# 5 0.000000 0.000000 0.000000 0.000000 0.213043 0.000000
# 6 0.000000 0.000000 0.000000 0.000000 0.000000 0.122367
#
#
# Mechanical properties :
#
#
# Convention : Reuss Voigt Hill
#
# Bulk Modulus (GPa) = 29.65948 31.44423 30.55185
# Shear Modulus (GPa) = 10.94980 19.47128 15.21054
#
# Velocity S-wave (km/s) = 2.58833 3.45154 3.05062
# Velocity P-wave (km/s) = 5.20377 5.92645 5.57682
#
# Compressibility (1/GPa) = 0.03371603
#
# Stress axis : x y z
#
# Youngs Moduli (GPa) = 49.18322 101.49905 67.56421
#
# Poissons Ratio (x) = 0.17890 0.21921
# Poissons Ratio (y) = 0.08669 0.04240
# Poissons Ratio (z) = 0.15957 0.06370
#
# Static dielectric constant tensor:
#      x y z
#    x 1.521630 0.000000 0.000000 
#    y 0.000000 1.615910 0.000000 
#    z 0.000000 0.000000 1.547350 
# 
# From -- ./inp_files/25189.got.cif
#   From: 2010.05.17/outbox.cif.g08.bks.cpg/sg23_13_cif.got.tgz:25189.got - 2010.06.04 12:02:01.
