data_PCOD9330754
_publ_section_title
;
Structure prediction by ZEFSAII (Michael W. Deem and Ramdas Pophale) SiO2 
 PCOD9330754
Probable space group: I 2 2 2
;
_chemical_formula_sum "Si O2"
_cell_formula_units_Z 28
_cell_length_a 5.399086
_cell_length_b 26.772458
_cell_length_c 7.835320
_cell_angle_alpha 90.000000
_cell_angle_beta 90.000000
_cell_angle_gamma 90.000000
_cell_volume 1132.570458
_symmetry_space_group_name_H-M "I 2 2 2"
_symmetry_group_IT_number 23
_symmetry_cell_setting 'orthorhombic'
loop_
_space_group_symop_operation_xyz
x,y,z
-x,-y,z
x,-y,-z
-x,y,-z
1/2+x,1/2+y,1/2+z
1/2-x,1/2-y,1/2+z
1/2+x,1/2-y,1/2-z
1/2-x,1/2+y,1/2-z
loop_
_atom_site_type_symbol
_atom_site_label
_atom_site_fract_x
_atom_site_fract_y
_atom_site_fract_z
Si Si1 0.500000 0.000000 0.000000
Si Si2 0.235913 0.423294 0.757995
Si Si3 0.500000 0.845312 0.500000
Si Si4 0.500000 0.644609 0.500000
Si Si5 0.262026 0.282219 0.252087
Si Si6 0.500000 0.000000 0.500000
O O1 0.347029 0.038256 0.112625
O O2 0.076346 0.378390 0.837762
O O3 0.445730 0.391931 0.660657
O O4 0.198444 0.462431 0.912283
O O5 0.721084 0.812778 0.576526
O O6 0.703339 0.681817 0.417614
O O7 0.511756 0.250102 0.238281
#
# Coordination Sequence:
#
# PCOD9330754 Si02
#       6
#     2   8   4   4   8   2
#     4  10  20  44  72 102 144 188 240 296 368 440
#     4  10  22  42  72 105 142 188 240 300 363 439
#     4  11  25  47  74 106 146 194 248 301 365 439
#     4  12  27  45  71 108 148 190 245 307 371 436
#     4  12  29  50  76 110 152 200 252 310 371 440
#     4   8  20  46  74 100 140 192 242 292 364 442
#
# _framework density 24.722526999999999
#
# number of rings (size 3 to 8) (size 9 to 14) (size 15 to 20)
#    0.000    1.143    0.000    4.286    0.000   15.429 
#    0.000    2.857    0.000    0.000    0.000    0.000 
#    0.000    0.000    0.000    0.000    0.000    0.000 
#
# Total GULP energy -77960.735850 kJ/mol
# GULP energy per Si atom -5568.623989 kJ/mol
# Density = 2.466626 g / cm^3
# Si number density = 24.722527 Si / 1000 Ang^3
#
#
#
# Elastic Constant Matrix: (Units=GPa)
#
#
# Indices 1 2 3 4 5 6 
#
# 1 122.9218 86.2661 47.5938 -0.0002 0.0000 0.0000
# 2 86.2661 163.0940 53.4311 0.0008 -0.0001 0.0001
# 3 47.5938 53.4311 81.0564 0.0015 -0.0001 0.0002
# 4 -0.0002 0.0008 0.0015 21.1825 -0.0001 0.0002
# 5 0.0000 -0.0001 -0.0001 -0.0001 48.3776 0.0000
# 6 0.0000 0.0001 0.0002 0.0002 0.0000 31.0648
#
#
#
# Elastic Compliance Matrix: (Units=1/GPa)
#
#
# Indices 1 2 3 4 5 6 
#
# 1 0.014003 -0.006011 -0.004260 0.000001 0.000000 0.000000
# 2 -0.006011 0.010401 -0.003326 0.000000 0.000000 0.000000
# 3 -0.004260 -0.003326 0.017031 -0.000001 0.000000 0.000000
# 4 0.000001 0.000000 -0.000001 0.047209 0.000000 0.000000
# 5 0.000000 0.000000 0.000000 0.000000 0.020671 0.000000
# 6 0.000000 0.000000 0.000000 0.000000 0.000000 0.032191
#
#
# Mechanical properties :
#
#
# Convention : Reuss Voigt Hill
#
# Bulk Modulus (GPa) = 70.22375 82.40602 76.31488
# Shear Modulus (GPa) = 28.82727 32.11039 30.46883
#
# Velocity S-wave (km/s) = 3.41843 3.60784 3.51441
# Velocity P-wave (km/s) = 6.63681 7.12461 6.88503
#
# Compressibility (1/GPa) = 0.01424020
#
# Stress axis : x y z
#
# Youngs Moduli (GPa) = 71.41195 96.14674 58.71655
#
# Poissons Ratio (x) = 0.57797 0.25012
# Poissons Ratio (y) = 0.42928 0.19531
# Poissons Ratio (z) = 0.30420 0.31982
#
# Static dielectric constant tensor:
#      x y z
#    x 1.947240 0.000000 0.000000 
#    y 0.000000 1.886090 0.000000 
#    z 0.000000 0.000000 2.000020 
# 
# From -- ./inp_files/5723.got.cif
#   From: 2010.05.17/outbox.cif.g08.bks.cpg/sg23_3_cif.got.tgz:5723.got - 2010.06.04 12:02:01.
