data_PCOD9330709
_publ_section_title
;
Structure prediction by ZEFSAII (Michael W. Deem and Ramdas Pophale) SiO2 
 PCOD9330709
Probable space group: I 2 2 2
;
_chemical_formula_sum "Si O2"
_cell_formula_units_Z 64
_cell_length_a 9.410577
_cell_length_b 13.618422
_cell_length_c 24.242630
_cell_angle_alpha 90.000000
_cell_angle_beta 90.000000
_cell_angle_gamma 90.000000
_cell_volume 3106.867796
_symmetry_space_group_name_H-M "I 2 2 2"
_symmetry_group_IT_number 23
_symmetry_cell_setting 'orthorhombic'
loop_
_space_group_symop_operation_xyz
x,y,z
-x,-y,z
x,-y,-z
-x,y,-z
1/2+x,1/2+y,1/2+z
1/2-x,1/2-y,1/2+z
1/2+x,1/2-y,1/2-z
1/2-x,1/2+y,1/2-z
loop_
_atom_site_type_symbol
_atom_site_label
_atom_site_fract_x
_atom_site_fract_y
_atom_site_fract_z
Si Si1 0.639665 0.706927 0.126586
Si Si2 0.100899 0.718740 0.946769
Si Si3 0.642368 0.452229 0.440937
Si Si4 0.454416 0.886668 0.653998
Si Si5 0.840236 0.006908 0.226154
Si Si6 0.628193 0.070963 0.855007
Si Si7 0.134848 0.130859 0.321926
Si Si8 0.168689 0.688980 0.762188
O O1 0.736979 0.684979 0.072233
O O2 0.587616 0.820153 0.126528
O O3 0.500191 0.642629 0.138519
O O4 0.738139 0.703290 0.181967
O O5 0.117105 0.836275 0.946578
O O6 0.017682 0.680050 0.893909
O O7 0.000000 0.692007 0.000000
O O8 0.500000 0.500000 0.417231
O O9 0.663291 0.500000 0.500000
O O10 0.777644 0.473378 0.403994
O O11 0.287863 0.866923 0.650445
O O12 0.522456 0.855916 0.713071
O O13 0.500000 0.000000 0.645414
O O14 0.737581 0.931168 0.195530
O O15 0.855492 0.970570 0.288566
O O16 0.761927 0.111617 0.226571
O O17 0.000000 0.000000 0.203741
O O18 0.500000 0.000000 0.841723
O O19 0.130574 0.217965 0.275703
#
# Coordination Sequence:
#
# PCOD9330709 Si02
#       8
#     8   8   8   8   8   8   8   8
#     4  10  22  40  59  91 128 171 213 274 324 398
#     4  10  22  44  70  93 125 164 221 285 345 410
#     4  10  20  41  70  94 126 166 217 280 350 416
#     4  11  25  41  67  96 129 179 228 274 336 406
#     4  12  24  36  61  89 130 180 221 267 326 390
#     4  11  24  38  57  93 133 171 221 270 327 409
#     4  12  23  39  62  94 137 176 221 270 332 387
#     4  11  22  39  59  89 133 179 220 265 319 397
#
# _framework density 20.599523999999999
#
# number of rings (size 3 to 8) (size 9 to 14) (size 15 to 20)
#    0.000    1.125    5.000    1.875    1.750    2.500 
#    0.000    0.625    0.000    0.000    0.000    1.750 
#    0.000    0.000    0.000    0.000    0.000    0.000 
#
# Total GULP energy -178483.638173 kJ/mol
# GULP energy per Si atom -5577.613693 kJ/mol
# Density = 2.055264 g / cm^3
# Si number density = 20.599524 Si / 1000 Ang^3
#
#
#
# Elastic Constant Matrix: (Units=GPa)
#
#
# Indices 1 2 3 4 5 6 
#
# 1 145.5022 12.1193 44.1710 0.0000 0.0000 0.0000
# 2 12.1193 39.7240 20.1059 0.0000 0.0000 0.0000
# 3 44.1710 20.1059 71.7490 0.0000 0.0000 0.0000
# 4 0.0000 0.0000 0.0000 -52.8167 0.0000 0.0000
# 5 0.0000 0.0000 0.0000 0.0000 38.4469 0.0000
# 6 0.0000 0.0000 0.0000 0.0000 0.0000 29.7059
#
#
#
# Elastic Compliance Matrix: (Units=1/GPa)
#
#
# Indices 1 2 3 4 5 6 
#
# 1 0.008453 0.000064 -0.005222 0.000000 0.000000 0.000000
# 2 0.000064 0.029335 -0.008260 0.000000 0.000000 0.000000
# 3 -0.005222 -0.008260 0.019467 0.000000 0.000000 0.000000
# 4 0.000000 0.000000 0.000000 -0.018933 0.000000 0.000000
# 5 0.000000 0.000000 0.000000 0.000000 0.026010 0.000000
# 6 0.000000 0.000000 0.000000 0.000000 0.000000 0.033663
#
#
# Mechanical properties :
#
#
# Convention : Reuss Voigt Hill
#
# Bulk Modulus (GPa) = 32.87382 45.52975 39.20178
# Shear Modulus (GPa) = 37.04569 15.10581 26.07575
#
# Velocity S-wave (km/s) = 4.24533 2.71091 3.56173
# Velocity P-wave (km/s) = 6.32642 5.65234 5.99886
#
# Compressibility (1/GPa) = 0.03041934
#
# Stress axis : x y z
#
# Youngs Moduli (GPa) = 118.30712 34.08921 51.36972
#
# Poissons Ratio (x) = -0.00219 0.26823
# Poissons Ratio (y) = -0.00758 0.42430
# Poissons Ratio (z) = 0.61776 0.28157
#
# Static dielectric constant tensor:
#      x y z
#    x 2.981040 0.000000 0.000000 
#    y 0.000000 1.741690 0.000000 
#    z 0.000000 0.000000 1.739260 
# 
# From -- ./inp_files/28097.got.cif
#   From: 2010.05.17/outbox.cif.g08.bks.cpg/sg23_15_cif.got.tgz:28097.got - 2010.06.04 12:02:01.
