data_PCOD9330457
_publ_section_title
;
Structure prediction by ZEFSAII (Michael W. Deem and Ramdas Pophale) SiO2 
 PCOD9330457
Probable space group: I 2 2 2
;
_chemical_formula_sum "Si O2"
_cell_formula_units_Z 64
_cell_length_a 23.461761
_cell_length_b 16.064938
_cell_length_c 8.454135
_cell_angle_alpha 90.000000
_cell_angle_beta 90.000000
_cell_angle_gamma 90.000000
_cell_volume 3186.462698
_symmetry_space_group_name_H-M "I 2 2 2"
_symmetry_group_IT_number 23
_symmetry_cell_setting 'orthorhombic'
loop_
_space_group_symop_operation_xyz
x,y,z
-x,-y,z
x,-y,-z
-x,y,-z
1/2+x,1/2+y,1/2+z
1/2-x,1/2-y,1/2+z
1/2+x,1/2-y,1/2-z
1/2-x,1/2+y,1/2-z
loop_
_atom_site_type_symbol
_atom_site_label
_atom_site_fract_x
_atom_site_fract_y
_atom_site_fract_z
Si Si1 0.645203 0.908684 0.539764
Si Si2 0.435932 0.242077 0.565963
Si Si3 0.375261 0.736655 0.095695
Si Si4 0.437076 0.586042 0.934235
Si Si5 0.837260 0.414401 0.582630
Si Si6 0.905377 0.084658 0.091221
Si Si7 0.252774 0.684405 0.016292
Si Si8 0.782814 0.851919 0.849444
O O1 0.602719 0.833540 0.500321
O O2 0.651406 0.910716 0.729747
O O3 0.707129 0.889975 0.459699
O O4 0.623736 0.000000 0.500000
O O5 0.500000 0.226486 0.500000
O O6 0.416113 0.249371 0.751556
O O7 0.420554 0.333124 0.503532
O O8 0.364706 0.828028 0.019792
O O9 0.310435 0.699447 0.119868
O O10 0.403601 0.668069 0.985083
O O11 0.442016 0.581358 0.748120
O O12 0.410083 0.500000 0.000000
O O13 0.500000 0.591791 0.000000
O O14 0.855369 0.500000 0.500000
O O15 0.769306 0.403270 0.576715
O O16 0.840001 0.096114 0.143099
O O17 0.913251 0.000000 0.000000
O O18 0.216201 0.767524 0.048042
O O19 0.271138 0.674443 0.832917
#
# Coordination Sequence:
#
# PCOD9330457 Si02
#       8
#     8   8   8   8   8   8   8   8
#     4  10  22  39  61  96 129 168 220 271 339 397
#     4  11  24  44  66  91 128 176 229 282 331 398
#     4  10  21  41  66  91 127 176 217 272 335 397
#     4  11  24  43  63  90 125 165 216 272 330 395
#     4   9  20  37  58  91 132 172 211 260 325 392
#     4  12  24  40  65  97 128 166 222 272 329 393
#     4  10  20  38  62  92 136 167 215 269 334 399
#     4  10  20  37  59  95 131 174 212 263 325 402
#
# _framework density 20.084968
#
# number of rings (size 3 to 8) (size 9 to 14) (size 15 to 20)
#    0.000    1.625    2.500    2.625    0.000    5.000 
#    4.500    0.000    0.000    1.875    0.000    0.000 
#    0.000    0.000    0.000    0.000    0.000    0.000 
#
# Total GULP energy -178429.687152 kJ/mol
# GULP energy per Si atom -5575.927723 kJ/mol
# Density = 2.003925 g / cm^3
# Si number density = 20.084968 Si / 1000 Ang^3
#
#
#
# Elastic Constant Matrix: (Units=GPa)
#
#
# Indices 1 2 3 4 5 6 
#
# 1 105.0176 50.8257 37.4483 0.0000 0.0000 0.0000
# 2 50.8257 133.3589 31.2901 0.0000 0.0000 0.0000
# 3 37.4483 31.2901 53.2009 0.0000 0.0000 0.0000
# 4 0.0000 0.0000 0.0000 32.5397 0.0000 0.0000
# 5 0.0000 0.0000 0.0000 0.0000 22.8542 0.0000
# 6 0.0000 0.0000 0.0000 0.0000 0.0000 40.7765
#
#
#
# Elastic Compliance Matrix: (Units=1/GPa)
#
#
# Indices 1 2 3 4 5 6 
#
# 1 0.013997 -0.003507 -0.007790 0.000000 0.000000 0.000000
# 2 -0.003507 0.009578 -0.003165 0.000000 0.000000 0.000000
# 3 -0.007790 -0.003165 0.026142 0.000000 0.000000 0.000000
# 4 0.000000 0.000000 0.000000 0.030732 0.000000 0.000000
# 5 0.000000 0.000000 0.000000 0.000000 0.043756 0.000000
# 6 0.000000 0.000000 0.000000 0.000000 0.000000 0.024524
#
#
# Mechanical properties :
#
#
# Convention : Reuss Voigt Hill
#
# Bulk Modulus (GPa) = 48.09282 58.96728 53.53005
# Shear Modulus (GPa) = 27.08823 30.70164 28.89494
#
# Velocity S-wave (km/s) = 3.67642 3.91396 3.79705
# Velocity P-wave (km/s) = 6.48214 7.06032 6.77740
#
# Compressibility (1/GPa) = 0.02079312
#
# Stress axis : x y z
#
# Youngs Moduli (GPa) = 71.44209 104.41030 38.25334
#
# Poissons Ratio (x) = 0.36615 0.29800
# Poissons Ratio (y) = 0.25054 0.12106
# Poissons Ratio (z) = 0.55655 0.33042
#
# Static dielectric constant tensor:
#      x y z
#    x 1.748920 0.000000 0.000000 
#    y 0.000000 1.708550 0.000000 
#    z 0.000000 0.000000 1.688640 
# 
# From -- ./inp_files/12720.got.cif
#   From: 2010.05.17/outbox.cif.g08.bks.cpg/sg23_7_cif.got.tgz:12720.got - 2010.06.04 12:02:01.
