data_PCOD9330449
_publ_section_title
;
Structure prediction by ZEFSAII (Michael W. Deem and Ramdas Pophale) SiO2 
 PCOD9330449
Probable space group: I 2 2 2
;
_chemical_formula_sum "Si O2"
_cell_formula_units_Z 34
_cell_length_a 5.161835
_cell_length_b 27.221929
_cell_length_c 11.815503
_cell_angle_alpha 90.000000
_cell_angle_beta 90.000000
_cell_angle_gamma 90.000000
_cell_volume 1660.256655
_symmetry_space_group_name_H-M "I 2 2 2"
_symmetry_group_IT_number 23
_symmetry_cell_setting 'orthorhombic'
loop_
_space_group_symop_operation_xyz
x,y,z
-x,-y,z
x,-y,-z
-x,y,-z
1/2+x,1/2+y,1/2+z
1/2-x,1/2-y,1/2+z
1/2+x,1/2-y,1/2-z
1/2-x,1/2+y,1/2-z
loop_
_atom_site_type_symbol
_atom_site_label
_atom_site_fract_x
_atom_site_fract_y
_atom_site_fract_z
Si Si1 0.365499 0.141497 0.277113
Si Si2 0.363105 0.287543 0.611837
Si Si3 0.240750 0.469396 0.779451
Si Si4 0.500000 0.000000 0.500000
Si Si5 0.373001 0.310374 0.161852
O O1 0.342942 0.174952 0.164772
O O2 0.275459 0.087047 0.246043
O O3 0.651771 0.148401 0.325588
O O4 0.149461 0.164742 0.361805
O O5 0.500000 0.305962 0.500000
O O6 0.572431 0.285264 0.714231
O O7 0.236830 0.234592 0.590430
O O8 0.500000 0.500000 0.758821
O O9 0.000000 0.500000 0.729360
O O10 0.178061 0.469339 0.914637
#
# Coordination Sequence:
#
# PCOD9330449 Si02
#       5
#     8   8   8   2   8
#     4  10  20  38  58  80 116 154 192 239 295 349
#     4  10  21  38  61  85 122 158 197 245 300 350
#     4  10  20  37  58  81 113 155 193 246 297 355
#     4   8  22  32  58  80 118 146 198 232 314 340
#     4  10  20  39  55  87 119 149 196 238 287 355
#
# _framework density 20.478760999999999
#
# number of rings (size 3 to 8) (size 9 to 14) (size 15 to 20)
#    2.118    0.000    2.353    1.765    0.000    0.941 
#    2.118    0.000    0.000    0.706    0.000    0.000 
#    0.000    0.000    0.000    0.000    0.000    0.000 
#
# Total GULP energy -94656.837402 kJ/mol
# GULP energy per Si atom -5568.049259 kJ/mol
# Density = 2.043215 g / cm^3
# Si number density = 20.478761 Si / 1000 Ang^3
#
#
#
# Elastic Constant Matrix: (Units=GPa)
#
#
# Indices 1 2 3 4 5 6 
#
# 1 128.6140 31.3363 -0.1132 0.0000 0.0000 0.0000
# 2 31.3363 121.5731 -11.7761 0.0000 0.0000 0.0000
# 3 -0.1132 -11.7761 15.4173 0.0000 0.0000 0.0000
# 4 0.0000 0.0000 0.0000 4.9542 0.0000 0.0000
# 5 0.0000 0.0000 0.0000 0.0000 11.2450 0.0000
# 6 0.0000 0.0000 0.0000 0.0000 0.0000 29.1672
#
#
#
# Elastic Compliance Matrix: (Units=1/GPa)
#
#
# Indices 1 2 3 4 5 6 
#
# 1 0.008338 -0.002314 -0.001707 0.000000 0.000000 0.000000
# 2 -0.002314 0.009525 0.007259 0.000000 0.000000 0.000000
# 3 -0.001707 0.007259 0.070394 0.000001 0.000000 0.000000
# 4 0.000000 0.000000 0.000001 0.201849 0.000000 0.000000
# 5 0.000000 0.000000 0.000000 0.000000 0.088929 0.000000
# 6 0.000000 0.000000 0.000000 0.000000 0.000000 0.034285
#
#
# Mechanical properties :
#
#
# Convention : Reuss Voigt Hill
#
# Bulk Modulus (GPa) = 10.55611 33.83317 22.19464
# Shear Modulus (GPa) = 11.40455 25.48377 18.44416
#
# Velocity S-wave (km/s) = 2.36243 3.53143 3.00434
# Velocity P-wave (km/s) = 3.55067 5.76064 4.78499
#
# Compressibility (1/GPa) = 0.09473182
#
# Stress axis : x y z
#
# Youngs Moduli (GPa) = 119.93878 104.98534 14.20577
#
# Poissons Ratio (x) = 0.24298 0.02424
# Poissons Ratio (y) = 0.27758 -0.10311
# Poissons Ratio (z) = 0.20468 -0.76204
#
# Static dielectric constant tensor:
#      x y z
#    x 1.773960 0.000000 0.000000 
#    y 0.000000 1.740220 0.000000 
#    z 0.000000 0.000000 1.770970 
# 
# From -- ./inp_files/13949.got.cif
#   From: 2010.05.17/outbox.cif.g08.bks.cpg/sg23_7_cif.got.tgz:13949.got - 2010.06.04 12:02:01.
