data_PCOD9330630
_publ_section_title
;
Structure prediction by ZEFSAII (Michael W. Deem and Ramdas Pophale) SiO2 
 PCOD9330630
Probable space group: I 2 2 2
;
_chemical_formula_sum "Si O2"
_cell_formula_units_Z 56
_cell_length_a 8.862589
_cell_length_b 20.658955
_cell_length_c 13.189109
_cell_angle_alpha 90.000000
_cell_angle_beta 90.000000
_cell_angle_gamma 90.000000
_cell_volume 2414.818068
_symmetry_space_group_name_H-M "I 2 2 2"
_symmetry_group_IT_number 23
_symmetry_cell_setting 'orthorhombic'
loop_
_space_group_symop_operation_xyz
x,y,z
-x,-y,z
x,-y,-z
-x,y,-z
1/2+x,1/2+y,1/2+z
1/2-x,1/2-y,1/2+z
1/2+x,1/2-y,1/2-z
1/2-x,1/2+y,1/2-z
loop_
_atom_site_type_symbol
_atom_site_label
_atom_site_fract_x
_atom_site_fract_y
_atom_site_fract_z
Si Si1 0.155706 0.908967 0.319567
Si Si2 0.500000 0.360568 0.000000
Si Si3 0.024117 0.423703 0.167154
Si Si4 0.664281 0.821350 0.441520
Si Si5 0.500000 0.500000 0.668845
Si Si6 0.881184 0.185555 0.140459
Si Si7 0.341150 0.622256 0.424893
Si Si8 0.023968 0.422228 0.614370
O O1 0.312175 0.912442 0.381309
O O2 0.125483 0.968316 0.242565
O O3 0.150643 0.846146 0.247911
O O4 0.021258 0.903162 0.399466
O O5 0.664544 0.324777 0.011285
O O6 0.000000 0.500000 0.164957
O O7 0.884785 0.385562 0.120136
O O8 0.057792 0.402155 0.283316
O O9 0.500000 0.810122 0.500000
O O10 0.673415 0.757921 0.370976
O O11 0.433950 0.443257 0.599504
O O12 0.061638 0.179563 0.123386
O O13 0.821878 0.142484 0.043143
O O14 0.189821 0.604947 0.368358
O O15 0.000000 0.500000 0.609952
O O16 0.000000 0.399116 0.500000
#
# Coordination Sequence:
#
# PCOD9330630 Si02
#       8
#     8   4   8   8   4   8   8   8
#     4  11  25  46  70 115 148 196 251 305 381 457
#     4  12  30  51  78 106 142 205 258 312 390 446
#     4  11  25  46  77 110 150 199 250 315 388 447
#     4  12  26  56  76 106 147 196 259 325 373 457
#     4  10  22  38  72 106 152 187 244 309 374 460
#     4  10  24  45  76 103 147 196 253 311 385 454
#     4  10  20  39  68 104 145 193 240 299 380 451
#     4  10  21  37  64 107 157 189 231 295 374 454
#
# _framework density 23.190154
#
# number of rings (size 3 to 8) (size 9 to 14) (size 15 to 20)
#    0.000    1.286    2.857    2.571    6.000   12.000 
#    6.429    0.000    0.000    0.000    0.000    0.000 
#    0.000    0.000    0.000    0.000    0.000    0.000 
#
# Total GULP energy -155947.299615 kJ/mol
# GULP energy per Si atom -5569.546415 kJ/mol
# Density = 2.313737 g / cm^3
# Si number density = 23.190154 Si / 1000 Ang^3
#
#
#
# Elastic Constant Matrix: (Units=GPa)
#
#
# Indices 1 2 3 4 5 6 
#
# 1 120.7272 26.5079 22.5300 0.0000 0.0000 0.0000
# 2 26.5079 97.6236 34.8847 0.0000 0.0000 0.0000
# 3 22.5300 34.8847 84.3237 0.0000 0.0000 0.0000
# 4 0.0000 0.0000 0.0000 117.9137 0.0000 0.0000
# 5 0.0000 0.0000 0.0000 0.0000 20.5439 0.0000
# 6 0.0000 0.0000 0.0000 0.0000 0.0000 19.8071
#
#
#
# Elastic Compliance Matrix: (Units=1/GPa)
#
#
# Indices 1 2 3 4 5 6 
#
# 1 0.008996 -0.001859 -0.001635 0.000000 0.000000 0.000000
# 2 -0.001859 0.012404 -0.004635 0.000000 0.000000 0.000000
# 3 -0.001635 -0.004635 0.014213 0.000000 0.000000 0.000000
# 4 0.000000 0.000000 0.000000 0.008481 0.000000 0.000000
# 5 0.000000 0.000000 0.000000 0.000000 0.048676 0.000000
# 6 0.000000 0.000000 0.000000 0.000000 0.000000 0.050487
#
#
# Mechanical properties :
#
#
# Convention : Reuss Voigt Hill
#
# Bulk Modulus (GPa) = 51.66056 52.27995 51.97026
# Shear Modulus (GPa) = 30.12641 46.23641 38.18141
#
# Velocity S-wave (km/s) = 3.60822 4.47004 4.06205
# Velocity P-wave (km/s) = 6.29955 7.01674 6.66779
#
# Compressibility (1/GPa) = 0.01935713
#
# Stress axis : x y z
#
# Youngs Moduli (GPa) = 111.15674 80.61658 70.35621
#
# Poissons Ratio (x) = 0.14984 0.11502
# Poissons Ratio (y) = 0.20660 0.32611
# Poissons Ratio (z) = 0.18172 0.37367
#
# Static dielectric constant tensor:
#      x y z
#    x 1.400270 0.000000 0.000000 
#    y 0.000000 1.841760 0.000000 
#    z 0.000000 0.000000 1.924850 
# 
# From -- ./inp_files/20250.got.cif
#   From: 2010.05.17/outbox.cif.g08.bks.cpg/sg23_11_cif.got.tgz:20250.got - 2010.06.04 12:02:01.
