data_PCOD9330157
_publ_section_title
;
Structure prediction by ZEFSAII (Michael W. Deem and Ramdas Pophale) SiO2 
 PCOD9330157
Probable space group: I 2 2 2
;
_chemical_formula_sum "Si O2"
_cell_formula_units_Z 32
_cell_length_a 8.960602
_cell_length_b 13.194429
_cell_length_c 13.223642
_cell_angle_alpha 90.000000
_cell_angle_beta 90.000000
_cell_angle_gamma 90.000000
_cell_volume 1563.431549
_symmetry_space_group_name_H-M "I 2 2 2"
_symmetry_group_IT_number 23
_symmetry_cell_setting 'orthorhombic'
loop_
_space_group_symop_operation_xyz
x,y,z
-x,-y,z
x,-y,-z
-x,y,-z
1/2+x,1/2+y,1/2+z
1/2-x,1/2-y,1/2+z
1/2+x,1/2-y,1/2-z
1/2-x,1/2+y,1/2-z
loop_
_atom_site_type_symbol
_atom_site_label
_atom_site_fract_x
_atom_site_fract_y
_atom_site_fract_z
Si Si1 0.736331 0.447132 0.130970
Si Si2 0.911398 0.850107 0.177930
Si Si3 0.500000 0.677168 0.000000
Si Si4 0.817997 0.180620 0.324513
Si Si5 0.500000 0.000000 0.500000
Si Si6 0.500000 0.500000 0.500000
O O1 0.698646 0.405388 0.241638
O O2 0.710354 0.433347 0.861058
O O3 0.614882 0.391701 0.062043
O O4 0.893846 0.435163 0.074531
O O5 0.835878 0.740137 0.175424
O O6 0.077037 0.833069 0.225945
O O7 0.920039 0.920857 0.078424
O O8 0.585595 0.735982 0.087794
#
# Coordination Sequence:
#
# PCOD9330157 Si02
#       6
#     8   8   4   8   2   2
#     4  11  22  42  63 101 129 175 216 301 336 413
#     4  11  26  43  71  93 144 185 238 273 364 413
#     4  10  19  42  70  87 134 171 222 284 370 385
#     4  11  22  42  67  98 126 180 230 286 335 435
#     4  12  24  32  76  94 128 156 236 282 352 396
#     4  12  24  50  68 100 146 208 208 296 360 442
#
# _framework density 20.467796
#
# number of rings (size 3 to 8) (size 9 to 14) (size 15 to 20)
#    0.000    1.000    5.000    3.000    3.500    5.000 
#    0.000    0.000    0.000    0.000    0.000    0.000 
#    0.000    0.000    0.000    0.000    0.000    0.000 
#
# Total GULP energy -89125.853835 kJ/mol
# GULP energy per Si atom -5570.365865 kJ/mol
# Density = 2.042121 g / cm^3
# Si number density = 20.467796 Si / 1000 Ang^3
#
#
#
# Elastic Constant Matrix: (Units=GPa)
#
#
# Indices 1 2 3 4 5 6 
#
# 1 105.7637 10.9379 37.8370 0.0000 0.0000 0.0000
# 2 10.9379 18.7255 10.0317 0.0000 0.0000 0.0000
# 3 37.8370 10.0317 127.5960 0.0000 0.0000 0.0000
# 4 0.0000 0.0000 0.0000 11.1774 0.0000 0.0000
# 5 0.0000 0.0000 0.0000 0.0000 36.6613 0.0000
# 6 0.0000 0.0000 0.0000 0.0000 0.0000 26.2075
#
#
#
# Elastic Compliance Matrix: (Units=1/GPa)
#
#
# Indices 1 2 3 4 5 6 
#
# 1 0.010988 -0.004878 -0.002875 0.000000 0.000000 0.000000
# 2 -0.004878 0.057917 -0.003107 0.000000 0.000000 0.000000
# 3 -0.002875 -0.003107 0.008934 0.000000 0.000000 0.000000
# 4 0.000000 0.000000 0.000000 0.089466 0.000000 0.000000
# 5 0.000000 0.000000 0.000000 0.000000 0.027277 0.000000
# 6 0.000000 0.000000 0.000000 0.000000 0.000000 0.038157
#
#
# Mechanical properties :
#
#
# Convention : Reuss Voigt Hill
#
# Bulk Modulus (GPa) = 17.81920 41.07759 29.44839
# Shear Modulus (GPa) = 18.30394 27.69448 22.99921
#
# Velocity S-wave (km/s) = 2.99370 3.68241 3.35577
# Velocity P-wave (km/s) = 4.54692 6.18006 5.42529
#
# Compressibility (1/GPa) = 0.05611925
#
# Stress axis : x y z
#
# Youngs Moduli (GPa) = 91.00840 17.26607 111.93197
#
# Poissons Ratio (x) = 0.08423 0.32179
# Poissons Ratio (y) = 0.44395 0.34776
# Poissons Ratio (z) = 0.26163 0.05364
#
# Static dielectric constant tensor:
#      x y z
#    x 1.834700 0.000000 0.000000 
#    y 0.000000 1.770390 0.000000 
#    z 0.000000 0.000000 1.841240 
# 
# From -- ./inp_files/14287.got.cif
#   From: 2010.05.17/outbox.cif.g08.bks.cpg/sg23_8_cif.got.tgz:14287.got - 2010.06.04 12:02:01.
