data_PCOD9330656
_publ_section_title
;
Structure prediction by ZEFSAII (Michael W. Deem and Ramdas Pophale) SiO2 
 PCOD9330656
Probable space group: I 2 2 2
;
_chemical_formula_sum "Si O2"
_cell_formula_units_Z 38
_cell_length_a 10.884973
_cell_length_b 24.337829
_cell_length_c 6.373300
_cell_angle_alpha 90.000000
_cell_angle_beta 90.000000
_cell_angle_gamma 90.000000
_cell_volume 1688.393040
_symmetry_space_group_name_H-M "I 2 2 2"
_symmetry_group_IT_number 23
_symmetry_cell_setting 'orthorhombic'
loop_
_space_group_symop_operation_xyz
x,y,z
-x,-y,z
x,-y,-z
-x,y,-z
1/2+x,1/2+y,1/2+z
1/2-x,1/2-y,1/2+z
1/2+x,1/2-y,1/2-z
1/2-x,1/2+y,1/2-z
loop_
_atom_site_type_symbol
_atom_site_label
_atom_site_fract_x
_atom_site_fract_y
_atom_site_fract_z
Si Si1 0.000000 0.500000 0.500000
Si Si2 0.635034 0.810446 0.952855
Si Si3 0.889252 0.581705 0.169375
Si Si4 0.123985 0.898913 0.386181
Si Si5 0.807366 0.196217 0.691985
Si Si6 0.000000 0.150597 0.000000
O O1 0.921131 0.538322 0.348556
O O2 0.621892 0.859499 0.787868
O O3 0.712736 0.759199 0.867007
O O4 0.500000 0.788161 0.000000
O O5 0.693925 0.827861 0.174783
O O6 0.751827 0.569164 0.086056
O O7 0.000000 0.581816 0.000000
O O8 0.156464 0.840658 0.495131
O O9 0.000000 0.920221 0.500000
O O10 0.087548 0.886859 0.145659
O O11 0.921088 0.188424 0.848282
#
# Coordination Sequence:
#
# PCOD9330656 Si02
#       6
#     2   8   8   8   8   4
#     4  12  30  52  76 104 136 188 262 334 388 420
#     4  12  24  39  66 101 145 197 248 293 364 451
#     4  12  26  49  75 105 141 193 250 324 381 442
#     4  10  22  42  72 105 147 192 234 294 374 456
#     4  11  24  38  60 104 151 191 233 291 355 449
#     4  10  20  40  62  99 146 191 224 272 354 434
#
# _framework density 22.506606999999999
#
# number of rings (size 3 to 8) (size 9 to 14) (size 15 to 20)
#    0.000    0.842    3.158    4.737    4.421    0.000 
#    0.000    0.000    0.000    9.474    0.000    0.000 
#    0.000    0.000    0.000    0.000    0.000    0.000 
#
# Total GULP energy -106240.782913 kJ/mol
# GULP energy per Si atom -5591.620153 kJ/mol
# Density = 2.245538 g / cm^3
# Si number density = 22.506607 Si / 1000 Ang^3
#
#
#
# Elastic Constant Matrix: (Units=GPa)
#
#
# Indices 1 2 3 4 5 6 
#
# 1 167.3897 33.2837 64.2693 -0.0002 0.0002 0.0001
# 2 33.2837 57.6866 32.7503 0.0001 -0.0002 -0.0006
# 3 64.2693 32.7503 118.6219 -0.0008 -0.0003 -0.0002
# 4 -0.0002 0.0001 -0.0008 25.7918 0.0004 -0.0006
# 5 0.0002 -0.0002 -0.0003 0.0004 43.3254 -0.0002
# 6 0.0001 -0.0006 -0.0002 -0.0006 -0.0002 -4.4856
#
#
#
# Elastic Compliance Matrix: (Units=1/GPa)
#
#
# Indices 1 2 3 4 5 6 
#
# 1 0.007837 -0.002503 -0.003555 0.000000 0.000000 0.000001
# 2 -0.002503 0.021357 -0.004540 0.000000 0.000000 -0.000003
# 3 -0.003555 -0.004540 0.011610 0.000000 0.000000 0.000000
# 4 0.000000 0.000000 0.000000 0.038772 0.000000 -0.000006
# 5 0.000000 0.000000 0.000000 0.000000 0.023081 -0.000001
# 6 0.000001 -0.000003 0.000000 -0.000006 -0.000001 -0.222933
#
#
# Mechanical properties :
#
#
# Convention : Reuss Voigt Hill
#
# Bulk Modulus (GPa) = 51.00288 67.14497 59.07393
# Shear Modulus (GPa) = -54.02804 27.15263 -13.43770
#
# Velocity S-wave (km/s) = -4.90485 3.47714 -2.44612
# Velocity P-wave (km/s) = 3.06043 6.78372 4.28093
#
# Compressibility (1/GPa) = 0.01960674
#
# Stress axis : x y z
#
# Youngs Moduli (GPa) = 127.60442 46.82302 86.13574
#
# Poissons Ratio (x) = 0.11722 0.30619
# Poissons Ratio (y) = 0.31945 0.39106
# Poissons Ratio (z) = 0.45360 0.21258
#
# Static dielectric constant tensor:
#      x y z
#    x 1.897310 0.000000 0.000000 
#    y 0.000000 1.809370 0.000000 
#    z 0.000000 0.000000 1.865520 
# 
# From -- ./inp_files/1748.got.cif
#   From: 2010.05.17/outbox.cif.g08.bks.cpg/sg23_1_cif.got.tgz:1748.got - 2010.06.04 12:02:01.
