data_PCOD9330610
_publ_section_title
;
Structure prediction by ZEFSAII (Michael W. Deem and Ramdas Pophale) SiO2 
 PCOD9330610
Probable space group: I 2 2 2
;
_chemical_formula_sum "Si O2"
_cell_formula_units_Z 48
_cell_length_a 19.799208
_cell_length_b 8.943040
_cell_length_c 13.103484
_cell_angle_alpha 90.000000
_cell_angle_beta 90.000000
_cell_angle_gamma 90.000000
_cell_volume 2320.169824
_symmetry_space_group_name_H-M "I 2 2 2"
_symmetry_group_IT_number 23
_symmetry_cell_setting 'orthorhombic'
loop_
_space_group_symop_operation_xyz
x,y,z
-x,-y,z
x,-y,-z
-x,y,-z
1/2+x,1/2+y,1/2+z
1/2-x,1/2-y,1/2+z
1/2+x,1/2-y,1/2-z
1/2-x,1/2+y,1/2-z
loop_
_atom_site_type_symbol
_atom_site_label
_atom_site_fract_x
_atom_site_fract_y
_atom_site_fract_z
Si Si1 0.790493 0.458581 0.305351
Si Si2 0.599017 0.862965 0.934195
Si Si3 0.861074 0.072076 0.888737
Si Si4 0.168776 0.837840 0.402316
Si Si5 0.183542 0.400344 0.085615
Si Si6 0.930737 0.077572 0.682379
O O1 0.837078 0.559470 0.378771
O O2 0.713271 0.471249 0.343571
O O3 0.814748 0.285826 0.314855
O O4 0.801701 0.515829 0.191293
O O5 0.565973 0.752704 0.849818
O O6 0.620249 0.745700 0.020170
O O7 0.568126 0.000000 0.000000
O O8 0.856951 0.250277 0.898435
O O9 0.916753 0.045900 0.801895
O O10 0.870929 0.000000 0.000000
O O11 0.241671 0.856611 0.453823
O O12 0.132904 0.990048 0.368452
O O13 0.149750 0.500000 0.000000
O O14 0.000000 0.000000 0.649578
#
# Coordination Sequence:
#
# PCOD9330610 Si02
#       6
#     8   8   8   8   8   8
#     4  10  20  39  63  96 129 164 202 268 336 390
#     4  10  21  42  65  93 130 160 209 262 328 391
#     4  11  24  39  64  94 130 169 212 265 325 391
#     4  10  22  35  62  93 127 161 201 263 324 391
#     4  11  21  34  64  96 127 158 207 263 340 393
#     4  12  25  42  63  92 127 173 221 262 317 379
#
# _framework density 20.688140000000001
#
# number of rings (size 3 to 8) (size 9 to 14) (size 15 to 20)
#    0.000    1.333    3.333    4.000    2.333    1.667 
#    0.000    5.833    0.000    0.000    0.000    0.000 
#    0.000    0.000    0.000    0.000    0.000    0.000 
#
# Total GULP energy -133880.530657 kJ/mol
# GULP energy per Si atom -5578.355444 kJ/mol
# Density = 2.064105 g / cm^3
# Si number density = 20.688140 Si / 1000 Ang^3
#
#
#
# Elastic Constant Matrix: (Units=GPa)
#
#
# Indices 1 2 3 4 5 6 
#
# 1 50.1031 5.6714 -5.4631 0.0000 0.0000 0.0000
# 2 5.6714 105.4186 26.5439 0.0000 0.0000 0.0000
# 3 -5.4631 26.5439 98.7847 0.0000 0.0000 0.0000
# 4 0.0000 0.0000 0.0000 41.7734 0.0000 0.0000
# 5 0.0000 0.0000 0.0000 0.0000 -12.2146 0.0000
# 6 0.0000 0.0000 0.0000 0.0000 0.0000 -1.2746
#
#
#
# Elastic Compliance Matrix: (Units=1/GPa)
#
#
# Indices 1 2 3 4 5 6 
#
# 1 0.020291 -0.001474 0.001518 0.000000 0.000000 0.000000
# 2 -0.001474 0.010281 -0.002844 0.000000 0.000000 0.000000
# 3 0.001518 -0.002844 0.010971 0.000000 0.000000 0.000000
# 4 0.000000 0.000000 0.000000 0.023939 0.000000 0.000000
# 5 0.000000 0.000000 0.000000 0.000000 -0.081869 0.000000
# 6 0.000000 0.000000 0.000000 0.000000 0.000000 -0.784588
#
#
# Mechanical properties :
#
#
# Convention : Reuss Voigt Hill
#
# Bulk Modulus (GPa) = 27.82098 34.20121 31.01109
# Shear Modulus (GPa) = -6.38249 20.82714 7.22232
#
# Velocity S-wave (km/s) = -1.75835 3.17633 1.87046
# Velocity P-wave (km/s) = 3.05853 5.47903 4.43702
#
# Compressibility (1/GPa) = 0.03594410
#
# Stress axis : x y z
#
# Youngs Moduli (GPa) = 49.28241 97.26269 91.14744
#
# Poissons Ratio (x) = 0.14336 -0.13838
# Poissons Ratio (y) = 0.07264 0.25924
# Poissons Ratio (z) = -0.07482 0.27663
#
# Static dielectric constant tensor:
#      x y z
#    x 1.719970 0.000000 0.000000 
#    y 0.000000 1.783580 0.000000 
#    z 0.000000 0.000000 1.877780 
# 
# From -- ./inp_files/18287.got.cif
#   From: 2010.05.17/outbox.cif.g08.bks.cpg/sg23_10_cif.got.tgz:18287.got - 2010.06.04 12:02:01.
