data_PCOD9330409
_publ_section_title
;
Structure prediction by ZEFSAII (Michael W. Deem and Ramdas Pophale) SiO2 
 PCOD9330409
Probable space group: I 2 2 2
;
_chemical_formula_sum "Si O2"
_cell_formula_units_Z 64
_cell_length_a 26.358056
_cell_length_b 9.508689
_cell_length_c 13.712750
_cell_angle_alpha 90.000000
_cell_angle_beta 90.000000
_cell_angle_gamma 90.000000
_cell_volume 3436.834173
_symmetry_space_group_name_H-M "I 2 2 2"
_symmetry_group_IT_number 23
_symmetry_cell_setting 'orthorhombic'
loop_
_space_group_symop_operation_xyz
x,y,z
-x,-y,z
x,-y,-z
-x,y,-z
1/2+x,1/2+y,1/2+z
1/2-x,1/2-y,1/2+z
1/2+x,1/2-y,1/2-z
1/2-x,1/2+y,1/2-z
loop_
_atom_site_type_symbol
_atom_site_label
_atom_site_fract_x
_atom_site_fract_y
_atom_site_fract_z
Si Si1 0.375929 0.516228 0.883490
Si Si2 0.494095 0.669237 0.613907
Si Si3 0.387729 0.268131 0.283931
Si Si4 0.662372 0.976657 0.736867
Si Si5 0.835276 0.990263 0.115531
Si Si6 0.760806 0.927360 0.600997
Si Si7 0.727167 0.096844 0.904859
Si Si8 0.592039 0.706153 0.731084
O O1 0.390846 0.660755 0.824953
O O2 0.314691 0.503140 0.867754
O O3 0.405448 0.391984 0.827014
O O4 0.384256 0.500000 0.000000
O O5 0.500000 0.500000 0.617456
O O6 0.500000 0.711586 0.500000
O O7 0.439491 0.704822 0.658182
O O8 0.537030 0.733051 0.685221
O O9 0.371391 0.108068 0.297132
O O10 0.344016 0.359660 0.336101
O O11 0.683566 0.034996 0.838358
O O12 0.712558 0.942420 0.672327
O O13 0.626325 0.842680 0.746010
O O14 0.781422 0.928621 0.145420
O O15 0.879528 0.889517 0.151174
O O16 0.837561 0.000000 0.000000
O O17 0.775146 0.764004 0.581066
O O18 0.745629 0.000000 0.500000
O O19 0.727706 0.000000 0.000000
#
# Coordination Sequence:
#
# PCOD9330409 Si02
#       8
#     8   8   8   8   8   8   8   8
#     4  10  22  40  63  88 126 159 207 257 302 364
#     4  11  22  41  70  95 120 155 205 256 310 373
#     4  11  23  40  62  91 121 162 209 255 312 365
#     4  12  26  39  61  89 133 167 204 256 309 361
#     4  10  20  36  60  87 124 157 204 252 305 368
#     4  11  25  39  60  93 128 165 208 254 306 368
#     4  11  25  39  61  90 124 169 211 251 304 368
#     4  11  23  40  62  92 119 165 207 253 312 366
#
# _framework density 18.621787999999999
#
# number of rings (size 3 to 8) (size 9 to 14) (size 15 to 20)
#    0.000    1.125    5.000    2.250    7.000    1.500 
#    0.000    1.875    0.000    0.000    0.000    2.625 
#    0.000    0.000    0.000    0.000    0.000    0.000 
#
# Total GULP energy -178504.199206 kJ/mol
# GULP energy per Si atom -5578.256225 kJ/mol
# Density = 1.857940 g / cm^3
# Si number density = 18.621788 Si / 1000 Ang^3
#
#
#
# Elastic Constant Matrix: (Units=GPa)
#
#
# Indices 1 2 3 4 5 6 
#
# 1 68.9005 4.2142 32.4212 0.0000 0.0000 0.0000
# 2 4.2142 98.0073 38.0934 0.0000 0.0000 0.0000
# 3 32.4212 38.0934 113.3028 0.0000 0.0000 0.0000
# 4 0.0000 0.0000 0.0000 14.0682 0.0000 0.0000
# 5 0.0000 0.0000 0.0000 0.0000 -10.7552 0.0000
# 6 0.0000 0.0000 0.0000 0.0000 0.0000 -39.7604
#
#
#
# Elastic Compliance Matrix: (Units=1/GPa)
#
#
# Indices 1 2 3 4 5 6 
#
# 1 0.016921 0.001328 -0.005288 0.000000 0.000000 0.000000
# 2 0.001328 0.011841 -0.004361 0.000000 0.000000 0.000000
# 3 -0.005288 -0.004361 0.011805 0.000000 0.000000 0.000000
# 4 0.000000 0.000000 0.000000 0.071082 0.000000 0.000000
# 5 0.000000 0.000000 0.000000 0.000000 -0.092978 0.000000
# 6 0.000000 0.000000 0.000000 0.000000 0.000000 -0.025151
#
#
# Mechanical properties :
#
#
# Convention : Reuss Voigt Hill
#
# Bulk Modulus (GPa) = 41.79816 47.74091 44.76953
# Shear Modulus (GPa) = 275.64706 6.40929 141.02817
#
# Velocity S-wave (km/s) = 12.17971 1.85723 8.71191
# Velocity P-wave (km/s) = 14.84211 5.50380 11.19330
#
# Compressibility (1/GPa) = 0.02392450
#
# Stress axis : x y z
#
# Youngs Moduli (GPa) = 59.09854 84.45010 84.70702
#
# Poissons Ratio (x) = -0.11214 0.44796
# Poissons Ratio (y) = -0.07848 0.36942
# Poissons Ratio (z) = 0.31253 0.36830
#
# Static dielectric constant tensor:
#      x y z
#    x 1.663950 0.000000 0.000000 
#    y 0.000000 1.728420 0.000000 
#    z 0.000000 0.000000 1.870900 
# 
# From -- ./inp_files/22613.got.cif
#   From: 2010.05.17/outbox.cif.g08.bks.cpg/sg23_12_cif.got.tgz:22613.got - 2010.06.04 12:02:01.
