data_PCOD9330223
_publ_section_title
;
Structure prediction by ZEFSAII (Michael W. Deem and Ramdas Pophale) SiO2 
 PCOD9330223
Probable space group: I 2 2 2
;
_chemical_formula_sum "Si O2"
_cell_formula_units_Z 58
_cell_length_a 29.065319
_cell_length_b 5.346753
_cell_length_c 18.653680
_cell_angle_alpha 90.000000
_cell_angle_beta 90.000000
_cell_angle_gamma 90.000000
_cell_volume 2898.876662
_symmetry_space_group_name_H-M "I 2 2 2"
_symmetry_group_IT_number 23
_symmetry_cell_setting 'orthorhombic'
loop_
_space_group_symop_operation_xyz
x,y,z
-x,-y,z
x,-y,-z
-x,y,-z
1/2+x,1/2+y,1/2+z
1/2-x,1/2-y,1/2+z
1/2+x,1/2-y,1/2-z
1/2-x,1/2+y,1/2-z
loop_
_atom_site_type_symbol
_atom_site_label
_atom_site_fract_x
_atom_site_fract_y
_atom_site_fract_z
Si Si1 0.052475 0.457009 0.751589
Si Si2 0.792323 0.239197 0.455654
Si Si3 0.000000 0.000000 0.500000
Si Si4 0.916801 0.042650 0.763470
Si Si5 0.768410 0.499255 0.159162
Si Si6 0.076310 0.888339 0.594715
Si Si7 0.308810 0.505752 0.281851
Si Si8 0.618053 0.106778 0.887211
O O1 0.069677 0.692905 0.796770
O O2 0.090779 0.419435 0.688102
O O3 0.000000 0.500000 0.726289
O O4 0.055447 0.193447 0.791557
O O5 0.783759 0.500000 0.500000
O O6 0.749410 0.105008 0.416547
O O7 0.828729 0.322789 0.393925
O O8 0.811670 0.000000 0.500000
O O9 0.030083 0.833485 0.553039
O O10 0.931332 0.087238 0.680020
O O11 0.862616 0.986305 0.764869
O O12 0.723975 0.498821 0.211983
O O13 0.791062 0.224393 0.168079
O O14 0.801683 0.717436 0.186845
O O15 0.111929 0.667787 0.580882
O O16 0.092707 0.164794 0.573566
#
# Coordination Sequence:
#
# PCOD9330223 Si02
#       8
#     8   8   2   8   8   8   8   8
#     4  10  20  33  54  70 102 142 189 234 278 320
#     4  12  25  40  57  82 116 145 179 229 298 358
#     4  12  28  38  52  70 104 154 208 242 274 330
#     4  10  20  35  52  76  98 133 175 248 288 318
#     4  10  21  37  60  83 102 138 179 230 294 356
#     4  10  24  36  53  66 101 136 193 246 283 318
#     4  10  20  36  60  80 103 132 188 245 286 334
#     4  10  23  38  51  70  97 143 186 235 279 325
#
# _framework density 20.007750000000001
#
# number of rings (size 3 to 8) (size 9 to 14) (size 15 to 20)
#    0.000    1.655    0.000    4.552   10.621    7.172 
#    0.000    0.000    0.000    0.000    0.000    0.000 
#    0.000    0.000    0.000    0.000    0.000  144.828 
#
# Total GULP energy -161592.294387 kJ/mol
# GULP energy per Si atom -5572.148082 kJ/mol
# Density = 1.996221 g / cm^3
# Si number density = 20.007750 Si / 1000 Ang^3
#
#
#
# Elastic Constant Matrix: (Units=GPa)
#
#
# Indices 1 2 3 4 5 6 
#
# 1 73.3503 5.5306 5.5945 0.0000 0.0000 0.0000
# 2 5.5306 149.5402 -4.7926 0.0000 0.0000 0.0000
# 3 5.5945 -4.7926 9.2620 0.0000 0.0000 0.0000
# 4 0.0000 0.0000 0.0000 9.5006 0.0000 0.0000
# 5 0.0000 0.0000 0.0000 0.0000 15.8952 0.0000
# 6 0.0000 0.0000 0.0000 0.0000 0.0000 32.4507
#
#
#
# Elastic Compliance Matrix: (Units=1/GPa)
#
#
# Indices 1 2 3 4 5 6 
#
# 1 0.014391 -0.000824 -0.009119 0.000000 0.000000 0.000000
# 2 -0.000824 0.006847 0.004041 0.000000 0.000000 0.000000
# 3 -0.009119 0.004041 0.115567 0.000000 0.000000 0.000000
# 4 0.000000 0.000000 0.000000 0.105257 0.000000 0.000000
# 5 0.000000 0.000000 0.000000 0.000000 0.062912 0.000000
# 6 0.000000 0.000000 0.000000 0.000000 0.000000 0.030816
#
#
# Mechanical properties :
#
#
# Convention : Reuss Voigt Hill
#
# Bulk Modulus (GPa) = 8.00000 27.20194 17.60097
# Shear Modulus (GPa) = 12.84484 26.62398 19.73441
#
# Velocity S-wave (km/s) = 2.53651 3.65181 3.14401
# Velocity P-wave (km/s) = 3.54762 5.60412 4.68998
#
# Compressibility (1/GPa) = 0.12500001
#
# Stress axis : x y z
#
# Youngs Moduli (GPa) = 69.48839 146.04580 8.65299
#
# Poissons Ratio (x) = 0.12041 0.07891
# Poissons Ratio (y) = 0.05729 -0.03497
# Poissons Ratio (z) = 0.63367 -0.59018
#
# Static dielectric constant tensor:
#      x y z
#    x 1.733900 0.000000 0.000000 
#    y 0.000000 1.852660 0.000000 
#    z 0.000000 0.000000 1.773350 
# 
# From -- ./inp_files/25440.got.cif
#   From: 2010.05.17/outbox.cif.g08.bks.cpg/sg23_13_cif.got.tgz:25440.got - 2010.06.04 12:02:01.
