data_PCOD9330262
_publ_section_title
;
Structure prediction by ZEFSAII (Michael W. Deem and Ramdas Pophale) SiO2 
 PCOD9330262
Probable space group: I 2 2 2
;
_chemical_formula_sum "Si O2"
_cell_formula_units_Z 56
_cell_length_a 18.674805
_cell_length_b 23.519476
_cell_length_c 5.324682
_cell_angle_alpha 90.000000
_cell_angle_beta 90.000000
_cell_angle_gamma 90.000000
_cell_volume 2338.715497
_symmetry_space_group_name_H-M "I 2 2 2"
_symmetry_group_IT_number 23
_symmetry_cell_setting 'orthorhombic'
loop_
_space_group_symop_operation_xyz
x,y,z
-x,-y,z
x,-y,-z
-x,y,-z
1/2+x,1/2+y,1/2+z
1/2-x,1/2-y,1/2+z
1/2+x,1/2-y,1/2-z
1/2-x,1/2+y,1/2-z
loop_
_atom_site_type_symbol
_atom_site_label
_atom_site_fract_x
_atom_site_fract_y
_atom_site_fract_z
Si Si1 0.276037 0.053559 0.171732
Si Si2 0.660288 0.860578 0.477229
Si Si3 0.047511 0.165614 0.249787
Si Si4 0.127031 0.942516 0.564134
Si Si5 0.198876 0.132057 0.796515
Si Si6 0.297248 0.248713 0.235979
Si Si7 0.952107 0.294335 0.747637
O O1 0.339979 0.078140 0.343907
O O2 0.202493 0.038177 0.313429
O O3 0.247609 0.108050 0.016349
O O4 0.296143 0.000000 0.000000
O O5 0.741295 0.860086 0.580692
O O6 0.656609 0.807036 0.288261
O O7 0.606398 0.843234 0.697790
O O8 0.097743 0.109890 0.269643
O O9 0.079618 0.229883 0.268552
O O10 0.000000 0.160772 0.500000
O O11 0.000000 0.162529 0.000000
O O12 0.143953 0.914264 0.296628
O O13 0.084710 0.000000 0.500000
O O14 0.161367 0.192984 0.798436
O O15 0.236970 0.252700 0.458784
O O16 0.000000 0.303712 0.500000
O O17 0.000000 0.294913 0.000000
#
# Coordination Sequence:
#
# PCOD9330262 Si02
#       7
#     8   8   8   8   8   8   8
#     4  11  22  40  64  97 142 183 230 280 355 436
#     4  10  23  37  64  96 136 179 225 282 360 433
#     4  10  25  46  68  94 131 188 249 304 359 407
#     4  11  24  40  63  95 136 189 235 296 339 414
#     4  10  22  37  59  95 134 174 221 276 353 416
#     4  10  20  34  54  90 131 169 220 272 331 414
#     4  10  24  43  67  99 135 178 233 299 360 423
#
# _framework density 23.944769000000001
#
# number of rings (size 3 to 8) (size 9 to 14) (size 15 to 20)
#    0.000    1.714    2.857    0.000    6.000    4.857 
#    0.000    0.714    0.000    0.000    0.000    3.000 
#    0.000    0.000    0.000    0.000    0.000    0.000 
#
# Total GULP energy -156356.539978 kJ/mol
# GULP energy per Si atom -5584.162142 kJ/mol
# Density = 2.389027 g / cm^3
# Si number density = 23.944769 Si / 1000 Ang^3
#
#
#
# Elastic Constant Matrix: (Units=GPa)
#
#
# Indices 1 2 3 4 5 6 
#
# 1 72.5068 53.9516 42.3872 0.0000 0.0000 0.0000
# 2 53.9516 151.3097 47.4516 0.0000 0.0000 0.0000
# 3 42.3872 47.4516 128.0919 0.0000 0.0000 0.0000
# 4 0.0000 0.0000 0.0000 46.7415 0.0000 0.0000
# 5 0.0000 0.0000 0.0000 0.0000 39.1526 0.0000
# 6 0.0000 0.0000 0.0000 0.0000 0.0000 12.8213
#
#
#
# Elastic Compliance Matrix: (Units=1/GPa)
#
#
# Indices 1 2 3 4 5 6 
#
# 1 0.021035 -0.006016 -0.004732 0.000000 0.000000 0.000000
# 2 -0.006016 0.009198 -0.001417 0.000000 0.000000 0.000000
# 3 -0.004732 -0.001417 0.009898 0.000000 0.000000 0.000000
# 4 0.000000 0.000000 0.000000 0.021394 0.000000 0.000000
# 5 0.000000 0.000000 0.000000 0.000000 0.025541 0.000000
# 6 0.000000 0.000000 0.000000 0.000000 0.000000 0.077995
#
#
# Mechanical properties :
#
#
# Convention : Reuss Voigt Hill
#
# Bulk Modulus (GPa) = 63.28739 71.05437 67.17088
# Shear Modulus (GPa) = 25.68608 33.61762 29.65185
#
# Velocity S-wave (km/s) = 3.27880 3.75102 3.52283
# Velocity P-wave (km/s) = 6.38921 6.96411 6.68284
#
# Compressibility (1/GPa) = 0.01580094
#
# Stress axis : x y z
#
# Youngs Moduli (GPa) = 47.54043 108.71422 101.03497
#
# Poissons Ratio (x) = 0.65405 0.47809
# Poissons Ratio (y) = 0.28602 0.14314
# Poissons Ratio (z) = 0.22496 0.15402
#
# Static dielectric constant tensor:
#      x y z
#    x 1.934300 0.000000 0.000000 
#    y 0.000000 2.010080 0.000000 
#    z 0.000000 0.000000 2.020030 
# 
# From -- ./inp_files/4003.got.cif
#   From: 2010.05.17/outbox.cif.g08.bks.cpg/sg23_3_cif.got.tgz:4003.got - 2010.06.04 12:02:01.
