data_PCOD9330371
_publ_section_title
;
Structure prediction by ZEFSAII (Michael W. Deem and Ramdas Pophale) SiO2 
 PCOD9330371
Probable space group: I 2 2 2
;
_chemical_formula_sum "Si O2"
_cell_formula_units_Z 48
_cell_length_a 21.046101
_cell_length_b 8.746209
_cell_length_c 13.865431
_cell_angle_alpha 90.000000
_cell_angle_beta 90.000000
_cell_angle_gamma 90.000000
_cell_volume 2552.259772
_symmetry_space_group_name_H-M "I 2 2 2"
_symmetry_group_IT_number 23
_symmetry_cell_setting 'orthorhombic'
loop_
_space_group_symop_operation_xyz
x,y,z
-x,-y,z
x,-y,-z
-x,y,-z
1/2+x,1/2+y,1/2+z
1/2-x,1/2-y,1/2+z
1/2+x,1/2-y,1/2-z
1/2-x,1/2+y,1/2-z
loop_
_atom_site_type_symbol
_atom_site_label
_atom_site_fract_x
_atom_site_fract_y
_atom_site_fract_z
Si Si1 0.932607 0.909960 0.686904
Si Si2 0.704158 0.838647 0.498700
Si Si3 0.727287 0.307895 0.294770
Si Si4 0.827255 0.861547 0.826722
Si Si5 0.067073 0.676271 0.468054
Si Si6 0.661405 0.654686 0.895654
O O1 0.897240 0.901827 0.789239
O O2 0.931588 0.739684 0.640758
O O3 0.882828 0.007993 0.622084
O O4 0.000000 0.000000 0.688010
O O5 0.717021 0.782140 0.606456
O O6 0.672864 0.708406 0.433001
O O7 0.769766 0.873150 0.441022
O O8 0.668080 0.000000 0.500000
O O9 0.794035 0.259433 0.246805
O O10 0.716793 0.487097 0.317851
O O11 0.675806 0.274940 0.209975
O O12 0.064983 0.500000 0.500000
O O13 0.124613 0.739902 0.530357
O O14 0.000000 0.748209 0.500000
#
# Coordination Sequence:
#
# PCOD9330371 Si02
#       6
#     8   8   8   8   8   8
#     4  11  21  38  60  81 118 158 195 236 288 358
#     4  11  21  36  58  85 119 151 198 246 298 350
#     4  10  20  36  54  82 119 147 195 244 289 348
#     4  10  22  36  58  88 114 158 200 238 301 349
#     4  11  22  33  51  85 117 147 189 231 286 341
#     4  10  21  35  56  83 113 158 191 232 290 355
#
# _framework density 18.806861999999999
#
# number of rings (size 3 to 8) (size 9 to 14) (size 15 to 20)
#    0.000    1.500    1.667    6.000    0.000    6.667 
#    0.000    0.000    0.000    8.000    0.000    4.667 
#    0.000    0.000    0.000    0.000    0.000    0.000 
#
# Total GULP energy -133706.133467 kJ/mol
# GULP energy per Si atom -5571.088894 kJ/mol
# Density = 1.876406 g / cm^3
# Si number density = 18.806862 Si / 1000 Ang^3
#
#
#
# Elastic Constant Matrix: (Units=GPa)
#
#
# Indices 1 2 3 4 5 6 
#
# 1 62.0128 22.6089 18.3730 0.0000 0.0000 0.0000
# 2 22.6089 71.8376 26.1076 0.0000 0.0000 0.0000
# 3 18.3730 26.1076 112.2689 0.0000 0.0000 0.0000
# 4 0.0000 0.0000 0.0000 18.5287 0.0000 0.0000
# 5 0.0000 0.0000 0.0000 0.0000 16.5139 0.0000
# 6 0.0000 0.0000 0.0000 0.0000 0.0000 13.0612
#
#
#
# Elastic Compliance Matrix: (Units=1/GPa)
#
#
# Indices 1 2 3 4 5 6 
#
# 1 0.018555 -0.005173 -0.001834 0.000000 0.000000 0.000000
# 2 -0.005173 0.016648 -0.003025 0.000000 0.000000 0.000000
# 3 -0.001834 -0.003025 0.009911 0.000000 0.000000 0.000000
# 4 0.000000 0.000000 0.000000 0.053970 0.000000 0.000000
# 5 0.000000 0.000000 0.000000 0.000000 0.060555 0.000000
# 6 0.000000 0.000000 0.000000 0.000000 0.000000 0.076563
#
#
# Mechanical properties :
#
#
# Convention : Reuss Voigt Hill
#
# Bulk Modulus (GPa) = 39.91980 42.25535 41.08758
# Shear Modulus (GPa) = 18.89540 21.55608 20.22574
#
# Velocity S-wave (km/s) = 3.17315 3.38920 3.28296
# Velocity P-wave (km/s) = 5.89045 6.15081 6.02204
#
# Compressibility (1/GPa) = 0.02505022
#
# Stress axis : x y z
#
# Youngs Moduli (GPa) = 53.89363 60.06829 100.90178
#
# Poissons Ratio (x) = 0.31075 0.18501
# Poissons Ratio (y) = 0.27881 0.30520
# Poissons Ratio (z) = 0.09882 0.18169
#
# Static dielectric constant tensor:
#      x y z
#    x 1.675490 0.000000 0.000000 
#    y 0.000000 1.740160 0.000000 
#    z 0.000000 0.000000 1.689340 
# 
# From -- ./inp_files/8683.got.cif
#   From: 2010.05.17/outbox.cif.g08.bks.cpg/sg23_5_cif.got.tgz:8683.got - 2010.06.04 12:02:01.
