data_PCOD9330310
_publ_section_title
;
Structure prediction by ZEFSAII (Michael W. Deem and Ramdas Pophale) SiO2 
 PCOD9330310
Probable space group: I 2 2 2
;
_chemical_formula_sum "Si O2"
_cell_formula_units_Z 64
_cell_length_a 13.978137
_cell_length_b 12.008095
_cell_length_c 21.874754
_cell_angle_alpha 90.000000
_cell_angle_beta 90.000000
_cell_angle_gamma 90.000000
_cell_volume 3671.694893
_symmetry_space_group_name_H-M "I 2 2 2"
_symmetry_group_IT_number 23
_symmetry_cell_setting 'orthorhombic'
loop_
_space_group_symop_operation_xyz
x,y,z
-x,-y,z
x,-y,-z
-x,y,-z
1/2+x,1/2+y,1/2+z
1/2-x,1/2-y,1/2+z
1/2+x,1/2-y,1/2-z
1/2-x,1/2+y,1/2-z
loop_
_atom_site_type_symbol
_atom_site_label
_atom_site_fract_x
_atom_site_fract_y
_atom_site_fract_z
Si Si1 0.400741 0.621337 0.135509
Si Si2 0.794762 0.258947 0.291780
Si Si3 0.113647 0.867040 0.178613
Si Si4 0.116887 0.873385 0.401276
Si Si5 0.610806 0.176115 0.979858
Si Si6 0.402134 0.379712 0.718568
Si Si7 0.391314 0.039857 0.146633
Si Si8 0.720702 0.165327 0.101792
O O1 0.506450 0.656524 0.114168
O O2 0.376515 0.506003 0.101491
O O3 0.410130 0.602449 0.208267
O O4 0.325784 0.717424 0.121010
O O5 0.827062 0.198672 0.230242
O O6 0.818498 0.176802 0.347590
O O7 0.685088 0.296307 0.291773
O O8 0.856815 0.370893 0.303576
O O9 0.166481 0.838210 0.115255
O O10 0.002318 0.839236 0.189997
O O11 0.119435 0.999501 0.190099
O O12 0.135144 0.804153 0.462543
O O13 0.619735 0.103546 0.918437
O O14 0.500000 0.166265 0.000000
O O15 0.681680 0.141292 0.033876
O O16 0.500000 0.000000 0.154263
O O17 0.325838 0.930807 0.143881
#
# Coordination Sequence:
#
# PCOD9330310 Si02
#       8
#     8   8   8   8   8   8   8   8
#     4  11  19  33  58  82 119 153 182 228 281 362
#     4  11  20  35  59  84 111 151 189 235 294 340
#     4  11  22  37  56  81 116 157 195 231 287 354
#     4  10  20  35  53  83 115 150 191 224 294 346
#     4  11  21  35  54  81 117 153 184 244 297 347
#     4  11  21  37  58  82 119 153 188 238 284 345
#     4  11  22  34  55  84 118 148 189 239 298 352
#     4  12  22  34  53  83 112 157 195 229 288 355
#
# _framework density 17.430641999999999
#
# number of rings (size 3 to 8) (size 9 to 14) (size 15 to 20)
#    0.000    1.000    7.500    1.875    0.000    0.500 
#    0.000    0.000    0.000    3.000    0.000    0.000 
#    0.000    4.000    0.000    0.000    0.000    0.000 
#
# Total GULP energy -178651.774066 kJ/mol
# GULP energy per Si atom -5582.867940 kJ/mol
# Density = 1.739097 g / cm^3
# Si number density = 17.430642 Si / 1000 Ang^3
#
#
#
# Elastic Constant Matrix: (Units=GPa)
#
#
# Indices 1 2 3 4 5 6 
#
# 1 119.6878 46.1432 24.1954 0.0000 0.0000 0.0000
# 2 46.1432 77.5566 12.5707 0.0000 0.0000 0.0000
# 3 24.1954 12.5707 40.2960 0.0000 0.0000 0.0000
# 4 0.0000 0.0000 0.0000 26.5317 0.0000 0.0000
# 5 0.0000 0.0000 0.0000 0.0000 20.5247 0.0000
# 6 0.0000 0.0000 0.0000 0.0000 0.0000 27.8231
#
#
#
# Elastic Compliance Matrix: (Units=1/GPa)
#
#
# Indices 1 2 3 4 5 6 
#
# 1 0.011774 -0.006171 -0.005145 0.000000 0.000000 0.000000
# 2 -0.006171 0.016815 -0.001540 0.000000 0.000000 0.000000
# 3 -0.005145 -0.001540 0.028386 0.000000 0.000000 0.000000
# 4 0.000000 0.000000 0.000000 0.037691 0.000000 0.000000
# 5 0.000000 0.000000 0.000000 0.000000 0.048722 0.000000
# 6 0.000000 0.000000 0.000000 0.000000 0.000000 0.035941
#
#
# Mechanical properties :
#
#
# Convention : Reuss Voigt Hill
#
# Bulk Modulus (GPa) = 31.98648 44.81767 38.40208
# Shear Modulus (GPa) = 23.20591 25.28465 24.24528
#
# Velocity S-wave (km/s) = 3.65270 3.81279 3.73360
# Velocity P-wave (km/s) = 6.01499 6.71945 6.37695
#
# Compressibility (1/GPa) = 0.03126321
#
# Stress axis : x y z
#
# Youngs Moduli (GPa) = 84.93052 59.47002 35.22888
#
# Poissons Ratio (x) = 0.36701 0.18124
# Poissons Ratio (y) = 0.52414 0.05426
# Poissons Ratio (z) = 0.43693 0.09159
#
# Static dielectric constant tensor:
#      x y z
#    x 1.592310 0.000000 0.000000 
#    y 0.000000 1.618720 0.000000 
#    z 0.000000 0.000000 1.612360 
# 
# From -- ./inp_files/28400.got.cif
#   From: 2010.05.17/outbox.cif.g08.bks.cpg/sg23_15_cif.got.tgz:28400.got - 2010.06.04 12:02:01.
