data_PCOD9330379
_publ_section_title
;
Structure prediction by ZEFSAII (Michael W. Deem and Ramdas Pophale) SiO2 
 PCOD9330379
Probable space group: I 2 2 2
;
_chemical_formula_sum "Si O2"
_cell_formula_units_Z 48
_cell_length_a 11.535271
_cell_length_b 12.567804
_cell_length_c 20.483618
_cell_angle_alpha 90.000000
_cell_angle_beta 90.000000
_cell_angle_gamma 90.000000
_cell_volume 2969.572065
_symmetry_space_group_name_H-M "I 2 2 2"
_symmetry_group_IT_number 23
_symmetry_cell_setting 'orthorhombic'
loop_
_space_group_symop_operation_xyz
x,y,z
-x,-y,z
x,-y,-z
-x,y,-z
1/2+x,1/2+y,1/2+z
1/2-x,1/2-y,1/2+z
1/2+x,1/2-y,1/2-z
1/2-x,1/2+y,1/2-z
loop_
_atom_site_type_symbol
_atom_site_label
_atom_site_fract_x
_atom_site_fract_y
_atom_site_fract_z
Si Si1 0.270961 0.183711 0.850662
Si Si2 0.137979 0.376571 0.207047
Si Si3 0.500000 0.873968 0.077880
Si Si4 0.362021 0.876571 0.707047
Si Si5 0.729039 0.816289 0.149338
Si Si6 0.861821 1.000000 0.075346
O O1 0.310342 0.140838 0.779591
O O2 0.386992 0.182761 0.893523
O O3 0.207077 0.295392 0.839084
O O4 0.185798 0.101873 0.886395
O O5 0.152330 0.500000 0.188812
O O6 0.207077 0.295392 0.160916
O O7 0.000000 0.352601 0.208137
O O8 0.613008 0.817239 0.106477
O O9 0.500000 0.000000 0.098460
O O10 0.500000 0.872275 0.000000
O O11 0.310342 0.859162 0.779591
O O12 0.814202 0.898127 0.113605
O O13 0.000000 0.000000 0.074751
O O14 0.819314 0.000000 0.000000
#
# Coordination Sequence:
#
# PCOD9330379 Si02
#       6
#     8   8   8   8   8   8
#     4  11  20  34  55  83 112 144 187 228 282 330
#     4  10  20  36  56  79 113 149 183 229 275 337
#     4  11  20  34  59  85 113 147 184 228 280 334
#     4  10  20  36  56  79 113 149 183 229 275 337
#     4  11  20  34  55  83 112 144 187 228 282 330
#     4  11  22  35  53  81 115 146 185 234 279 328
#
# _framework density 16.163944999999998
#
# number of rings (size 3 to 8) (size 9 to 14) (size 15 to 20)
#    0.000    1.333    5.000    2.000    0.000    0.000 
#    0.000    0.833    0.000    5.000    0.000   11.667 
#    0.000    0.000    0.000    0.000    0.000    0.000 
#
# Total GULP energy -133955.620754 kJ/mol
# GULP energy per Si atom -5581.484198 kJ/mol
# Density = 1.612716 g / cm^3
# Si number density = 16.163945 Si / 1000 Ang^3
#
#
#
# Elastic Constant Matrix: (Units=GPa)
#
#
# Indices 1 2 3 4 5 6 
#
# 1 121.4698 78.8980 52.5565 0.0000 0.0000 0.0000
# 2 78.8980 129.8849 59.9939 0.0000 0.0000 0.0000
# 3 52.5565 59.9939 86.3880 0.0000 0.0000 0.0000
# 4 0.0000 0.0000 0.0000 25.7161 0.0000 0.0000
# 5 0.0000 0.0000 0.0000 0.0000 110.6112 0.0000
# 6 0.0000 0.0000 0.0000 0.0000 0.0000 28.1837
#
#
#
# Elastic Compliance Matrix: (Units=1/GPa)
#
#
# Indices 1 2 3 4 5 6 
#
# 1 0.014468 -0.006953 -0.003973 0.000000 0.000000 0.000000
# 2 -0.006953 0.014677 -0.005962 0.000000 0.000000 0.000000
# 3 -0.003973 -0.005962 0.018134 0.000000 0.000000 0.000000
# 4 0.000000 0.000000 0.000000 0.038886 0.000000 0.000000
# 5 0.000000 0.000000 0.000000 0.000000 0.009041 0.000000
# 6 0.000000 0.000000 0.000000 0.000000 0.000000 0.035482
#
#
# Mechanical properties :
#
#
# Convention : Reuss Voigt Hill
#
# Bulk Modulus (GPa) = 74.07016 80.07105 77.07061
# Shear Modulus (GPa) = 29.59200 42.65515 36.12357
#
# Velocity S-wave (km/s) = 4.28336 5.14260 4.73252
# Velocity P-wave (km/s) = 8.38968 9.21445 8.81172
#
# Compressibility (1/GPa) = 0.01350071
#
# Stress axis : x y z
#
# Youngs Moduli (GPa) = 69.11862 68.13413 55.14635
#
# Poissons Ratio (x) = 0.47376 0.21910
# Poissons Ratio (y) = 0.48060 0.32881
# Poissons Ratio (z) = 0.27461 0.40625
#
# Static dielectric constant tensor:
#      x y z
#    x 1.553450 0.000000 0.000000 
#    y 0.000000 1.522040 0.000000 
#    z 0.000000 0.000000 1.525450 
# 
# From -- ./inp_files/15757.got.cif
#   From: 2010.05.17/outbox.cif.g08.bks.cpg/sg23_8_cif.got.tgz:15757.got - 2010.06.04 12:02:01.
