data_PCOD9330888
_publ_section_title
;
Structure prediction by ZEFSAII (Michael W. Deem and Ramdas Pophale) SiO2 
 PCOD9330888
Probable space group: I 2 2 2
;
_chemical_formula_sum "Si O2"
_cell_formula_units_Z 64
_cell_length_a 9.453370
_cell_length_b 13.816034
_cell_length_c 23.982529
_cell_angle_alpha 90.000000
_cell_angle_beta 90.000000
_cell_angle_gamma 90.000000
_cell_volume 3132.312098
_symmetry_space_group_name_H-M "I 2 2 2"
_symmetry_group_IT_number 23
_symmetry_cell_setting 'orthorhombic'
loop_
_space_group_symop_operation_xyz
x,y,z
-x,-y,z
x,-y,-z
-x,y,-z
1/2+x,1/2+y,1/2+z
1/2-x,1/2-y,1/2+z
1/2+x,1/2-y,1/2-z
1/2-x,1/2+y,1/2-z
loop_
_atom_site_type_symbol
_atom_site_label
_atom_site_fract_x
_atom_site_fract_y
_atom_site_fract_z
Si Si1 0.167789 0.290300 0.437442
Si Si2 0.332211 0.790300 0.937443
Si Si3 0.832495 0.386282 0.102959
Si Si4 0.839103 0.883407 0.162388
Si Si5 0.160897 0.883407 0.162388
Si Si6 0.340127 0.882073 0.267463
Si Si7 0.840127 0.382073 0.232537
Si Si8 0.167504 0.386282 0.102959
O O1 0.192845 0.328448 0.500000
O O2 0.235320 0.183628 0.432721
O O3 0.245820 0.350824 0.389760
O O4 1.000000 0.287730 0.427696
O O5 0.254179 0.850824 0.889760
O O6 0.264680 0.683628 0.932721
O O7 0.807586 0.359915 0.168172
O O8 0.802379 0.500000 0.095412
O O9 1.000000 0.372255 0.091682
O O10 0.769603 0.849934 0.220543
O O11 1.000000 0.848195 0.156782
O O12 0.841983 0.000000 0.163669
O O13 0.230398 0.849934 0.220543
O O14 0.500000 0.849546 0.254200
O O15 0.307586 0.859915 0.331828
O O16 0.342308 1.000000 0.265593
#
# Coordination Sequence:
#
# PCOD9330888 Si02
#       8
#     8   8   8   8   8   8   8   8
#     4  11  25  41  56  78 109 148 193 234 274 326
#     4  11  25  41  56  78 109 148 193 234 274 326
#     4   9  19  37  61  87 114 146 183 225 275 327
#     4  10  21  37  59  86 113 143 181 227 279 331
#     4  10  21  37  59  86 113 143 181 227 279 331
#     4   8  15  31  56  85 115 144 176 217 269 331
#     4   8  15  31  56  85 115 144 176 217 269 331
#     4   9  19  37  61  87 114 146 183 225 275 327
#
# _framework density 20.432191
#
# number of rings (size 3 to 8) (size 9 to 14) (size 15 to 20)
#    0.000    2.500    0.000    3.000    0.000    7.000 
#    0.000    7.500    0.000    0.000    0.000    0.000 
#    0.000    0.000    0.000    0.000    0.000    0.000 
#
# Total GULP energy -178828.733976 kJ/mol
# GULP energy per Si atom -5588.397937 kJ/mol
# Density = 2.038569 g / cm^3
# Si number density = 20.432191 Si / 1000 Ang^3
#
#
#
# Elastic Constant Matrix: (Units=GPa)
#
#
# Indices 1 2 3 4 5 6 
#
# 1 99.6550 13.4261 71.6757 0.0000 0.0000 0.0000
# 2 13.4261 50.4628 6.1531 0.0000 0.0000 0.0000
# 3 71.6757 6.1531 95.0265 0.0000 0.0000 0.0000
# 4 0.0000 0.0000 0.0000 24.3206 0.0000 0.0000
# 5 0.0000 0.0000 0.0000 0.0000 30.8753 0.0000
# 6 0.0000 0.0000 0.0000 0.0000 0.0000 28.6589
#
#
#
# Elastic Compliance Matrix: (Units=1/GPa)
#
#
# Indices 1 2 3 4 5 6 
#
# 1 0.022701 -0.003983 -0.016865 0.000000 0.000000 0.000000
# 2 -0.003983 0.020673 0.001666 0.000000 0.000000 0.000000
# 3 -0.016865 0.001666 0.023136 0.000000 0.000000 0.000000
# 4 0.000000 0.000000 0.000000 0.041117 0.000000 0.000000
# 5 0.000000 0.000000 0.000000 0.000000 0.032388 0.000000
# 6 0.000000 0.000000 0.000000 0.000000 0.000000 0.034893
#
#
# Mechanical properties :
#
#
# Convention : Reuss Voigt Hill
#
# Bulk Modulus (GPa) = 35.52913 47.51711 41.52312
# Shear Modulus (GPa) = 22.45613 27.03026 24.74319
#
# Velocity S-wave (km/s) = 3.31880 3.64115 3.48370
# Velocity P-wave (km/s) = 5.66678 6.40186 6.04550
#
# Compressibility (1/GPa) = 0.02814592
#
# Stress axis : x y z
#
# Youngs Moduli (GPa) = 44.05053 48.37161 43.22224
#
# Poissons Ratio (x) = 0.19269 0.72894
# Poissons Ratio (y) = 0.17547 -0.07201
# Poissons Ratio (z) = 0.74291 -0.08059
#
# Static dielectric constant tensor:
#      x y z
#    x 1.680260 0.000000 0.000000 
#    y 0.000000 1.779610 0.000000 
#    z 0.000000 0.000000 1.709600 
# 
# From -- ./inp_files/28080.got.cif
#   From: 2010.05.17/outbox.cif.g08.bks.cpg/sg23_15_cif.got.tgz:28080.got - 2010.06.04 12:02:01.
