data_PCOD9330668
_publ_section_title
;
Structure prediction by ZEFSAII (Michael W. Deem and Ramdas Pophale) SiO2 
 PCOD9330668
Probable space group: I 2 2 2
;
_chemical_formula_sum "Si O2"
_cell_formula_units_Z 54
_cell_length_a 5.285719
_cell_length_b 13.932079
_cell_length_c 32.475282
_cell_angle_alpha 90.000000
_cell_angle_beta 90.000000
_cell_angle_gamma 90.000000
_cell_volume 2391.514018
_symmetry_space_group_name_H-M "I 2 2 2"
_symmetry_group_IT_number 23
_symmetry_cell_setting 'orthorhombic'
loop_
_space_group_symop_operation_xyz
x,y,z
-x,-y,z
x,-y,-z
-x,y,-z
1/2+x,1/2+y,1/2+z
1/2-x,1/2-y,1/2+z
1/2+x,1/2-y,1/2-z
1/2-x,1/2+y,1/2-z
loop_
_atom_site_type_symbol
_atom_site_label
_atom_site_fract_x
_atom_site_fract_y
_atom_site_fract_z
Si Si1 0.264637 0.821054 0.197880
Si Si2 0.500000 0.000000 0.837357
Si Si3 0.860041 0.868005 0.126837
Si Si4 0.092300 0.773746 0.953882
Si Si5 0.500000 0.500000 0.000000
Si Si6 0.605642 0.653530 0.936667
Si Si7 0.559113 0.675962 0.150800
Si Si8 0.750038 0.934343 0.722706
O O1 0.467499 0.905695 0.189563
O O2 0.355470 0.716459 0.183973
O O3 0.215437 0.844412 0.245424
O O4 0.055263 0.848977 0.163945
O O5 0.730302 0.030210 0.865623
O O6 0.918167 0.860310 0.078624
O O7 0.675762 0.775041 0.133174
O O8 0.364834 0.718349 0.952684
O O9 0.870579 0.707538 0.935485
O O10 0.000000 0.796355 0.000000
O O11 0.647406 0.568344 0.968866
O O12 0.543933 0.624563 0.889774
O O13 0.745388 0.610662 0.177091
O O14 0.500000 0.000000 0.727930
O O15 0.000000 0.000000 0.728492
#
# Coordination Sequence:
#
# PCOD9330668 Si02
#       8
#     8   4   8   8   2   8   8   8
#     4  11  22  43  71  95 134 184 239 288 351 432
#     4  10  20  40  66 105 126 174 228 295 342 420
#     4  10  22  39  71  98 134 179 235 289 354 425
#     4  11  21  43  66  99 136 176 229 280 346 431
#     4  12  24  42  76  98 144 180 236 294 340 446
#     4  11  24  42  65 103 130 181 234 281 354 411
#     4  10  26  44  68  98 139 184 237 288 364 424
#     4  12  29  45  66 102 145 187 234 302 354 420
#
# _framework density 22.579840999999998
#
# number of rings (size 3 to 8) (size 9 to 14) (size 15 to 20)
#    0.000    1.185    3.704    1.333    7.259    1.185 
#    0.000    0.000    0.000    2.667    0.000    0.000 
#    0.000    0.000    0.000    0.000    0.000    0.000 
#
# Total GULP energy -150522.255636 kJ/mol
# GULP energy per Si atom -5574.898357 kJ/mol
# Density = 2.252845 g / cm^3
# Si number density = 22.579841 Si / 1000 Ang^3
#
#
#
# Elastic Constant Matrix: (Units=GPa)
#
#
# Indices 1 2 3 4 5 6 
#
# 1 79.9352 14.3901 0.6142 0.0000 0.0000 0.0000
# 2 14.3901 42.3693 27.2460 0.0000 0.0000 0.0000
# 3 0.6142 27.2460 164.5042 0.0000 0.0000 0.0000
# 4 0.0000 0.0000 0.0000 49.8314 0.0000 0.0000
# 5 0.0000 0.0000 0.0000 0.0000 17.6139 0.0000
# 6 0.0000 0.0000 0.0000 0.0000 0.0000 70.8829
#
#
#
# Elastic Compliance Matrix: (Units=1/GPa)
#
#
# Indices 1 2 3 4 5 6 
#
# 1 0.013416 -0.005064 0.000789 0.000000 0.000000 0.000000
# 2 -0.005064 0.028327 -0.004673 0.000000 0.000000 0.000000
# 3 0.000789 -0.004673 0.006850 0.000000 0.000000 0.000000
# 4 0.000000 0.000000 0.000000 0.020068 0.000000 0.000000
# 5 0.000000 0.000000 0.000000 0.000000 0.056773 0.000000
# 6 0.000000 0.000000 0.000000 0.000000 0.000000 0.014108
#
#
# Mechanical properties :
#
#
# Convention : Reuss Voigt Hill
#
# Bulk Modulus (GPa) = 32.57673 41.25660 36.91666
# Shear Modulus (GPa) = 29.82077 43.96954 36.89515
#
# Velocity S-wave (km/s) = 3.63806 4.41760 4.04665
# Velocity P-wave (km/s) = 5.66621 6.65818 6.18212
#
# Compressibility (1/GPa) = 0.03069676
#
# Stress axis : x y z
#
# Youngs Moduli (GPa) = 74.54003 35.30253 145.98880
#
# Poissons Ratio (x) = 0.17875 -0.11512
# Poissons Ratio (y) = 0.37743 0.68216
# Poissons Ratio (z) = -0.05878 0.16496
#
# Static dielectric constant tensor:
#      x y z
#    x 1.933890 0.000000 0.000000 
#    y 0.000000 1.910860 0.000000 
#    z 0.000000 0.000000 1.915900 
# 
# From -- ./inp_files/29995.got.cif
#   From: 2010.05.17/outbox.cif.g08.bks.cpg/sg23_15_cif.got.tgz:29995.got - 2010.06.04 12:02:01.
