data_PCOD9330778
_publ_section_title
;
Structure prediction by ZEFSAII (Michael W. Deem and Ramdas Pophale) SiO2 
 PCOD9330778
Probable space group: I 2 2 2
;
_chemical_formula_sum "Si O2"
_cell_formula_units_Z 56
_cell_length_a 20.864250
_cell_length_b 9.657849
_cell_length_c 13.824682
_cell_angle_alpha 90.000000
_cell_angle_beta 90.000000
_cell_angle_gamma 90.000000
_cell_volume 2785.725625
_symmetry_space_group_name_H-M "I 2 2 2"
_symmetry_group_IT_number 23
_symmetry_cell_setting 'orthorhombic'
loop_
_space_group_symop_operation_xyz
x,y,z
-x,-y,z
x,-y,-z
-x,y,-z
1/2+x,1/2+y,1/2+z
1/2-x,1/2-y,1/2+z
1/2+x,1/2-y,1/2-z
1/2-x,1/2+y,1/2-z
loop_
_atom_site_type_symbol
_atom_site_label
_atom_site_fract_x
_atom_site_fract_y
_atom_site_fract_z
Si Si1 0.232508 0.339935 0.487834
Si Si2 0.661911 0.684858 0.646184
Si Si3 0.935916 0.084487 0.313262
Si Si4 0.642779 0.373993 0.626638
Si Si5 0.575955 0.158364 0.484780
Si Si6 0.490177 0.847936 0.114143
Si Si7 0.864202 0.177669 0.632127
O O1 0.208821 0.500000 0.500000
O O2 0.273243 0.296103 0.583190
O O3 0.283343 0.347089 0.399020
O O4 0.180668 0.228500 0.454595
O O5 0.635077 0.537727 0.607034
O O6 0.607240 0.793701 0.616320
O O7 0.669503 0.675733 0.761623
O O8 0.885370 0.132994 0.233203
O O9 0.961885 0.225321 0.357357
O O10 0.899283 0.970806 0.378466
O O11 0.000000 0.000000 0.276103
O O12 0.605348 0.264688 0.561795
O O13 0.500000 0.166607 0.500000
O O14 0.595637 0.000000 0.500000
O O15 0.420068 0.791533 0.137967
O O16 0.500000 0.000000 0.158651
O O17 0.500000 0.860323 0.000000
#
# Coordination Sequence:
#
# PCOD9330778 Si02
#       7
#     8   8   8   8   8   8   8
#     4   9  19  39  65  89 128 167 216 266 314 387
#     4   9  20  40  60  89 122 166 217 263 311 388
#     4   9  20  38  62  94 125 159 215 270 324 382
#     4   9  19  37  60  87 121 163 210 258 315 390
#     4  10  21  32  52  85 124 162 202 261 326 374
#     4  10  23  41  63  94 123 162 208 257 327 393
#     4  10  21  39  68  90 127 166 213 271 313 380
#
# _framework density 20.102482999999999
#
# number of rings (size 3 to 8) (size 9 to 14) (size 15 to 20)
#    0.000    2.571    0.000    1.286    8.000    4.286 
#    2.571   10.000    9.429    0.000    0.000    0.000 
#    0.000    0.000    0.000    0.000    0.000    0.000 
#
# Total GULP energy -155962.165337 kJ/mol
# GULP energy per Si atom -5570.077333 kJ/mol
# Density = 2.005673 g / cm^3
# Si number density = 20.102483 Si / 1000 Ang^3
#
#
#
# Elastic Constant Matrix: (Units=GPa)
#
#
# Indices 1 2 3 4 5 6 
#
# 1 63.4614 52.9487 26.2111 0.0000 0.0000 0.0000
# 2 52.9487 131.6237 27.6526 0.0000 0.0000 0.0000
# 3 26.2111 27.6526 59.5166 0.0000 0.0000 0.0000
# 4 0.0000 0.0000 0.0000 19.1890 0.0000 0.0000
# 5 0.0000 0.0000 0.0000 0.0000 21.5051 0.0000
# 6 0.0000 0.0000 0.0000 0.0000 0.0000 25.6375
#
#
#
# Elastic Compliance Matrix: (Units=1/GPa)
#
#
# Indices 1 2 3 4 5 6 
#
# 1 0.026369 -0.009051 -0.007407 0.000000 0.000000 0.000000
# 2 -0.009051 0.011526 -0.001369 0.000000 0.000000 0.000000
# 3 -0.007407 -0.001369 0.020700 0.000000 0.000000 0.000000
# 4 0.000000 0.000000 0.000000 0.052113 0.000000 0.000000
# 5 0.000000 0.000000 0.000000 0.000000 0.046501 0.000000
# 6 0.000000 0.000000 0.000000 0.000000 0.000000 0.039005
#
#
# Mechanical properties :
#
#
# Convention : Reuss Voigt Hill
#
# Bulk Modulus (GPa) = 43.59239 52.02516 47.80878
# Shear Modulus (GPa) = 20.87535 23.11894 21.99714
#
# Velocity S-wave (km/s) = 3.22599 3.39492 3.31153
# Velocity P-wave (km/s) = 5.96726 6.42678 6.20128
#
# Compressibility (1/GPa) = 0.02293979
#
# Stress axis : x y z
#
# Youngs Moduli (GPa) = 37.92335 86.75928 48.30832
#
# Poissons Ratio (x) = 0.78529 0.35784
# Poissons Ratio (y) = 0.34326 0.06614
# Poissons Ratio (z) = 0.28092 0.11878
#
# Static dielectric constant tensor:
#      x y z
#    x 1.733200 0.000000 0.000000 
#    y 0.000000 1.740540 0.000000 
#    z 0.000000 0.000000 1.749450 
# 
# From -- ./inp_files/22390.got.cif
#   From: 2010.05.17/outbox.cif.g08.bks.cpg/sg23_12_cif.got.tgz:22390.got - 2010.06.04 12:02:01.
