data_PCOD9330198
_publ_section_title
;
Structure prediction by ZEFSAII (Michael W. Deem and Ramdas Pophale) SiO2 
 PCOD9330198
Probable space group: I 2 2 2
;
_chemical_formula_sum "Si O2"
_cell_formula_units_Z 34
_cell_length_a 22.603719
_cell_length_b 5.137027
_cell_length_c 16.726943
_cell_angle_alpha 90.000000
_cell_angle_beta 90.000000
_cell_angle_gamma 90.000000
_cell_volume 1942.264288
_symmetry_space_group_name_H-M "I 2 2 2"
_symmetry_group_IT_number 23
_symmetry_cell_setting 'orthorhombic'
loop_
_space_group_symop_operation_xyz
x,y,z
-x,-y,z
x,-y,-z
-x,y,-z
1/2+x,1/2+y,1/2+z
1/2-x,1/2-y,1/2+z
1/2+x,1/2-y,1/2-z
1/2-x,1/2+y,1/2-z
loop_
_atom_site_type_symbol
_atom_site_label
_atom_site_fract_x
_atom_site_fract_y
_atom_site_fract_z
Si Si1 0.888146 0.829428 0.423199
Si Si2 0.199329 0.500000 0.500000
Si Si3 0.308419 0.954572 0.325204
Si Si4 0.828490 0.952844 0.727409
Si Si5 0.000000 0.000000 0.500000
Si Si6 0.716537 0.000000 0.500000
O O1 0.846802 0.573914 0.428928
O O2 0.874462 0.973649 0.341407
O O3 0.957390 0.821252 0.444920
O O4 0.867247 0.000000 0.500000
O O5 0.242843 0.743351 0.490577
O O6 0.237051 0.968066 0.312293
O O7 0.335232 0.173215 0.267454
O O8 0.328587 0.672474 0.295971
O O9 0.319341 0.015890 0.417674
#
# Coordination Sequence:
#
# PCOD9330198 Si02
#       6
#     8   4   8   8   2   4
#     4  10  21  36  55  74 104 141 179 222 257 313
#     4  12  20  31  56  72  98 152 174 217 254 306
#     4  10  21  32  48  76 101 139 175 215 248 331
#     4  10  20  32  49  73 105 131 180 212 263 300
#     4   8  22  42  52  82  96 148 188 220 256 328
#     4  12  21  34  52  77 106 143 186 207 264 316
#
# _framework density 17.505341999999999
#
# number of rings (size 3 to 8) (size 9 to 14) (size 15 to 20)
#    0.706    0.941    3.529    1.412    9.882    0.471 
#    0.000    0.000    0.000    0.000    0.000    0.000 
#    0.000    5.647    0.000    0.000    0.000    0.000 
#
# Total GULP energy -94720.371003 kJ/mol
# GULP energy per Si atom -5571.786530 kJ/mol
# Density = 1.746550 g / cm^3
# Si number density = 17.505342 Si / 1000 Ang^3
#
#
#
# Elastic Constant Matrix: (Units=GPa)
#
#
# Indices 1 2 3 4 5 6 
#
# 1 42.5186 0.9383 8.7957 0.0000 0.0000 0.0000
# 2 0.9383 67.2045 -6.4810 0.0000 0.0000 0.0000
# 3 8.7957 -6.4810 87.6353 0.0000 0.0000 0.0000
# 4 0.0000 0.0000 0.0000 19.2058 0.0000 0.0000
# 5 0.0000 0.0000 0.0000 0.0000 10.3336 0.0000
# 6 0.0000 0.0000 0.0000 0.0000 0.0000 -1.7811
#
#
#
# Elastic Compliance Matrix: (Units=1/GPa)
#
#
# Indices 1 2 3 4 5 6 
#
# 1 0.024040 -0.000572 -0.002455 0.000000 0.000000 0.000000
# 2 -0.000572 0.015000 0.001167 0.000000 0.000000 0.000000
# 3 -0.002455 0.001167 0.011744 0.000000 0.000000 0.000000
# 4 0.000000 0.000000 0.000000 0.052068 0.000000 0.000000
# 5 0.000000 0.000000 0.000000 0.000000 0.096772 0.000000
# 6 0.000000 0.000000 0.000000 0.000000 0.000000 -0.561460
#
#
# Mechanical properties :
#
#
# Convention : Reuss Voigt Hill
#
# Bulk Modulus (GPa) = 21.24846 22.65162 21.95004
# Shear Modulus (GPa) = -14.60159 18.49203 1.94522
#
# Velocity S-wave (km/s) = -2.89125 3.25370 1.05529
# Velocity P-wave (km/s) = 1.00938 5.20417 3.74848
#
# Compressibility (1/GPa) = 0.04706224
#
# Stress axis : x y z
#
# Youngs Moduli (GPa) = 41.59802 66.66459 85.15259
#
# Poissons Ratio (x) = 0.03816 0.20906
# Poissons Ratio (y) = 0.02381 -0.09936
# Poissons Ratio (z) = 0.10213 -0.07778
#
# Static dielectric constant tensor:
#      x y z
#    x 1.587800 0.000000 0.000000 
#    y 0.000000 1.739790 0.000000 
#    z 0.000000 0.000000 1.634580 
# 
# From -- ./inp_files/4833.got.cif
#   From: 2010.05.17/outbox.cif.g08.bks.cpg/sg23_3_cif.got.tgz:4833.got - 2010.06.04 12:02:01.
