data_PCOD9330083
_publ_section_title
;
Structure prediction by ZEFSAII (Michael W. Deem and Ramdas Pophale) SiO2 
 PCOD9330083
Probable space group: I 2 2 2
;
_chemical_formula_sum "Si O2"
_cell_formula_units_Z 56
_cell_length_a 15.050811
_cell_length_b 9.586493
_cell_length_c 18.625365
_cell_angle_alpha 90.000000
_cell_angle_beta 90.000000
_cell_angle_gamma 90.000000
_cell_volume 2687.351370
_symmetry_space_group_name_H-M "I 2 2 2"
_symmetry_group_IT_number 23
_symmetry_cell_setting 'orthorhombic'
loop_
_space_group_symop_operation_xyz
x,y,z
-x,-y,z
x,-y,-z
-x,y,-z
1/2+x,1/2+y,1/2+z
1/2-x,1/2-y,1/2+z
1/2+x,1/2-y,1/2-z
1/2-x,1/2+y,1/2-z
loop_
_atom_site_type_symbol
_atom_site_label
_atom_site_fract_x
_atom_site_fract_y
_atom_site_fract_z
Si Si1 0.655764 0.309189 0.847631
Si Si2 0.105595 0.656653 0.486707
Si Si3 0.639226 0.619730 0.890243
Si Si4 0.394467 0.654996 0.494689
Si Si5 0.863917 0.682706 0.149569
Si Si6 0.328216 0.916090 0.575786
Si Si7 0.009395 0.163521 0.259026
O O1 0.635688 0.193363 0.906683
O O2 0.624757 0.452083 0.889403
O O3 0.759701 0.317227 0.826783
O O4 0.589627 0.291130 0.780850
O O5 0.139213 0.500000 0.500000
O O6 0.134437 0.782246 0.539868
O O7 0.000000 0.653385 0.500000
O O8 0.743885 0.620348 0.875103
O O9 0.570211 0.670829 0.830907
O O10 0.356882 0.500000 0.500000
O O11 0.500000 0.645908 0.500000
O O12 0.365690 0.717600 0.419217
O O13 0.368518 0.770056 0.553111
O O14 0.884983 0.528096 0.119763
O O15 0.936663 0.743170 0.203247
O O16 0.303938 0.000000 0.500000
O O17 0.000000 0.000000 0.236628
#
# Coordination Sequence:
#
# PCOD9330083 Si02
#       7
#     8   8   8   8   8   8   8
#     4  10  21  41  66  94 127 175 225 270 324 389
#     4  11  21  33  59  94 133 169 209 278 332 388
#     4  10  19  37  63  94 125 168 223 258 322 397
#     4  10  22  40  68  99 121 162 218 266 327 391
#     4  10  22  41  66  93 134 164 217 277 319 392
#     4   9  19  38  63  94 129 160 212 277 335 376
#     4  10  22  40  67  92 131 178 222 263 318 402
#
# _framework density 20.838360999999999
#
# number of rings (size 3 to 8) (size 9 to 14) (size 15 to 20)
#    0.000    2.000    1.429    3.000    2.000    5.429 
#    2.571    5.714    6.286    0.000    0.000    0.000 
#    0.000    0.000    0.000    0.000    0.000    0.000 
#
# Total GULP energy -156057.040532 kJ/mol
# GULP energy per Si atom -5573.465733 kJ/mol
# Density = 2.079093 g / cm^3
# Si number density = 20.838361 Si / 1000 Ang^3
#
#
#
# Elastic Constant Matrix: (Units=GPa)
#
#
# Indices 1 2 3 4 5 6 
#
# 1 110.4088 56.6161 43.6175 0.0000 0.0000 0.0000
# 2 56.6161 133.5202 49.5610 0.0000 0.0000 0.0000
# 3 43.6175 49.5610 59.5383 0.0000 0.0000 0.0000
# 4 0.0000 0.0000 0.0000 29.7404 0.0000 0.0000
# 5 0.0000 0.0000 0.0000 0.0000 32.2350 0.0000
# 6 0.0000 0.0000 0.0000 0.0000 0.0000 21.1686
#
#
#
# Elastic Compliance Matrix: (Units=1/GPa)
#
#
# Indices 1 2 3 4 5 6 
#
# 1 0.013516 -0.002975 -0.007425 0.000000 0.000000 0.000000
# 2 -0.002975 0.011493 -0.007388 0.000000 0.000000 0.000000
# 3 -0.007425 -0.007388 0.028386 0.000000 0.000000 0.000000
# 4 0.000000 0.000000 0.000000 0.033624 0.000000 0.000000
# 5 0.000000 0.000000 0.000000 0.000000 0.031022 0.000000
# 6 0.000000 0.000000 0.000000 0.000000 0.000000 0.047240
#
#
# Mechanical properties :
#
#
# Convention : Reuss Voigt Hill
#
# Bulk Modulus (GPa) = 56.12134 67.00626 61.56380
# Shear Modulus (GPa) = 24.17826 26.87364 25.52595
#
# Velocity S-wave (km/s) = 3.40998 3.59503 3.50373
# Velocity P-wave (km/s) = 6.51875 7.03259 6.78054
#
# Compressibility (1/GPa) = 0.01781853
#
# Stress axis : x y z
#
# Youngs Moduli (GPa) = 73.98498 87.00782 35.22921
#
# Poissons Ratio (x) = 0.25885 0.26159
# Poissons Ratio (y) = 0.22011 0.26026
# Poissons Ratio (z) = 0.54937 0.64279
#
# Static dielectric constant tensor:
#      x y z
#    x 1.761330 0.000000 0.000000 
#    y 0.000000 1.799500 0.000000 
#    z 0.000000 0.000000 1.752670 
# 
# From -- ./inp_files/26988.got.cif
#   From: 2010.05.17/outbox.cif.g08.bks.cpg/sg23_14_cif.got.tgz:26988.got - 2010.06.04 12:02:01.
