data_PCOD9330273
_publ_section_title
;
Structure prediction by ZEFSAII (Michael W. Deem and Ramdas Pophale) SiO2 
 PCOD9330273
Probable space group: I 2 2 2
;
_chemical_formula_sum "Si O2"
_cell_formula_units_Z 56
_cell_length_a 19.156272
_cell_length_b 19.821804
_cell_length_c 7.090880
_cell_angle_alpha 90.000000
_cell_angle_beta 90.000000
_cell_angle_gamma 90.000000
_cell_volume 2692.491297
_symmetry_space_group_name_H-M "I 2 2 2"
_symmetry_group_IT_number 23
_symmetry_cell_setting 'orthorhombic'
loop_
_space_group_symop_operation_xyz
x,y,z
-x,-y,z
x,-y,-z
-x,y,-z
1/2+x,1/2+y,1/2+z
1/2-x,1/2-y,1/2+z
1/2+x,1/2-y,1/2-z
1/2-x,1/2+y,1/2-z
loop_
_atom_site_type_symbol
_atom_site_label
_atom_site_fract_x
_atom_site_fract_y
_atom_site_fract_z
Si Si1 0.480248 0.313123 0.223761
Si Si2 0.246176 0.874398 0.806952
Si Si3 0.347922 0.237672 0.125293
Si Si4 0.230772 0.341081 0.126263
Si Si5 0.567588 0.537343 0.298106
Si Si6 0.272901 0.520142 0.789613
Si Si7 0.870203 0.230022 0.815521
O O1 0.418993 0.257580 0.228218
O O2 0.452047 0.384142 0.299973
O O3 0.549575 0.289550 0.330460
O O4 0.500000 0.323252 0.000000
O O5 0.316934 0.837130 0.868166
O O6 0.244309 0.862941 0.580551
O O7 0.240814 0.953998 0.835526
O O8 0.179284 0.832006 0.878852
O O9 0.285599 0.285532 0.200879
O O10 0.359104 0.257323 0.908112
O O11 0.235759 0.408365 0.251204
O O12 0.159018 0.300114 0.101716
O O13 0.500000 0.500000 0.209984
O O14 0.575146 0.500000 0.500000
O O15 0.643489 0.531356 0.204938
O O16 0.248841 0.500000 0.000000
#
# Coordination Sequence:
#
# PCOD9330273 Si02
#       7
#     8   8   8   8   8   8   8
#     4  10  20  36  58  77 105 150 189 215 259 335
#     4   9  18  32  50  78 103 134 179 225 264 318
#     4   9  17  33  52  75 102 135 180 224 264 314
#     4   9  17  33  51  76 101 138 180 222 266 318
#     4  11  24  36  46  80 120 141 173 215 272 317
#     4  10  20  34  57  76 105 149 186 211 266 336
#     4   9  18  32  54  76 100 137 183 220 268 315
#
# _framework density 20.798582
#
# number of rings (size 3 to 8) (size 9 to 14) (size 15 to 20)
#    0.000    2.429    1.429    0.857    4.000    1.143 
#   10.286    0.000    0.000    0.857    0.000    6.000 
#    0.000    0.000    0.000    0.000    0.000    0.000 
#
# Total GULP energy -156385.911496 kJ/mol
# GULP energy per Si atom -5585.211125 kJ/mol
# Density = 2.075124 g / cm^3
# Si number density = 20.798582 Si / 1000 Ang^3
#
#
#
# Elastic Constant Matrix: (Units=GPa)
#
#
# Indices 1 2 3 4 5 6 
#
# 1 104.8778 77.5062 11.6612 0.0000 0.0000 0.0000
# 2 77.5062 177.5307 16.9026 0.0000 0.0000 0.0000
# 3 11.6612 16.9026 52.8674 0.0000 0.0000 0.0000
# 4 0.0000 0.0000 0.0000 26.6524 0.0000 0.0000
# 5 0.0000 0.0000 0.0000 0.0000 26.4243 0.0000
# 6 0.0000 0.0000 0.0000 0.0000 0.0000 25.1878
#
#
#
# Elastic Compliance Matrix: (Units=1/GPa)
#
#
# Indices 1 2 3 4 5 6 
#
# 1 0.014148 -0.006064 -0.001182 0.000000 0.000000 0.000000
# 2 -0.006064 0.008409 -0.001351 0.000000 0.000000 0.000000
# 3 -0.001182 -0.001351 0.019608 0.000000 0.000000 0.000000
# 4 0.000000 0.000000 0.000000 0.037520 0.000000 0.000000
# 5 0.000000 0.000000 0.000000 0.000000 0.037844 0.000000
# 6 0.000000 0.000000 0.000000 0.000000 0.000000 0.039702
#
#
# Mechanical properties :
#
#
# Convention : Reuss Voigt Hill
#
# Bulk Modulus (GPa) = 40.04670 60.82400 50.43535
# Shear Modulus (GPa) = 27.36015 30.93330 29.14672
#
# Velocity S-wave (km/s) = 3.63089 3.86071 3.74756
# Velocity P-wave (km/s) = 6.07241 7.01293 6.55955
#
# Compressibility (1/GPa) = 0.02497085
#
# Stress axis : x y z
#
# Youngs Moduli (GPa) = 70.68250 118.92156 51.00007
#
# Poissons Ratio (x) = 0.72115 0.06027
# Poissons Ratio (y) = 0.42863 0.06890
# Poissons Ratio (z) = 0.08354 0.16065
#
# Static dielectric constant tensor:
#      x y z
#    x 1.721570 0.000000 0.000000 
#    y 0.000000 1.764460 0.000000 
#    z 0.000000 0.000000 1.878770 
# 
# From -- ./inp_files/12140.got.cif
#   From: 2010.05.17/outbox.cif.g08.bks.cpg/sg23_7_cif.got.tgz:12140.got - 2010.06.04 12:02:01.
