data_PCOD9330854
_publ_section_title
;
Structure prediction by ZEFSAII (Michael W. Deem and Ramdas Pophale) SiO2 
 PCOD9330854
Probable space group: I 2 2 2
;
_chemical_formula_sum "Si O2"
_cell_formula_units_Z 48
_cell_length_a 15.967651
_cell_length_b 13.542010
_cell_length_c 11.097395
_cell_angle_alpha 90.000000
_cell_angle_beta 90.000000
_cell_angle_gamma 90.000000
_cell_volume 2399.635104
_symmetry_space_group_name_H-M "I 2 2 2"
_symmetry_group_IT_number 23
_symmetry_cell_setting 'orthorhombic'
loop_
_space_group_symop_operation_xyz
x,y,z
-x,-y,z
x,-y,-z
-x,y,-z
1/2+x,1/2+y,1/2+z
1/2-x,1/2-y,1/2+z
1/2+x,1/2-y,1/2-z
1/2-x,1/2+y,1/2-z
loop_
_atom_site_type_symbol
_atom_site_label
_atom_site_fract_x
_atom_site_fract_y
_atom_site_fract_z
Si Si1 0.815270 0.106128 0.966435
Si Si2 0.539596 0.104741 0.736266
Si Si3 0.000000 0.674421 0.500000
Si Si4 0.896668 0.691248 0.108950
Si Si5 0.736850 0.898060 0.294052
Si Si6 0.315457 0.000000 0.500000
Si Si7 0.326862 0.793743 0.120102
O O1 0.870820 0.205777 0.953300
O O2 0.780691 0.091817 0.832181
O O3 0.735728 0.129868 0.053946
O O4 0.854675 0.000000 0.000000
O O5 0.519568 0.116408 0.877678
O O6 0.492790 0.183900 0.651855
O O7 0.638229 0.112041 0.727452
O O8 0.500000 0.000000 0.698794
O O9 0.088583 0.723903 0.540995
O O10 0.851583 0.679243 0.241653
O O11 0.870061 0.597438 0.028068
O O12 0.742699 0.988992 0.383985
O O13 0.775138 0.806222 0.364987
#
# Coordination Sequence:
#
# PCOD9330854 Si02
#       7
#     8   8   4   8   8   4   8
#     4  11  22  40  60  88 129 173 219 262 318 401
#     4  11  21  35  59  98 130 165 211 272 338 390
#     4  10  21  36  62  89 136 166 218 277 319 392
#     4  10  23  36  58  92 128 168 210 264 328 391
#     4  11  23  36  63  94 128 170 211 269 339 392
#     4  12  20  39  54  91 128 162 202 263 336 392
#     4  10  21  40  60  92 124 167 221 267 326 392
#
# _framework density 20.003042000000001
#
# number of rings (size 3 to 8) (size 9 to 14) (size 15 to 20)
#    0.000    1.333    5.000    1.250    2.333    1.333 
#    0.000    0.000    0.000    2.500    0.000    9.333 
#    0.000    0.000    0.000    0.000    0.000    0.000 
#
# Total GULP energy -133794.601911 kJ/mol
# GULP energy per Si atom -5574.775080 kJ/mol
# Density = 1.995751 g / cm^3
# Si number density = 20.003042 Si / 1000 Ang^3
#
#
#
# Elastic Constant Matrix: (Units=GPa)
#
#
# Indices 1 2 3 4 5 6 
#
# 1 84.1133 47.8088 16.8834 0.0000 0.0000 0.0000
# 2 47.8088 120.9543 45.4138 0.0000 0.0000 0.0000
# 3 16.8834 45.4138 78.6277 0.0000 0.0000 0.0000
# 4 0.0000 0.0000 0.0000 27.0075 0.0000 0.0000
# 5 0.0000 0.0000 0.0000 0.0000 19.4254 0.0000
# 6 0.0000 0.0000 0.0000 0.0000 0.0000 12.3457
#
#
#
# Elastic Compliance Matrix: (Units=1/GPa)
#
#
# Indices 1 2 3 4 5 6 
#
# 1 0.015338 -0.006162 0.000266 0.000000 0.000000 0.000000
# 2 -0.006162 0.013033 -0.006204 0.000000 0.000000 0.000000
# 3 0.000266 -0.006204 0.016245 0.000000 0.000000 0.000000
# 4 0.000000 0.000000 0.000000 0.037027 0.000000 0.000000
# 5 0.000000 0.000000 0.000000 0.000000 0.051479 0.000000
# 6 0.000000 0.000000 0.000000 0.000000 0.000000 0.081000
#
#
# Mechanical properties :
#
#
# Convention : Reuss Voigt Hill
#
# Bulk Modulus (GPa) = 48.98678 55.98969 52.48823
# Shear Modulus (GPa) = 20.39755 23.32832 21.86293
#
# Velocity S-wave (km/s) = 3.19677 3.41873 3.30961
# Velocity P-wave (km/s) = 6.17808 6.60568 6.39545
#
# Compressibility (1/GPa) = 0.02041367
#
# Stress axis : x y z
#
# Youngs Moduli (GPa) = 65.19776 76.72955 61.55911
#
# Poissons Ratio (x) = 0.47283 -0.01636
# Poissons Ratio (y) = 0.40177 0.38193
# Poissons Ratio (z) = -0.01733 0.47605
#
# Static dielectric constant tensor:
#      x y z
#    x 1.756850 0.000000 0.000000 
#    y 0.000000 1.744980 0.000000 
#    z 0.000000 0.000000 1.767340 
# 
# From -- ./inp_files/16731.got.cif
#   From: 2010.05.17/outbox.cif.g08.bks.cpg/sg23_9_cif.got.tgz:16731.got - 2010.06.04 12:02:01.
