data_PCOD9330456
_publ_section_title
;
Structure prediction by ZEFSAII (Michael W. Deem and Ramdas Pophale) SiO2 
 PCOD9330456
Probable space group: I 2 2 2
;
_chemical_formula_sum "Si O2"
_cell_formula_units_Z 48
_cell_length_a 8.721188
_cell_length_b 16.399430
_cell_length_c 18.938980
_cell_angle_alpha 90.000000
_cell_angle_beta 90.000000
_cell_angle_gamma 90.000000
_cell_volume 2708.700497
_symmetry_space_group_name_H-M "I 2 2 2"
_symmetry_group_IT_number 23
_symmetry_cell_setting 'orthorhombic'
loop_
_space_group_symop_operation_xyz
x,y,z
-x,-y,z
x,-y,-z
-x,y,-z
1/2+x,1/2+y,1/2+z
1/2-x,1/2-y,1/2+z
1/2+x,1/2-y,1/2-z
1/2-x,1/2+y,1/2-z
loop_
_atom_site_type_symbol
_atom_site_label
_atom_site_fract_x
_atom_site_fract_y
_atom_site_fract_z
Si Si1 0.369927 0.215551 0.325077
Si Si2 0.573528 0.087595 0.074178
Si Si3 0.551022 0.906409 0.576879
Si Si4 0.348185 0.316143 0.044003
Si Si5 0.477975 0.238252 0.826298
Si Si6 0.651313 0.322383 0.543087
O O1 0.459324 0.140901 0.362177
O O2 0.442092 0.231589 0.249096
O O3 0.184055 0.213431 0.320883
O O4 0.396003 0.287750 0.380929
O O5 0.551050 0.149231 0.138992
O O6 0.751779 0.095873 0.055542
O O7 0.500000 0.000000 0.088248
O O8 0.500000 0.117257 0.000000
O O9 0.500000 0.874587 0.500000
O O10 0.731387 0.886460 0.570247
O O11 0.500000 0.000000 0.581289
O O12 0.411636 0.278116 0.116024
O O13 0.500000 0.342058 0.000000
O O14 0.256445 0.247622 0.996699
O O15 0.500000 0.336469 0.500000
#
# Coordination Sequence:
#
# PCOD9330456 Si02
#       6
#     8   8   8   8   8   8
#     4  11  21  37  57  91 119 155 204 247 295 357
#     4  10  20  37  59  85 121 154 197 239 300 361
#     4  11  22  38  59  86 124 157 197 248 304 354
#     4  12  18  38  64  91 113 157 204 251 291 356
#     4  11  22  35  62  87 117 158 202 247 298 352
#     4  11  19  36  65  89 115 153 200 254 288 346
#
# _framework density 17.720675
#
# number of rings (size 3 to 8) (size 9 to 14) (size 15 to 20)
#    0.000    1.000    8.333    1.000    0.000    0.667 
#    0.000    7.500    0.000    0.000    0.000    0.000 
#    0.000    0.000    0.000    0.000    0.000    0.000 
#
# Total GULP energy -133651.743381 kJ/mol
# GULP energy per Si atom -5568.822641 kJ/mol
# Density = 1.768034 g / cm^3
# Si number density = 17.720675 Si / 1000 Ang^3
#
#
#
# Elastic Constant Matrix: (Units=GPa)
#
#
# Indices 1 2 3 4 5 6 
#
# 1 139.3296 70.7797 60.1179 0.0000 0.0000 0.0000
# 2 70.7797 81.0975 30.9483 0.0000 0.0000 0.0000
# 3 60.1179 30.9483 155.8295 0.0000 0.0000 0.0000
# 4 0.0000 0.0000 0.0000 17.0797 0.0000 0.0000
# 5 0.0000 0.0000 0.0000 0.0000 41.1844 0.0000
# 6 0.0000 0.0000 0.0000 0.0000 0.0000 21.4771
#
#
#
# Elastic Compliance Matrix: (Units=1/GPa)
#
#
# Indices 1 2 3 4 5 6 
#
# 1 0.014297 -0.011224 -0.003287 0.000000 0.000000 0.000000
# 2 -0.011224 0.022153 -0.000070 0.000000 0.000000 0.000000
# 3 -0.003287 -0.000070 0.007699 0.000000 0.000000 0.000000
# 4 0.000000 0.000000 0.000000 0.058549 0.000000 0.000000
# 5 0.000000 0.000000 0.000000 0.000000 0.024281 0.000000
# 6 0.000000 0.000000 0.000000 0.000000 0.000000 0.046561
#
#
# Mechanical properties :
#
#
# Convention : Reuss Voigt Hill
#
# Bulk Modulus (GPa) = 66.71471 77.77204 72.24337
# Shear Modulus (GPa) = 24.07346 30.24227 27.15786
#
# Velocity S-wave (km/s) = 3.68978 4.13559 3.91903
# Velocity P-wave (km/s) = 7.47544 8.17234 7.83165
#
# Compressibility (1/GPa) = 0.01498920
#
# Stress axis : x y z
#
# Youngs Moduli (GPa) = 69.94434 45.14000 129.88613
#
# Poissons Ratio (x) = 0.50665 0.42689
# Poissons Ratio (y) = 0.78505 0.00904
# Poissons Ratio (z) = 0.22988 0.00314
#
# Static dielectric constant tensor:
#      x y z
#    x 1.682500 0.000000 0.000000 
#    y 0.000000 1.618660 0.000000 
#    z 0.000000 0.000000 1.587350 
# 
# From -- ./inp_files/11184.got.cif
#   From: 2010.05.17/outbox.cif.g08.bks.cpg/sg23_6_cif.got.tgz:11184.got - 2010.06.04 12:02:01.
