data_PCOD9330105
_publ_section_title
;
Structure prediction by ZEFSAII (Michael W. Deem and Ramdas Pophale) SiO2 
 PCOD9330105
Probable space group: I 2 2 2
;
_chemical_formula_sum "Si O2"
_cell_formula_units_Z 44
_cell_length_a 14.582304
_cell_length_b 9.729208
_cell_length_c 15.539725
_cell_angle_alpha 90.000000
_cell_angle_beta 90.000000
_cell_angle_gamma 90.000000
_cell_volume 2204.687121
_symmetry_space_group_name_H-M "I 2 2 2"
_symmetry_group_IT_number 23
_symmetry_cell_setting 'orthorhombic'
loop_
_space_group_symop_operation_xyz
x,y,z
-x,-y,z
x,-y,-z
-x,y,-z
1/2+x,1/2+y,1/2+z
1/2-x,1/2-y,1/2+z
1/2+x,1/2-y,1/2-z
1/2-x,1/2+y,1/2-z
loop_
_atom_site_type_symbol
_atom_site_label
_atom_site_fract_x
_atom_site_fract_y
_atom_site_fract_z
Si Si1 0.856978 0.449348 0.856400
Si Si2 0.847384 0.940741 0.630729
Si Si3 0.500000 0.000000 0.500000
Si Si4 0.888926 0.017478 0.094307
Si Si5 0.110675 0.187029 0.240923
Si Si6 0.896272 0.251328 0.217659
Si Si7 0.500000 0.500000 0.000000
O O1 0.757081 0.452794 0.899443
O O2 0.853296 0.338177 0.779378
O O3 0.881275 0.592244 0.808773
O O4 0.932665 0.421363 0.932079
O O5 0.868339 0.087030 0.679174
O O6 0.849694 0.815593 0.699019
O O7 0.928197 0.920195 0.561578
O O8 0.866548 0.163545 0.134782
O O9 0.855998 0.902510 0.159858
O O10 0.000000 0.000000 0.091164
O O11 0.851383 0.000000 0.000000
O O12 0.001845 0.210734 0.234445
#
# Coordination Sequence:
#
# PCOD9330105 Si02
#       7
#     8   8   2   8   8   8   2
#     4  12  24  37  62  95 129 161 197 257 306 379
#     4  11  23  42  66  91 112 166 222 249 303 352
#     4  12  26  36  52  96 144 150 190 246 344 342
#     4   8  16  27  51  79 115 161 197 232 288 356
#     4  10  19  38  60  85 123 162 202 249 303 368
#     4  10  19  38  60  85 123 162 202 249 303 368
#     4  12  22  44  68  80 122 160 222 270 280 362
#
# _framework density 19.95748
#
# number of rings (size 3 to 8) (size 9 to 14) (size 15 to 20)
#    0.000    1.636    3.636    2.727    2.545    0.000 
#    0.000    0.000    0.000    2.182    0.000    0.000 
#    0.000    0.000    0.000    0.000    0.000    0.000 
#
# Total GULP energy -122564.670370 kJ/mol
# GULP energy per Si atom -5571.121380 kJ/mol
# Density = 1.991206 g / cm^3
# Si number density = 19.957480 Si / 1000 Ang^3
#
#
#
# Elastic Constant Matrix: (Units=GPa)
#
#
# Indices 1 2 3 4 5 6 
#
# 1 111.0600 -0.6852 28.9128 0.0000 0.0000 0.0000
# 2 -0.6852 127.3928 28.5583 0.0000 0.0000 0.0000
# 3 28.9128 28.5583 91.8898 0.0000 0.0000 0.0000
# 4 0.0000 0.0000 0.0000 -0.1603 0.0000 0.0000
# 5 0.0000 0.0000 0.0000 0.0000 5.2061 0.0000
# 6 0.0000 0.0000 0.0000 0.0000 0.0000 10.1533
#
#
#
# Elastic Compliance Matrix: (Units=1/GPa)
#
#
# Indices 1 2 3 4 5 6 
#
# 1 0.009884 0.000807 -0.003361 0.000000 0.000000 0.000000
# 2 0.000807 0.008503 -0.002897 0.000000 0.000000 0.000000
# 3 -0.003361 -0.002897 0.012840 0.000000 0.000000 0.000000
# 4 0.000000 0.000000 0.000000 -6.236841 0.000000 0.000000
# 5 0.000000 0.000000 0.000000 0.000000 0.192082 0.000000
# 6 0.000000 0.000000 0.000000 0.000000 0.000000 0.098490
#
#
# Mechanical properties :
#
#
# Convention : Reuss Voigt Hill
#
# Bulk Modulus (GPa) = 49.19716 49.32381 49.26048
# Shear Modulus (GPa) = -0.84784 21.27694 10.21455
#
# Velocity S-wave (km/s) = -0.65249 3.26868 2.26479
# Velocity P-wave (km/s) = 4.91293 6.24610 5.61919
#
# Compressibility (1/GPa) = 0.02032638
#
# Stress axis : x y z
#
# Youngs Moduli (GPa) = 101.17348 117.59994 77.88029
#
# Poissons Ratio (x) = -0.09485 0.26173
# Poissons Ratio (y) = -0.08160 0.22558
# Poissons Ratio (z) = 0.34001 0.34063
#
# Static dielectric constant tensor:
#      x y z
#    x 1.766240 0.000000 0.000000 
#    y 0.000000 1.978330 0.000000 
#    z 0.000000 0.000000 1.723780 
# 
# From -- ./inp_files/24698.got.cif
#   From: 2010.05.17/outbox.cif.g08.bks.cpg/sg23_13_cif.got.tgz:24698.got - 2010.06.04 12:02:01.
