data_PCOD9330286
_publ_section_title
;
Structure prediction by ZEFSAII (Michael W. Deem and Ramdas Pophale) SiO2 
 PCOD9330286
Probable space group: I 2 2 2
;
_chemical_formula_sum "Si O2"
_cell_formula_units_Z 64
_cell_length_a 25.103594
_cell_length_b 10.323918
_cell_length_c 11.327548
_cell_angle_alpha 90.000000
_cell_angle_beta 90.000000
_cell_angle_gamma 90.000000
_cell_volume 2935.731684
_symmetry_space_group_name_H-M "I 2 2 2"
_symmetry_group_IT_number 23
_symmetry_cell_setting 'orthorhombic'
loop_
_space_group_symop_operation_xyz
x,y,z
-x,-y,z
x,-y,-z
-x,y,-z
1/2+x,1/2+y,1/2+z
1/2-x,1/2-y,1/2+z
1/2+x,1/2-y,1/2-z
1/2-x,1/2+y,1/2-z
loop_
_atom_site_type_symbol
_atom_site_label
_atom_site_fract_x
_atom_site_fract_y
_atom_site_fract_z
Si Si1 0.865292 0.111453 0.400367
Si Si2 0.303328 0.291549 0.562962
Si Si3 0.188719 0.295104 0.443885
Si Si4 0.783273 0.942035 0.283583
Si Si5 0.580902 0.683040 0.534469
Si Si6 0.055034 0.060695 0.808286
Si Si7 0.671686 0.961474 0.726246
Si Si8 0.057144 0.546124 0.864910
O O1 0.854173 0.250343 0.459408
O O2 0.909406 0.107961 0.299126
O O3 0.876874 0.000000 0.500000
O O4 0.809556 0.069717 0.337985
O O5 0.248217 0.295288 0.494451
O O6 0.298879 0.414704 0.649849
O O7 0.358244 0.297183 0.491843
O O8 0.311937 0.161403 0.642458
O O9 0.189873 0.173259 0.355361
O O10 0.176153 0.417019 0.362359
O O11 0.719642 0.939262 0.296607
O O12 0.547338 0.664147 0.414526
O O13 0.580604 0.557334 0.617545
O O14 0.562868 0.799713 0.618604
O O15 0.000000 0.000000 0.764244
O O16 0.611420 0.000527 0.697380
O O17 0.000000 0.500000 0.815748
O O18 0.059563 0.500000 0.000000
#
# Coordination Sequence:
#
# PCOD9330286 Si02
#       8
#     8   8   8   8   8   8   8   8
#     4  10  21  40  61  86 127 165 202 250 323 381
#     4  10  20  34  60  91 126 162 204 255 315 387
#     4  10  22  36  59  94 127 168 207 256 315 386
#     4  10  20  36  57  87 128 162 201 256 315 384
#     4  10  22  39  63  96 131 158 209 268 330 376
#     4  11  24  39  65  94 127 162 209 275 325 379
#     4  10  22  37  59  95 126 162 215 256 312 386
#     4  10  24  41  64  88 124 173 218 264 315 377
#
# _framework density 21.800357000000002
#
# number of rings (size 3 to 8) (size 9 to 14) (size 15 to 20)
#    0.000    1.875    2.500    0.750   10.500    0.750 
#    0.000    0.000    0.000    0.000    0.000    1.750 
#    0.000    0.000    0.000    0.000    0.000    0.000 
#
# Total GULP energy -178663.315211 kJ/mol
# GULP energy per Si atom -5583.228600 kJ/mol
# Density = 2.175074 g / cm^3
# Si number density = 21.800357 Si / 1000 Ang^3
#
#
#
# Elastic Constant Matrix: (Units=GPa)
#
#
# Indices 1 2 3 4 5 6 
#
# 1 159.5182 -4.4634 34.7296 0.0000 0.0000 0.0000
# 2 -4.4634 12.5313 -7.2542 0.0000 0.0000 0.0000
# 3 34.7296 -7.2542 54.5159 0.0000 0.0000 0.0000
# 4 0.0000 0.0000 0.0000 12.4923 0.0000 0.0000
# 5 0.0000 0.0000 0.0000 0.0000 31.0742 0.0000
# 6 0.0000 0.0000 0.0000 0.0000 0.0000 23.9555
#
#
#
# Elastic Compliance Matrix: (Units=1/GPa)
#
#
# Indices 1 2 3 4 5 6 
#
# 1 0.007278 -0.000099 -0.004650 0.000000 0.000000 0.000000
# 2 -0.000099 0.086462 0.011568 0.000000 0.000000 0.000000
# 3 -0.004650 0.011568 0.022845 0.000000 0.000000 0.000000
# 4 0.000000 0.000000 0.000000 0.080049 0.000000 0.000000
# 5 0.000000 0.000000 0.000000 0.000000 0.032181 0.000000
# 6 0.000000 0.000000 0.000000 0.000000 0.000000 0.041744
#
#
# Mechanical properties :
#
#
# Convention : Reuss Voigt Hill
#
# Bulk Modulus (GPa) = 7.67912 30.28771 18.98341
# Shear Modulus (GPa) = 16.64841 27.07463 21.86152
#
# Velocity S-wave (km/s) = 2.76647 3.52793 3.17015
# Velocity P-wave (km/s) = 3.70602 5.52435 4.70388
#
# Compressibility (1/GPa) = 0.13022320
#
# Stress axis : x y z
#
# Youngs Moduli (GPa) = 137.39143 11.56582 43.77334
#
# Poissons Ratio (x) = 0.00115 0.20355
# Poissons Ratio (y) = 0.01366 -0.50639
# Poissons Ratio (z) = 0.63887 -0.13380
#
# Static dielectric constant tensor:
#      x y z
#    x 1.812680 0.000000 0.000000 
#    y 0.000000 1.935180 0.000000 
#    z 0.000000 0.000000 1.814860 
# 
# From -- ./inp_files/18432.got.cif
#   From: 2010.05.17/outbox.cif.g08.bks.cpg/sg23_10_cif.got.tgz:18432.got - 2010.06.04 12:02:01.
