data_PCOD9330862
_publ_section_title
;
Structure prediction by ZEFSAII (Michael W. Deem and Ramdas Pophale) SiO2 
 PCOD9330862
Probable space group: I 2 2 2
;
_chemical_formula_sum "Si O2"
_cell_formula_units_Z 64
_cell_length_a 19.857256
_cell_length_b 17.059993
_cell_length_c 9.138333
_cell_angle_alpha 90.000000
_cell_angle_beta 90.000000
_cell_angle_gamma 90.000000
_cell_volume 3095.744165
_symmetry_space_group_name_H-M "I 2 2 2"
_symmetry_group_IT_number 23
_symmetry_cell_setting 'orthorhombic'
loop_
_space_group_symop_operation_xyz
x,y,z
-x,-y,z
x,-y,-z
-x,y,-z
1/2+x,1/2+y,1/2+z
1/2-x,1/2-y,1/2+z
1/2+x,1/2-y,1/2-z
1/2-x,1/2+y,1/2-z
loop_
_atom_site_type_symbol
_atom_site_label
_atom_site_fract_x
_atom_site_fract_y
_atom_site_fract_z
Si Si1 0.286655 0.372473 0.424126
Si Si2 0.930302 0.195026 0.068105
Si Si3 0.814225 0.230443 0.621248
Si Si4 0.727330 0.957448 0.640662
Si Si5 0.500351 0.088393 0.175189
Si Si6 0.116456 0.329244 0.136162
Si Si7 0.891146 0.277325 0.336999
Si Si8 0.272433 0.112930 0.232420
O O1 0.365072 0.358718 0.454102
O O2 0.247140 0.289261 0.416955
O O3 0.271070 0.416491 0.270063
O O4 0.255150 0.408261 0.571175
O O5 0.927634 0.211740 0.240781
O O6 0.917209 0.280639 0.994019
O O7 0.000000 0.165777 0.000000
O O8 0.845064 0.263937 0.769889
O O9 0.870151 0.242815 0.494917
O O10 0.785935 0.144835 0.658973
O O11 0.671732 0.893943 0.592582
O O12 0.760603 0.000000 0.500000
O O13 0.692855 0.033309 0.715185
O O14 0.562766 0.130770 0.254872
O O15 0.437782 0.146994 0.184412
O O16 0.500000 0.000000 0.236376
O O17 0.500000 0.080392 0.000000
O O18 0.820796 0.312173 0.279160
#
# Coordination Sequence:
#
# PCOD9330862 Si02
#       8
#     8   8   8   8   8   8   8   8
#     4  10  23  40  62  91 128 165 221 268 333 387
#     4  12  23  38  64  91 128 166 215 265 322 389
#     4  10  21  36  65  87 123 168 219 277 314 374
#     4  11  25  39  63  93 129 164 214 273 336 390
#     4  11  22  37  57  86 133 183 223 262 318 396
#     4  11  22  41  56  91 128 170 216 263 316 391
#     4  11  22  36  59  91 126 173 222 264 317 386
#     4  11  21  39  63  91 125 170 213 278 333 379
#
# _framework density 20.673544
#
# number of rings (size 3 to 8) (size 9 to 14) (size 15 to 20)
#    0.000    1.125    5.000    1.875    1.750    0.000 
#    0.000    0.625    0.000    1.500    0.000    0.875 
#    0.000    0.000    0.000    0.000    0.000    0.000 
#
# Total GULP energy -178314.180823 kJ/mol
# GULP energy per Si atom -5572.318151 kJ/mol
# Density = 2.062649 g / cm^3
# Si number density = 20.673544 Si / 1000 Ang^3
#
#
#
# Elastic Constant Matrix: (Units=GPa)
#
#
# Indices 1 2 3 4 5 6 
#
# 1 89.7321 12.6507 35.7506 0.0000 0.0000 0.0000
# 2 12.6507 46.2753 20.1207 0.0000 0.0000 0.0000
# 3 35.7506 20.1207 82.5177 0.0000 0.0000 0.0000
# 4 0.0000 0.0000 0.0000 33.3599 0.0000 0.0000
# 5 0.0000 0.0000 0.0000 0.0000 24.8116 0.0000
# 6 0.0000 0.0000 0.0000 0.0000 0.0000 25.4342
#
#
#
# Elastic Compliance Matrix: (Units=1/GPa)
#
#
# Indices 1 2 3 4 5 6 
#
# 1 0.013537 -0.001287 -0.005551 0.000000 0.000000 0.000000
# 2 -0.001287 0.024295 -0.005366 0.000000 0.000000 0.000000
# 3 -0.005551 -0.005366 0.015832 0.000000 0.000000 0.000000
# 4 0.000000 0.000000 0.000000 0.029976 0.000000 0.000000
# 5 0.000000 0.000000 0.000000 0.000000 0.040304 0.000000
# 6 0.000000 0.000000 0.000000 0.000000 0.000000 0.039317
#
#
# Mechanical properties :
#
#
# Convention : Reuss Voigt Hill
#
# Bulk Modulus (GPa) = 34.18194 39.50767 36.84480
# Shear Modulus (GPa) = 25.32638 26.72134 26.02386
#
# Velocity S-wave (km/s) = 3.50389 3.59909 3.55181
# Velocity P-wave (km/s) = 5.73931 6.03515 5.88909
#
# Compressibility (1/GPa) = 0.02925522
#
# Stress axis : x y z
#
# Youngs Moduli (GPa) = 73.86923 41.16075 63.16266
#
# Poissons Ratio (x) = 0.05298 0.35063
# Poissons Ratio (y) = 0.09508 0.33895
# Poissons Ratio (z) = 0.41006 0.22088
#
# Static dielectric constant tensor:
#      x y z
#    x 1.774990 0.000000 0.000000 
#    y 0.000000 1.757100 0.000000 
#    z 0.000000 0.000000 1.782460 
# 
# From -- ./inp_files/12200.got.cif
#   From: 2010.05.17/outbox.cif.g08.bks.cpg/sg23_7_cif.got.tgz:12200.got - 2010.06.04 12:02:01.
