data_PCOD9330776
_publ_section_title
;
Structure prediction by ZEFSAII (Michael W. Deem and Ramdas Pophale) SiO2 
 PCOD9330776
Probable space group: I 2 2 2
;
_chemical_formula_sum "Si O2"
_cell_formula_units_Z 64
_cell_length_a 9.199368
_cell_length_b 14.245264
_cell_length_c 30.198965
_cell_angle_alpha 90.000000
_cell_angle_beta 90.000000
_cell_angle_gamma 90.000000
_cell_volume 3957.496625
_symmetry_space_group_name_H-M "I 2 2 2"
_symmetry_group_IT_number 23
_symmetry_cell_setting 'orthorhombic'
loop_
_space_group_symop_operation_xyz
x,y,z
-x,-y,z
x,-y,-z
-x,y,-z
1/2+x,1/2+y,1/2+z
1/2-x,1/2-y,1/2+z
1/2+x,1/2-y,1/2-z
1/2-x,1/2+y,1/2-z
loop_
_atom_site_type_symbol
_atom_site_label
_atom_site_fract_x
_atom_site_fract_y
_atom_site_fract_z
Si Si1 0.077109 0.096580 0.805327
Si Si2 0.837269 0.504306 0.738501
Si Si3 0.166379 0.613557 0.995592
Si Si4 0.334415 0.786563 0.661641
Si Si5 0.828992 0.190795 0.752280
Si Si6 0.820487 0.103995 0.405036
Si Si7 0.856147 0.367973 0.816119
Si Si8 0.159043 0.878607 0.583338
O O1 0.231591 0.062241 0.788529
O O2 0.099049 0.181463 0.839280
O O3 0.983569 0.141733 0.764435
O O4 0.000000 0.000000 0.820380
O O5 0.784045 0.610195 0.734368
O O6 0.832740 0.463415 0.788476
O O7 0.000000 0.500000 0.722453
O O8 0.229189 0.637309 0.947519
O O9 0.161778 0.500000 0.000000
O O10 0.276066 0.642857 0.034767
O O11 0.000000 0.647188 0.000000
O O12 0.217448 0.788657 0.702008
O O13 0.474532 0.852353 0.671409
O O14 0.252807 0.820836 0.618399
O O15 0.820162 0.282616 0.782580
O O16 0.744009 0.133449 0.359413
O O17 0.986890 0.137163 0.410577
O O18 0.820036 0.990065 0.407264
#
# Coordination Sequence:
#
# PCOD9330776 Si02
#       8
#     8   8   8   8   8   8   8   8
#     4   9  21  36  50  67  99 139 175 214 271 304
#     4  11  20  33  50  69  94 134 172 214 252 304
#     4   9  17  33  52  70  98 134 169 207 250 302
#     4  11  20  34  50  72 100 133 178 216 257 308
#     4  10  21  34  49  68  99 135 171 213 259 299
#     4  10  21  33  48  72 105 136 170 212 255 308
#     4  11  22  33  47  71 100 133 174 213 252 301
#     4  10  21  32  50  74  99 136 175 210 257 303
#
# _framework density 16.17184
#
# number of rings (size 3 to 8) (size 9 to 14) (size 15 to 20)
#    0.000    1.875    2.500    1.875    1.750    3.500 
#    0.000    0.000    0.000    0.000    0.000    0.000 
#    0.000   23.500    0.000   29.625    0.000    0.375 
#
# Total GULP energy -178395.221172 kJ/mol
# GULP energy per Si atom -5574.850662 kJ/mol
# Density = 1.613503 g / cm^3
# Si number density = 16.171840 Si / 1000 Ang^3
#
#
#
# Elastic Constant Matrix: (Units=GPa)
#
#
# Indices 1 2 3 4 5 6 
#
# 1 121.7083 23.5237 45.0840 0.0000 0.0000 0.0000
# 2 23.5237 44.7439 7.2762 0.0000 0.0000 0.0000
# 3 45.0840 7.2762 67.1325 0.0000 0.0000 0.0000
# 4 0.0000 0.0000 0.0000 17.1240 0.0000 0.0000
# 5 0.0000 0.0000 0.0000 0.0000 26.8552 0.0000
# 6 0.0000 0.0000 0.0000 0.0000 0.0000 17.4112
#
#
#
# Elastic Compliance Matrix: (Units=1/GPa)
#
#
# Indices 1 2 3 4 5 6 
#
# 1 0.011972 -0.005076 -0.007490 0.000000 0.000000 0.000000
# 2 -0.005076 0.024903 0.000710 0.000000 0.000000 0.000000
# 3 -0.007490 0.000710 0.019849 0.000000 0.000000 0.000000
# 4 0.000000 0.000000 0.000000 0.058398 0.000000 0.000000
# 5 0.000000 0.000000 0.000000 0.000000 0.037237 0.000000
# 6 0.000000 0.000000 0.000000 0.000000 0.000000 0.057434
#
#
# Mechanical properties :
#
#
# Convention : Reuss Voigt Hill
#
# Bulk Modulus (GPa) = 30.29256 42.81694 36.55475
# Shear Modulus (GPa) = 20.44925 22.79147 21.62036
#
# Velocity S-wave (km/s) = 3.55983 3.75818 3.66035
# Velocity P-wave (km/s) = 5.97234 6.73540 6.36532
#
# Compressibility (1/GPa) = 0.03301141
#
# Stress axis : x y z
#
# Youngs Moduli (GPa) = 83.52919 40.15625 50.38078
#
# Poissons Ratio (x) = 0.20384 0.37734
# Poissons Ratio (y) = 0.42400 -0.03576
# Poissons Ratio (z) = 0.62561 -0.02850
#
# Static dielectric constant tensor:
#      x y z
#    x 1.570810 0.000000 0.000000 
#    y 0.000000 1.549790 0.000000 
#    z 0.000000 0.000000 1.520450 
# 
# From -- ./inp_files/20419.got.cif
#   From: 2010.05.17/outbox.cif.g08.bks.cpg/sg23_11_cif.got.tgz:20419.got - 2010.06.04 12:02:01.
