data_PCOD9330317
_publ_section_title
;
Structure prediction by ZEFSAII (Michael W. Deem and Ramdas Pophale) SiO2 
 PCOD9330317
Probable space group: I 2 2 2
;
_chemical_formula_sum "Si O2"
_cell_formula_units_Z 36
_cell_length_a 24.011798
_cell_length_b 11.938237
_cell_length_c 4.970207
_cell_angle_alpha 90.000000
_cell_angle_beta 90.000000
_cell_angle_gamma 90.000000
_cell_volume 1424.752259
_symmetry_space_group_name_H-M "I 2 2 2"
_symmetry_group_IT_number 23
_symmetry_cell_setting 'orthorhombic'
loop_
_space_group_symop_operation_xyz
x,y,z
-x,-y,z
x,-y,-z
-x,y,-z
1/2+x,1/2+y,1/2+z
1/2-x,1/2-y,1/2+z
1/2+x,1/2-y,1/2-z
1/2-x,1/2+y,1/2-z
loop_
_atom_site_type_symbol
_atom_site_label
_atom_site_fract_x
_atom_site_fract_y
_atom_site_fract_z
Si Si1 0.238714 0.177541 0.134350
Si Si2 0.911824 0.613253 0.123567
Si Si3 0.444380 0.665122 0.145757
Si Si4 0.621438 0.668736 0.361976
Si Si5 0.821895 0.500000 0.500000
O O1 0.231994 0.240452 0.416070
O O2 0.181101 0.143595 0.989754
O O3 0.280123 0.075146 0.173940
O O4 0.949137 0.700419 0.292623
O O5 0.861366 0.572689 0.309716
O O6 0.936469 0.500000 0.000000
O O7 0.887465 0.696513 0.896046
O O8 0.425662 0.621429 0.435180
O O9 0.500000 0.628043 0.000000
O O10 0.393879 0.641126 0.940639
#
# Coordination Sequence:
#
# PCOD9330317 Si02
#       5
#     8   8   8   8   4
#     4  12  23  40  62  89 124 166 204 252 305 363
#     4  10  20  35  55  81 122 153 198 243 289 366
#     4  10  21  39  61  81 115 162 202 248 308 350
#     4  10  21  38  57  83 119 149 204 251 285 358
#     4  12  24  38  63  92 125 174 198 240 324 360
#
# _framework density 25.267551000000001
#
# number of rings (size 3 to 8) (size 9 to 14) (size 15 to 20)
#    1.333    0.000    2.222    6.000    0.000    0.000 
#    0.000    8.333    0.000    0.000    0.000    4.667 
#    0.000    0.000    0.000    0.000    0.000    0.000 
#
# Total GULP energy -100641.406383 kJ/mol
# GULP energy per Si atom -5591.189244 kJ/mol
# Density = 2.521004 g / cm^3
# Si number density = 25.267551 Si / 1000 Ang^3
#
#
#
# Elastic Constant Matrix: (Units=GPa)
#
#
# Indices 1 2 3 4 5 6 
#
# 1 93.0561 15.8263 -9.4614 0.0000 0.0000 0.0000
# 2 15.8263 111.7469 18.5216 0.0000 0.0000 0.0000
# 3 -9.4614 18.5216 93.1535 0.0000 0.0000 0.0000
# 4 0.0000 0.0000 0.0000 4.0370 0.0000 0.0000
# 5 0.0000 0.0000 0.0000 0.0000 25.9282 0.0000
# 6 0.0000 0.0000 0.0000 0.0000 0.0000 13.2787
#
#
#
# Elastic Compliance Matrix: (Units=1/GPa)
#
#
# Indices 1 2 3 4 5 6 
#
# 1 0.011212 -0.001837 0.001504 0.000000 0.000000 0.000000
# 2 -0.001837 0.009555 -0.002086 0.000000 0.000000 0.000000
# 3 0.001504 -0.002086 0.011303 0.000000 0.000000 0.000000
# 4 0.000000 0.000000 0.000000 0.247709 0.000000 0.000000
# 5 0.000000 0.000000 0.000000 0.000000 0.038568 0.000000
# 6 0.000000 0.000000 0.000000 0.000000 0.000000 0.075309
#
#
# Mechanical properties :
#
#
# Convention : Reuss Voigt Hill
#
# Bulk Modulus (GPa) = 36.72429 38.63662 37.68045
# Shear Modulus (GPa) = 12.26783 26.85345 19.56064
#
# Velocity S-wave (km/s) = 2.20584 3.26354 2.78536
# Velocity P-wave (km/s) = 4.58839 5.43371 5.02884
#
# Compressibility (1/GPa) = 0.02722994
#
# Stress axis : x y z
#
# Youngs Moduli (GPa) = 89.19355 104.65956 88.47554
#
# Poissons Ratio (x) = 0.19227 -0.13307
# Poissons Ratio (y) = 0.16386 0.18459
# Poissons Ratio (z) = -0.13415 0.21836
#
# Static dielectric constant tensor:
#      x y z
#    x 1.997110 0.000000 0.000000 
#    y 0.000000 2.101070 0.000000 
#    z 0.000000 0.000000 1.642290 
# 
# From -- ./inp_files/4292.got.cif
#   From: 2010.05.17/outbox.cif.g08.bks.cpg/sg23_3_cif.got.tgz:4292.got - 2010.06.04 12:02:01.
