data_PCOD9330278
_publ_section_title
;
Structure prediction by ZEFSAII (Michael W. Deem and Ramdas Pophale) SiO2 
 PCOD9330278
Probable space group: I 2 2 2
;
_chemical_formula_sum "Si O2"
_cell_formula_units_Z 60
_cell_length_a 19.296380
_cell_length_b 12.061384
_cell_length_c 12.131120
_cell_angle_alpha 90.000000
_cell_angle_beta 90.000000
_cell_angle_gamma 90.000000
_cell_volume 2823.409594
_symmetry_space_group_name_H-M "I 2 2 2"
_symmetry_group_IT_number 23
_symmetry_cell_setting 'orthorhombic'
loop_
_space_group_symop_operation_xyz
x,y,z
-x,-y,z
x,-y,-z
-x,y,-z
1/2+x,1/2+y,1/2+z
1/2-x,1/2-y,1/2+z
1/2+x,1/2-y,1/2-z
1/2-x,1/2+y,1/2-z
loop_
_atom_site_type_symbol
_atom_site_label
_atom_site_fract_x
_atom_site_fract_y
_atom_site_fract_z
Si Si1 0.067992 0.438688 0.316989
Si Si2 0.136522 0.206932 0.344056
Si Si3 0.431282 0.569607 0.316385
Si Si4 0.505527 0.804804 0.626885
Si Si5 0.732885 0.707241 0.625852
Si Si6 0.639516 0.848571 0.257180
Si Si7 0.238181 0.378478 0.964531
Si Si8 0.324499 0.500000 0.500000
O O1 0.097017 0.322820 0.364382
O O2 0.122906 0.536243 0.304492
O O3 0.000000 0.500000 0.366442
O O4 0.046051 0.397893 0.195063
O O5 0.088250 0.103882 0.309069
O O6 0.184578 0.201197 0.233643
O O7 0.190815 0.184720 0.438858
O O8 0.500000 0.500000 0.316836
O O9 0.452631 0.688830 0.369089
O O10 0.375719 0.502263 0.392400
O O11 0.500000 0.836270 0.500000
O O12 0.431798 0.797066 0.693632
O O13 0.810616 0.717751 0.673828
O O14 0.704778 0.814487 0.564879
O O15 0.721863 0.605878 0.538049
O O16 0.687260 0.874978 0.361836
O O17 0.255476 0.500000 0.000000
#
# Coordination Sequence:
#
# PCOD9330278 Si02
#       8
#     8   8   8   8   8   8   8   4
#     4   9  19  37  59  85 120 153 197 254 323 368
#     4   9  21  40  57  88 125 156 208 264 308 383
#     4  10  20  34  57  88 123 162 199 265 324 378
#     4  10  21  33  58  93 122 158 199 259 326 381
#     4  10  23  40  58  91 124 170 212 259 315 382
#     4  10  23  37  60  92 126 164 207 260 321 378
#     4  11  24  39  62  88 121 173 209 255 311 384
#     4  10  21  36  60  90 121 166 216 256 328 386
#
# _framework density 21.250900999999999
#
# number of rings (size 3 to 8) (size 9 to 14) (size 15 to 20)
#    0.000    2.133    0.000    1.800   11.200    2.933 
#    4.800    0.000    0.000   14.800    0.000    0.000 
#    0.000    0.000    0.000    0.000    0.000    0.000 
#
# Total GULP energy -167083.388194 kJ/mol
# GULP energy per Si atom -5569.446273 kJ/mol
# Density = 2.120253 g / cm^3
# Si number density = 21.250901 Si / 1000 Ang^3
#
#
#
# Elastic Constant Matrix: (Units=GPa)
#
#
# Indices 1 2 3 4 5 6 
#
# 1 52.6867 -1.6537 14.3368 0.0000 0.0000 0.0000
# 2 -1.6537 56.6538 12.9370 0.0000 0.0000 0.0000
# 3 14.3368 12.9370 35.7989 0.0000 0.0000 0.0000
# 4 0.0000 0.0000 0.0000 1.7231 0.0000 0.0000
# 5 0.0000 0.0000 0.0000 0.0000 15.6789 0.0000
# 6 0.0000 0.0000 0.0000 0.0000 0.0000 37.5129
#
#
#
# Elastic Compliance Matrix: (Units=1/GPa)
#
#
# Indices 1 2 3 4 5 6 
#
# 1 0.021717 0.002856 -0.009729 0.000000 0.000000 0.000000
# 2 0.002856 0.019614 -0.008232 0.000000 0.000000 0.000000
# 3 -0.009729 -0.008232 0.034805 0.000000 0.000000 0.000000
# 4 0.000000 0.000000 0.000000 0.580363 0.000000 0.000000
# 5 0.000000 0.000000 0.000000 0.000000 0.063780 0.000000
# 6 0.000000 0.000000 0.000000 0.000000 0.000000 0.026658
#
#
# Mechanical properties :
#
#
# Convention : Reuss Voigt Hill
#
# Bulk Modulus (GPa) = 21.77443 21.81998 21.79721
# Shear Modulus (GPa) = 6.30950 18.95093 12.63021
#
# Velocity S-wave (km/s) = 1.72496 2.98949 2.44055
# Velocity P-wave (km/s) = 3.77305 4.71234 4.26861
#
# Compressibility (1/GPa) = 0.04592542
#
# Stress axis : x y z
#
# Youngs Moduli (GPa) = 46.04635 50.98351 28.73147
#
# Poissons Ratio (x) = -0.14559 0.27954
# Poissons Ratio (y) = -0.13149 0.23651
# Poissons Ratio (z) = 0.44800 0.41969
#
# Static dielectric constant tensor:
#      x y z
#    x 1.855270 0.000000 0.000000 
#    y 0.000000 1.766350 0.000000 
#    z 0.000000 0.000000 1.787130 
# 
# From -- ./inp_files/18030.got.cif
#   From: 2010.05.17/outbox.cif.g08.bks.cpg/sg23_10_cif.got.tgz:18030.got - 2010.06.04 12:02:01.
