data_PCOD9330657
_publ_section_title
;
Structure prediction by ZEFSAII (Michael W. Deem and Ramdas Pophale) SiO2 
 PCOD9330657
Probable space group: I 2 2 2
;
_chemical_formula_sum "Si O2"
_cell_formula_units_Z 34
_cell_length_a 14.071986
_cell_length_b 8.711050
_cell_length_c 12.608021
_cell_angle_alpha 90.000000
_cell_angle_beta 90.000000
_cell_angle_gamma 90.000000
_cell_volume 1545.513576
_symmetry_space_group_name_H-M "I 2 2 2"
_symmetry_group_IT_number 23
_symmetry_cell_setting 'orthorhombic'
loop_
_space_group_symop_operation_xyz
x,y,z
-x,-y,z
x,-y,-z
-x,y,-z
1/2+x,1/2+y,1/2+z
1/2-x,1/2-y,1/2+z
1/2+x,1/2-y,1/2-z
1/2-x,1/2+y,1/2-z
loop_
_atom_site_type_symbol
_atom_site_label
_atom_site_fract_x
_atom_site_fract_y
_atom_site_fract_z
Si Si1 0.347626 0.461452 0.892730
Si Si2 0.195782 0.601541 0.602917
Si Si3 0.000000 0.500000 0.000000
Si Si4 0.892948 0.017701 0.839072
Si Si5 0.346540 0.873385 0.340849
O O1 0.328895 0.280256 0.901132
O O2 0.397340 0.516149 0.785966
O O3 0.248509 0.554677 0.888787
O O4 0.399388 0.500000 0.000000
O O5 0.166095 0.500000 0.500000
O O6 0.310902 0.586793 0.610438
O O7 0.152265 0.558718 0.719715
O O8 0.067403 0.589248 0.918745
O O9 0.848292 0.188765 0.840062
O O10 0.000000 0.000000 0.881340
#
# Coordination Sequence:
#
# PCOD9330657 Si02
#       5
#     8   8   2   8   8
#     4  10  20  40  63  87 126 173 208 256 325 383
#     4  10  22  40  64  90 128 167 211 257 323 382
#     4  12  24  40  68  88 122 156 214 262 316 368
#     4  10  23  39  61  95 125 162 218 266 309 377
#     4  10  23  40  62  96 121 165 211 262 323 373
#
# _framework density 21.999161999999998
#
# number of rings (size 3 to 8) (size 9 to 14) (size 15 to 20)
#    0.000    1.882    1.176    1.412    3.294    2.824 
#    0.000    0.588    0.000    0.000    0.000    0.000 
#    0.000    0.000    0.000    0.000    0.000    0.000 
#
# Total GULP energy -94800.576545 kJ/mol
# GULP energy per Si atom -5576.504503 kJ/mol
# Density = 2.194909 g / cm^3
# Si number density = 21.999162 Si / 1000 Ang^3
#
#
#
# Elastic Constant Matrix: (Units=GPa)
#
#
# Indices 1 2 3 4 5 6 
#
# 1 93.6608 15.8648 32.7133 0.0000 0.0000 0.0000
# 2 15.8648 26.6643 11.3879 0.0000 0.0000 0.0000
# 3 32.7133 11.3879 161.3523 0.0000 0.0000 0.0000
# 4 0.0000 0.0000 0.0000 30.9296 0.0000 0.0000
# 5 0.0000 0.0000 0.0000 0.0000 37.8632 0.0000
# 6 0.0000 0.0000 0.0000 0.0000 0.0000 -8.5217
#
#
#
# Elastic Compliance Matrix: (Units=1/GPa)
#
#
# Indices 1 2 3 4 5 6 
#
# 1 0.012512 -0.006559 -0.002074 0.000000 0.000000 0.000000
# 2 -0.006559 0.042107 -0.001642 0.000000 0.000000 0.000000
# 3 -0.002074 -0.001642 0.006734 0.000000 0.000000 0.000000
# 4 0.000000 0.000000 0.000000 0.032332 0.000000 0.000000
# 5 0.000000 0.000000 0.000000 0.000000 0.026411 0.000000
# 6 0.000000 0.000000 0.000000 0.000000 0.000000 -0.117348
#
#
# Mechanical properties :
#
#
# Convention : Reuss Voigt Hill
#
# Bulk Modulus (GPa) = 24.50763 44.62326 34.56544
# Shear Modulus (GPa) = 135.50852 26.83499 81.17176
#
# Velocity S-wave (km/s) = 7.85690 3.49638 6.08093
# Velocity P-wave (km/s) = 9.66810 6.05208 8.06536
#
# Compressibility (1/GPa) = 0.04080363
#
# Stress axis : x y z
#
# Youngs Moduli (GPa) = 79.92243 23.74908 148.50070
#
# Poissons Ratio (x) = 0.15576 0.30797
# Poissons Ratio (y) = 0.52419 0.24385
# Poissons Ratio (z) = 0.16575 0.03900
#
# Static dielectric constant tensor:
#      x y z
#    x 1.798110 0.000000 0.000000 
#    y 0.000000 1.306250 0.000000 
#    z 0.000000 0.000000 1.911740 
# 
# From -- ./inp_files/7971.got.cif
#   From: 2010.05.17/outbox.cif.g08.bks.cpg/sg23_4_cif.got.tgz:7971.got - 2010.06.04 12:02:01.
