data_PCOD9330095
_publ_section_title
;
Structure prediction by ZEFSAII (Michael W. Deem and Ramdas Pophale) SiO2 
 PCOD9330095
Probable space group: I 2 2 2
;
_chemical_formula_sum "Si O2"
_cell_formula_units_Z 60
_cell_length_a 5.400290
_cell_length_b 20.372100
_cell_length_c 22.478959
_cell_angle_alpha 90.000000
_cell_angle_beta 90.000000
_cell_angle_gamma 90.000000
_cell_volume 2473.028247
_symmetry_space_group_name_H-M "I 2 2 2"
_symmetry_group_IT_number 23
_symmetry_cell_setting 'orthorhombic'
loop_
_space_group_symop_operation_xyz
x,y,z
-x,-y,z
x,-y,-z
-x,y,-z
1/2+x,1/2+y,1/2+z
1/2-x,1/2-y,1/2+z
1/2+x,1/2-y,1/2-z
1/2-x,1/2+y,1/2-z
loop_
_atom_site_type_symbol
_atom_site_label
_atom_site_fract_x
_atom_site_fract_y
_atom_site_fract_z
Si Si1 0.446779 0.643614 0.344110
Si Si2 0.252421 0.495608 0.256704
Si Si3 0.437490 0.076117 0.892805
Si Si4 0.000000 0.344885 0.500000
Si Si5 0.292755 0.361069 0.791711
Si Si6 0.852075 0.244380 0.939832
Si Si7 0.780382 0.618175 0.162547
Si Si8 0.757388 0.601916 0.036737
O O1 0.709522 0.604296 0.351247
O O2 0.364554 0.658665 0.275687
O O3 0.471068 0.710227 0.382765
O O4 0.204900 0.605358 0.370325
O O5 0.500000 0.500000 0.293306
O O6 0.266374 0.558988 0.213645
O O7 0.241588 0.431210 0.217977
O O8 0.000000 0.500000 0.291303
O O9 0.500000 0.000000 0.904567
O O10 0.352952 0.106162 0.956945
O O11 0.898854 0.294162 0.451273
O O12 0.524024 0.341843 0.832913
O O13 0.032882 0.343401 0.822539
O O14 0.804544 0.321856 0.943944
O O15 0.000000 0.227893 0.000000
O O16 0.766134 0.573544 0.103218
O O17 0.500000 0.594320 0.000000
O O18 0.000000 0.581409 0.000000
#
# Coordination Sequence:
#
# PCOD9330095 Si02
#       8
#     8   8   8   4   8   8   8   8
#     4  11  23  37  59  87 118 161 214 256 297 377
#     4   8  16  30  54  76 106 153 189 221 285 367
#     4  11  23  35  54  84 120 155 202 258 303 355
#     4  10  19  38  56  78 114 160 203 238 322 368
#     4  10  20  37  58  84 118 162 200 241 307 380
#     4  10  20  39  61  83 117 161 212 256 320 362
#     4  10  20  37  59  87 121 156 195 256 312 364
#     4  11  23  39  65  93 117 152 207 261 311 378
#
# _framework density 24.261752000000001
#
# number of rings (size 3 to 8) (size 9 to 14) (size 15 to 20)
#    0.000    1.867    2.000    2.200    0.000    4.800 
#    0.000    2.667    0.000   21.600    0.000    0.000 
#    0.000    0.000    0.000    0.000    0.000    0.000 
#
# Total GULP energy -167036.473105 kJ/mol
# GULP energy per Si atom -5567.882437 kJ/mol
# Density = 2.420653 g / cm^3
# Si number density = 24.261752 Si / 1000 Ang^3
#
#
#
# Elastic Constant Matrix: (Units=GPa)
#
#
# Indices 1 2 3 4 5 6 
#
# 1 202.2152 2.8101 20.3956 0.0000 0.0000 0.0000
# 2 2.8101 50.4025 -13.1794 0.0000 0.0000 0.0000
# 3 20.3956 -13.1794 101.8301 0.0000 0.0000 0.0000
# 4 0.0000 0.0000 0.0000 16.5809 0.0000 0.0000
# 5 0.0000 0.0000 0.0000 0.0000 36.6237 0.0000
# 6 0.0000 0.0000 0.0000 0.0000 0.0000 5.3943
#
#
#
# Elastic Compliance Matrix: (Units=1/GPa)
#
#
# Indices 1 2 3 4 5 6 
#
# 1 0.005063 -0.000567 -0.001087 0.000000 0.000000 0.000000
# 2 -0.000567 0.020599 0.002779 0.000000 0.000000 0.000000
# 3 -0.001087 0.002779 0.010398 0.000000 0.000000 0.000000
# 4 0.000000 0.000000 0.000000 0.060310 0.000000 0.000000
# 5 0.000000 0.000000 0.000000 0.000000 0.027305 0.000000
# 6 0.000000 0.000000 0.000000 0.000000 0.000000 0.185380
#
#
# Mechanical properties :
#
#
# Convention : Reuss Voigt Hill
#
# Bulk Modulus (GPa) = 26.10266 41.61117 33.85691
# Shear Modulus (GPa) = 15.64587 34.68123 25.16355
#
# Velocity S-wave (km/s) = 2.54220 3.78492 3.22401
# Velocity P-wave (km/s) = 4.40445 6.02404 5.27675
#
# Compressibility (1/GPa) = 0.03831028
#
# Stress axis : x y z
#
# Youngs Moduli (GPa) = 197.52025 48.54684 96.17422
#
# Poissons Ratio (x) = 0.02751 0.10458
# Poissons Ratio (y) = 0.11191 -0.26731
# Poissons Ratio (z) = 0.21478 -0.13493
#
# Static dielectric constant tensor:
#      x y z
#    x 2.212000 0.000000 0.000000 
#    y 0.000000 1.995630 0.000000 
#    z 0.000000 0.000000 1.985400 
# 
# From -- ./inp_files/25816.got.cif
#   From: 2010.05.17/outbox.cif.g08.bks.cpg/sg23_13_cif.got.tgz:25816.got - 2010.06.04 12:02:01.
