data_PCOD9330510
_publ_section_title
;
Structure prediction by ZEFSAII (Michael W. Deem and Ramdas Pophale) SiO2 
 PCOD9330510
Probable space group: I 2 2 2
;
_chemical_formula_sum "Si O2"
_cell_formula_units_Z 48
_cell_length_a 10.205345
_cell_length_b 12.398787
_cell_length_c 18.717869
_cell_angle_alpha 90.000000
_cell_angle_beta 90.000000
_cell_angle_gamma 90.000000
_cell_volume 2368.444944
_symmetry_space_group_name_H-M "I 2 2 2"
_symmetry_group_IT_number 23
_symmetry_cell_setting 'orthorhombic'
loop_
_space_group_symop_operation_xyz
x,y,z
-x,-y,z
x,-y,-z
-x,y,-z
1/2+x,1/2+y,1/2+z
1/2-x,1/2-y,1/2+z
1/2+x,1/2-y,1/2-z
1/2-x,1/2+y,1/2-z
loop_
_atom_site_type_symbol
_atom_site_label
_atom_site_fract_x
_atom_site_fract_y
_atom_site_fract_z
Si Si1 0.853198 0.950346 0.344651
Si Si2 0.136623 0.931458 0.819802
Si Si3 0.361632 0.279368 0.968216
Si Si4 0.663078 0.088483 0.437990
Si Si5 0.493359 0.728450 0.583739
Si Si6 0.258711 0.425498 0.431721
O O1 0.828501 0.919659 0.262565
O O2 0.844657 0.847211 0.395954
O O3 0.748431 0.036111 0.375126
O O4 0.000000 0.000000 0.349927
O O5 0.098539 0.825130 0.863670
O O6 0.246480 0.993216 0.865656
O O7 0.000000 0.000000 0.822779
O O8 0.358386 0.150940 0.956479
O O9 0.500000 0.313970 0.000000
O O10 0.249255 0.317326 0.023635
O O11 0.527679 0.144880 0.413694
O O12 0.649119 0.000000 0.500000
O O13 0.500000 0.699252 0.500000
O O14 0.356787 0.668834 0.598111
O O15 0.301543 0.500000 0.500000
#
# Coordination Sequence:
#
# PCOD9330510 Si02
#       6
#     8   8   8   8   8   8
#     4  10  20  38  56  82 117 157 197 240 300 365
#     4   9  20  34  59  83 112 157 198 241 298 363
#     4  11  21  35  59  85 112 156 204 239 289 362
#     4  10  21  34  57  86 114 151 191 251 295 349
#     4  11  19  35  59  86 113 147 198 244 297 355
#     4  11  21  37  59  87 116 151 198 248 299 354
#
# _framework density 20.266462000000001
#
# number of rings (size 3 to 8) (size 9 to 14) (size 15 to 20)
#    0.000    1.667    5.000    0.000    0.000    2.000 
#    0.000    0.000    0.000    0.000    8.667    0.000 
#    0.000    0.000    0.000    0.000    0.000    0.000 
#
# Total GULP energy -133689.519812 kJ/mol
# GULP energy per Si atom -5570.396659 kJ/mol
# Density = 2.022033 g / cm^3
# Si number density = 20.266462 Si / 1000 Ang^3
#
#
#
# Elastic Constant Matrix: (Units=GPa)
#
#
# Indices 1 2 3 4 5 6 
#
# 1 44.4036 20.3191 29.0965 0.0000 0.0000 0.0000
# 2 20.3191 89.0533 54.3875 0.0000 0.0000 0.0000
# 3 29.0965 54.3875 151.9287 0.0000 0.0000 0.0000
# 4 0.0000 0.0000 0.0000 13.4793 0.0000 0.0000
# 5 0.0000 0.0000 0.0000 0.0000 16.2547 0.0000
# 6 0.0000 0.0000 0.0000 0.0000 0.0000 35.7097
#
#
#
# Elastic Compliance Matrix: (Units=1/GPa)
#
#
# Indices 1 2 3 4 5 6 
#
# 1 0.026722 -0.003803 -0.003756 0.000000 0.000000 0.000000
# 2 -0.003803 0.014912 -0.004610 0.000000 0.000000 0.000000
# 3 -0.003756 -0.004610 0.008952 0.000000 0.000000 0.000000
# 4 0.000000 0.000000 0.000000 0.074188 0.000000 0.000000
# 5 0.000000 0.000000 0.000000 0.000000 0.061521 0.000000
# 6 0.000000 0.000000 0.000000 0.000000 0.000000 0.028004
#
#
# Mechanical properties :
#
#
# Convention : Reuss Voigt Hill
#
# Bulk Modulus (GPa) = 38.09853 54.77686 46.43770
# Shear Modulus (GPa) = 20.21126 25.19424 22.70275
#
# Velocity S-wave (km/s) = 3.16139 3.52966 3.35059
# Velocity P-wave (km/s) = 5.67146 6.61047 6.15889
#
# Compressibility (1/GPa) = 0.02624773
#
# Stress axis : x y z
#
# Youngs Moduli (GPa) = 37.42179 67.05801 111.71058
#
# Poissons Ratio (x) = 0.25503 0.41961
# Poissons Ratio (y) = 0.14232 0.51499
# Poissons Ratio (z) = 0.14057 0.30914
#
# Static dielectric constant tensor:
#      x y z
#    x 1.786730 0.000000 0.000000 
#    y 0.000000 1.776090 0.000000 
#    z 0.000000 0.000000 1.697650 
# 
# From -- ./inp_files/24306.got.cif
#   From: 2010.05.17/outbox.cif.g08.bks.cpg/sg23_13_cif.got.tgz:24306.got - 2010.06.04 12:02:01.
