data_PCOD9330796
_publ_section_title
;
Structure prediction by ZEFSAII (Michael W. Deem and Ramdas Pophale) SiO2 
 PCOD9330796
Probable space group: I 2 2 2
;
_chemical_formula_sum "Si O2"
_cell_formula_units_Z 64
_cell_length_a 11.643328
_cell_length_b 32.526052
_cell_length_c 8.316435
_cell_angle_alpha 90.000000
_cell_angle_beta 90.000000
_cell_angle_gamma 90.000000
_cell_volume 3149.529507
_symmetry_space_group_name_H-M "I 2 2 2"
_symmetry_group_IT_number 23
_symmetry_cell_setting 'orthorhombic'
loop_
_space_group_symop_operation_xyz
x,y,z
-x,-y,z
x,-y,-z
-x,y,-z
1/2+x,1/2+y,1/2+z
1/2-x,1/2-y,1/2+z
1/2+x,1/2-y,1/2-z
1/2-x,1/2+y,1/2-z
loop_
_atom_site_type_symbol
_atom_site_label
_atom_site_fract_x
_atom_site_fract_y
_atom_site_fract_z
Si Si1 0.122878 0.234636 0.424472
Si Si2 0.498551 0.815086 0.791667
Si Si3 0.987838 0.453185 0.805240
Si Si4 0.122010 0.752486 0.091242
Si Si5 0.653427 0.115425 0.751584
Si Si6 0.131213 0.163051 0.801966
Si Si7 0.869038 0.841021 0.181010
Si Si8 0.665521 0.120204 0.367928
O O1 0.253731 0.243789 0.489273
O O2 0.148817 0.200786 0.284591
O O3 0.000000 0.218678 0.500000
O O4 0.077808 0.280325 0.373507
O O5 0.416317 0.788842 0.677877
O O6 0.409282 0.849217 0.859364
O O7 0.583974 0.844477 0.699360
O O8 0.089448 0.427192 0.721956
O O9 0.000000 0.500000 0.748635
O O10 0.875673 0.423426 0.792168
O O11 0.000000 0.454906 0.000000
O O12 0.139306 0.787871 0.225726
O O13 0.000000 0.763890 0.000000
O O14 0.787266 0.121640 0.773570
O O15 0.643521 0.120853 0.558190
O O16 0.210640 0.135438 0.690784
O O17 0.001070 0.148591 0.791430
O O18 0.157394 0.164516 0.992630
#
# Coordination Sequence:
#
# PCOD9330796 Si02
#       8
#     8   8   8   8   8   8   8   8
#     4  12  27  37  57  86 112 164 222 263 306 356
#     4  11  21  35  52  80 113 148 197 249 298 344
#     4   8  16  36  64  95 123 146 179 238 311 368
#     4  12  22  38  55  74 116 164 206 258 307 346
#     4  10  21  34  60  89 116 145 196 246 296 355
#     4  11  23  39  56  74 119 162 201 242 309 354
#     4  11  24  39  53  81 116 159 202 252 300 348
#     4  10  21  36  59  91 112 155 192 241 299 369
#
# _framework density 20.320497
#
# number of rings (size 3 to 8) (size 9 to 14) (size 15 to 20)
#    0.000    1.375    5.000    1.875    3.500    1.000 
#    0.000    1.875    0.000    2.250    0.000    5.250 
#    0.000    0.000    0.000    0.000    0.000    0.000 
#
# Total GULP energy -178153.871540 kJ/mol
# GULP energy per Si atom -5567.308486 kJ/mol
# Density = 2.027425 g / cm^3
# Si number density = 20.320497 Si / 1000 Ang^3
#
#
#
# Elastic Constant Matrix: (Units=GPa)
#
#
# Indices 1 2 3 4 5 6 
#
# 1 136.9612 29.9150 24.3559 0.0001 -0.0012 0.0000
# 2 29.9150 122.9667 9.0624 0.0001 -0.0018 0.0006
# 3 24.3559 9.0624 19.4502 0.0027 -0.0055 -0.0009
# 4 0.0001 0.0001 0.0027 16.0499 -0.0002 -0.0003
# 5 -0.0012 -0.0018 -0.0055 -0.0002 30.5111 0.0008
# 6 0.0000 0.0006 -0.0009 -0.0003 0.0008 12.6470
#
#
#
# Elastic Compliance Matrix: (Units=1/GPa)
#
#
# Indices 1 2 3 4 5 6 
#
# 1 0.009656 -0.001510 -0.011388 0.000002 -0.000002 -0.000001
# 2 -0.001510 0.008658 -0.002143 0.000000 0.000000 -0.000001
# 3 -0.011388 -0.002143 0.066673 -0.000011 0.000011 0.000005
# 4 0.000002 0.000000 -0.000011 0.062306 0.000000 0.000001
# 5 -0.000002 0.000000 0.000011 0.000000 0.032775 -0.000002
# 6 -0.000001 -0.000001 0.000005 0.000001 -0.000002 0.079070
#
#
# Mechanical properties :
#
#
# Convention : Reuss Voigt Hill
#
# Bulk Modulus (GPa) = 18.21363 45.11606 31.66485
# Shear Modulus (GPa) = 16.25905 26.24460 21.25182
#
# Velocity S-wave (km/s) = 2.83173 3.59769 3.23744
# Velocity P-wave (km/s) = 4.43556 6.28556 5.43978
#
# Compressibility (1/GPa) = 0.05490394
#
# Stress axis : x y z
#
# Youngs Moduli (GPa) = 103.55915 115.50620 14.99863
#
# Poissons Ratio (x) = 0.17440 0.17081
# Poissons Ratio (y) = 0.15636 0.03214
# Poissons Ratio (z) = 1.17937 0.24754
#
# Static dielectric constant tensor:
#      x y z
#    x 1.779230 0.000000 0.000000 
#    y 0.000000 1.764520 0.000010 
#    z 0.000000 0.000010 1.969890 
# 
# From -- ./inp_files/8963.got.cif
#   From: 2010.05.17/outbox.cif.g08.bks.cpg/sg23_5_cif.got.tgz:8963.got - 2010.06.04 12:02:01.
