data_PCOD9330505
_publ_section_title
;
Structure prediction by ZEFSAII (Michael W. Deem and Ramdas Pophale) SiO2 
 PCOD9330505
Probable space group: I 2 2 2
;
_chemical_formula_sum "Si O2"
_cell_formula_units_Z 38
_cell_length_a 8.426428
_cell_length_b 8.826503
_cell_length_c 20.414809
_cell_angle_alpha 90.000000
_cell_angle_beta 90.000000
_cell_angle_gamma 90.000000
_cell_volume 1518.369630
_symmetry_space_group_name_H-M "I 2 2 2"
_symmetry_group_IT_number 23
_symmetry_cell_setting 'orthorhombic'
loop_
_space_group_symop_operation_xyz
x,y,z
-x,-y,z
x,-y,-z
-x,y,-z
1/2+x,1/2+y,1/2+z
1/2-x,1/2-y,1/2+z
1/2+x,1/2-y,1/2-z
1/2-x,1/2+y,1/2-z
loop_
_atom_site_type_symbol
_atom_site_label
_atom_site_fract_x
_atom_site_fract_y
_atom_site_fract_z
Si Si1 0.000000 0.500000 0.095854
Si Si2 0.341591 0.581387 0.129403
Si Si3 0.653860 0.902088 0.172104
Si Si4 0.063199 0.834252 0.905404
Si Si5 0.331580 0.680539 0.712359
Si Si6 0.500000 0.500000 0.000000
O O1 0.829814 0.500736 0.132243
O O2 0.990365 0.671318 0.065581
O O3 0.500000 0.500000 0.155133
O O4 0.299737 0.732175 0.168076
O O5 0.388644 0.592639 0.051334
O O6 0.749730 0.852707 0.107315
O O7 0.633745 0.762538 0.220521
O O8 0.500000 0.000000 0.156207
O O9 0.763271 0.013769 0.215837
O O10 0.985890 0.818940 0.833121
O O11 0.000000 0.000000 0.929574
#
# Coordination Sequence:
#
# PCOD9330505 Si02
#       6
#     4   8   8   8   8   2
#     4  10  20  37  70  86 130 166 204 263 338 378
#     4   9  21  37  62  92 123 159 212 274 321 386
#     4  11  23  33  55  84 128 174 214 258 312 386
#     4   9  21  38  51  84 126 169 216 252 302 392
#     4  10  22  35  53  84 124 167 211 256 319 383
#     4   8  20  42  60 100 128 144 232 284 316 386
#
# _framework density 25.026845000000002
#
# number of rings (size 3 to 8) (size 9 to 14) (size 15 to 20)
#    0.632    1.684    0.000    1.263   14.737    2.947 
#    0.000    0.000    0.000    0.000    0.000   47.895 
#    0.000    0.000    0.000    0.000    0.000    0.000 
#
# Total GULP energy -105880.374614 kJ/mol
# GULP energy per Si atom -5572.651295 kJ/mol
# Density = 2.496988 g / cm^3
# Si number density = 25.026845 Si / 1000 Ang^3
#
#
#
# Elastic Constant Matrix: (Units=GPa)
#
#
# Indices 1 2 3 4 5 6 
#
# 1 177.0130 50.7887 36.5471 0.0000 0.0000 0.0000
# 2 50.7887 196.9141 45.8478 0.0000 0.0000 0.0000
# 3 36.5471 45.8478 83.4980 0.0000 0.0000 0.0000
# 4 0.0000 0.0000 0.0000 -156.5342 0.0000 0.0000
# 5 0.0000 0.0000 0.0000 0.0000 -34.5850 0.0000
# 6 0.0000 0.0000 0.0000 0.0000 0.0000 46.7947
#
#
#
# Elastic Compliance Matrix: (Units=1/GPa)
#
#
# Indices 1 2 3 4 5 6 
#
# 1 0.006430 -0.001150 -0.002183 0.000000 0.000000 0.000000
# 2 -0.001150 0.006029 -0.002807 0.000000 0.000000 0.000000
# 3 -0.002183 -0.002807 0.014473 0.000000 0.000000 0.000000
# 4 0.000000 0.000000 0.000000 -0.006388 0.000000 0.000000
# 5 0.000000 0.000000 0.000000 0.000000 -0.028914 0.000000
# 6 0.000000 0.000000 0.000000 0.000000 0.000000 0.021370
#
#
# Mechanical properties :
#
#
# Convention : Reuss Voigt Hill
#
# Bulk Modulus (GPa) = 68.25083 80.42138 74.33611
# Shear Modulus (GPa) = 165.77009 -7.24879 79.26065
#
# Velocity S-wave (km/s) = 8.14744 -1.70373 5.63374
# Velocity P-wave (km/s) = 10.76280 5.32293 8.49033
#
# Compressibility (1/GPa) = 0.01465184
#
# Stress axis : x y z
#
# Youngs Moduli (GPa) = 155.52082 165.87819 69.09457
#
# Poissons Ratio (x) = 0.19080 0.15082
# Poissons Ratio (y) = 0.17888 0.19393
# Poissons Ratio (z) = 0.33948 0.46558
#
# Static dielectric constant tensor:
#      x y z
#    x 2.084450 0.000000 0.000000 
#    y 0.000000 2.038510 0.000000 
#    z 0.000000 0.000000 1.923050 
# 
# From -- ./inp_files/12436.got.cif
#   From: 2010.05.17/outbox.cif.g08.bks.cpg/sg23_7_cif.got.tgz:12436.got - 2010.06.04 12:02:01.
