data_PCOD9330746
_publ_section_title
;
Structure prediction by ZEFSAII (Michael W. Deem and Ramdas Pophale) SiO2 
 PCOD9330746
Probable space group: I 2 2 2
;
_chemical_formula_sum "Si O2"
_cell_formula_units_Z 56
_cell_length_a 18.831434
_cell_length_b 9.436320
_cell_length_c 14.569151
_cell_angle_alpha 90.000000
_cell_angle_beta 90.000000
_cell_angle_gamma 90.000000
_cell_volume 2588.929934
_symmetry_space_group_name_H-M "I 2 2 2"
_symmetry_group_IT_number 23
_symmetry_cell_setting 'orthorhombic'
loop_
_space_group_symop_operation_xyz
x,y,z
-x,-y,z
x,-y,-z
-x,y,-z
1/2+x,1/2+y,1/2+z
1/2-x,1/2-y,1/2+z
1/2+x,1/2-y,1/2-z
1/2-x,1/2+y,1/2-z
loop_
_atom_site_type_symbol
_atom_site_label
_atom_site_fract_x
_atom_site_fract_y
_atom_site_fract_z
Si Si1 0.618660 0.110611 0.835148
Si Si2 0.080256 0.503673 0.142060
Si Si3 0.164903 0.699225 0.628604
Si Si4 0.239521 0.257630 0.567182
Si Si5 0.634086 0.318062 0.316147
Si Si6 0.000000 0.000000 0.752486
Si Si7 0.813304 0.500000 0.000000
Si Si8 0.498879 0.275842 0.900935
O O1 0.587046 0.092543 0.734743
O O2 0.675474 0.228550 0.861696
O O3 0.551558 0.141985 0.899960
O O4 0.662583 0.967421 0.851873
O O5 0.101678 0.339416 0.162548
O O6 0.132514 0.575529 0.068930
O O7 0.000000 0.500000 0.109830
O O8 0.210758 0.716756 0.536312
O O9 0.178267 0.792809 0.720391
O O10 0.082232 0.735350 0.613328
O O11 0.307650 0.345397 0.604293
O O12 0.265899 0.097526 0.562468
O O13 0.568674 0.429982 0.304394
O O14 0.976319 0.875599 0.682319
O O15 0.500000 0.345530 0.000000
#
# Coordination Sequence:
#
# PCOD9330746 Si02
#       8
#     8   8   8   8   8   4   4   8
#     4  11  22  38  61  93 128 167 215 270 333 395
#     4  10  20  43  70  94 120 167 227 278 320 385
#     4  10  21  40  61  85 130 170 215 269 327 394
#     4  11  23  39  60  93 132 173 213 267 341 402
#     4   9  22  41  62  93 131 168 219 270 326 399
#     4  10  21  40  60  90 129 172 208 274 323 391
#     4  10  25  42  64  93 132 172 224 272 330 399
#     4  11  21  36  59  93 123 165 216 264 329 400
#
# _framework density 21.630558000000001
#
# number of rings (size 3 to 8) (size 9 to 14) (size 15 to 20)
#    0.000    1.714    1.429    3.857    2.000    2.857 
#    5.143    4.286    0.000    0.000    0.000    4.000 
#    0.000    0.000    0.000    0.000    0.000    0.000 
#
# Total GULP energy -156031.317703 kJ/mol
# GULP energy per Si atom -5572.547061 kJ/mol
# Density = 2.158133 g / cm^3
# Si number density = 21.630558 Si / 1000 Ang^3
#
#
#
# Elastic Constant Matrix: (Units=GPa)
#
#
# Indices 1 2 3 4 5 6 
#
# 1 116.3222 38.0859 51.6810 0.0000 0.0000 0.0000
# 2 38.0859 45.5463 20.4104 0.0000 0.0000 0.0000
# 3 51.6810 20.4104 72.8309 0.0000 0.0000 0.0000
# 4 0.0000 0.0000 0.0000 34.0445 0.0000 0.0000
# 5 0.0000 0.0000 0.0000 0.0000 48.8709 0.0000
# 6 0.0000 0.0000 0.0000 0.0000 0.0000 96.2862
#
#
#
# Elastic Compliance Matrix: (Units=1/GPa)
#
#
# Indices 1 2 3 4 5 6 
#
# 1 0.015230 -0.009026 -0.008278 0.000000 0.000000 0.000000
# 2 -0.009026 0.030458 -0.002131 0.000000 0.000000 0.000000
# 3 -0.008278 -0.002131 0.020201 0.000000 0.000000 0.000000
# 4 0.000000 0.000000 0.000000 0.029373 0.000000 0.000000
# 5 0.000000 0.000000 0.000000 0.000000 0.020462 0.000000
# 6 0.000000 0.000000 0.000000 0.000000 0.000000 0.010386
#
#
# Mechanical properties :
#
#
# Convention : Reuss Voigt Hill
#
# Bulk Modulus (GPa) = 37.00900 50.56154 43.78527
# Shear Modulus (GPa) = 28.73805 44.14180 36.43992
#
# Velocity S-wave (km/s) = 3.64893 4.52233 4.10890
# Velocity P-wave (km/s) = 5.90759 7.12000 6.54194
#
# Compressibility (1/GPa) = 0.02702045
#
# Stress axis : x y z
#
# Youngs Moduli (GPa) = 65.66140 32.83222 49.50145
#
# Poissons Ratio (x) = 0.29633 0.40975
# Poissons Ratio (y) = 0.59264 0.10549
# Poissons Ratio (z) = 0.54352 0.06996
#
# Static dielectric constant tensor:
#      x y z
#    x 1.787480 0.000000 0.000000 
#    y 0.000000 1.852190 0.000000 
#    z 0.000000 0.000000 1.875740 
# 
# From -- ./inp_files/22437.got.cif
#   From: 2010.05.17/outbox.cif.g08.bks.cpg/sg23_12_cif.got.tgz:22437.got - 2010.06.04 12:02:01.
