data_PCOD9330181
_publ_section_title
;
Structure prediction by ZEFSAII (Michael W. Deem and Ramdas Pophale) SiO2 
 PCOD9330181
Probable space group: I 2 2 2
;
_chemical_formula_sum "Si O2"
_cell_formula_units_Z 46
_cell_length_a 10.871308
_cell_length_b 26.849632
_cell_length_c 7.193257
_cell_angle_alpha 90.000000
_cell_angle_beta 90.000000
_cell_angle_gamma 90.000000
_cell_volume 2099.644239
_symmetry_space_group_name_H-M "I 2 2 2"
_symmetry_group_IT_number 23
_symmetry_cell_setting 'orthorhombic'
loop_
_space_group_symop_operation_xyz
x,y,z
-x,-y,z
x,-y,-z
-x,y,-z
1/2+x,1/2+y,1/2+z
1/2-x,1/2-y,1/2+z
1/2+x,1/2-y,1/2-z
1/2-x,1/2+y,1/2-z
loop_
_atom_site_type_symbol
_atom_site_label
_atom_site_fract_x
_atom_site_fract_y
_atom_site_fract_z
Si Si1 0.760732 0.161897 0.117426
Si Si2 0.863160 0.836961 0.300947
Si Si3 0.102547 0.352887 0.846498
Si Si4 0.047398 0.239835 0.786401
Si Si5 0.000000 0.000000 0.500000
Si Si6 0.441623 0.578561 0.704044
Si Si7 0.000000 0.362558 0.500000
O O1 0.831506 0.205283 0.228519
O O2 0.815894 0.108682 0.175542
O O3 0.614494 0.163022 0.110007
O O4 0.808857 0.167469 0.906585
O O5 0.742924 0.852293 0.416937
O O6 0.936889 0.785518 0.330489
O O7 0.963061 0.880709 0.288876
O O8 0.084983 0.296694 0.764894
O O9 0.073907 0.388078 0.669802
O O10 0.000000 0.361322 0.000000
O O11 0.000000 0.236862 0.000000
O O12 0.071948 0.035077 0.645852
O O13 0.500000 0.564780 0.500000
#
# Coordination Sequence:
#
# PCOD9330181 Si02
#       7
#     8   8   8   8   2   8   4
#     4   8  16  33  53  73 108 145 182 225 283 330
#     4   8  16  33  52  71 108 153 186 222 289 337
#     4  10  20  31  48  74 106 149 194 242 278 319
#     4   8  15  29  48  70 103 147 189 236 275 317
#     4  12  22  32  62  98 110 124 194 226 280 376
#     4   9  19  37  57  81 113 146 171 232 294 341
#     4  10  20  32  49  78  99 142 198 228 258 348
#
# _framework density 21.908472
#
# number of rings (size 3 to 8) (size 9 to 14) (size 15 to 20)
#    0.000    3.130    0.000    2.348    2.435    1.391 
#    0.000    3.478    0.000    0.000    0.000   40.783 
#    0.000    0.000    0.000    0.000    0.000    0.000 
#
# Total GULP energy -128152.136513 kJ/mol
# GULP energy per Si atom -5571.832022 kJ/mol
# Density = 2.185861 g / cm^3
# Si number density = 21.908472 Si / 1000 Ang^3
#
#
#
# Elastic Constant Matrix: (Units=GPa)
#
#
# Indices 1 2 3 4 5 6 
#
# 1 144.0415 18.2139 22.3041 0.0005 0.0001 -0.0001
# 2 18.2139 51.4131 21.3015 -0.0004 -0.0002 0.0000
# 3 22.3041 21.3015 102.0989 0.0020 0.0020 0.0012
# 4 0.0005 -0.0004 0.0020 22.5840 -0.0005 0.0006
# 5 0.0001 -0.0002 0.0020 -0.0005 41.1711 0.0000
# 6 -0.0001 0.0000 0.0012 0.0006 0.0000 4.1419
#
#
#
# Elastic Compliance Matrix: (Units=1/GPa)
#
#
# Indices 1 2 3 4 5 6 
#
# 1 0.007393 -0.002135 -0.001170 0.000000 0.000000 0.000001
# 2 -0.002135 0.021907 -0.004104 0.000001 0.000000 0.000001
# 3 -0.001170 -0.004104 0.010906 -0.000001 -0.000001 -0.000003
# 4 0.000000 0.000001 -0.000001 0.044279 0.000000 -0.000006
# 5 0.000000 0.000000 -0.000001 0.000000 0.024289 0.000000
# 6 0.000001 0.000001 -0.000003 -0.000006 0.000000 0.241435
#
#
# Mechanical properties :
#
#
# Convention : Reuss Voigt Hill
#
# Bulk Modulus (GPa) = 39.38646 46.79916 43.09281
# Shear Modulus (GPa) = 13.38724 29.29502 21.34113
#
# Velocity S-wave (km/s) = 2.47463 3.66068 3.12445
# Velocity P-wave (km/s) = 5.11682 6.26698 5.72088
#
# Compressibility (1/GPa) = 0.02538944
#
# Stress axis : x y z
#
# Youngs Moduli (GPa) = 135.25399 45.64758 91.69044
#
# Poissons Ratio (x) = 0.09744 0.10726
# Poissons Ratio (y) = 0.28871 0.37632
# Poissons Ratio (z) = 0.15822 0.18735
#
# Static dielectric constant tensor:
#      x y z
#    x 1.860200 0.000000 0.000000 
#    y 0.000000 1.822970 0.000000 
#    z 0.000000 0.000000 1.922560 
# 
# From -- ./inp_files/8773.got.cif
#   From: 2010.05.17/outbox.cif.g08.bks.cpg/sg23_5_cif.got.tgz:8773.got - 2010.06.04 12:02:01.
