data_PCOD9330005
_publ_section_title
;
Structure prediction by ZEFSAII (Michael W. Deem and Ramdas Pophale) SiO2 
 PCOD9330005
Probable space group: I 2 2 2
;
_chemical_formula_sum "Si O2"
_cell_formula_units_Z 36
_cell_length_a 8.812201
_cell_length_b 10.234447
_cell_length_c 18.521404
_cell_angle_alpha 90.000000
_cell_angle_beta 90.000000
_cell_angle_gamma 90.000000
_cell_volume 1670.408460
_symmetry_space_group_name_H-M "I 2 2 2"
_symmetry_group_IT_number 23
_symmetry_cell_setting 'orthorhombic'
loop_
_space_group_symop_operation_xyz
x,y,z
-x,-y,z
x,-y,-z
-x,y,-z
1/2+x,1/2+y,1/2+z
1/2-x,1/2-y,1/2+z
1/2+x,1/2-y,1/2-z
1/2-x,1/2+y,1/2-z
loop_
_atom_site_type_symbol
_atom_site_label
_atom_site_fract_x
_atom_site_fract_y
_atom_site_fract_z
Si Si1 0.232955 0.086959 0.190704
Si Si2 0.341042 0.576492 0.567800
Si Si3 0.217873 0.361034 0.123669
Si Si4 0.000000 0.500000 0.234541
Si Si5 0.000000 0.000000 0.688627
Si Si6 0.000000 0.681418 0.000000
O O1 0.208334 0.206045 0.136405
O O2 0.236081 0.952505 0.144040
O O3 0.400706 0.102393 0.221569
O O4 0.109317 0.078665 0.254824
O O5 0.500000 0.500000 0.576745
O O6 0.264582 0.500000 0.500000
O O7 0.390549 0.722382 0.547692
O O8 0.121018 0.425262 0.186965
O O9 0.387003 0.415896 0.137489
O O10 0.120491 0.389485 0.051884
#
# Coordination Sequence:
#
# PCOD9330005 Si02
#       6
#     8   8   8   4   4   4
#     4  11  18  38  62  89 127 154 195 260 308 353
#     4   9  15  30  60  98 113 146 192 242 302 370
#     4  11  21  39  61  87 121 167 201 252 298 355
#     4  10  26  35  57  94 120 158 210 238 304 376
#     4  10  22  34  59  95 124 156 208 244 300 374
#     4  10  19  35  68  92 118 157 200 241 312 362
#
# _framework density 21.551615000000002
#
# number of rings (size 3 to 8) (size 9 to 14) (size 15 to 20)
#    0.000    2.000    5.556    1.333    0.000    2.222 
#    0.000    0.556    0.000   18.667    0.000    0.000 
#    0.000    0.000    0.000    0.000    0.000    0.000 
#
# Total GULP energy -100294.890427 kJ/mol
# GULP energy per Si atom -5571.938357 kJ/mol
# Density = 2.150256 g / cm^3
# Si number density = 21.551615 Si / 1000 Ang^3
#
#
#
# Elastic Constant Matrix: (Units=GPa)
#
#
# Indices 1 2 3 4 5 6 
#
# 1 122.1566 29.1056 51.3441 0.0000 0.0000 0.0000
# 2 29.1056 47.2702 29.2179 0.0000 0.0000 0.0000
# 3 51.3441 29.2179 99.8142 0.0000 0.0000 0.0000
# 4 0.0000 0.0000 0.0000 31.8183 0.0000 0.0000
# 5 0.0000 0.0000 0.0000 0.0000 13.5010 0.0000
# 6 0.0000 0.0000 0.0000 0.0000 0.0000 17.4028
#
#
#
# Elastic Compliance Matrix: (Units=1/GPa)
#
#
# Indices 1 2 3 4 5 6 
#
# 1 0.011034 -0.004012 -0.004502 0.000000 0.000000 0.000000
# 2 -0.004012 0.027287 -0.005924 0.000000 0.000000 0.000000
# 3 -0.004502 -0.005924 0.014068 0.000000 0.000000 0.000000
# 4 0.000000 0.000000 0.000000 0.031428 0.000000 0.000000
# 5 0.000000 0.000000 0.000000 0.000000 0.074068 0.000000
# 6 0.000000 0.000000 0.000000 0.000000 0.000000 0.057462
#
#
# Mechanical properties :
#
#
# Convention : Reuss Voigt Hill
#
# Bulk Modulus (GPa) = 42.52628 54.28625 48.40627
# Shear Modulus (GPa) = 19.83653 23.18266 21.50959
#
# Velocity S-wave (km/s) = 3.03713 3.28332 3.16262
# Velocity P-wave (km/s) = 5.66339 6.29422 5.98712
#
# Compressibility (1/GPa) = 0.02351487
#
# Stress axis : x y z
#
# Youngs Moduli (GPa) = 90.62788 36.64799 71.08169
#
# Poissons Ratio (x) = 0.14702 0.31998
# Poissons Ratio (y) = 0.36356 0.42108
# Poissons Ratio (z) = 0.40798 0.21710
#
# Static dielectric constant tensor:
#      x y z
#    x 1.768510 0.000000 0.000000 
#    y 0.000000 1.965620 0.000000 
#    z 0.000000 0.000000 1.886170 
# 
# From -- ./inp_files/11769.got.cif
#   From: 2010.05.17/outbox.cif.g08.bks.cpg/sg23_6_cif.got.tgz:11769.got - 2010.06.04 12:02:01.
