data_PCOD9330583
_publ_section_title
;
Structure prediction by ZEFSAII (Michael W. Deem and Ramdas Pophale) SiO2 
 PCOD9330583
Probable space group: I 2 2 2
;
_chemical_formula_sum "Si O2"
_cell_formula_units_Z 34
_cell_length_a 9.423015
_cell_length_b 18.402325
_cell_length_c 8.067851
_cell_angle_alpha 90.000000
_cell_angle_beta 90.000000
_cell_angle_gamma 90.000000
_cell_volume 1399.008805
_symmetry_space_group_name_H-M "I 2 2 2"
_symmetry_group_IT_number 23
_symmetry_cell_setting 'orthorhombic'
loop_
_space_group_symop_operation_xyz
x,y,z
-x,-y,z
x,-y,-z
-x,y,-z
1/2+x,1/2+y,1/2+z
1/2-x,1/2-y,1/2+z
1/2+x,1/2-y,1/2-z
1/2-x,1/2+y,1/2-z
loop_
_atom_site_type_symbol
_atom_site_label
_atom_site_fract_x
_atom_site_fract_y
_atom_site_fract_z
Si Si1 0.255314 0.500000 0.500000
Si Si2 0.642880 0.636791 0.835637
Si Si3 0.000000 0.000000 0.500000
Si Si4 0.000000 0.500000 0.250800
Si Si5 0.528535 0.157175 0.676946
Si Si6 0.500000 0.617526 0.500000
Si Si7 0.500000 0.752974 0.000000
O O1 0.142382 0.514417 0.355595
O O2 0.361851 0.566665 0.534140
O O3 0.596055 0.555758 0.892500
O O4 0.804817 0.648045 0.793305
O O5 0.545120 0.654421 0.674290
O O6 0.624053 0.692909 0.989122
O O7 0.964699 0.576068 0.165281
O O8 0.500000 0.193618 0.500000
O O9 0.476415 0.197625 0.840609
#
# Coordination Sequence:
#
# PCOD9330583 Si02
#       7
#     4   8   2   4   8   4   4
#     4  10  20  38  72 114 158 192 248 330 392 460
#     4  11  27  48  80 110 159 205 265 327 388 474
#     4  10  24  50  70 118 148 196 260 320 394 456
#     4  11  23  44  74 115 153 200 263 327 394 467
#     4  12  29  49  79 114 156 209 258 326 401 469
#     4  11  22  40  74 114 148 205 256 316 396 457
#     4  11  30  52  72 115 152 208 258 325 388 482
#
# _framework density 24.302918999999999
#
# number of rings (size 3 to 8) (size 9 to 14) (size 15 to 20)
#    0.000    0.941    2.353    3.176    8.235    1.882 
#    0.000    0.000    0.000    0.000    0.000    0.000 
#    0.000    0.000    0.000    0.000    0.000    0.000 
#
# Total GULP energy -94851.355636 kJ/mol
# GULP energy per Si atom -5579.491508 kJ/mol
# Density = 2.424760 g / cm^3
# Si number density = 24.302919 Si / 1000 Ang^3
#
#
#
# Elastic Constant Matrix: (Units=GPa)
#
#
# Indices 1 2 3 4 5 6 
#
# 1 93.0206 -10.3139 3.7588 0.0000 0.0000 0.0000
# 2 -10.3139 111.9459 48.4975 0.0000 0.0000 0.0000
# 3 3.7588 48.4975 146.8747 -0.0023 -0.0001 0.0003
# 4 0.0000 0.0000 -0.0023 137.9076 0.0007 -0.0003
# 5 0.0000 0.0000 -0.0001 0.0007 20.7633 -0.0001
# 6 0.0000 0.0000 0.0003 -0.0003 -0.0001 -13.0620
#
#
#
# Elastic Compliance Matrix: (Units=1/GPa)
#
#
# Indices 1 2 3 4 5 6 
#
# 1 0.010925 0.001316 -0.000714 0.000000 0.000000 0.000000
# 2 0.001316 0.010583 -0.003528 0.000000 0.000000 0.000000
# 3 -0.000714 -0.003528 0.007992 0.000000 0.000000 0.000000
# 4 0.000000 0.000000 0.000000 0.007251 0.000000 0.000000
# 5 0.000000 0.000000 0.000000 0.000000 0.048162 0.000000
# 6 0.000000 0.000000 0.000000 0.000000 0.000000 -0.076558
#
#
# Mechanical properties :
#
#
# Convention : Reuss Voigt Hill
#
# Bulk Modulus (GPa) = 42.28868 48.41399 45.35134
# Shear Modulus (GPa) = 226.35652 49.78172 138.06912
#
# Velocity S-wave (km/s) = 9.66136 4.53082 7.54553
# Velocity P-wave (km/s) = 11.91194 6.88007 9.72701
#
# Compressibility (1/GPa) = 0.02364699
#
# Stress axis : x y z
#
# Youngs Moduli (GPa) = 91.53263 94.49531 125.12935
#
# Poissons Ratio (x) = -0.12435 0.08936
# Poissons Ratio (y) = -0.12045 0.44146
# Poissons Ratio (z) = 0.06536 0.33338
#
# Static dielectric constant tensor:
#      x y z
#    x 1.836770 0.000000 0.000000 
#    y 0.000000 1.998180 0.000000 
#    z 0.000000 0.000000 2.041840 
# 
# From -- ./inp_files/6764.got.cif
#   From: 2010.05.17/outbox.cif.g08.bks.cpg/sg23_4_cif.got.tgz:6764.got - 2010.06.04 12:02:01.
