data_PCOD9330314
_publ_section_title
;
Structure prediction by ZEFSAII (Michael W. Deem and Ramdas Pophale) SiO2 
 PCOD9330314
Probable space group: I 2 2 2
;
_chemical_formula_sum "Si O2"
_cell_formula_units_Z 56
_cell_length_a 19.089551
_cell_length_b 17.772506
_cell_length_c 7.408422
_cell_angle_alpha 90.000000
_cell_angle_beta 90.000000
_cell_angle_gamma 90.000000
_cell_volume 2513.449107
_symmetry_space_group_name_H-M "I 2 2 2"
_symmetry_group_IT_number 23
_symmetry_cell_setting 'orthorhombic'
loop_
_space_group_symop_operation_xyz
x,y,z
-x,-y,z
x,-y,-z
-x,y,-z
1/2+x,1/2+y,1/2+z
1/2-x,1/2-y,1/2+z
1/2+x,1/2-y,1/2-z
1/2-x,1/2+y,1/2-z
loop_
_atom_site_type_symbol
_atom_site_label
_atom_site_fract_x
_atom_site_fract_y
_atom_site_fract_z
Si Si1 0.331141 0.146365 0.220368
Si Si2 0.668859 0.853634 0.779637
Si Si3 0.183462 0.085759 0.216488
Si Si4 0.183461 0.085760 0.783517
Si Si5 0.078950 0.786566 0.285399
Si Si6 0.421049 0.713433 0.214597
Si Si7 0.919730 0.500001 0.280329
O O1 0.251954 0.131127 0.282132
O O2 0.368419 0.222295 0.284740
O O3 0.378076 0.074661 0.273435
O O4 0.329636 0.148333 0.000002
O O5 0.748047 0.868871 0.717873
O O6 0.631583 0.777703 0.715265
O O7 0.621923 0.925337 0.726567
O O8 0.114234 0.132749 0.257529
O O9 0.183357 0.999999 0.283757
O O10 0.189585 0.081720 0.000002
O O11 0.114234 0.132751 0.742478
O O12 0.074366 0.774180 0.499998
O O13 0.999999 0.781020 0.213294
O O14 0.920647 0.500000 0.500000
O O15 0.000000 0.500000 0.219500
#
# Coordination Sequence:
#
# PCOD9330314 Si02
#       7
#     8   8   8   8   8   8   8
#     4   9  16  30  50  75 105 133 166 208 255 306
#     4   9  16  30  50  75 105 133 166 208 255 306
#     4  10  20  35  55  77 102 135 175 214 252 302
#     4  10  20  35  55  77 102 135 175 214 252 302
#     4  10  21  35  52  77 107 136 169 212 259 305
#     4  10  21  35  52  77 107 136 169 212 259 305
#     4   9  14  22  44  76 106 133 160 200 255 307
#
# _framework density 22.280142000000001
#
# number of rings (size 3 to 8) (size 9 to 14) (size 15 to 20)
#    0.000    2.429    1.429    1.714    0.000    5.143 
#    0.000    2.857    0.000    0.000    0.000    0.000 
#    0.000    4.571    0.000    0.000    0.000    0.000 
#
# Total GULP energy -156491.059164 kJ/mol
# GULP energy per Si atom -5588.966399 kJ/mol
# Density = 2.222943 g / cm^3
# Si number density = 22.280142 Si / 1000 Ang^3
#
#
#
# Elastic Constant Matrix: (Units=GPa)
#
#
# Indices 1 2 3 4 5 6 
#
# 1 89.8070 79.7291 -1.7554 0.0000 0.0000 0.0000
# 2 79.7291 139.8914 0.2820 0.0000 0.0000 0.0000
# 3 -1.7554 0.2820 74.3421 0.0000 0.0000 0.0000
# 4 0.0000 0.0000 0.0000 9.8083 0.0000 0.0000
# 5 0.0000 0.0000 0.0000 0.0000 9.1952 0.0000
# 6 0.0000 0.0000 0.0000 0.0000 0.0000 75.8272
#
#
#
# Elastic Compliance Matrix: (Units=1/GPa)
#
#
# Indices 1 2 3 4 5 6 
#
# 1 0.022565 -0.012862 0.000582 0.000000 0.000000 0.000000
# 2 -0.012862 0.014479 -0.000359 0.000000 0.000000 0.000000
# 3 0.000582 -0.000359 0.013466 0.000000 0.000000 0.000000
# 4 0.000000 0.000000 0.000000 0.101954 0.000000 0.000000
# 5 0.000000 0.000000 0.000000 0.000000 0.108753 0.000000
# 6 0.000000 0.000000 0.000000 0.000000 0.000000 0.013188
#
#
# Mechanical properties :
#
#
# Convention : Reuss Voigt Hill
#
# Bulk Modulus (GPa) = 39.63022 51.17242 45.40132
# Shear Modulus (GPa) = 16.22885 34.01847 25.12366
#
# Velocity S-wave (km/s) = 2.70182 3.91173 3.36166
# Velocity P-wave (km/s) = 5.24966 6.58937 5.95730
#
# Compressibility (1/GPa) = 0.02523327
#
# Stress axis : x y z
#
# Youngs Moduli (GPa) = 44.31715 69.06371 74.25882
#
# Poissons Ratio (x) = 0.88827 -0.04319
# Poissons Ratio (y) = 0.56999 0.02663
# Poissons Ratio (z) = -0.02577 0.02477
#
# Static dielectric constant tensor:
#      x y z
#    x 1.784160 0.000000 0.000000 
#    y 0.000000 1.775950 0.000000 
#    z 0.000000 0.000000 1.898740 
# 
# From -- ./inp_files/17629.got.cif
#   From: 2010.05.17/outbox.cif.g08.bks.cpg/sg23_9_cif.got.tgz:17629.got - 2010.06.04 12:02:01.
