data_PCOD9330726
_publ_section_title
;
Structure prediction by ZEFSAII (Michael W. Deem and Ramdas Pophale) SiO2 
 PCOD9330726
Probable space group: I 2 2 2
;
_chemical_formula_sum "Si O2"
_cell_formula_units_Z 48
_cell_length_a 8.339439
_cell_length_b 31.407779
_cell_length_c 7.793758
_cell_angle_alpha 90.000000
_cell_angle_beta 90.000000
_cell_angle_gamma 90.000000
_cell_volume 2041.366480
_symmetry_space_group_name_H-M "I 2 2 2"
_symmetry_group_IT_number 23
_symmetry_cell_setting 'orthorhombic'
loop_
_space_group_symop_operation_xyz
x,y,z
-x,-y,z
x,-y,-z
-x,y,-z
1/2+x,1/2+y,1/2+z
1/2-x,1/2-y,1/2+z
1/2+x,1/2-y,1/2-z
1/2-x,1/2+y,1/2-z
loop_
_atom_site_type_symbol
_atom_site_label
_atom_site_fract_x
_atom_site_fract_y
_atom_site_fract_z
Si Si1 0.500000 0.500000 0.500000
Si Si2 0.500000 0.143305 0.500000
Si Si3 0.915446 0.568088 0.749522
Si Si4 0.500000 0.000000 0.500000
Si Si5 0.745575 0.433125 0.599606
Si Si6 0.695310 0.692536 0.882860
Si Si7 0.411326 0.348159 0.318145
Si Si8 0.324165 0.788179 0.996211
O O1 0.614413 0.469588 0.609229
O O2 0.462080 0.112078 0.341259
O O3 0.336399 0.170939 0.496043
O O4 0.886717 0.531962 0.891118
O O5 0.782242 0.575363 0.603624
O O6 0.082385 0.552685 0.666725
O O7 0.685938 0.391809 0.702299
O O8 0.538250 0.664968 0.827663
O O9 0.663839 0.738317 0.965744
O O10 0.762495 0.703382 0.693875
O O11 0.500000 0.355605 0.500000
O O12 0.291965 0.309677 0.365036
O O13 0.500000 0.808358 0.000000
#
# Coordination Sequence:
#
# PCOD9330726 Si02
#       8
#     2   4   8   2   8   8   8   8
#     4  12  24  38  74 106 146 170 226 302 380 442
#     4  11  26  43  73  98 142 194 247 301 378 443
#     4  10  23  43  72 100 137 189 242 296 360 453
#     4  10  20  42  64  98 146 170 232 290 352 428
#     4  11  23  43  73 107 135 186 242 301 370 445
#     4  11  26  44  68 103 144 192 249 313 371 446
#     4  10  22  42  66 100 145 179 243 311 362 434
#     4  11  25  41  70  99 141 194 244 306 376 442
#
# _framework density 23.513663000000001
#
# number of rings (size 3 to 8) (size 9 to 14) (size 15 to 20)
#    0.000    1.333    0.833    4.000   10.500    2.667 
#    0.000    0.000    0.000    5.500    0.000    0.000 
#    0.000    0.000    0.000    0.000    0.000    0.000 
#
# Total GULP energy -134212.713120 kJ/mol
# GULP energy per Si atom -5592.196380 kJ/mol
# Density = 2.346015 g / cm^3
# Si number density = 23.513663 Si / 1000 Ang^3
#
#
#
# Elastic Constant Matrix: (Units=GPa)
#
#
# Indices 1 2 3 4 5 6 
#
# 1 134.4748 58.0237 33.2680 0.0002 0.0000 0.0000
# 2 58.0237 134.8980 31.5780 -0.0004 -0.0002 -0.0001
# 3 33.2680 31.5780 111.9655 0.0003 -0.0003 -0.0003
# 4 0.0002 -0.0004 0.0003 30.0430 -0.0003 -0.0003
# 5 0.0000 -0.0002 -0.0003 -0.0003 37.1225 0.0000
# 6 0.0000 -0.0001 -0.0003 -0.0003 0.0000 36.9244
#
#
#
# Elastic Compliance Matrix: (Units=1/GPa)
#
#
# Indices 1 2 3 4 5 6 
#
# 1 0.009451 -0.003649 -0.001779 0.000000 0.000000 0.000000
# 2 -0.003649 0.009346 -0.001552 0.000000 0.000000 0.000000
# 3 -0.001779 -0.001552 0.009898 0.000000 0.000000 0.000000
# 4 0.000000 0.000000 0.000000 0.033286 0.000000 0.000000
# 5 0.000000 0.000000 0.000000 0.000000 0.026938 0.000000
# 6 0.000000 0.000000 0.000000 0.000000 0.000000 0.027082
#
#
# Mechanical properties :
#
#
# Convention : Reuss Voigt Hill
#
# Bulk Modulus (GPa) = 67.86437 69.67528 68.76982
# Shear Modulus (GPa) = 37.07270 38.04924 37.56097
#
# Velocity S-wave (km/s) = 3.97501 4.02702 4.00110
# Velocity P-wave (km/s) = 7.07050 7.16370 7.11725
#
# Compressibility (1/GPa) = 0.01473527
#
# Stress axis : x y z
#
# Youngs Moduli (GPa) = 105.81139 107.00207 101.03511
#
# Poissons Ratio (x) = 0.39041 0.17975
# Poissons Ratio (y) = 0.38606 0.15677
# Poissons Ratio (z) = 0.18824 0.16603
#
# Static dielectric constant tensor:
#      x y z
#    x 1.952820 0.000000 0.000000 
#    y 0.000000 1.869820 0.000000 
#    z 0.000000 0.000000 1.936290 
# 
# From -- ./inp_files/7428.got.cif
#   From: 2010.05.17/outbox.cif.g08.bks.cpg/sg23_4_cif.got.tgz:7428.got - 2010.06.04 12:02:01.
