data_PCOD9330277
_publ_section_title
;
Structure prediction by ZEFSAII (Michael W. Deem and Ramdas Pophale) SiO2 
 PCOD9330277
Probable space group: I 2 2 2
;
_chemical_formula_sum "Si O2"
_cell_formula_units_Z 32
_cell_length_a 7.877586
_cell_length_b 5.014948
_cell_length_c 37.397617
_cell_angle_alpha 90.000000
_cell_angle_beta 90.000000
_cell_angle_gamma 90.000000
_cell_volume 1477.418445
_symmetry_space_group_name_H-M "I 2 2 2"
_symmetry_group_IT_number 23
_symmetry_cell_setting 'orthorhombic'
loop_
_space_group_symop_operation_xyz
x,y,z
-x,-y,z
x,-y,-z
-x,y,-z
1/2+x,1/2+y,1/2+z
1/2-x,1/2-y,1/2+z
1/2+x,1/2-y,1/2-z
1/2-x,1/2+y,1/2-z
loop_
_atom_site_type_symbol
_atom_site_label
_atom_site_fract_x
_atom_site_fract_y
_atom_site_fract_z
Si Si1 0.181338 0.351727 0.232432
Si Si2 0.296109 0.501032 0.085669
Si Si3 0.207387 0.511743 0.459054
Si Si4 0.620700 0.246877 0.345251
O O1 0.305178 0.597889 0.241478
O O2 0.212552 0.224320 0.192977
O O3 0.000000 0.500000 0.235740
O O4 0.500000 0.500000 0.087979
O O5 0.240774 0.297413 0.055206
O O6 0.230828 0.365785 0.122058
O O7 0.240890 0.789249 0.070419
O O8 0.265463 0.500000 0.500000
O O9 0.000000 0.500000 0.459876
O O10 0.500000 0.500000 0.353215
O O11 0.500000 0.000000 0.337923
#
# Coordination Sequence:
#
# PCOD9330277 Si02
#       4
#     8   8   8   8
#     4  11  23  41  63  89 119 157 201 248 305 368
#     4  10  20  34  57  87 114 149 200 245 287 349
#     4   9  17  31  53  83 117 149 188 245 302 345
#     4  11  23  41  60  83 120 160 193 238 307 370
#
# _framework density 21.659403000000001
#
# number of rings (size 3 to 8) (size 9 to 14) (size 15 to 20)
#    0.000    1.750    0.000    6.000    0.000    5.000 
#    0.000    2.500    0.000   11.250    0.000    0.000 
#    0.000    0.000    0.000    0.000    0.000    0.000 
#
# Total GULP energy -89158.221538 kJ/mol
# GULP energy per Si atom -5572.388846 kJ/mol
# Density = 2.161011 g / cm^3
# Si number density = 21.659403 Si / 1000 Ang^3
#
#
#
# Elastic Constant Matrix: (Units=GPa)
#
#
# Indices 1 2 3 4 5 6 
#
# 1 37.3825 29.2264 39.6791 0.0000 0.0000 0.0000
# 2 29.2264 131.3560 29.1140 0.0000 0.0000 0.0000
# 3 39.6791 29.1140 136.2294 0.0000 0.0000 0.0000
# 4 0.0000 0.0000 0.0000 32.2355 0.0000 0.0000
# 5 0.0000 0.0000 0.0000 0.0000 4.7300 0.0000
# 6 0.0000 0.0000 0.0000 0.0000 0.0000 28.0015
#
#
#
# Elastic Compliance Matrix: (Units=1/GPa)
#
#
# Indices 1 2 3 4 5 6 
#
# 1 0.044672 -0.007406 -0.011429 0.000000 0.000000 0.000000
# 2 -0.007406 0.009219 0.000187 0.000000 0.000000 0.000000
# 3 -0.011429 0.000187 0.010629 0.000000 0.000000 0.000000
# 4 0.000000 0.000000 0.000000 0.031022 0.000000 0.000000
# 5 0.000000 0.000000 0.000000 0.000000 0.211415 0.000000
# 6 0.000000 0.000000 0.000000 0.000000 0.000000 0.035712
#
#
# Mechanical properties :
#
#
# Convention : Reuss Voigt Hill
#
# Bulk Modulus (GPa) = 36.73168 55.66745 46.19956
# Shear Modulus (GPa) = 12.85214 26.78997 19.82106
#
# Velocity S-wave (km/s) = 2.43857 3.52074 3.02838
# Velocity P-wave (km/s) = 4.99244 6.50266 5.79694
#
# Compressibility (1/GPa) = 0.02722446
#
# Stress axis : x y z
#
# Youngs Moduli (GPa) = 22.38564 108.46747 94.07905
#
# Poissons Ratio (x) = 0.80334 1.07518
# Poissons Ratio (y) = 0.16579 -0.01758
# Poissons Ratio (z) = 0.25583 -0.02027
#
# Static dielectric constant tensor:
#      x y z
#    x 1.910610 0.000000 0.000000 
#    y 0.000000 1.754960 0.000000 
#    z 0.000000 0.000000 1.920420 
# 
# From -- ./inp_files/732.got.cif
#   From: 2010.05.17/outbox.cif.g08.bks.cpg/sg23_1_cif.got.tgz:732.got - 2010.06.04 12:02:01.
