data_PCOD9330905
_publ_section_title
;
Structure prediction by ZEFSAII (Michael W. Deem and Ramdas Pophale) SiO2 
 PCOD9330905
Probable space group: I 2 2 2
;
_chemical_formula_sum "Si O2"
_cell_formula_units_Z 54
_cell_length_a 15.755990
_cell_length_b 22.427340
_cell_length_c 6.836177
_cell_angle_alpha 90.000000
_cell_angle_beta 90.000000
_cell_angle_gamma 90.000000
_cell_volume 2415.665308
_symmetry_space_group_name_H-M "I 2 2 2"
_symmetry_group_IT_number 23
_symmetry_cell_setting 'orthorhombic'
loop_
_space_group_symop_operation_xyz
x,y,z
-x,-y,z
x,-y,-z
-x,y,-z
1/2+x,1/2+y,1/2+z
1/2-x,1/2-y,1/2+z
1/2+x,1/2-y,1/2-z
1/2-x,1/2+y,1/2-z
loop_
_atom_site_type_symbol
_atom_site_label
_atom_site_fract_x
_atom_site_fract_y
_atom_site_fract_z
Si Si1 0.178333 0.680943 0.328793
Si Si2 0.917557 0.703225 0.064374
Si Si3 0.841729 0.000000 0.000000
Si Si4 0.000000 0.500000 0.500000
Si Si5 0.153347 0.892630 0.729822
Si Si6 0.903071 0.392633 0.671317
Si Si7 0.255602 0.050941 0.624052
Si Si8 0.595504 0.274131 0.069737
O O1 0.267807 0.645621 0.322271
O O2 0.119025 0.640325 0.469806
O O3 0.163282 0.748107 0.413586
O O4 0.142138 0.685724 0.111288
O O5 0.958198 0.648270 0.186899
O O6 0.874312 0.740237 0.234716
O O7 0.000000 0.740413 0.000000
O O8 0.786314 0.025654 0.178919
O O9 0.881240 0.941330 0.111709
O O10 0.057884 0.543740 0.626967
O O11 0.189730 0.926660 0.538361
O O12 0.093648 0.842728 0.634414
O O13 0.817843 0.399321 0.796461
O O14 0.304594 0.000000 0.500000
O O15 0.500000 0.257545 0.000000
#
# Coordination Sequence:
#
# PCOD9330905 Si02
#       8
#     8   8   4   2   8   8   8   8
#     4  11  23  40  63  93 138 178 229 282 331 412
#     4  11  22  41  61  87 133 182 215 275 349 393
#     4  10  21  44  64  98 135 166 218 292 332 401
#     4  12  26  32  58  88 134 190 226 272 320 410
#     4  11  24  41  72 100 133 180 229 283 350 416
#     4  11  23  38  55  89 132 180 232 275 318 395
#     4  10  21  37  62  89 126 170 219 280 330 381
#     4  11  26  44  66 102 140 174 223 295 350 414
#
# _framework density 22.354088999999998
#
# number of rings (size 3 to 8) (size 9 to 14) (size 15 to 20)
#    0.000    1.185    4.444    1.333    6.222    2.370 
#    0.000    0.741    0.000    4.889    0.000    0.000 
#    0.000    0.000    0.000    0.000    0.000    0.000 
#
# Total GULP energy -150418.882149 kJ/mol
# GULP energy per Si atom -5571.069709 kJ/mol
# Density = 2.230321 g / cm^3
# Si number density = 22.354089 Si / 1000 Ang^3
#
#
#
# Elastic Constant Matrix: (Units=GPa)
#
#
# Indices 1 2 3 4 5 6 
#
# 1 16.2826 9.8692 14.6599 0.0000 0.0000 0.0000
# 2 9.8692 110.0854 53.8527 0.0000 0.0000 0.0000
# 3 14.6599 53.8527 155.0270 0.0000 0.0000 0.0000
# 4 0.0000 0.0000 0.0000 40.6776 0.0000 0.0000
# 5 0.0000 0.0000 0.0000 0.0000 14.9884 0.0000
# 6 0.0000 0.0000 0.0000 0.0000 0.0000 25.4019
#
#
#
# Elastic Compliance Matrix: (Units=1/GPa)
#
#
# Indices 1 2 3 4 5 6 
#
# 1 0.068275 -0.003569 -0.005217 0.000000 0.000000 0.000000
# 2 -0.003569 0.011130 -0.003529 0.000000 0.000000 0.000000
# 3 -0.005217 -0.003529 0.008170 0.000000 0.000000 0.000000
# 4 0.000000 0.000000 0.000000 0.024584 0.000000 0.000000
# 5 0.000000 0.000000 0.000000 0.000000 0.066718 0.000000
# 6 0.000000 0.000000 0.000000 0.000000 0.000000 0.039367
#
#
# Mechanical properties :
#
#
# Convention : Reuss Voigt Hill
#
# Bulk Modulus (GPa) = 15.88663 48.68429 32.28546
# Shear Modulus (GPa) = 18.94982 29.74778 24.34880
#
# Velocity S-wave (km/s) = 2.91471 3.65191 3.30393
# Velocity P-wave (km/s) = 4.29530 6.29348 5.38783
#
# Compressibility (1/GPa) = 0.06294601
#
# Stress axis : x y z
#
# Youngs Moduli (GPa) = 14.64664 89.84654 122.40475
#
# Poissons Ratio (x) = 0.32066 0.63853
# Poissons Ratio (y) = 0.05227 0.43195
# Poissons Ratio (z) = 0.07640 0.31705
#
# Static dielectric constant tensor:
#      x y z
#    x 1.830110 0.000000 0.000000 
#    y 0.000000 1.957810 0.000000 
#    z 0.000000 0.000000 1.824980 
# 
# From -- ./inp_files/3954.got.cif
#   From: 2010.05.17/outbox.cif.g08.bks.cpg/sg23_2_cif.got.tgz:3954.got - 2010.06.04 12:02:01.
