data_PCOD9330239
_publ_section_title
;
Structure prediction by ZEFSAII (Michael W. Deem and Ramdas Pophale) SiO2 
 PCOD9330239
Probable space group: I 2 2 2
;
_chemical_formula_sum "Si O2"
_cell_formula_units_Z 36
_cell_length_a 5.709907
_cell_length_b 20.128426
_cell_length_c 17.365017
_cell_angle_alpha 90.000000
_cell_angle_beta 90.000000
_cell_angle_gamma 90.000000
_cell_volume 1995.786418
_symmetry_space_group_name_H-M "I 2 2 2"
_symmetry_group_IT_number 23
_symmetry_cell_setting 'orthorhombic'
loop_
_space_group_symop_operation_xyz
x,y,z
-x,-y,z
x,-y,-z
-x,y,-z
1/2+x,1/2+y,1/2+z
1/2-x,1/2-y,1/2+z
1/2+x,1/2-y,1/2-z
1/2-x,1/2+y,1/2-z
loop_
_atom_site_type_symbol
_atom_site_label
_atom_site_fract_x
_atom_site_fract_y
_atom_site_fract_z
Si Si1 0.500000 0.000000 0.766695
Si Si2 0.625921 0.359340 0.402019
Si Si3 0.559404 0.146455 0.748620
Si Si4 0.000000 0.000000 0.859495
Si Si5 0.238257 0.258723 0.350703
Si Si6 0.000000 0.703648 0.500000
O O1 0.498821 0.071438 0.724106
O O2 0.750012 0.997153 0.813181
O O3 0.786643 0.361886 0.325612
O O4 0.507035 0.431075 0.405541
O O5 0.457274 0.297792 0.385737
O O6 0.786523 0.343160 0.474632
O O7 0.694750 0.188301 0.684561
O O8 0.352713 0.194132 0.780788
O O9 0.060284 0.255729 0.422726
#
# Coordination Sequence:
#
# PCOD9330239 Si02
#       6
#     4   8   8   4   8   4
#     4  10  20  36  58  95 121 152 192 262 302 356
#     4  10  20  37  56  81 120 157 195 247 293 361
#     4  10  20  33  62  86 117 149 203 245 306 344
#     4  10  20  36  61  82 126 157 200 240 298 359
#     4  11  19  37  55  87 114 156 196 252 289 361
#     4  10  24  36  55  82 123 156 202 242 304 352
#
# _framework density 18.038003
#
# number of rings (size 3 to 8) (size 9 to 14) (size 15 to 20)
#    0.000    1.778    4.444    0.667    0.000    0.000 
#    0.000    3.333    0.000    0.000    0.000    4.667 
#    0.000    0.000    0.000    0.000    0.000    0.000 
#
# Total GULP energy -100233.982763 kJ/mol
# GULP energy per Si atom -5568.554598 kJ/mol
# Density = 1.799695 g / cm^3
# Si number density = 18.038003 Si / 1000 Ang^3
#
#
#
# Elastic Constant Matrix: (Units=GPa)
#
#
# Indices 1 2 3 4 5 6 
#
# 1 64.8239 32.3060 11.0150 0.0000 0.0000 0.0000
# 2 32.3060 169.3700 58.2739 0.0000 0.0000 0.0000
# 3 11.0150 58.2739 58.1760 0.0000 0.0000 0.0000
# 4 0.0000 0.0000 0.0000 19.6952 0.0000 0.0000
# 5 0.0000 0.0000 0.0000 0.0000 25.4096 0.0000
# 6 0.0000 0.0000 0.0000 0.0000 0.0000 29.3497
#
#
#
# Elastic Compliance Matrix: (Units=1/GPa)
#
#
# Indices 1 2 3 4 5 6 
#
# 1 0.017047 -0.003267 0.000045 0.000000 0.000000 0.000000
# 2 -0.003267 0.009635 -0.009033 0.000000 0.000000 0.000000
# 3 0.000045 -0.009033 0.026229 0.000000 0.000000 0.000000
# 4 0.000000 0.000000 0.000000 0.050774 0.000000 0.000000
# 5 0.000000 0.000000 0.000000 0.000000 0.039355 0.000000
# 6 0.000000 0.000000 0.000000 0.000000 0.000000 0.034072
#
#
# Mechanical properties :
#
#
# Convention : Reuss Voigt Hill
#
# Bulk Modulus (GPa) = 35.21010 55.06219 45.13614
# Shear Modulus (GPa) = 23.68668 27.60924 25.64796
#
# Velocity S-wave (km/s) = 3.62768 3.91655 3.77488
# Velocity P-wave (km/s) = 6.09172 7.14454 6.63903
#
# Compressibility (1/GPa) = 0.02840094
#
# Stress axis : x y z
#
# Youngs Moduli (GPa) = 58.66156 103.78513 38.12590
#
# Poissons Ratio (x) = 0.33907 -0.00171
# Poissons Ratio (y) = 0.19165 0.34439
# Poissons Ratio (z) = -0.00263 0.93749
#
# Static dielectric constant tensor:
#      x y z
#    x 1.788020 0.000000 0.000000 
#    y 0.000000 1.616890 0.000000 
#    z 0.000000 0.000000 1.612110 
# 
# From -- ./inp_files/3215.got.cif
#   From: 2010.05.17/outbox.cif.g08.bks.cpg/sg23_2_cif.got.tgz:3215.got - 2010.06.04 12:02:01.
