data_PCOD9330885
_publ_section_title
;
Structure prediction by ZEFSAII (Michael W. Deem and Ramdas Pophale) SiO2 
 PCOD9330885
Probable space group: I 2 2 2
;
_chemical_formula_sum "Si O2"
_cell_formula_units_Z 46
_cell_length_a 12.103461
_cell_length_b 8.898693
_cell_length_c 22.230816
_cell_angle_alpha 90.000000
_cell_angle_beta 90.000000
_cell_angle_gamma 90.000000
_cell_volume 2394.369674
_symmetry_space_group_name_H-M "I 2 2 2"
_symmetry_group_IT_number 23
_symmetry_cell_setting 'orthorhombic'
loop_
_space_group_symop_operation_xyz
x,y,z
-x,-y,z
x,-y,-z
-x,y,-z
1/2+x,1/2+y,1/2+z
1/2-x,1/2-y,1/2+z
1/2+x,1/2-y,1/2-z
1/2-x,1/2+y,1/2-z
loop_
_atom_site_type_symbol
_atom_site_label
_atom_site_fract_x
_atom_site_fract_y
_atom_site_fract_z
Si Si1 0.775749 0.915789 0.558960
Si Si2 0.361923 0.885466 0.181298
Si Si3 0.130292 0.169636 0.988616
Si Si4 0.087269 0.331253 0.611338
Si Si5 0.000000 0.500000 0.790275
Si Si6 0.828892 0.683076 0.864033
Si Si7 0.500000 0.000000 0.000000
O O1 0.692953 0.791550 0.530129
O O2 0.860666 0.828916 0.601029
O O3 0.824189 0.000000 0.500000
O O4 0.717269 0.037072 0.601151
O O5 0.467203 0.825550 0.142671
O O6 0.409337 0.921259 0.247083
O O7 0.261952 0.769091 0.176478
O O8 0.341761 0.048740 0.149942
O O9 0.147248 0.205224 0.918779
O O10 0.000000 0.180690 0.000000
O O11 0.168410 0.000000 0.000000
O O12 0.071211 0.399008 0.544740
O O13 0.935851 0.625057 0.828675
#
# Coordination Sequence:
#
# PCOD9330885 Si02
#       7
#     8   8   8   8   4   8   2
#     4  10  22  32  55  89 123 154 187 243 306 371
#     4   9  22  41  60  83 110 162 207 253 296 357
#     4  10  21  37  58  88 121 155 195 235 295 380
#     4   9  19  36  55  83 122 156 201 243 301 364
#     4  10  23  42  65  83 118 159 212 258 304 348
#     4  11  22  40  62  87 120 158 196 251 308 356
#     4   8  18  28  58  72 114 166 186 236 298 372
#
# _framework density 19.211735999999998
#
# number of rings (size 3 to 8) (size 9 to 14) (size 15 to 20)
#    0.000    2.609    0.000    2.087   10.957    5.913 
#    0.000    3.478    0.000    2.087    0.000    0.000 
#    0.000    0.000    0.000    0.000    0.000    0.000 
#
# Total GULP energy -128306.732071 kJ/mol
# GULP energy per Si atom -5578.553568 kJ/mol
# Density = 1.916801 g / cm^3
# Si number density = 19.211736 Si / 1000 Ang^3
#
#
#
# Elastic Constant Matrix: (Units=GPa)
#
#
# Indices 1 2 3 4 5 6 
#
# 1 50.1417 42.8405 17.0659 0.0000 0.0000 0.0000
# 2 42.8405 118.5948 48.2956 0.0000 0.0000 0.0000
# 3 17.0659 48.2956 84.5829 0.0000 0.0000 0.0000
# 4 0.0000 0.0000 0.0000 13.4490 0.0000 0.0000
# 5 0.0000 0.0000 0.0000 0.0000 13.2242 0.0000
# 6 0.0000 0.0000 0.0000 0.0000 0.0000 35.3194
#
#
#
# Elastic Compliance Matrix: (Units=1/GPa)
#
#
# Indices 1 2 3 4 5 6 
#
# 1 0.028848 -0.010490 0.000169 0.000000 0.000000 0.000000
# 2 -0.010490 0.014801 -0.006335 0.000000 0.000000 0.000000
# 3 0.000169 -0.006335 0.015406 0.000000 0.000000 0.000000
# 4 0.000000 0.000000 0.000000 0.074355 0.000000 0.000000
# 5 0.000000 0.000000 0.000000 0.000000 0.075619 0.000000
# 6 0.000000 0.000000 0.000000 0.000000 0.000000 0.028313
#
#
# Mechanical properties :
#
#
# Convention : Reuss Voigt Hill
#
# Bulk Modulus (GPa) = 38.84413 52.19150 45.51781
# Shear Modulus (GPa) = 17.90612 22.07303 19.98957
#
# Velocity S-wave (km/s) = 3.05625 3.39327 3.22916
# Velocity P-wave (km/s) = 5.71988 6.52517 6.13575
#
# Compressibility (1/GPa) = 0.02574392
#
# Stress axis : x y z
#
# Youngs Moduli (GPa) = 34.66400 67.56279 64.91122
#
# Poissons Ratio (x) = 0.70872 -0.01097
# Poissons Ratio (y) = 0.36362 0.41119
# Poissons Ratio (z) = -0.00586 0.42799
#
# Static dielectric constant tensor:
#      x y z
#    x 1.698050 0.000000 0.000000 
#    y 0.000000 1.702170 0.000000 
#    z 0.000000 0.000000 1.673820 
# 
# From -- ./inp_files/24711.got.cif
#   From: 2010.05.17/outbox.cif.g08.bks.cpg/sg23_13_cif.got.tgz:24711.got - 2010.06.04 12:02:01.
