data_PCOD9330092
_publ_section_title
;
Structure prediction by ZEFSAII (Michael W. Deem and Ramdas Pophale) SiO2 
 PCOD9330092
Probable space group: I 2 2 2
;
_chemical_formula_sum "Si O2"
_cell_formula_units_Z 40
_cell_length_a 12.187526
_cell_length_b 15.626783
_cell_length_c 8.063785
_cell_angle_alpha 90.000000
_cell_angle_beta 90.000000
_cell_angle_gamma 90.000000
_cell_volume 1535.762562
_symmetry_space_group_name_H-M "I 2 2 2"
_symmetry_group_IT_number 23
_symmetry_cell_setting 'orthorhombic'
loop_
_space_group_symop_operation_xyz
x,y,z
-x,-y,z
x,-y,-z
-x,y,-z
1/2+x,1/2+y,1/2+z
1/2-x,1/2-y,1/2+z
1/2+x,1/2-y,1/2-z
1/2-x,1/2+y,1/2-z
loop_
_atom_site_type_symbol
_atom_site_label
_atom_site_fract_x
_atom_site_fract_y
_atom_site_fract_z
Si Si1 0.492549 0.108837 0.201297
Si Si2 0.784705 0.557085 0.161725
Si Si3 0.698264 0.808132 0.397632
Si Si4 0.554582 0.290443 0.170599
Si Si5 0.098559 0.884286 0.127684
O O1 0.590043 0.048486 0.272969
O O2 0.372844 0.125554 0.283758
O O3 0.535551 0.202304 0.265743
O O4 0.500000 0.096538 0.000000
O O5 0.698004 0.555212 0.313537
O O6 0.760089 0.500000 0.000000
O O7 0.778351 0.650769 0.076913
O O8 0.818946 0.807880 0.321609
O O9 0.651329 0.710622 0.409505
O O10 0.478743 0.369423 0.214908
O O11 0.500000 0.263230 0.000000
O O12 0.000000 0.905190 0.000000
#
# Coordination Sequence:
#
# PCOD9330092 Si02
#       5
#     8   8   8   8   8
#     4  10  23  39  69 109 150 195 252 317 369 446
#     4  12  26  47  71 111 158 204 248 311 399 465
#     4  11  22  42  71 111 158 201 250 307 381 461
#     4  10  19  37  68 111 148 197 251 311 369 445
#     4  11  24  39  73 112 149 198 262 314 365 460
#
# _framework density 26.045691999999999
#
# number of rings (size 3 to 8) (size 9 to 14) (size 15 to 20)
#    0.000    1.200    4.000    3.000    2.800    1.600 
#    0.000    4.000    0.000    1.200    0.000    0.000 
#    0.000    0.000    0.000    0.000    0.000    0.000 
#
# Total GULP energy -111368.342796 kJ/mol
# GULP energy per Si atom -5568.417140 kJ/mol
# Density = 2.598641 g / cm^3
# Si number density = 26.045692 Si / 1000 Ang^3
#
#
#
# Elastic Constant Matrix: (Units=GPa)
#
#
# Indices 1 2 3 4 5 6 
#
# 1 233.6682 50.2156 34.8508 0.0000 0.0000 0.0000
# 2 50.2156 61.9597 9.7640 0.0000 0.0000 0.0000
# 3 34.8508 9.7640 67.6213 0.0000 0.0000 0.0000
# 4 0.0000 0.0000 0.0000 27.8827 0.0000 0.0000
# 5 0.0000 0.0000 0.0000 0.0000 59.3566 0.0000
# 6 0.0000 0.0000 0.0000 0.0000 0.0000 28.4698
#
#
#
# Elastic Compliance Matrix: (Units=1/GPa)
#
#
# Indices 1 2 3 4 5 6 
#
# 1 0.005495 -0.004100 -0.002240 0.000000 0.000000 0.000000
# 2 -0.004100 0.019575 -0.000713 0.000000 0.000000 0.000000
# 3 -0.002240 -0.000713 0.016046 0.000000 0.000000 0.000000
# 4 0.000000 0.000000 0.000000 0.035864 0.000000 0.000000
# 5 0.000000 0.000000 0.000000 0.000000 0.016847 0.000000
# 6 0.000000 0.000000 0.000000 0.000000 0.000000 0.035125
#
#
# Mechanical properties :
#
#
# Convention : Reuss Voigt Hill
#
# Bulk Modulus (GPa) = 37.02527 61.43445 49.22986
# Shear Modulus (GPa) = 32.88131 41.03640 36.95886
#
# Velocity S-wave (km/s) = 3.55695 3.97363 3.77105
# Velocity P-wave (km/s) = 5.57813 6.68516 6.15658
#
# Compressibility (1/GPa) = 0.02700858
#
# Stress axis : x y z
#
# Youngs Moduli (GPa) = 181.99001 51.08542 62.32227
#
# Poissons Ratio (x) = 0.20947 0.13959
# Poissons Ratio (y) = 0.74622 0.04445
# Poissons Ratio (z) = 0.40763 0.03644
#
# Static dielectric constant tensor:
#      x y z
#    x 2.000720 0.000000 0.000000 
#    y 0.000000 2.207220 0.000000 
#    z 0.000000 0.000000 2.093500 
# 
# From -- ./inp_files/8217.got.cif
#   From: 2010.05.17/outbox.cif.g08.bks.cpg/sg23_5_cif.got.tgz:8217.got - 2010.06.04 12:02:01.
