data_PCOD9330017
_publ_section_title
;
Structure prediction by ZEFSAII (Michael W. Deem and Ramdas Pophale) SiO2 
 PCOD9330017
Probable space group: I 2 2 2
;
_chemical_formula_sum "Si O2"
_cell_formula_units_Z 56
_cell_length_a 10.307732
_cell_length_b 12.205069
_cell_length_c 23.299457
_cell_angle_alpha 90.000000
_cell_angle_beta 90.000000
_cell_angle_gamma 90.000000
_cell_volume 2931.225008
_symmetry_space_group_name_H-M "I 2 2 2"
_symmetry_group_IT_number 23
_symmetry_cell_setting 'orthorhombic'
loop_
_space_group_symop_operation_xyz
x,y,z
-x,-y,z
x,-y,-z
-x,y,-z
1/2+x,1/2+y,1/2+z
1/2-x,1/2-y,1/2+z
1/2+x,1/2-y,1/2-z
1/2-x,1/2+y,1/2-z
loop_
_atom_site_type_symbol
_atom_site_label
_atom_site_fract_x
_atom_site_fract_y
_atom_site_fract_z
Si Si1 0.756308 0.090696 0.705664
Si Si2 0.648437 0.519558 0.909744
Si Si3 0.826755 0.822917 0.844120
Si Si4 0.368359 0.830153 0.419550
Si Si5 0.157402 0.300027 0.951674
Si Si6 0.604714 0.918258 0.770072
Si Si7 0.408757 0.295940 0.697844
O O1 0.857376 0.052635 0.657601
O O2 0.689534 0.197373 0.678487
O O3 0.811625 0.128673 0.766694
O O4 0.663077 0.989238 0.717776
O O5 0.500000 0.500000 0.929098
O O6 0.755562 0.422180 0.915593
O O7 0.720651 0.619988 0.941373
O O8 0.830004 0.806906 0.911992
O O9 0.710649 0.889432 0.817233
O O10 0.962051 0.860793 0.818235
O O11 0.347455 0.773222 0.481270
O O12 0.360687 0.757487 0.361887
O O13 0.476782 0.140393 0.428711
O O14 0.560251 0.803884 0.742194
O O15 0.500000 0.000000 0.795762
#
# Coordination Sequence:
#
# PCOD9330017 Si02
#       7
#     8   8   8   8   8   8   8
#     4  10  21  33  51  80 111 149 183 227 279 346
#     4  11  22  32  50  81 119 148 182 232 293 352
#     4   9  20  35  54  80 110 142 189 236 277 334
#     4  10  19  36  58  76 108 153 193 233 287 341
#     4   9  20  37  56  79 106 148 197 238 278 339
#     4  11  20  35  56  79 117 152 184 228 293 347
#     4  10  20  34  55  82 112 148 193 232 277 337
#
# _framework density 19.104641000000001
#
# number of rings (size 3 to 8) (size 9 to 14) (size 15 to 20)
#    0.000    2.000    2.857    0.857    2.000    2.286 
#    2.571    0.000    0.000    0.857    0.000    5.000 
#    0.000    0.000    0.000    0.000    0.000    0.000 
#
# Total GULP energy -155931.334130 kJ/mol
# GULP energy per Si atom -5568.976219 kJ/mol
# Density = 1.906116 g / cm^3
# Si number density = 19.104641 Si / 1000 Ang^3
#
#
#
# Elastic Constant Matrix: (Units=GPa)
#
#
# Indices 1 2 3 4 5 6 
#
# 1 81.4561 13.0330 16.4623 0.0000 0.0000 0.0000
# 2 13.0330 35.3851 6.9022 0.0000 0.0000 0.0000
# 3 16.4623 6.9022 98.4504 0.0000 0.0000 0.0000
# 4 0.0000 0.0000 0.0000 12.9980 0.0000 0.0000
# 5 0.0000 0.0000 0.0000 0.0000 23.3950 0.0000
# 6 0.0000 0.0000 0.0000 0.0000 0.0000 28.1781
#
#
#
# Elastic Compliance Matrix: (Units=1/GPa)
#
#
# Indices 1 2 3 4 5 6 
#
# 1 0.013394 -0.004559 -0.001920 0.000000 0.000000 0.000000
# 2 -0.004559 0.030204 -0.001355 0.000000 0.000000 0.000000
# 3 -0.001920 -0.001355 0.010573 0.000000 0.000000 0.000000
# 4 0.000000 0.000000 0.000000 0.076935 0.000000 0.000000
# 5 0.000000 0.000000 0.000000 0.000000 0.042744 0.000000
# 6 0.000000 0.000000 0.000000 0.000000 0.000000 0.035489
#
#
# Mechanical properties :
#
#
# Convention : Reuss Voigt Hill
#
# Bulk Modulus (GPa) = 25.97185 32.00963 28.99074
# Shear Modulus (GPa) = 21.02241 24.84051 22.93146
#
# Velocity S-wave (km/s) = 3.32080 3.60979 3.46831
# Velocity P-wave (km/s) = 5.32237 5.84511 5.58986
#
# Compressibility (1/GPa) = 0.03850322
#
# Stress axis : x y z
#
# Youngs Moduli (GPa) = 74.66029 33.10833 94.57628
#
# Poissons Ratio (x) = 0.15093 0.18159
# Poissons Ratio (y) = 0.34036 0.12818
# Poissons Ratio (z) = 0.14335 0.04487
#
# Static dielectric constant tensor:
#      x y z
#    x 1.714410 0.000000 0.000000 
#    y 0.000000 1.656990 0.000000 
#    z 0.000000 0.000000 1.692610 
# 
# From -- ./inp_files/26708.got.cif
#   From: 2010.05.17/outbox.cif.g08.bks.cpg/sg23_14_cif.got.tgz:26708.got - 2010.06.04 12:02:01.
