data_PCOD9330647
_publ_section_title
;
Structure prediction by ZEFSAII (Michael W. Deem and Ramdas Pophale) SiO2 
 PCOD9330647
Probable space group: I 2 2 2
;
_chemical_formula_sum "Si O2"
_cell_formula_units_Z 58
_cell_length_a 24.316619
_cell_length_b 8.452852
_cell_length_c 15.607108
_cell_angle_alpha 90.000000
_cell_angle_beta 90.000000
_cell_angle_gamma 90.000000
_cell_volume 3207.959604
_symmetry_space_group_name_H-M "I 2 2 2"
_symmetry_group_IT_number 23
_symmetry_cell_setting 'orthorhombic'
loop_
_space_group_symop_operation_xyz
x,y,z
-x,-y,z
x,-y,-z
-x,y,-z
1/2+x,1/2+y,1/2+z
1/2-x,1/2-y,1/2+z
1/2+x,1/2-y,1/2-z
1/2-x,1/2+y,1/2-z
loop_
_atom_site_type_symbol
_atom_site_label
_atom_site_fract_x
_atom_site_fract_y
_atom_site_fract_z
Si Si1 0.319723 0.819559 0.011557
Si Si2 0.000000 0.000000 0.500000
Si Si3 0.550645 0.103453 0.265133
Si Si4 0.412363 0.673153 0.115387
Si Si5 0.987616 0.183317 0.101108
Si Si6 0.735309 0.913195 0.408462
Si Si7 0.124623 0.687246 0.181274
Si Si8 0.329049 0.388187 0.159254
O O1 0.377338 0.795112 0.059057
O O2 0.274356 0.734521 0.070088
O O3 0.324821 0.731038 0.920815
O O4 0.305647 0.000000 0.000000
O O5 0.037609 0.107219 0.439594
O O6 0.568906 0.237996 0.200074
O O7 0.526723 0.194000 0.348252
O O8 0.500000 0.000000 0.228849
O O9 0.598017 0.976350 0.284344
O O10 0.372907 0.524566 0.135977
O O11 0.925249 0.226801 0.129975
O O12 0.000000 0.000000 0.124503
O O13 0.000000 0.199874 0.000000
O O14 0.676431 0.859507 0.376251
O O15 0.730312 0.000000 0.500000
O O16 0.769420 0.024104 0.341737
O O17 0.148975 0.796673 0.257520
#
# Coordination Sequence:
#
# PCOD9330647 Si02
#       8
#     8   2   8   8   8   8   8   8
#     4  10  20  40  61  85 125 158 196 259 311 366
#     4  12  24  32  66  84 118 164 206 236 298 396
#     4  10  24  37  58  91 122 160 206 262 310 364
#     4  11  22  38  59  88 122 164 202 244 316 370
#     4  10  23  43  62  89 130 170 212 268 322 378
#     4   9  22  41  62  90 121 162 209 258 319 389
#     4  11  23  39  66  92 121 172 211 265 322 376
#     4  10  21  40  59  87 124 159 203 252 317 374
#
# _framework density 18.080027999999999
#
# number of rings (size 3 to 8) (size 9 to 14) (size 15 to 20)
#    0.000    1.793    1.379    2.483    6.759    6.345 
#    2.483    1.379    0.000    0.000    0.000    0.000 
#    0.000    0.000    0.000    0.000    0.000    0.000 
#
# Total GULP energy -161834.690863 kJ/mol
# GULP energy per Si atom -5580.506581 kJ/mol
# Density = 1.803888 g / cm^3
# Si number density = 18.080028 Si / 1000 Ang^3
#
#
#
# Elastic Constant Matrix: (Units=GPa)
#
#
# Indices 1 2 3 4 5 6 
#
# 1 135.7695 56.1518 62.8480 0.0000 0.0000 0.0000
# 2 56.1518 118.8825 49.2613 0.0000 0.0000 0.0000
# 3 62.8480 49.2613 75.2786 0.0000 0.0000 0.0000
# 4 0.0000 0.0000 0.0000 30.0178 0.0000 0.0000
# 5 0.0000 0.0000 0.0000 0.0000 23.1695 0.0000
# 6 0.0000 0.0000 0.0000 0.0000 0.0000 18.2759
#
#
#
# Elastic Compliance Matrix: (Units=1/GPa)
#
#
# Indices 1 2 3 4 5 6 
#
# 1 0.012392 -0.002149 -0.008940 0.000000 0.000000 0.000000
# 2 -0.002149 0.011914 -0.006002 0.000000 0.000000 0.000000
# 3 -0.008940 -0.006002 0.024675 0.000000 0.000000 0.000000
# 4 0.000000 0.000000 0.000000 0.033314 0.000000 0.000000
# 5 0.000000 0.000000 0.000000 0.000000 0.043160 0.000000
# 6 0.000000 0.000000 0.000000 0.000000 0.000000 0.054717
#
#
# Mechanical properties :
#
#
# Convention : Reuss Voigt Hill
#
# Bulk Modulus (GPa) = 67.56893 74.05030 70.80962
# Shear Modulus (GPa) = 22.80112 25.07061 23.93587
#
# Velocity S-wave (km/s) = 3.55508 3.72781 3.64247
# Velocity P-wave (km/s) = 7.36917 7.71846 7.54584
#
# Compressibility (1/GPa) = 0.01479970
#
# Stress axis : x y z
#
# Youngs Moduli (GPa) = 80.69408 83.93649 40.52615
#
# Poissons Ratio (x) = 0.18037 0.36230
# Poissons Ratio (y) = 0.17340 0.24324
# Poissons Ratio (z) = 0.72140 0.50380
#
# Static dielectric constant tensor:
#      x y z
#    x 1.603750 0.000000 0.000000 
#    y 0.000000 1.613230 0.000000 
#    z 0.000000 0.000000 1.608410 
# 
# From -- ./inp_files/12698.got.cif
#   From: 2010.05.17/outbox.cif.g08.bks.cpg/sg23_7_cif.got.tgz:12698.got - 2010.06.04 12:02:01.
