data_PCOD9330742
_publ_section_title
;
Structure prediction by ZEFSAII (Michael W. Deem and Ramdas Pophale) SiO2 
 PCOD9330742
Probable space group: I 2 2 2
;
_chemical_formula_sum "Si O2"
_cell_formula_units_Z 38
_cell_length_a 12.853488
_cell_length_b 4.963101
_cell_length_c 26.042562
_cell_angle_alpha 90.000000
_cell_angle_beta 90.000000
_cell_angle_gamma 90.000000
_cell_volume 1661.337302
_symmetry_space_group_name_H-M "I 2 2 2"
_symmetry_group_IT_number 23
_symmetry_cell_setting 'orthorhombic'
loop_
_space_group_symop_operation_xyz
x,y,z
-x,-y,z
x,-y,-z
-x,y,-z
1/2+x,1/2+y,1/2+z
1/2-x,1/2-y,1/2+z
1/2+x,1/2-y,1/2-z
1/2-x,1/2+y,1/2-z
loop_
_atom_site_type_symbol
_atom_site_label
_atom_site_fract_x
_atom_site_fract_y
_atom_site_fract_z
Si Si1 0.828961 0.918525 0.578855
Si Si2 0.000000 0.000000 0.500000
Si Si3 0.500000 0.500000 0.374742
Si Si4 0.840077 0.195027 0.797937
Si Si5 0.806567 0.182281 0.686253
Si Si6 0.687721 0.586243 0.443313
O O1 0.755852 0.656671 0.581085
O O2 0.924168 0.850309 0.540574
O O3 0.856282 0.060140 0.633983
O O4 0.760283 0.154543 0.553821
O O5 0.434392 0.683504 0.336785
O O6 0.585867 0.642292 0.409912
O O7 0.872712 0.158898 0.738456
O O8 0.789001 0.483636 0.803518
O O9 0.750327 0.974123 0.812899
O O10 0.656176 0.500000 0.500000
#
# Coordination Sequence:
#
# PCOD9330742 Si02
#       6
#     8   2   4   8   8   8
#     4  12  24  45  69  96 130 176 221 287 319 396
#     4  12  28  44  76  92 126 178 240 266 346 380
#     4  12  23  41  70 104 131 189 206 272 330 426
#     4  10  22  36  68  92 133 170 217 255 327 394
#     4  10  20  43  60  95 131 172 209 277 317 375
#     4  12  25  44  65 100 137 170 224 270 335 391
#
# _framework density 22.873141
#
# number of rings (size 3 to 8) (size 9 to 14) (size 15 to 20)
#    0.000    0.842    6.316    0.316    0.000    5.895 
#    0.000    2.105    0.000    7.579    0.000    0.000 
#    0.000    0.000    0.000    0.000    0.000    0.000 
#
# Total GULP energy -106076.771444 kJ/mol
# GULP energy per Si atom -5582.987971 kJ/mol
# Density = 2.282108 g / cm^3
# Si number density = 22.873141 Si / 1000 Ang^3
#
#
#
# Elastic Constant Matrix: (Units=GPa)
#
#
# Indices 1 2 3 4 5 6 
#
# 1 87.6566 5.9176 53.1783 0.0000 0.0000 0.0000
# 2 5.9176 60.8440 1.7279 0.0000 0.0000 0.0000
# 3 53.1783 1.7279 200.8486 0.0000 0.0000 0.0000
# 4 0.0000 0.0000 0.0000 24.1128 0.0000 0.0000
# 5 0.0000 0.0000 0.0000 0.0000 48.3589 0.0000
# 6 0.0000 0.0000 0.0000 0.0000 0.0000 2.4723
#
#
#
# Elastic Compliance Matrix: (Units=1/GPa)
#
#
# Indices 1 2 3 4 5 6 
#
# 1 0.013682 -0.001228 -0.003612 0.000000 0.000000 0.000000
# 2 -0.001228 0.016550 0.000183 0.000000 0.000000 0.000000
# 3 -0.003612 0.000183 0.005934 0.000000 0.000000 0.000000
# 4 0.000000 0.000000 0.000000 0.041472 0.000000 0.000000
# 5 0.000000 0.000000 0.000000 0.000000 0.020679 0.000000
# 6 0.000000 0.000000 0.000000 0.000000 0.000000 0.404476
#
#
# Mechanical properties :
#
#
# Convention : Reuss Voigt Hill
#
# Bulk Modulus (GPa) = 37.24272 52.33300 44.78786
# Shear Modulus (GPa) = 9.59587 34.22383 21.90985
#
# Velocity S-wave (km/s) = 2.05046 3.87233 3.09833
# Velocity P-wave (km/s) = 4.68225 6.55153 5.69412
#
# Compressibility (1/GPa) = 0.02685089
#
# Stress axis : x y z
#
# Youngs Moduli (GPa) = 73.08658 60.42398 168.52976
#
# Poissons Ratio (x) = 0.07421 0.60875
# Poissons Ratio (y) = 0.08976 -0.03081
# Poissons Ratio (z) = 0.26400 -0.01105
#
# Static dielectric constant tensor:
#      x y z
#    x 1.833320 0.000000 0.000000 
#    y 0.000000 1.804060 0.000000 
#    z 0.000000 0.000000 1.975080 
# 
# From -- ./inp_files/4790.got.cif
#   From: 2010.05.17/outbox.cif.g08.bks.cpg/sg23_3_cif.got.tgz:4790.got - 2010.06.04 12:02:01.
