data_PCOD9330054
_publ_section_title
;
Structure prediction by ZEFSAII (Michael W. Deem and Ramdas Pophale) SiO2 
 PCOD9330054
Probable space group: I 2 2 2
;
_chemical_formula_sum "Si O2"
_cell_formula_units_Z 40
_cell_length_a 22.238516
_cell_length_b 7.724223
_cell_length_c 10.659486
_cell_angle_alpha 90.000000
_cell_angle_beta 90.000000
_cell_angle_gamma 90.000000
_cell_volume 1831.035945
_symmetry_space_group_name_H-M "I 2 2 2"
_symmetry_group_IT_number 23
_symmetry_cell_setting 'orthorhombic'
loop_
_space_group_symop_operation_xyz
x,y,z
-x,-y,z
x,-y,-z
-x,y,-z
1/2+x,1/2+y,1/2+z
1/2-x,1/2-y,1/2+z
1/2+x,1/2-y,1/2-z
1/2-x,1/2+y,1/2-z
loop_
_atom_site_type_symbol
_atom_site_label
_atom_site_fract_x
_atom_site_fract_y
_atom_site_fract_z
Si Si1 0.139108 0.700403 0.975962
Si Si2 0.978743 0.799254 0.129703
Si Si3 0.530457 0.310133 0.876456
Si Si4 0.244713 0.100797 0.130244
Si Si5 0.843461 0.828993 0.749032
O O1 0.131394 0.793117 0.110815
O O2 0.129455 0.500000 0.000000
O O3 0.092459 0.782374 0.877847
O O4 0.204476 0.740364 0.920662
O O5 0.006384 0.716408 0.252450
O O6 0.000000 0.000000 0.126750
O O7 0.000000 0.716980 0.000000
O O8 0.500000 0.500000 0.874055
O O9 0.601410 0.342036 0.850038
O O10 0.500000 0.229106 0.000000
O O11 0.302563 0.169874 0.202320
O O12 0.202736 0.986733 0.223249
O O13 0.259282 0.000000 0.000000
#
# Coordination Sequence:
#
# PCOD9330054 Si02
#       5
#     8   8   8   8   8
#     4  11  23  40  67  99 130 170 235 285 341 412
#     4  10  19  36  68  92 125 171 219 274 336 406
#     4  10  21  40  62  99 128 174 224 271 344 416
#     4  10  23  42  68  99 133 181 226 291 357 413
#     4  11  22  44  69  95 138 175 231 286 351 427
#
# _framework density 21.845555999999998
#
# number of rings (size 3 to 8) (size 9 to 14) (size 15 to 20)
#    0.000    1.600    2.000    3.600    5.600    0.400 
#   28.800    0.000    0.000    0.000    0.000    0.000 
#    0.000    0.000    0.000    0.000    0.000    0.000 
#
# Total GULP energy -111544.216926 kJ/mol
# GULP energy per Si atom -5577.210846 kJ/mol
# Density = 2.179583 g / cm^3
# Si number density = 21.845556 Si / 1000 Ang^3
#
#
#
# Elastic Constant Matrix: (Units=GPa)
#
#
# Indices 1 2 3 4 5 6 
#
# 1 127.1049 36.2160 44.9244 0.0000 0.0000 0.0000
# 2 36.2160 85.2109 4.9840 0.0000 0.0000 0.0000
# 3 44.9244 4.9840 139.0748 0.0000 0.0000 0.0000
# 4 0.0000 0.0000 0.0000 9.4228 0.0000 0.0000
# 5 0.0000 0.0000 0.0000 0.0000 14.7444 0.0000
# 6 0.0000 0.0000 0.0000 0.0000 0.0000 23.3532
#
#
#
# Elastic Compliance Matrix: (Units=1/GPa)
#
#
# Indices 1 2 3 4 5 6 
#
# 1 0.010151 -0.004131 -0.003131 0.000000 0.000000 0.000000
# 2 -0.004131 0.013442 0.000853 0.000000 0.000000 0.000000
# 3 -0.003131 0.000853 0.008171 0.000000 0.000000 0.000000
# 4 0.000000 0.000000 0.000000 0.106126 0.000000 0.000000
# 5 0.000000 0.000000 0.000000 0.000000 0.067822 0.000000
# 6 0.000000 0.000000 0.000000 0.000000 0.000000 0.042821
#
#
# Mechanical properties :
#
#
# Convention : Reuss Voigt Hill
#
# Bulk Modulus (GPa) = 52.78447 58.18215 55.48331
# Shear Modulus (GPa) = 18.67995 27.18850 22.93422
#
# Velocity S-wave (km/s) = 2.92737 3.53169 3.24363
# Velocity P-wave (km/s) = 5.97001 6.58192 6.28342
#
# Compressibility (1/GPa) = 0.01894497
#
# Stress axis : x y z
#
# Youngs Moduli (GPa) = 98.50948 74.39592 122.38082
#
# Poissons Ratio (x) = 0.30735 0.38318
# Poissons Ratio (y) = 0.40698 -0.10437
# Poissons Ratio (z) = 0.30844 -0.06345
#
# Static dielectric constant tensor:
#      x y z
#    x 1.863920 0.000000 0.000000 
#    y 0.000000 2.033750 0.000000 
#    z 0.000000 0.000000 1.930680 
# 
# From -- ./inp_files/17241.got.cif
#   From: 2010.05.17/outbox.cif.g08.bks.cpg/sg23_9_cif.got.tgz:17241.got - 2010.06.04 12:02:01.
