data_PCOD9330945
_publ_section_title
;
Structure prediction by ZEFSAII (Michael W. Deem and Ramdas Pophale) SiO2 
 PCOD9330945
Probable space group: I 2 2 2
;
_chemical_formula_sum "Si O2"
_cell_formula_units_Z 48
_cell_length_a 12.712986
_cell_length_b 18.955596
_cell_length_c 10.155629
_cell_angle_alpha 90.000000
_cell_angle_beta 90.000000
_cell_angle_gamma 90.000000
_cell_volume 2447.326089
_symmetry_space_group_name_H-M "I 2 2 2"
_symmetry_group_IT_number 23
_symmetry_cell_setting 'orthorhombic'
loop_
_space_group_symop_operation_xyz
x,y,z
-x,-y,z
x,-y,-z
-x,y,-z
1/2+x,1/2+y,1/2+z
1/2-x,1/2-y,1/2+z
1/2+x,1/2-y,1/2-z
1/2-x,1/2+y,1/2-z
loop_
_atom_site_type_symbol
_atom_site_label
_atom_site_fract_x
_atom_site_fract_y
_atom_site_fract_z
Si Si1 0.312976 0.366630 0.802230
Si Si2 0.717651 0.663190 0.101125
Si Si3 0.500000 0.000000 0.213794
Si Si4 0.072616 0.246014 0.125860
Si Si5 0.724559 0.990549 0.656857
Si Si6 0.393876 0.205980 0.197610
Si Si7 0.000000 0.380015 0.500000
O O1 0.388965 0.322769 0.706553
O O2 0.302345 0.450695 0.782591
O O3 0.197065 0.335622 0.771889
O O4 0.331030 0.352217 0.957110
O O5 0.824897 0.708740 0.085390
O O6 0.640767 0.713506 0.181669
O O7 0.743188 0.590524 0.175818
O O8 0.393518 0.007124 0.295889
O O9 0.520057 0.067291 0.120453
O O10 0.002424 0.293668 0.223569
O O11 0.000000 0.229791 0.000000
O O12 0.726301 0.000000 0.500000
O O13 0.409039 0.170830 0.054266
#
# Coordination Sequence:
#
# PCOD9330945 Si02
#       7
#     8   8   4   8   8   8   4
#     4  10  21  39  60  89 124 159 208 259 313 379
#     4  10  22  37  63  93 122 166 204 262 312 372
#     4  11  21  36  56  94 125 163 202 256 332 375
#     4  11  22  39  64  92 126 162 210 258 317 378
#     4  10  21  38  60  89 126 161 207 256 316 374
#     4  11  21  39  59  88 122 161 211 252 316 373
#     4  11  22  34  56  86 129 160 198 256 313 382
#
# _framework density 19.613243000000001
#
# number of rings (size 3 to 8) (size 9 to 14) (size 15 to 20)
#    0.000    1.500    3.333    2.250    0.000    1.333 
#    0.000    0.833    0.000    4.000    0.000    0.000 
#    0.000    0.000    0.000    0.000    0.000    0.000 
#
# Total GULP energy -133926.747740 kJ/mol
# GULP energy per Si atom -5580.281156 kJ/mol
# Density = 1.956860 g / cm^3
# Si number density = 19.613243 Si / 1000 Ang^3
#
#
#
# Elastic Constant Matrix: (Units=GPa)
#
#
# Indices 1 2 3 4 5 6 
#
# 1 38.4735 18.0589 17.9046 0.0000 0.0000 0.0000
# 2 18.0589 124.0215 41.8606 0.0000 0.0000 0.0000
# 3 17.9046 41.8606 54.1272 0.0000 0.0000 0.0000
# 4 0.0000 0.0000 0.0000 20.8137 0.0000 0.0000
# 5 0.0000 0.0000 0.0000 0.0000 27.4310 0.0000
# 6 0.0000 0.0000 0.0000 0.0000 0.0000 13.1150
#
#
#
# Elastic Compliance Matrix: (Units=1/GPa)
#
#
# Indices 1 2 3 4 5 6 
#
# 1 0.030905 -0.001420 -0.009124 0.000000 0.000000 0.000000
# 2 -0.001420 0.010977 -0.008019 0.000000 0.000000 0.000000
# 3 -0.009124 -0.008019 0.027695 0.000000 0.000000 0.000000
# 4 0.000000 0.000000 0.000000 0.048045 0.000000 0.000000
# 5 0.000000 0.000000 0.000000 0.000000 0.036455 0.000000
# 6 0.000000 0.000000 0.000000 0.000000 0.000000 0.076248
#
#
# Mechanical properties :
#
#
# Convention : Reuss Voigt Hill
#
# Bulk Modulus (GPa) = 30.81799 41.36335 36.09067
# Shear Modulus (GPa) = 17.96817 21.52515 19.74666
#
# Velocity S-wave (km/s) = 3.03004 3.31642 3.17646
# Velocity P-wave (km/s) = 5.29041 5.98332 5.64750
#
# Compressibility (1/GPa) = 0.03244858
#
# Stress axis : x y z
#
# Youngs Moduli (GPa) = 32.35732 91.10260 36.10745
#
# Poissons Ratio (x) = 0.12940 0.32946
# Poissons Ratio (y) = 0.04596 0.28955
# Poissons Ratio (z) = 0.29524 0.73057
#
# Static dielectric constant tensor:
#      x y z
#    x 1.672260 0.000000 0.000000 
#    y 0.000000 1.726340 0.000000 
#    z 0.000000 0.000000 1.687890 
# 
# From -- ./inp_files/15885.got.cif
#   From: 2010.05.17/outbox.cif.g08.bks.cpg/sg23_8_cif.got.tgz:15885.got - 2010.06.04 12:02:01.
