data_PCOD9330959
_publ_section_title
;
Structure prediction by ZEFSAII (Michael W. Deem and Ramdas Pophale) SiO2 
 PCOD9330959
Probable space group: I 2 2 2
;
_chemical_formula_sum "Si O2"
_cell_formula_units_Z 64
_cell_length_a 10.573216
_cell_length_b 12.626233
_cell_length_c 24.559337
_cell_angle_alpha 90.000000
_cell_angle_beta 90.000000
_cell_angle_gamma 90.000000
_cell_volume 3278.668758
_symmetry_space_group_name_H-M "I 2 2 2"
_symmetry_group_IT_number 23
_symmetry_cell_setting 'orthorhombic'
loop_
_space_group_symop_operation_xyz
x,y,z
-x,-y,z
x,-y,-z
-x,y,-z
1/2+x,1/2+y,1/2+z
1/2-x,1/2-y,1/2+z
1/2+x,1/2-y,1/2-z
1/2-x,1/2+y,1/2-z
loop_
_atom_site_type_symbol
_atom_site_label
_atom_site_fract_x
_atom_site_fract_y
_atom_site_fract_z
Si Si1 0.500000 0.613916 0.088677
Si Si2 0.782178 0.622844 0.060832
Si Si3 0.000000 0.119414 0.208508
Si Si4 0.240865 0.179816 0.138284
Si Si5 0.717823 0.122844 0.560832
Si Si6 0.240865 0.179815 0.861716
Si Si7 0.148979 0.500000 0.435267
Si Si8 0.500000 0.228493 0.188374
O O1 0.500000 0.500000 0.116718
O O2 0.629480 0.621888 0.056662
O O3 0.370520 0.621888 0.056661
O O4 0.499999 0.699939 0.134638
O O5 0.799820 0.708270 0.109406
O O6 0.820397 0.500000 0.073164
O O7 0.832158 0.650363 0.000000
O O8 0.877835 0.136636 0.171069
O O9 0.122165 0.136636 0.171069
O O10 0.000001 0.204096 0.256946
O O11 0.000000 0.000000 0.230683
O O12 0.361895 0.176331 0.179703
O O13 0.284414 0.102794 0.089739
O O14 0.700182 0.208270 0.609405
O O15 0.284413 0.102793 0.910260
O O16 0.361895 0.176329 0.820297
O O17 0.156941 0.500000 0.500000
O O18 0.000000 0.500000 0.420008
#
# Coordination Sequence:
#
# PCOD9330959 Si02
#       8
#     8   8   8   8   8   8   8   8
#     4   8  14  26  49  83 117 138 185 242 293 362
#     4   9  17  31  55  85 118 154 192 245 310 370
#     4  12  25  42  63  86 126 169 208 264 316 370
#     4  11  22  41  62  93 127 158 210 260 306 388
#     4   9  17  31  55  85 118 154 192 245 310 370
#     4  11  22  41  62  93 127 158 210 260 306 388
#     4  11  22  39  67  97 131 175 213 261 322 380
#     4  10  21  38  63  86 115 157 209 252 312 354
#
# _framework density 19.520116999999999
#
# number of rings (size 3 to 8) (size 9 to 14) (size 15 to 20)
#    0.000    1.875    2.500    2.250    0.000    2.500 
#    0.000    3.750    2.750    1.500    0.000    0.000 
#    0.000    0.000    0.000    0.000    0.000    0.000 
#
# Total GULP energy -178185.953641 kJ/mol
# GULP energy per Si atom -5568.311051 kJ/mol
# Density = 1.947569 g / cm^3
# Si number density = 19.520117 Si / 1000 Ang^3
#
#
#
# Elastic Constant Matrix: (Units=GPa)
#
#
# Indices 1 2 3 4 5 6 
#
# 1 104.2171 19.3512 35.3958 0.0000 0.0000 0.0000
# 2 19.3512 70.6056 24.9704 0.0000 0.0000 0.0000
# 3 35.3958 24.9704 74.1180 0.0000 0.0000 0.0000
# 4 0.0000 0.0000 0.0000 35.2868 0.0000 0.0000
# 5 0.0000 0.0000 0.0000 0.0000 19.2670 0.0000
# 6 0.0000 0.0000 0.0000 0.0000 0.0000 19.2283
#
#
#
# Elastic Compliance Matrix: (Units=1/GPa)
#
#
# Indices 1 2 3 4 5 6 
#
# 1 0.011570 -0.001382 -0.005060 0.000000 0.000000 0.000000
# 2 -0.001382 0.016244 -0.004813 0.000000 0.000000 0.000000
# 3 -0.005060 -0.004813 0.017530 0.000000 0.000000 0.000000
# 4 0.000000 0.000000 0.000000 0.028339 0.000000 0.000000
# 5 0.000000 0.000000 0.000000 0.000000 0.051902 0.000000
# 6 0.000000 0.000000 0.000000 0.000000 0.000000 0.052007
#
#
# Mechanical properties :
#
#
# Convention : Reuss Voigt Hill
#
# Bulk Modulus (GPa) = 43.79183 45.37505 44.58344
# Shear Modulus (GPa) = 24.07161 26.03796 25.05478
#
# Velocity S-wave (km/s) = 3.51546 3.65623 3.58653
# Velocity P-wave (km/s) = 6.24186 6.41247 6.32774
#
# Compressibility (1/GPa) = 0.02283531
#
# Stress axis : x y z
#
# Youngs Moduli (GPa) = 86.42673 61.56136 57.04516
#
# Poissons Ratio (x) = 0.08505 0.28866
# Poissons Ratio (y) = 0.11941 0.27455
# Poissons Ratio (z) = 0.43733 0.29628
#
# Static dielectric constant tensor:
#      x y z
#    x 1.733740 0.000000 0.000000 
#    y 0.000000 1.539670 0.000000 
#    z 0.000000 0.000000 1.636810 
# 
# From -- ./inp_files/28416.got.cif
#   From: 2010.05.17/outbox.cif.g08.bks.cpg/sg23_15_cif.got.tgz:28416.got - 2010.06.04 12:02:01.
