data_PCOD9330662
_publ_section_title
;
Structure prediction by ZEFSAII (Michael W. Deem and Ramdas Pophale) SiO2 
 PCOD9330662
Probable space group: I 2 2 2
;
_chemical_formula_sum "Si O2"
_cell_formula_units_Z 64
_cell_length_a 30.578424
_cell_length_b 11.401102
_cell_length_c 9.841462
_cell_angle_alpha 90.000000
_cell_angle_beta 90.000000
_cell_angle_gamma 90.000000
_cell_volume 3431.006567
_symmetry_space_group_name_H-M "I 2 2 2"
_symmetry_group_IT_number 23
_symmetry_cell_setting 'orthorhombic'
loop_
_space_group_symop_operation_xyz
x,y,z
-x,-y,z
x,-y,-z
-x,y,-z
1/2+x,1/2+y,1/2+z
1/2-x,1/2-y,1/2+z
1/2+x,1/2-y,1/2-z
1/2-x,1/2+y,1/2-z
loop_
_atom_site_type_symbol
_atom_site_label
_atom_site_fract_x
_atom_site_fract_y
_atom_site_fract_z
Si Si1 0.584898 0.211605 0.346119
Si Si2 0.701762 0.634340 0.011466
Si Si3 0.005779 0.872359 0.837481
Si Si4 0.447352 0.996865 0.161573
Si Si5 0.835798 0.859090 0.224223
Si Si6 0.341678 0.621432 0.694255
Si Si7 0.262515 0.634896 0.481965
Si Si8 0.575624 0.788475 0.340085
O O1 0.553368 0.320887 0.313704
O O2 0.634399 0.255566 0.332713
O O3 0.573530 0.173643 0.500850
O O4 0.572415 0.115782 0.235697
O O5 0.668335 0.643863 0.885895
O O6 0.732156 0.750575 0.002715
O O7 0.721576 0.500000 0.000000
O O8 0.677441 0.637539 0.155276
O O9 0.967506 0.783888 0.798154
O O10 0.000000 0.000000 0.775561
O O11 0.000000 0.881341 0.000000
O O12 0.423969 0.103939 0.237835
O O13 0.500000 0.000000 0.185729
O O14 0.440339 0.000000 0.000000
O O15 0.854739 0.984972 0.178826
O O16 0.786809 0.856904 0.163418
O O17 0.302147 0.643602 0.589922
O O18 0.382395 0.705301 0.669940
O O19 0.244281 0.500000 0.500000
#
# Coordination Sequence:
#
# PCOD9330662 Si02
#       8
#     8   8   8   8   8   8   8   8
#     4  11  21  38  62  88 119 156 204 245 297 358
#     4  10  22  40  60  85 124 165 203 250 315 380
#     4   9  18  31  57  90 116 147 192 245 290 347
#     4  11  25  43  61  83 125 169 199 245 303 361
#     4  10  21  38  61  89 123 158 198 254 308 360
#     4  10  21  38  61  89 123 158 198 254 308 360
#     4  10  20  40  64  87 118 159 205 256 313 368
#     4  11  21  38  62  88 119 156 204 245 297 358
#
# _framework density 18.653419
#
# number of rings (size 3 to 8) (size 9 to 14) (size 15 to 20)
#    0.000    1.750    2.500    1.875    1.750    1.500 
#    4.500    0.000    0.000    0.750    0.000    0.000 
#    0.000    0.000    0.000    0.000    0.000    0.000 
#
# Total GULP energy -178440.064223 kJ/mol
# GULP energy per Si atom -5576.252007 kJ/mol
# Density = 1.861096 g / cm^3
# Si number density = 18.653419 Si / 1000 Ang^3
#
#
#
# Elastic Constant Matrix: (Units=GPa)
#
#
# Indices 1 2 3 4 5 6 
#
# 1 35.9710 26.1962 2.0846 0.0000 0.0000 0.0000
# 2 26.1962 102.2341 16.9330 0.0000 0.0000 0.0000
# 3 2.0846 16.9330 87.2119 0.0000 0.0000 0.0000
# 4 0.0000 0.0000 0.0000 22.6063 0.0000 0.0000
# 5 0.0000 0.0000 0.0000 0.0000 15.2821 0.0000
# 6 0.0000 0.0000 0.0000 0.0000 0.0000 36.0783
#
#
#
# Elastic Compliance Matrix: (Units=1/GPa)
#
#
# Indices 1 2 3 4 5 6 
#
# 1 0.034248 -0.008927 0.000915 0.000000 0.000000 0.000000
# 2 -0.008927 0.012433 -0.002201 0.000000 0.000000 0.000000
# 3 0.000915 -0.002201 0.011872 0.000000 0.000000 0.000000
# 4 0.000000 0.000000 0.000000 0.044236 0.000000 0.000000
# 5 0.000000 0.000000 0.000000 0.000000 0.065436 0.000000
# 6 0.000000 0.000000 0.000000 0.000000 0.000000 0.027718
#
#
# Mechanical properties :
#
#
# Convention : Reuss Voigt Hill
#
# Bulk Modulus (GPa) = 26.22798 35.09383 30.66091
# Shear Modulus (GPa) = 21.82661 26.80689 24.31675
#
# Velocity S-wave (km/s) = 3.42440 3.79503 3.61447
# Velocity P-wave (km/s) = 5.45221 6.16907 5.82168
#
# Compressibility (1/GPa) = 0.03812722
#
# Stress axis : x y z
#
# Youngs Moduli (GPa) = 29.19839 80.42815 84.23359
#
# Poissons Ratio (x) = 0.71800 -0.07705
# Poissons Ratio (y) = 0.26066 0.18537
# Poissons Ratio (z) = -0.02671 0.17700
#
# Static dielectric constant tensor:
#      x y z
#    x 1.626220 0.000000 0.000000 
#    y 0.000000 1.695080 0.000000 
#    z 0.000000 0.000000 1.637390 
# 
# From -- ./inp_files/13492.got.cif
#   From: 2010.05.17/outbox.cif.g08.bks.cpg/sg23_7_cif.got.tgz:13492.got - 2010.06.04 12:02:01.
