data_PCOD9330247
_publ_section_title
;
Structure prediction by ZEFSAII (Michael W. Deem and Ramdas Pophale) SiO2 
 PCOD9330247
Probable space group: I 2 2 2
;
_chemical_formula_sum "Si O2"
_cell_formula_units_Z 48
_cell_length_a 10.737063
_cell_length_b 8.108830
_cell_length_c 28.627125
_cell_angle_alpha 90.000000
_cell_angle_beta 90.000000
_cell_angle_gamma 90.000000
_cell_volume 2492.421170
_symmetry_space_group_name_H-M "I 2 2 2"
_symmetry_group_IT_number 23
_symmetry_cell_setting 'orthorhombic'
loop_
_space_group_symop_operation_xyz
x,y,z
-x,-y,z
x,-y,-z
-x,y,-z
1/2+x,1/2+y,1/2+z
1/2-x,1/2-y,1/2+z
1/2+x,1/2-y,1/2-z
1/2-x,1/2+y,1/2-z
loop_
_atom_site_type_symbol
_atom_site_label
_atom_site_fract_x
_atom_site_fract_y
_atom_site_fract_z
Si Si1 0.864758 0.409379 0.863747
Si Si2 0.356850 0.022456 0.263288
Si Si3 0.128613 0.962013 0.897759
Si Si4 0.375671 0.614290 0.110147
Si Si5 0.735974 0.664209 0.317173
Si Si6 0.375990 0.925841 0.052143
O O1 0.832168 0.407271 0.808531
O O2 0.871029 0.226441 0.882769
O O3 0.751175 0.505955 0.888822
O O4 0.000000 0.500000 0.868306
O O5 0.282820 0.976413 0.217314
O O6 0.500000 0.000000 0.251460
O O7 0.327417 0.200287 0.284397
O O8 0.139814 0.085295 0.853536
O O9 0.250912 0.004423 0.926112
O O10 0.000000 0.000000 0.923414
O O11 0.500000 0.500000 0.115219
O O12 0.345579 0.742679 0.153157
O O13 0.382004 0.730710 0.064009
O O14 0.500000 0.000000 0.075613
O O15 0.376370 0.000000 0.000000
#
# Coordination Sequence:
#
# PCOD9330247 Si02
#       6
#     8   8   8   8   8   8
#     4  10  20  37  57  82 116 155 197 244 292 342
#     4  10  20  34  50  76 113 153 198 247 287 336
#     4  11  21  38  62  84 113 156 196 239 293 355
#     4  10  21  38  60  88 118 155 198 241 297 362
#     4  10  22  34  53  83 115 156 204 247 293 341
#     4  10  22  41  63  90 119 150 187 236 297 363
#
# _framework density 19.258382000000001
#
# number of rings (size 3 to 8) (size 9 to 14) (size 15 to 20)
#    0.000    1.833    0.000    6.000    0.000    7.000 
#    0.000    7.500    0.000    1.000    0.000    0.000 
#    0.000    0.000    0.000    0.000    0.000    0.000 
#
# Total GULP energy -133764.172719 kJ/mol
# GULP energy per Si atom -5573.507197 kJ/mol
# Density = 1.921455 g / cm^3
# Si number density = 19.258382 Si / 1000 Ang^3
#
#
#
# Elastic Constant Matrix: (Units=GPa)
#
#
# Indices 1 2 3 4 5 6 
#
# 1 143.7466 46.0847 36.6667 0.0000 0.0000 0.0000
# 2 46.0847 101.9870 29.4723 0.0000 0.0000 0.0000
# 3 36.6667 29.4723 43.0293 0.0000 0.0000 0.0000
# 4 0.0000 0.0000 0.0000 25.0410 0.0000 0.0000
# 5 0.0000 0.0000 0.0000 0.0000 3.7985 0.0000
# 6 0.0000 0.0000 0.0000 0.0000 0.0000 32.5417
#
#
#
# Elastic Compliance Matrix: (Units=1/GPa)
#
#
# Indices 1 2 3 4 5 6 
#
# 1 0.009335 -0.002393 -0.006315 0.000000 0.000000 0.000000
# 2 -0.002393 0.012838 -0.006754 0.000000 0.000000 0.000000
# 3 -0.006315 -0.006754 0.033248 0.000000 0.000000 0.000000
# 4 0.000000 0.000000 0.000000 0.039934 0.000000 0.000000
# 5 0.000000 0.000000 0.000000 0.000000 0.263260 0.000000
# 6 0.000000 0.000000 0.000000 0.000000 0.000000 0.030730
#
#
# Mechanical properties :
#
#
# Convention : Reuss Voigt Hill
#
# Bulk Modulus (GPa) = 40.82383 57.02339 48.92361
# Shear Modulus (GPa) = 11.67035 24.04552 17.85794
#
# Velocity S-wave (km/s) = 2.46435 3.53735 3.04843
# Velocity P-wave (km/s) = 5.41677 6.80865 6.15220
#
# Compressibility (1/GPa) = 0.02449550
#
# Stress axis : x y z
#
# Youngs Moduli (GPa) = 107.12573 77.89146 30.07721
#
# Poissons Ratio (x) = 0.18640 0.18995
# Poissons Ratio (y) = 0.25636 0.20315
# Poissons Ratio (z) = 0.67654 0.52610
#
# Static dielectric constant tensor:
#      x y z
#    x 1.689520 0.000000 0.000000 
#    y 0.000000 1.688800 0.000000 
#    z 0.000000 0.000000 1.691880 
# 
# From -- ./inp_files/13329.got.cif
#   From: 2010.05.17/outbox.cif.g08.bks.cpg/sg23_7_cif.got.tgz:13329.got - 2010.06.04 12:02:01.
