data_PCOD9330501
_publ_section_title
;
Structure prediction by ZEFSAII (Michael W. Deem and Ramdas Pophale) SiO2 
 PCOD9330501
Probable space group: I 2 2 2
;
_chemical_formula_sum "Si O2"
_cell_formula_units_Z 36
_cell_length_a 14.394119
_cell_length_b 13.577891
_cell_length_c 7.244858
_cell_angle_alpha 90.000000
_cell_angle_beta 90.000000
_cell_angle_gamma 90.000000
_cell_volume 1415.947935
_symmetry_space_group_name_H-M "I 2 2 2"
_symmetry_group_IT_number 23
_symmetry_cell_setting 'orthorhombic'
loop_
_space_group_symop_operation_xyz
x,y,z
-x,-y,z
x,-y,-z
-x,y,-z
1/2+x,1/2+y,1/2+z
1/2-x,1/2-y,1/2+z
1/2+x,1/2-y,1/2-z
1/2-x,1/2+y,1/2-z
loop_
_atom_site_type_symbol
_atom_site_label
_atom_site_fract_x
_atom_site_fract_y
_atom_site_fract_z
Si Si1 0.090471 0.694396 0.802309
Si Si2 0.487988 0.389038 0.223514
Si Si3 0.797456 0.814898 0.680929
Si Si4 0.278646 0.000000 0.500000
Si Si5 0.603910 0.124461 0.727939
O O1 0.195862 0.691034 0.731299
O O2 0.057126 0.806469 0.793663
O O3 0.004598 0.631525 0.715671
O O4 0.099132 0.663198 0.015786
O O5 0.500000 0.500000 0.279986
O O6 0.384874 0.359468 0.286352
O O7 0.500000 0.383038 0.000000
O O8 0.782210 0.901336 0.527129
O O9 0.835647 0.703088 0.657480
O O10 0.342523 0.022585 0.317918
#
# Coordination Sequence:
#
# PCOD9330501 Si02
#       5
#     8   8   8   4   8
#     4   9  20  36  57  83 126 152 203 264 300 373
#     4  10  21  36  59  89 117 159 207 255 313 377
#     4  10  21  34  59  91 118 159 207 249 314 375
#     4  10  20  37  67  86 120 168 207 258 321 380
#     4   9  20  38  57  90 116 157 209 256 308 368
#
# _framework density 25.424662999999999
#
# number of rings (size 3 to 8) (size 9 to 14) (size 15 to 20)
#    0.000    2.444    0.000    1.333    9.333    7.111 
#    0.000    8.889    0.000    0.000    0.000    6.222 
#    0.000    0.000    0.000    0.000    0.000    0.000 
#
# Total GULP energy -100308.126168 kJ/mol
# GULP energy per Si atom -5572.673676 kJ/mol
# Density = 2.536680 g / cm^3
# Si number density = 25.424663 Si / 1000 Ang^3
#
#
#
# Elastic Constant Matrix: (Units=GPa)
#
#
# Indices 1 2 3 4 5 6 
#
# 1 231.6759 65.5471 19.2622 0.0000 0.0000 0.0000
# 2 65.5471 94.7384 -10.6772 0.0000 0.0000 0.0000
# 3 19.2622 -10.6772 74.3552 0.0000 0.0000 0.0000
# 4 0.0000 0.0000 0.0000 -1.8278 0.0000 0.0000
# 5 0.0000 0.0000 0.0000 0.0000 11.3479 0.0000
# 6 0.0000 0.0000 0.0000 0.0000 0.0000 45.2428
#
#
#
# Elastic Compliance Matrix: (Units=1/GPa)
#
#
# Indices 1 2 3 4 5 6 
#
# 1 0.005662 -0.004150 -0.002063 0.000000 0.000000 0.000000
# 2 -0.004150 0.013771 0.003052 0.000000 0.000000 0.000000
# 3 -0.002063 0.003052 0.014422 0.000000 0.000000 0.000000
# 4 0.000000 0.000000 0.000000 -0.547114 0.000000 0.000000
# 5 0.000000 0.000000 0.000000 0.000000 0.088122 0.000000
# 6 0.000000 0.000000 0.000000 0.000000 0.000000 0.022103
#
#
# Mechanical properties :
#
#
# Convention : Reuss Voigt Hill
#
# Bulk Modulus (GPa) = 36.31865 61.00375 48.66120
# Shear Modulus (GPa) = -12.90199 32.72840 9.91320
#
# Velocity S-wave (km/s) = -2.25513 3.59175 1.97674
# Velocity P-wave (km/s) = 2.74500 6.42237 4.93872
#
# Compressibility (1/GPa) = 0.02753406
#
# Stress axis : x y z
#
# Youngs Moduli (GPa) = 176.61701 72.61865 69.34023
#
# Poissons Ratio (x) = 0.30136 0.14303
# Poissons Ratio (y) = 0.73293 -0.21166
# Poissons Ratio (z) = 0.36430 -0.22167
#
# Static dielectric constant tensor:
#      x y z
#    x 2.167400 0.000000 0.000000 
#    y 0.000000 2.031750 0.000000 
#    z 0.000000 0.000000 2.063800 
# 
# From -- ./inp_files/9481.got.cif
#   From: 2010.05.17/outbox.cif.g08.bks.cpg/sg23_5_cif.got.tgz:9481.got - 2010.06.04 12:02:01.
