data_PCOD9330362
_publ_section_title
;
Structure prediction by ZEFSAII (Michael W. Deem and Ramdas Pophale) SiO2 
 PCOD9330362
Probable space group: I 2 2 2
;
_chemical_formula_sum "Si O2"
_cell_formula_units_Z 48
_cell_length_a 9.283823
_cell_length_b 7.990524
_cell_length_c 27.013179
_cell_angle_alpha 90.000000
_cell_angle_beta 90.000000
_cell_angle_gamma 90.000000
_cell_volume 2003.908136
_symmetry_space_group_name_H-M "I 2 2 2"
_symmetry_group_IT_number 23
_symmetry_cell_setting 'orthorhombic'
loop_
_space_group_symop_operation_xyz
x,y,z
-x,-y,z
x,-y,-z
-x,y,-z
1/2+x,1/2+y,1/2+z
1/2-x,1/2-y,1/2+z
1/2+x,1/2-y,1/2-z
1/2-x,1/2+y,1/2-z
loop_
_atom_site_type_symbol
_atom_site_label
_atom_site_fract_x
_atom_site_fract_y
_atom_site_fract_z
Si Si1 0.080701 0.820182 0.455373
Si Si2 0.327284 0.906064 0.196989
Si Si3 0.595565 0.131937 0.708268
Si Si4 0.075823 0.318150 0.049838
Si Si5 0.863211 0.806202 0.157306
Si Si6 0.936459 0.815496 0.654236
O O1 0.252532 0.837377 0.461238
O O2 0.000000 0.729216 0.500000
O O3 0.051044 0.748742 0.401733
O O4 0.000000 0.000000 0.452396
O O5 0.349792 0.009734 0.247550
O O6 0.482173 0.826238 0.184365
O O7 0.236005 0.735658 0.197193
O O8 0.230480 0.024183 0.161708
O O9 0.476879 0.284173 0.702001
O O10 0.500000 0.000000 0.676079
O O11 0.068986 0.219002 0.102373
O O12 0.000000 0.500000 0.056357
O O13 0.000000 0.245137 0.000000
O O14 0.732852 0.673919 0.164271
O O15 0.000000 0.000000 0.659900
#
# Coordination Sequence:
#
# PCOD9330362 Si02
#       6
#     8   8   8   8   8   8
#     4   9  17  32  59  97 134 172 223 277 335 405
#     4  12  27  46  69  99 137 183 235 294 358 424
#     4  12  26  45  70  98 132 177 232 290 351 422
#     4  10  20  35  64 103 142 186 236 286 345 421
#     4  11  24  44  68 101 141 184 232 289 350 419
#     4  10  22  42  69 101 138 182 231 288 353 419
#
# _framework density 23.953192000000001
#
# number of rings (size 3 to 8) (size 9 to 14) (size 15 to 20)
#    0.000    1.333    0.000    6.500    0.000    5.333 
#    0.000    3.333    0.000   18.000    0.000    4.667 
#    0.000    0.000    0.000    0.000    0.000    0.000 
#
# Total GULP energy -133644.325174 kJ/mol
# GULP energy per Si atom -5568.513549 kJ/mol
# Density = 2.389867 g / cm^3
# Si number density = 23.953192 Si / 1000 Ang^3
#
#
#
# Elastic Constant Matrix: (Units=GPa)
#
#
# Indices 1 2 3 4 5 6 
#
# 1 86.2777 6.0163 28.3045 0.0000 0.0000 0.0000
# 2 6.0163 72.2207 45.9677 0.0000 0.0000 0.0000
# 3 28.3045 45.9677 136.9499 0.0000 0.0000 0.0000
# 4 0.0000 0.0000 0.0000 21.2300 0.0000 0.0000
# 5 0.0000 0.0000 0.0000 0.0000 34.8971 0.0000
# 6 0.0000 0.0000 0.0000 0.0000 0.0000 27.8119
#
#
#
# Elastic Compliance Matrix: (Units=1/GPa)
#
#
# Indices 1 2 3 4 5 6 
#
# 1 0.012467 0.000765 -0.002833 0.000000 0.000000 0.000000
# 2 0.000765 0.017655 -0.006084 0.000000 0.000000 0.000000
# 3 -0.002833 -0.006084 0.009930 0.000000 0.000000 0.000000
# 4 0.000000 0.000000 0.000000 0.047103 0.000000 0.000000
# 5 0.000000 0.000000 0.000000 0.000000 0.028656 0.000000
# 6 0.000000 0.000000 0.000000 0.000000 0.000000 0.035956
#
#
# Mechanical properties :
#
#
# Convention : Reuss Voigt Hill
#
# Bulk Modulus (GPa) = 42.11166 50.66948 46.39057
# Shear Modulus (GPa) = 28.41120 31.13177 29.77149
#
# Velocity S-wave (km/s) = 3.44774 3.60904 3.52931
# Velocity P-wave (km/s) = 5.78517 6.21018 6.00144
#
# Compressibility (1/GPa) = 0.02374639
#
# Stress axis : x y z
#
# Youngs Moduli (GPa) = 80.21398 56.64048 100.70820
#
# Poissons Ratio (x) = -0.04332 0.28534
# Poissons Ratio (y) = -0.06135 0.61272
# Poissons Ratio (z) = 0.22727 0.34461
#
# Static dielectric constant tensor:
#      x y z
#    x 2.001080 0.000000 0.000000 
#    y 0.000000 1.998810 0.000000 
#    z 0.000000 0.000000 2.342140 
# 
# From -- ./inp_files/30212.got.cif
#   From: 2010.05.17/outbox.cif.g08.bks.cpg/sg23_16_cif.got.tgz:30212.got - 2010.06.04 12:02:01.
