data_PCOD9330153
_publ_section_title
;
Structure prediction by ZEFSAII (Michael W. Deem and Ramdas Pophale) SiO2 
 PCOD9330153
Probable space group: I 2 2 2
;
_chemical_formula_sum "Si O2"
_cell_formula_units_Z 40
_cell_length_a 9.224871
_cell_length_b 14.481603
_cell_length_c 13.266917
_cell_angle_alpha 90.000000
_cell_angle_beta 90.000000
_cell_angle_gamma 90.000000
_cell_volume 1772.339642
_symmetry_space_group_name_H-M "I 2 2 2"
_symmetry_group_IT_number 23
_symmetry_cell_setting 'orthorhombic'
loop_
_space_group_symop_operation_xyz
x,y,z
-x,-y,z
x,-y,-z
-x,y,-z
1/2+x,1/2+y,1/2+z
1/2-x,1/2-y,1/2+z
1/2+x,1/2-y,1/2-z
1/2-x,1/2+y,1/2-z
loop_
_atom_site_type_symbol
_atom_site_label
_atom_site_fract_x
_atom_site_fract_y
_atom_site_fract_z
Si Si1 0.852879 0.829181 0.728992
Si Si2 0.194839 0.659595 0.572303
Si Si3 0.164817 0.506778 0.832932
Si Si4 0.108205 0.130144 0.412162
Si Si5 0.369206 0.877037 0.854092
O O1 0.821958 0.847742 0.846303
O O2 0.837894 0.721403 0.700137
O O3 0.009340 0.860509 0.688244
O O4 0.731170 0.891238 0.673516
O O5 0.167912 0.769195 0.559631
O O6 0.211247 0.617710 0.461381
O O7 0.041060 0.624334 0.618444
O O8 0.266932 0.442502 0.898449
O O9 0.167750 0.457941 0.722598
O O10 0.000000 0.500000 0.867135
O O11 0.000000 0.103473 0.500000
#
# Coordination Sequence:
#
# PCOD9330153 Si02
#       5
#     8   8   8   8   8
#     4  11  22  40  69 101 136 187 228 283 357 413
#     4  10  19  41  73  99 132 188 231 278 354 417
#     4  12  25  41  70 107 136 178 236 297 345 422
#     4  11  23  45  70  96 140 192 231 288 359 421
#     4  10  21  41  68  99 137 179 230 284 347 415
#
# _framework density 22.569037000000002
#
# number of rings (size 3 to 8) (size 9 to 14) (size 15 to 20)
#    0.000    1.200    8.000    0.600    0.000    2.400 
#    0.000    3.000    8.800    2.400    0.000    0.000 
#    0.000    0.000    0.000    0.000    0.000    0.000 
#
# Total GULP energy -111968.050247 kJ/mol
# GULP energy per Si atom -5598.402512 kJ/mol
# Density = 2.251767 g / cm^3
# Si number density = 22.569037 Si / 1000 Ang^3
#
#
#
# Elastic Constant Matrix: (Units=GPa)
#
#
# Indices 1 2 3 4 5 6 
#
# 1 90.6566 33.0729 41.4413 0.0000 0.0000 0.0000
# 2 33.0729 98.3538 10.1374 0.0000 0.0000 0.0000
# 3 41.4413 10.1374 119.8032 0.0000 0.0000 0.0000
# 4 0.0000 0.0000 0.0000 28.0318 0.0000 0.0000
# 5 0.0000 0.0000 0.0000 0.0000 43.3187 0.0000
# 6 0.0000 0.0000 0.0000 0.0000 0.0000 26.3706
#
#
#
# Elastic Compliance Matrix: (Units=1/GPa)
#
#
# Indices 1 2 3 4 5 6 
#
# 1 0.014847 -0.004502 -0.004755 0.000000 0.000000 0.000000
# 2 -0.004502 0.011622 0.000574 0.000000 0.000000 0.000000
# 3 -0.004755 0.000574 0.009943 0.000000 0.000000 0.000000
# 4 0.000000 0.000000 0.000000 0.035674 0.000000 0.000000
# 5 0.000000 0.000000 0.000000 0.000000 0.023085 0.000000
# 6 0.000000 0.000000 0.000000 0.000000 0.000000 0.037921
#
#
# Mechanical properties :
#
#
# Convention : Reuss Voigt Hill
#
# Bulk Modulus (GPa) = 52.50461 53.12410 52.81435
# Shear Modulus (GPa) = 31.88650 34.48833 33.18742
#
# Velocity S-wave (km/s) = 3.76286 3.91337 3.83885
# Velocity P-wave (km/s) = 6.49564 6.63392 6.56514
#
# Compressibility (1/GPa) = 0.01904595
#
# Stress axis : x y z
#
# Youngs Moduli (GPa) = 67.35542 86.04232 100.57180
#
# Poissons Ratio (x) = 0.38739 0.47818
# Poissons Ratio (y) = 0.30326 -0.05773
# Poissons Ratio (z) = 0.32025 -0.04939
#
# Static dielectric constant tensor:
#      x y z
#    x 1.797200 0.000000 0.000000 
#    y 0.000000 1.832210 0.000000 
#    z 0.000000 0.000000 1.888880 
# 
# From -- ./inp_files/19765.got.cif
#   From: 2010.05.17/outbox.cif.g08.bks.cpg/sg23_10_cif.got.tgz:19765.got - 2010.06.04 12:02:01.
