data_PCOD9330912
_publ_section_title
;
Structure prediction by ZEFSAII (Michael W. Deem and Ramdas Pophale) SiO2 
 PCOD9330912
Probable space group: I 2 2 2
;
_chemical_formula_sum "Si O2"
_cell_formula_units_Z 58
_cell_length_a 12.933678
_cell_length_b 24.988067
_cell_length_c 9.104182
_cell_angle_alpha 90.000000
_cell_angle_beta 90.000000
_cell_angle_gamma 90.000000
_cell_volume 2942.358844
_symmetry_space_group_name_H-M "I 2 2 2"
_symmetry_group_IT_number 23
_symmetry_cell_setting 'orthorhombic'
loop_
_space_group_symop_operation_xyz
x,y,z
-x,-y,z
x,-y,-z
-x,y,-z
1/2+x,1/2+y,1/2+z
1/2-x,1/2-y,1/2+z
1/2+x,1/2-y,1/2-z
1/2-x,1/2+y,1/2-z
loop_
_atom_site_type_symbol
_atom_site_label
_atom_site_fract_x
_atom_site_fract_y
_atom_site_fract_z
Si Si1 0.253080 0.380755 0.755139
Si Si2 0.880259 0.592504 0.493405
Si Si3 0.880001 0.673012 0.014826
Si Si4 0.383589 0.437320 0.996112
Si Si5 0.618058 0.221997 0.015492
Si Si6 0.299237 0.731063 0.319306
Si Si7 0.500000 0.000000 0.500000
Si Si8 0.325622 0.071464 0.678982
O O1 0.182477 0.414394 0.644213
O O2 0.180036 0.349315 0.872625
O O3 0.329373 0.416859 0.848284
O O4 0.313993 0.332741 0.674763
O O5 0.878419 0.657453 0.474578
O O6 0.831844 0.563708 0.352759
O O7 0.000000 0.576568 0.500000
O O8 0.857971 0.733505 0.060686
O O9 0.850251 0.633489 0.146457
O O10 0.000000 0.666033 0.000000
O O11 0.398441 0.500000 0.000000
O O12 0.500000 0.412549 0.000000
O O13 0.291212 0.431795 0.116662
O O14 0.669050 0.247821 0.159622
O O15 0.500000 0.238765 0.000000
O O16 0.680631 0.239008 0.870122
O O17 0.416813 0.036493 0.595299
#
# Coordination Sequence:
#
# PCOD9330912 Si02
#       8
#     8   8   8   8   8   8   2   8
#     4  10  23  40  59  94 132 160 222 276 308 394
#     4  10  21  37  63  93 132 172 204 267 345 393
#     4  11  21  36  62  86 123 175 210 257 323 391
#     4  10  23  46  71  91 121 176 229 267 324 389
#     4  10  22  37  57  84 126 173 217 262 317 384
#     4  11  21  37  55  91 123 166 215 257 314 381
#     4  12  24  40  68 104 136 156 222 286 328 390
#     4  11  22  40  67  98 131 167 217 272 328 392
#
# _framework density 19.712077000000001
#
# number of rings (size 3 to 8) (size 9 to 14) (size 15 to 20)
#    0.000    1.517    4.138    0.828    5.793    0.552 
#    0.000    5.862    0.000    1.655    0.000    0.000 
#    0.000    0.000    0.000    0.000    0.000    0.000 
#
# Total GULP energy -161572.090195 kJ/mol
# GULP energy per Si atom -5571.451386 kJ/mol
# Density = 1.966721 g / cm^3
# Si number density = 19.712077 Si / 1000 Ang^3
#
#
#
# Elastic Constant Matrix: (Units=GPa)
#
#
# Indices 1 2 3 4 5 6 
#
# 1 162.2737 31.4884 75.1985 -0.0014 -0.0001 -0.0002
# 2 31.4884 41.1381 19.4990 -0.0015 0.0001 0.0001
# 3 75.1985 19.4990 132.1160 -0.0166 0.0009 -0.0008
# 4 -0.0014 -0.0015 -0.0166 97.8297 0.0007 -0.0010
# 5 -0.0001 0.0001 0.0009 0.0007 21.0958 0.0002
# 6 -0.0002 0.0001 -0.0008 -0.0010 0.0002 25.7069
#
#
#
# Elastic Compliance Matrix: (Units=1/GPa)
#
#
# Indices 1 2 3 4 5 6 
#
# 1 0.009208 -0.004907 -0.004517 -0.000001 0.000000 0.000000
# 2 -0.004907 0.028752 -0.001451 0.000000 0.000000 0.000000
# 3 -0.004517 -0.001451 0.010354 0.000002 0.000000 0.000000
# 4 -0.000001 0.000000 0.000002 0.010222 0.000000 0.000000
# 5 0.000000 0.000000 0.000000 0.000000 0.047403 0.000000
# 6 0.000000 0.000000 0.000000 0.000000 0.000000 0.038900
#
#
# Mechanical properties :
#
#
# Convention : Reuss Voigt Hill
#
# Bulk Modulus (GPa) = 37.64319 65.32219 51.48269
# Shear Modulus (GPa) = 28.49952 42.88260 35.69106
#
# Velocity S-wave (km/s) = 3.80648 4.66923 4.25975
# Velocity P-wave (km/s) = 6.20137 7.89171 7.09704
#
# Compressibility (1/GPa) = 0.02656523
#
# Stress axis : x y z
#
# Youngs Moduli (GPa) = 108.60559 34.78038 96.58123
#
# Poissons Ratio (x) = 0.17067 0.43622
# Poissons Ratio (y) = 0.53293 0.14009
# Poissons Ratio (z) = 0.49053 0.05045
#
# Static dielectric constant tensor:
#      x y z
#    x 1.765370 0.000000 0.000000 
#    y 0.000000 1.696920 0.000000 
#    z 0.000000 0.000000 1.740880 
# 
# From -- ./inp_files/8868.got.cif
#   From: 2010.05.17/outbox.cif.g08.bks.cpg/sg23_5_cif.got.tgz:8868.got - 2010.06.04 12:02:01.
