data_PCOD9330992
_publ_section_title
;
Structure prediction by ZEFSAII (Michael W. Deem and Ramdas Pophale) SiO2 
 PCOD9330992
Probable space group: I 2 2 2
;
_chemical_formula_sum "Si O2"
_cell_formula_units_Z 32
_cell_length_a 7.510087
_cell_length_b 7.953369
_cell_length_c 23.056932
_cell_angle_alpha 90.000000
_cell_angle_beta 90.000000
_cell_angle_gamma 90.000000
_cell_volume 1377.201918
_symmetry_space_group_name_H-M "I 2 2 2"
_symmetry_group_IT_number 23
_symmetry_cell_setting 'orthorhombic'
loop_
_space_group_symop_operation_xyz
x,y,z
-x,-y,z
x,-y,-z
-x,y,-z
1/2+x,1/2+y,1/2+z
1/2-x,1/2-y,1/2+z
1/2+x,1/2-y,1/2-z
1/2-x,1/2+y,1/2-z
loop_
_atom_site_type_symbol
_atom_site_label
_atom_site_fract_x
_atom_site_fract_y
_atom_site_fract_z
Si Si1 0.607072 0.324469 0.377898
Si Si2 0.534328 0.798180 0.067046
Si Si3 0.711717 0.500884 0.731535
Si Si4 0.250542 0.824666 0.656963
O O1 0.500000 0.500000 0.390935
O O2 0.756823 0.271022 0.422197
O O3 0.723594 0.359406 0.319229
O O4 0.441855 0.202009 0.371585
O O5 0.405969 0.691757 0.109869
O O6 0.500000 0.000000 0.077107
O O7 0.500000 0.761977 0.000000
O O8 0.500000 0.500000 0.738987
O O9 0.781485 0.333510 0.701029
O O10 0.774940 0.528588 0.796337
#
# Coordination Sequence:
#
# PCOD9330992 Si02
#       4
#     8   8   8   8
#     4   9  19  35  49  85 117 151 195 249 305 363
#     4  11  21  34  57  85 118 163 209 261 318 363
#     4   9  20  35  57  90 122 156 199 251 308 368
#     4  10  21  39  56  86 126 157 200 254 311 374
#
# _framework density 23.235517999999999
#
# number of rings (size 3 to 8) (size 9 to 14) (size 15 to 20)
#    0.000    2.750    5.000    0.000    7.000    1.000 
#    0.000    0.000    0.000    0.750    0.000    0.000 
#   15.000    0.000    0.000    0.000    0.000    0.000 
#
# Total GULP energy -89292.716902 kJ/mol
# GULP energy per Si atom -5580.794806 kJ/mol
# Density = 2.318263 g / cm^3
# Si number density = 23.235518 Si / 1000 Ang^3
#
#
#
# Elastic Constant Matrix: (Units=GPa)
#
#
# Indices 1 2 3 4 5 6 
#
# 1 125.4174 22.9559 93.0400 0.0000 0.0000 0.0000
# 2 22.9559 59.0331 27.6057 0.0000 0.0000 0.0000
# 3 93.0400 27.6057 148.8035 0.0000 0.0000 0.0000
# 4 0.0000 0.0000 0.0000 5.8099 0.0000 0.0000
# 5 0.0000 0.0000 0.0000 0.0000 49.8930 0.0000
# 6 0.0000 0.0000 0.0000 0.0000 0.0000 7.3007
#
#
#
# Elastic Compliance Matrix: (Units=1/GPa)
#
#
# Indices 1 2 3 4 5 6 
#
# 1 0.015006 -0.001585 -0.009088 0.000000 0.000000 0.000000
# 2 -0.001585 0.018716 -0.002481 0.000000 0.000000 0.000000
# 3 -0.009088 -0.002481 0.012863 0.000000 0.000000 0.000000
# 4 0.000000 0.000000 0.000000 0.172121 0.000000 0.000000
# 5 0.000000 0.000000 0.000000 0.000000 0.020043 0.000000
# 6 0.000000 0.000000 0.000000 0.000000 0.000000 0.136973
#
#
# Mechanical properties :
#
#
# Convention : Reuss Voigt Hill
#
# Bulk Modulus (GPa) = 49.31962 68.93972 59.12967
# Shear Modulus (GPa) = 12.23125 25.24421 18.73773
#
# Velocity S-wave (km/s) = 2.29684 3.29971 2.84285
# Velocity P-wave (km/s) = 5.32034 6.65220 6.02320
#
# Compressibility (1/GPa) = 0.02027591
#
# Stress axis : x y z
#
# Youngs Moduli (GPa) = 66.64210 53.42937 77.74251
#
# Poissons Ratio (x) = 0.08470 0.70654
# Poissons Ratio (y) = 0.10564 0.19288
# Poissons Ratio (z) = 0.60566 0.13256
#
# Static dielectric constant tensor:
#      x y z
#    x 1.846740 0.000000 0.000000 
#    y 0.000000 2.083630 0.000000 
#    z 0.000000 0.000000 1.943870 
# 
# From -- ./inp_files/27832.got.cif
#   From: 2010.05.17/outbox.cif.g08.bks.cpg/sg23_14_cif.got.tgz:27832.got - 2010.06.04 12:02:01.
