data_PCOD9330327
_publ_section_title
;
Structure prediction by ZEFSAII (Michael W. Deem and Ramdas Pophale) SiO2 
 PCOD9330327
Probable space group: I 2 2 2
;
_chemical_formula_sum "Si O2"
_cell_formula_units_Z 64
_cell_length_a 24.829716
_cell_length_b 8.662577
_cell_length_c 15.290750
_cell_angle_alpha 90.000000
_cell_angle_beta 90.000000
_cell_angle_gamma 90.000000
_cell_volume 3288.877123
_symmetry_space_group_name_H-M "I 2 2 2"
_symmetry_group_IT_number 23
_symmetry_cell_setting 'orthorhombic'
loop_
_space_group_symop_operation_xyz
x,y,z
-x,-y,z
x,-y,-z
-x,y,-z
1/2+x,1/2+y,1/2+z
1/2-x,1/2-y,1/2+z
1/2+x,1/2-y,1/2-z
1/2-x,1/2+y,1/2-z
loop_
_atom_site_type_symbol
_atom_site_label
_atom_site_fract_x
_atom_site_fract_y
_atom_site_fract_z
Si Si1 0.281688 0.310695 0.728524
Si Si2 0.316918 0.642173 0.708438
Si Si3 0.618649 0.189153 0.857871
Si Si4 0.634707 0.896052 0.632957
Si Si5 0.276936 0.833004 0.956092
Si Si6 0.326985 0.212855 0.457532
Si Si7 0.003100 0.817105 0.400864
Si Si8 0.442748 0.911985 0.213511
O O1 0.308108 0.474350 0.750550
O O2 0.239976 0.233405 0.794302
O O3 0.324629 0.183126 0.700968
O O4 0.247871 0.346487 0.640862
O O5 0.355037 0.740978 0.770608
O O6 0.336408 0.644765 0.608360
O O7 0.661283 0.212463 0.936500
O O8 0.562564 0.273434 0.870672
O O9 0.601516 0.012011 0.839850
O O10 0.636567 0.793884 0.544579
O O11 0.579782 0.902242 0.687708
O O12 0.657902 0.060089 0.598622
O O13 0.234736 0.722544 0.006970
O O14 0.275795 0.000000 0.000000
O O15 0.000000 0.754641 0.500000
O O16 0.957659 0.743567 0.338280
O O17 0.000000 0.000000 0.402008
O O18 0.500000 0.000000 0.213950
#
# Coordination Sequence:
#
# PCOD9330327 Si02
#       8
#     8   8   8   8   8   8   8   8
#     4  10  22  34  57  87 124 164 210 242 312 378
#     4  11  20  37  56  87 127 166 206 257 303 387
#     4  10  23  38  62  90 117 161 210 253 321 378
#     4  10  21  38  60  93 117 171 211 257 327 373
#     4  10  20  35  56  90 122 163 204 247 299 378
#     4  10  20  37  60  83 134 164 201 260 307 378
#     4  10  24  46  64  91 126 156 211 273 331 377
#     4  10  22  41  68  90 121 163 217 272 321 383
#
# _framework density 19.459527999999999
#
# number of rings (size 3 to 8) (size 9 to 14) (size 15 to 20)
#    0.000    1.875    2.500    0.750    5.250    2.750 
#    0.000    8.750    0.000    0.000    0.000    0.875 
#    0.000    0.000    0.000    0.000    0.000    0.000 
#
# Total GULP energy -178379.251456 kJ/mol
# GULP energy per Si atom -5574.351608 kJ/mol
# Density = 1.941524 g / cm^3
# Si number density = 19.459528 Si / 1000 Ang^3
#
#
#
# Elastic Constant Matrix: (Units=GPa)
#
#
# Indices 1 2 3 4 5 6 
#
# 1 69.9469 27.8142 27.8122 0.0000 0.0000 0.0000
# 2 27.8142 59.0490 24.0208 0.0000 0.0000 0.0000
# 3 27.8122 24.0208 82.2330 0.0000 0.0000 0.0000
# 4 0.0000 0.0000 0.0000 29.2489 0.0000 0.0000
# 5 0.0000 0.0000 0.0000 0.0000 30.7035 0.0000
# 6 0.0000 0.0000 0.0000 0.0000 0.0000 20.9156
#
#
#
# Elastic Compliance Matrix: (Units=1/GPa)
#
#
# Indices 1 2 3 4 5 6 
#
# 1 0.018836 -0.007128 -0.004289 0.000000 0.000000 0.000000
# 2 -0.007128 0.021916 -0.003991 0.000000 0.000000 0.000000
# 3 -0.004289 -0.003991 0.014777 0.000000 0.000000 0.000000
# 4 0.000000 0.000000 0.000000 0.034189 0.000000 0.000000
# 5 0.000000 0.000000 0.000000 0.000000 0.032570 0.000000
# 6 0.000000 0.000000 0.000000 0.000000 0.000000 0.047811
#
#
# Mechanical properties :
#
#
# Convention : Reuss Voigt Hill
#
# Bulk Modulus (GPa) = 40.46285 41.16927 40.81606
# Shear Modulus (GPa) = 23.90602 24.94571 24.42587
#
# Velocity S-wave (km/s) = 3.50880 3.58429 3.54674
# Velocity P-wave (km/s) = 6.10361 6.19127 6.14759
#
# Compressibility (1/GPa) = 0.02471403
#
# Stress axis : x y z
#
# Youngs Moduli (GPa) = 53.08936 45.62842 67.67361
#
# Poissons Ratio (x) = 0.32524 0.29022
# Poissons Ratio (y) = 0.37842 0.27009
# Poissons Ratio (z) = 0.22767 0.18211
#
# Static dielectric constant tensor:
#      x y z
#    x 1.715530 0.000000 0.000000 
#    y 0.000000 1.731030 0.000000 
#    z 0.000000 0.000000 1.720710 
# 
# From -- ./inp_files/22596.got.cif
#   From: 2010.05.17/outbox.cif.g08.bks.cpg/sg23_12_cif.got.tgz:22596.got - 2010.06.04 12:02:01.
