data_PCOD9330118
_publ_section_title
;
Structure prediction by ZEFSAII (Michael W. Deem and Ramdas Pophale) SiO2 
 PCOD9330118
Probable space group: I 2 2 2
;
_chemical_formula_sum "Si O2"
_cell_formula_units_Z 64
_cell_length_a 20.146459
_cell_length_b 15.727879
_cell_length_c 9.278996
_cell_angle_alpha 90.000000
_cell_angle_beta 90.000000
_cell_angle_gamma 90.000000
_cell_volume 2940.152596
_symmetry_space_group_name_H-M "I 2 2 2"
_symmetry_group_IT_number 23
_symmetry_cell_setting 'orthorhombic'
loop_
_space_group_symop_operation_xyz
x,y,z
-x,-y,z
x,-y,-z
-x,y,-z
1/2+x,1/2+y,1/2+z
1/2-x,1/2-y,1/2+z
1/2+x,1/2-y,1/2-z
1/2-x,1/2+y,1/2-z
loop_
_atom_site_type_symbol
_atom_site_label
_atom_site_fract_x
_atom_site_fract_y
_atom_site_fract_z
Si Si1 0.360955 0.391424 0.489570
Si Si2 0.327935 0.389374 0.961697
Si Si3 0.741032 0.383217 0.753745
Si Si4 0.349868 0.096938 0.966554
Si Si5 0.430332 0.755938 0.944796
Si Si6 0.024765 0.781687 0.149607
Si Si7 0.561195 0.435777 0.247368
Si Si8 0.255001 0.684353 0.312538
O O1 0.305848 0.417776 0.373770
O O2 0.419373 0.348152 0.400684
O O3 0.395138 0.450447 0.609891
O O4 0.320326 0.321984 0.586274
O O5 0.284871 0.421899 0.096689
O O6 0.371162 0.309915 0.024380
O O7 0.387119 0.439867 0.882482
O O8 0.277321 0.360138 0.836182
O O9 0.813383 0.398780 0.687921
O O10 0.736635 0.280993 0.774295
O O11 0.412513 0.158716 0.971307
O O12 0.301024 0.136239 0.092311
O O13 0.364343 0.000000 0.000000
O O14 0.442091 0.772485 0.775446
O O15 0.500000 0.719444 0.000000
O O16 0.967904 0.841498 0.219964
O O17 0.000000 0.740713 0.000000
O O18 0.500000 0.500000 0.231495
#
# Coordination Sequence:
#
# PCOD9330118 Si02
#       8
#     8   8   8   8   8   8   8   8
#     4   9  19  33  57  89 122 167 226 253 322 389
#     4  11  20  38  68  98 128 176 229 267 329 398
#     4  11  19  39  69  96 121 171 224 279 330 395
#     4  11  25  44  67 100 134 168 224 286 343 391
#     4  12  22  40  68  94 132 167 221 277 328 405
#     4  10  20  35  59  90 125 171 223 257 310 393
#     4  10  22  39  54  87 141 181 214 270 329 390
#     4  10  19  38  65  97 127 169 220 281 336 393
#
# _framework density 21.767576999999999
#
# number of rings (size 3 to 8) (size 9 to 14) (size 15 to 20)
#    0.000    1.500    5.000    0.750    0.000    2.500 
#   13.500    3.750    0.000    0.000    0.000    2.625 
#    0.000    0.000    0.000    0.000    0.000    0.000 
#
# Total GULP energy -178679.027005 kJ/mol
# GULP energy per Si atom -5583.719594 kJ/mol
# Density = 2.171803 g / cm^3
# Si number density = 21.767577 Si / 1000 Ang^3
#
#
#
# Elastic Constant Matrix: (Units=GPa)
#
#
# Indices 1 2 3 4 5 6 
#
# 1 48.1196 1.3448 32.3444 0.0000 0.0000 0.0000
# 2 1.3448 48.0797 16.3931 0.0000 0.0000 0.0000
# 3 32.3444 16.3931 154.4684 0.0000 0.0000 0.0000
# 4 0.0000 0.0000 0.0000 25.8330 0.0000 0.0000
# 5 0.0000 0.0000 0.0000 0.0000 -10.7397 0.0000
# 6 0.0000 0.0000 0.0000 0.0000 0.0000 38.8650
#
#
#
# Elastic Compliance Matrix: (Units=1/GPa)
#
#
# Indices 1 2 3 4 5 6 
#
# 1 0.024241 0.001092 -0.005192 0.000000 0.000000 0.000000
# 2 0.001092 0.021629 -0.002524 0.000000 0.000000 0.000000
# 3 -0.005192 -0.002524 0.007829 0.000000 0.000000 0.000000
# 4 0.000000 0.000000 0.000000 0.038710 0.000000 0.000000
# 5 0.000000 0.000000 0.000000 0.000000 -0.093113 0.000000
# 6 0.000000 0.000000 0.000000 0.000000 0.000000 0.025730
#
#
# Mechanical properties :
#
#
# Convention : Reuss Voigt Hill
#
# Bulk Modulus (GPa) = 24.72123 38.98137 31.85130
# Shear Modulus (GPa) = 96.60586 24.16403 60.38495
#
# Velocity S-wave (km/s) = 6.66911 3.33542 5.27267
# Velocity P-wave (km/s) = 8.40739 5.72540 7.19251
#
# Compressibility (1/GPa) = 0.04045106
#
# Stress axis : x y z
#
# Youngs Moduli (GPa) = 41.25286 46.23457 127.73373
#
# Poissons Ratio (x) = -0.05049 0.66316
# Poissons Ratio (y) = -0.04505 0.32241
# Poissons Ratio (z) = 0.21417 0.11670
#
# Static dielectric constant tensor:
#      x y z
#    x 1.807570 0.000000 0.000000 
#    y 0.000000 1.862880 0.000000 
#    z 0.000000 0.000000 1.827590 
# 
# From -- ./inp_files/12175.got.cif
#   From: 2010.05.17/outbox.cif.g08.bks.cpg/sg23_7_cif.got.tgz:12175.got - 2010.06.04 12:02:01.
