data_PCOD9330593
_publ_section_title
;
Structure prediction by ZEFSAII (Michael W. Deem and Ramdas Pophale) SiO2 
 PCOD9330593
Probable space group: I 2 2 2
;
_chemical_formula_sum "Si O2"
_cell_formula_units_Z 56
_cell_length_a 9.710280
_cell_length_b 15.011053
_cell_length_c 20.319123
_cell_angle_alpha 90.000000
_cell_angle_beta 90.000000
_cell_angle_gamma 90.000000
_cell_volume 2961.746411
_symmetry_space_group_name_H-M "I 2 2 2"
_symmetry_group_IT_number 23
_symmetry_cell_setting 'orthorhombic'
loop_
_space_group_symop_operation_xyz
x,y,z
-x,-y,z
x,-y,-z
-x,y,-z
1/2+x,1/2+y,1/2+z
1/2-x,1/2-y,1/2+z
1/2+x,1/2-y,1/2-z
1/2-x,1/2+y,1/2-z
loop_
_atom_site_type_symbol
_atom_site_label
_atom_site_fract_x
_atom_site_fract_y
_atom_site_fract_z
Si Si1 0.500000 0.000000 0.230201
Si Si2 0.898002 0.176958 0.167767
Si Si3 0.364620 0.762798 0.878046
Si Si4 0.609834 0.674388 0.553153
Si Si5 0.993299 0.896916 0.699445
Si Si6 0.116054 0.613876 0.612599
Si Si7 0.695029 0.149038 0.736922
Si Si8 0.762207 0.500000 0.500000
O O1 0.424835 0.931413 0.181403
O O2 0.613882 0.943799 0.268584
O O3 0.912406 0.113375 0.231157
O O4 0.760161 0.161469 0.126423
O O5 0.887393 0.276393 0.196248
O O6 0.025110 0.161138 0.120013
O O7 0.240490 0.764214 0.929772
O O8 0.418202 0.667850 0.852369
O O9 0.493832 0.819110 0.905290
O O10 0.312515 0.816473 0.812630
O O11 0.500000 0.709185 0.500000
O O12 0.669392 0.580285 0.527767
O O13 0.147742 0.860231 0.713586
O O14 0.000000 0.000000 0.680161
O O15 0.146256 0.539994 0.558227
#
# Coordination Sequence:
#
# PCOD9330593 Si02
#       8
#     4   8   8   8   8   8   8   4
#     4  10  22  35  60  90 125 160 210 256 310 374
#     4  11  23  37  59  85 131 169 198 254 319 373
#     4  10  23  41  59  89 130 167 210 258 318 380
#     4  12  25  40  58  90 130 170 208 250 308 382
#     4  11  22  36  66  93 121 165 215 264 316 368
#     4  11  22  39  57  86 128 168 200 258 308 368
#     4  10  20  39  58  90 126 167 210 253 323 371
#     4  12  25  39  62  94 122 168 218 244 298 384
#
# _framework density 18.907762000000002
#
# number of rings (size 3 to 8) (size 9 to 14) (size 15 to 20)
#    0.000    1.143    4.286    2.786    2.000    3.714 
#    0.000    0.000    0.000    0.000    0.000   15.500 
#    0.000    0.000    0.000    0.000    0.000    0.000 
#
# Total GULP energy -156485.560451 kJ/mol
# GULP energy per Si atom -5588.770016 kJ/mol
# Density = 1.886473 g / cm^3
# Si number density = 18.907762 Si / 1000 Ang^3
#
#
#
# Elastic Constant Matrix: (Units=GPa)
#
#
# Indices 1 2 3 4 5 6 
#
# 1 137.5359 49.0663 44.1864 0.0000 0.0000 0.0000
# 2 49.0663 84.3221 25.4112 0.0000 0.0000 0.0000
# 3 44.1864 25.4112 57.2023 0.0000 0.0000 0.0000
# 4 0.0000 0.0000 0.0000 27.9266 0.0000 0.0000
# 5 0.0000 0.0000 0.0000 0.0000 63.2434 0.0000
# 6 0.0000 0.0000 0.0000 0.0000 0.0000 20.9674
#
#
#
# Elastic Compliance Matrix: (Units=1/GPa)
#
#
# Indices 1 2 3 4 5 6 
#
# 1 0.010924 -0.004403 -0.006483 0.000000 0.000000 0.000000
# 2 -0.004403 0.015467 -0.003470 0.000000 0.000000 0.000000
# 3 -0.006483 -0.003470 0.024031 0.000000 0.000000 0.000000
# 4 0.000000 0.000000 0.000000 0.035808 0.000000 0.000000
# 5 0.000000 0.000000 0.000000 0.000000 0.015812 0.000000
# 6 0.000000 0.000000 0.000000 0.000000 0.000000 0.047693
#
#
# Mechanical properties :
#
#
# Convention : Reuss Voigt Hill
#
# Bulk Modulus (GPa) = 46.05925 57.37649 51.71787
# Shear Modulus (GPa) = 26.92755 33.12055 30.02405
#
# Velocity S-wave (km/s) = 3.77789 4.18986 3.98920
# Velocity P-wave (km/s) = 6.59111 7.33607 6.97355
#
# Compressibility (1/GPa) = 0.02171117
#
# Stress axis : x y z
#
# Youngs Moduli (GPa) = 91.53870 64.65336 41.61349
#
# Poissons Ratio (x) = 0.28468 0.26976
# Poissons Ratio (y) = 0.40306 0.14439
# Poissons Ratio (z) = 0.59340 0.22433
#
# Static dielectric constant tensor:
#      x y z
#    x 1.690910 0.000000 0.000000 
#    y 0.000000 1.622200 0.000000 
#    z 0.000000 0.000000 1.666770 
# 
# From -- ./inp_files/10254.got.cif
#   From: 2010.05.17/outbox.cif.g08.bks.cpg/sg23_6_cif.got.tgz:10254.got - 2010.06.04 12:02:01.
