data_PCOD9330623
_publ_section_title
;
Structure prediction by ZEFSAII (Michael W. Deem and Ramdas Pophale) SiO2 
 PCOD9330623
Probable space group: I 2 2 2
;
_chemical_formula_sum "Si O2"
_cell_formula_units_Z 58
_cell_length_a 9.640802
_cell_length_b 26.367413
_cell_length_c 11.236686
_cell_angle_alpha 90.000000
_cell_angle_beta 90.000000
_cell_angle_gamma 90.000000
_cell_volume 2856.399381
_symmetry_space_group_name_H-M "I 2 2 2"
_symmetry_group_IT_number 23
_symmetry_cell_setting 'orthorhombic'
loop_
_space_group_symop_operation_xyz
x,y,z
-x,-y,z
x,-y,-z
-x,y,-z
1/2+x,1/2+y,1/2+z
1/2-x,1/2-y,1/2+z
1/2+x,1/2-y,1/2-z
1/2-x,1/2+y,1/2-z
loop_
_atom_site_type_symbol
_atom_site_label
_atom_site_fract_x
_atom_site_fract_y
_atom_site_fract_z
Si Si1 0.842464 0.646534 0.916440
Si Si2 0.000000 0.000000 0.000000
Si Si3 0.039675 0.744518 0.875721
Si Si4 0.875326 0.373583 0.591459
Si Si5 0.187136 0.082522 0.108736
Si Si6 0.548664 0.055399 0.744020
Si Si7 0.741625 0.166234 0.334006
Si Si8 0.054632 0.162153 0.288870
O O1 0.904770 0.597286 0.852625
O O2 0.684413 0.659562 0.878382
O O3 0.935001 0.695754 0.876853
O O4 0.833700 0.636717 0.057815
O O5 0.088515 0.037146 0.078622
O O6 0.196820 0.722981 0.874005
O O7 0.030246 0.782520 0.767629
O O8 0.000000 0.771001 0.000000
O O9 0.750049 0.389789 0.506813
O O10 0.821033 0.338736 0.700455
O O11 0.000000 0.356196 0.500000
O O12 0.934020 0.421067 0.666890
O O13 0.314529 0.055768 0.175338
O O14 0.106763 0.123781 0.187116
O O15 0.500000 0.000000 0.702520
O O16 0.901128 0.149886 0.335350
#
# Coordination Sequence:
#
# PCOD9330623 Si02
#       8
#     8   2   8   8   8   8   8   8
#     4  10  22  43  62  94 132 168 216 268 320 389
#     4  12  20  36  54  88 130 164 196 258 330 374
#     4  10  22  39  63  90 128 168 215 267 311 386
#     4  10  21  39  62  92 122 162 211 267 317 380
#     4  10  23  36  61  93 129 164 211 261 319 395
#     4  10  20  39  66  93 124 166 215 268 319 382
#     4  11  22  40  64  89 130 173 208 265 332 376
#     4  11  23  40  63  95 128 169 213 261 326 390
#
# _framework density 20.305284
#
# number of rings (size 3 to 8) (size 9 to 14) (size 15 to 20)
#    0.000    1.655    1.379    2.897    2.897    1.931 
#    0.000    1.379    0.000    0.000    0.000    5.793 
#    0.000    0.000    0.000    0.000    0.000    0.000 
#
# Total GULP energy -161580.743937 kJ/mol
# GULP energy per Si atom -5571.749791 kJ/mol
# Density = 2.025907 g / cm^3
# Si number density = 20.305284 Si / 1000 Ang^3
#
#
#
# Elastic Constant Matrix: (Units=GPa)
#
#
# Indices 1 2 3 4 5 6 
#
# 1 100.2943 26.3221 38.9834 0.0001 0.0001 0.0000
# 2 26.3221 52.1070 22.5406 0.0001 0.0002 -0.0002
# 3 38.9834 22.5406 111.7766 -0.0006 -0.0004 0.0007
# 4 0.0001 0.0001 -0.0006 8.6618 0.0000 0.0000
# 5 0.0001 0.0002 -0.0004 0.0000 36.5096 -0.0001
# 6 0.0000 -0.0002 0.0007 0.0000 -0.0001 46.8034
#
#
#
# Elastic Compliance Matrix: (Units=1/GPa)
#
#
# Indices 1 2 3 4 5 6 
#
# 1 0.012573 -0.004880 -0.003401 0.000000 0.000000 0.000000
# 2 -0.004880 0.022920 -0.002920 0.000000 0.000000 0.000000
# 3 -0.003401 -0.002920 0.010721 0.000001 0.000000 0.000000
# 4 0.000000 0.000000 0.000001 0.115450 0.000000 0.000000
# 5 0.000000 0.000000 0.000000 0.000000 0.027390 0.000000
# 6 0.000000 0.000000 0.000000 0.000000 0.000000 0.021366
#
#
# Mechanical properties :
#
#
# Convention : Reuss Voigt Hill
#
# Bulk Modulus (GPa) = 41.99538 48.87445 45.43491
# Shear Modulus (GPa) = 20.76758 30.15042 25.45900
#
# Velocity S-wave (km/s) = 3.20154 3.85756 3.54476
# Velocity P-wave (km/s) = 5.86459 6.63047 6.25925
#
# Compressibility (1/GPa) = 0.02381215
#
# Stress axis : x y z
#
# Youngs Moduli (GPa) = 79.53294 43.63070 93.27182
#
# Poissons Ratio (x) = 0.21293 0.31721
# Poissons Ratio (y) = 0.38814 0.27234
# Poissons Ratio (z) = 0.27049 0.12740
#
# Static dielectric constant tensor:
#      x y z
#    x 1.757250 0.000000 0.000000 
#    y 0.000000 1.741280 0.000000 
#    z 0.000000 0.000000 1.751980 
# 
# From -- ./inp_files/14907.got.cif
#   From: 2010.05.17/outbox.cif.g08.bks.cpg/sg23_8_cif.got.tgz:14907.got - 2010.06.04 12:02:01.
