data_PCOD9330357
_publ_section_title
;
Structure prediction by ZEFSAII (Michael W. Deem and Ramdas Pophale) SiO2 
 PCOD9330357
Probable space group: I 2 2 2
;
_chemical_formula_sum "Si O2"
_cell_formula_units_Z 64
_cell_length_a 8.905663
_cell_length_b 12.193658
_cell_length_c 31.559449
_cell_angle_alpha 90.000000
_cell_angle_beta 90.000000
_cell_angle_gamma 90.000000
_cell_volume 3427.122902
_symmetry_space_group_name_H-M "I 2 2 2"
_symmetry_group_IT_number 23
_symmetry_cell_setting 'orthorhombic'
loop_
_space_group_symop_operation_xyz
x,y,z
-x,-y,z
x,-y,-z
-x,y,-z
1/2+x,1/2+y,1/2+z
1/2-x,1/2-y,1/2+z
1/2+x,1/2-y,1/2-z
1/2-x,1/2+y,1/2-z
loop_
_atom_site_type_symbol
_atom_site_label
_atom_site_fract_x
_atom_site_fract_y
_atom_site_fract_z
Si Si1 0.820898 0.256558 0.580634
Si Si2 0.326505 0.967700 0.283035
Si Si3 0.675750 0.979215 0.190246
Si Si4 0.324144 0.788247 0.921856
Si Si5 0.682925 0.373766 0.997867
Si Si6 0.897061 0.897397 0.341797
Si Si7 0.815485 0.232309 0.323924
Si Si8 0.177040 0.986731 0.100004
O O1 0.768435 0.189675 0.539856
O O2 0.823302 0.174180 0.620893
O O3 0.727769 0.367218 0.585080
O O4 0.995027 0.292821 0.575123
O O5 0.301413 0.851104 0.304503
O O6 0.500000 0.000000 0.284123
O O7 0.280606 0.962470 0.233734
O O8 0.222908 0.051699 0.309604
O O9 0.691878 0.849793 0.197386
O O10 0.500000 0.000000 0.180355
O O11 0.770549 0.008162 0.149035
O O12 0.274607 0.699015 0.956845
O O13 0.290081 0.746802 0.874257
O O14 0.255750 0.910500 0.924024
O O15 0.734400 0.500000 0.000000
O O16 0.500000 0.376869 0.000000
O O17 0.018592 0.819444 0.319102
O O18 0.000000 0.000000 0.358831
O O19 0.000000 0.000000 0.096638
#
# Coordination Sequence:
#
# PCOD9330357 Si02
#       8
#     8   8   8   8   8   8   8   8
#     4  10  20  35  61  89 113 149 190 238 285 331
#     4  10  22  35  53  82 115 147 186 234 288 342
#     4  10  21  39  59  81 108 145 194 240 283 328
#     4   9  19  38  60  82 119 148 187 240 284 331
#     4   9  19  32  61  95 114 140 191 242 278 327
#     4   9  19  33  55  81 112 152 187 229 289 343
#     4   9  19  35  56  78 110 153 184 230 288 331
#     4  11  23  38  58  83 113 153 193 231 284 347
#
# _framework density 18.674555999999999
#
# number of rings (size 3 to 8) (size 9 to 14) (size 15 to 20)
#    0.000    2.375    0.000    2.625    7.000    7.000 
#    0.000    4.375    0.000    0.750    0.000    0.000 
#    0.000    0.000    0.000    0.000    0.000    0.000 
#
# Total GULP energy -178525.679029 kJ/mol
# GULP energy per Si atom -5578.927470 kJ/mol
# Density = 1.863205 g / cm^3
# Si number density = 18.674556 Si / 1000 Ang^3
#
#
#
# Elastic Constant Matrix: (Units=GPa)
#
#
# Indices 1 2 3 4 5 6 
#
# 1 35.6331 35.9678 32.9889 0.0000 0.0000 0.0000
# 2 35.9678 138.8186 57.4482 0.0000 0.0000 0.0000
# 3 32.9889 57.4482 64.4748 0.0000 0.0000 0.0000
# 4 0.0000 0.0000 0.0000 7.1574 0.0000 0.0000
# 5 0.0000 0.0000 0.0000 0.0000 14.0936 0.0000
# 6 0.0000 0.0000 0.0000 0.0000 0.0000 22.4082
#
#
#
# Elastic Compliance Matrix: (Units=1/GPa)
#
#
# Indices 1 2 3 4 5 6 
#
# 1 0.054762 -0.004108 -0.024359 0.000000 0.000000 0.000000
# 2 -0.004108 0.011720 -0.008340 0.000000 0.000000 0.000000
# 3 -0.024359 -0.008340 0.035405 0.000000 0.000000 0.000000
# 4 0.000000 0.000000 0.000000 0.139716 0.000000 0.000000
# 5 0.000000 0.000000 0.000000 0.000000 0.070954 0.000000
# 6 0.000000 0.000000 0.000000 0.000000 0.000000 0.044627
#
#
# Mechanical properties :
#
#
# Convention : Reuss Voigt Hill
#
# Bulk Modulus (GPa) = 35.37144 54.63736 45.00440
# Shear Modulus (GPa) = 11.35794 16.23328 13.79561
#
# Velocity S-wave (km/s) = 2.46885 2.95154 2.72092
# Velocity P-wave (km/s) = 5.20664 6.39817 5.83291
#
# Compressibility (1/GPa) = 0.02827139
#
# Stress axis : x y z
#
# Youngs Moduli (GPa) = 18.26100 85.32678 28.24493
#
# Poissons Ratio (x) = 0.35054 0.68801
# Poissons Ratio (y) = 0.07502 0.23557
# Poissons Ratio (z) = 0.44481 0.71166
#
# Static dielectric constant tensor:
#      x y z
#    x 1.647280 0.000000 0.000000 
#    y 0.000000 1.679870 0.000000 
#    z 0.000000 0.000000 1.638300 
# 
# From -- ./inp_files/30342.got.cif
#   From: 2010.05.17/outbox.cif.g08.bks.cpg/sg23_16_cif.got.tgz:30342.got - 2010.06.04 12:02:01.
