data_PCOD9330163
_publ_section_title
;
Structure prediction by ZEFSAII (Michael W. Deem and Ramdas Pophale) SiO2 
 PCOD9330163
Probable space group: I 2 2 2
;
_chemical_formula_sum "Si O2"
_cell_formula_units_Z 38
_cell_length_a 24.098089
_cell_length_b 9.793402
_cell_length_c 6.790764
_cell_angle_alpha 90.000000
_cell_angle_beta 90.000000
_cell_angle_gamma 90.000000
_cell_volume 1602.635739
_symmetry_space_group_name_H-M "I 2 2 2"
_symmetry_group_IT_number 23
_symmetry_cell_setting 'orthorhombic'
loop_
_space_group_symop_operation_xyz
x,y,z
-x,-y,z
x,-y,-z
-x,y,-z
1/2+x,1/2+y,1/2+z
1/2-x,1/2-y,1/2+z
1/2+x,1/2-y,1/2-z
1/2-x,1/2+y,1/2-z
loop_
_atom_site_type_symbol
_atom_site_label
_atom_site_fract_x
_atom_site_fract_y
_atom_site_fract_z
Si Si1 0.918984 0.967982 0.764975
Si Si2 0.919522 0.278466 0.700233
Si Si3 0.312521 0.867667 0.392889
Si Si4 0.500000 0.708001 0.500000
Si Si5 0.500000 0.000000 0.000000
Si Si6 0.698282 0.612242 0.328270
O O1 0.859957 0.903085 0.713273
O O2 0.924342 0.114440 0.654629
O O3 0.972608 0.871995 0.809718
O O4 0.910405 0.000000 0.000000
O O5 0.855382 0.315361 0.727440
O O6 0.955546 0.388437 0.584329
O O7 0.948300 0.288237 0.915980
O O8 0.304757 0.754212 0.558418
O O9 0.252465 0.898310 0.303756
O O10 0.336229 0.000000 0.500000
O O11 0.703412 0.500000 0.500000
#
# Coordination Sequence:
#
# PCOD9330163 Si02
#       6
#     8   8   8   4   2   8
#     4   9  17  40  74  96 117 175 242 290 334 426
#     4  11  24  46  66  99 141 186 235 288 364 423
#     4  12  26  42  71 105 138 190 233 302 368 428
#     4  10  19  43  80  93 118 178 255 288 347 436
#     4  12  32  42  62 108 156 182 228 320 356 426
#     4  11  22  46  69 100 139 182 247 293 354 437
#
# _framework density 23.710940000000001
#
# number of rings (size 3 to 8) (size 9 to 14) (size 15 to 20)
#    0.000    1.263    6.316    4.105    4.421    0.000 
#    3.789    2.105    0.000    0.000    0.000    0.000 
#    0.000    0.000    0.000    0.000    0.000    0.000 
#
# Total GULP energy -105861.889794 kJ/mol
# GULP energy per Si atom -5571.678410 kJ/mol
# Density = 2.365697 g / cm^3
# Si number density = 23.710940 Si / 1000 Ang^3
#
#
#
# Elastic Constant Matrix: (Units=GPa)
#
#
# Indices 1 2 3 4 5 6 
#
# 1 185.9079 23.6961 32.0202 0.0000 0.0000 0.0000
# 2 23.6961 138.2116 33.6444 0.0000 0.0000 0.0000
# 3 32.0202 33.6444 35.7107 0.0000 0.0000 0.0000
# 4 0.0000 0.0000 0.0000 19.4002 0.0000 0.0000
# 5 0.0000 0.0000 0.0000 0.0000 44.3142 0.0000
# 6 0.0000 0.0000 0.0000 0.0000 0.0000 35.9688
#
#
#
# Elastic Compliance Matrix: (Units=1/GPa)
#
#
# Indices 1 2 3 4 5 6 
#
# 1 0.006377 0.000387 -0.006083 0.000000 0.000000 0.000000
# 2 0.000387 0.009412 -0.009215 0.000000 0.000000 0.000000
# 3 -0.006083 -0.009215 0.042139 0.000000 0.000000 0.000000
# 4 0.000000 0.000000 0.000000 0.051546 0.000000 0.000000
# 5 0.000000 0.000000 0.000000 0.000000 0.022566 0.000000
# 6 0.000000 0.000000 0.000000 0.000000 0.000000 0.027802
#
#
# Mechanical properties :
#
#
# Convention : Reuss Voigt Hill
#
# Bulk Modulus (GPa) = 35.57820 59.83907 47.70864
# Shear Modulus (GPa) = 25.12146 37.96795 31.54471
#
# Velocity S-wave (km/s) = 3.25851 4.00595 3.65140
# Velocity P-wave (km/s) = 5.40321 6.83290 6.15968
#
# Compressibility (1/GPa) = 0.02810710
#
# Stress axis : x y z
#
# Youngs Moduli (GPa) = 156.80360 106.24747 23.73086
#
# Poissons Ratio (x) = -0.04117 0.14436
# Poissons Ratio (y) = -0.06076 0.21868
# Poissons Ratio (z) = 0.95390 0.97905
#
# Static dielectric constant tensor:
#      x y z
#    x 1.960850 0.000000 0.000000 
#    y 0.000000 1.949550 0.000000 
#    z 0.000000 0.000000 1.997560 
# 
# From -- ./inp_files/12435.got.cif
#   From: 2010.05.17/outbox.cif.g08.bks.cpg/sg23_7_cif.got.tgz:12435.got - 2010.06.04 12:02:01.
