data_PCOD9330480
_publ_section_title
;
Structure prediction by ZEFSAII (Michael W. Deem and Ramdas Pophale) SiO2 
 PCOD9330480
Probable space group: I 2 2 2
;
_chemical_formula_sum "Si O2"
_cell_formula_units_Z 48
_cell_length_a 10.401142
_cell_length_b 14.723139
_cell_length_c 13.059064
_cell_angle_alpha 90.000000
_cell_angle_beta 90.000000
_cell_angle_gamma 90.000000
_cell_volume 1999.831883
_symmetry_space_group_name_H-M "I 2 2 2"
_symmetry_group_IT_number 23
_symmetry_cell_setting 'orthorhombic'
loop_
_space_group_symop_operation_xyz
x,y,z
-x,-y,z
x,-y,-z
-x,y,-z
1/2+x,1/2+y,1/2+z
1/2-x,1/2-y,1/2+z
1/2+x,1/2-y,1/2-z
1/2-x,1/2+y,1/2-z
loop_
_atom_site_type_symbol
_atom_site_label
_atom_site_fract_x
_atom_site_fract_y
_atom_site_fract_z
Si Si1 0.092455 0.631153 0.690638
Si Si2 0.453376 0.394863 0.606058
Si Si3 0.779295 0.632602 0.099943
Si Si4 0.187222 0.439093 0.666388
Si Si5 0.997962 0.821337 0.669281
Si Si6 0.229613 0.917359 0.607799
O O1 0.111854 0.643583 0.813867
O O2 0.190875 0.549635 0.664319
O O3 0.085667 0.732618 0.649445
O O4 0.957178 0.591925 0.651247
O O5 0.500000 0.500000 0.614312
O O6 0.500000 0.353897 0.500000
O O7 0.298996 0.399418 0.597975
O O8 0.497464 0.346272 0.710152
O O9 0.649625 0.684339 0.134580
O O10 0.748775 0.525015 0.100640
O O11 0.801097 0.641810 0.978729
O O12 0.219310 0.399575 0.778651
O O13 0.078004 0.897409 0.609294
#
# Coordination Sequence:
#
# PCOD9330480 Si02
#       6
#     8   8   8   8   8   8
#     4  10  22  37  61  89 131 173 204 255 338 390
#     4  10  21  41  67  92 117 166 224 266 308 378
#     4  10  20  37  62  91 122 166 211 262 325 396
#     4   9  20  42  63  87 126 169 209 262 327 392
#     4  11  21  35  62  93 125 164 210 273 326 375
#     4   9  19  37  64  91 119 157 214 272 319 377
#
# _framework density 24.002016000000001
#
# number of rings (size 3 to 8) (size 9 to 14) (size 15 to 20)
#    0.000    2.167    0.000    4.000    4.667    2.000 
#    3.000    5.000   11.000    8.000    0.000    0.000 
#    0.000    0.000    0.000    0.000    0.000    0.000 
#
# Total GULP energy -133880.969146 kJ/mol
# GULP energy per Si atom -5578.373714 kJ/mol
# Density = 2.394739 g / cm^3
# Si number density = 24.002016 Si / 1000 Ang^3
#
#
#
# Elastic Constant Matrix: (Units=GPa)
#
#
# Indices 1 2 3 4 5 6 
#
# 1 79.4730 6.6446 15.2174 0.0000 0.0000 0.0000
# 2 6.6446 53.0352 7.8779 0.0000 0.0000 0.0000
# 3 15.2174 7.8779 58.4631 -0.0001 0.0000 0.0000
# 4 0.0000 0.0000 -0.0001 6.7962 0.0000 0.0000
# 5 0.0000 0.0000 0.0000 0.0000 17.0587 0.0000
# 6 0.0000 0.0000 0.0000 0.0000 0.0000 18.7431
#
#
#
# Elastic Compliance Matrix: (Units=1/GPa)
#
#
# Indices 1 2 3 4 5 6 
#
# 1 0.013315 -0.001177 -0.003307 0.000000 0.000000 0.000000
# 2 -0.001177 0.019345 -0.002300 0.000000 0.000000 0.000000
# 3 -0.003307 -0.002300 0.018276 0.000000 0.000000 0.000000
# 4 0.000000 0.000000 0.000000 0.147141 0.000000 0.000000
# 5 0.000000 0.000000 0.000000 0.000000 0.058621 0.000000
# 6 0.000000 0.000000 0.000000 0.000000 0.000000 0.053353
#
#
# Mechanical properties :
#
#
# Convention : Reuss Voigt Hill
#
# Bulk Modulus (GPa) = 26.76225 27.82788 27.29506
# Shear Modulus (GPa) = 14.87770 19.26836 17.07303
#
# Velocity S-wave (km/s) = 2.49238 2.83641 2.66995
# Velocity P-wave (km/s) = 4.41099 4.72717 4.57181
#
# Compressibility (1/GPa) = 0.03736607
#
# Stress axis : x y z
#
# Youngs Moduli (GPa) = 75.10598 51.69419 54.71782
#
# Poissons Ratio (x) = 0.06084 0.18095
# Poissons Ratio (y) = 0.08839 0.12587
# Poissons Ratio (z) = 0.24838 0.11891
#
# Static dielectric constant tensor:
#      x y z
#    x 1.983380 0.000000 0.000000 
#    y 0.000000 1.963550 0.000000 
#    z 0.000000 0.000000 2.027940 
# 
# From -- ./inp_files/20839.got.cif
#   From: 2010.05.17/outbox.cif.g08.bks.cpg/sg23_11_cif.got.tgz:20839.got - 2010.06.04 12:02:01.
