data_PCOD9330197
_publ_section_title
;
Structure prediction by ZEFSAII (Michael W. Deem and Ramdas Pophale) SiO2 
 PCOD9330197
Probable space group: I 2 2 2
;
_chemical_formula_sum "Si O2"
_cell_formula_units_Z 64
_cell_length_a 22.287959
_cell_length_b 24.630674
_cell_length_c 7.559921
_cell_angle_alpha 90.000000
_cell_angle_beta 90.000000
_cell_angle_gamma 90.000000
_cell_volume 4150.150571
_symmetry_space_group_name_H-M "I 2 2 2"
_symmetry_group_IT_number 23
_symmetry_cell_setting 'orthorhombic'
loop_
_space_group_symop_operation_xyz
x,y,z
-x,-y,z
x,-y,-z
-x,y,-z
1/2+x,1/2+y,1/2+z
1/2-x,1/2-y,1/2+z
1/2+x,1/2-y,1/2-z
1/2-x,1/2+y,1/2-z
loop_
_atom_site_type_symbol
_atom_site_label
_atom_site_fract_x
_atom_site_fract_y
_atom_site_fract_z
Si Si1 0.760410 0.438812 0.709882
Si Si2 0.070935 0.673538 0.000000
Si Si3 0.215868 0.826332 0.212093
Si Si4 0.153971 0.278992 0.701924
Si Si5 0.239590 0.438812 0.709883
Si Si6 0.846029 0.721008 0.298076
Si Si7 0.284133 0.326332 0.712092
Si Si8 0.636674 0.061612 0.500000
O O1 0.715596 0.389874 0.757036
O O2 0.737333 0.500000 0.739420
O O3 0.774311 0.433260 0.500000
O O4 0.819566 0.432950 0.829704
O O5 0.102223 0.701511 0.830902
O O6 0.089637 0.610148 0.000000
O O7 0.102223 0.701511 0.169098
O O8 0.000000 0.680030 0.000000
O O9 0.167507 0.785371 0.290719
O O10 0.282624 0.805508 0.263246
O O11 0.211476 0.820544 0.000000
O O12 0.143285 0.295720 0.500000
O O13 0.217376 0.305508 0.763246
O O14 0.284404 0.389874 0.757036
O O15 0.180434 0.432950 0.829705
O O16 0.832493 0.785371 0.290719
O O17 0.612202 0.000000 0.500000
#
# Coordination Sequence:
#
# PCOD9330197 Si02
#       8
#     8   8   8   8   8   8   8   8
#     4   9  17  28  45  72 103 130 156 195 244 295
#     4  12  24  37  50  68  99 132 178 213 237 288
#     4   9  16  28  50  74 100 123 157 200 246 308
#     4  10  20  32  49  72  95 126 161 204 256 294
#     4   9  17  28  45  72 103 130 156 195 244 295
#     4  10  20  32  49  72  95 126 161 204 256 294
#     4   9  16  28  50  74 100 123 157 200 246 308
#     4  10  20  33  50  68  94 131 171 205 243 280
#
# _framework density 15.421127
#
# number of rings (size 3 to 8) (size 9 to 14) (size 15 to 20)
#    0.000    2.250    3.750    0.000    3.500    0.750 
#    0.000    0.000    0.000    0.000    0.000    5.250 
#    0.000    2.000    0.000    2.250    0.000    0.000 
#
# Total GULP energy -178325.459351 kJ/mol
# GULP energy per Si atom -5572.670605 kJ/mol
# Density = 1.538603 g / cm^3
# Si number density = 15.421127 Si / 1000 Ang^3
#
#
#
# Elastic Constant Matrix: (Units=GPa)
#
#
# Indices 1 2 3 4 5 6 
#
# 1 63.1253 49.0183 33.8374 0.0000 0.0000 0.0000
# 2 49.0183 126.6662 33.7127 0.0000 0.0000 0.0000
# 3 33.8374 33.7127 65.0060 0.0000 0.0000 0.0000
# 4 0.0000 0.0000 0.0000 16.7131 0.0000 0.0000
# 5 0.0000 0.0000 0.0000 0.0000 14.3417 0.0000
# 6 0.0000 0.0000 0.0000 0.0000 0.0000 15.1630
#
#
#
# Elastic Compliance Matrix: (Units=1/GPa)
#
#
# Indices 1 2 3 4 5 6 
#
# 1 0.027441 -0.007909 -0.010182 0.000000 0.000000 0.000000
# 2 -0.007909 0.011439 -0.001815 0.000000 0.000000 0.000000
# 3 -0.010182 -0.001815 0.021625 0.000000 0.000000 0.000000
# 4 0.000000 0.000000 0.000000 0.059833 0.000000 0.000000
# 5 0.000000 0.000000 0.000000 0.000000 0.069727 0.000000
# 6 0.000000 0.000000 0.000000 0.000000 0.000000 0.065950
#
#
# Mechanical properties :
#
#
# Convention : Reuss Voigt Hill
#
# Bulk Modulus (GPa) = 48.32940 54.21493 51.27217
# Shear Modulus (GPa) = 16.51663 18.45884 17.48773
#
# Velocity S-wave (km/s) = 3.27622 3.46350 3.37116
# Velocity P-wave (km/s) = 6.76160 7.15731 6.96227
#
# Compressibility (1/GPa) = 0.02069134
#
# Stress axis : x y z
#
# Youngs Moduli (GPa) = 36.44138 87.42226 46.24366
#
# Poissons Ratio (x) = 0.69146 0.47086
# Poissons Ratio (y) = 0.28823 0.08394
# Poissons Ratio (z) = 0.37105 0.15868
#
# Static dielectric constant tensor:
#      x y z
#    x 1.450930 0.000000 0.000000 
#    y 0.000000 1.576340 0.000000 
#    z 0.000000 0.000000 1.557420 
# 
# From -- ./inp_files/12298.got.cif
#   From: 2010.05.17/outbox.cif.g08.bks.cpg/sg23_7_cif.got.tgz:12298.got - 2010.06.04 12:02:01.
