data_PCOD9330890
_publ_section_title
;
Structure prediction by ZEFSAII (Michael W. Deem and Ramdas Pophale) SiO2 
 PCOD9330890
Probable space group: I 2 2 2
;
_chemical_formula_sum "Si O2"
_cell_formula_units_Z 64
_cell_length_a 26.651277
_cell_length_b 8.560328
_cell_length_c 15.122091
_cell_angle_alpha 90.000000
_cell_angle_beta 90.000000
_cell_angle_gamma 90.000000
_cell_volume 3450.009380
_symmetry_space_group_name_H-M "I 2 2 2"
_symmetry_group_IT_number 23
_symmetry_cell_setting 'orthorhombic'
loop_
_space_group_symop_operation_xyz
x,y,z
-x,-y,z
x,-y,-z
-x,y,-z
1/2+x,1/2+y,1/2+z
1/2-x,1/2-y,1/2+z
1/2+x,1/2-y,1/2-z
1/2-x,1/2+y,1/2-z
loop_
_atom_site_type_symbol
_atom_site_label
_atom_site_fract_x
_atom_site_fract_y
_atom_site_fract_z
Si Si1 0.713552 0.312707 0.000001
Si Si2 0.330090 0.812352 0.500001
Si Si3 0.556507 0.189867 0.000001
Si Si4 0.609044 0.687507 0.667514
Si Si5 0.000000 0.809861 0.896773
Si Si6 0.137469 0.312520 0.357301
Si Si7 0.637469 0.187481 0.857302
Si Si8 0.109044 0.187507 0.832485
O O1 0.771659 0.265816 0.000001
O O2 0.684515 0.249246 0.913737
O O3 0.710491 0.500000 0.000000
O O4 0.684514 0.249247 0.086265
O O5 0.358141 0.747656 0.414074
O O6 0.358141 0.747657 0.585928
O O7 0.332651 0.000000 0.500000
O O8 0.588577 0.236330 0.085567
O O9 0.500000 0.249287 0.000000
O O10 0.588578 0.236331 0.914435
O O11 0.554910 0.000000 0.000000
O O12 0.551343 0.740303 0.650860
O O13 0.631414 0.748943 0.759131
O O14 0.609347 0.500000 0.667894
O O15 0.948657 0.759697 0.849139
O O16 0.000000 0.000000 0.897472
O O17 0.000000 0.760282 0.000000
O O18 0.139745 0.500000 0.355799
O O19 0.631414 0.251059 0.759132
#
# Coordination Sequence:
#
# PCOD9330890 Si02
#       8
#     8   8   8   8   8   8   8   8
#     4  10  22  42  64  84 114 153 194 245 298 348
#     4  11  24  41  61  87 115 148 198 250 295 346
#     4   8  16  32  53  79 114 151 186 230 284 336
#     4  11  22  38  61  87 120 158 195 236 287 349
#     4   9  18  36  58  83 118 157 194 234 285 345
#     4  10  21  37  59  87 120 153 192 241 289 344
#     4  10  21  37  59  87 120 153 192 241 289 344
#     4  11  22  38  61  87 120 158 195 236 287 349
#
# _framework density 18.550674000000001
#
# number of rings (size 3 to 8) (size 9 to 14) (size 15 to 20)
#    0.000    2.000    1.250    3.000    1.750    3.000 
#    0.000    2.500    0.000    2.250    0.000    0.000 
#    0.000    0.000    0.000    0.000    0.000    0.000 
#
# Total GULP energy -178701.123342 kJ/mol
# GULP energy per Si atom -5584.410104 kJ/mol
# Density = 1.850845 g / cm^3
# Si number density = 18.550674 Si / 1000 Ang^3
#
#
#
# Elastic Constant Matrix: (Units=GPa)
#
#
# Indices 1 2 3 4 5 6 
#
# 1 188.7617 49.9437 101.1073 0.0000 0.0000 0.0000
# 2 49.9437 52.2692 44.5916 0.0000 0.0000 0.0000
# 3 101.1073 44.5916 196.5333 0.0000 0.0000 0.0000
# 4 0.0000 0.0000 0.0000 26.6230 0.0000 0.0000
# 5 0.0000 0.0000 0.0000 0.0000 6.5410 0.0000
# 6 0.0000 0.0000 0.0000 0.0000 0.0000 23.2870
#
#
#
# Elastic Compliance Matrix: (Units=1/GPa)
#
#
# Indices 1 2 3 4 5 6 
#
# 1 0.008372 -0.005363 -0.003090 0.000000 0.000000 0.000000
# 2 -0.005363 0.027160 -0.003403 0.000000 0.000000 0.000000
# 3 -0.003090 -0.003403 0.007450 0.000000 0.000000 0.000000
# 4 0.000000 0.000000 0.000000 0.037562 0.000000 0.000000
# 5 0.000000 0.000000 0.000000 0.000000 0.152881 0.000000
# 6 0.000000 0.000000 0.000000 0.000000 0.000000 0.042942
#
#
# Mechanical properties :
#
#
# Convention : Reuss Voigt Hill
#
# Bulk Modulus (GPa) = 51.89782 92.09438 71.99610
# Shear Modulus (GPa) = 16.31307 27.41831 21.86569
#
# Velocity S-wave (km/s) = 2.96865 3.84868 3.43695
# Velocity P-wave (km/s) = 6.30773 8.33680 7.39222
#
# Compressibility (1/GPa) = 0.01926863
#
# Stress axis : x y z
#
# Youngs Moduli (GPa) = 119.44775 36.81946 134.22753
#
# Poissons Ratio (x) = 0.19747 0.41477
# Poissons Ratio (y) = 0.64062 0.45680
# Poissons Ratio (z) = 0.36910 0.12530
#
# Static dielectric constant tensor:
#      x y z
#    x 1.636790 0.000000 0.000000 
#    y 0.000000 1.626040 0.000000 
#    z 0.000000 0.000000 1.601230 
# 
# From -- ./inp_files/22597.got.cif
#   From: 2010.05.17/outbox.cif.g08.bks.cpg/sg23_12_cif.got.tgz:22597.got - 2010.06.04 12:02:01.
