data_PCOD9330412
_publ_section_title
;
Structure prediction by ZEFSAII (Michael W. Deem and Ramdas Pophale) SiO2 
 PCOD9330412
Probable space group: I 2 2 2
;
_chemical_formula_sum "Si O2"
_cell_formula_units_Z 32
_cell_length_a 11.941821
_cell_length_b 7.082366
_cell_length_c 13.058688
_cell_angle_alpha 90.000000
_cell_angle_beta 90.000000
_cell_angle_gamma 90.000000
_cell_volume 1104.456128
_symmetry_space_group_name_H-M "I 2 2 2"
_symmetry_group_IT_number 23
_symmetry_cell_setting 'orthorhombic'
loop_
_space_group_symop_operation_xyz
x,y,z
-x,-y,z
x,-y,-z
-x,y,-z
1/2+x,1/2+y,1/2+z
1/2-x,1/2-y,1/2+z
1/2+x,1/2-y,1/2-z
1/2-x,1/2+y,1/2-z
loop_
_atom_site_type_symbol
_atom_site_label
_atom_site_fract_x
_atom_site_fract_y
_atom_site_fract_z
Si Si1 0.879731 0.041458 0.646229
Si Si2 0.112958 0.605450 0.301141
Si Si3 0.843863 0.293833 0.076428
Si Si4 0.354381 0.385230 0.630660
O O1 0.856518 0.827809 0.681091
O O2 0.787702 0.147216 0.580090
O O3 0.889914 0.159240 0.753126
O O4 0.000000 0.000000 0.600500
O O5 0.117504 0.591722 0.177823
O O6 0.224622 0.537365 0.358765
O O7 0.000000 0.500000 0.338955
O O8 0.900056 0.090601 0.100413
O O9 0.867185 0.280036 0.953512
#
# Coordination Sequence:
#
# PCOD9330412 Si02
#       4
#     8   8   8   8
#     4  10  20  36  61  90 125 169 218 273 335 402
#     4  10  20  36  60  91 129 170 215 273 337 401
#     4   9  19  38  62  89 123 168 218 272 335 399
#     4   9  19  38  62  87 124 169 216 275 336 396
#
# _framework density 28.973538000000001
#
# number of rings (size 3 to 8) (size 9 to 14) (size 15 to 20)
#    0.000    2.500    0.000    1.500    0.000    3.000 
#    0.000   20.000    0.000   10.500    0.000    0.000 
#    0.000   16.000    0.000    0.000    0.000    0.000 
#
# Total GULP energy -89093.361378 kJ/mol
# GULP energy per Si atom -5568.335086 kJ/mol
# Density = 2.890759 g / cm^3
# Si number density = 28.973538 Si / 1000 Ang^3
#
#
#
# Elastic Constant Matrix: (Units=GPa)
#
#
# Indices 1 2 3 4 5 6 
#
# 1 128.7078 13.5077 -8.2934 0.0000 0.0000 0.0000
# 2 13.5077 107.6180 30.1927 0.0000 0.0000 0.0000
# 3 -8.2934 30.1927 168.7613 0.0000 0.0000 0.0000
# 4 0.0000 0.0000 0.0000 77.0534 0.0000 0.0000
# 5 0.0000 0.0000 0.0000 0.0000 94.9596 0.0000
# 6 0.0000 0.0000 0.0000 0.0000 0.0000 53.4962
#
#
#
# Elastic Compliance Matrix: (Units=1/GPa)
#
#
# Indices 1 2 3 4 5 6 
#
# 1 0.007930 -0.001163 0.000598 0.000000 0.000000 0.000000
# 2 -0.001163 0.009954 -0.001838 0.000000 0.000000 0.000000
# 3 0.000598 -0.001838 0.006284 0.000000 0.000000 0.000000
# 4 0.000000 0.000000 0.000000 0.012978 0.000000 0.000000
# 5 0.000000 0.000000 0.000000 0.000000 0.010531 0.000000
# 6 0.000000 0.000000 0.000000 0.000000 0.000000 0.018693
#
#
# Mechanical properties :
#
#
# Convention : Reuss Voigt Hill
#
# Bulk Modulus (GPa) = 51.64985 52.87789 52.26387
# Shear Modulus (GPa) = 64.40848 69.74716 67.07782
#
# Velocity S-wave (km/s) = 4.72000 4.91172 4.81681
# Velocity P-wave (km/s) = 6.89708 7.10329 7.00094
#
# Compressibility (1/GPa) = 0.01936114
#
# Stress axis : x y z
#
# Youngs Moduli (GPa) = 126.10151 100.46454 159.14108
#
# Poissons Ratio (x) = 0.11685 -0.09513
# Poissons Ratio (y) = 0.14666 0.29250
# Poissons Ratio (z) = -0.07538 0.18465
#
# Static dielectric constant tensor:
#      x y z
#    x 1.978680 0.000000 0.000000 
#    y 0.000000 1.148070 0.000000 
#    z 0.000000 0.000000 2.312880 
# 
# From -- ./inp_files/19556.got.cif
#   From: 2010.05.17/outbox.cif.g08.bks.cpg/sg23_10_cif.got.tgz:19556.got - 2010.06.04 12:02:01.
