data_PCOD9330853
_publ_section_title
;
Structure prediction by ZEFSAII (Michael W. Deem and Ramdas Pophale) SiO2 
 PCOD9330853
Probable space group: I 2 2 2
;
_chemical_formula_sum "Si O2"
_cell_formula_units_Z 56
_cell_length_a 13.875614
_cell_length_b 23.792507
_cell_length_c 8.751055
_cell_angle_alpha 90.000000
_cell_angle_beta 90.000000
_cell_angle_gamma 90.000000
_cell_volume 2889.035171
_symmetry_space_group_name_H-M "I 2 2 2"
_symmetry_group_IT_number 23
_symmetry_cell_setting 'orthorhombic'
loop_
_space_group_symop_operation_xyz
x,y,z
-x,-y,z
x,-y,-z
-x,y,-z
1/2+x,1/2+y,1/2+z
1/2-x,1/2-y,1/2+z
1/2+x,1/2-y,1/2-z
1/2-x,1/2+y,1/2-z
loop_
_atom_site_type_symbol
_atom_site_label
_atom_site_fract_x
_atom_site_fract_y
_atom_site_fract_z
Si Si1 0.271969 0.332362 0.632489
Si Si2 0.904955 0.658466 0.408063
Si Si3 0.916499 0.729534 0.111292
Si Si4 0.113619 0.933035 0.024397
Si Si5 0.765167 0.427673 0.768419
Si Si6 0.400301 0.978939 0.676251
Si Si7 0.180055 0.370609 0.929481
O O1 0.175841 0.323064 0.531337
O O2 0.338114 0.278202 0.615955
O O3 0.325886 0.389639 0.579853
O O4 0.246421 0.340297 0.808663
O O5 0.934746 0.706085 0.283040
O O6 0.846847 0.610088 0.315752
O O7 0.000000 0.640080 0.500000
O O8 0.879402 0.675067 0.020724
O O9 0.000000 0.751740 0.000000
O O10 0.161982 0.921435 0.189742
O O11 0.000000 0.922122 0.000000
O O12 0.128218 0.000000 0.000000
O O13 0.807348 0.490608 0.754947
O O14 0.764830 0.407665 0.943803
O O15 0.388602 0.912610 0.666032
O O16 0.500000 0.000000 0.748007
O O17 0.403115 0.000000 0.500000
#
# Coordination Sequence:
#
# PCOD9330853 Si02
#       7
#     8   8   8   8   8   8   8
#     4  11  22  39  60  87 119 153 209 253 314 367
#     4  10  22  37  58  86 120 156 197 251 305 377
#     4  11  23  38  60  83 117 162 209 251 308 367
#     4  10  21  40  63  83 116 160 203 256 315 366
#     4   9  20  37  57  89 123 155 202 247 311 381
#     4   9  18  30  56  91 126 156 196 237 310 393
#     4  10  21  36  62  86 122 164 197 258 314 379
#
# _framework density 19.383634000000001
#
# number of rings (size 3 to 8) (size 9 to 14) (size 15 to 20)
#    0.000    2.000    0.000    3.000    8.000    0.000 
#    0.000    5.000    0.000    1.714    0.000    0.000 
#    0.000    0.000    0.000    0.000    0.000    0.000 
#
# Total GULP energy -156123.578788 kJ/mol
# GULP energy per Si atom -5575.842100 kJ/mol
# Density = 1.933952 g / cm^3
# Si number density = 19.383634 Si / 1000 Ang^3
#
#
#
# Elastic Constant Matrix: (Units=GPa)
#
#
# Indices 1 2 3 4 5 6 
#
# 1 116.8805 27.8986 53.2400 0.0013 0.0003 0.0000
# 2 27.8986 67.7454 15.6748 0.0054 0.0015 -0.0001
# 3 53.2400 15.6748 94.0577 0.0031 0.0027 -0.0002
# 4 0.0013 0.0054 0.0031 42.1121 -0.0024 -0.0004
# 5 0.0003 0.0015 0.0027 -0.0024 21.1254 -0.0002
# 6 0.0000 -0.0001 -0.0002 -0.0004 -0.0002 24.8606
#
#
#
# Elastic Compliance Matrix: (Units=1/GPa)
#
#
# Indices 1 2 3 4 5 6 
#
# 1 0.012317 -0.003598 -0.006372 0.000001 0.000001 0.000000
# 2 -0.003598 0.016404 -0.000697 -0.000002 -0.000001 0.000000
# 3 -0.006372 -0.000697 0.014355 -0.000001 -0.000002 0.000000
# 4 0.000001 -0.000002 -0.000001 0.023746 0.000003 0.000000
# 5 0.000001 -0.000001 -0.000002 0.000003 0.047336 0.000000
# 6 0.000000 0.000000 0.000000 0.000000 0.000000 0.040224
#
#
# Mechanical properties :
#
#
# Convention : Reuss Voigt Hill
#
# Bulk Modulus (GPa) = 45.99551 52.47893 49.23722
# Shear Modulus (GPa) = 27.32756 29.74430 28.53593
#
# Velocity S-wave (km/s) = 3.75884 3.92153 3.84104
# Velocity P-wave (km/s) = 6.52833 6.90196 6.71774
#
# Compressibility (1/GPa) = 0.02174125
#
# Stress axis : x y z
#
# Youngs Moduli (GPa) = 81.18709 60.96004 69.66240
#
# Poissons Ratio (x) = 0.21933 0.44391
# Poissons Ratio (y) = 0.29211 0.04857
# Poissons Ratio (z) = 0.51735 0.04250
#
# Static dielectric constant tensor:
#      x y z
#    x 1.672470 0.000000 0.000000 
#    y 0.000000 1.697460 0.000000 
#    z 0.000000 0.000000 1.692300 
# 
# From -- ./inp_files/10227.got.cif
#   From: 2010.05.17/outbox.cif.g08.bks.cpg/sg23_6_cif.got.tgz:10227.got - 2010.06.04 12:02:01.
