data_PCOD9330201
_publ_section_title
;
Structure prediction by ZEFSAII (Michael W. Deem and Ramdas Pophale) SiO2 
 PCOD9330201
Probable space group: I 2 2 2
;
_chemical_formula_sum "Si O2"
_cell_formula_units_Z 52
_cell_length_a 12.340845
_cell_length_b 24.007750
_cell_length_c 8.872549
_cell_angle_alpha 90.000000
_cell_angle_beta 90.000000
_cell_angle_gamma 90.000000
_cell_volume 2628.722631
_symmetry_space_group_name_H-M "I 2 2 2"
_symmetry_group_IT_number 23
_symmetry_cell_setting 'orthorhombic'
loop_
_space_group_symop_operation_xyz
x,y,z
-x,-y,z
x,-y,-z
-x,y,-z
1/2+x,1/2+y,1/2+z
1/2-x,1/2-y,1/2+z
1/2+x,1/2-y,1/2-z
1/2-x,1/2+y,1/2-z
loop_
_atom_site_type_symbol
_atom_site_label
_atom_site_fract_x
_atom_site_fract_y
_atom_site_fract_z
Si Si1 0.500000 0.660413 0.500000
Si Si2 0.307353 0.748736 0.514590
Si Si3 0.105967 0.723882 0.332008
Si Si4 0.995500 0.603707 0.330675
Si Si5 0.888134 0.439291 0.069665
Si Si6 0.540160 0.346587 0.830694
Si Si7 0.206655 0.638009 0.858287
O O1 0.394326 0.699947 0.501139
O O2 0.505441 0.632237 0.667927
O O3 0.187639 0.727831 0.472991
O O4 0.319186 0.771816 0.683232
O O5 0.332813 0.800329 0.403421
O O6 0.042494 0.666506 0.325901
O O7 0.031092 0.778881 0.330004
O O8 0.079111 0.564053 0.241241
O O9 0.000000 0.584678 0.500000
O O10 0.874863 0.608769 0.259510
O O11 0.873954 0.500000 0.000000
O O12 0.796964 0.398801 0.010681
O O13 0.000000 0.414598 0.000000
O O14 0.668681 0.357723 0.815339
O O15 0.500000 0.364571 0.000000
#
# Coordination Sequence:
#
# PCOD9330201 Si02
#       7
#     4   8   8   8   8   8   8
#     4  10  22  32  50  74 115 149 198 232 280 326
#     4  10  20  32  49  76 111 159 193 235 278 347
#     4  10  21  32  51  79 117 156 199 231 289 341
#     4  11  22  33  57  89 117 150 191 248 303 358
#     4   9  19  38  60  81 110 149 186 240 298 362
#     4  10  22  36  53  79 115 162 192 239 283 350
#     4  10  20  37  54  79 112 148 197 231 298 359
#
# _framework density 19.781471
#
# number of rings (size 3 to 8) (size 9 to 14) (size 15 to 20)
#    0.000    2.000    1.538    2.308   11.846    0.000 
#    0.000    6.154    0.000    0.462    0.000    0.000 
#    0.000    0.000    0.000    0.000    0.000    0.000 
#
# Total GULP energy -144868.695581 kJ/mol
# GULP energy per Si atom -5571.872907 kJ/mol
# Density = 1.973645 g / cm^3
# Si number density = 19.781471 Si / 1000 Ang^3
#
#
#
# Elastic Constant Matrix: (Units=GPa)
#
#
# Indices 1 2 3 4 5 6 
#
# 1 45.9731 11.7930 36.1636 -0.0001 0.0001 0.0000
# 2 11.7930 38.1415 14.2894 0.0005 -0.0001 -0.0002
# 3 36.1636 14.2894 164.8308 0.0010 -0.0006 -0.0005
# 4 -0.0001 0.0005 0.0010 10.9273 -0.0001 -0.0001
# 5 0.0001 -0.0001 -0.0006 -0.0001 33.9884 0.0001
# 6 0.0000 -0.0002 -0.0005 -0.0001 0.0001 10.7034
#
#
#
# Elastic Compliance Matrix: (Units=1/GPa)
#
#
# Indices 1 2 3 4 5 6 
#
# 1 0.027772 -0.006516 -0.005528 0.000001 0.000000 0.000000
# 2 -0.006516 0.028627 -0.001052 -0.000001 0.000000 0.000000
# 3 -0.005528 -0.001052 0.007371 -0.000001 0.000000 0.000000
# 4 0.000001 -0.000001 -0.000001 0.091514 0.000000 0.000001
# 5 0.000000 0.000000 0.000000 0.000000 0.029422 0.000000
# 6 0.000000 0.000000 0.000000 0.000001 0.000000 0.093428
#
#
# Mechanical properties :
#
#
# Convention : Reuss Voigt Hill
#
# Bulk Modulus (GPa) = 26.61165 41.49306 34.05236
# Shear Modulus (GPa) = 15.78026 23.57046 19.67536
#
# Velocity S-wave (km/s) = 2.82747 3.45562 3.15721
# Velocity P-wave (km/s) = 4.91340 6.07807 5.52650
#
# Compressibility (1/GPa) = 0.03757752
#
# Stress axis : x y z
#
# Youngs Moduli (GPa) = 36.00756 34.93216 135.66800
#
# Poissons Ratio (x) = 0.22761 0.75001
# Poissons Ratio (y) = 0.23461 0.14275
# Poissons Ratio (z) = 0.19906 0.03675
#
# Static dielectric constant tensor:
#      x y z
#    x 1.710200 0.000000 0.000000 
#    y 0.000000 1.677000 0.000000 
#    z 0.000000 0.000000 1.870010 
# 
# From -- ./inp_files/8823.got.cif
#   From: 2010.05.17/outbox.cif.g08.bks.cpg/sg23_5_cif.got.tgz:8823.got - 2010.06.04 12:02:01.
