data_PCOD9330238
_publ_section_title
;
Structure prediction by ZEFSAII (Michael W. Deem and Ramdas Pophale) SiO2 
 PCOD9330238
Probable space group: I 2 2 2
;
_chemical_formula_sum "Si O2"
_cell_formula_units_Z 36
_cell_length_a 18.644704
_cell_length_b 5.791008
_cell_length_c 13.834468
_cell_angle_alpha 90.000000
_cell_angle_beta 90.000000
_cell_angle_gamma 90.000000
_cell_volume 1493.730060
_symmetry_space_group_name_H-M "I 2 2 2"
_symmetry_group_IT_number 23
_symmetry_cell_setting 'orthorhombic'
loop_
_space_group_symop_operation_xyz
x,y,z
-x,-y,z
x,-y,-z
-x,y,-z
1/2+x,1/2+y,1/2+z
1/2-x,1/2-y,1/2+z
1/2+x,1/2-y,1/2-z
1/2-x,1/2+y,1/2-z
loop_
_atom_site_type_symbol
_atom_site_label
_atom_site_fract_x
_atom_site_fract_y
_atom_site_fract_z
Si Si1 0.674952 0.907750 0.185495
Si Si2 0.921186 0.740057 0.189419
Si Si3 0.473457 0.747571 0.858836
Si Si4 0.688052 0.621478 0.373750
Si Si5 0.879542 0.500000 0.000000
O O1 0.612202 0.756464 0.138065
O O2 0.704203 0.775348 0.279093
O O3 0.632092 0.124798 0.231323
O O4 0.740372 0.971388 0.117252
O O5 0.922938 0.585430 0.093249
O O6 0.994958 0.755312 0.248471
O O7 0.881655 0.970588 0.153388
O O8 0.500000 0.500000 0.897662
O O9 0.500000 0.000000 0.896234
O O10 0.668361 0.788587 0.461246
#
# Coordination Sequence:
#
# PCOD9330238 Si02
#       5
#     8   8   8   8   4
#     4  10  20  33  60  86 118 169 222 280 329 386
#     4  10  20  37  57  82 123 167 216 269 330 409
#     4  10  20  36  59  87 124 163 216 275 329 390
#     4  11  19  36  57  87 120 176 225 276 332 398
#     4  10  24  36  57  86 130 183 218 266 340 421
#
# _framework density 24.100740999999999
#
# number of rings (size 3 to 8) (size 9 to 14) (size 15 to 20)
#    0.000    1.778    4.444    0.667    0.000    0.000 
#    0.000   13.889    0.000    0.000    0.000    0.000 
#    0.000   48.000    0.000    0.000    0.000    0.111 
#
# Total GULP energy -100577.648111 kJ/mol
# GULP energy per Si atom -5587.647117 kJ/mol
# Density = 2.404589 g / cm^3
# Si number density = 24.100741 Si / 1000 Ang^3
#
#
#
# Elastic Constant Matrix: (Units=GPa)
#
#
# Indices 1 2 3 4 5 6 
#
# 1 154.9076 48.6227 41.4884 0.0000 0.0000 0.0000
# 2 48.6227 140.6729 37.4315 0.0000 0.0000 0.0000
# 3 41.4884 37.4315 117.7523 0.0000 0.0000 0.0000
# 4 0.0000 0.0000 0.0000 -44.1396 0.0000 0.0000
# 5 0.0000 0.0000 0.0000 0.0000 18.8135 0.0000
# 6 0.0000 0.0000 0.0000 0.0000 0.0000 34.5253
#
#
#
# Elastic Compliance Matrix: (Units=1/GPa)
#
#
# Indices 1 2 3 4 5 6 
#
# 1 0.007661 -0.002108 -0.002029 0.000000 0.000000 0.000000
# 2 -0.002108 0.008346 -0.001910 0.000000 0.000000 0.000000
# 3 -0.002029 -0.001910 0.009815 0.000000 0.000000 0.000000
# 4 0.000000 0.000000 0.000000 -0.022655 0.000000 0.000000
# 5 0.000000 0.000000 0.000000 0.000000 0.053153 0.000000
# 6 0.000000 0.000000 0.000000 0.000000 0.000000 0.028964
#
#
# Mechanical properties :
#
#
# Convention : Reuss Voigt Hill
#
# Bulk Modulus (GPa) = 72.85273 74.26867 73.56070
# Shear Modulus (GPa) = 49.04244 20.89252 34.96748
#
# Velocity S-wave (km/s) = 4.51587 2.94748 3.81319
# Velocity P-wave (km/s) = 7.58188 6.51662 7.06934
#
# Compressibility (1/GPa) = 0.01372632
#
# Stress axis : x y z
#
# Youngs Moduli (GPa) = 130.53939 119.82413 101.88983
#
# Poissons Ratio (x) = 0.25258 0.20674
# Poissons Ratio (y) = 0.27517 0.19463
# Poissons Ratio (z) = 0.26487 0.22889
#
# Static dielectric constant tensor:
#      x y z
#    x 1.901920 0.000000 0.000000 
#    y 0.000000 2.051020 0.000000 
#    z 0.000000 0.000000 1.878780 
# 
# From -- ./inp_files/19080.got.cif
#   From: 2010.05.17/outbox.cif.g08.bks.cpg/sg23_10_cif.got.tgz:19080.got - 2010.06.04 12:02:01.
