data_PCOD9330221
_publ_section_title
;
Structure prediction by ZEFSAII (Michael W. Deem and Ramdas Pophale) SiO2 
 PCOD9330221
Probable space group: I 2 2 2
;
_chemical_formula_sum "Si O2"
_cell_formula_units_Z 52
_cell_length_a 17.235040
_cell_length_b 16.140884
_cell_length_c 7.192065
_cell_angle_alpha 90.000000
_cell_angle_beta 90.000000
_cell_angle_gamma 90.000000
_cell_volume 2000.751798
_symmetry_space_group_name_H-M "I 2 2 2"
_symmetry_group_IT_number 23
_symmetry_cell_setting 'orthorhombic'
loop_
_space_group_symop_operation_xyz
x,y,z
-x,-y,z
x,-y,-z
-x,y,-z
1/2+x,1/2+y,1/2+z
1/2-x,1/2-y,1/2+z
1/2+x,1/2-y,1/2-z
1/2-x,1/2+y,1/2-z
loop_
_atom_site_type_symbol
_atom_site_label
_atom_site_fract_x
_atom_site_fract_y
_atom_site_fract_z
Si Si1 0.800416 0.474783 0.718218
Si Si2 0.844707 0.817004 0.392878
Si Si3 0.822386 0.760780 0.818106
Si Si4 0.583972 0.843276 0.817831
Si Si5 0.578889 0.114770 0.737356
Si Si6 0.607722 0.500000 0.000000
Si Si7 0.134468 0.063533 0.838258
O O1 0.794380 0.500000 0.500000
O O2 0.836895 0.385067 0.746180
O O3 0.861434 0.540327 0.799442
O O4 0.712463 0.463916 0.779389
O O5 0.838244 0.788911 0.607694
O O6 0.759661 0.787123 0.321074
O O7 0.909375 0.755191 0.306703
O O8 0.864257 0.913168 0.390996
O O9 0.887183 0.693716 0.867177
O O10 0.838984 0.847644 0.921096
O O11 0.513263 0.888721 0.714759
O O12 0.582049 0.868422 0.037851
O O13 0.571892 0.551748 0.176664
O O14 0.119180 0.000000 0.000000
#
# Coordination Sequence:
#
# PCOD9330221 Si02
#       7
#     8   8   8   8   8   4   8
#     4   9  15  26  48  79 110 145 181 219 283 343
#     4  10  20  34  53  80 112 147 186 238 287 338
#     4  10  20  33  53  81 110 147 188 229 288 342
#     4   9  16  29  48  76 112 144 181 232 288 341
#     4   9  17  27  48  78 112 141 182 234 280 345
#     4  10  22  34  52  85 111 140 196 234 280 330
#     4  10  20  34  55  82 113 146 186 234 284 337
#
# _framework density 25.990231000000001
#
# number of rings (size 3 to 8) (size 9 to 14) (size 15 to 20)
#    0.000    2.462    1.538    1.385    4.308    1.846 
#    0.000    0.000    0.000   17.538    0.000    2.154 
#    0.000    0.000    0.000    0.000    0.000    0.000 
#
# Total GULP energy -144904.753471 kJ/mol
# GULP energy per Si atom -5573.259749 kJ/mol
# Density = 2.593108 g / cm^3
# Si number density = 25.990231 Si / 1000 Ang^3
#
#
#
# Elastic Constant Matrix: (Units=GPa)
#
#
# Indices 1 2 3 4 5 6 
#
# 1 56.8913 7.8880 -16.2027 0.0000 0.0000 0.0000
# 2 7.8880 146.4804 9.6830 0.0000 0.0000 0.0000
# 3 -16.2027 9.6830 62.9238 0.0000 0.0000 0.0000
# 4 0.0000 0.0000 0.0000 37.9176 0.0000 0.0000
# 5 0.0000 0.0000 0.0000 0.0000 7.1297 0.0000
# 6 0.0000 0.0000 0.0000 0.0000 0.0000 31.7748
#
#
#
# Elastic Compliance Matrix: (Units=1/GPa)
#
#
# Indices 1 2 3 4 5 6 
#
# 1 0.019240 -0.001378 0.005166 0.000000 0.000000 0.000000
# 2 -0.001378 0.006996 -0.001431 0.000000 0.000000 0.000000
# 3 0.005166 -0.001431 0.017443 0.000000 0.000000 0.000000
# 4 0.000000 0.000000 0.000000 0.026373 0.000000 0.000000
# 5 0.000000 0.000000 0.000000 0.000000 0.140258 0.000000
# 6 0.000000 0.000000 0.000000 0.000000 0.000000 0.031471
#
#
# Mechanical properties :
#
#
# Convention : Reuss Voigt Hill
#
# Bulk Modulus (GPa) = 20.66423 29.89246 25.27835
# Shear Modulus (GPa) = 19.74749 33.02625 26.38687
#
# Velocity S-wave (km/s) = 2.75945 3.56858 3.18977
# Velocity P-wave (km/s) = 4.25685 5.33911 4.82840
#
# Compressibility (1/GPa) = 0.04839279
#
# Stress axis : x y z
#
# Youngs Moduli (GPa) = 51.97586 142.94608 57.33043
#
# Poissons Ratio (x) = 0.19692 -0.29618
# Poissons Ratio (y) = 0.07160 0.08205
# Poissons Ratio (z) = -0.26852 0.20459
#
# Static dielectric constant tensor:
#      x y z
#    x 2.731430 0.000000 0.000000 
#    y 0.000000 2.096590 0.000000 
#    z 0.000000 0.000000 2.089300 
# 
# From -- ./inp_files/11978.got.cif
#   From: 2010.05.17/outbox.cif.g08.bks.cpg/sg23_6_cif.got.tgz:11978.got - 2010.06.04 12:02:01.
