data_PCOD9330004
_publ_section_title
;
Structure prediction by ZEFSAII (Michael W. Deem and Ramdas Pophale) SiO2 
 PCOD9330004
Probable space group: I 2 2 2
;
_chemical_formula_sum "Si O2"
_cell_formula_units_Z 32
_cell_length_a 12.612034
_cell_length_b 9.407682
_cell_length_c 11.161617
_cell_angle_alpha 90.000000
_cell_angle_beta 90.000000
_cell_angle_gamma 90.000000
_cell_volume 1324.325916
_symmetry_space_group_name_H-M "I 2 2 2"
_symmetry_group_IT_number 23
_symmetry_cell_setting 'orthorhombic'
loop_
_space_group_symop_operation_xyz
x,y,z
-x,-y,z
x,-y,-z
-x,y,-z
1/2+x,1/2+y,1/2+z
1/2-x,1/2-y,1/2+z
1/2+x,1/2-y,1/2-z
1/2-x,1/2+y,1/2-z
loop_
_atom_site_type_symbol
_atom_site_label
_atom_site_fract_x
_atom_site_fract_y
_atom_site_fract_z
Si Si1 0.598338 0.348598 0.067580
Si Si2 0.757838 0.448032 0.373810
Si Si3 0.321188 0.242857 0.339938
Si Si4 0.041043 0.155710 0.151996
O O1 0.721422 0.304758 0.079090
O O2 0.561031 0.343108 0.205431
O O3 0.603183 0.500000 0.000000
O O4 0.500000 0.270673 0.000000
O O5 0.806323 0.500000 0.500000
O O6 0.711457 0.592180 0.312034
O O7 0.821507 0.357551 0.277781
O O8 0.657548 0.346164 0.403934
O O9 0.443758 0.242926 0.380551
O O10 0.000000 0.000000 0.122815
#
# Coordination Sequence:
#
# PCOD9330004 Si02
#       4
#     8   8   8   8
#     4  10  19  35  67  98 125 176 230 283 339 410
#     4  10  23  41  67 100 139 187 230 287 348 414
#     4  10  23  39  66 103 136 177 233 288 342 419
#     4   9  18  37  60  91 135 164 223 270 334 418
#
# _framework density 24.163236999999999
#
# number of rings (size 3 to 8) (size 9 to 14) (size 15 to 20)
#    0.000    2.250    2.500    0.000    3.500    4.500 
#    0.000    5.000    0.000    6.000    0.000    0.000 
#    0.000    0.000    0.000    0.000    0.000    0.000 
#
# Total GULP energy -89131.684283 kJ/mol
# GULP energy per Si atom -5570.730268 kJ/mol
# Density = 2.410824 g / cm^3
# Si number density = 24.163237 Si / 1000 Ang^3
#
#
#
# Elastic Constant Matrix: (Units=GPa)
#
#
# Indices 1 2 3 4 5 6 
#
# 1 175.1324 47.0946 45.1766 0.0000 0.0000 0.0000
# 2 47.0946 74.1828 46.0735 0.0000 0.0000 0.0000
# 3 45.1766 46.0735 127.5998 0.0000 0.0000 0.0000
# 4 0.0000 0.0000 0.0000 30.4305 0.0000 0.0000
# 5 0.0000 0.0000 0.0000 0.0000 47.4999 0.0000
# 6 0.0000 0.0000 0.0000 0.0000 0.0000 38.6056
#
#
#
# Elastic Compliance Matrix: (Units=1/GPa)
#
#
# Indices 1 2 3 4 5 6 
#
# 1 0.007009 -0.003749 -0.001128 0.000000 0.000000 0.000000
# 2 -0.003749 0.019383 -0.005671 0.000000 0.000000 0.000000
# 3 -0.001128 -0.005671 0.010284 0.000000 0.000000 0.000000
# 4 0.000000 0.000000 0.000000 0.032862 0.000000 0.000000
# 5 0.000000 0.000000 0.000000 0.000000 0.021053 0.000000
# 6 0.000000 0.000000 0.000000 0.000000 0.000000 0.025903
#
#
# Mechanical properties :
#
#
# Convention : Reuss Voigt Hill
#
# Bulk Modulus (GPa) = 64.18780 72.62272 68.40526
# Shear Modulus (GPa) = 35.01819 39.21189 37.11504
#
# Velocity S-wave (km/s) = 3.81101 4.03276 3.92345
# Velocity P-wave (km/s) = 6.78137 7.19753 6.99255
#
# Compressibility (1/GPa) = 0.01557928
#
# Stress axis : x y z
#
# Youngs Moduli (GPa) = 142.67189 51.59239 97.23787
#
# Poissons Ratio (x) = 0.19343 0.10966
# Poissons Ratio (y) = 0.53491 0.55146
# Poissons Ratio (z) = 0.16090 0.29259
#
# Static dielectric constant tensor:
#      x y z
#    x 1.984250 0.000000 0.000000 
#    y 0.000000 1.969030 0.000000 
#    z 0.000000 0.000000 2.066630 
# 
# From -- ./inp_files/16298.got.cif
#   From: 2010.05.17/outbox.cif.g08.bks.cpg/sg23_9_cif.got.tgz:16298.got - 2010.06.04 12:02:01.
