data_PCOD9330225
_publ_section_title
;
Structure prediction by ZEFSAII (Michael W. Deem and Ramdas Pophale) SiO2 
 PCOD9330225
Probable space group: I 2 2 2
;
_chemical_formula_sum "Si O2"
_cell_formula_units_Z 48
_cell_length_a 7.688912
_cell_length_b 23.350291
_cell_length_c 13.850518
_cell_angle_alpha 90.000000
_cell_angle_beta 90.000000
_cell_angle_gamma 90.000000
_cell_volume 2486.698908
_symmetry_space_group_name_H-M "I 2 2 2"
_symmetry_group_IT_number 23
_symmetry_cell_setting 'orthorhombic'
loop_
_space_group_symop_operation_xyz
x,y,z
-x,-y,z
x,-y,-z
-x,y,-z
1/2+x,1/2+y,1/2+z
1/2-x,1/2-y,1/2+z
1/2+x,1/2-y,1/2-z
1/2-x,1/2+y,1/2-z
loop_
_atom_site_type_symbol
_atom_site_label
_atom_site_fract_x
_atom_site_fract_y
_atom_site_fract_z
Si Si1 0.832170 0.744929 0.129060
Si Si2 0.820412 0.032021 0.863697
Si Si3 0.655986 0.172952 0.195517
Si Si4 0.228643 0.642141 0.255686
Si Si5 0.741778 0.222849 0.589257
Si Si6 0.814738 0.421962 0.553172
O O1 0.762317 0.699254 0.207914
O O2 0.794600 0.808273 0.170234
O O3 0.042643 0.739462 0.120325
O O4 0.756834 0.727950 0.025342
O O5 0.789480 0.078955 0.782241
O O6 0.684883 0.980262 0.884111
O O7 0.812532 0.066841 0.964093
O O8 0.000000 0.000000 0.849216
O O9 0.478422 0.143205 0.227629
O O10 0.628268 0.229818 0.131985
O O11 0.745539 0.128423 0.123744
O O12 0.273055 0.664445 0.148183
O O13 0.000000 0.409828 0.500000
#
# Coordination Sequence:
#
# PCOD9330225 Si02
#       6
#     8   8   8   8   8   8
#     4   9  19  35  53  82 110 141 180 220 276 324
#     4  11  23  35  51  77 110 146 180 221 273 323
#     4  10  20  33  55  79 111 144 178 224 273 322
#     4  10  20  35  53  79 111 145 180 224 266 325
#     4   9  19  34  55  79 109 144 180 222 271 324
#     4  11  21  35  52  78 105 140 183 223 271 326
#
# _framework density 19.302699
#
# number of rings (size 3 to 8) (size 9 to 14) (size 15 to 20)
#    0.000    2.000    1.667    3.000    2.333    0.000 
#    3.000    0.000    0.000    1.000    0.000    7.000 
#    0.000    0.000    0.000    0.000    0.000    0.000 
#
# Total GULP energy -133823.006913 kJ/mol
# GULP energy per Si atom -5575.958621 kJ/mol
# Density = 1.925877 g / cm^3
# Si number density = 19.302699 Si / 1000 Ang^3
#
#
#
# Elastic Constant Matrix: (Units=GPa)
#
#
# Indices 1 2 3 4 5 6 
#
# 1 22.1313 -0.2999 1.8402 0.0000 0.0000 0.0000
# 2 -0.2999 78.8039 38.7616 0.0000 0.0000 0.0000
# 3 1.8402 38.7616 114.6572 0.0001 0.0000 0.0000
# 4 0.0000 0.0000 0.0001 34.1521 0.0000 0.0000
# 5 0.0000 0.0000 0.0000 0.0000 14.1323 0.0000
# 6 0.0000 0.0000 0.0000 0.0000 0.0000 26.7901
#
#
#
# Elastic Compliance Matrix: (Units=1/GPa)
#
#
# Indices 1 2 3 4 5 6 
#
# 1 0.045272 0.000635 -0.000941 0.000000 0.000000 0.000000
# 2 0.000635 0.015230 -0.005159 0.000000 0.000000 0.000000
# 3 -0.000941 -0.005159 0.010481 0.000000 0.000000 0.000000
# 4 0.000000 0.000000 0.000000 0.029281 0.000000 0.000000
# 5 0.000000 0.000000 0.000000 0.000000 0.070760 0.000000
# 6 0.000000 0.000000 0.000000 0.000000 0.000000 0.037327
#
#
# Mechanical properties :
#
#
# Convention : Reuss Voigt Hill
#
# Bulk Modulus (GPa) = 16.65214 32.91070 24.78142
# Shear Modulus (GPa) = 20.89453 26.70093 23.79773
#
# Velocity S-wave (km/s) = 3.29366 3.72327 3.51503
# Velocity P-wave (km/s) = 4.80726 5.96410 5.41665
#
# Compressibility (1/GPa) = 0.06005235
#
# Stress axis : x y z
#
# Youngs Moduli (GPa) = 22.08887 65.66143 95.41276
#
# Poissons Ratio (x) = -0.04171 0.08982
# Poissons Ratio (y) = -0.01403 0.49222
# Poissons Ratio (z) = 0.02079 0.33874
#
# Static dielectric constant tensor:
#      x y z
#    x 1.756520 0.000000 0.000000 
#    y 0.000000 1.687490 0.000000 
#    z 0.000000 0.000000 1.692810 
# 
# From -- ./inp_files/20255.got.cif
#   From: 2010.05.17/outbox.cif.g08.bks.cpg/sg23_11_cif.got.tgz:20255.got - 2010.06.04 12:02:01.
