data_PCOD9330586
_publ_section_title
;
Structure prediction by ZEFSAII (Michael W. Deem and Ramdas Pophale) SiO2 
 PCOD9330586
Probable space group: I 2 2 2
;
_chemical_formula_sum "Si O2"
_cell_formula_units_Z 32
_cell_length_a 25.803256
_cell_length_b 5.338856
_cell_length_c 11.114459
_cell_angle_alpha 90.000000
_cell_angle_beta 90.000000
_cell_angle_gamma 90.000000
_cell_volume 1531.126406
_symmetry_space_group_name_H-M "I 2 2 2"
_symmetry_group_IT_number 23
_symmetry_cell_setting 'orthorhombic'
loop_
_space_group_symop_operation_xyz
x,y,z
-x,-y,z
x,-y,-z
-x,y,-z
1/2+x,1/2+y,1/2+z
1/2-x,1/2-y,1/2+z
1/2+x,1/2-y,1/2-z
1/2-x,1/2+y,1/2-z
loop_
_atom_site_type_symbol
_atom_site_label
_atom_site_fract_x
_atom_site_fract_y
_atom_site_fract_z
Si Si1 0.191731 0.382766 0.621141
Si Si2 0.357366 0.655874 0.660455
Si Si3 0.022310 0.752049 0.136218
Si Si4 0.699652 0.146986 0.363387
O O1 0.170002 0.500000 0.500000
O O2 0.153975 0.204206 0.697957
O O3 0.244705 0.237067 0.592321
O O4 0.206258 0.599475 0.717986
O O5 0.416094 0.725208 0.631545
O O6 0.341001 0.375951 0.626005
O O7 0.320855 0.870296 0.601186
O O8 0.000000 0.500000 0.193288
O O9 0.000000 0.000000 0.196998
O O10 0.000000 0.751239 0.000000
#
# Coordination Sequence:
#
# PCOD9330586 Si02
#       4
#     8   8   8   8
#     4  10  21  39  61  89 128 166 207 250 304 374
#     4  10  20  39  58  82 123 159 197 257 305 357
#     4  10  21  39  60  86 118 153 204 255 316 366
#     4  10  20  39  56  92 125 155 205 249 294 380
#
# _framework density 20.899645
#
# number of rings (size 3 to 8) (size 9 to 14) (size 15 to 20)
#    1.500    0.500    2.500    1.500    0.000    1.000 
#   13.500    0.000    0.000    0.750    0.000    0.000 
#    0.000    0.000    0.000    0.000    0.000    0.000 
#
# Total GULP energy -89291.529359 kJ/mol
# GULP energy per Si atom -5580.720585 kJ/mol
# Density = 2.085208 g / cm^3
# Si number density = 20.899645 Si / 1000 Ang^3
#
#
#
# Elastic Constant Matrix: (Units=GPa)
#
#
# Indices 1 2 3 4 5 6 
#
# 1 151.7280 50.2305 14.8062 0.0000 0.0000 0.0000
# 2 50.2305 176.2829 23.1208 0.0000 0.0000 0.0000
# 3 14.8062 23.1208 57.2265 0.0000 0.0000 0.0000
# 4 0.0000 0.0000 0.0000 36.9770 0.0000 0.0000
# 5 0.0000 0.0000 0.0000 0.0000 22.0136 0.0000
# 6 0.0000 0.0000 0.0000 0.0000 0.0000 33.5839
#
#
#
# Elastic Compliance Matrix: (Units=1/GPa)
#
#
# Indices 1 2 3 4 5 6 
#
# 1 0.007344 -0.001947 -0.001114 0.000000 0.000000 0.000000
# 2 -0.001947 0.006506 -0.002125 0.000000 0.000000 0.000000
# 3 -0.001114 -0.002125 0.018621 0.000000 0.000000 0.000000
# 4 0.000000 0.000000 0.000000 0.027044 0.000000 0.000000
# 5 0.000000 0.000000 0.000000 0.000000 0.045426 0.000000
# 6 0.000000 0.000000 0.000000 0.000000 0.000000 0.029776
#
#
# Mechanical properties :
#
#
# Convention : Reuss Voigt Hill
#
# Bulk Modulus (GPa) = 45.24739 62.39473 53.82106
# Shear Modulus (GPa) = 32.79668 38.32023 35.55845
#
# Velocity S-wave (km/s) = 3.96567 4.28663 4.12927
# Velocity P-wave (km/s) = 6.53189 7.37695 6.96724
#
# Compressibility (1/GPa) = 0.02210072
#
# Stress axis : x y z
#
# Youngs Moduli (GPa) = 136.16898 153.70315 53.70259
#
# Poissons Ratio (x) = 0.29918 0.05980
# Poissons Ratio (y) = 0.26505 0.11412
# Poissons Ratio (z) = 0.15164 0.32661
#
# Static dielectric constant tensor:
#      x y z
#    x 1.702970 0.000000 0.000000 
#    y 0.000000 1.765320 0.000000 
#    z 0.000000 0.000000 1.883550 
# 
# From -- ./inp_files/4235.got.cif
#   From: 2010.05.17/outbox.cif.g08.bks.cpg/sg23_3_cif.got.tgz:4235.got - 2010.06.04 12:02:01.
