data_PCOD9330950
_publ_section_title
;
Structure prediction by ZEFSAII (Michael W. Deem and Ramdas Pophale) SiO2 
 PCOD9330950
Probable space group: I 2 2 2
;
_chemical_formula_sum "Si O2"
_cell_formula_units_Z 48
_cell_length_a 7.869835
_cell_length_b 23.957709
_cell_length_c 12.109482
_cell_angle_alpha 90.000000
_cell_angle_beta 90.000000
_cell_angle_gamma 90.000000
_cell_volume 2283.160690
_symmetry_space_group_name_H-M "I 2 2 2"
_symmetry_group_IT_number 23
_symmetry_cell_setting 'orthorhombic'
loop_
_space_group_symop_operation_xyz
x,y,z
-x,-y,z
x,-y,-z
-x,y,-z
1/2+x,1/2+y,1/2+z
1/2-x,1/2-y,1/2+z
1/2+x,1/2-y,1/2-z
1/2-x,1/2+y,1/2-z
loop_
_atom_site_type_symbol
_atom_site_label
_atom_site_fract_x
_atom_site_fract_y
_atom_site_fract_z
Si Si1 0.376783 0.429424 0.751042
Si Si2 0.246533 0.956330 0.287105
Si Si3 0.344099 0.310487 0.863882
Si Si4 0.673813 0.147698 0.428662
Si Si5 0.040238 0.584421 0.375604
Si Si6 0.999013 0.297265 0.271952
O O1 0.571572 0.442368 0.721711
O O2 0.292483 0.479959 0.822249
O O3 0.386515 0.370992 0.814205
O O4 0.237334 0.425790 0.654430
O O5 0.266458 0.912864 0.386974
O O6 0.409578 0.945898 0.209061
O O7 0.465646 0.260046 0.833141
O O8 0.170942 0.293995 0.800122
O O9 0.303254 0.321181 0.991255
O O10 0.500000 0.141217 0.500000
O O11 0.637438 0.184043 0.319672
O O12 0.012135 0.650406 0.354540
O O13 0.000000 0.568713 0.500000
#
# Coordination Sequence:
#
# PCOD9330950 Si02
#       6
#     8   8   8   8   8   8
#     4  10  23  40  61  95 123 163 209 259 306 381
#     4  10  22  42  64  87 131 161 203 263 317 364
#     4  10  21  38  61  87 122 159 207 249 309 372
#     4   9  20  40  63  92 120 164 207 252 318 378
#     4  10  22  41  63  93 123 164 212 258 316 372
#     4   9  21  38  59  87 124 156 204 258 304 371
#
# _framework density 21.023488
#
# number of rings (size 3 to 8) (size 9 to 14) (size 15 to 20)
#    0.000    2.333    0.000    1.500    4.667    6.000 
#    0.000    7.500    0.000    0.000    0.000    0.000 
#    0.000    0.000    0.000    0.000    0.000    0.000 
#
# Total GULP energy -133955.207888 kJ/mol
# GULP energy per Si atom -5581.466995 kJ/mol
# Density = 2.097564 g / cm^3
# Si number density = 21.023488 Si / 1000 Ang^3
#
#
#
# Elastic Constant Matrix: (Units=GPa)
#
#
# Indices 1 2 3 4 5 6 
#
# 1 93.9469 36.3812 12.4843 0.0000 0.0000 0.0000
# 2 36.3812 154.9557 39.0186 0.0000 0.0000 0.0000
# 3 12.4843 39.0186 69.8748 0.0000 0.0000 0.0001
# 4 0.0000 0.0000 0.0000 7.1397 0.0000 0.0000
# 5 0.0000 0.0000 0.0000 0.0000 12.1473 0.0000
# 6 0.0000 0.0000 0.0001 0.0000 0.0000 30.5578
#
#
#
# Elastic Compliance Matrix: (Units=1/GPa)
#
#
# Indices 1 2 3 4 5 6 
#
# 1 0.011734 -0.002591 -0.000649 0.000000 0.000000 0.000000
# 2 -0.002591 0.008082 -0.004050 0.000000 0.000000 0.000000
# 3 -0.000649 -0.004050 0.016689 0.000000 0.000000 0.000000
# 4 0.000000 0.000000 0.000000 0.140062 0.000000 0.000000
# 5 0.000000 0.000000 0.000000 0.000000 0.082323 0.000000
# 6 0.000000 0.000000 0.000000 0.000000 0.000000 0.032725
#
#
# Mechanical properties :
#
#
# Convention : Reuss Voigt Hill
#
# Bulk Modulus (GPa) = 45.61384 54.94951 50.28167
# Shear Modulus (GPa) = 15.94881 25.36186 20.65534
#
# Velocity S-wave (km/s) = 2.75729 3.47703 3.13787
# Velocity P-wave (km/s) = 5.64629 6.50489 6.09074
#
# Compressibility (1/GPa) = 0.02192317
#
# Stress axis : x y z
#
# Youngs Moduli (GPa) = 85.22122 123.73688 59.92040
#
# Poissons Ratio (x) = 0.32066 0.03891
# Poissons Ratio (y) = 0.22085 0.24267
# Poissons Ratio (z) = 0.05534 0.50112
#
# Static dielectric constant tensor:
#      x y z
#    x 1.803930 0.000000 0.000000 
#    y 0.000000 1.780860 0.000000 
#    z 0.000000 0.000000 1.706750 
# 
# From -- ./inp_files/14750.got.cif
#   From: 2010.05.17/outbox.cif.g08.bks.cpg/sg23_8_cif.got.tgz:14750.got - 2010.06.04 12:02:01.
