data_PCOD9330250
_publ_section_title
;
Structure prediction by ZEFSAII (Michael W. Deem and Ramdas Pophale) SiO2 
 PCOD9330250
Probable space group: I 2 2 2
;
_chemical_formula_sum "Si O2"
_cell_formula_units_Z 64
_cell_length_a 28.747838
_cell_length_b 13.591229
_cell_length_c 7.693145
_cell_angle_alpha 90.000000
_cell_angle_beta 90.000000
_cell_angle_gamma 90.000000
_cell_volume 3005.853686
_symmetry_space_group_name_H-M "I 2 2 2"
_symmetry_group_IT_number 23
_symmetry_cell_setting 'orthorhombic'
loop_
_space_group_symop_operation_xyz
x,y,z
-x,-y,z
x,-y,-z
-x,y,-z
1/2+x,1/2+y,1/2+z
1/2-x,1/2-y,1/2+z
1/2+x,1/2-y,1/2-z
1/2-x,1/2+y,1/2-z
loop_
_atom_site_type_symbol
_atom_site_label
_atom_site_fract_x
_atom_site_fract_y
_atom_site_fract_z
Si Si1 0.700176 0.801032 0.707547
Si Si2 0.704908 0.792256 0.315489
Si Si3 0.648418 0.494280 0.211249
Si Si4 0.758945 0.494699 0.293557
Si Si5 0.948203 0.609612 0.287442
Si Si6 0.885326 0.202359 0.299162
Si Si7 0.391456 0.287526 0.809413
Si Si8 0.557895 0.892339 0.210252
O O1 0.690411 0.768733 0.511222
O O2 0.742868 0.742933 0.788123
O O3 0.654585 0.779886 0.815415
O O4 0.719248 0.910287 0.705804
O O5 0.709959 0.905812 0.274777
O O6 0.668157 0.738664 0.193930
O O7 0.703284 0.490053 0.259387
O O8 0.621494 0.592273 0.277134
O O9 0.623599 0.392685 0.267261
O O10 0.647880 0.500000 0.000000
O O11 0.764524 0.500000 0.500000
O O12 0.927088 0.712314 0.221164
O O13 0.940338 0.609469 0.497944
O O14 0.927744 0.503100 0.230200
O O15 0.003058 0.612802 0.249472
O O16 0.906008 0.189758 0.492532
O O17 0.913447 0.297008 0.224096
#
# Coordination Sequence:
#
# PCOD9330250 Si02
#       8
#     8   8   8   8   8   8   8   8
#     4  12  24  38  55  80 113 149 191 237 280 333
#     4  12  24  38  55  80 113 149 191 237 280 333
#     4  10  20  34  51  74 112 151 186 231 278 327
#     4  12  24  38  56  77 108 152 193 233 284 338
#     4   8  15  30  53  81 110 140 180 232 285 337
#     4  10  20  34  54  80 110 147 190 233 281 337
#     4  10  20  34  54  80 110 147 190 233 281 337
#     4   8  15  30  53  81 110 140 180 232 285 337
#
# _framework density 21.291788
#
# number of rings (size 3 to 8) (size 9 to 14) (size 15 to 20)
#    0.000    1.750    2.500    4.125    1.750    0.000 
#    0.000    0.625    0.000    4.500    0.000    1.750 
#    0.000    3.000    0.000    0.000    0.000    0.000 
#
# Total GULP energy -178428.665267 kJ/mol
# GULP energy per Si atom -5575.895790 kJ/mol
# Density = 2.124333 g / cm^3
# Si number density = 21.291788 Si / 1000 Ang^3
#
#
#
# Elastic Constant Matrix: (Units=GPa)
#
#
# Indices 1 2 3 4 5 6 
#
# 1 52.9267 38.5132 -12.8413 0.0000 0.0000 0.0000
# 2 38.5132 160.1418 -25.7366 0.0000 0.0000 0.0000
# 3 -12.8413 -25.7366 67.0667 0.0000 0.0000 0.0000
# 4 0.0000 0.0000 0.0000 9.9051 0.0000 0.0000
# 5 0.0000 0.0000 0.0000 0.0000 4.5655 0.0000
# 6 0.0000 0.0000 0.0000 0.0000 0.0000 37.5407
#
#
#
# Elastic Compliance Matrix: (Units=1/GPa)
#
#
# Indices 1 2 3 4 5 6 
#
# 1 0.023277 -0.005203 0.002460 0.000000 0.000000 0.000000
# 2 -0.005203 0.007818 0.002004 0.000000 0.000000 0.000000
# 3 0.002460 0.002004 0.016151 0.000000 0.000000 0.000000
# 4 0.000000 0.000000 0.000000 0.100958 0.000000 0.000000
# 5 0.000000 0.000000 0.000000 0.000000 0.219032 0.000000
# 6 0.000000 0.000000 0.000000 0.000000 0.000000 0.026638
#
#
# Mechanical properties :
#
#
# Convention : Reuss Voigt Hill
#
# Bulk Modulus (GPa) = 21.84909 31.11175 26.48042
# Shear Modulus (GPa) = 12.17716 29.08228 20.62972
#
# Velocity S-wave (km/s) = 2.39408 3.69981 3.11610
# Velocity P-wave (km/s) = 4.23393 5.73544 5.04090
#
# Compressibility (1/GPa) = 0.04576850
#
# Stress axis : x y z
#
# Youngs Moduli (GPa) = 42.96137 127.91510 61.91723
#
# Poissons Ratio (x) = 0.66548 -0.15234
# Poissons Ratio (y) = 0.22351 -0.12407
# Poissons Ratio (z) = -0.10570 -0.25633
#
# Static dielectric constant tensor:
#      x y z
#    x 1.705660 0.000000 0.000000 
#    y 0.000000 1.876870 0.000000 
#    z 0.000000 0.000000 1.927440 
# 
# From -- ./inp_files/13505.got.cif
#   From: 2010.05.17/outbox.cif.g08.bks.cpg/sg23_7_cif.got.tgz:13505.got - 2010.06.04 12:02:01.
