data_PCOD9330403
_publ_section_title
;
Structure prediction by ZEFSAII (Michael W. Deem and Ramdas Pophale) SiO2 
 PCOD9330403
Probable space group: I 2 2 2
;
_chemical_formula_sum "Si O2"
_cell_formula_units_Z 42
_cell_length_a 9.680421
_cell_length_b 19.955155
_cell_length_c 10.863613
_cell_angle_alpha 90.000000
_cell_angle_beta 90.000000
_cell_angle_gamma 90.000000
_cell_volume 2098.570853
_symmetry_space_group_name_H-M "I 2 2 2"
_symmetry_group_IT_number 23
_symmetry_cell_setting 'orthorhombic'
loop_
_space_group_symop_operation_xyz
x,y,z
-x,-y,z
x,-y,-z
-x,y,-z
1/2+x,1/2+y,1/2+z
1/2-x,1/2-y,1/2+z
1/2+x,1/2-y,1/2-z
1/2-x,1/2+y,1/2-z
loop_
_atom_site_type_symbol
_atom_site_label
_atom_site_fract_x
_atom_site_fract_y
_atom_site_fract_z
Si Si1 0.000000 0.828854 0.000000
Si Si2 0.225360 0.599625 0.105154
Si Si3 0.500000 0.743269 0.000000
Si Si4 0.737246 0.256125 0.644282
Si Si5 0.957299 0.071097 0.801385
Si Si6 0.828669 0.849663 0.656794
Si Si7 0.500000 0.000000 0.500000
O O1 0.084365 0.877012 0.907408
O O2 0.901214 0.784209 0.916835
O O3 0.213151 0.676180 0.157434
O O4 0.344502 0.567808 0.191539
O O5 0.096213 0.549099 0.085020
O O6 0.270339 0.615311 0.964154
O O7 0.639311 0.775037 0.949921
O O8 0.455875 0.695843 0.888208
O O9 0.765785 0.297175 0.769560
O O10 0.102085 0.097555 0.745861
O O11 0.000000 0.000000 0.853527
#
# Coordination Sequence:
#
# PCOD9330403 Si02
#       7
#     4   8   4   8   8   8   2
#     4  10  24  40  62  96 126 170 214 274 330 380
#     4  11  23  39  61  92 128 171 210 266 321 395
#     4  10  20  36  59  96 121 162 204 260 330 382
#     4  10  22  38  65  92 128 163 217 273 330 385
#     4  11  21  39  64  89 120 168 217 264 309 390
#     4  10  20  38  61  91 121 160 215 269 323 374
#     4  12  26  40  54  98 138 180 206 262 340 388
#
# _framework density 20.01362
#
# number of rings (size 3 to 8) (size 9 to 14) (size 15 to 20)
#    0.000    1.524    3.810    2.000    5.333    2.286 
#    0.000    0.000    0.000    0.000    0.000    0.000 
#    0.000    0.000    0.000    0.000    0.000    0.000 
#
# Total GULP energy -116972.815326 kJ/mol
# GULP energy per Si atom -5570.134063 kJ/mol
# Density = 1.996807 g / cm^3
# Si number density = 20.013620 Si / 1000 Ang^3
#
#
#
# Elastic Constant Matrix: (Units=GPa)
#
#
# Indices 1 2 3 4 5 6 
#
# 1 66.6301 40.4686 9.9924 0.0000 0.0000 0.0000
# 2 40.4686 89.0309 31.6397 -0.0002 0.0000 0.0001
# 3 9.9924 31.6397 65.3395 -0.0001 0.0000 0.0000
# 4 0.0000 -0.0002 -0.0001 10.3424 0.0000 0.0001
# 5 0.0000 0.0000 0.0000 0.0000 29.1362 0.0000
# 6 0.0000 0.0001 0.0000 0.0001 0.0000 9.7701
#
#
#
# Elastic Compliance Matrix: (Units=1/GPa)
#
#
# Indices 1 2 3 4 5 6 
#
# 1 0.020886 -0.010096 0.001695 0.000000 0.000000 0.000000
# 2 -0.010096 0.018447 -0.007389 0.000000 0.000000 0.000000
# 3 0.001695 -0.007389 0.018623 0.000000 0.000000 0.000000
# 4 0.000000 0.000000 0.000000 0.096690 0.000000 -0.000001
# 5 0.000000 0.000000 0.000000 0.000000 0.034322 0.000000
# 6 0.000000 0.000000 0.000000 -0.000001 0.000000 0.102353
#
#
# Mechanical properties :
#
#
# Convention : Reuss Voigt Hill
#
# Bulk Modulus (GPa) = 37.91256 42.80018 40.35637
# Shear Modulus (GPa) = 15.07422 19.10973 17.09198
#
# Velocity S-wave (km/s) = 2.74742 3.09340 2.92553
# Velocity P-wave (km/s) = 5.38971 5.84729 5.62315
#
# Compressibility (1/GPa) = 0.02637648
#
# Stress axis : x y z
#
# Youngs Moduli (GPa) = 47.87916 54.20980 53.69601
#
# Poissons Ratio (x) = 0.54729 -0.09100
# Poissons Ratio (y) = 0.48338 0.39674
# Poissons Ratio (z) = -0.08114 0.40054
#
# Static dielectric constant tensor:
#      x y z
#    x 1.715860 0.000000 0.000000 
#    y 0.000000 1.744180 0.000000 
#    z 0.000000 0.000000 1.741290 
# 
# From -- ./inp_files/14643.got.cif
#   From: 2010.05.17/outbox.cif.g08.bks.cpg/sg23_8_cif.got.tgz:14643.got - 2010.06.04 12:02:01.
