data_PCOD9330532
_publ_section_title
;
Structure prediction by ZEFSAII (Michael W. Deem and Ramdas Pophale) SiO2 
 PCOD9330532
Probable space group: I 2 2 2
;
_chemical_formula_sum "Si O2"
_cell_formula_units_Z 48
_cell_length_a 5.633003
_cell_length_b 15.992113
_cell_length_c 22.649579
_cell_angle_alpha 90.000000
_cell_angle_beta 90.000000
_cell_angle_gamma 90.000000
_cell_volume 2040.356079
_symmetry_space_group_name_H-M "I 2 2 2"
_symmetry_group_IT_number 23
_symmetry_cell_setting 'orthorhombic'
loop_
_space_group_symop_operation_xyz
x,y,z
-x,-y,z
x,-y,-z
-x,y,-z
1/2+x,1/2+y,1/2+z
1/2-x,1/2-y,1/2+z
1/2+x,1/2-y,1/2-z
1/2-x,1/2+y,1/2-z
loop_
_atom_site_type_symbol
_atom_site_label
_atom_site_fract_x
_atom_site_fract_y
_atom_site_fract_z
Si Si1 0.000000 0.000000 0.500000
Si Si2 0.599903 0.333534 0.190801
Si Si3 0.375732 0.329585 0.305273
Si Si4 0.251936 0.456736 0.389677
Si Si5 0.000000 0.000000 0.000000
Si Si6 0.281660 0.754454 0.397723
Si Si7 0.694969 0.132151 0.572698
Si Si8 0.000000 0.266933 0.500000
O O1 0.816945 0.054871 0.539347
O O2 0.488970 0.373907 0.248718
O O3 0.752509 0.255814 0.215539
O O4 0.397560 0.296404 0.148308
O O5 0.757901 0.381415 0.142718
O O6 0.197229 0.385207 0.342358
O O7 0.552983 0.301579 0.357008
O O8 0.500000 0.500000 0.366135
O O9 0.339750 0.442833 0.456886
O O10 0.000000 0.500000 0.395291
O O11 0.425811 0.832146 0.428355
O O12 0.170691 0.697488 0.449666
O O13 0.837915 0.209377 0.543053
#
# Coordination Sequence:
#
# PCOD9330532 Si02
#       8
#     2   8   8   8   2   8   8   4
#     4  10  20  44  68  94 132 198 216 290 338 410
#     4  10  21  38  64  99 135 169 229 280 339 418
#     4  11  22  40  69  97 137 181 221 291 356 403
#     4  10  24  45  70  99 141 184 232 288 356 433
#     4   8  22  48  68  92 142 172 234 288 338 436
#     4  10  20  38  60  97 130 178 218 294 329 417
#     4   9  20  38  62  90 131 173 230 270 339 395
#     4   9  18  37  58  86 132 160 220 280 331 400
#
# _framework density 23.525304999999999
#
# number of rings (size 3 to 8) (size 9 to 14) (size 15 to 20)
#    0.500    1.667    1.667    0.750    2.333    0.000 
#   10.500   15.000   14.667    0.000    0.000    0.000 
#    0.000    0.000    0.000    0.000    0.000    0.000 
#
# Total GULP energy -133654.470640 kJ/mol
# GULP energy per Si atom -5568.936277 kJ/mol
# Density = 2.347176 g / cm^3
# Si number density = 23.525305 Si / 1000 Ang^3
#
#
#
# Elastic Constant Matrix: (Units=GPa)
#
#
# Indices 1 2 3 4 5 6 
#
# 1 87.3734 3.7537 43.9296 0.0000 0.0000 0.0000
# 2 3.7537 19.5418 25.6102 0.0000 0.0000 0.0000
# 3 43.9296 25.6102 172.6876 0.0000 0.0000 0.0000
# 4 0.0000 0.0000 0.0000 1.7265 0.0000 0.0000
# 5 0.0000 0.0000 0.0000 0.0000 23.0605 0.0000
# 6 0.0000 0.0000 0.0000 0.0000 0.0000 10.7609
#
#
#
# Elastic Compliance Matrix: (Units=1/GPa)
#
#
# Indices 1 2 3 4 5 6 
#
# 1 0.013208 0.002316 -0.003703 0.000000 0.000000 0.000000
# 2 0.002316 0.063924 -0.010069 0.000000 0.000000 0.000000
# 3 -0.003703 -0.010069 0.008226 0.000000 0.000000 0.000000
# 4 0.000000 0.000000 0.000000 0.579196 0.000000 0.000000
# 5 0.000000 0.000000 0.000000 0.000000 0.043364 0.000000
# 6 0.000000 0.000000 0.000000 0.000000 0.000000 0.092929
#
#
# Mechanical properties :
#
#
# Convention : Reuss Voigt Hill
#
# Bulk Modulus (GPa) = 16.01411 47.35440 31.68425
# Shear Modulus (GPa) = 5.92014 20.86355 13.39185
#
# Velocity S-wave (km/s) = 1.58807 2.98124 2.38849
# Velocity P-wave (km/s) = 3.19133 5.65891 4.59390
#
# Compressibility (1/GPa) = 0.06244495
#
# Stress axis : x y z
#
# Youngs Moduli (GPa) = 75.71398 15.64362 121.56244
#
# Poissons Ratio (x) = -0.03624 0.45019
# Poissons Ratio (y) = -0.17539 1.22406
# Poissons Ratio (z) = 0.28040 0.15752
#
# Static dielectric constant tensor:
#      x y z
#    x 2.010830 0.000000 0.000000 
#    y 0.000000 1.988260 0.000000 
#    z 0.000000 0.000000 1.860520 
# 
# From -- ./inp_files/27669.got.cif
#   From: 2010.05.17/outbox.cif.g08.bks.cpg/sg23_14_cif.got.tgz:27669.got - 2010.06.04 12:02:01.
