data_PCOD9330587
_publ_section_title
;
Structure prediction by ZEFSAII (Michael W. Deem and Ramdas Pophale) SiO2 
 PCOD9330587
Probable space group: I 2 2 2
;
_chemical_formula_sum "Si O2"
_cell_formula_units_Z 52
_cell_length_a 10.522072
_cell_length_b 9.872070
_cell_length_c 25.789162
_cell_angle_alpha 90.000000
_cell_angle_beta 90.000000
_cell_angle_gamma 90.000000
_cell_volume 2678.839695
_symmetry_space_group_name_H-M "I 2 2 2"
_symmetry_group_IT_number 23
_symmetry_cell_setting 'orthorhombic'
loop_
_space_group_symop_operation_xyz
x,y,z
-x,-y,z
x,-y,-z
-x,y,-z
1/2+x,1/2+y,1/2+z
1/2-x,1/2-y,1/2+z
1/2+x,1/2-y,1/2-z
1/2-x,1/2+y,1/2-z
loop_
_atom_site_type_symbol
_atom_site_label
_atom_site_fract_x
_atom_site_fract_y
_atom_site_fract_z
Si Si1 0.388336 0.815294 0.899623
Si Si2 0.184273 0.162704 0.788854
Si Si3 0.133077 0.420389 0.717806
Si Si4 0.347522 0.475612 0.059254
Si Si5 0.000000 0.000000 0.141265
Si Si6 0.198839 0.995364 0.057449
Si Si7 0.184041 0.248111 0.390046
O O1 0.359225 0.876362 0.842721
O O2 0.327249 0.671583 0.916029
O O3 0.330436 0.922486 0.939575
O O4 0.539173 0.791419 0.901259
O O5 0.146600 0.280898 0.749569
O O6 0.283574 0.222509 0.830637
O O7 0.254510 0.026901 0.768337
O O8 0.063400 0.111332 0.821819
O O9 0.000000 0.500000 0.725996
O O10 0.500000 0.500000 0.058139
O O11 0.294531 0.593432 0.095423
O O12 0.303443 0.500000 0.000000
O O13 0.106630 0.055065 0.101665
O O14 0.227205 0.843296 0.075283
O O15 0.146875 0.000000 0.000000
#
# Coordination Sequence:
#
# PCOD9330587 Si02
#       7
#     8   8   8   8   4   8   8
#     4  11  20  38  62  90 130 159 207 274 317 390
#     4  11  26  42  67  90 130 169 222 277 334 403
#     4  12  25  45  66  97 127 168 224 280 340 405
#     4   9  19  33  55  88 124 159 198 243 316 381
#     4  10  23  44  58  88 130 166 217 264 322 392
#     4  11  21  36  64  89 123 172 213 263 323 388
#     4  10  20  39  57  91 126 158 208 270 320 386
#
# _framework density 19.411389
#
# number of rings (size 3 to 8) (size 9 to 14) (size 15 to 20)
#    0.000    1.385    4.615    1.615    4.308    2.462 
#    1.385    0.000    0.000    0.000    0.000    3.231 
#    0.000    0.000    0.000    0.000    0.000    0.000 
#
# Total GULP energy -145057.523053 kJ/mol
# GULP energy per Si atom -5579.135502 kJ/mol
# Density = 1.936721 g / cm^3
# Si number density = 19.411389 Si / 1000 Ang^3
#
#
#
# Elastic Constant Matrix: (Units=GPa)
#
#
# Indices 1 2 3 4 5 6 
#
# 1 61.9824 25.3691 30.5501 0.0000 0.0000 0.0000
# 2 25.3691 131.3020 46.5865 0.0000 0.0000 0.0000
# 3 30.5501 46.5865 81.9067 0.0000 0.0000 0.0000
# 4 0.0000 0.0000 0.0000 30.7126 0.0000 0.0000
# 5 0.0000 0.0000 0.0000 0.0000 10.1325 0.0000
# 6 0.0000 0.0000 0.0000 0.0000 0.0000 18.2399
#
#
#
# Elastic Compliance Matrix: (Units=1/GPa)
#
#
# Indices 1 2 3 4 5 6 
#
# 1 0.020009 -0.001526 -0.006595 0.000000 0.000000 0.000000
# 2 -0.001526 0.009658 -0.004924 0.000000 0.000000 0.000000
# 3 -0.006595 -0.004924 0.017470 0.000000 0.000000 0.000000
# 4 0.000000 0.000000 0.000000 0.032560 0.000000 0.000000
# 5 0.000000 0.000000 0.000000 0.000000 0.098693 0.000000
# 6 0.000000 0.000000 0.000000 0.000000 0.000000 0.054825
#
#
# Mechanical properties :
#
#
# Convention : Reuss Voigt Hill
#
# Bulk Modulus (GPa) = 47.51468 53.35584 50.43526
# Shear Modulus (GPa) = 18.77447 23.32936 21.05192
#
# Velocity S-wave (km/s) = 3.11334 3.47052 3.29677
# Velocity P-wave (km/s) = 6.12003 6.60347 6.36634
#
# Compressibility (1/GPa) = 0.02104613
#
# Stress axis : x y z
#
# Youngs Moduli (GPa) = 49.97802 103.54189 57.24249
#
# Poissons Ratio (x) = 0.15800 0.37752
# Poissons Ratio (y) = 0.07627 0.28186
# Poissons Ratio (z) = 0.32961 0.50984
#
# Static dielectric constant tensor:
#      x y z
#    x 1.722590 0.000000 0.000000 
#    y 0.000000 1.726730 0.000000 
#    z 0.000000 0.000000 1.676770 
# 
# From -- ./inp_files/8813.got.cif
#   From: 2010.05.17/outbox.cif.g08.bks.cpg/sg23_5_cif.got.tgz:8813.got - 2010.06.04 12:02:01.
