data_PCOD9330486
_publ_section_title
;
Structure prediction by ZEFSAII (Michael W. Deem and Ramdas Pophale) SiO2 
 PCOD9330486
Probable space group: I 2 2 2
;
_chemical_formula_sum "Si O2"
_cell_formula_units_Z 50
_cell_length_a 9.160941
_cell_length_b 14.567006
_cell_length_c 19.033791
_cell_angle_alpha 90.000000
_cell_angle_beta 90.000000
_cell_angle_gamma 90.000000
_cell_volume 2540.011492
_symmetry_space_group_name_H-M "I 2 2 2"
_symmetry_group_IT_number 23
_symmetry_cell_setting 'orthorhombic'
loop_
_space_group_symop_operation_xyz
x,y,z
-x,-y,z
x,-y,-z
-x,y,-z
1/2+x,1/2+y,1/2+z
1/2-x,1/2-y,1/2+z
1/2+x,1/2-y,1/2-z
1/2-x,1/2+y,1/2-z
loop_
_atom_site_type_symbol
_atom_site_label
_atom_site_fract_x
_atom_site_fract_y
_atom_site_fract_z
Si Si1 0.025535 0.727625 0.295218
Si Si2 0.620212 0.926852 0.316864
Si Si3 0.661018 0.704021 0.674831
Si Si4 0.000000 0.500000 0.500000
Si Si5 0.420073 0.783132 0.570338
Si Si6 0.172327 0.005027 0.202454
Si Si7 0.183869 0.363318 0.402848
O O1 0.926747 0.794915 0.248693
O O2 0.937609 0.697317 0.363386
O O3 0.051669 0.640203 0.243283
O O4 0.188810 0.759304 0.314203
O O5 0.655040 0.862107 0.382656
O O6 0.748030 0.980343 0.276673
O O7 0.500000 0.000000 0.339041
O O8 0.551151 0.743316 0.618208
O O9 0.703334 0.599080 0.659073
O O10 0.102679 0.434874 0.452892
O O11 0.500000 0.815256 0.500000
O O12 0.301966 0.702223 0.559656
O O13 0.233959 0.919631 0.158919
O O14 0.000000 0.000000 0.209604
#
# Coordination Sequence:
#
# PCOD9330486 Si02
#       7
#     8   8   8   2   8   8   8
#     4  10  20  37  63  89 123 154 209 262 321 371
#     4  10  20  40  66  92 122 162 216 274 321 383
#     4  10  21  37  61  91 122 163 202 266 317 377
#     4  12  28  36  66  84 136 190 208 252 320 424
#     4  11  26  42  60  90 129 175 219 262 327 399
#     4  11  21  35  63  95 124 153 204 273 328 379
#     4  12  24  41  59  96 129 172 210 259 325 405
#
# _framework density 19.684950000000001
#
# number of rings (size 3 to 8) (size 9 to 14) (size 15 to 20)
#    0.000    1.280    3.200    4.800    4.480    0.320 
#    0.000    0.000    0.000    0.000    0.000    0.000 
#    0.000    0.000    0.000    0.000    0.000    0.000 
#
# Total GULP energy -139616.239702 kJ/mol
# GULP energy per Si atom -5584.649588 kJ/mol
# Density = 1.964015 g / cm^3
# Si number density = 19.684950 Si / 1000 Ang^3
#
#
#
# Elastic Constant Matrix: (Units=GPa)
#
#
# Indices 1 2 3 4 5 6 
#
# 1 120.2657 12.3797 28.7870 0.0000 0.0000 0.0000
# 2 12.3797 44.4818 10.7338 0.0000 0.0000 0.0000
# 3 28.7870 10.7338 76.1005 0.0000 0.0000 0.0000
# 4 0.0000 0.0000 0.0000 18.7503 0.0000 0.0000
# 5 0.0000 0.0000 0.0000 0.0000 22.5383 0.0000
# 6 0.0000 0.0000 0.0000 0.0000 0.0000 33.7093
#
#
#
# Elastic Compliance Matrix: (Units=1/GPa)
#
#
# Indices 1 2 3 4 5 6 
#
# 1 0.009279 -0.001797 -0.003257 0.000000 0.000000 0.000000
# 2 -0.001797 0.023621 -0.002652 0.000000 0.000000 0.000000
# 3 -0.003257 -0.002652 0.014747 0.000000 0.000000 0.000000
# 4 0.000000 0.000000 0.000000 0.053332 0.000000 0.000000
# 5 0.000000 0.000000 0.000000 0.000000 0.044369 0.000000
# 6 0.000000 0.000000 0.000000 0.000000 0.000000 0.029665
#
#
# Mechanical properties :
#
#
# Convention : Reuss Voigt Hill
#
# Bulk Modulus (GPa) = 31.02116 38.29433 34.65774
# Shear Modulus (GPa) = 24.85458 27.59608 26.22533
#
# Velocity S-wave (km/s) = 3.55719 3.74824 3.65396
# Velocity P-wave (km/s) = 5.71529 6.18290 5.95369
#
# Compressibility (1/GPa) = 0.03223607
#
# Stress axis : x y z
#
# Youngs Moduli (GPa) = 107.76546 42.33501 67.81245
#
# Poissons Ratio (x) = 0.07606 0.22085
# Poissons Ratio (y) = 0.19362 0.17984
# Poissons Ratio (z) = 0.35097 0.11228
#
# Static dielectric constant tensor:
#      x y z
#    x 1.702510 0.000000 0.000000 
#    y 0.000000 1.758780 0.000000 
#    z 0.000000 0.000000 1.678660 
# 
# From -- ./inp_files/23750.got.cif
#   From: 2010.05.17/outbox.cif.g08.bks.cpg/sg23_12_cif.got.tgz:23750.got - 2010.06.04 12:02:01.
