data_PCOD9330123
_publ_section_title
;
Structure prediction by ZEFSAII (Michael W. Deem and Ramdas Pophale) SiO2 
 PCOD9330123
Probable space group: I 2 2 2
;
_chemical_formula_sum "Si O2"
_cell_formula_units_Z 48
_cell_length_a 6.514416
_cell_length_b 11.168585
_cell_length_c 26.890435
_cell_angle_alpha 90.000000
_cell_angle_beta 90.000000
_cell_angle_gamma 90.000000
_cell_volume 1956.462238
_symmetry_space_group_name_H-M "I 2 2 2"
_symmetry_group_IT_number 23
_symmetry_cell_setting 'orthorhombic'
loop_
_space_group_symop_operation_xyz
x,y,z
-x,-y,z
x,-y,-z
-x,y,-z
1/2+x,1/2+y,1/2+z
1/2-x,1/2-y,1/2+z
1/2+x,1/2-y,1/2-z
1/2-x,1/2+y,1/2-z
loop_
_atom_site_type_symbol
_atom_site_label
_atom_site_fract_x
_atom_site_fract_y
_atom_site_fract_z
Si Si1 0.211686 0.389771 0.649352
Si Si2 0.445316 0.682784 0.443520
Si Si3 0.596388 0.633917 0.049430
Si Si4 0.685316 0.434893 0.742492
Si Si5 0.324141 0.242279 0.873800
Si Si6 0.499036 0.800535 0.302093
O O1 0.298778 0.400616 0.592308
O O2 0.326758 0.268314 0.666396
O O3 0.719868 0.517020 0.692866
O O4 0.968490 0.362503 0.648779
O O5 0.500000 0.644680 0.500000
O O6 0.328982 0.813895 0.448692
O O7 0.655269 0.693701 0.412374
O O8 0.500000 0.500000 0.047857
O O9 0.490379 0.683352 0.097663
O O10 0.500000 0.693256 0.000000
O O11 0.500000 0.500000 0.770870
O O12 0.595582 0.303364 0.731588
O O13 0.888244 0.402520 0.772035
O O14 0.192057 0.325411 0.837241
#
# Coordination Sequence:
#
# PCOD9330123 Si02
#       6
#     8   8   8   8   8   8
#     4   9  22  43  71 105 150 199 252 319 400 464
#     4  10  19  38  68 106 146 202 258 321 388 478
#     4  10  20  36  63  99 145 197 253 317 398 472
#     4  10  23  49  77 107 146 199 260 319 396 473
#     4  10  21  41  66 100 148 197 249 319 389 461
#     4  10  23  44  74 103 141 192 254 318 384 466
#
# _framework density 24.534079999999999
#
# number of rings (size 3 to 8) (size 9 to 14) (size 15 to 20)
#    0.000    2.167    1.667    0.000    2.333    1.333 
#    9.000    9.167   25.667   12.500    4.333    0.000 
#    0.000    0.000    0.000    0.000    0.000    0.000 
#
# Total GULP energy -133782.128327 kJ/mol
# GULP energy per Si atom -5574.255347 kJ/mol
# Density = 2.447824 g / cm^3
# Si number density = 24.534080 Si / 1000 Ang^3
#
#
#
# Elastic Constant Matrix: (Units=GPa)
#
#
# Indices 1 2 3 4 5 6 
#
# 1 187.9979 61.7590 82.3967 0.0000 0.0000 0.0000
# 2 61.7590 89.4278 53.1345 0.0000 0.0000 0.0000
# 3 82.3967 53.1345 130.0767 0.0000 0.0000 0.0000
# 4 0.0000 0.0000 0.0000 36.2133 0.0000 0.0000
# 5 0.0000 0.0000 0.0000 0.0000 83.7706 0.0000
# 6 0.0000 0.0000 0.0000 0.0000 0.0000 54.9657
#
#
#
# Elastic Compliance Matrix: (Units=1/GPa)
#
#
# Indices 1 2 3 4 5 6 
#
# 1 0.008055 -0.003342 -0.003737 0.000000 0.000000 0.000000
# 2 -0.003342 0.016153 -0.004481 0.000000 0.000000 0.000000
# 3 -0.003737 -0.004481 0.011886 0.000000 0.000000 0.000000
# 4 0.000000 0.000000 0.000000 0.027614 0.000000 0.000000
# 5 0.000000 0.000000 0.000000 0.000000 0.011937 0.000000
# 6 0.000000 0.000000 0.000000 0.000000 0.000000 0.018193
#
#
# Mechanical properties :
#
#
# Convention : Reuss Voigt Hill
#
# Bulk Modulus (GPa) = 77.08682 89.12031 83.10356
# Shear Modulus (GPa) = 41.22566 49.00406 45.11486
#
# Velocity S-wave (km/s) = 4.10365 4.47406 4.29285
# Velocity P-wave (km/s) = 7.34450 7.94315 7.64968
#
# Compressibility (1/GPa) = 0.01297239
#
# Stress axis : x y z
#
# Youngs Moduli (GPa) = 124.14365 61.90832 84.13611
#
# Poissons Ratio (x) = 0.20692 0.31443
# Poissons Ratio (y) = 0.41494 0.37701
# Poissons Ratio (z) = 0.46395 0.27741
#
# Static dielectric constant tensor:
#      x y z
#    x 2.056220 0.000000 0.000000 
#    y 0.000000 1.870990 0.000000 
#    z 0.000000 0.000000 2.045510 
# 
# From -- ./inp_files/28946.got.cif
#   From: 2010.05.17/outbox.cif.g08.bks.cpg/sg23_15_cif.got.tgz:28946.got - 2010.06.04 12:02:01.
