data_PCOD9330444
_publ_section_title
;
Structure prediction by ZEFSAII (Michael W. Deem and Ramdas Pophale) SiO2 
 PCOD9330444
Probable space group: I 2 2 2
;
_chemical_formula_sum "Si O2"
_cell_formula_units_Z 64
_cell_length_a 29.709620
_cell_length_b 12.737306
_cell_length_c 7.840220
_cell_angle_alpha 90.000000
_cell_angle_beta 90.000000
_cell_angle_gamma 90.000000
_cell_volume 2966.900138
_symmetry_space_group_name_H-M "I 2 2 2"
_symmetry_group_IT_number 23
_symmetry_cell_setting 'orthorhombic'
loop_
_space_group_symop_operation_xyz
x,y,z
-x,-y,z
x,-y,-z
-x,y,-z
1/2+x,1/2+y,1/2+z
1/2-x,1/2-y,1/2+z
1/2+x,1/2-y,1/2-z
1/2-x,1/2+y,1/2-z
loop_
_atom_site_type_symbol
_atom_site_label
_atom_site_fract_x
_atom_site_fract_y
_atom_site_fract_z
Si Si1 0.720571 0.238666 0.534477
Si Si2 0.049044 0.881526 0.779410
Si Si3 0.554763 0.621587 0.308351
Si Si4 0.367005 0.214941 0.232761
Si Si5 0.710789 0.615881 0.728236
Si Si6 0.134911 0.486422 0.309128
Si Si7 0.128564 0.748353 0.663492
Si Si8 0.272049 0.049224 0.682650
O O1 0.675678 0.239054 0.647271
O O2 0.728090 0.354146 0.460321
O O3 0.758558 0.178074 0.636560
O O4 0.776995 0.995789 0.727805
O O5 0.080079 0.801878 0.677025
O O6 0.996420 0.859160 0.747983
O O7 0.062950 0.002396 0.744789
O O8 0.054799 0.874004 0.984869
O O9 0.592446 0.703953 0.255328
O O10 0.380260 0.094452 0.278936
O O11 0.355240 0.224773 0.030477
O O12 0.661325 0.664288 0.751023
O O13 0.720853 0.829614 0.641250
O O14 0.116983 0.500000 0.500000
O O15 0.125289 0.367435 0.249631
O O16 0.189352 0.491248 0.306806
O O17 0.285461 0.000000 0.500000
#
# Coordination Sequence:
#
# PCOD9330444 Si02
#       8
#     8   8   8   8   8   8   8   8
#     4  11  22  39  59  84 124 165 215 268 324 371
#     4   9  20  43  67  97 126 168 200 268 335 390
#     4   9  20  41  71  94 129 160 212 259 333 404
#     4  11  22  40  63  93 123 171 216 263 324 392
#     4  11  22  36  58  85 116 167 213 258 314 374
#     4  10  21  38  58  86 122 167 209 258 320 375
#     4  11  23  39  62  91 131 166 215 268 322 394
#     4  10  20  37  57  80 115 164 206 257 313 374
#
# _framework density 21.571338000000001
#
# number of rings (size 3 to 8) (size 9 to 14) (size 15 to 20)
#    0.000    1.750    3.750    2.250    1.750    1.000 
#    9.000    1.875    2.750    3.750    0.000    0.000 
#    0.000    0.000    0.000    0.000    0.000    0.000 
#
# Total GULP energy -178361.019478 kJ/mol
# GULP energy per Si atom -5573.781859 kJ/mol
# Density = 2.152224 g / cm^3
# Si number density = 21.571338 Si / 1000 Ang^3
#
#
#
# Elastic Constant Matrix: (Units=GPa)
#
#
# Indices 1 2 3 4 5 6 
#
# 1 60.7955 52.8949 -12.0083 0.0000 0.0000 0.0000
# 2 52.8949 104.4786 14.5432 0.0000 0.0000 0.0000
# 3 -12.0083 14.5432 36.9715 0.0000 0.0000 0.0000
# 4 0.0000 0.0000 0.0000 36.3825 0.0000 0.0000
# 5 0.0000 0.0000 0.0000 0.0000 25.5760 0.0000
# 6 0.0000 0.0000 0.0000 0.0000 0.0000 31.1620
#
#
#
# Elastic Compliance Matrix: (Units=1/GPa)
#
#
# Indices 1 2 3 4 5 6 
#
# 1 0.042958 -0.025063 0.023811 0.000000 0.000000 0.000000
# 2 -0.025063 0.024748 -0.017875 0.000000 0.000000 0.000000
# 3 0.023811 -0.017875 0.041813 0.000000 0.000000 0.000000
# 4 0.000000 0.000000 0.000000 0.027486 0.000000 0.000000
# 5 0.000000 0.000000 0.000000 0.000000 0.039099 0.000000
# 6 0.000000 0.000000 0.000000 0.000000 0.000000 0.032090
#
#
# Mechanical properties :
#
#
# Convention : Reuss Voigt Hill
#
# Bulk Modulus (GPa) = 14.03207 34.78949 24.41078
# Shear Modulus (GPa) = 18.50457 28.41181 23.45819
#
# Velocity S-wave (km/s) = 2.93205 3.63314 3.30126
# Velocity P-wave (km/s) = 4.24048 5.81053 5.08645
#
# Compressibility (1/GPa) = 0.07126533
#
# Stress axis : x y z
#
# Youngs Moduli (GPa) = 23.27874 40.40685 23.91583
#
# Poissons Ratio (x) = 1.01271 -0.56947
# Poissons Ratio (y) = 0.58343 0.42751
# Poissons Ratio (z) = -0.55430 0.72229
#
# Static dielectric constant tensor:
#      x y z
#    x 1.747750 0.000000 0.000000 
#    y 0.000000 1.934200 0.000000 
#    z 0.000000 0.000000 1.877430 
# 
# From -- ./inp_files/13504.got.cif
#   From: 2010.05.17/outbox.cif.g08.bks.cpg/sg23_7_cif.got.tgz:13504.got - 2010.06.04 12:02:01.
