data_PCOD9330733
_publ_section_title
;
Structure prediction by ZEFSAII (Michael W. Deem and Ramdas Pophale) SiO2 
 PCOD9330733
Probable space group: I 2 2 2
;
_chemical_formula_sum "Si O2"
_cell_formula_units_Z 64
_cell_length_a 32.722058
_cell_length_b 8.077931
_cell_length_c 11.964201
_cell_angle_alpha 90.000000
_cell_angle_beta 90.000000
_cell_angle_gamma 90.000000
_cell_volume 3162.455695
_symmetry_space_group_name_H-M "I 2 2 2"
_symmetry_group_IT_number 23
_symmetry_cell_setting 'orthorhombic'
loop_
_space_group_symop_operation_xyz
x,y,z
-x,-y,z
x,-y,-z
-x,y,-z
1/2+x,1/2+y,1/2+z
1/2-x,1/2-y,1/2+z
1/2+x,1/2-y,1/2-z
1/2-x,1/2+y,1/2-z
loop_
_atom_site_type_symbol
_atom_site_label
_atom_site_fract_x
_atom_site_fract_y
_atom_site_fract_z
Si Si1 0.510654 0.691938 0.872109
Si Si2 0.100399 0.677166 0.656332
Si Si3 0.235964 0.017894 0.133053
Si Si4 0.129191 0.824584 0.438719
Si Si5 0.851334 0.155247 0.855674
Si Si6 0.125770 0.230720 0.900638
Si Si7 0.067088 0.319497 0.726578
Si Si8 0.806153 0.283488 0.258301
O O1 0.500000 0.500000 0.855634
O O2 0.558141 0.721800 0.852738
O O3 0.480683 0.799335 0.794549
O O4 0.500000 0.737356 0.000000
O O5 0.122851 0.692032 0.537376
O O6 0.129118 0.759318 0.749041
O O7 0.085690 0.494491 0.688899
O O8 0.197779 0.144376 0.148135
O O9 0.276625 0.079236 0.192731
O O10 0.220862 0.850353 0.191983
O O11 0.241567 0.000000 0.000000
O O12 0.090453 0.809373 0.355885
O O13 0.168701 0.794826 0.361925
O O14 0.130729 0.000000 0.500000
O O15 0.865410 0.962282 0.868203
O O16 0.866732 0.243429 0.968487
O O17 0.082110 0.280157 0.851399
O O18 0.159083 0.335251 0.830319
#
# Coordination Sequence:
#
# PCOD9330733 Si02
#       8
#     8   8   8   8   8   8   8   8
#     4  11  22  39  63  92 127 172 210 251 310 386
#     4  12  24  37  63  98 128 168 203 266 326 363
#     4  11  22  42  64  91 128 166 214 272 327 383
#     4  11  22  40  60  88 125 169 217 250 310 385
#     4  10  20  42  67  83 120 170 221 250 314 386
#     4   9  19  42  64  85 119 169 211 257 304 383
#     4  11  23  37  61  94 132 160 207 265 319 373
#     4  10  23  39  64  92 122 161 210 265 319 376
#
# _framework density 20.237435999999999
#
# number of rings (size 3 to 8) (size 9 to 14) (size 15 to 20)
#    0.000    1.375    3.750    4.500    0.000    7.000 
#    0.000    0.625    0.000    3.750    0.000    0.000 
#    0.000    0.000    0.000    0.000    0.000    0.000 
#
# Total GULP energy -178868.855085 kJ/mol
# GULP energy per Si atom -5589.651721 kJ/mol
# Density = 2.019137 g / cm^3
# Si number density = 20.237436 Si / 1000 Ang^3
#
#
#
# Elastic Constant Matrix: (Units=GPa)
#
#
# Indices 1 2 3 4 5 6 
#
# 1 55.5444 14.6685 35.5967 0.0000 0.0000 0.0000
# 2 14.6685 32.3901 5.8016 0.0000 0.0000 0.0000
# 3 35.5967 5.8016 102.0694 0.0000 0.0000 0.0000
# 4 0.0000 0.0000 0.0000 22.5566 0.0000 0.0000
# 5 0.0000 0.0000 0.0000 0.0000 27.9090 0.0000
# 6 0.0000 0.0000 0.0000 0.0000 0.0000 30.6186
#
#
#
# Elastic Compliance Matrix: (Units=1/GPa)
#
#
# Indices 1 2 3 4 5 6 
#
# 1 0.026217 -0.010341 -0.008556 0.000000 0.000000 0.000000
# 2 -0.010341 0.035270 0.001602 0.000000 0.000000 0.000000
# 3 -0.008556 0.001602 0.012690 0.000000 0.000000 0.000000
# 4 0.000000 0.000000 0.000000 0.044333 0.000000 0.000000
# 5 0.000000 0.000000 0.000000 0.000000 0.035831 0.000000
# 6 0.000000 0.000000 0.000000 0.000000 0.000000 0.032660
#
#
# Mechanical properties :
#
#
# Convention : Reuss Voigt Hill
#
# Bulk Modulus (GPa) = 25.26027 33.57084 29.41555
# Shear Modulus (GPa) = 21.29600 25.14598 23.22099
#
# Velocity S-wave (km/s) = 3.24745 3.52880 3.39104
# Velocity P-wave (km/s) = 5.15464 5.76435 5.46800
#
# Compressibility (1/GPa) = 0.03958785
#
# Stress axis : x y z
#
# Youngs Moduli (GPa) = 38.14258 28.35295 78.80239
#
# Poissons Ratio (x) = 0.29319 0.67420
# Poissons Ratio (y) = 0.39442 -0.12621
# Poissons Ratio (z) = 0.32633 -0.04541
#
# Static dielectric constant tensor:
#      x y z
#    x 1.706910 0.000000 0.000000 
#    y 0.000000 1.761490 0.000000 
#    z 0.000000 0.000000 1.702030 
# 
# From -- ./inp_files/18797.got.cif
#   From: 2010.05.17/outbox.cif.g08.bks.cpg/sg23_10_cif.got.tgz:18797.got - 2010.06.04 12:02:01.
