data_PCOD9330306
_publ_section_title
;
Structure prediction by ZEFSAII (Michael W. Deem and Ramdas Pophale) SiO2 
 PCOD9330306
Probable space group: I 2 2 2
;
_chemical_formula_sum "Si O2"
_cell_formula_units_Z 48
_cell_length_a 9.216045
_cell_length_b 7.719139
_cell_length_c 37.820192
_cell_angle_alpha 90.000000
_cell_angle_beta 90.000000
_cell_angle_gamma 90.000000
_cell_volume 2690.525902
_symmetry_space_group_name_H-M "I 2 2 2"
_symmetry_group_IT_number 23
_symmetry_cell_setting 'orthorhombic'
loop_
_space_group_symop_operation_xyz
x,y,z
-x,-y,z
x,-y,-z
-x,y,-z
1/2+x,1/2+y,1/2+z
1/2-x,1/2-y,1/2+z
1/2+x,1/2-y,1/2-z
1/2-x,1/2+y,1/2-z
loop_
_atom_site_type_symbol
_atom_site_label
_atom_site_fract_x
_atom_site_fract_y
_atom_site_fract_z
Si Si1 0.666633 0.946633 0.372089
Si Si2 0.098668 0.833386 0.177459
Si Si3 0.825099 0.998931 0.445163
Si Si4 0.830411 0.478280 0.276245
Si Si5 0.319869 0.129153 0.700721
Si Si6 0.676293 0.202506 0.999221
O O1 0.659802 0.749859 0.358263
O O2 0.500000 0.000000 0.379040
O O3 0.759666 0.983987 0.406366
O O4 0.719951 0.047992 0.336983
O O5 0.228864 0.886029 0.203063
O O6 0.984747 0.699767 0.195428
O O7 0.000000 0.000000 0.170065
O O8 0.782029 0.177617 0.465386
O O9 0.780970 0.828376 0.468028
O O10 0.000000 0.000000 0.443949
O O11 0.777736 0.293215 0.289712
O O12 0.805333 0.506463 0.234575
O O13 0.000000 0.500000 0.283367
O O14 0.500000 0.195934 0.000000
O O15 0.725747 0.000000 0.000000
#
# Coordination Sequence:
#
# PCOD9330306 Si02
#       6
#     8   8   8   8   8   8
#     4  10  20  37  54  73 108 150 172 212 274 336
#     4   9  20  37  53  72 104 145 183 217 278 339
#     4   9  18  33  57  84 110 140 181 223 267 317
#     4  11  20  33  54  78  98 134 190 241 268 315
#     4  10  20  35  53  72 104 144 179 219 281 331
#     4   8  15  33  57  82 110 145 176 214 270 325
#
# _framework density 17.840377
#
# number of rings (size 3 to 8) (size 9 to 14) (size 15 to 20)
#    0.000    2.500    0.000    4.500    0.000    1.333 
#    9.000    5.833    0.000    1.000    0.000    0.000 
#    0.000    0.000    0.000    0.000    0.000    0.000 
#
# Total GULP energy -133737.883101 kJ/mol
# GULP energy per Si atom -5572.411796 kJ/mol
# Density = 1.779977 g / cm^3
# Si number density = 17.840377 Si / 1000 Ang^3
#
#
#
# Elastic Constant Matrix: (Units=GPa)
#
#
# Indices 1 2 3 4 5 6 
#
# 1 53.8101 35.3371 55.7924 0.0000 0.0000 0.0000
# 2 35.3371 137.6773 79.4293 0.0000 0.0000 0.0000
# 3 55.7924 79.4293 163.6976 0.0000 0.0000 0.0000
# 4 0.0000 0.0000 0.0000 18.4010 0.0000 0.0000
# 5 0.0000 0.0000 0.0000 0.0000 31.3101 0.0000
# 6 0.0000 0.0000 0.0000 0.0000 0.0000 18.3044
#
#
#
# Elastic Compliance Matrix: (Units=1/GPa)
#
#
# Indices 1 2 3 4 5 6 
#
# 1 0.029321 -0.002445 -0.008807 0.000000 0.000000 0.000000
# 2 -0.002445 0.010291 -0.004160 0.000000 0.000000 0.000000
# 3 -0.008807 -0.004160 0.011129 0.000000 0.000000 0.000000
# 4 0.000000 0.000000 0.000000 0.054345 0.000000 0.000000
# 5 0.000000 0.000000 0.000000 0.000000 0.031939 0.000000
# 6 0.000000 0.000000 0.000000 0.000000 0.000000 0.054632
#
#
# Mechanical properties :
#
#
# Convention : Reuss Voigt Hill
#
# Bulk Modulus (GPa) = 50.20827 77.36696 63.78761
# Shear Modulus (GPa) = 21.82275 25.91153 23.86714
#
# Velocity S-wave (km/s) = 3.50125 3.81518 3.66158
# Velocity P-wave (km/s) = 6.67452 7.92893 7.32861
#
# Compressibility (1/GPa) = 0.01991704
#
# Stress axis : x y z
#
# Youngs Moduli (GPa) = 34.10544 97.17320 89.85437
#
# Poissons Ratio (x) = 0.23755 0.79136
# Poissons Ratio (y) = 0.08337 0.37381
# Poissons Ratio (z) = 0.30037 0.40426
#
# Static dielectric constant tensor:
#      x y z
#    x 1.603240 0.000000 0.000000 
#    y 0.000000 1.675530 0.000000 
#    z 0.000000 0.000000 1.588270 
# 
# From -- ./inp_files/30226.got.cif
#   From: 2010.05.17/outbox.cif.g08.bks.cpg/sg23_16_cif.got.tgz:30226.got - 2010.06.04 12:02:01.
