data_PCOD9330119
_publ_section_title
;
Structure prediction by ZEFSAII (Michael W. Deem and Ramdas Pophale) SiO2 
 PCOD9330119
Probable space group: I 2 2 2
;
_chemical_formula_sum "Si O2"
_cell_formula_units_Z 48
_cell_length_a 12.196507
_cell_length_b 12.771475
_cell_length_c 12.873504
_cell_angle_alpha 90.000000
_cell_angle_beta 90.000000
_cell_angle_gamma 90.000000
_cell_volume 2005.272044
_symmetry_space_group_name_H-M "I 2 2 2"
_symmetry_group_IT_number 23
_symmetry_cell_setting 'orthorhombic'
loop_
_space_group_symop_operation_xyz
x,y,z
-x,-y,z
x,-y,-z
-x,y,-z
1/2+x,1/2+y,1/2+z
1/2-x,1/2-y,1/2+z
1/2+x,1/2-y,1/2-z
1/2-x,1/2+y,1/2-z
loop_
_atom_site_type_symbol
_atom_site_label
_atom_site_fract_x
_atom_site_fract_y
_atom_site_fract_z
Si Si1 0.234136 0.262292 0.918167
Si Si2 0.751145 0.967868 0.316633
Si Si3 0.328142 0.652840 0.387620
Si Si4 0.500000 0.000000 0.000000
Si Si5 0.597578 0.123057 0.188765
Si Si6 0.000000 0.000000 0.000000
Si Si7 0.523618 0.724759 0.293359
Si Si8 0.000000 0.000000 0.317527
O O1 0.213497 0.385533 0.904488
O O2 0.333837 0.224621 0.847058
O O3 0.127050 0.211593 0.866020
O O4 0.249092 0.208746 0.029378
O O5 0.771837 0.901144 0.210110
O O6 0.667096 0.055847 0.273298
O O7 0.873107 0.001011 0.357794
O O8 0.413730 0.568510 0.434879
O O9 0.413616 0.743556 0.358489
O O10 0.576922 0.939235 0.917964
O O11 0.479938 0.170738 0.224113
O O12 0.505597 0.614229 0.236930
#
# Coordination Sequence:
#
# PCOD9330119 Si02
#       8
#     8   8   8   2   8   2   8   4
#     4  12  22  37  68  96 130 178 221 275 344 403
#     4  11  23  41  65 104 133 174 228 282 343 403
#     4  11  21  36  62 103 133 164 225 286 327 396
#     4  12  28  46  64 104 138 176 244 274 340 428
#     4  12  24  44  67  96 140 184 218 288 348 407
#     4  12  18  34  68 100 124 164 218 294 324 358
#     4  11  22  40  65  96 137 171 220 285 343 394
#     4  10  19  38  65  99 133 170 221 274 325 407
#
# _framework density 23.936900999999999
#
# number of rings (size 3 to 8) (size 9 to 14) (size 15 to 20)
#    0.000    0.667    6.667    5.000    0.000    0.000 
#    0.000    0.833    0.000    2.500    0.000    1.167 
#    0.000    0.000    0.000    0.000    0.000    0.000 
#
# Total GULP energy -133700.523202 kJ/mol
# GULP energy per Si atom -5570.855133 kJ/mol
# Density = 2.388242 g / cm^3
# Si number density = 23.936901 Si / 1000 Ang^3
#
#
#
# Elastic Constant Matrix: (Units=GPa)
#
#
# Indices 1 2 3 4 5 6 
#
# 1 61.0518 13.4722 -1.4165 0.0000 0.0000 0.0000
# 2 13.4722 104.0913 20.8942 0.0000 0.0000 0.0000
# 3 -1.4165 20.8942 40.0348 0.0000 0.0000 0.0000
# 4 0.0000 0.0000 0.0000 14.0711 0.0000 0.0000
# 5 0.0000 0.0000 0.0000 0.0000 12.1510 0.0000
# 6 0.0000 0.0000 0.0000 0.0000 0.0000 47.8861
#
#
#
# Elastic Compliance Matrix: (Units=1/GPa)
#
#
# Indices 1 2 3 4 5 6 
#
# 1 0.016997 -0.002592 0.001954 0.000000 0.000000 0.000000
# 2 -0.002592 0.011126 -0.005899 0.000000 0.000000 0.000000
# 3 0.001954 -0.005899 0.028126 0.000000 0.000000 0.000000
# 4 0.000000 0.000000 0.000000 0.071068 0.000000 0.000000
# 5 0.000000 0.000000 0.000000 0.000000 0.082298 0.000000
# 6 0.000000 0.000000 0.000000 0.000000 0.000000 0.020883
#
#
# Mechanical properties :
#
#
# Convention : Reuss Voigt Hill
#
# Bulk Modulus (GPa) = 23.16091 30.11974 26.64033
# Shear Modulus (GPa) = 19.38263 26.30350 22.84307
#
# Velocity S-wave (km/s) = 2.84868 3.31851 3.09253
# Velocity P-wave (km/s) = 4.52955 5.22433 4.88930
#
# Compressibility (1/GPa) = 0.04317619
#
# Stress axis : x y z
#
# Youngs Moduli (GPa) = 58.83430 89.87571 35.55440
#
# Poissons Ratio (x) = 0.23297 -0.06948
# Poissons Ratio (y) = 0.15251 0.20972
# Poissons Ratio (z) = -0.11498 0.53014
#
# Static dielectric constant tensor:
#      x y z
#    x 1.957710 0.000000 0.000000 
#    y 0.000000 2.025380 0.000000 
#    z 0.000000 0.000000 2.109930 
# 
# From -- ./inp_files/21579.got.cif
#   From: 2010.05.17/outbox.cif.g08.bks.cpg/sg23_11_cif.got.tgz:21579.got - 2010.06.04 12:02:01.
