data_PCOD9330878
_publ_section_title
;
Structure prediction by ZEFSAII (Michael W. Deem and Ramdas Pophale) SiO2 
 PCOD9330878
Probable space group: I 2 2 2
;
_chemical_formula_sum "Si O2"
_cell_formula_units_Z 56
_cell_length_a 5.095122
_cell_length_b 21.753870
_cell_length_c 26.695087
_cell_angle_alpha 90.000000
_cell_angle_beta 90.000000
_cell_angle_gamma 90.000000
_cell_volume 2958.846647
_symmetry_space_group_name_H-M "I 2 2 2"
_symmetry_group_IT_number 23
_symmetry_cell_setting 'orthorhombic'
loop_
_space_group_symop_operation_xyz
x,y,z
-x,-y,z
x,-y,-z
-x,y,-z
1/2+x,1/2+y,1/2+z
1/2-x,1/2-y,1/2+z
1/2+x,1/2-y,1/2-z
1/2-x,1/2+y,1/2-z
loop_
_atom_site_type_symbol
_atom_site_label
_atom_site_fract_x
_atom_site_fract_y
_atom_site_fract_z
Si Si1 0.077519 0.265259 0.640151
Si Si2 0.743901 0.759006 0.533462
Si Si3 0.867167 0.637365 0.723192
Si Si4 0.873085 0.933909 0.748967
Si Si5 0.077940 0.310721 0.830460
Si Si6 0.850141 0.436788 0.856483
Si Si7 0.755967 0.595582 0.033996
O O1 0.186862 0.275644 0.584453
O O2 0.060594 0.325886 0.673568
O O3 0.298804 0.221808 0.664028
O O4 0.803565 0.228320 0.642335
O O5 0.500000 0.737611 0.500000
O O6 0.701722 0.831547 0.545619
O O7 0.000000 0.756426 0.500000
O O8 0.572131 0.612619 0.724602
O O9 0.876191 0.682027 0.771368
O O10 0.078970 0.583090 0.733416
O O11 0.856826 0.926514 0.688466
O O12 0.000000 0.000000 0.758929
O O13 0.049306 0.379201 0.852709
O O14 0.737203 0.437134 0.912444
O O15 0.000000 0.500000 0.845817
O O16 0.500000 0.588727 0.000000
O O17 0.000000 0.575068 0.000000
#
# Coordination Sequence:
#
# PCOD9330878 Si02
#       7
#     8   8   8   8   8   8   8
#     4  12  22  38  61  85 118 149 189 245 297 351
#     4  10  21  37  58  81 111 154 194 233 298 355
#     4  11  23  37  60  90 116 149 196 231 288 356
#     4  11  23  42  60  85 121 155 187 233 289 354
#     4  11  22  36  57  83 116 151 189 249 303 350
#     4  11  24  41  62  82 109 159 214 254 297 348
#     4  10  23  39  58  76 107 148 202 261 305 338
#
# _framework density 18.926295
#
# number of rings (size 3 to 8) (size 9 to 14) (size 15 to 20)
#    0.000    1.143    1.429    6.429    4.000    2.571 
#    0.000    0.714    0.000    0.000    0.000    0.000 
#    0.000    8.571    0.000    0.000    0.000    0.000 
#
# Total GULP energy -156552.673112 kJ/mol
# GULP energy per Si atom -5591.166897 kJ/mol
# Density = 1.888322 g / cm^3
# Si number density = 18.926295 Si / 1000 Ang^3
#
#
#
# Elastic Constant Matrix: (Units=GPa)
#
#
# Indices 1 2 3 4 5 6 
#
# 1 80.5749 18.7281 13.0709 0.0000 0.0000 0.0000
# 2 18.7281 55.6524 41.9152 0.0000 0.0000 0.0000
# 3 13.0709 41.9152 95.9399 0.0000 0.0000 0.0000
# 4 0.0000 0.0000 0.0000 22.0180 0.0000 0.0000
# 5 0.0000 0.0000 0.0000 0.0000 16.9911 0.0000
# 6 0.0000 0.0000 0.0000 0.0000 0.0000 14.9930
#
#
#
# Elastic Compliance Matrix: (Units=1/GPa)
#
#
# Indices 1 2 3 4 5 6 
#
# 1 0.013467 -0.004695 0.000216 0.000000 0.000000 0.000000
# 2 -0.004695 0.028418 -0.011776 0.000000 0.000000 0.000000
# 3 0.000216 -0.011776 0.015538 0.000000 0.000000 0.000000
# 4 0.000000 0.000000 0.000000 0.045417 0.000000 0.000000
# 5 0.000000 0.000000 0.000000 0.000000 0.058854 0.000000
# 6 0.000000 0.000000 0.000000 0.000000 0.000000 0.066698
#
#
# Mechanical properties :
#
#
# Convention : Reuss Voigt Hill
#
# Bulk Modulus (GPa) = 40.13720 42.17729 41.15725
# Shear Modulus (GPa) = 18.57317 21.36397 19.96857
#
# Velocity S-wave (km/s) = 3.13604 3.36340 3.25171
# Velocity P-wave (km/s) = 5.86226 6.11692 5.99094
#
# Compressibility (1/GPa) = 0.02491454
#
# Stress axis : x y z
#
# Youngs Moduli (GPa) = 74.25586 35.18944 64.35666
#
# Poissons Ratio (x) = 0.16521 -0.01393
# Poissons Ratio (y) = 0.34862 0.75785
# Poissons Ratio (z) = -0.01607 0.41438
#
# Static dielectric constant tensor:
#      x y z
#    x 1.676130 0.000000 0.000000 
#    y 0.000000 1.691380 0.000000 
#    z 0.000000 0.000000 1.669300 
# 
# From -- ./inp_files/27708.got.cif
#   From: 2010.05.17/outbox.cif.g08.bks.cpg/sg23_14_cif.got.tgz:27708.got - 2010.06.04 12:02:01.
