data_PCOD9330827
_publ_section_title
;
Structure prediction by ZEFSAII (Michael W. Deem and Ramdas Pophale) SiO2 
 PCOD9330827
Probable space group: I 2 2 2
;
_chemical_formula_sum "Si O2"
_cell_formula_units_Z 48
_cell_length_a 13.545355
_cell_length_b 8.251348
_cell_length_c 21.904764
_cell_angle_alpha 90.000000
_cell_angle_beta 90.000000
_cell_angle_gamma 90.000000
_cell_volume 2448.239350
_symmetry_space_group_name_H-M "I 2 2 2"
_symmetry_group_IT_number 23
_symmetry_cell_setting 'orthorhombic'
loop_
_space_group_symop_operation_xyz
x,y,z
-x,-y,z
x,-y,-z
-x,y,-z
1/2+x,1/2+y,1/2+z
1/2-x,1/2-y,1/2+z
1/2+x,1/2-y,1/2-z
1/2-x,1/2+y,1/2-z
loop_
_atom_site_type_symbol
_atom_site_label
_atom_site_fract_x
_atom_site_fract_y
_atom_site_fract_z
Si Si1 0.414719 0.116275 0.174660
Si Si2 0.878648 0.185712 0.569201
Si Si3 0.238272 0.688666 0.178338
Si Si4 0.615772 0.700722 0.066018
Si Si5 0.159766 0.623562 0.780471
Si Si6 0.470813 0.314065 0.287357
O O1 0.347411 0.187949 0.121352
O O2 0.455977 0.265700 0.215683
O O3 0.500000 0.000000 0.148447
O O4 0.369199 0.001283 0.226380
O O5 0.811550 0.245297 0.624906
O O6 0.852518 0.251686 0.501895
O O7 0.996256 0.213189 0.573863
O O8 0.864842 0.990724 0.569558
O O9 0.221702 0.494632 0.176394
O O10 0.284632 0.735980 0.243947
O O11 0.130843 0.772424 0.178309
O O12 0.060605 0.698438 0.808263
O O13 0.500000 0.500000 0.292688
#
# Coordination Sequence:
#
# PCOD9330827 Si02
#       6
#     8   8   8   8   8   8
#     4   9  18  31  51  80 115 149 189 226 281 347
#     4   9  19  32  52  82 110 151 192 230 279 345
#     4  11  21  35  54  82 121 150 198 236 289 361
#     4   9  18  33  53  77 114 153 185 229 285 342
#     4  10  22  34  51  86 117 154 190 234 298 350
#     4  10  21  36  55  84 120 158 189 242 299 348
#
# _framework density 19.605927000000001
#
# number of rings (size 3 to 8) (size 9 to 14) (size 15 to 20)
#    0.000    2.333    0.000    5.500    9.333    0.000 
#    0.000    5.833    0.000    0.000    0.000    9.333 
#    0.000    0.000    0.000    0.000    0.000    0.000 
#
# Total GULP energy -133813.591301 kJ/mol
# GULP energy per Si atom -5575.566304 kJ/mol
# Density = 1.956130 g / cm^3
# Si number density = 19.605927 Si / 1000 Ang^3
#
#
#
# Elastic Constant Matrix: (Units=GPa)
#
#
# Indices 1 2 3 4 5 6 
#
# 1 89.6248 21.5150 29.5098 0.0000 0.0000 0.0000
# 2 21.5150 61.3092 32.0775 0.0000 0.0000 0.0000
# 3 29.5098 32.0775 76.1097 0.0000 0.0000 0.0000
# 4 0.0000 0.0000 0.0000 23.2899 0.0000 0.0000
# 5 0.0000 0.0000 0.0000 0.0000 25.0636 0.0000
# 6 0.0000 0.0000 0.0000 0.0000 0.0000 28.9367
#
#
#
# Elastic Compliance Matrix: (Units=1/GPa)
#
#
# Indices 1 2 3 4 5 6 
#
# 1 0.013079 -0.002484 -0.004024 0.000000 0.000000 0.000000
# 2 -0.002484 0.021397 -0.008055 0.000000 0.000000 0.000000
# 3 -0.004024 -0.008055 0.018094 0.000000 0.000000 0.000000
# 4 0.000000 0.000000 0.000000 0.042937 0.000000 0.000000
# 5 0.000000 0.000000 0.000000 0.000000 0.039899 0.000000
# 6 0.000000 0.000000 0.000000 0.000000 0.000000 0.034558
#
#
# Mechanical properties :
#
#
# Convention : Reuss Voigt Hill
#
# Bulk Modulus (GPa) = 42.65566 43.69425 43.17496
# Shear Modulus (GPa) = 24.16574 25.05412 24.60993
#
# Velocity S-wave (km/s) = 3.51461 3.57863 3.54676
# Velocity P-wave (km/s) = 6.18658 6.27775 6.23233
#
# Compressibility (1/GPa) = 0.02344355
#
# Stress axis : x y z
#
# Youngs Moduli (GPa) = 76.45872 46.73563 55.26706
#
# Poissons Ratio (x) = 0.11611 0.22239
# Poissons Ratio (y) = 0.18995 0.44517
# Poissons Ratio (z) = 0.30767 0.37645
#
# Static dielectric constant tensor:
#      x y z
#    x 1.761240 0.000000 0.000000 
#    y 0.000000 1.754130 0.000000 
#    z 0.000000 0.000000 1.741250 
# 
# From -- ./inp_files/26907.got.cif
#   From: 2010.05.17/outbox.cif.g08.bks.cpg/sg23_14_cif.got.tgz:26907.got - 2010.06.04 12:02:01.
