data_PCOD9330484
_publ_section_title
;
Structure prediction by ZEFSAII (Michael W. Deem and Ramdas Pophale) SiO2 
 PCOD9330484
Probable space group: I 2 2 2
;
_chemical_formula_sum "Si O2"
_cell_formula_units_Z 64
_cell_length_a 15.826484
_cell_length_b 7.491305
_cell_length_c 24.513261
_cell_angle_alpha 90.000000
_cell_angle_beta 90.000000
_cell_angle_gamma 90.000000
_cell_volume 2906.317196
_symmetry_space_group_name_H-M "I 2 2 2"
_symmetry_group_IT_number 23
_symmetry_cell_setting 'orthorhombic'
loop_
_space_group_symop_operation_xyz
x,y,z
-x,-y,z
x,-y,-z
-x,y,-z
1/2+x,1/2+y,1/2+z
1/2-x,1/2-y,1/2+z
1/2+x,1/2-y,1/2-z
1/2-x,1/2+y,1/2-z
loop_
_atom_site_type_symbol
_atom_site_label
_atom_site_fract_x
_atom_site_fract_y
_atom_site_fract_z
Si Si1 0.267297 0.696227 0.399735
Si Si2 0.668331 0.239565 0.793000
Si Si3 0.985010 0.203343 0.682690
Si Si4 0.589666 0.566085 0.436118
Si Si5 0.319030 0.894609 0.591208
Si Si6 0.295372 0.340725 0.805749
Si Si7 0.185445 0.804491 0.506885
Si Si8 0.468567 0.801141 0.060059
O O1 0.214847 0.659665 0.345555
O O2 0.333760 0.541808 0.409656
O O3 0.201138 0.714069 0.449474
O O4 0.315848 0.890726 0.400060
O O5 0.567910 0.195441 0.793631
O O6 0.677928 0.451991 0.802329
O O7 0.727209 0.196528 0.741463
O O8 0.887482 0.256919 0.696410
O O9 0.991062 0.205131 0.616306
O O10 0.000000 0.000000 0.701428
O O11 0.500000 0.500000 0.415428
O O12 0.593697 0.500000 0.500000
O O13 0.598393 0.773336 0.417406
O O14 0.257776 0.821672 0.638783
O O15 0.273926 0.845774 0.534552
O O16 0.130902 0.697662 0.549773
O O17 0.145169 0.000000 0.500000
O O18 0.500000 0.000000 0.066723
O O19 0.500000 0.737956 0.000000
#
# Coordination Sequence:
#
# PCOD9330484 Si02
#       8
#     8   8   8   8   8   8   8   8
#     4  10  22  42  65  93 131 171 217 266 330 399
#     4  10  23  41  65  92 122 168 213 269 332 381
#     4  10  22  42  64  89 124 165 214 259 318 393
#     4  11  24  40  64  98 131 168 217 274 331 390
#     4  10  21  41  66  92 125 171 215 263 329 395
#     4  10  22  43  65  90 124 166 217 269 327 387
#     4  10  20  37  63  88 123 172 207 253 324 391
#     4  11  24  34  52  94 132 159 203 255 313 381
#
# _framework density 22.020997000000001
#
# number of rings (size 3 to 8) (size 9 to 14) (size 15 to 20)
#    0.000    1.750    2.500    0.750    5.250    4.500 
#    2.250    1.250    0.000    0.000    0.000    0.000 
#    0.000    0.000    0.000    0.000    0.000    0.000 
#
# Total GULP energy -178426.864913 kJ/mol
# GULP energy per Si atom -5575.839529 kJ/mol
# Density = 2.197088 g / cm^3
# Si number density = 22.020997 Si / 1000 Ang^3
#
#
#
# Elastic Constant Matrix: (Units=GPa)
#
#
# Indices 1 2 3 4 5 6 
#
# 1 85.4717 4.9431 29.3882 0.0000 0.0000 0.0000
# 2 4.9431 45.8241 -16.5720 0.0000 0.0000 0.0000
# 3 29.3882 -16.5720 96.1966 0.0000 0.0000 0.0000
# 4 0.0000 0.0000 0.0000 22.8237 0.0000 0.0000
# 5 0.0000 0.0000 0.0000 0.0000 13.0349 0.0000
# 6 0.0000 0.0000 0.0000 0.0000 0.0000 49.3262
#
#
#
# Elastic Compliance Matrix: (Units=1/GPa)
#
#
# Indices 1 2 3 4 5 6 
#
# 1 0.013484 -0.003140 -0.004660 0.000000 0.000000 0.000000
# 2 -0.003140 0.024004 0.005094 0.000000 0.000000 0.000000
# 3 -0.004660 0.005094 0.012697 0.000000 0.000000 0.000000
# 4 0.000000 0.000000 0.000000 0.043814 0.000000 0.000000
# 5 0.000000 0.000000 0.000000 0.000000 0.076717 0.000000
# 6 0.000000 0.000000 0.000000 0.000000 0.000000 0.020273
#
#
# Mechanical properties :
#
#
# Convention : Reuss Voigt Hill
#
# Bulk Modulus (GPa) = 22.33502 29.22344 25.77923
# Shear Modulus (GPa) = 23.66038 31.01918 27.33978
#
# Velocity S-wave (km/s) = 3.28143 3.75723 3.52736
# Velocity P-wave (km/s) = 4.95194 5.66762 5.32182
#
# Compressibility (1/GPa) = 0.04477273
#
# Stress axis : x y z
#
# Youngs Moduli (GPa) = 74.16365 41.66037 78.76072
#
# Poissons Ratio (x) = 0.13081 0.36704
# Poissons Ratio (y) = 0.23286 -0.40124
# Poissons Ratio (z) = 0.34562 -0.21223
#
# Static dielectric constant tensor:
#      x y z
#    x 1.899760 0.000000 0.000000 
#    y 0.000000 1.999190 0.000000 
#    z 0.000000 0.000000 1.721270 
# 
# From -- ./inp_files/28576.got.cif
#   From: 2010.05.17/outbox.cif.g08.bks.cpg/sg23_15_cif.got.tgz:28576.got - 2010.06.04 12:02:01.
