data_PCOD9330784
_publ_section_title
;
Structure prediction by ZEFSAII (Michael W. Deem and Ramdas Pophale) SiO2 
 PCOD9330784
Probable space group: I 2 2 2
;
_chemical_formula_sum "Si O2"
_cell_formula_units_Z 56
_cell_length_a 25.121855
_cell_length_b 9.309741
_cell_length_c 14.395513
_cell_angle_alpha 90.000000
_cell_angle_beta 90.000000
_cell_angle_gamma 90.000000
_cell_volume 3366.793264
_symmetry_space_group_name_H-M "I 2 2 2"
_symmetry_group_IT_number 23
_symmetry_cell_setting 'orthorhombic'
loop_
_space_group_symop_operation_xyz
x,y,z
-x,-y,z
x,-y,-z
-x,y,-z
1/2+x,1/2+y,1/2+z
1/2-x,1/2-y,1/2+z
1/2+x,1/2-y,1/2-z
1/2-x,1/2+y,1/2-z
loop_
_atom_site_type_symbol
_atom_site_label
_atom_site_fract_x
_atom_site_fract_y
_atom_site_fract_z
Si Si1 0.645664 0.337874 0.719066
Si Si2 0.242967 0.664487 0.500033
Si Si3 0.667907 0.646666 0.642076
Si Si4 0.442532 0.167951 0.384603
Si Si5 0.434011 0.169769 0.605834
Si Si6 0.312515 0.420687 0.095718
Si Si7 0.748291 0.671274 0.811135
O O1 0.659733 0.476022 0.655572
O O2 0.593313 0.265992 0.679718
O O3 0.644356 0.400483 0.823590
O O4 0.692245 0.216891 0.716814
O O5 0.227070 0.500000 0.500000
O O6 0.301932 0.676146 0.455035
O O7 0.207743 0.766225 0.435721
O O8 0.237333 0.722639 0.603529
O O9 0.612730 0.732985 0.647499
O O10 0.708255 0.689416 0.725218
O O11 0.431977 0.191766 0.494259
O O12 0.504786 0.199386 0.366950
O O13 0.428189 0.999563 0.371642
O O14 0.265000 0.514545 0.144521
O O15 0.328298 0.500000 0.000000
#
# Coordination Sequence:
#
# PCOD9330784 Si02
#       7
#     8   8   8   8   8   8   8
#     4  11  20  34  53  79 106 142 185 221 266 325
#     4  11  20  33  50  75 109 138 179 218 262 312
#     4  11  22  33  50  77 111 140 175 225 259 317
#     4   9  20  36  55  75 104 145 182 219 261 339
#     4   9  20  37  52  76 108 142 180 217 276 319
#     4   9  21  36  50  72 112 150 173 223 274 326
#     4  10  21  34  49  76 108 143 177 212 269 326
#
# _framework density 16.633037000000002
#
# number of rings (size 3 to 8) (size 9 to 14) (size 15 to 20)
#    0.000    2.000    2.857    1.714    2.000    1.714 
#    0.000    1.429    0.000    0.000    0.000   17.000 
#    0.000   21.714    0.000    0.000    0.000    0.000 
#
# Total GULP energy -156030.936872 kJ/mol
# GULP energy per Si atom -5572.533460 kJ/mol
# Density = 1.659518 g / cm^3
# Si number density = 16.633037 Si / 1000 Ang^3
#
#
#
# Elastic Constant Matrix: (Units=GPa)
#
#
# Indices 1 2 3 4 5 6 
#
# 1 94.9467 57.6436 39.2521 0.0000 0.0000 0.0000
# 2 57.6436 92.7179 37.3268 0.0000 0.0000 0.0000
# 3 39.2521 37.3268 70.8127 0.0000 0.0000 0.0000
# 4 0.0000 0.0000 0.0000 21.5623 0.0000 0.0000
# 5 0.0000 0.0000 0.0000 0.0000 23.7861 0.0000
# 6 0.0000 0.0000 0.0000 0.0000 0.0000 26.8673
#
#
#
# Elastic Compliance Matrix: (Units=1/GPa)
#
#
# Indices 1 2 3 4 5 6 
#
# 1 0.018351 -0.009284 -0.005278 0.000000 0.000000 0.000000
# 2 -0.009284 0.018388 -0.004546 0.000000 0.000000 0.000000
# 3 -0.005278 -0.004546 0.019444 0.000000 0.000000 0.000000
# 4 0.000000 0.000000 0.000000 0.046377 0.000000 0.000000
# 5 0.000000 0.000000 0.000000 0.000000 0.042041 0.000000
# 6 0.000000 0.000000 0.000000 0.000000 0.000000 0.037220
#
#
# Mechanical properties :
#
#
# Convention : Reuss Voigt Hill
#
# Bulk Modulus (GPa) = 55.66259 58.54693 57.10476
# Shear Modulus (GPa) = 22.12135 22.72680 22.42408
#
# Velocity S-wave (km/s) = 3.65082 3.70045 3.67572
# Velocity P-wave (km/s) = 7.16304 7.31665 7.24025
#
# Compressibility (1/GPa) = 0.01796539
#
# Stress axis : x y z
#
# Youngs Moduli (GPa) = 54.49389 54.38469 51.42974
#
# Poissons Ratio (x) = 0.50490 0.27146
# Poissons Ratio (y) = 0.50591 0.23382
# Poissons Ratio (z) = 0.28763 0.24725
#
# Static dielectric constant tensor:
#      x y z
#    x 1.539140 0.000000 0.000000 
#    y 0.000000 1.582900 0.000000 
#    z 0.000000 0.000000 1.576820 
# 
# From -- ./inp_files/10216.got.cif
#   From: 2010.05.17/outbox.cif.g08.bks.cpg/sg23_6_cif.got.tgz:10216.got - 2010.06.04 12:02:01.
