data_PCOD9330120
_publ_section_title
;
Structure prediction by ZEFSAII (Michael W. Deem and Ramdas Pophale) SiO2 
 PCOD9330120
Probable space group: I 2 2 2
;
_chemical_formula_sum "Si O2"
_cell_formula_units_Z 54
_cell_length_a 15.762190
_cell_length_b 13.150347
_cell_length_c 12.674161
_cell_angle_alpha 90.000000
_cell_angle_beta 90.000000
_cell_angle_gamma 90.000000
_cell_volume 2627.078140
_symmetry_space_group_name_H-M "I 2 2 2"
_symmetry_group_IT_number 23
_symmetry_cell_setting 'orthorhombic'
loop_
_space_group_symop_operation_xyz
x,y,z
-x,-y,z
x,-y,-z
-x,y,-z
1/2+x,1/2+y,1/2+z
1/2-x,1/2-y,1/2+z
1/2+x,1/2-y,1/2-z
1/2-x,1/2+y,1/2-z
loop_
_atom_site_type_symbol
_atom_site_label
_atom_site_fract_x
_atom_site_fract_y
_atom_site_fract_z
Si Si1 0.702632 0.266276 0.475172
Si Si2 0.743757 0.377002 0.264802
Si Si3 0.193018 0.563502 0.599315
Si Si4 0.523285 0.119609 0.196524
Si Si5 0.500000 0.000000 0.500000
Si Si6 0.500000 0.755796 0.000000
Si Si7 0.587756 0.829906 0.370945
Si Si8 0.158974 0.112050 0.454991
O O1 0.708619 0.301411 0.354554
O O2 0.746550 0.354334 0.545384
O O3 0.614171 0.244382 0.534359
O O4 0.759689 0.165307 0.490041
O O5 0.761981 0.482431 0.325294
O O6 0.832118 0.341010 0.209005
O O7 0.679664 0.391757 0.168818
O O8 0.154871 0.500000 0.500000
O O9 0.121533 0.619553 0.666633
O O10 0.494043 0.184661 0.296895
O O11 0.500000 0.000000 0.207957
O O12 0.477540 0.170902 0.097064
O O13 0.437403 0.066212 0.428699
O O14 0.579252 0.684536 0.974619
O O15 0.145209 0.000000 0.500000
#
# Coordination Sequence:
#
# PCOD9330120 Si02
#       8
#     8   8   8   8   2   4   8   8
#     4  10  23  43  64  97 128 176 231 273 340 416
#     4  10  22  42  65  94 130 176 223 277 345 402
#     4  10  19  38  67  99 131 171 224 284 333 405
#     4  12  21  38  65  99 136 172 217 285 349 394
#     4  12  24  44  60  98 138 174 208 284 352 406
#     4  12  24  40  64  94 132 170 230 274 332 404
#     4  11  24  39  62  96 137 172 217 273 347 406
#     4  11  25  41  61  91 129 177 219 280 329 407
#
# _framework density 20.555154999999999
#
# number of rings (size 3 to 8) (size 9 to 14) (size 15 to 20)
#    0.000    1.185    3.704    2.222    4.148    4.741 
#    0.000    0.000    0.000    0.000    0.000    3.630 
#    0.000    0.000    0.000    0.000    0.000    0.000 
#
# Total GULP energy -150831.341033 kJ/mol
# GULP energy per Si atom -5586.345964 kJ/mol
# Density = 2.050837 g / cm^3
# Si number density = 20.555155 Si / 1000 Ang^3
#
#
#
# Elastic Constant Matrix: (Units=GPa)
#
#
# Indices 1 2 3 4 5 6 
#
# 1 73.2393 30.2607 59.7870 0.0000 0.0000 0.0000
# 2 30.2607 88.1506 56.7616 0.0000 0.0000 0.0000
# 3 59.7870 56.7616 165.7831 0.0000 0.0000 0.0000
# 4 0.0000 0.0000 0.0000 -2.6584 0.0000 0.0000
# 5 0.0000 0.0000 0.0000 0.0000 40.4548 0.0000
# 6 0.0000 0.0000 0.0000 0.0000 0.0000 31.7165
#
#
#
# Elastic Compliance Matrix: (Units=1/GPa)
#
#
# Indices 1 2 3 4 5 6 
#
# 1 0.019887 -0.002834 -0.006202 0.000000 0.000000 0.000000
# 2 -0.002834 0.014956 -0.004099 0.000000 0.000000 0.000000
# 3 -0.006202 -0.004099 0.009672 0.000000 0.000000 0.000000
# 4 0.000000 0.000000 0.000000 -0.376164 0.000000 0.000000
# 5 0.000000 0.000000 0.000000 0.000000 0.024719 0.000000
# 6 0.000000 0.000000 0.000000 0.000000 0.000000 0.031529
#
#
# Mechanical properties :
#
#
# Convention : Reuss Voigt Hill
#
# Bulk Modulus (GPa) = 54.80367 68.97684 61.89026
# Shear Modulus (GPa) = -20.57200 25.92682 2.67741
#
# Velocity S-wave (km/s) = -3.16700 3.55537 1.14253
# Velocity P-wave (km/s) = 3.65328 7.10521 5.64936
#
# Compressibility (1/GPa) = 0.01824695
#
# Stress axis : x y z
#
# Youngs Moduli (GPa) = 50.28315 66.86144 103.39108
#
# Poissons Ratio (x) = 0.18945 0.64122
# Poissons Ratio (y) = 0.14248 0.42380
# Poissons Ratio (z) = 0.31185 0.27406
#
# Static dielectric constant tensor:
#      x y z
#    x 1.773780 0.000000 0.000000 
#    y 0.000000 1.717930 0.000000 
#    z 0.000000 0.000000 1.823910 
# 
# From -- ./inp_files/16809.got.cif
#   From: 2010.05.17/outbox.cif.g08.bks.cpg/sg23_9_cif.got.tgz:16809.got - 2010.06.04 12:02:01.
