data_PCOD9330578
_publ_section_title
;
Structure prediction by ZEFSAII (Michael W. Deem and Ramdas Pophale) SiO2 
 PCOD9330578
Probable space group: I 2 2 2
;
_chemical_formula_sum "Si O2"
_cell_formula_units_Z 46
_cell_length_a 24.326606
_cell_length_b 9.774906
_cell_length_c 8.421725
_cell_angle_alpha 90.000000
_cell_angle_beta 90.000000
_cell_angle_gamma 90.000000
_cell_volume 2002.604404
_symmetry_space_group_name_H-M "I 2 2 2"
_symmetry_group_IT_number 23
_symmetry_cell_setting 'orthorhombic'
loop_
_space_group_symop_operation_xyz
x,y,z
-x,-y,z
x,-y,-z
-x,y,-z
1/2+x,1/2+y,1/2+z
1/2-x,1/2-y,1/2+z
1/2+x,1/2-y,1/2-z
1/2-x,1/2+y,1/2-z
loop_
_atom_site_type_symbol
_atom_site_label
_atom_site_fract_x
_atom_site_fract_y
_atom_site_fract_z
Si Si1 0.708621 0.738400 0.289373
Si Si2 0.000000 0.000000 0.000000
Si Si3 0.313718 0.851062 0.048844
Si Si4 0.107440 0.287684 0.196114
Si Si5 0.172341 0.500000 0.000000
Si Si6 0.905384 0.170190 0.136709
Si Si7 0.009294 0.662189 0.319628
O O1 0.761748 0.650660 0.333246
O O2 0.702094 0.872123 0.408106
O O3 0.653390 0.646207 0.286081
O O4 0.711222 0.793361 0.112274
O O5 0.042658 0.926568 0.118451
O O6 0.360801 0.765249 0.139148
O O7 0.335952 0.000000 0.000000
O O8 0.042610 0.288046 0.219068
O O9 0.133301 0.429317 0.131470
O O10 0.114513 0.191455 0.045181
O O11 0.933873 0.295507 0.234615
O O12 0.000000 0.500000 0.323919
O O13 0.000000 0.713244 0.500000
#
# Coordination Sequence:
#
# PCOD9330578 Si02
#       7
#     8   2   8   8   4   8   8
#     4  11  24  44  68 102 138 184 235 286 355 413
#     4  12  24  48  68  96 136 188 230 278 350 424
#     4  12  26  44  72 103 143 186 233 294 353 423
#     4  11  21  40  62  98 133 174 224 287 339 401
#     4  10  20  38  69  94 132 172 227 284 332 410
#     4  11  24  44  70  97 136 183 233 284 343 425
#     4  11  22  36  66 103 136 173 220 285 354 407
#
# _framework density 22.970088000000001
#
# number of rings (size 3 to 8) (size 9 to 14) (size 15 to 20)
#    0.000    0.870    3.478    5.217    3.652    0.696 
#    0.000    0.435    0.000    0.000    0.000    0.000 
#    0.000    0.000    0.000    0.000    0.000    0.000 
#
# Total GULP energy -128222.750625 kJ/mol
# GULP energy per Si atom -5574.902201 kJ/mol
# Density = 2.291781 g / cm^3
# Si number density = 22.970088 Si / 1000 Ang^3
#
#
#
# Elastic Constant Matrix: (Units=GPa)
#
#
# Indices 1 2 3 4 5 6 
#
# 1 96.5698 0.7556 -10.7103 0.0000 0.0000 0.0000
# 2 0.7556 31.3960 -3.2870 0.0000 0.0000 0.0000
# 3 -10.7103 -3.2870 94.6915 0.0000 0.0000 0.0000
# 4 0.0000 0.0000 0.0000 15.3353 0.0000 0.0000
# 5 0.0000 0.0000 0.0000 0.0000 47.1547 0.0000
# 6 0.0000 0.0000 0.0000 0.0000 0.0000 31.7522
#
#
#
# Elastic Compliance Matrix: (Units=1/GPa)
#
#
# Indices 1 2 3 4 5 6 
#
# 1 0.010487 -0.000129 0.001182 0.000000 0.000000 0.000000
# 2 -0.000129 0.031969 0.001095 0.000000 0.000000 0.000000
# 3 0.001182 0.001095 0.010732 0.000000 0.000000 0.000000
# 4 0.000000 0.000000 0.000000 0.065209 0.000000 0.000000
# 5 0.000000 0.000000 0.000000 0.000000 0.021207 0.000000
# 6 0.000000 0.000000 0.000000 0.000000 0.000000 0.031494
#
#
# Mechanical properties :
#
#
# Convention : Reuss Voigt Hill
#
# Bulk Modulus (GPa) = 17.39583 21.79708 19.59645
# Shear Modulus (GPa) = 26.88701 34.57505 30.73103
#
# Velocity S-wave (km/s) = 3.42500 3.88393 3.66166
# Velocity P-wave (km/s) = 4.81981 5.44271 5.14070
#
# Compressibility (1/GPa) = 0.05748503
#
# Stress axis : x y z
#
# Youngs Moduli (GPa) = 95.35366 31.28034 93.17672
#
# Poissons Ratio (x) = 0.00402 -0.11011
# Poissons Ratio (y) = 0.01227 -0.10205
# Poissons Ratio (z) = -0.11268 -0.03426
#
# Static dielectric constant tensor:
#      x y z
#    x 1.824830 0.000000 0.000000 
#    y 0.000000 1.971710 0.000000 
#    z 0.000000 0.000000 1.907670 
# 
# From -- ./inp_files/12607.got.cif
#   From: 2010.05.17/outbox.cif.g08.bks.cpg/sg23_7_cif.got.tgz:12607.got - 2010.06.04 12:02:01.
