data_PCOD9330685
_publ_section_title
;
Structure prediction by ZEFSAII (Michael W. Deem and Ramdas Pophale) SiO2 
 PCOD9330685
Probable space group: I 2 2 2
;
_chemical_formula_sum "Si O2"
_cell_formula_units_Z 40
_cell_length_a 19.418318
_cell_length_b 11.163394
_cell_length_c 6.587338
_cell_angle_alpha 90.000000
_cell_angle_beta 90.000000
_cell_angle_gamma 90.000000
_cell_volume 1427.965812
_symmetry_space_group_name_H-M "I 2 2 2"
_symmetry_group_IT_number 23
_symmetry_cell_setting 'orthorhombic'
loop_
_space_group_symop_operation_xyz
x,y,z
-x,-y,z
x,-y,-z
-x,y,-z
1/2+x,1/2+y,1/2+z
1/2-x,1/2-y,1/2+z
1/2+x,1/2-y,1/2-z
1/2-x,1/2+y,1/2-z
loop_
_atom_site_type_symbol
_atom_site_label
_atom_site_fract_x
_atom_site_fract_y
_atom_site_fract_z
Si Si1 0.822329 0.171365 0.005410
Si Si2 0.811635 0.404591 0.725757
Si Si3 0.067610 0.067826 0.291910
Si Si4 0.546434 0.843725 0.788597
Si Si5 0.897534 0.633320 0.821509
O O1 0.801424 0.293284 0.883227
O O2 0.867497 0.090203 0.854230
O O3 0.756417 0.108568 0.096017
O O4 0.870092 0.230204 0.182132
O O5 0.881132 0.372558 0.601750
O O6 0.665364 0.038684 0.704986
O O7 0.040839 0.202700 0.316328
O O8 0.086970 0.000000 0.500000
O O9 0.000000 0.000000 0.213003
O O10 0.571622 0.872477 0.555592
O O11 0.468251 0.890159 0.803562
#
# Coordination Sequence:
#
# PCOD9330685 Si02
#       5
#     8   8   8   8   8
#     4  10  22  42  72 112 156 207 259 305 379 472
#     4  10  20  40  71 109 156 207 253 311 377 445
#     4   9  19  41  74 111 151 195 248 324 392 452
#     4   9  18  37  75 115 144 194 265 318 374 453
#     4   9  18  39  70 111 155 198 257 322 378 443
#
# _framework density 28.011875
#
# number of rings (size 3 to 8) (size 9 to 14) (size 15 to 20)
#    0.000    3.000    0.000    3.000    0.000    3.200 
#    0.000   37.000    0.000   21.600    0.000   36.400 
#    0.000    3.200    0.000    0.000    0.000    0.000 
#
# Total GULP energy -111718.512225 kJ/mol
# GULP energy per Si atom -5585.925611 kJ/mol
# Density = 2.794812 g / cm^3
# Si number density = 28.011875 Si / 1000 Ang^3
#
#
#
# Elastic Constant Matrix: (Units=GPa)
#
#
# Indices 1 2 3 4 5 6 
#
# 1 300.7285 99.5040 100.1045 0.0000 0.0000 0.0000
# 2 99.5040 189.2951 84.3949 0.0000 0.0000 0.0000
# 3 100.1045 84.3949 89.6637 0.0000 0.0000 0.0000
# 4 0.0000 0.0000 0.0000 55.0702 0.0000 0.0000
# 5 0.0000 0.0000 0.0000 0.0000 70.4025 0.0000
# 6 0.0000 0.0000 0.0000 0.0000 0.0000 44.7129
#
#
#
# Elastic Compliance Matrix: (Units=1/GPa)
#
#
# Indices 1 2 3 4 5 6 
#
# 1 0.005299 -0.000255 -0.005676 0.000000 0.000000 0.000000
# 2 -0.000255 0.009115 -0.008295 0.000000 0.000000 0.000000
# 3 -0.005676 -0.008295 0.025297 0.000000 0.000000 0.000000
# 4 0.000000 0.000000 0.000000 0.018159 0.000000 0.000000
# 5 0.000000 0.000000 0.000000 0.000000 0.014204 0.000000
# 6 0.000000 0.000000 0.000000 0.000000 0.000000 0.022365
#
#
# Mechanical properties :
#
#
# Convention : Reuss Voigt Hill
#
# Bulk Modulus (GPa) = 88.81316 127.52157 108.16736
# Shear Modulus (GPa) = 39.48087 53.74937 46.61512
#
# Velocity S-wave (km/s) = 3.75832 4.38517 4.08379
# Velocity P-wave (km/s) = 7.11390 8.44172 7.80609
#
# Compressibility (1/GPa) = 0.01125959
#
# Stress axis : x y z
#
# Youngs Moduli (GPa) = 188.71347 109.71184 39.52981
#
# Poissons Ratio (x) = 0.02795 0.22438
# Poissons Ratio (y) = 0.04808 0.32789
# Poissons Ratio (z) = 1.07119 0.91003
#
# Static dielectric constant tensor:
#      x y z
#    x 2.200510 0.000000 0.000000 
#    y 0.000000 2.167420 0.000000 
#    z 0.000000 0.000000 2.728230 
# 
# From -- ./inp_files/11136.got.cif
#   From: 2010.05.17/outbox.cif.g08.bks.cpg/sg23_6_cif.got.tgz:11136.got - 2010.06.04 12:02:01.
