data_PCOD9330897
_publ_section_title
;
Structure prediction by ZEFSAII (Michael W. Deem and Ramdas Pophale) SiO2 
 PCOD9330897
Probable space group: I 2 2 2
;
_chemical_formula_sum "Si O2"
_cell_formula_units_Z 52
_cell_length_a 20.943577
_cell_length_b 15.473974
_cell_length_c 7.528185
_cell_angle_alpha 90.000000
_cell_angle_beta 90.000000
_cell_angle_gamma 90.000000
_cell_volume 2439.736950
_symmetry_space_group_name_H-M "I 2 2 2"
_symmetry_group_IT_number 23
_symmetry_cell_setting 'orthorhombic'
loop_
_space_group_symop_operation_xyz
x,y,z
-x,-y,z
x,-y,-z
-x,y,-z
1/2+x,1/2+y,1/2+z
1/2-x,1/2-y,1/2+z
1/2+x,1/2-y,1/2-z
1/2-x,1/2+y,1/2-z
loop_
_atom_site_type_symbol
_atom_site_label
_atom_site_fract_x
_atom_site_fract_y
_atom_site_fract_z
Si Si1 0.257842 0.565634 0.345790
Si Si2 0.423720 0.157936 0.800961
Si Si3 0.795407 0.747021 0.260318
Si Si4 0.563100 0.806873 0.224563
Si Si5 0.167631 0.176998 0.645073
Si Si6 0.670637 0.500000 0.000000
Si Si7 0.375409 0.975760 0.692868
O O1 0.279328 0.500000 0.500000
O O2 0.277707 0.666413 0.349634
O O3 0.181969 0.553067 0.321935
O O4 0.287745 0.534518 0.161695
O O5 0.360902 0.199403 0.712002
O O6 0.488360 0.205071 0.739045
O O7 0.416327 0.055879 0.765526
O O8 0.427212 0.170311 0.014675
O O9 0.811137 0.778756 0.459350
O O10 0.735546 0.681241 0.247570
O O11 0.614064 0.730690 0.249439
O O12 0.582039 0.891580 0.331794
O O13 0.138837 0.084642 0.586705
O O14 0.348583 0.000000 0.500000
#
# Coordination Sequence:
#
# PCOD9330897 Si02
#       7
#     8   8   8   8   8   4   8
#     4  11  22  38  61  90 127 165 207 260 324 379
#     4  10  22  38  61  85 125 162 214 257 312 390
#     4  10  22  36  59  90 120 160 205 261 315 378
#     4  10  21  40  60  86 120 173 208 255 322 393
#     4  10  21  37  60  88 123 159 213 264 322 378
#     4  10  22  38  58  95 121 158 214 276 310 372
#     4  12  23  36  55  91 130 166 211 259 312 389
#
# _framework density 21.313773000000001
#
# number of rings (size 3 to 8) (size 9 to 14) (size 15 to 20)
#    0.000    1.538    2.308    2.769    6.462    2.462 
#    0.000    0.000    0.000   16.615    0.000    1.077 
#    0.000    0.000    0.000    0.000    0.000    0.000 
#
# Total GULP energy -145079.747626 kJ/mol
# GULP energy per Si atom -5579.990293 kJ/mol
# Density = 2.126526 g / cm^3
# Si number density = 21.313773 Si / 1000 Ang^3
#
#
#
# Elastic Constant Matrix: (Units=GPa)
#
#
# Indices 1 2 3 4 5 6 
#
# 1 143.4060 58.9871 12.8336 0.0000 0.0000 0.0000
# 2 58.9871 120.0244 14.1832 0.0000 0.0000 0.0000
# 3 12.8336 14.1832 44.1382 0.0000 0.0000 0.0000
# 4 0.0000 0.0000 0.0000 27.6526 0.0000 0.0000
# 5 0.0000 0.0000 0.0000 0.0000 17.1917 0.0000
# 6 0.0000 0.0000 0.0000 0.0000 0.0000 18.4573
#
#
#
# Elastic Compliance Matrix: (Units=1/GPa)
#
#
# Indices 1 2 3 4 5 6 
#
# 1 0.008802 -0.004182 -0.001215 0.000000 0.000000 0.000000
# 2 -0.004182 0.010648 -0.002205 0.000000 0.000000 0.000000
# 3 -0.001215 -0.002205 0.023718 0.000000 0.000000 0.000000
# 4 0.000000 0.000000 0.000000 0.036163 0.000000 0.000000
# 5 0.000000 0.000000 0.000000 0.000000 0.058167 0.000000
# 6 0.000000 0.000000 0.000000 0.000000 0.000000 0.054179
#
#
# Mechanical properties :
#
#
# Convention : Reuss Voigt Hill
#
# Bulk Modulus (GPa) = 35.76308 53.28628 44.52468
# Shear Modulus (GPa) = 23.12624 27.43131 25.27878
#
# Velocity S-wave (km/s) = 3.29756 3.59140 3.44761
# Velocity P-wave (km/s) = 5.59592 6.50021 6.06494
#
# Compressibility (1/GPa) = 0.02796180
#
# Stress axis : x y z
#
# Youngs Moduli (GPa) = 113.60660 93.91689 42.16174
#
# Poissons Ratio (x) = 0.39279 0.05124
# Poissons Ratio (y) = 0.47514 0.09299
# Poissons Ratio (z) = 0.13808 0.20713
#
# Static dielectric constant tensor:
#      x y z
#    x 1.781400 0.000000 0.000000 
#    y 0.000000 1.839330 0.000000 
#    z 0.000000 0.000000 1.809230 
# 
# From -- ./inp_files/12003.got.cif
#   From: 2010.05.17/outbox.cif.g08.bks.cpg/sg23_7_cif.got.tgz:12003.got - 2010.06.04 12:02:01.
