data_PCOD9330828
_publ_section_title
;
Structure prediction by ZEFSAII (Michael W. Deem and Ramdas Pophale) SiO2 
 PCOD9330828
Probable space group: I 2 2 2
;
_chemical_formula_sum "Si O2"
_cell_formula_units_Z 40
_cell_length_a 8.674882
_cell_length_b 9.407616
_cell_length_c 22.575800
_cell_angle_alpha 90.000000
_cell_angle_beta 90.000000
_cell_angle_gamma 90.000000
_cell_volume 1842.410106
_symmetry_space_group_name_H-M "I 2 2 2"
_symmetry_group_IT_number 23
_symmetry_cell_setting 'orthorhombic'
loop_
_space_group_symop_operation_xyz
x,y,z
-x,-y,z
x,-y,-z
-x,y,-z
1/2+x,1/2+y,1/2+z
1/2-x,1/2-y,1/2+z
1/2+x,1/2-y,1/2-z
1/2-x,1/2+y,1/2-z
loop_
_atom_site_type_symbol
_atom_site_label
_atom_site_fract_x
_atom_site_fract_y
_atom_site_fract_z
Si Si1 0.416620 0.653687 0.776924
Si Si2 0.045831 0.664973 0.617200
Si Si3 0.866404 0.083248 0.437967
Si Si4 0.595535 0.353674 0.636274
Si Si5 0.614946 0.887939 0.649787
O O1 0.500000 0.500000 0.780077
O O2 0.507630 0.765318 0.818459
O O3 0.400093 0.678875 0.707043
O O4 0.244145 0.658960 0.803788
O O5 0.232527 0.663430 0.610015
O O6 0.000000 0.500000 0.615892
O O7 0.936317 0.756625 0.570921
O O8 0.714413 0.048178 0.402906
O O9 0.853512 0.000000 0.500000
O O10 0.000000 0.000000 0.403996
O O11 0.500000 0.500000 0.627451
O O12 0.479649 0.232653 0.616365
O O13 0.500000 0.000000 0.677843
#
# Coordination Sequence:
#
# PCOD9330828 Si02
#       5
#     8   8   8   8   8
#     4  10  21  36  55  86 132 182 215 239 293 377
#     4  11  22  39  62  89 126 168 210 258 312 376
#     4  10  22  43  66  87 115 156 206 258 325 391
#     4  11  22  35  56  91 133 171 209 253 303 363
#     4  11  21  35  59  90 122 160 211 267 307 353
#
# _framework density 21.710692000000002
#
# number of rings (size 3 to 8) (size 9 to 14) (size 15 to 20)
#    0.000    1.400    0.000    8.400    0.000    6.800 
#    0.000    3.000    0.000    0.000    0.000    7.000 
#    0.000    0.000    0.000    0.000    0.000    0.000 
#
# Total GULP energy -111356.861351 kJ/mol
# GULP energy per Si atom -5567.843068 kJ/mol
# Density = 2.166128 g / cm^3
# Si number density = 21.710692 Si / 1000 Ang^3
#
#
#
# Elastic Constant Matrix: (Units=GPa)
#
#
# Indices 1 2 3 4 5 6 
#
# 1 125.8372 11.8317 -16.0006 0.0000 0.0000 0.0000
# 2 11.8317 108.3964 -17.8077 0.0000 0.0000 0.0000
# 3 -16.0006 -17.8077 62.7307 0.0000 0.0000 0.0000
# 4 0.0000 0.0000 0.0000 265.5288 0.0000 0.0000
# 5 0.0000 0.0000 0.0000 0.0000 -18.6431 0.0000
# 6 0.0000 0.0000 0.0000 0.0000 0.0000 41.4210
#
#
#
# Elastic Compliance Matrix: (Units=1/GPa)
#
#
# Indices 1 2 3 4 5 6 
#
# 1 0.008248 -0.000582 0.001939 0.000000 0.000000 0.000000
# 2 -0.000582 0.009718 0.002610 0.000000 0.000000 0.000000
# 3 0.001939 0.002610 0.017177 0.000000 0.000000 0.000000
# 4 0.000000 0.000000 0.000000 0.003766 0.000000 0.000000
# 5 0.000000 0.000000 0.000000 0.000000 -0.053639 0.000000
# 6 0.000000 0.000000 0.000000 0.000000 0.000000 0.024142
#
#
# Mechanical properties :
#
#
# Convention : Reuss Voigt Hill
#
# Bulk Modulus (GPa) = 23.21453 28.11234 25.66344
# Shear Modulus (GPa) = 315.72831 78.92406 197.32618
#
# Velocity S-wave (km/s) = 12.07232 6.03585 9.54391
# Velocity P-wave (km/s) = 14.31912 7.84552 11.54533
#
# Compressibility (1/GPa) = 0.04307647
#
# Stress axis : x y z
#
# Youngs Moduli (GPa) = 121.24180 102.90477 58.21863
#
# Poissons Ratio (x) = 0.05987 -0.11286
# Poissons Ratio (y) = 0.07054 -0.15196
# Poissons Ratio (z) = -0.23504 -0.26861
#
# Static dielectric constant tensor:
#      x y z
#    x 1.793160 0.000000 0.000000 
#    y 0.000000 1.925550 0.000000 
#    z 0.000000 0.000000 1.949440 
# 
# From -- ./inp_files/6919.got.cif
#   From: 2010.05.17/outbox.cif.g08.bks.cpg/sg23_4_cif.got.tgz:6919.got - 2010.06.04 12:02:01.
