data_PCOD9330303
_publ_section_title
;
Structure prediction by ZEFSAII (Michael W. Deem and Ramdas Pophale) SiO2 
 PCOD9330303
Probable space group: I 2 2 2
;
_chemical_formula_sum "Si O2"
_cell_formula_units_Z 64
_cell_length_a 21.149772
_cell_length_b 18.131720
_cell_length_c 9.869182
_cell_angle_alpha 90.000000
_cell_angle_beta 90.000000
_cell_angle_gamma 90.000000
_cell_volume 3784.651125
_symmetry_space_group_name_H-M "I 2 2 2"
_symmetry_group_IT_number 23
_symmetry_cell_setting 'orthorhombic'
loop_
_space_group_symop_operation_xyz
x,y,z
-x,-y,z
x,-y,-z
-x,y,-z
1/2+x,1/2+y,1/2+z
1/2-x,1/2-y,1/2+z
1/2+x,1/2-y,1/2-z
1/2-x,1/2+y,1/2-z
loop_
_atom_site_type_symbol
_atom_site_label
_atom_site_fract_x
_atom_site_fract_y
_atom_site_fract_z
Si Si1 0.625370 0.055911 0.883603
Si Si2 0.575183 0.199685 0.990102
Si Si3 0.755928 0.558108 0.119911
Si Si4 0.205053 0.792922 0.800847
Si Si5 0.273061 0.544538 0.371222
Si Si6 0.306542 0.704171 0.978758
Si Si7 0.565475 0.973508 0.651342
Si Si8 0.626255 0.839291 0.714328
O O1 0.700064 0.066349 0.905457
O O2 0.616849 0.013777 0.743117
O O3 0.589045 0.133019 0.886506
O O4 0.601715 0.000000 0.000000
O O5 0.605420 0.167085 0.129638
O O6 0.500000 0.213863 0.000000
O O7 0.620862 0.269293 0.961974
O O8 0.728796 0.509413 0.242390
O O9 0.707647 0.619744 0.061981
O O10 0.812688 0.609665 0.179178
O O11 0.773635 0.500000 0.000000
O O12 0.195194 0.877683 0.838343
O O13 0.263336 0.757206 0.884035
O O14 0.213334 0.786494 0.637393
O O15 0.145008 0.741365 0.834456
O O16 0.298504 0.500000 0.500000
O O17 0.570590 0.885798 0.648519
O O18 0.500000 0.000000 0.713559
O O19 0.570069 0.000000 0.500000
#
# Coordination Sequence:
#
# PCOD9330303 Si02
#       8
#     8   8   8   8   8   8   8   8
#     4  11  20  31  49  73 104 140 183 217 259 319
#     4  11  21  36  56  78 112 153 191 232 273 333
#     4  11  20  35  57  81 111 147 183 239 290 341
#     4  10  21  34  54  78 115 146 180 239 289 342
#     4  11  21  34  53  82 111 140 184 229 286 344
#     4  10  22  36  53  85 112 146 191 233 295 340
#     4  11  22  33  46  71 106 141 183 217 251 319
#     4  10  20  35  52  76 108 146 182 223 280 330
#
# _framework density 16.910409999999999
#
# number of rings (size 3 to 8) (size 9 to 14) (size 15 to 20)
#    0.000    1.375    5.000    1.875    3.500    0.000 
#    0.000    0.000    0.000    0.375    0.000    0.000 
#    0.000    4.000    0.000    0.000    0.000    0.000 
#
# Total GULP energy -178257.915076 kJ/mol
# GULP energy per Si atom -5570.559846 kJ/mol
# Density = 1.687192 g / cm^3
# Si number density = 16.910410 Si / 1000 Ang^3
#
#
#
# Elastic Constant Matrix: (Units=GPa)
#
#
# Indices 1 2 3 4 5 6 
#
# 1 68.3102 45.8297 15.8286 0.0000 0.0000 0.0000
# 2 45.8297 130.7834 40.4874 0.0000 0.0000 0.0000
# 3 15.8286 40.4874 83.7630 0.0000 0.0000 0.0000
# 4 0.0000 0.0000 0.0000 25.6700 0.0000 0.0000
# 5 0.0000 0.0000 0.0000 0.0000 8.5809 0.0000
# 6 0.0000 0.0000 0.0000 0.0000 0.0000 5.2966
#
#
#
# Elastic Compliance Matrix: (Units=1/GPa)
#
#
# Indices 1 2 3 4 5 6 
#
# 1 0.019152 -0.006575 -0.000441 0.000000 0.000000 0.000000
# 2 -0.006575 0.011249 -0.004195 0.000000 0.000000 0.000000
# 3 -0.000441 -0.004195 0.014049 0.000000 0.000000 0.000000
# 4 0.000000 0.000000 0.000000 0.038956 0.000000 0.000000
# 5 0.000000 0.000000 0.000000 0.000000 0.116537 0.000000
# 6 0.000000 0.000000 0.000000 0.000000 0.000000 0.188801
#
#
# Mechanical properties :
#
#
# Convention : Reuss Voigt Hill
#
# Bulk Modulus (GPa) = 45.39475 54.12755 49.76115
# Shear Modulus (GPa) = 11.94715 19.95690 15.95203
#
# Velocity S-wave (km/s) = 2.66088 3.43907 3.07469
# Velocity P-wave (km/s) = 6.02851 6.91719 6.48808
#
# Compressibility (1/GPa) = 0.02202898
#
# Stress axis : x y z
#
# Youngs Moduli (GPa) = 52.21258 88.89814 71.17762
#
# Poissons Ratio (x) = 0.58450 0.03140
# Poissons Ratio (y) = 0.34329 0.29857
# Poissons Ratio (z) = 0.02304 0.37290
#
# Static dielectric constant tensor:
#      x y z
#    x 1.652310 0.000000 0.000000 
#    y 0.000000 1.592890 0.000000 
#    z 0.000000 0.000000 1.604780 
# 
# From -- ./inp_files/12183.got.cif
#   From: 2010.05.17/outbox.cif.g08.bks.cpg/sg23_7_cif.got.tgz:12183.got - 2010.06.04 12:02:01.
