data_PCOD9330860
_publ_section_title
;
Structure prediction by ZEFSAII (Michael W. Deem and Ramdas Pophale) SiO2 
 PCOD9330860
Probable space group: I 2 2 2
;
_chemical_formula_sum "Si O2"
_cell_formula_units_Z 48
_cell_length_a 17.049492
_cell_length_b 12.371483
_cell_length_c 11.396082
_cell_angle_alpha 90.000000
_cell_angle_beta 90.000000
_cell_angle_gamma 90.000000
_cell_volume 2403.747091
_symmetry_space_group_name_H-M "I 2 2 2"
_symmetry_group_IT_number 23
_symmetry_cell_setting 'orthorhombic'
loop_
_space_group_symop_operation_xyz
x,y,z
-x,-y,z
x,-y,-z
-x,y,-z
1/2+x,1/2+y,1/2+z
1/2-x,1/2-y,1/2+z
1/2+x,1/2-y,1/2-z
1/2-x,1/2+y,1/2-z
loop_
_atom_site_type_symbol
_atom_site_label
_atom_site_fract_x
_atom_site_fract_y
_atom_site_fract_z
Si Si1 0.604654 0.813296 0.216441
Si Si2 0.089513 0.026028 0.137994
Si Si3 0.855411 0.624093 0.463601
Si Si4 0.277594 0.359559 0.295671
Si Si5 0.382452 0.938078 0.281280
Si Si6 0.464160 0.250863 0.626323
O O1 0.682986 0.749402 0.251738
O O2 0.533383 0.752023 0.278585
O O3 0.603978 0.935192 0.268405
O O4 0.606339 0.819764 0.075127
O O5 0.097703 0.154860 0.156280
O O6 0.155529 0.950327 0.192782
O O7 0.000000 0.000000 0.176228
O O8 0.093787 0.000000 0.000000
O O9 0.841569 0.500000 0.500000
O O10 0.770648 0.663261 0.416635
O O11 0.907119 0.615437 0.345306
O O12 0.209380 0.409479 0.214403
O O13 0.426986 0.868295 0.376953
O O14 0.500000 0.278503 0.500000
#
# Coordination Sequence:
#
# PCOD9330860 Si02
#       6
#     8   8   8   8   8   8
#     4  11  21  39  62  92 130 168 214 266 330 384
#     4  11  20  38  62  96 119 167 221 268 317 369
#     4   8  19  39  60  88 118 169 218 261 302 379
#     4  10  21  36  63  96 123 165 217 276 314 383
#     4   9  24  39  60  94 123 176 207 270 325 392
#     4  12  24  40  64  97 132 167 215 274 336 390
#
# _framework density 19.968823
#
# number of rings (size 3 to 8) (size 9 to 14) (size 15 to 20)
#    1.000    0.833    3.333    1.000    2.333    3.333 
#    0.000    2.500    0.000    3.000    0.000    0.000 
#    0.000    0.000    0.000    0.000    0.000    0.000 
#
# Total GULP energy -133718.496342 kJ/mol
# GULP energy per Si atom -5571.604014 kJ/mol
# Density = 1.992337 g / cm^3
# Si number density = 19.968823 Si / 1000 Ang^3
#
#
#
# Elastic Constant Matrix: (Units=GPa)
#
#
# Indices 1 2 3 4 5 6 
#
# 1 57.6711 10.8556 13.7671 0.0000 0.0000 0.0000
# 2 10.8556 92.8946 20.8607 0.0000 0.0000 0.0000
# 3 13.7671 20.8607 48.1712 0.0000 0.0000 0.0000
# 4 0.0000 0.0000 0.0000 19.9548 0.0000 0.0000
# 5 0.0000 0.0000 0.0000 0.0000 23.8440 0.0000
# 6 0.0000 0.0000 0.0000 0.0000 0.0000 35.9655
#
#
#
# Elastic Compliance Matrix: (Units=1/GPa)
#
#
# Indices 1 2 3 4 5 6 
#
# 1 0.018709 -0.001092 -0.004874 0.000000 0.000000 0.000000
# 2 -0.001092 0.011988 -0.004880 0.000000 0.000000 0.000000
# 3 -0.004874 -0.004880 0.024265 0.000000 0.000000 0.000000
# 4 0.000000 0.000000 0.000000 0.050113 0.000000 0.000000
# 5 0.000000 0.000000 0.000000 0.000000 0.041939 0.000000
# 6 0.000000 0.000000 0.000000 0.000000 0.000000 0.027804
#
#
# Mechanical properties :
#
#
# Convention : Reuss Voigt Hill
#
# Bulk Modulus (GPa) = 30.05564 32.18931 31.12248
# Shear Modulus (GPa) = 24.08471 26.16976 25.12724
#
# Velocity S-wave (km/s) = 3.47669 3.62405 3.55113
# Velocity P-wave (km/s) = 5.58573 5.80228 5.69504
#
# Compressibility (1/GPa) = 0.03327163
#
# Stress axis : x y z
#
# Youngs Moduli (GPa) = 53.45100 83.41515 41.21100
#
# Poissons Ratio (x) = 0.09107 0.20086
# Poissons Ratio (y) = 0.05836 0.20109
# Poissons Ratio (z) = 0.26052 0.40703
#
# Static dielectric constant tensor:
#      x y z
#    x 1.743880 0.000000 0.000000 
#    y 0.000000 1.713960 0.000000 
#    z 0.000000 0.000000 1.744960 
# 
# From -- ./inp_files/17403.got.cif
#   From: 2010.05.17/outbox.cif.g08.bks.cpg/sg23_9_cif.got.tgz:17403.got - 2010.06.04 12:02:01.
