data_PCOD9330171
_publ_section_title
;
Structure prediction by ZEFSAII (Michael W. Deem and Ramdas Pophale) SiO2 
 PCOD9330171
Probable space group: I 2 2 2
;
_chemical_formula_sum "Si O2"
_cell_formula_units_Z 64
_cell_length_a 8.967000
_cell_length_b 31.879137
_cell_length_c 11.809184
_cell_angle_alpha 90.000000
_cell_angle_beta 90.000000
_cell_angle_gamma 90.000000
_cell_volume 3375.775954
_symmetry_space_group_name_H-M "I 2 2 2"
_symmetry_group_IT_number 23
_symmetry_cell_setting 'orthorhombic'
loop_
_space_group_symop_operation_xyz
x,y,z
-x,-y,z
x,-y,-z
-x,y,-z
1/2+x,1/2+y,1/2+z
1/2-x,1/2-y,1/2+z
1/2+x,1/2-y,1/2-z
1/2-x,1/2+y,1/2-z
loop_
_atom_site_type_symbol
_atom_site_label
_atom_site_fract_x
_atom_site_fract_y
_atom_site_fract_z
Si Si1 0.832855 0.356404 0.445320
Si Si2 0.320504 0.816597 0.503088
Si Si3 0.577417 0.542672 0.739014
Si Si4 0.689046 0.368293 0.202033
Si Si5 0.635191 0.329982 0.773769
Si Si6 0.166980 0.778822 0.051846
Si Si7 0.315307 0.410208 0.374015
Si Si8 0.842802 0.507671 0.366063
O O1 0.797913 0.362905 0.311930
O O2 0.775388 0.310462 0.483967
O O3 0.719795 0.389046 0.506493
O O4 0.000000 0.362670 0.500000
O O5 0.500000 0.818500 0.500000
O O6 0.269307 0.851678 0.591113
O O7 0.230163 0.822672 0.386363
O O8 0.284704 0.769227 0.543224
O O9 0.500000 0.500000 0.790075
O O10 0.629278 0.583688 0.808517
O O11 0.465178 0.562999 0.646229
O O12 0.721078 0.523405 0.681137
O O13 0.541398 0.338931 0.213365
O O14 0.660822 0.293677 0.681769
O O15 0.690226 0.372540 0.714043
O O16 0.000000 0.783451 0.000000
O O17 0.191333 0.444043 0.348235
O O18 0.846882 0.500000 0.500000
O O19 0.000000 0.500000 0.311123
#
# Coordination Sequence:
#
# PCOD9330171 Si02
#       8
#     8   8   8   8   8   8   8   8
#     4  11  24  36  61  96 129 170 216 273 333 393
#     4  11  27  41  64  96 129 171 219 281 335 397
#     4   9  20  38  61  89 123 172 213 264 322 399
#     4  11  23  41  66  92 129 172 224 267 342 402
#     4  10  22  42  66  88 127 170 216 268 323 400
#     4  10  22  44  64  93 129 169 218 268 330 402
#     4   9  21  37  58  86 125 162 207 256 322 391
#     4  10  20  30  50  86 125 160 197 255 319 386
#
# _framework density 18.958604000000001
#
# number of rings (size 3 to 8) (size 9 to 14) (size 15 to 20)
#    0.000    1.875    1.250    1.125    8.750    6.250 
#    0.000    0.000    0.000   12.750    0.000    8.750 
#    0.000    0.000    0.000    0.000    0.000    0.000 
#
# Total GULP energy -178384.396815 kJ/mol
# GULP energy per Si atom -5574.512400 kJ/mol
# Density = 1.891545 g / cm^3
# Si number density = 18.958604 Si / 1000 Ang^3
#
#
#
# Elastic Constant Matrix: (Units=GPa)
#
#
# Indices 1 2 3 4 5 6 
#
# 1 75.0186 48.5721 40.5863 -0.0001 0.0001 -0.0001
# 2 48.5721 87.0668 46.3187 -0.0001 -0.0001 -0.0001
# 3 40.5863 46.3187 115.2678 -0.0009 -0.0001 0.0000
# 4 -0.0001 -0.0001 -0.0009 5.3490 0.0000 0.0000
# 5 0.0001 -0.0001 -0.0001 0.0000 21.4420 -0.0001
# 6 -0.0001 -0.0001 0.0000 0.0000 -0.0001 27.2178
#
#
#
# Elastic Compliance Matrix: (Units=1/GPa)
#
#
# Indices 1 2 3 4 5 6 
#
# 1 0.021967 -0.010353 -0.003574 0.000000 0.000000 0.000000
# 2 -0.010353 0.019488 -0.004185 0.000000 0.000000 0.000000
# 3 -0.003574 -0.004185 0.011616 0.000002 0.000000 0.000000
# 4 0.000000 0.000000 0.000002 0.186951 0.000000 0.000000
# 5 0.000000 0.000000 0.000000 0.000000 0.046637 0.000000
# 6 0.000000 0.000000 0.000000 0.000000 0.000000 0.036741
#
#
# Mechanical properties :
#
#
# Convention : Reuss Voigt Hill
#
# Bulk Modulus (GPa) = 59.36630 60.92305 60.14468
# Shear Modulus (GPa) = 13.68958 20.26017 16.97487
#
# Velocity S-wave (km/s) = 2.69006 3.27257 2.99551
# Velocity P-wave (km/s) = 6.40548 6.81793 6.61492
#
# Compressibility (1/GPa) = 0.01684457
#
# Stress axis : x y z
#
# Youngs Moduli (GPa) = 45.52208 51.31386 86.08897
#
# Poissons Ratio (x) = 0.53127 0.30772
# Poissons Ratio (y) = 0.47131 0.36032
# Poissons Ratio (z) = 0.16272 0.21477
#
# Static dielectric constant tensor:
#      x y z
#    x 1.714650 0.000000 0.000000 
#    y 0.000000 1.658300 0.000000 
#    z 0.000000 0.000000 1.638730 
# 
# From -- ./inp_files/14990.got.cif
#   From: 2010.05.17/outbox.cif.g08.bks.cpg/sg23_8_cif.got.tgz:14990.got - 2010.06.04 12:02:01.
