data_PCOD9330423
_publ_section_title
;
Structure prediction by ZEFSAII (Michael W. Deem and Ramdas Pophale) SiO2 
 PCOD9330423
Probable space group: I 2 2 2
;
_chemical_formula_sum "Si O2"
_cell_formula_units_Z 40
_cell_length_a 7.410918
_cell_length_b 11.551570
_cell_length_c 18.029347
_cell_angle_alpha 90.000000
_cell_angle_beta 90.000000
_cell_angle_gamma 90.000000
_cell_volume 1543.451615
_symmetry_space_group_name_H-M "I 2 2 2"
_symmetry_group_IT_number 23
_symmetry_cell_setting 'orthorhombic'
loop_
_space_group_symop_operation_xyz
x,y,z
-x,-y,z
x,-y,-z
-x,y,-z
1/2+x,1/2+y,1/2+z
1/2-x,1/2-y,1/2+z
1/2+x,1/2-y,1/2-z
1/2-x,1/2+y,1/2-z
loop_
_atom_site_type_symbol
_atom_site_label
_atom_site_fract_x
_atom_site_fract_y
_atom_site_fract_z
Si Si1 0.284565 0.865798 0.993038
Si Si2 0.216958 0.994902 0.585096
Si Si3 0.809385 0.938987 0.734391
Si Si4 0.750596 0.741866 0.355178
Si Si5 0.611329 0.108616 0.846741
O O1 0.247349 0.843204 0.906484
O O2 0.500000 0.833806 0.000000
O O3 0.196984 0.809969 0.064647
O O4 0.245637 0.000000 0.000000
O O5 0.266342 0.084349 0.651492
O O6 0.287508 0.000000 0.500000
O O7 0.265557 0.875771 0.626708
O O8 0.000000 0.000000 0.576081
O O9 0.835693 0.826596 0.786541
O O10 0.694656 0.037058 0.779096
O O11 0.000000 0.000000 0.725829
O O12 0.959744 0.705822 0.337373
O O13 0.500000 0.000000 0.884094
#
# Coordination Sequence:
#
# PCOD9330423 Si02
#       5
#     8   8   8   8   8
#     4   9  12  25  51  89 116 139 205 259 292 348
#     4  10  24  41  59  94 128 160 214 268 311 375
#     4  10  21  38  58  94 132 161 208 258 314 383
#     4  10  20  36  62  92 121 164 208 265 318 352
#     4   9  16  30  59  92 116 156 213 261 300 365
#
# _framework density 25.915939000000002
#
# number of rings (size 3 to 8) (size 9 to 14) (size 15 to 20)
#    0.000    2.400    6.000    0.000    8.400    3.200 
#    0.000    2.000    0.000    5.400   15.600    1.400 
#    0.000    0.000    0.000    0.000    0.000    0.000 
#
# Total GULP energy -111422.117127 kJ/mol
# GULP energy per Si atom -5571.105856 kJ/mol
# Density = 2.585695 g / cm^3
# Si number density = 25.915939 Si / 1000 Ang^3
#
#
#
# Elastic Constant Matrix: (Units=GPa)
#
#
# Indices 1 2 3 4 5 6 
#
# 1 49.6711 -1.5375 20.3818 0.0000 0.0000 0.0000
# 2 -1.5375 120.8105 64.9194 0.0000 0.0000 0.0000
# 3 20.3818 64.9194 264.0310 0.0000 0.0000 0.0000
# 4 0.0000 0.0000 0.0000 33.4775 0.0000 0.0000
# 5 0.0000 0.0000 0.0000 0.0000 33.4953 0.0000
# 6 0.0000 0.0000 0.0000 0.0000 0.0000 16.4573
#
#
#
# Elastic Compliance Matrix: (Units=1/GPa)
#
#
# Indices 1 2 3 4 5 6 
#
# 1 0.020969 0.001310 -0.001941 0.000000 0.000000 0.000000
# 2 0.001310 0.009619 -0.002466 0.000000 0.000000 0.000000
# 3 -0.001941 -0.002466 0.004544 0.000000 0.000000 0.000000
# 4 0.000000 0.000000 0.000000 0.029871 0.000000 0.000000
# 5 0.000000 0.000000 0.000000 0.000000 0.029855 0.000000
# 6 0.000000 0.000000 0.000000 0.000000 0.000000 0.060763
#
#
# Mechanical properties :
#
#
# Convention : Reuss Voigt Hill
#
# Bulk Modulus (GPa) = 34.55686 66.89333 50.72510
# Shear Modulus (GPa) = 29.16095 40.06926 34.61511
#
# Velocity S-wave (km/s) = 3.35806 3.93634 3.65865
# Velocity P-wave (km/s) = 5.32903 6.82110 6.12070
#
# Compressibility (1/GPa) = 0.02893781
#
# Stress axis : x y z
#
# Youngs Moduli (GPa) = 47.68863 103.95658 220.08686
#
# Poissons Ratio (x) = -0.13616 0.42714
# Poissons Ratio (y) = -0.06246 0.54280
# Poissons Ratio (z) = 0.09255 0.25639
#
# Static dielectric constant tensor:
#      x y z
#    x 2.154740 0.000000 0.000000 
#    y 0.000000 1.987880 0.000000 
#    z 0.000000 0.000000 2.217770 
# 
# From -- ./inp_files/23555.got.cif
#   From: 2010.05.17/outbox.cif.g08.bks.cpg/sg23_12_cif.got.tgz:23555.got - 2010.06.04 12:02:01.
