data_PCOD9330594
_publ_section_title
;
Structure prediction by ZEFSAII (Michael W. Deem and Ramdas Pophale) SiO2 
 PCOD9330594
Probable space group: I 2 2 2
;
_chemical_formula_sum "Si O2"
_cell_formula_units_Z 48
_cell_length_a 9.888172
_cell_length_b 18.200746
_cell_length_c 13.903288
_cell_angle_alpha 90.000000
_cell_angle_beta 90.000000
_cell_angle_gamma 90.000000
_cell_volume 2502.204035
_symmetry_space_group_name_H-M "I 2 2 2"
_symmetry_group_IT_number 23
_symmetry_cell_setting 'orthorhombic'
loop_
_space_group_symop_operation_xyz
x,y,z
-x,-y,z
x,-y,-z
-x,y,-z
1/2+x,1/2+y,1/2+z
1/2-x,1/2-y,1/2+z
1/2+x,1/2-y,1/2-z
1/2-x,1/2+y,1/2-z
loop_
_atom_site_type_symbol
_atom_site_label
_atom_site_fract_x
_atom_site_fract_y
_atom_site_fract_z
Si Si1 0.883547 0.206957 0.367457
Si Si2 0.127842 0.578159 0.446342
Si Si3 0.273947 0.856631 0.771182
Si Si4 0.200644 0.209375 0.415089
Si Si5 0.364463 0.349380 0.447784
Si Si6 0.527334 0.583083 0.269411
O O1 0.816494 0.276778 0.313983
O O2 0.811731 0.194993 0.470667
O O3 0.044404 0.221797 0.383661
O O4 0.887620 0.132674 0.304554
O O5 0.136306 0.500000 0.500000
O O6 0.131196 0.585837 0.330751
O O7 0.260933 0.620613 0.475258
O O8 0.000000 0.614825 0.500000
O O9 0.272134 0.850127 0.654771
O O10 0.117338 0.878314 0.786973
O O11 0.288921 0.281944 0.399081
O O12 0.500000 0.324514 0.500000
O O13 0.397421 0.412793 0.371425
O O14 0.500000 0.500000 0.237846
#
# Coordination Sequence:
#
# PCOD9330594 Si02
#       6
#     8   8   8   8   8   8
#     4  10  20  39  60  86 123 168 218 264 314 391
#     4  11  23  37  56  85 122 161 199 251 323 395
#     4  11  20  38  59  85 121 158 211 260 320 393
#     4  10  21  36  59  89 117 160 212 265 307 382
#     4  12  21  34  57  90 125 158 200 262 323 373
#     4  11  23  37  59  93 126 166 213 269 337 388
#
# _framework density 19.183088999999999
#
# number of rings (size 3 to 8) (size 9 to 14) (size 15 to 20)
#    0.000    1.167    5.000    2.000    0.000    0.000 
#    0.000    6.667    0.000    0.000    0.000    0.000 
#    0.000    0.000    0.000    0.000    0.000    0.000 
#
# Total GULP energy -133658.253334 kJ/mol
# GULP energy per Si atom -5569.093889 kJ/mol
# Density = 1.913943 g / cm^3
# Si number density = 19.183089 Si / 1000 Ang^3
#
#
#
# Elastic Constant Matrix: (Units=GPa)
#
#
# Indices 1 2 3 4 5 6 
#
# 1 63.2947 15.8213 29.3384 0.0000 0.0000 0.0000
# 2 15.8213 88.6791 41.8631 0.0000 0.0000 0.0000
# 3 29.3384 41.8631 114.0730 0.0000 0.0000 0.0000
# 4 0.0000 0.0000 0.0000 12.3909 0.0000 0.0000
# 5 0.0000 0.0000 0.0000 0.0000 25.4565 0.0000
# 6 0.0000 0.0000 0.0000 0.0000 0.0000 18.8801
#
#
#
# Elastic Compliance Matrix: (Units=1/GPa)
#
#
# Indices 1 2 3 4 5 6 
#
# 1 0.018050 -0.001244 -0.004186 0.000000 0.000000 0.000000
# 2 -0.001244 0.013725 -0.004717 0.000000 0.000000 0.000000
# 3 -0.004186 -0.004717 0.011574 0.000000 0.000000 0.000000
# 4 0.000000 0.000000 0.000000 0.080704 0.000000 0.000000
# 5 0.000000 0.000000 0.000000 0.000000 0.039283 0.000000
# 6 0.000000 0.000000 0.000000 0.000000 0.000000 0.052966
#
#
# Mechanical properties :
#
#
# Convention : Reuss Voigt Hill
#
# Bulk Modulus (GPa) = 43.37364 48.89915 46.13640
# Shear Modulus (GPa) = 20.46817 23.28045 21.87431
#
# Velocity S-wave (km/s) = 3.27003 3.48744 3.38048
# Velocity P-wave (km/s) = 6.07592 6.46239 6.27213
#
# Compressibility (1/GPa) = 0.02305548
#
# Stress axis : x y z
#
# Youngs Moduli (GPa) = 55.40072 72.85767 86.40149
#
# Poissons Ratio (x) = 0.09067 0.36165
# Poissons Ratio (y) = 0.06894 0.40755
# Poissons Ratio (z) = 0.23189 0.34367
#
# Static dielectric constant tensor:
#      x y z
#    x 1.666620 0.000000 0.000000 
#    y 0.000000 1.717230 0.000000 
#    z 0.000000 0.000000 1.717020 
# 
# From -- ./inp_files/19997.got.cif
#   From: 2010.05.17/outbox.cif.g08.bks.cpg/sg23_10_cif.got.tgz:19997.got - 2010.06.04 12:02:01.
