data_PCOD9330408
_publ_section_title
;
Structure prediction by ZEFSAII (Michael W. Deem and Ramdas Pophale) SiO2 
 PCOD9330408
Probable space group: I 2 2 2
;
_chemical_formula_sum "Si O2"
_cell_formula_units_Z 48
_cell_length_a 8.347716
_cell_length_b 18.015832
_cell_length_c 15.434802
_cell_angle_alpha 90.000000
_cell_angle_beta 90.000000
_cell_angle_gamma 90.000000
_cell_volume 2321.256065
_symmetry_space_group_name_H-M "I 2 2 2"
_symmetry_group_IT_number 23
_symmetry_cell_setting 'orthorhombic'
loop_
_space_group_symop_operation_xyz
x,y,z
-x,-y,z
x,-y,-z
-x,y,-z
1/2+x,1/2+y,1/2+z
1/2-x,1/2-y,1/2+z
1/2+x,1/2-y,1/2-z
1/2-x,1/2+y,1/2-z
loop_
_atom_site_type_symbol
_atom_site_label
_atom_site_fract_x
_atom_site_fract_y
_atom_site_fract_z
Si Si1 0.500000 0.500000 0.500000
Si Si2 0.497412 0.168015 0.600878
Si Si3 0.834809 0.042736 0.280525
Si Si4 0.250787 0.099725 0.900725
Si Si5 0.317849 0.730596 0.090842
Si Si6 0.500000 0.000000 0.000000
Si Si7 0.500000 0.000000 0.654753
Si Si8 0.652299 0.678240 0.104671
O O1 0.605200 0.555426 0.443342
O O2 0.500000 0.191025 0.500000
O O3 0.664738 0.196215 0.639591
O O4 0.489770 0.078607 0.605656
O O5 0.330402 0.199339 0.638535
O O6 0.783331 0.095311 0.201103
O O7 0.869991 0.093982 0.363835
O O8 0.671645 0.995954 0.295809
O O9 0.000000 0.000000 0.260907
O O10 0.276678 0.184219 0.927687
O O11 0.399552 0.052596 0.936322
O O12 0.493609 0.722550 0.132944
O O13 0.333963 0.687245 0.999147
#
# Coordination Sequence:
#
# PCOD9330408 Si02
#       8
#     2   8   8   8   8   2   4   8
#     4  10  24  42  64  90 112 166 216 262 320 386
#     4   9  18  33  57  89 121 166 213 245 307 368
#     4  11  22  41  62  95 131 167 208 271 323 380
#     4  11  23  42  65  90 122 161 220 263 324 379
#     4  10  20  39  60  88 125 170 212 264 310 390
#     4  10  22  42  68  92 116 170 220 266 316 392
#     4  10  20  36  60  86 134 164 204 256 307 381
#     4   9  20  37  59  90 127 159 213 252 324 379
#
# _framework density 20.678457999999999
#
# number of rings (size 3 to 8) (size 9 to 14) (size 15 to 20)
#    0.000    2.000    0.833    2.750    3.500    0.000 
#    6.000    6.667    0.000    0.000    0.000    0.000 
#    0.000    0.000    0.000    0.000    0.000    0.000 
#
# Total GULP energy -133622.303402 kJ/mol
# GULP energy per Si atom -5567.595975 kJ/mol
# Density = 2.063139 g / cm^3
# Si number density = 20.678458 Si / 1000 Ang^3
#
#
#
# Elastic Constant Matrix: (Units=GPa)
#
#
# Indices 1 2 3 4 5 6 
#
# 1 203.7014 48.2558 15.7240 0.0000 0.0000 0.0000
# 2 48.2558 93.0841 22.6387 0.0000 0.0000 0.0000
# 3 15.7240 22.6387 52.1405 0.0000 0.0000 0.0000
# 4 0.0000 0.0000 0.0000 -4.2313 0.0000 0.0000
# 5 0.0000 0.0000 0.0000 0.0000 8.5383 0.0000
# 6 0.0000 0.0000 0.0000 0.0000 0.0000 48.5824
#
#
#
# Elastic Compliance Matrix: (Units=1/GPa)
#
#
# Indices 1 2 3 4 5 6 
#
# 1 0.005607 -0.002790 -0.000479 0.000000 0.000000 0.000000
# 2 -0.002790 0.013400 -0.004977 0.000000 0.000000 0.000000
# 3 -0.000479 -0.004977 0.021484 0.000000 0.000000 0.000000
# 4 0.000000 0.000000 0.000000 -0.236332 0.000000 0.000000
# 5 0.000000 0.000000 0.000000 0.000000 0.117119 0.000000
# 6 0.000000 0.000000 0.000000 0.000000 0.000000 0.020584
#
#
# Mechanical properties :
#
#
# Convention : Reuss Voigt Hill
#
# Bulk Modulus (GPa) = 41.66886 58.01813 49.84349
# Shear Modulus (GPa) = -148.60580 28.06505 -60.27038
#
# Velocity S-wave (km/s) = -8.48652 3.68803 -5.40460
# Velocity P-wave (km/s) = 8.70824 6.80100 3.84577
#
# Compressibility (1/GPa) = 0.02399874
#
# Stress axis : x y z
#
# Youngs Moduli (GPa) = 178.34407 74.62812 46.54560
#
# Poissons Ratio (x) = 0.20823 0.02232
# Poissons Ratio (y) = 0.49761 0.23164
# Poissons Ratio (z) = 0.08551 0.37139
#
# Static dielectric constant tensor:
#      x y z
#    x 1.806480 0.000000 0.000000 
#    y 0.000000 1.713630 0.000000 
#    z 0.000000 0.000000 1.738620 
# 
# From -- ./inp_files/20050.got.cif
#   From: 2010.05.17/outbox.cif.g08.bks.cpg/sg23_11_cif.got.tgz:20050.got - 2010.06.04 12:02:01.
