data_PCOD9330951
_publ_section_title
;
Structure prediction by ZEFSAII (Michael W. Deem and Ramdas Pophale) SiO2 
 PCOD9330951
Probable space group: I 2 2 2
;
_chemical_formula_sum "Si O2"
_cell_formula_units_Z 64
_cell_length_a 19.371424
_cell_length_b 9.197486
_cell_length_c 18.216176
_cell_angle_alpha 90.000000
_cell_angle_beta 90.000000
_cell_angle_gamma 90.000000
_cell_volume 3245.546951
_symmetry_space_group_name_H-M "I 2 2 2"
_symmetry_group_IT_number 23
_symmetry_cell_setting 'orthorhombic'
loop_
_space_group_symop_operation_xyz
x,y,z
-x,-y,z
x,-y,-z
-x,y,-z
1/2+x,1/2+y,1/2+z
1/2-x,1/2-y,1/2+z
1/2+x,1/2-y,1/2-z
1/2-x,1/2+y,1/2-z
loop_
_atom_site_type_symbol
_atom_site_label
_atom_site_fract_x
_atom_site_fract_y
_atom_site_fract_z
Si Si1 0.573523 0.570707 0.382997
Si Si2 0.793232 0.861619 0.324305
Si Si3 0.710026 0.031674 0.206505
Si Si4 0.433270 0.097463 0.394574
Si Si5 0.208091 0.913883 0.933841
Si Si6 0.934391 0.402194 0.283905
Si Si7 0.711587 0.864384 0.467759
Si Si8 0.577041 0.563377 0.209443
O O1 0.500000 0.500000 0.388798
O O2 0.561891 0.732216 0.412401
O O3 0.632464 0.482238 0.423159
O O4 0.593789 0.569669 0.296769
O O5 0.795043 0.705633 0.284188
O O6 0.758611 0.812014 0.400821
O O7 0.739792 0.963913 0.281144
O O8 0.864536 0.956066 0.325209
O O9 0.755062 0.957116 0.141794
O O10 0.633425 0.981368 0.189739
O O11 0.431295 0.093278 0.305657
O O12 0.358888 0.068771 0.431670
O O13 0.500000 0.000000 0.416154
O O14 0.201406 0.752631 0.967569
O O15 0.244584 0.000000 0.000000
O O16 0.929181 0.234651 0.310481
O O17 0.000000 0.500000 0.305418
O O18 0.751975 0.000000 0.500000
O O19 0.500000 0.500000 0.200336
#
# Coordination Sequence:
#
# PCOD9330951 Si02
#       8
#     8   8   8   8   8   8   8   8
#     4  10  21  38  61  87 125 178 220 254 316 389
#     4  12  24  42  67  98 130 173 225 276 332 401
#     4  12  24  40  70  96 130 175 224 274 335 395
#     4  10  21  40  58  87 131 171 215 265 314 385
#     4  12  24  45  63  91 134 178 220 271 329 404
#     4  10  21  39  67  98 129 165 217 275 331 390
#     4  12  28  43  62  95 136 173 222 273 336 397
#     4  10  21  39  65  99 131 164 217 276 329 390
#
# _framework density 19.719325999999999
#
# number of rings (size 3 to 8) (size 9 to 14) (size 15 to 20)
#    0.000    1.000    5.000    1.500    5.250    1.500 
#    0.000    0.000    0.000    0.750    0.000    0.000 
#    0.000    0.000    0.000    0.000    0.000    0.000 
#
# Total GULP energy -178293.298584 kJ/mol
# GULP energy per Si atom -5571.665581 kJ/mol
# Density = 1.967444 g / cm^3
# Si number density = 19.719326 Si / 1000 Ang^3
#
#
#
# Elastic Constant Matrix: (Units=GPa)
#
#
# Indices 1 2 3 4 5 6 
#
# 1 68.5263 51.7648 4.7574 0.0000 0.0000 0.0000
# 2 51.7648 158.5932 15.1238 0.0000 0.0000 0.0000
# 3 4.7574 15.1238 26.6862 0.0000 0.0000 0.0000
# 4 0.0000 0.0000 0.0000 30.2868 0.0000 0.0000
# 5 0.0000 0.0000 0.0000 0.0000 17.8050 0.0000
# 6 0.0000 0.0000 0.0000 0.0000 0.0000 22.7782
#
#
#
# Elastic Compliance Matrix: (Units=1/GPa)
#
#
# Indices 1 2 3 4 5 6 
#
# 1 0.019369 -0.006335 0.000137 0.000000 0.000000 0.000000
# 2 -0.006335 0.008738 -0.003823 0.000000 0.000000 0.000000
# 3 0.000137 -0.003823 0.039614 0.000000 0.000000 0.000000
# 4 0.000000 0.000000 0.000000 0.033018 0.000000 0.000000
# 5 0.000000 0.000000 0.000000 0.000000 0.056164 0.000000
# 6 0.000000 0.000000 0.000000 0.000000 0.000000 0.043902
#
#
# Mechanical properties :
#
#
# Convention : Reuss Voigt Hill
#
# Bulk Modulus (GPa) = 20.97296 44.12198 32.54747
# Shear Modulus (GPa) = 21.12033 26.31797 23.71915
#
# Velocity S-wave (km/s) = 3.27624 3.65722 3.47196
# Velocity P-wave (km/s) = 4.99705 6.34486 5.71085
#
# Compressibility (1/GPa) = 0.04768045
#
# Stress axis : x y z
#
# Youngs Moduli (GPa) = 51.62894 114.44588 25.24335
#
# Poissons Ratio (x) = 0.72503 -0.00347
# Poissons Ratio (y) = 0.32708 0.09649
# Poissons Ratio (z) = -0.00709 0.43747
#
# Static dielectric constant tensor:
#      x y z
#    x 1.699390 0.000000 0.000000 
#    y 0.000000 1.565540 0.000000 
#    z 0.000000 0.000000 1.819820 
# 
# From -- ./inp_files/27179.got.cif
#   From: 2010.05.17/outbox.cif.g08.bks.cpg/sg23_14_cif.got.tgz:27179.got - 2010.06.04 12:02:01.
