data_PCOD9330606
_publ_section_title
;
Structure prediction by ZEFSAII (Michael W. Deem and Ramdas Pophale) SiO2 
 PCOD9330606
Probable space group: I 2 2 2
;
_chemical_formula_sum "Si O2"
_cell_formula_units_Z 38
_cell_length_a 7.733548
_cell_length_b 25.426843
_cell_length_c 9.841018
_cell_angle_alpha 90.000000
_cell_angle_beta 90.000000
_cell_angle_gamma 90.000000
_cell_volume 1935.134934
_symmetry_space_group_name_H-M "I 2 2 2"
_symmetry_group_IT_number 23
_symmetry_cell_setting 'orthorhombic'
loop_
_space_group_symop_operation_xyz
x,y,z
-x,-y,z
x,-y,-z
-x,y,-z
1/2+x,1/2+y,1/2+z
1/2-x,1/2-y,1/2+z
1/2+x,1/2-y,1/2-z
1/2-x,1/2+y,1/2-z
loop_
_atom_site_type_symbol
_atom_site_label
_atom_site_fract_x
_atom_site_fract_y
_atom_site_fract_z
Si Si1 0.976914 0.148780 0.247091
Si Si2 0.500000 0.286273 0.000000
Si Si3 0.180480 0.598902 0.615045
Si Si4 0.632196 0.244169 0.614022
Si Si5 0.350863 0.152028 0.181565
Si Si6 0.500000 0.000000 0.000000
O O1 0.861016 0.102992 0.188834
O O2 0.944393 0.198627 0.147447
O O3 0.922844 0.174365 0.388067
O O4 0.176405 0.133160 0.253363
O O5 0.667941 0.255837 0.061120
O O6 0.181540 0.634766 0.476332
O O7 0.032451 0.624407 0.708992
O O8 0.120955 0.540392 0.580945
O O9 0.500000 0.221669 0.500000
O O10 0.631929 0.210589 0.754937
#
# Coordination Sequence:
#
# PCOD9330606 Si02
#       6
#     8   4   8   8   8   2
#     4  11  23  35  54  79 119 158 198 240 293 356
#     4  10  26  35  48  80 113 161 205 236 278 354
#     4  10  20  39  62  82 119 149 187 264 295 352
#     4  11  23  34  51  79 116 164 203 231 281 355
#     4   9  21  34  51  81 112 152 192 229 292 349
#     4   8  20  38  62  96 106 142 206 244 322 336
#
# _framework density 19.636873999999999
#
# number of rings (size 3 to 8) (size 9 to 14) (size 15 to 20)
#    0.000    2.105    0.000    3.158   14.737    0.842 
#    0.000    8.421    0.000    0.000    0.000  129.684 
#    0.000    0.000    0.000    0.000    0.000    0.000 
#
# Total GULP energy -105826.837343 kJ/mol
# GULP energy per Si atom -5569.833544 kJ/mol
# Density = 1.959218 g / cm^3
# Si number density = 19.636874 Si / 1000 Ang^3
#
#
#
# Elastic Constant Matrix: (Units=GPa)
#
#
# Indices 1 2 3 4 5 6 
#
# 1 74.4333 10.8573 6.4647 -0.0001 0.0000 0.0000
# 2 10.8573 83.9914 26.1343 0.0000 0.0000 0.0000
# 3 6.4647 26.1343 64.6888 0.0001 0.0002 0.0003
# 4 -0.0001 0.0000 0.0001 4.7732 0.0000 0.0000
# 5 0.0000 0.0000 0.0002 0.0000 26.9579 0.0000
# 6 0.0000 0.0000 0.0003 0.0000 0.0000 23.7183
#
#
#
# Elastic Compliance Matrix: (Units=1/GPa)
#
#
# Indices 1 2 3 4 5 6 
#
# 1 0.013725 -0.001541 -0.000749 0.000000 0.000000 0.000000
# 2 -0.001541 0.013791 -0.005418 0.000000 0.000000 0.000000
# 3 -0.000749 -0.005418 0.017722 0.000000 0.000000 0.000000
# 4 0.000000 0.000000 0.000000 0.209504 0.000000 0.000000
# 5 0.000000 0.000000 0.000000 0.000000 0.037095 0.000000
# 6 0.000000 0.000000 0.000000 0.000000 0.000000 0.042162
#
#
# Mechanical properties :
#
#
# Convention : Reuss Voigt Hill
#
# Bulk Modulus (GPa) = 33.53167 34.44733 33.98950
# Shear Modulus (GPa) = 13.91385 23.06701 18.49043
#
# Velocity S-wave (km/s) = 2.66476 3.43108 3.07191
# Velocity P-wave (km/s) = 5.15567 5.76859 5.47072
#
# Compressibility (1/GPa) = 0.02982255
#
# Stress axis : x y z
#
# Youngs Moduli (GPa) = 72.86137 72.51170 56.42654
#
# Poissons Ratio (x) = 0.11175 0.04226
# Poissons Ratio (y) = 0.11229 0.30569
# Poissons Ratio (z) = 0.05457 0.39283
#
# Static dielectric constant tensor:
#      x y z
#    x 1.737850 0.000000 0.000000 
#    y 0.000000 1.681960 0.000000 
#    z 0.000000 0.000000 1.752290 
# 
# From -- ./inp_files/6961.got.cif
#   From: 2010.05.17/outbox.cif.g08.bks.cpg/sg23_4_cif.got.tgz:6961.got - 2010.06.04 12:02:01.
