data_PCOD9330787
_publ_section_title
;
Structure prediction by ZEFSAII (Michael W. Deem and Ramdas Pophale) SiO2 
 PCOD9330787
Probable space group: I 2 2 2
;
_chemical_formula_sum "Si O2"
_cell_formula_units_Z 64
_cell_length_a 12.358178
_cell_length_b 9.792106
_cell_length_c 29.556095
_cell_angle_alpha 90.000000
_cell_angle_beta 90.000000
_cell_angle_gamma 90.000000
_cell_volume 3576.659575
_symmetry_space_group_name_H-M "I 2 2 2"
_symmetry_group_IT_number 23
_symmetry_cell_setting 'orthorhombic'
loop_
_space_group_symop_operation_xyz
x,y,z
-x,-y,z
x,-y,-z
-x,y,-z
1/2+x,1/2+y,1/2+z
1/2-x,1/2-y,1/2+z
1/2+x,1/2-y,1/2-z
1/2-x,1/2+y,1/2-z
loop_
_atom_site_type_symbol
_atom_site_label
_atom_site_fract_x
_atom_site_fract_y
_atom_site_fract_z
Si Si1 0.508358 0.834655 0.053129
Si Si2 0.913640 0.885372 0.272736
Si Si3 0.246587 0.943834 0.807490
Si Si4 0.059214 0.360467 0.757897
Si Si5 0.760871 0.367080 0.408177
Si Si6 0.377276 0.335183 0.508205
Si Si7 0.728592 0.194829 0.074690
Si Si8 0.273453 0.761521 0.671141
O O1 0.623100 0.804581 0.076764
O O2 0.399472 0.773974 0.074648
O O3 0.500000 0.000000 0.055573
O O4 0.500000 0.799713 0.000000
O O5 0.854909 0.926236 0.225820
O O6 0.820686 0.858513 0.309498
O O7 0.975923 0.745584 0.263216
O O8 0.000000 0.000000 0.285758
O O9 0.349705 0.892525 0.779530
O O10 0.238580 0.862156 0.854717
O O11 0.257849 0.104517 0.817871
O O12 0.119284 0.296867 0.801085
O O13 0.000000 0.500000 0.770107
O O14 0.668262 0.311063 0.441457
O O15 0.765530 0.530218 0.418693
O O16 0.378128 0.500000 0.500000
O O17 0.500000 0.287732 0.500000
O O18 0.291489 0.277248 0.471849
O O19 0.783334 0.266853 0.117344
#
# Coordination Sequence:
#
# PCOD9330787 Si02
#       8
#     8   8   8   8   8   8   8   8
#     4   9  14  23  42  65 101 139 176 219 271 329
#     4  11  22  38  56  77 112 151 188 236 290 338
#     4  10  21  34  52  81 111 147 195 235 280 352
#     4  11  22  37  58  78 112 149 188 238 289 336
#     4   9  17  27  43  71 102 145 185 221 277 336
#     4   9  16  27  41  65 105 150 180 218 271 341
#     4   9  17  28  45  71 105 140 183 219 278 339
#     4  10  21  35  54  83 107 147 193 231 285 348
#
# _framework density 17.893791
#
# number of rings (size 3 to 8) (size 9 to 14) (size 15 to 20)
#    0.000    2.250    3.750    0.000    1.750    1.500 
#    2.250    0.000    0.000    0.000    0.000    0.000 
#    0.000   17.000    0.000    0.000    0.000    0.000 
#
# Total GULP energy -178344.391030 kJ/mol
# GULP energy per Si atom -5573.262220 kJ/mol
# Density = 1.785306 g / cm^3
# Si number density = 17.893791 Si / 1000 Ang^3
#
#
#
# Elastic Constant Matrix: (Units=GPa)
#
#
# Indices 1 2 3 4 5 6 
#
# 1 75.9971 1.1616 24.8449 0.0000 0.0000 0.0000
# 2 1.1616 20.4263 6.1352 0.0000 0.0000 0.0000
# 3 24.8449 6.1352 105.7662 0.0000 0.0000 0.0000
# 4 0.0000 0.0000 0.0000 12.3938 0.0000 0.0000
# 5 0.0000 0.0000 0.0000 0.0000 5.2213 0.0000
# 6 0.0000 0.0000 0.0000 0.0000 0.0000 17.7103
#
#
#
# Elastic Compliance Matrix: (Units=1/GPa)
#
#
# Indices 1 2 3 4 5 6 
#
# 1 0.014254 0.000199 -0.003360 0.000000 0.000000 0.000000
# 2 0.000199 0.049827 -0.002937 0.000000 0.000000 0.000000
# 3 -0.003360 -0.002937 0.010414 0.000000 0.000000 0.000000
# 4 0.000000 0.000000 0.000000 0.080685 0.000000 0.000000
# 5 0.000000 0.000000 0.000000 0.000000 0.191524 0.000000
# 6 0.000000 0.000000 0.000000 0.000000 0.000000 0.056464
#
#
# Mechanical properties :
#
#
# Convention : Reuss Voigt Hill
#
# Bulk Modulus (GPa) = 16.05157 29.60810 22.82984
# Shear Modulus (GPa) = 11.46440 18.40159 14.93300
#
# Velocity S-wave (km/s) = 2.53393 3.21031 2.89197
# Velocity P-wave (km/s) = 4.18940 5.50672 4.89260
#
# Compressibility (1/GPa) = 0.06229920
#
# Stress axis : x y z
#
# Youngs Moduli (GPa) = 70.15705 20.06926 96.02074
#
# Poissons Ratio (x) = -0.00399 0.32261
# Poissons Ratio (y) = -0.01393 0.28201
# Poissons Ratio (z) = 0.23571 0.05894
#
# Static dielectric constant tensor:
#      x y z
#    x 1.619320 0.000000 0.000000 
#    y 0.000000 1.590850 0.000000 
#    z 0.000000 0.000000 1.628680 
# 
# From -- ./inp_files/14978.got.cif
#   From: 2010.05.17/outbox.cif.g08.bks.cpg/sg23_8_cif.got.tgz:14978.got - 2010.06.04 12:02:01.
