data_PCOD9330929
_publ_section_title
;
Structure prediction by ZEFSAII (Michael W. Deem and Ramdas Pophale) SiO2 
 PCOD9330929
Probable space group: I 2 2 2
;
_chemical_formula_sum "Si O2"
_cell_formula_units_Z 58
_cell_length_a 9.265081
_cell_length_b 26.686643
_cell_length_c 13.364977
_cell_angle_alpha 90.000000
_cell_angle_beta 90.000000
_cell_angle_gamma 90.000000
_cell_volume 3304.542807
_symmetry_space_group_name_H-M "I 2 2 2"
_symmetry_group_IT_number 23
_symmetry_cell_setting 'orthorhombic'
loop_
_space_group_symop_operation_xyz
x,y,z
-x,-y,z
x,-y,-z
-x,y,-z
1/2+x,1/2+y,1/2+z
1/2-x,1/2-y,1/2+z
1/2+x,1/2-y,1/2-z
1/2-x,1/2+y,1/2-z
loop_
_atom_site_type_symbol
_atom_site_label
_atom_site_fract_x
_atom_site_fract_y
_atom_site_fract_z
Si Si1 0.844339 0.761661 0.457104
Si Si2 0.512372 0.378632 0.382608
Si Si3 0.535679 0.849810 0.238958
Si Si4 0.716475 0.151634 0.078459
Si Si5 0.322771 0.708937 0.268598
Si Si6 0.699335 0.078747 0.889128
Si Si7 0.000000 0.500000 0.500000
Si Si8 0.386252 0.198704 0.587197
O O1 0.753111 0.709656 0.450049
O O2 0.860576 0.782522 0.346172
O O3 0.764309 0.802111 0.527223
O O4 0.000000 0.748416 0.500000
O O5 0.500000 0.364484 0.500000
O O6 0.342433 0.377653 0.360601
O O7 0.588515 0.336148 0.317754
O O8 0.625985 0.424806 0.377124
O O9 0.418963 0.845767 0.151535
O O10 0.653506 0.805366 0.230044
O O11 0.627208 0.899361 0.211238
O O12 0.454674 0.845473 0.345229
O O13 0.686113 0.121017 0.977057
O O14 0.360338 0.757557 0.332382
O O15 0.606716 0.033016 0.931103
O O16 0.500000 0.210786 0.500000
#
# Coordination Sequence:
#
# PCOD9330929 Si02
#       8
#     8   8   8   8   8   8   2   8
#     4  12  24  33  50  78 110 153 213 246 266 326
#     4   9  20  35  52  75 108 147 178 227 287 337
#     4  11  21  36  52  73 110 152 188 236 295 336
#     4  11  19  35  56  74 110 153 188 232 291 336
#     4  11  22  34  49  71 108 153 199 247 275 322
#     4  10  21  38  58  85 110 140 181 227 300 349
#     4  12  20  36  70  92 106 140 186 236 284 404
#     4  12  23  34  48  74 107 150 203 244 279 324
#
# _framework density 17.551597000000001
#
# number of rings (size 3 to 8) (size 9 to 14) (size 15 to 20)
#    0.000    1.103    4.138    5.379    1.931    0.000 
#    0.000    3.103    0.000    0.000    0.000    0.483 
#    0.000    0.000    0.000    1.241    0.000    0.000 
#
# Total GULP energy -161623.239604 kJ/mol
# GULP energy per Si atom -5573.215159 kJ/mol
# Density = 1.751165 g / cm^3
# Si number density = 17.551597 Si / 1000 Ang^3
#
#
#
# Elastic Constant Matrix: (Units=GPa)
#
#
# Indices 1 2 3 4 5 6 
#
# 1 102.6159 21.6186 28.6001 0.0000 0.0000 0.0000
# 2 21.6186 43.8252 17.7046 0.0000 0.0000 0.0000
# 3 28.6001 17.7046 92.5419 -0.0001 0.0000 0.0000
# 4 0.0000 0.0000 -0.0001 14.1651 0.0000 0.0000
# 5 0.0000 0.0000 0.0000 0.0000 33.1550 0.0000
# 6 0.0000 0.0000 0.0000 0.0000 0.0000 13.3527
#
#
#
# Elastic Compliance Matrix: (Units=1/GPa)
#
#
# Indices 1 2 3 4 5 6 
#
# 1 0.011451 -0.004572 -0.002664 0.000000 0.000000 0.000000
# 2 -0.004572 0.026555 -0.003667 0.000000 0.000000 0.000000
# 3 -0.002664 -0.003667 0.012331 0.000000 0.000000 0.000000
# 4 0.000000 0.000000 0.000000 0.070596 0.000000 0.000000
# 5 0.000000 0.000000 0.000000 0.000000 0.030161 0.000000
# 6 0.000000 0.000000 0.000000 0.000000 0.000000 0.074891
#
#
# Mechanical properties :
#
#
# Convention : Reuss Voigt Hill
#
# Bulk Modulus (GPa) = 35.05184 41.64774 38.34979
# Shear Modulus (GPa) = 19.43237 23.53854 21.48546
#
# Velocity S-wave (km/s) = 3.33101 3.66608 3.50255
# Velocity P-wave (km/s) = 5.89985 6.45759 6.18501
#
# Compressibility (1/GPa) = 0.02852918
#
# Stress axis : x y z
#
# Youngs Moduli (GPa) = 87.32945 37.65780 81.09728
#
# Poissons Ratio (x) = 0.17218 0.21606
# Poissons Ratio (y) = 0.39930 0.29740
# Poissons Ratio (z) = 0.23266 0.13810
#
# Static dielectric constant tensor:
#      x y z
#    x 1.732710 0.000000 0.000000 
#    y 0.000000 1.598990 0.000000 
#    z 0.000000 0.000000 1.600500 
# 
# From -- ./inp_files/14950.got.cif
#   From: 2010.05.17/outbox.cif.g08.bks.cpg/sg23_8_cif.got.tgz:14950.got - 2010.06.04 12:02:01.
