data_PCOD9330924
_publ_section_title
;
Structure prediction by ZEFSAII (Michael W. Deem and Ramdas Pophale) SiO2 
 PCOD9330924
Probable space group: I 2 2 2
;
_chemical_formula_sum "Si O2"
_cell_formula_units_Z 60
_cell_length_a 15.177286
_cell_length_b 14.528370
_cell_length_c 14.643951
_cell_angle_alpha 90.000000
_cell_angle_beta 90.000000
_cell_angle_gamma 90.000000
_cell_volume 3229.009158
_symmetry_space_group_name_H-M "I 2 2 2"
_symmetry_group_IT_number 23
_symmetry_cell_setting 'orthorhombic'
loop_
_space_group_symop_operation_xyz
x,y,z
-x,-y,z
x,-y,-z
-x,y,-z
1/2+x,1/2+y,1/2+z
1/2-x,1/2-y,1/2+z
1/2+x,1/2-y,1/2-z
1/2-x,1/2+y,1/2-z
loop_
_atom_site_type_symbol
_atom_site_label
_atom_site_fract_x
_atom_site_fract_y
_atom_site_fract_z
Si Si1 0.575469 0.862604 0.925816
Si Si2 0.970919 0.600408 0.758651
Si Si3 0.730443 0.112308 0.703699
Si Si4 0.720200 0.938707 0.583448
Si Si5 0.721140 0.000000 0.000000
Si Si6 0.309533 0.652781 0.393156
Si Si7 0.442617 0.201110 0.588698
Si Si8 0.701862 0.290773 0.025064
O O1 0.527802 0.883964 0.831399
O O2 0.615493 0.760125 0.937460
O O3 0.500000 0.877469 0.000000
O O4 0.655846 0.932290 0.944731
O O5 0.866116 0.605293 0.750907
O O6 0.000000 0.500000 0.796082
O O7 0.995483 0.681025 0.827053
O O8 0.791065 0.150759 0.784943
O O9 0.740784 0.177947 0.613944
O O10 0.746093 0.008987 0.663576
O O11 0.642202 0.866220 0.603715
O O12 0.800983 0.881825 0.538340
O O13 0.683732 0.000000 0.500000
O O14 0.783853 0.946547 0.069601
O O15 0.404411 0.696228 0.412756
O O16 0.246505 0.717933 0.455714
O O17 0.500000 0.179036 0.500000
#
# Coordination Sequence:
#
# PCOD9330924 Si02
#       8
#     8   8   8   8   4   8   8   8
#     4  11  21  36  57  86 119 148 191 255 307 355
#     4  12  21  30  54  91 121 153 189 249 315 352
#     4  11  20  36  59  87 123 158 204 247 299 382
#     4   9  18  33  56  82 113 157 201 243 294 360
#     4  10  21  38  59  80 120 158 202 248 307 362
#     4  10  21  38  56  85 117 164 204 245 306 372
#     4  11  22  35  56  86 124 156 196 248 305 359
#     4   9  20  37  55  82 122 160 198 241 304 371
#
# _framework density 18.581551999999999
#
# number of rings (size 3 to 8) (size 9 to 14) (size 15 to 20)
#    0.000    1.600    1.333    6.600    0.000    0.000 
#    2.400    0.333    0.000    3.600    3.467    0.000 
#    0.000    0.000    0.000    0.000    0.000    0.000 
#
# Total GULP energy -167083.028394 kJ/mol
# GULP energy per Si atom -5569.434280 kJ/mol
# Density = 1.853926 g / cm^3
# Si number density = 18.581552 Si / 1000 Ang^3
#
#
#
# Elastic Constant Matrix: (Units=GPa)
#
#
# Indices 1 2 3 4 5 6 
#
# 1 32.1751 34.2168 11.9785 0.0000 0.0000 0.0000
# 2 34.2168 71.4737 28.8970 0.0000 0.0000 0.0000
# 3 11.9785 28.8970 103.9074 0.0000 0.0000 0.0000
# 4 0.0000 0.0000 0.0000 30.6184 0.0000 0.0000
# 5 0.0000 0.0000 0.0000 0.0000 17.7276 0.0000
# 6 0.0000 0.0000 0.0000 0.0000 0.0000 33.9247
#
#
#
# Elastic Compliance Matrix: (Units=1/GPa)
#
#
# Indices 1 2 3 4 5 6 
#
# 1 0.063464 -0.030898 0.001277 0.000000 0.000000 0.000000
# 2 -0.030898 0.030807 -0.005006 0.000000 0.000000 0.000000
# 3 0.001277 -0.005006 0.010869 0.000000 0.000000 0.000000
# 4 0.000000 0.000000 0.000000 0.032660 0.000000 0.000000
# 5 0.000000 0.000000 0.000000 0.000000 0.056409 0.000000
# 6 0.000000 0.000000 0.000000 0.000000 0.000000 0.029477
#
#
# Mechanical properties :
#
#
# Convention : Reuss Voigt Hill
#
# Bulk Modulus (GPa) = 27.86662 39.74898 33.80780
# Shear Modulus (GPa) = 16.39874 25.28508 20.84191
#
# Velocity S-wave (km/s) = 2.97396 3.69285 3.35273
# Velocity P-wave (km/s) = 5.17900 6.29452 5.76381
#
# Compressibility (1/GPa) = 0.03588523
#
# Stress axis : x y z
#
# Youngs Moduli (GPa) = 15.75709 32.46025 92.00637
#
# Poissons Ratio (x) = 1.00297 -0.11747
# Poissons Ratio (y) = 0.48687 0.46054
# Poissons Ratio (z) = -0.02012 0.16248
#
# Static dielectric constant tensor:
#      x y z
#    x 1.620570 0.000000 0.000000 
#    y 0.000000 1.699310 0.000000 
#    z 0.000000 0.000000 1.643200 
# 
# From -- ./inp_files/21727.got.cif
#   From: 2010.05.17/outbox.cif.g08.bks.cpg/sg23_11_cif.got.tgz:21727.got - 2010.06.04 12:02:01.
