data_PCOD9330759
_publ_section_title
;
Structure prediction by ZEFSAII (Michael W. Deem and Ramdas Pophale) SiO2 
 PCOD9330759
Probable space group: I 2 2 2
;
_chemical_formula_sum "Si O2"
_cell_formula_units_Z 58
_cell_length_a 29.178764
_cell_length_b 10.809420
_cell_length_c 8.854008
_cell_angle_alpha 90.000000
_cell_angle_beta 90.000000
_cell_angle_gamma 90.000000
_cell_volume 2792.602954
_symmetry_space_group_name_H-M "I 2 2 2"
_symmetry_group_IT_number 23
_symmetry_cell_setting 'orthorhombic'
loop_
_space_group_symop_operation_xyz
x,y,z
-x,-y,z
x,-y,-z
-x,y,-z
1/2+x,1/2+y,1/2+z
1/2-x,1/2-y,1/2+z
1/2+x,1/2-y,1/2-z
1/2-x,1/2+y,1/2-z
loop_
_atom_site_type_symbol
_atom_site_label
_atom_site_fract_x
_atom_site_fract_y
_atom_site_fract_z
Si Si1 0.028542 0.373170 0.637170
Si Si2 0.120368 0.750914 0.829843
Si Si3 0.207637 0.351217 0.985141
Si Si4 0.202335 0.784014 0.335421
Si Si5 0.500000 0.500000 0.500000
Si Si6 0.371980 0.868000 0.012051
Si Si7 0.148779 0.974753 0.174903
Si Si8 0.564644 0.300047 0.612521
O O1 0.080524 0.385379 0.577286
O O2 0.037738 0.298268 0.788459
O O3 0.000000 0.500000 0.662636
O O4 0.000000 0.309589 0.500000
O O5 0.115872 0.667658 0.682744
O O6 0.128797 0.892821 0.777137
O O7 0.163313 0.701770 0.927195
O O8 0.078095 0.751235 0.946367
O O9 0.206671 0.303823 0.812081
O O10 0.207718 0.500000 0.000000
O O11 0.251766 0.294087 0.067914
O O12 0.161295 0.732855 0.439094
O O13 0.189682 0.920772 0.273248
O O14 0.531799 0.415751 0.599471
O O15 0.347081 0.000000 0.000000
O O16 0.111311 0.863424 0.175409
O O17 0.161721 0.000000 0.000000
#
# Coordination Sequence:
#
# PCOD9330759 Si02
#       8
#     8   8   8   8   2   8   8   8
#     4  11  24  46  70 101 148 189 233 302 361 439
#     4  11  24  47  74 105 141 191 238 303 368 431
#     4  12  27  45  70 108 145 187 250 295 362 454
#     4  12  26  45  71 105 146 191 241 303 364 432
#     4  12  24  40  72 108 140 176 258 298 344 440
#     4  12  25  46  70 100 143 190 241 298 371 427
#     4  10  20  45  73  99 143 187 232 301 370 424
#     4  11  23  46  73 104 141 188 238 299 366 431
#
# _framework density 20.769155000000001
#
# number of rings (size 3 to 8) (size 9 to 14) (size 15 to 20)
#    0.000    0.690    7.586    1.655    5.793    0.000 
#    0.000    4.138    0.000    0.000    0.000    0.000 
#    0.000    0.000    0.000    0.000    0.000    0.000 
#
# Total GULP energy -161989.746062 kJ/mol
# GULP energy per Si atom -5585.853312 kJ/mol
# Density = 2.072188 g / cm^3
# Si number density = 20.769155 Si / 1000 Ang^3
#
#
#
# Elastic Constant Matrix: (Units=GPa)
#
#
# Indices 1 2 3 4 5 6 
#
# 1 102.4720 31.1285 48.2640 0.0000 0.0000 0.0000
# 2 31.1285 108.3915 65.5099 0.0000 0.0000 0.0000
# 3 48.2640 65.5099 121.2822 0.0000 0.0000 0.0000
# 4 0.0000 0.0000 0.0000 25.7536 0.0000 0.0000
# 5 0.0000 0.0000 0.0000 0.0000 45.7062 0.0000
# 6 0.0000 0.0000 0.0000 0.0000 0.0000 37.1082
#
#
#
# Elastic Compliance Matrix: (Units=1/GPa)
#
#
# Indices 1 2 3 4 5 6 
#
# 1 0.012061 -0.000836 -0.004348 0.000000 0.000000 0.000000
# 2 -0.000836 0.013755 -0.007097 0.000000 0.000000 0.000000
# 3 -0.004348 -0.007097 0.013809 0.000000 0.000000 0.000000
# 4 0.000000 0.000000 0.000000 0.038829 0.000000 0.000000
# 5 0.000000 0.000000 0.000000 0.000000 0.021879 0.000000
# 6 0.000000 0.000000 0.000000 0.000000 0.000000 0.026948
#
#
# Mechanical properties :
#
#
# Convention : Reuss Voigt Hill
#
# Bulk Modulus (GPa) = 66.38864 69.10561 67.74712
# Shear Modulus (GPa) = 31.87465 34.19649 33.03557
#
# Velocity S-wave (km/s) = 3.92179 4.06212 3.99257
# Velocity P-wave (km/s) = 7.24856 7.43952 7.34466
#
# Compressibility (1/GPa) = 0.01506282
#
# Stress axis : x y z
#
# Youngs Moduli (GPa) = 82.91488 72.69939 72.41617
#
# Poissons Ratio (x) = 0.06076 0.31487
# Poissons Ratio (y) = 0.06930 0.51396
# Poissons Ratio (z) = 0.36052 0.51597
#
# Static dielectric constant tensor:
#      x y z
#    x 1.872690 0.000000 0.000000 
#    y 0.000000 1.752760 0.000000 
#    z 0.000000 0.000000 1.744850 
# 
# From -- ./inp_files/13080.got.cif
#   From: 2010.05.17/outbox.cif.g08.bks.cpg/sg23_7_cif.got.tgz:13080.got - 2010.06.04 12:02:01.
