data_PCOD9330967
_publ_section_title
;
Structure prediction by ZEFSAII (Michael W. Deem and Ramdas Pophale) SiO2 
 PCOD9330967
Probable space group: I 2 2 2
;
_chemical_formula_sum "Si O2"
_cell_formula_units_Z 48
_cell_length_a 15.470763
_cell_length_b 8.471113
_cell_length_c 18.150296
_cell_angle_alpha 90.000000
_cell_angle_beta 90.000000
_cell_angle_gamma 90.000000
_cell_volume 2378.679448
_symmetry_space_group_name_H-M "I 2 2 2"
_symmetry_group_IT_number 23
_symmetry_cell_setting 'orthorhombic'
loop_
_space_group_symop_operation_xyz
x,y,z
-x,-y,z
x,-y,-z
-x,y,-z
1/2+x,1/2+y,1/2+z
1/2-x,1/2-y,1/2+z
1/2+x,1/2-y,1/2-z
1/2-x,1/2+y,1/2-z
loop_
_atom_site_type_symbol
_atom_site_label
_atom_site_fract_x
_atom_site_fract_y
_atom_site_fract_z
Si Si1 0.000000 0.000000 0.889298
Si Si2 0.259064 0.825635 0.578728
Si Si3 0.903821 0.807116 0.506205
Si Si4 0.500000 0.000000 0.654073
Si Si5 0.374626 0.764190 0.432480
Si Si6 0.120841 0.774633 0.204536
Si Si7 0.709408 0.325471 0.860087
O O1 0.058442 0.100883 0.833802
O O2 0.937260 0.114190 0.935495
O O3 0.167586 0.756357 0.552909
O O4 0.326071 0.808762 0.509334
O O5 0.301378 0.744397 0.647531
O O6 0.238270 0.003203 0.607043
O O7 0.862951 0.764869 0.584032
O O8 0.000000 0.746095 0.500000
O O9 0.907171 0.000000 0.500000
O O10 0.563960 0.900643 0.600881
O O11 0.437754 0.885672 0.702049
O O12 0.298323 0.731006 0.372892
O O13 0.164717 0.822380 0.281182
#
# Coordination Sequence:
#
# PCOD9330967 Si02
#       7
#     4   8   8   4   8   8   8
#     4  10  26  39  60 100 137 166 218 284 345 400
#     4  10  21  38  65  90 124 176 216 268 337 393
#     4   8  16  34  59  89 111 151 213 270 303 374
#     4  10  22  39  64  96 129 174 220 268 329 414
#     4  10  21  41  65  94 129 171 225 267 332 405
#     4  11  24  39  60  97 134 175 213 277 347 403
#     4  10  21  38  63  92 126 165 225 267 323 411
#
# _framework density 20.179262999999999
#
# number of rings (size 3 to 8) (size 9 to 14) (size 15 to 20)
#    0.000    2.167    1.667    1.500    2.333    7.333 
#    3.000    0.000    0.000    0.000    0.000    0.000 
#    0.000    0.000    0.000    0.000    0.000    0.000 
#
# Total GULP energy -133823.616789 kJ/mol
# GULP energy per Si atom -5575.984033 kJ/mol
# Density = 2.013333 g / cm^3
# Si number density = 20.179263 Si / 1000 Ang^3
#
#
#
# Elastic Constant Matrix: (Units=GPa)
#
#
# Indices 1 2 3 4 5 6 
#
# 1 199.0338 51.0141 87.2260 0.0000 0.0000 0.0000
# 2 51.0141 69.3798 37.3010 0.0000 0.0000 0.0000
# 3 87.2260 37.3010 124.6963 0.0000 0.0000 0.0000
# 4 0.0000 0.0000 0.0000 18.3611 0.0000 0.0000
# 5 0.0000 0.0000 0.0000 0.0000 23.8535 0.0000
# 6 0.0000 0.0000 0.0000 0.0000 0.0000 18.3810
#
#
#
# Elastic Compliance Matrix: (Units=1/GPa)
#
#
# Indices 1 2 3 4 5 6 
#
# 1 0.007852 -0.003361 -0.004487 0.000000 0.000000 0.000000
# 2 -0.003361 0.018614 -0.003217 0.000000 0.000000 0.000000
# 3 -0.004487 -0.003217 0.012121 0.000000 0.000000 0.000000
# 4 0.000000 0.000000 0.000000 0.054463 0.000000 0.000000
# 5 0.000000 0.000000 0.000000 0.000000 0.041923 0.000000
# 6 0.000000 0.000000 0.000000 0.000000 0.000000 0.054404
#
#
# Mechanical properties :
#
#
# Convention : Reuss Voigt Hill
#
# Bulk Modulus (GPa) = 60.76660 82.68800 71.72730
# Shear Modulus (GPa) = 23.04213 26.62368 24.83290
#
# Velocity S-wave (km/s) = 3.38282 3.63624 3.51182
# Velocity P-wave (km/s) = 6.74068 7.66129 7.21568
#
# Compressibility (1/GPa) = 0.01645641
#
# Stress axis : x y z
#
# Youngs Moduli (GPa) = 127.35070 53.72168 82.50327
#
# Poissons Ratio (x) = 0.18057 0.37022
# Poissons Ratio (y) = 0.42805 0.26542
# Poissons Ratio (z) = 0.57146 0.17283
#
# Static dielectric constant tensor:
#      x y z
#    x 1.710410 0.000000 0.000000 
#    y 0.000000 1.824420 0.000000 
#    z 0.000000 0.000000 1.688030 
# 
# From -- ./inp_files/22042.got.cif
#   From: 2010.05.17/outbox.cif.g08.bks.cpg/sg23_12_cif.got.tgz:22042.got - 2010.06.04 12:02:01.
