data_PCOD9330566
_publ_section_title
;
Structure prediction by ZEFSAII (Michael W. Deem and Ramdas Pophale) SiO2 
 PCOD9330566
Probable space group: I 2 2 2
;
_chemical_formula_sum "Si O2"
_cell_formula_units_Z 42
_cell_length_a 10.136953
_cell_length_b 7.618117
_cell_length_c 24.881276
_cell_angle_alpha 90.000000
_cell_angle_beta 90.000000
_cell_angle_gamma 90.000000
_cell_volume 1921.443949
_symmetry_space_group_name_H-M "I 2 2 2"
_symmetry_group_IT_number 23
_symmetry_cell_setting 'orthorhombic'
loop_
_space_group_symop_operation_xyz
x,y,z
-x,-y,z
x,-y,-z
-x,y,-z
1/2+x,1/2+y,1/2+z
1/2-x,1/2-y,1/2+z
1/2+x,1/2-y,1/2-z
1/2-x,1/2+y,1/2-z
loop_
_atom_site_type_symbol
_atom_site_label
_atom_site_fract_x
_atom_site_fract_y
_atom_site_fract_z
Si Si1 0.675557 0.842545 0.302779
Si Si2 0.172512 0.163981 0.101488
Si Si3 0.000000 0.500000 0.500000
Si Si4 0.685178 0.696994 0.004512
Si Si5 0.613290 0.752150 0.717823
Si Si6 0.384540 0.258949 0.418752
O O1 0.545912 0.728297 0.284508
O O2 0.808621 0.799684 0.271075
O O3 0.687274 0.819161 0.366576
O O4 0.639362 0.042221 0.290533
O O5 0.181312 0.161544 0.165913
O O6 0.039270 0.273112 0.089365
O O7 0.141997 0.967448 0.082644
O O8 0.289775 0.242662 0.065845
O O9 0.099803 0.352164 0.476054
O O10 0.823864 0.693423 0.973609
O O11 0.633962 0.500000 0.000000
#
# Coordination Sequence:
#
# PCOD9330566 Si02
#       6
#     8   8   2   8   8   8
#     4  10  21  38  59  88 121 159 207 260 314 377
#     4  10  20  38  65  93 122 155 201 261 318 371
#     4  12  26  48  58  86 136 164 214 254 300 380
#     4  12  24  42  66  91 123 168 206 256 313 371
#     4  10  21  38  59  88 121 159 207 260 314 377
#     4  10  20  38  65  93 122 155 201 261 318 371
#
# _framework density 21.858561999999999
#
# number of rings (size 3 to 8) (size 9 to 14) (size 15 to 20)
#    0.000    1.524    1.905    3.143    0.000    6.857 
#    3.429    0.000    0.000    0.000    0.000    0.000 
#    0.000    0.000    0.000    0.000    0.000    0.000 
#
# Total GULP energy -117188.637852 kJ/mol
# GULP energy per Si atom -5580.411326 kJ/mol
# Density = 2.180881 g / cm^3
# Si number density = 21.858562 Si / 1000 Ang^3
#
#
#
# Elastic Constant Matrix: (Units=GPa)
#
#
# Indices 1 2 3 4 5 6 
#
# 1 34.1600 1.4275 10.8190 0.0000 0.0000 0.0000
# 2 1.4275 97.5838 -3.9789 0.0000 0.0000 0.0000
# 3 10.8190 -3.9789 72.1441 0.0000 0.0000 0.0000
# 4 0.0000 0.0000 0.0000 35.0324 0.0000 0.0000
# 5 0.0000 0.0000 0.0000 0.0000 -344.3270 0.0000
# 6 0.0000 0.0000 0.0000 0.0000 0.0000 19.8657
#
#
#
# Elastic Compliance Matrix: (Units=1/GPa)
#
#
# Indices 1 2 3 4 5 6 
#
# 1 0.030773 -0.000640 -0.004650 0.000000 0.000000 0.000000
# 2 -0.000640 0.010284 0.000663 0.000000 0.000000 0.000000
# 3 -0.004650 0.000663 0.014595 0.000000 0.000000 0.000000
# 4 0.000000 0.000000 0.000000 0.028545 0.000000 0.000000
# 5 0.000000 0.000000 0.000000 0.000000 -0.002904 0.000000
# 6 0.000000 0.000000 0.000000 0.000000 0.000000 0.050338
#
#
# Mechanical properties :
#
#
# Convention : Reuss Voigt Hill
#
# Bulk Modulus (GPa) = 21.55226 24.49148 23.02187
# Shear Modulus (GPa) = 31.97925 -44.84443 -6.43259
#
# Velocity S-wave (km/s) = 3.82908 -4.53434 -1.71733
# Velocity P-wave (km/s) = 5.42498 4.02304 2.57348
#
# Compressibility (1/GPa) = 0.04639885
#
# Stress axis : x y z
#
# Youngs Moduli (GPa) = 32.49550 97.23845 68.51625
#
# Poissons Ratio (x) = 0.06221 0.31861
# Poissons Ratio (y) = 0.02079 -0.04543
# Poissons Ratio (z) = 0.15111 -0.06448
#
# Static dielectric constant tensor:
#      x y z
#    x 1.855320 0.000000 0.000000 
#    y 0.000000 4.872470 0.000000 
#    z 0.000000 0.000000 1.779440 
# 
# From -- ./inp_files/28253.got.cif
#   From: 2010.05.17/outbox.cif.g08.bks.cpg/sg23_15_cif.got.tgz:28253.got - 2010.06.04 12:02:01.
