data_PCOD9330075
_publ_section_title
;
Structure prediction by ZEFSAII (Michael W. Deem and Ramdas Pophale) SiO2 
 PCOD9330075
Probable space group: I 2 2 2
;
_chemical_formula_sum "Si O2"
_cell_formula_units_Z 42
_cell_length_a 10.303243
_cell_length_b 24.126509
_cell_length_c 9.051591
_cell_angle_alpha 90.000000
_cell_angle_beta 90.000000
_cell_angle_gamma 90.000000
_cell_volume 2250.056122
_symmetry_space_group_name_H-M "I 2 2 2"
_symmetry_group_IT_number 23
_symmetry_cell_setting 'orthorhombic'
loop_
_space_group_symop_operation_xyz
x,y,z
-x,-y,z
x,-y,-z
-x,y,-z
1/2+x,1/2+y,1/2+z
1/2-x,1/2-y,1/2+z
1/2+x,1/2-y,1/2-z
1/2-x,1/2+y,1/2-z
loop_
_atom_site_type_symbol
_atom_site_label
_atom_site_fract_x
_atom_site_fract_y
_atom_site_fract_z
Si Si1 0.000000 0.000000 0.000000
Si Si2 0.844162 0.495723 0.835361
Si Si3 0.180596 0.913039 0.155135
Si Si4 0.126375 0.790686 0.104596
Si Si5 0.381358 0.785645 0.893926
Si Si6 0.120042 0.588296 0.398125
O O1 0.078779 0.959848 0.109554
O O2 0.782193 0.439928 0.769604
O O3 0.825090 0.546943 0.724639
O O4 0.000000 0.500000 0.844643
O O5 0.790890 0.500000 0.000000
O O6 0.123946 0.852128 0.180114
O O7 0.263119 0.904569 0.008747
O O8 0.130846 0.748749 0.242973
O O9 0.251858 0.783589 0.996549
O O10 0.000000 0.784284 0.000000
O O11 0.413840 0.849619 0.847808
O O12 0.500000 0.767219 0.000000
O O13 0.000000 0.566417 0.500000
#
# Coordination Sequence:
#
# PCOD9330075 Si02
#       6
#     2   8   8   8   8   8
#     4  12  20  36  60  84 104 164 214 234 274 368
#     4  11  22  36  58  94 125 147 190 260 324 354
#     4  11  22  37  64  86 119 162 210 243 297 379
#     4  11  23  42  64  94 125 167 212 260 316 371
#     4  10  23  41  64  92 124 167 214 262 311 368
#     4  10  19  37  62  85 115 158 202 244 298 368
#
# _framework density 18.666201000000001
#
# number of rings (size 3 to 8) (size 9 to 14) (size 15 to 20)
#    0.000    1.333    4.762    1.143    0.000    1.524 
#    3.429    2.381    0.000    0.000    0.000    0.000 
#    0.000    0.000    0.000    0.000    0.000    0.000 
#
# Total GULP energy -116935.216804 kJ/mol
# GULP energy per Si atom -5568.343657 kJ/mol
# Density = 1.862372 g / cm^3
# Si number density = 18.666201 Si / 1000 Ang^3
#
#
#
# Elastic Constant Matrix: (Units=GPa)
#
#
# Indices 1 2 3 4 5 6 
#
# 1 93.3146 25.7661 23.8830 0.0000 0.0000 0.0000
# 2 25.7661 123.0385 71.5260 0.0000 0.0000 0.0000
# 3 23.8830 71.5260 123.8205 0.0003 -0.0001 0.0001
# 4 0.0000 0.0000 0.0003 15.3444 -0.0001 0.0001
# 5 0.0000 0.0000 -0.0001 -0.0001 -4.7023 -0.0001
# 6 0.0000 0.0000 0.0001 0.0001 -0.0001 22.6601
#
#
#
# Elastic Compliance Matrix: (Units=1/GPa)
#
#
# Indices 1 2 3 4 5 6 
#
# 1 0.011500 -0.001684 -0.001245 0.000000 0.000000 0.000000
# 2 -0.001684 0.012484 -0.006886 0.000000 0.000000 0.000000
# 3 -0.001245 -0.006886 0.012294 0.000000 0.000000 0.000000
# 4 0.000000 0.000000 0.000000 0.065170 -0.000001 0.000000
# 5 0.000000 0.000000 0.000000 -0.000001 -0.212661 -0.000001
# 6 0.000000 0.000000 0.000000 0.000000 -0.000001 0.044130
#
#
# Mechanical properties :
#
#
# Convention : Reuss Voigt Hill
#
# Bulk Modulus (GPa) = 60.07381 64.72486 62.39934
# Shear Modulus (GPa) = -119.32676 21.26034 -49.03321
#
# Velocity S-wave (km/s) = -8.00409 3.37853 -5.13084
# Velocity P-wave (km/s) = 7.29160 7.06891 1.26452
#
# Compressibility (1/GPa) = 0.01664619
#
# Stress axis : x y z
#
# Youngs Moduli (GPa) = 86.95474 80.10562 81.33836
#
# Poissons Ratio (x) = 0.13494 0.10128
# Poissons Ratio (y) = 0.14647 0.56012
# Poissons Ratio (z) = 0.10827 0.55163
#
# Static dielectric constant tensor:
#      x y z
#    x 1.694300 0.000000 0.000000 
#    y 0.000000 1.786510 0.000000 
#    z 0.000000 0.000000 1.648360 
# 
# From -- ./inp_files/8600.got.cif
#   From: 2010.05.17/outbox.cif.g08.bks.cpg/sg23_5_cif.got.tgz:8600.got - 2010.06.04 12:02:01.
