data_PCOD9330126
_publ_section_title
;
Structure prediction by ZEFSAII (Michael W. Deem and Ramdas Pophale) SiO2 
 PCOD9330126
Probable space group: I 2 2 2
;
_chemical_formula_sum "Si O2"
_cell_formula_units_Z 40
_cell_length_a 15.164994
_cell_length_b 8.009671
_cell_length_c 13.940963
_cell_angle_alpha 90.000000
_cell_angle_beta 90.000000
_cell_angle_gamma 90.000000
_cell_volume 1693.361553
_symmetry_space_group_name_H-M "I 2 2 2"
_symmetry_group_IT_number 23
_symmetry_cell_setting 'orthorhombic'
loop_
_space_group_symop_operation_xyz
x,y,z
-x,-y,z
x,-y,-z
-x,y,-z
1/2+x,1/2+y,1/2+z
1/2-x,1/2-y,1/2+z
1/2+x,1/2-y,1/2-z
1/2-x,1/2+y,1/2-z
loop_
_atom_site_type_symbol
_atom_site_label
_atom_site_fract_x
_atom_site_fract_y
_atom_site_fract_z
Si Si1 0.959981 0.311649 0.905874
Si Si2 0.442025 0.844795 0.201094
Si Si3 0.170364 0.837510 0.565051
Si Si4 0.749133 0.528484 0.236317
Si Si5 0.765779 0.803242 0.101676
O O1 0.977696 0.253763 0.796956
O O2 0.855044 0.298109 0.921691
O O3 0.000000 0.500000 0.903728
O O4 0.000000 0.226569 0.000000
O O5 0.418162 0.722578 0.115775
O O6 0.500000 0.000000 0.170439
O O7 0.349394 0.927657 0.236032
O O8 0.234214 0.889573 0.653493
O O9 0.210322 0.696630 0.495111
O O10 0.159903 0.000000 0.500000
O O11 0.713612 0.692769 0.181598
O O12 0.708570 0.465467 0.336593
#
# Coordination Sequence:
#
# PCOD9330126 Si02
#       5
#     8   8   8   8   8
#     4   9  18  30  56  99 135 165 216 269 337 405
#     4  10  21  38  64 101 138 175 233 283 337 413
#     4  10  21  37  64  99 138 182 230 280 345 404
#     4  10  19  39  58  98 136 172 223 279 330 407
#     4  10  21  35  63  93 134 176 224 280 333 407
#
# _framework density 23.621653999999999
#
# number of rings (size 3 to 8) (size 9 to 14) (size 15 to 20)
#    0.000    2.200    4.000    0.000   16.800    0.800 
#    0.000    2.000    0.000    8.400    5.200    5.600 
#    0.000    0.000    0.000    0.000    0.000    0.000 
#
# Total GULP energy -111464.522239 kJ/mol
# GULP energy per Si atom -5573.226112 kJ/mol
# Density = 2.356789 g / cm^3
# Si number density = 23.621654 Si / 1000 Ang^3
#
#
#
# Elastic Constant Matrix: (Units=GPa)
#
#
# Indices 1 2 3 4 5 6 
#
# 1 27.2252 11.4035 26.3059 0.0000 0.0000 0.0000
# 2 11.4035 52.0391 46.5337 0.0000 0.0000 0.0000
# 3 26.3059 46.5337 181.4884 0.0000 0.0000 0.0000
# 4 0.0000 0.0000 0.0000 42.8174 0.0000 0.0000
# 5 0.0000 0.0000 0.0000 0.0000 20.2559 0.0000
# 6 0.0000 0.0000 0.0000 0.0000 0.0000 2.2923
#
#
#
# Elastic Compliance Matrix: (Units=1/GPa)
#
#
# Indices 1 2 3 4 5 6 
#
# 1 0.043723 -0.005079 -0.005035 0.000000 0.000000 0.000000
# 2 -0.005079 0.025523 -0.005808 0.000000 0.000000 0.000000
# 3 -0.005035 -0.005808 0.007729 0.000000 0.000000 0.000000
# 4 0.000000 0.000000 0.000000 0.023355 0.000000 0.000000
# 5 0.000000 0.000000 0.000000 0.000000 0.049368 0.000000
# 6 0.000000 0.000000 0.000000 0.000000 0.000000 0.436240
#
#
# Mechanical properties :
#
#
# Convention : Reuss Voigt Hill
#
# Bulk Modulus (GPa) = 22.15757 47.69320 34.92539
# Shear Modulus (GPa) = 7.90107 24.84044 16.37076
#
# Velocity S-wave (km/s) = 1.83087 3.24635 2.63542
# Velocity P-wave (km/s) = 3.72425 5.85543 4.90694
#
# Compressibility (1/GPa) = 0.04513129
#
# Stress axis : x y z
#
# Youngs Moduli (GPa) = 22.87114 39.18084 129.38299
#
# Poissons Ratio (x) = 0.19898 0.65149
# Poissons Ratio (y) = 0.11615 0.75145
# Poissons Ratio (z) = 0.11516 0.22756
#
# Static dielectric constant tensor:
#      x y z
#    x 1.904710 0.000000 0.000000 
#    y 0.000000 2.012450 0.000000 
#    z 0.000000 0.000000 1.966420 
# 
# From -- ./inp_files/21925.got.cif
#   From: 2010.05.17/outbox.cif.g08.bks.cpg/sg23_11_cif.got.tgz:21925.got - 2010.06.04 12:02:01.
