data_PCOD9330272
_publ_section_title
;
Structure prediction by ZEFSAII (Michael W. Deem and Ramdas Pophale) SiO2 
 PCOD9330272
Probable space group: I 2 2 2
;
_chemical_formula_sum "Si O2"
_cell_formula_units_Z 64
_cell_length_a 26.288691
_cell_length_b 12.891351
_cell_length_c 8.386258
_cell_angle_alpha 90.000000
_cell_angle_beta 90.000000
_cell_angle_gamma 90.000000
_cell_volume 2842.075522
_symmetry_space_group_name_H-M "I 2 2 2"
_symmetry_group_IT_number 23
_symmetry_cell_setting 'orthorhombic'
loop_
_space_group_symop_operation_xyz
x,y,z
-x,-y,z
x,-y,-z
-x,y,-z
1/2+x,1/2+y,1/2+z
1/2-x,1/2-y,1/2+z
1/2+x,1/2-y,1/2-z
1/2-x,1/2+y,1/2-z
loop_
_atom_site_type_symbol
_atom_site_label
_atom_site_fract_x
_atom_site_fract_y
_atom_site_fract_z
Si Si1 0.168086 0.127020 0.826372
Si Si2 0.849197 0.092600 0.803957
Si Si3 0.783408 0.664562 0.401239
Si Si4 0.382425 0.804606 0.284708
Si Si5 0.566274 0.891482 0.407310
Si Si6 0.744734 0.396452 0.097244
Si Si7 0.658655 0.859445 0.216338
Si Si8 0.015334 0.620572 0.668531
O O1 0.229884 0.118438 0.841625
O O2 0.155472 0.234614 0.741642
O O3 0.141858 0.025234 0.752467
O O4 0.149749 0.116609 0.008774
O O5 0.882962 0.183780 0.732770
O O6 0.790802 0.107521 0.752802
O O7 0.824498 0.664027 0.256735
O O8 0.767700 0.780513 0.465979
O O9 0.814759 0.617235 0.548510
O O10 0.401725 0.824082 0.464851
O O11 0.424949 0.863614 0.185562
O O12 0.604294 0.906257 0.257513
O O13 0.516014 0.842771 0.325741
O O14 0.556960 0.000000 0.500000
O O15 0.802700 0.399764 0.149201
O O16 0.731858 0.500000 0.000000
O O17 0.000000 0.500000 0.665904
O O18 0.000000 0.668714 0.500000
#
# Coordination Sequence:
#
# PCOD9330272 Si02
#       8
#     8   8   8   8   8   8   8   8
#     4  10  20  36  59  86 131 174 224 267 313 370
#     4  10  20  38  57  87 121 173 215 263 310 380
#     4  10  22  37  59  88 132 173 222 270 315 380
#     4  11  23  42  65  93 128 168 212 262 321 394
#     4  12  24  40  63  94 131 165 208 263 331 399
#     4  10  20  34  56  85 127 176 224 267 322 379
#     4  11  21  36  57  91 130 172 221 270 325 384
#     4  11  24  45  70  96 129 159 203 262 332 397
#
# _framework density 22.518754000000001
#
# number of rings (size 3 to 8) (size 9 to 14) (size 15 to 20)
#    0.000    1.375    3.750    2.250    0.000    2.000 
#    0.000    0.000    0.000    0.750    0.000    0.875 
#    0.000    0.000    0.000    0.000    0.000    0.000 
#
# Total GULP energy -178600.990305 kJ/mol
# GULP energy per Si atom -5581.280947 kJ/mol
# Density = 2.246750 g / cm^3
# Si number density = 22.518754 Si / 1000 Ang^3
#
#
#
# Elastic Constant Matrix: (Units=GPa)
#
#
# Indices 1 2 3 4 5 6 
#
# 1 89.2260 38.6317 5.7831 0.0000 0.0000 0.0000
# 2 38.6317 132.7686 23.0870 0.0000 0.0000 0.0000
# 3 5.7831 23.0870 64.4444 0.0000 0.0000 0.0000
# 4 0.0000 0.0000 0.0000 19.8677 0.0000 0.0000
# 5 0.0000 0.0000 0.0000 0.0000 32.5772 0.0000
# 6 0.0000 0.0000 0.0000 0.0000 0.0000 24.3806
#
#
#
# Elastic Compliance Matrix: (Units=1/GPa)
#
#
# Indices 1 2 3 4 5 6 
#
# 1 0.012825 -0.003766 0.000198 0.000000 0.000000 0.000000
# 2 -0.003766 0.009138 -0.002936 0.000000 0.000000 0.000000
# 3 0.000198 -0.002936 0.016551 0.000000 0.000000 0.000000
# 4 0.000000 0.000000 0.000000 0.050333 0.000000 0.000000
# 5 0.000000 0.000000 0.000000 0.000000 0.030696 0.000000
# 6 0.000000 0.000000 0.000000 0.000000 0.000000 0.041016
#
#
# Mechanical properties :
#
#
# Convention : Reuss Voigt Hill
#
# Bulk Modulus (GPa) = 39.20440 46.82695 43.01567
# Shear Modulus (GPa) = 27.46193 29.96091 28.71142
#
# Velocity S-wave (km/s) = 3.49594 3.65154 3.57459
# Velocity P-wave (km/s) = 5.80887 6.21435 6.01503
#
# Compressibility (1/GPa) = 0.02550734
#
# Stress axis : x y z
#
# Youngs Moduli (GPa) = 77.97088 109.42984 60.41862
#
# Poissons Ratio (x) = 0.41214 -0.01198
# Poissons Ratio (y) = 0.29366 0.17738
# Poissons Ratio (z) = -0.01546 0.32126
#
# Static dielectric constant tensor:
#      x y z
#    x 1.810850 0.000000 0.000000 
#    y 0.000000 1.915340 0.000000 
#    z 0.000000 0.000000 1.956260 
# 
# From -- ./inp_files/12707.got.cif
#   From: 2010.05.17/outbox.cif.g08.bks.cpg/sg23_7_cif.got.tgz:12707.got - 2010.06.04 12:02:01.
