data_PCOD9330354
_publ_section_title
;
Structure prediction by ZEFSAII (Michael W. Deem and Ramdas Pophale) SiO2 
 PCOD9330354
Probable space group: I 2 2 2
;
_chemical_formula_sum "Si O2"
_cell_formula_units_Z 64
_cell_length_a 12.250676
_cell_length_b 8.918245
_cell_length_c 31.674420
_cell_angle_alpha 90.000000
_cell_angle_beta 90.000000
_cell_angle_gamma 90.000000
_cell_volume 3460.573870
_symmetry_space_group_name_H-M "I 2 2 2"
_symmetry_group_IT_number 23
_symmetry_cell_setting 'orthorhombic'
loop_
_space_group_symop_operation_xyz
x,y,z
-x,-y,z
x,-y,-z
-x,y,-z
1/2+x,1/2+y,1/2+z
1/2-x,1/2-y,1/2+z
1/2+x,1/2-y,1/2-z
1/2-x,1/2+y,1/2-z
loop_
_atom_site_type_symbol
_atom_site_label
_atom_site_fract_x
_atom_site_fract_y
_atom_site_fract_z
Si Si1 0.395451 0.103535 0.345319
Si Si2 0.729827 0.181256 0.325080
Si Si3 0.873757 0.178764 0.996686
Si Si4 0.274424 0.308304 0.075438
Si Si5 0.524190 0.677498 0.194253
Si Si6 0.752397 0.660282 0.927054
Si Si7 0.026152 0.175785 0.214039
Si Si8 0.487972 0.682990 0.099564
O O1 0.328238 0.165882 0.385169
O O2 0.441394 0.231279 0.314723
O O3 0.500000 0.000000 0.358949
O O4 0.316539 0.987650 0.320990
O O5 0.742976 0.204266 0.375306
O O6 0.846205 0.196408 0.303744
O O7 0.643152 0.293945 0.306132
O O8 0.809325 0.254085 0.035112
O O9 0.809247 0.221409 0.954134
O O10 0.000000 0.230111 0.000000
O O11 0.873523 0.000000 0.000000
O O12 0.262007 0.483374 0.063409
O O13 0.403198 0.264946 0.074820
O O14 0.500000 0.500000 0.192754
O O15 0.474016 0.735149 0.237749
O O16 0.488929 0.736996 0.148345
O O17 0.629808 0.719358 0.919197
O O18 0.000000 0.000000 0.214206
O O19 0.500000 0.500000 0.100759
#
# Coordination Sequence:
#
# PCOD9330354 Si02
#       8
#     8   8   8   8   8   8   8   8
#     4   9  19  34  53  80 108 147 187 232 276 317
#     4   9  19  35  56  78 109 147 184 233 275 317
#     4  11  26  40  54  81 113 146 173 217 277 335
#     4   9  19  38  61  81 107 140 183 230 269 323
#     4   9  17  32  55  82 110 145 187 228 277 326
#     4  10  20  35  61  86 104 139 185 231 271 319
#     4  10  21  32  50  80 114 151 185 224 281 334
#     4   8  16  34  59  85 108 137 181 231 277 313
#
# _framework density 18.494043000000001
#
# number of rings (size 3 to 8) (size 9 to 14) (size 15 to 20)
#    0.000    2.625    0.000    2.625    5.250    5.000 
#    0.000    3.125    0.000    9.000    0.000    0.000 
#    0.000    0.000    0.000    0.000    0.000    0.000 
#
# Total GULP energy -178397.121193 kJ/mol
# GULP energy per Si atom -5574.910037 kJ/mol
# Density = 1.845195 g / cm^3
# Si number density = 18.494043 Si / 1000 Ang^3
#
#
#
# Elastic Constant Matrix: (Units=GPa)
#
#
# Indices 1 2 3 4 5 6 
#
# 1 142.9005 32.4052 60.1005 0.0000 0.0000 0.0000
# 2 32.4052 32.3882 32.5382 0.0000 0.0000 0.0000
# 3 60.1005 32.5382 58.2693 0.0000 0.0000 0.0000
# 4 0.0000 0.0000 0.0000 28.9645 0.0000 0.0000
# 5 0.0000 0.0000 0.0000 0.0000 -14.1243 0.0000
# 6 0.0000 0.0000 0.0000 0.0000 0.0000 12.7471
#
#
#
# Elastic Compliance Matrix: (Units=1/GPa)
#
#
# Indices 1 2 3 4 5 6 
#
# 1 0.012374 0.001006 -0.013324 0.000000 0.000000 0.000000
# 2 0.001006 0.070413 -0.040357 0.000000 0.000000 0.000000
# 3 -0.013324 -0.040357 0.053440 0.000000 0.000000 0.000000
# 4 0.000000 0.000000 0.000000 0.034525 0.000000 0.000000
# 5 0.000000 0.000000 0.000000 0.000000 -0.070800 0.000000
# 6 0.000000 0.000000 0.000000 0.000000 0.000000 0.078449
#
#
# Mechanical properties :
#
#
# Convention : Reuss Voigt Hill
#
# Bulk Modulus (GPa) = 32.38704 53.73842 43.06273
# Shear Modulus (GPa) = 17.00430 12.75171 14.87801
#
# Velocity S-wave (km/s) = 3.03553 2.62869 2.83940
# Velocity P-wave (km/s) = 5.46224 6.19141 5.83822
#
# Compressibility (1/GPa) = 0.03087655
#
# Stress axis : x y z
#
# Youngs Moduli (GPa) = 80.81729 14.20194 18.71255
#
# Poissons Ratio (x) = -0.01428 0.24933
# Poissons Ratio (y) = -0.08127 0.75518
# Poissons Ratio (z) = 1.07681 0.57314
#
# Static dielectric constant tensor:
#      x y z
#    x 1.650780 0.000000 0.000000 
#    y 0.000000 1.649760 0.000000 
#    z 0.000000 0.000000 1.637280 
# 
# From -- ./inp_files/30482.got.cif
#   From: 2010.05.17/outbox.cif.g08.bks.cpg/sg23_16_cif.got.tgz:30482.got - 2010.06.04 12:02:01.
