data_PCOD9330830
_publ_section_title
;
Structure prediction by ZEFSAII (Michael W. Deem and Ramdas Pophale) SiO2 
 PCOD9330830
Probable space group: I 2 2 2
;
_chemical_formula_sum "Si O2"
_cell_formula_units_Z 34
_cell_length_a 24.146096
_cell_length_b 11.062504
_cell_length_c 5.412729
_cell_angle_alpha 90.000000
_cell_angle_beta 90.000000
_cell_angle_gamma 90.000000
_cell_volume 1445.828055
_symmetry_space_group_name_H-M "I 2 2 2"
_symmetry_group_IT_number 23
_symmetry_cell_setting 'orthorhombic'
loop_
_space_group_symop_operation_xyz
x,y,z
-x,-y,z
x,-y,-z
-x,y,-z
1/2+x,1/2+y,1/2+z
1/2-x,1/2-y,1/2+z
1/2+x,1/2-y,1/2-z
1/2-x,1/2+y,1/2-z
loop_
_atom_site_type_symbol
_atom_site_label
_atom_site_fract_x
_atom_site_fract_y
_atom_site_fract_z
Si Si1 0.781194 0.918488 0.252899
Si Si2 0.000000 0.000000 0.000000
Si Si3 0.123857 0.710531 0.718185
Si Si4 0.841625 0.324899 0.219068
Si Si5 0.582010 0.375449 0.875378
O O1 0.828817 0.815349 0.249949
O O2 0.723246 0.846487 0.289718
O O3 0.784546 0.000000 0.500000
O O4 0.780516 0.000000 0.000000
O O5 0.963148 0.085889 0.175847
O O6 0.140584 0.628819 0.487060
O O7 0.071118 0.783344 0.605479
O O8 0.133964 0.811974 0.245306
O O9 0.873453 0.361939 0.970950
O O10 0.597014 0.500000 0.000000
#
# Coordination Sequence:
#
# PCOD9330830 Si02
#       5
#     8   2   8   8   8
#     4  12  23  35  58  88 127 176 222 254 304 369
#     4  12  22  44  64 102 122 166 204 282 336 408
#     4  10  21  36  56  83 124 170 209 260 298 376
#     4  10  22  38  56  87 126 169 210 263 308 379
#     4  10  23  36  63  88 126 157 205 259 329 387
#
# _framework density 23.515937000000001
#
# number of rings (size 3 to 8) (size 9 to 14) (size 15 to 20)
#    1.412    0.000    0.000    6.706    3.294    0.000 
#    0.000    0.000    0.000    0.000    0.000    0.824 
#    0.000    0.000    0.000    0.000    0.000    0.000 
#
# Total GULP energy -94641.560509 kJ/mol
# GULP energy per Si atom -5567.150618 kJ/mol
# Density = 2.346241 g / cm^3
# Si number density = 23.515937 Si / 1000 Ang^3
#
#
#
# Elastic Constant Matrix: (Units=GPa)
#
#
# Indices 1 2 3 4 5 6 
#
# 1 92.4285 61.6508 46.7763 0.0000 0.0000 0.0000
# 2 61.6508 120.3751 57.2067 0.0000 0.0000 0.0000
# 3 46.7763 57.2067 244.6175 0.0000 0.0000 0.0000
# 4 0.0000 0.0000 0.0000 -36.7689 0.0000 0.0000
# 5 0.0000 0.0000 0.0000 0.0000 37.6447 0.0000
# 6 0.0000 0.0000 0.0000 0.0000 0.0000 18.7558
#
#
#
# Elastic Compliance Matrix: (Units=1/GPa)
#
#
# Indices 1 2 3 4 5 6 
#
# 1 0.016821 -0.007972 -0.001352 0.000000 0.000000 0.000000
# 2 -0.007972 0.013125 -0.001545 0.000000 0.000000 0.000000
# 3 -0.001352 -0.001545 0.004708 0.000000 0.000000 0.000000
# 4 0.000000 0.000000 0.000000 -0.027197 0.000000 0.000000
# 5 0.000000 0.000000 0.000000 0.000000 0.026564 0.000000
# 6 0.000000 0.000000 0.000000 0.000000 0.000000 0.053317
#
#
# Mechanical properties :
#
#
# Convention : Reuss Voigt Hill
#
# Bulk Modulus (GPa) = 77.43050 87.63208 82.53129
# Shear Modulus (GPa) = 44.09878 23.37880 33.73879
#
# Velocity S-wave (km/s) = 4.33514 3.15646 3.79188
# Velocity P-wave (km/s) = 7.61946 7.11549 7.37179
#
# Compressibility (1/GPa) = 0.01291481
#
# Stress axis : x y z
#
# Youngs Moduli (GPa) = 59.44883 76.19229 212.41108
#
# Poissons Ratio (x) = 0.60744 0.28721
# Poissons Ratio (y) = 0.47396 0.32814
# Poissons Ratio (z) = 0.08038 0.11771
#
# Static dielectric constant tensor:
#      x y z
#    x 1.890680 0.000000 0.000000 
#    y 0.000000 1.818290 0.000000 
#    z 0.000000 0.000000 2.105960 
# 
# From -- ./inp_files/5257.got.cif
#   From: 2010.05.17/outbox.cif.g08.bks.cpg/sg23_3_cif.got.tgz:5257.got - 2010.06.04 12:02:01.
