data_PCOD9330651
_publ_section_title
;
Structure prediction by ZEFSAII (Michael W. Deem and Ramdas Pophale) SiO2 
 PCOD9330651
Probable space group: I 2 2 2
;
_chemical_formula_sum "Si O2"
_cell_formula_units_Z 58
_cell_length_a 8.349491
_cell_length_b 17.686518
_cell_length_c 17.917240
_cell_angle_alpha 90.000000
_cell_angle_beta 90.000000
_cell_angle_gamma 90.000000
_cell_volume 2645.900159
_symmetry_space_group_name_H-M "I 2 2 2"
_symmetry_group_IT_number 23
_symmetry_cell_setting 'orthorhombic'
loop_
_space_group_symop_operation_xyz
x,y,z
-x,-y,z
x,-y,-z
-x,y,-z
1/2+x,1/2+y,1/2+z
1/2-x,1/2-y,1/2+z
1/2+x,1/2-y,1/2-z
1/2-x,1/2+y,1/2-z
loop_
_atom_site_type_symbol
_atom_site_label
_atom_site_fract_x
_atom_site_fract_y
_atom_site_fract_z
Si Si1 0.500000 0.000000 0.500000
Si Si2 0.770737 0.850858 0.243947
Si Si3 0.094672 0.920390 0.892568
Si Si4 0.188893 0.637125 0.940311
Si Si5 0.335237 0.911940 0.018704
Si Si6 0.221552 0.843896 0.155389
Si Si7 0.875124 0.192989 0.305238
Si Si8 0.154920 0.319531 0.894945
O O1 0.611806 0.053385 0.448576
O O2 0.794039 0.915976 0.181457
O O3 0.675425 0.781065 0.204274
O O4 0.680343 0.870358 0.321153
O O5 0.946262 0.823167 0.274480
O O6 0.188546 0.890433 0.965125
O O7 0.957386 0.862847 0.870451
O O8 0.000000 0.000000 0.904676
O O9 0.331964 0.657073 0.884518
O O10 0.035328 0.685816 0.911350
O O11 0.227368 0.655249 0.026383
O O12 0.500000 0.871364 0.000000
O O13 0.320585 0.901096 0.106314
O O14 0.344108 0.000000 0.000000
O O15 0.237023 0.847948 0.243207
O O16 0.239004 0.758800 0.127294
#
# Coordination Sequence:
#
# PCOD9330651 Si02
#       8
#     2   8   8   8   8   8   8   8
#     4   8  20  40  60  86 116 156 224 234 320 356
#     4  10  22  40  61  92 123 155 202 256 298 367
#     4  11  22  38  61  84 119 168 201 235 304 369
#     4  10  20  40  62  88 117 165 195 260 301 367
#     4  11  24  38  54  85 124 155 200 248 288 355
#     4  10  21  38  57  89 116 160 198 243 298 370
#     4  10  21  38  62  87 124 151 205 247 308 349
#     4   9  21  38  62  90 119 151 207 250 309 353
#
# _framework density 21.920707
#
# number of rings (size 3 to 8) (size 9 to 14) (size 15 to 20)
#    0.000    2.069    1.379    2.897    5.793    3.862 
#    9.931    1.379    0.000    3.310    0.000    0.000 
#    0.000    0.000    0.000    0.000    0.000    0.000 
#
# Total GULP energy -161508.390941 kJ/mol
# GULP energy per Si atom -5569.254860 kJ/mol
# Density = 2.187081 g / cm^3
# Si number density = 21.920707 Si / 1000 Ang^3
#
#
#
# Elastic Constant Matrix: (Units=GPa)
#
#
# Indices 1 2 3 4 5 6 
#
# 1 33.4302 -4.8138 2.3620 0.0000 0.0000 0.0000
# 2 -4.8138 43.0496 10.9151 0.0000 0.0000 0.0000
# 3 2.3620 10.9151 110.0461 0.0000 0.0000 0.0000
# 4 0.0000 0.0000 0.0000 24.4608 0.0000 0.0000
# 5 0.0000 0.0000 0.0000 0.0000 33.6384 0.0000
# 6 0.0000 0.0000 0.0000 0.0000 0.0000 -245.8651
#
#
#
# Elastic Compliance Matrix: (Units=1/GPa)
#
#
# Indices 1 2 3 4 5 6 
#
# 1 0.030514 0.003670 -0.001019 0.000000 0.000000 0.000000
# 2 0.003670 0.024270 -0.002486 0.000000 0.000000 0.000000
# 3 -0.001019 -0.002486 0.009356 0.000000 0.000000 0.000000
# 4 0.000000 0.000000 0.000000 0.040882 0.000000 0.000000
# 5 0.000000 0.000000 0.000000 0.000000 0.029728 0.000000
# 6 0.000000 0.000000 0.000000 0.000000 0.000000 -0.004067
#
#
# Mechanical properties :
#
#
# Convention : Reuss Voigt Hill
#
# Bulk Modulus (GPa) = 15.51115 22.60582 19.05849
# Shear Modulus (GPa) = 32.92932 -25.68233 3.62350
#
# Velocity S-wave (km/s) = 3.88003 -3.42658 1.28709
# Velocity P-wave (km/s) = 5.21193 2.30658 3.30484
#
# Compressibility (1/GPa) = 0.06446973
#
# Stress axis : x y z
#
# Youngs Moduli (GPa) = 32.77227 41.20352 106.88846
#
# Poissons Ratio (x) = -0.15123 0.10892
# Poissons Ratio (y) = -0.12029 0.26573
# Poissons Ratio (z) = 0.03339 0.10243
#
# Static dielectric constant tensor:
#      x y z
#    x 1.908030 0.000000 0.000000 
#    y 0.000000 1.819880 0.000000 
#    z 0.000000 0.000000 1.871850 
# 
# From -- ./inp_files/23903.got.cif
#   From: 2010.05.17/outbox.cif.g08.bks.cpg/sg23_12_cif.got.tgz:23903.got - 2010.06.04 12:02:01.
