data_PCOD9330477
_publ_section_title
;
Structure prediction by ZEFSAII (Michael W. Deem and Ramdas Pophale) SiO2 
 PCOD9330477
Probable space group: I 2 2 2
;
_chemical_formula_sum "Si O2"
_cell_formula_units_Z 48
_cell_length_a 8.982043
_cell_length_b 16.096200
_cell_length_c 16.149123
_cell_angle_alpha 90.000000
_cell_angle_beta 90.000000
_cell_angle_gamma 90.000000
_cell_volume 2334.787889
_symmetry_space_group_name_H-M "I 2 2 2"
_symmetry_group_IT_number 23
_symmetry_cell_setting 'orthorhombic'
loop_
_space_group_symop_operation_xyz
x,y,z
-x,-y,z
x,-y,-z
-x,y,-z
1/2+x,1/2+y,1/2+z
1/2-x,1/2-y,1/2+z
1/2+x,1/2-y,1/2-z
1/2-x,1/2+y,1/2-z
loop_
_atom_site_type_symbol
_atom_site_label
_atom_site_fract_x
_atom_site_fract_y
_atom_site_fract_z
Si Si1 0.184495 0.250774 0.682336
Si Si2 0.580914 0.828486 0.914485
Si Si3 0.162717 0.413177 0.246469
Si Si4 0.170732 0.597055 0.195993
Si Si5 0.330501 0.404401 0.978444
Si Si6 0.168069 0.252256 0.022944
O O1 0.225058 0.159690 0.716974
O O2 0.194506 0.318726 0.753631
O O3 0.300938 0.282518 0.613364
O O4 0.027451 0.263177 0.633655
O O5 0.617890 0.894199 0.842278
O O6 0.500000 0.858181 0.000000
O O7 0.728337 0.786861 0.951891
O O8 0.214477 0.508348 0.237012
O O9 0.010426 0.406191 0.191947
O O10 0.267362 0.604004 0.113580
O O11 0.317719 0.500000 0.000000
O O12 0.500000 0.379345 0.000000
O O13 0.223004 0.346793 0.031429
O O14 0.000000 0.245789 0.000000
#
# Coordination Sequence:
#
# PCOD9330477 Si02
#       6
#     8   8   8   8   8   8
#     4  10  20  37  62  89 123 162 204 259 313 368
#     4   9  20  39  64  92 124 163 211 259 315 373
#     4  10  20  39  65  95 129 167 209 261 311 371
#     4  10  22  39  63  96 124 162 212 254 310 375
#     4  11  23  39  59  88 124 160 200 254 313 374
#     4  11  22  38  60  86 117 163 210 254 309 372
#
# _framework density 20.558613000000001
#
# number of rings (size 3 to 8) (size 9 to 14) (size 15 to 20)
#    0.000    1.833    0.000    4.500    0.000    5.667 
#    0.000   17.500    0.000    1.000    0.000    0.000 
#    0.000    0.000    0.000    0.000    0.000    0.000 
#
# Total GULP energy -133900.004682 kJ/mol
# GULP energy per Si atom -5579.166862 kJ/mol
# Density = 2.051182 g / cm^3
# Si number density = 20.558613 Si / 1000 Ang^3
#
#
#
# Elastic Constant Matrix: (Units=GPa)
#
#
# Indices 1 2 3 4 5 6 
#
# 1 84.5335 11.5212 34.7154 0.0000 0.0000 0.0000
# 2 11.5212 90.1135 30.2317 0.0000 0.0000 0.0000
# 3 34.7154 30.2317 119.0023 0.0000 0.0000 0.0000
# 4 0.0000 0.0000 0.0000 27.7682 0.0000 0.0000
# 5 0.0000 0.0000 0.0000 0.0000 22.1021 0.0000
# 6 0.0000 0.0000 0.0000 0.0000 0.0000 25.4548
#
#
#
# Elastic Compliance Matrix: (Units=1/GPa)
#
#
# Indices 1 2 3 4 5 6 
#
# 1 0.013456 -0.000441 -0.003813 0.000000 0.000000 0.000000
# 2 -0.000441 0.012145 -0.002957 0.000000 0.000000 0.000000
# 3 -0.003813 -0.002957 0.010267 0.000000 0.000000 0.000000
# 4 0.000000 0.000000 0.000000 0.036012 0.000000 0.000000
# 5 0.000000 0.000000 0.000000 0.000000 0.045245 0.000000
# 6 0.000000 0.000000 0.000000 0.000000 0.000000 0.039285
#
#
# Mechanical properties :
#
#
# Convention : Reuss Voigt Hill
#
# Bulk Modulus (GPa) = 46.62939 49.62067 48.12503
# Shear Modulus (GPa) = 28.09286 29.54374 28.81830
#
# Velocity S-wave (km/s) = 3.70060 3.79496 3.74807
# Velocity P-wave (km/s) = 6.40232 6.58717 6.49540
#
# Compressibility (1/GPa) = 0.02144570
#
# Stress axis : x y z
#
# Youngs Moduli (GPa) = 74.31773 82.33526 97.40164
#
# Poissons Ratio (x) = 0.03631 0.37142
# Poissons Ratio (y) = 0.03278 0.28800
# Poissons Ratio (z) = 0.28339 0.24345
#
# Static dielectric constant tensor:
#      x y z
#    x 1.764360 0.000000 0.000000 
#    y 0.000000 1.750490 0.000000 
#    z 0.000000 0.000000 1.811040 
# 
# From -- ./inp_files/20006.got.cif
#   From: 2010.05.17/outbox.cif.g08.bks.cpg/sg23_11_cif.got.tgz:20006.got - 2010.06.04 12:02:01.
