data_PCOD9330471
_publ_section_title
;
Structure prediction by ZEFSAII (Michael W. Deem and Ramdas Pophale) SiO2 
 PCOD9330471
Probable space group: I 2 2 2
;
_chemical_formula_sum "Si O2"
_cell_formula_units_Z 48
_cell_length_a 17.436177
_cell_length_b 13.723775
_cell_length_c 9.877918
_cell_angle_alpha 90.000000
_cell_angle_beta 90.000000
_cell_angle_gamma 90.000000
_cell_volume 2363.688678
_symmetry_space_group_name_H-M "I 2 2 2"
_symmetry_group_IT_number 23
_symmetry_cell_setting 'orthorhombic'
loop_
_space_group_symop_operation_xyz
x,y,z
-x,-y,z
x,-y,-z
-x,y,-z
1/2+x,1/2+y,1/2+z
1/2-x,1/2-y,1/2+z
1/2+x,1/2-y,1/2-z
1/2-x,1/2+y,1/2-z
loop_
_atom_site_type_symbol
_atom_site_label
_atom_site_fract_x
_atom_site_fract_y
_atom_site_fract_z
Si Si1 0.084176 0.286444 0.202475
Si Si2 0.848057 0.950534 0.643047
Si Si3 0.000000 0.166699 0.000000
Si Si4 0.087692 0.771792 0.502848
Si Si5 0.680377 0.978560 0.660726
Si Si6 0.000000 0.000000 0.786093
Si Si7 0.945636 0.593918 0.675780
O O1 0.110052 0.229563 0.338769
O O2 0.141791 0.373891 0.180090
O O3 0.000838 0.332924 0.240377
O O4 0.069041 0.228994 0.063508
O O5 0.865422 0.838047 0.602441
O O6 0.767355 0.970072 0.715670
O O7 0.837008 0.000000 0.500000
O O8 0.922062 0.003739 0.703173
O O9 0.017091 0.094204 0.877194
O O10 0.082868 0.659791 0.449993
O O11 0.000000 0.810278 0.500000
O O12 0.678109 0.000000 0.500000
O O13 0.626692 0.055050 0.739796
O O14 0.000000 0.500000 0.646987
#
# Coordination Sequence:
#
# PCOD9330471 Si02
#       7
#     8   8   4   8   8   4   8
#     4  10  20  37  61  92 120 156 207 257 323 385
#     4  11  22  41  61  86 122 168 216 258 315 385
#     4  11  22  38  61  88 118 158 207 264 316 383
#     4  10  20  37  64  92 114 164 216 265 311 381
#     4  10  22  38  57  90 127 165 200 258 330 384
#     4  11  23  40  60  86 117 165 214 256 312 379
#     4   9  19  37  64  90 122 155 205 259 317 377
#
# _framework density 20.307241999999999
#
# number of rings (size 3 to 8) (size 9 to 14) (size 15 to 20)
#    0.000    1.833    0.000    5.250    0.000   10.000 
#   12.000    1.667    0.000    0.000    0.000    0.000 
#    0.000    0.000    0.000    0.000    0.000    0.000 
#
# Total GULP energy -133790.476337 kJ/mol
# GULP energy per Si atom -5574.603181 kJ/mol
# Density = 2.026102 g / cm^3
# Si number density = 20.307242 Si / 1000 Ang^3
#
#
#
# Elastic Constant Matrix: (Units=GPa)
#
#
# Indices 1 2 3 4 5 6 
#
# 1 125.6860 25.3993 41.1012 0.0000 0.0000 0.0000
# 2 25.3993 85.9698 27.4148 0.0000 0.0000 0.0000
# 3 41.1012 27.4148 75.0960 0.0000 0.0000 0.0000
# 4 0.0000 0.0000 0.0000 -175.7714 0.0000 0.0000
# 5 0.0000 0.0000 0.0000 0.0000 13.0407 0.0000
# 6 0.0000 0.0000 0.0000 0.0000 0.0000 -3.4900
#
#
#
# Elastic Compliance Matrix: (Units=1/GPa)
#
#
# Indices 1 2 3 4 5 6 
#
# 1 0.009826 -0.001345 -0.004887 0.000000 0.000000 0.000000
# 2 -0.001345 0.013349 -0.004137 0.000000 0.000000 0.000000
# 3 -0.004887 -0.004137 0.017501 0.000000 0.000000 0.000000
# 4 0.000000 0.000000 0.000000 -0.005689 0.000000 0.000000
# 5 0.000000 0.000000 0.000000 0.000000 0.076683 0.000000
# 6 0.000000 0.000000 0.000000 0.000000 0.000000 -0.286536
#
#
# Mechanical properties :
#
#
# Convention : Reuss Voigt Hill
#
# Bulk Modulus (GPa) = 50.15463 52.73138 51.44300
# Shear Modulus (GPa) = -33.90240 -20.38838 -27.14539
#
# Velocity S-wave (km/s) = -4.09035 -3.17203 -3.66010
# Velocity P-wave (km/s) = 1.56319 3.55070 2.74327
#
# Compressibility (1/GPa) = 0.01993834
#
# Stress axis : x y z
#
# Youngs Moduli (GPa) = 101.76815 74.91457 57.13819
#
# Poissons Ratio (x) = 0.10073 0.27925
# Poissons Ratio (y) = 0.13684 0.23639
# Poissons Ratio (z) = 0.49736 0.30993
#
# Static dielectric constant tensor:
#      x y z
#    x 1.959340 0.000000 0.000000 
#    y 0.000000 1.783320 0.000000 
#    z 0.000000 0.000000 1.763500 
# 
# From -- ./inp_files/11088.got.cif
#   From: 2010.05.17/outbox.cif.g08.bks.cpg/sg23_6_cif.got.tgz:11088.got - 2010.06.04 12:02:01.
