data_PCOD9330867
_publ_section_title
;
Structure prediction by ZEFSAII (Michael W. Deem and Ramdas Pophale) SiO2 
 PCOD9330867
Probable space group: I 2 2 2
;
_chemical_formula_sum "Si O2"
_cell_formula_units_Z 60
_cell_length_a 11.840605
_cell_length_b 31.817120
_cell_length_c 8.352019
_cell_angle_alpha 90.000000
_cell_angle_beta 90.000000
_cell_angle_gamma 90.000000
_cell_volume 3146.489110
_symmetry_space_group_name_H-M "I 2 2 2"
_symmetry_group_IT_number 23
_symmetry_cell_setting 'orthorhombic'
loop_
_space_group_symop_operation_xyz
x,y,z
-x,-y,z
x,-y,-z
-x,y,-z
1/2+x,1/2+y,1/2+z
1/2-x,1/2-y,1/2+z
1/2+x,1/2-y,1/2-z
1/2-x,1/2+y,1/2-z
loop_
_atom_site_type_symbol
_atom_site_label
_atom_site_fract_x
_atom_site_fract_y
_atom_site_fract_z
Si Si1 0.868149 0.949536 0.682046
Si Si2 0.001536 0.774083 0.748105
Si Si3 0.630088 0.169101 0.947449
Si Si4 0.135230 0.949144 0.683613
Si Si5 0.500000 0.346322 0.500000
Si Si6 0.716205 0.594520 0.498018
Si Si7 0.904755 0.690475 0.903143
Si Si8 0.189621 0.761340 0.512868
O O1 0.834397 0.935807 0.500073
O O2 0.001493 0.938387 0.704131
O O3 0.859422 0.000143 0.686386
O O4 0.800639 0.931569 0.834106
O O5 0.971299 0.731509 0.839238
O O6 0.903834 0.774947 0.615135
O O7 0.127109 0.769692 0.680022
O O8 0.993530 0.815475 0.850276
O O9 0.677006 0.125532 0.013332
O O10 0.635851 0.167043 0.755246
O O11 0.701236 0.210806 0.997735
O O12 0.500000 0.177108 0.000000
O O13 0.205850 0.931350 0.834471
O O14 0.390397 0.374579 0.507694
O O15 0.799416 0.710060 0.997228
O O16 0.000000 0.665661 0.000000
#
# Coordination Sequence:
#
# PCOD9330867 Si02
#       8
#     8   8   8   8   4   8   8   8
#     4   9  18  37  65  92 129 166 186 232 289 379
#     4  10  21  37  56  76 110 153 202 254 294 363
#     4  11  24  42  56  78 118 158 203 258 305 361
#     4   9  18  37  63  96 128 160 198 221 292 383
#     4  12  22  34  53  96 118 148 192 252 317 348
#     4  12  22  36  58  92 133 154 190 251 313 358
#     4  11  22  36  62  80 103 150 214 257 305 366
#     4  10  21  42  58  76 105 157 210 256 308 355
#
# _framework density 19.068874000000001
#
# number of rings (size 3 to 8) (size 9 to 14) (size 15 to 20)
#    0.000    1.600    4.667    2.800    3.733    2.133 
#    9.600    0.000    0.000    1.600    0.000    1.867 
#    0.000    0.000    0.000    0.000    0.000    0.000 
#
# Total GULP energy -167366.383973 kJ/mol
# GULP energy per Si atom -5578.879466 kJ/mol
# Density = 1.902547 g / cm^3
# Si number density = 19.068874 Si / 1000 Ang^3
#
#
#
# Elastic Constant Matrix: (Units=GPa)
#
#
# Indices 1 2 3 4 5 6 
#
# 1 54.3929 8.3250 22.9257 0.0000 -0.0027 -0.0018
# 2 8.3250 53.6008 40.0557 0.0029 -0.0014 -0.0010
# 3 22.9257 40.0557 117.4216 0.0028 -0.0045 -0.0136
# 4 0.0000 0.0029 0.0028 24.3510 -0.0018 -0.0033
# 5 -0.0027 -0.0014 -0.0045 -0.0018 18.8266 -0.0038
# 6 -0.0018 -0.0010 -0.0136 -0.0033 -0.0038 -5.4794
#
#
#
# Elastic Compliance Matrix: (Units=1/GPa)
#
#
# Indices 1 2 3 4 5 6 
#
# 1 0.020036 -0.000253 -0.003826 0.000000 0.000002 0.000003
# 2 -0.000253 0.025043 -0.008493 -0.000002 0.000000 0.000017
# 3 -0.003826 -0.008493 0.012161 0.000000 0.000002 -0.000027
# 4 0.000000 -0.000002 0.000000 0.041066 0.000004 -0.000025
# 5 0.000002 0.000000 0.000002 0.000004 0.053116 -0.000037
# 6 0.000003 0.000017 -0.000027 -0.000025 -0.000037 -0.182500
#
#
# Mechanical properties :
#
#
# Convention : Reuss Voigt Hill
#
# Bulk Modulus (GPa) = 31.15720 40.89201 36.02461
# Shear Modulus (GPa) = 1049.56453 17.81356 533.68904
#
# Velocity S-wave (km/s) = 23.48621 3.05973 16.74760
# Velocity P-wave (km/s) = 27.41978 5.82868 19.82193
#
# Compressibility (1/GPa) = 0.03209531
#
# Stress axis : x y z
#
# Youngs Moduli (GPa) = 49.91048 39.93164 82.23317
#
# Poissons Ratio (x) = 0.01010 0.31459
# Poissons Ratio (y) = 0.01263 0.69844
# Poissons Ratio (z) = 0.19093 0.33915
#
# Static dielectric constant tensor:
#      x y z
#    x 1.700230 0.000000 0.000000 
#    y 0.000000 1.639820 0.000000 
#    z 0.000000 0.000000 1.789330 
# 
# From -- ./inp_files/8926.got.cif
#   From: 2010.05.17/outbox.cif.g08.bks.cpg/sg23_5_cif.got.tgz:8926.got - 2010.06.04 12:02:01.
