data_PCOD9330182
_publ_section_title
;
Structure prediction by ZEFSAII (Michael W. Deem and Ramdas Pophale) SiO2 
 PCOD9330182
Probable space group: I 2 2 2
;
_chemical_formula_sum "Si O2"
_cell_formula_units_Z 64
_cell_length_a 9.028855
_cell_length_b 19.759960
_cell_length_c 21.335984
_cell_angle_alpha 90.000000
_cell_angle_beta 90.000000
_cell_angle_gamma 90.000000
_cell_volume 3806.548929
_symmetry_space_group_name_H-M "I 2 2 2"
_symmetry_group_IT_number 23
_symmetry_cell_setting 'orthorhombic'
loop_
_space_group_symop_operation_xyz
x,y,z
-x,-y,z
x,-y,-z
-x,y,-z
1/2+x,1/2+y,1/2+z
1/2-x,1/2-y,1/2+z
1/2+x,1/2-y,1/2-z
1/2-x,1/2+y,1/2-z
loop_
_atom_site_type_symbol
_atom_site_label
_atom_site_fract_x
_atom_site_fract_y
_atom_site_fract_z
Si Si1 0.813962 0.181052 0.076796
Si Si2 0.096445 0.215070 0.265474
Si Si3 0.412405 0.789597 0.669640
Si Si4 0.593484 0.566731 0.738124
Si Si5 0.430824 0.427910 0.588271
Si Si6 0.567612 0.927792 0.275934
Si Si7 0.855011 0.372825 0.464992
Si Si8 0.965882 0.342091 0.656762
O O1 0.862864 0.252860 0.105888
O O2 0.697998 0.149048 0.127221
O O3 0.955288 0.132188 0.071617
O O4 0.720658 0.181219 0.012327
O O5 0.271231 0.215607 0.282248
O O6 0.038910 0.138299 0.266365
O O7 0.028423 0.266838 0.315247
O O8 0.047967 0.247310 0.199316
O O9 0.448834 0.869022 0.671786
O O10 0.500000 0.500000 0.753215
O O11 0.595234 0.575661 0.663017
O O12 0.760416 0.559764 0.761655
O O13 0.500000 0.500000 0.574650
O O14 0.277236 0.422525 0.551755
O O15 0.497063 0.895030 0.212468
O O16 0.500000 0.000000 0.291548
O O17 0.000000 0.401472 0.500000
O O18 0.916496 0.347077 0.398885
#
# Coordination Sequence:
#
# PCOD9330182 Si02
#       8
#     8   8   8   8   8   8   8   8
#     4  10  20  33  53  69 101 134 176 216 254 296
#     4   9  17  31  50  71  99 130 162 212 254 311
#     4   9  18  32  48  75  96 133 168 209 261 301
#     4  10  20  31  49  72 102 135 168 209 258 303
#     4  11  22  35  49  71 102 135 175 215 250 292
#     4  10  20  32  50  72 106 136 170 208 260 322
#     4  10  21  38  52  71  99 139 178 219 249 302
#     4   9  19  33  51  73  99 133 172 205 262 307
#
# _framework density 16.813129
#
# number of rings (size 3 to 8) (size 9 to 14) (size 15 to 20)
#    0.000    2.250    2.500    0.375    3.500    2.000 
#    0.000    5.000    0.000    0.000    0.000    0.000 
#    0.000   40.500    0.000    0.250    0.000    0.000 
#
# Total GULP energy -178308.791697 kJ/mol
# GULP energy per Si atom -5572.149741 kJ/mol
# Density = 1.677486 g / cm^3
# Si number density = 16.813129 Si / 1000 Ang^3
#
#
#
# Elastic Constant Matrix: (Units=GPa)
#
#
# Indices 1 2 3 4 5 6 
#
# 1 75.8477 56.2348 25.4671 0.0000 0.0000 0.0000
# 2 56.2348 131.9684 28.9067 0.0000 0.0000 0.0000
# 3 25.4671 28.9067 41.9987 0.0000 0.0000 0.0000
# 4 0.0000 0.0000 0.0000 9.3849 0.0000 0.0000
# 5 0.0000 0.0000 0.0000 0.0000 12.9317 0.0000
# 6 0.0000 0.0000 0.0000 0.0000 0.0000 21.9062
#
#
#
# Elastic Compliance Matrix: (Units=1/GPa)
#
#
# Indices 1 2 3 4 5 6 
#
# 1 0.021260 -0.007342 -0.007838 0.000000 0.000000 0.000000
# 2 -0.007342 0.011459 -0.003434 0.000000 0.000000 0.000000
# 3 -0.007838 -0.003434 0.030927 0.000000 0.000000 0.000000
# 4 0.000000 0.000000 0.000000 0.106555 0.000000 0.000000
# 5 0.000000 0.000000 0.000000 0.000000 0.077329 0.000000
# 6 0.000000 0.000000 0.000000 0.000000 0.000000 0.045649
#
#
# Mechanical properties :
#
#
# Convention : Reuss Voigt Hill
#
# Bulk Modulus (GPa) = 37.85611 52.33689 45.09650
# Shear Modulus (GPa) = 14.73999 18.12496 16.43247
#
# Velocity S-wave (km/s) = 2.96412 3.28689 3.12967
# Velocity P-wave (km/s) = 5.85485 6.75285 6.31982
#
# Compressibility (1/GPa) = 0.02641582
#
# Stress axis : x y z
#
# Youngs Moduli (GPa) = 47.03699 87.27019 32.33442
#
# Poissons Ratio (x) = 0.64078 0.25343
# Poissons Ratio (y) = 0.34537 0.11105
# Poissons Ratio (z) = 0.36867 0.29972
#
# Static dielectric constant tensor:
#      x y z
#    x 1.602150 0.000000 0.000000 
#    y 0.000000 1.563040 0.000000 
#    z 0.000000 0.000000 1.590810 
# 
# From -- ./inp_files/12190.got.cif
#   From: 2010.05.17/outbox.cif.g08.bks.cpg/sg23_7_cif.got.tgz:12190.got - 2010.06.04 12:02:01.
