data_PCOD9330390
_publ_section_title
;
Structure prediction by ZEFSAII (Michael W. Deem and Ramdas Pophale) SiO2 
 PCOD9330390
Probable space group: I 2 2 2
;
_chemical_formula_sum "Si O2"
_cell_formula_units_Z 64
_cell_length_a 11.457927
_cell_length_b 20.486060
_cell_length_c 15.019205
_cell_angle_alpha 90.000000
_cell_angle_beta 90.000000
_cell_angle_gamma 90.000000
_cell_volume 3525.424647
_symmetry_space_group_name_H-M "I 2 2 2"
_symmetry_group_IT_number 23
_symmetry_cell_setting 'orthorhombic'
loop_
_space_group_symop_operation_xyz
x,y,z
-x,-y,z
x,-y,-z
-x,y,-z
1/2+x,1/2+y,1/2+z
1/2-x,1/2-y,1/2+z
1/2+x,1/2-y,1/2-z
1/2-x,1/2+y,1/2-z
loop_
_atom_site_type_symbol
_atom_site_label
_atom_site_fract_x
_atom_site_fract_y
_atom_site_fract_z
Si Si1 0.759323 0.592004 0.638973
Si Si2 0.870352 0.160583 0.028031
Si Si3 0.141529 0.924112 0.500612
Si Si4 0.121048 0.023101 0.897775
Si Si5 0.626269 0.325517 0.842513
Si Si6 0.862480 0.859079 0.312839
Si Si7 0.029260 0.681695 0.395497
Si Si8 0.217812 0.288012 0.324796
O O1 0.692941 0.630747 0.558750
O O2 0.738169 0.514385 0.629591
O O3 0.692222 0.605601 0.729468
O O4 0.886443 0.623434 0.635442
O O5 0.878528 0.100183 0.097180
O O6 0.793343 0.210433 0.083996
O O7 0.000000 0.181744 0.000000
O O8 0.172719 0.875031 0.419100
O O9 0.174170 0.891403 0.594165
O O10 0.000000 0.925627 0.500000
O O11 0.181183 0.000000 0.500000
O O12 0.000000 0.000000 0.852497
O O13 0.111499 0.000000 0.000000
O O14 0.502844 0.355407 0.810309
O O15 0.591479 0.252638 0.879018
O O16 0.713215 0.316190 0.759855
O O17 0.814276 0.786294 0.306603
O O18 0.000000 0.676793 0.500000
O O19 0.906269 0.678436 0.344425
#
# Coordination Sequence:
#
# PCOD9330390 Si02
#       8
#     8   8   8   8   8   8   8   8
#     4  11  20  35  58  81 120 158 191 241 307 360
#     4  11  20  35  57  87 121 148 192 246 305 359
#     4   9  19  37  59  86 116 149 192 247 311 363
#     4   9  17  33  52  80 114 148 181 236 293 352
#     4  10  20  36  58  84 120 152 199 252 302 354
#     4  10  21  36  57  88 117 153 197 250 300 364
#     4  11  21  38  57  82 122 165 196 243 307 375
#     4  11  22  35  58  86 120 160 201 241 303 368
#
# _framework density 18.153841
#
# number of rings (size 3 to 8) (size 9 to 14) (size 15 to 20)
#    0.000    1.750    5.000    2.625    0.000    1.000 
#    2.250    0.625    0.000    0.000    0.000    0.875 
#    0.000    0.000    0.000    0.000    0.000    0.000 
#
# Total GULP energy -178289.614350 kJ/mol
# GULP energy per Si atom -5571.550448 kJ/mol
# Density = 1.811252 g / cm^3
# Si number density = 18.153841 Si / 1000 Ang^3
#
#
#
# Elastic Constant Matrix: (Units=GPa)
#
#
# Indices 1 2 3 4 5 6 
#
# 1 83.0595 38.5126 39.5386 0.0000 0.0000 0.0000
# 2 38.5126 41.7575 36.4848 0.0000 0.0001 0.0000
# 3 39.5386 36.4848 118.5603 -0.0001 0.0002 0.0001
# 4 0.0000 0.0000 -0.0001 17.5512 0.0002 0.0000
# 5 0.0000 0.0001 0.0002 0.0002 71.3438 -0.0001
# 6 0.0000 0.0000 0.0001 0.0000 -0.0001 14.5581
#
#
#
# Elastic Compliance Matrix: (Units=1/GPa)
#
#
# Indices 1 2 3 4 5 6 
#
# 1 0.021214 -0.018306 -0.001441 0.000000 0.000000 0.000000
# 2 -0.018306 0.048552 -0.008836 0.000000 0.000000 0.000000
# 3 -0.001441 -0.008836 0.011634 0.000000 0.000000 0.000000
# 4 0.000000 0.000000 0.000000 0.056976 0.000000 0.000000
# 5 0.000000 0.000000 0.000000 0.000000 0.014017 0.000000
# 6 0.000000 0.000000 0.000000 0.000000 0.000000 0.068690
#
#
# Mechanical properties :
#
#
# Convention : Reuss Voigt Hill
#
# Bulk Modulus (GPa) = 41.26587 52.49438 46.88013
# Shear Modulus (GPa) = 17.46259 29.28004 23.37131
#
# Velocity S-wave (km/s) = 3.10485 4.02043 3.59193
# Velocity P-wave (km/s) = 5.96942 7.10852 6.56373
#
# Compressibility (1/GPa) = 0.02423310
#
# Stress axis : x y z
#
# Youngs Moduli (GPa) = 47.13952 20.59668 85.95290
#
# Poissons Ratio (x) = 0.37704 0.12388
# Poissons Ratio (y) = 0.86293 0.75948
# Poissons Ratio (z) = 0.06794 0.18199
#
# Static dielectric constant tensor:
#      x y z
#    x 1.642360 0.000000 0.000000 
#    y 0.000000 1.701980 0.000000 
#    z 0.000000 0.000000 1.642210 
# 
# From -- ./inp_files/21069.got.cif
#   From: 2010.05.17/outbox.cif.g08.bks.cpg/sg23_11_cif.got.tgz:21069.got - 2010.06.04 12:02:01.
