data_PCOD9330850
_publ_section_title
;
Structure prediction by ZEFSAII (Michael W. Deem and Ramdas Pophale) SiO2 
 PCOD9330850
Probable space group: I 2 2 2
;
_chemical_formula_sum "Si O2"
_cell_formula_units_Z 36
_cell_length_a 13.712885
_cell_length_b 7.286959
_cell_length_c 15.344676
_cell_angle_alpha 90.000000
_cell_angle_beta 90.000000
_cell_angle_gamma 90.000000
_cell_volume 1533.320290
_symmetry_space_group_name_H-M "I 2 2 2"
_symmetry_group_IT_number 23
_symmetry_cell_setting 'orthorhombic'
loop_
_space_group_symop_operation_xyz
x,y,z
-x,-y,z
x,-y,-z
-x,y,-z
1/2+x,1/2+y,1/2+z
1/2-x,1/2-y,1/2+z
1/2+x,1/2-y,1/2-z
1/2-x,1/2+y,1/2-z
loop_
_atom_site_type_symbol
_atom_site_label
_atom_site_fract_x
_atom_site_fract_y
_atom_site_fract_z
Si Si1 0.520136 0.283168 0.600294
Si Si2 0.611321 0.225059 0.005406
Si Si3 0.262681 0.300768 0.353297
Si Si4 0.000000 0.500000 0.759712
Si Si5 0.810508 0.677031 0.667059
O O1 0.500000 0.500000 0.613842
O O2 0.500000 0.239356 0.500000
O O3 0.633801 0.233701 0.613490
O O4 0.467504 0.162996 0.674709
O O5 0.663766 0.293204 0.917660
O O6 0.500000 0.283886 0.000000
O O7 0.671543 0.272291 0.091768
O O8 0.610856 0.000000 0.000000
O O9 0.260861 0.519018 0.365977
O O10 0.262871 0.270879 0.250047
O O11 0.088436 0.420897 0.700794
#
# Coordination Sequence:
#
# PCOD9330850 Si02
#       5
#     8   8   8   4   8
#     4  10  23  37  60  90 123 166 204 261 319 379
#     4   9  18  36  62  86 117 160 209 255 310 391
#     4  10  22  37  59  91 118 158 211 258 320 378
#     4  10  21  40  59  92 122 162 210 256 316 376
#     4  10  21  36  61  87 120 158 205 261 311 376
#
# _framework density 23.478459000000001
#
# number of rings (size 3 to 8) (size 9 to 14) (size 15 to 20)
#    0.000    2.222    0.000    3.000   12.444    0.000 
#    0.000    3.333    0.000    1.333    0.000    0.000 
#    0.000    0.000    0.000    0.000    0.000    0.000 
#
# Total GULP energy -100566.542039 kJ/mol
# GULP energy per Si atom -5587.030113 kJ/mol
# Density = 2.342502 g / cm^3
# Si number density = 23.478459 Si / 1000 Ang^3
#
#
#
# Elastic Constant Matrix: (Units=GPa)
#
#
# Indices 1 2 3 4 5 6 
#
# 1 82.6336 -17.5124 24.4238 0.0000 0.0000 0.0000
# 2 -17.5124 56.5455 -10.3721 0.0000 0.0000 0.0000
# 3 24.4238 -10.3721 143.1179 0.0000 0.0000 0.0000
# 4 0.0000 0.0000 0.0000 28.1863 0.0000 0.0000
# 5 0.0000 0.0000 0.0000 0.0000 43.9359 0.0000
# 6 0.0000 0.0000 0.0000 0.0000 0.0000 8.4652
#
#
#
# Elastic Compliance Matrix: (Units=1/GPa)
#
#
# Indices 1 2 3 4 5 6 
#
# 1 0.013509 0.003812 -0.002029 0.000000 0.000000 0.000000
# 2 0.003812 0.018999 0.000726 0.000000 0.000000 0.000000
# 3 -0.002029 0.000726 0.007386 0.000000 0.000000 0.000000
# 4 0.000000 0.000000 0.000000 0.035478 0.000000 0.000000
# 5 0.000000 0.000000 0.000000 0.000000 0.022760 0.000000
# 6 0.000000 0.000000 0.000000 0.000000 0.000000 0.118130
#
#
# Mechanical properties :
#
#
# Convention : Reuss Voigt Hill
#
# Bulk Modulus (GPa) = 22.26592 30.59728 26.43160
# Shear Modulus (GPa) = 22.10281 35.16800 28.63541
#
# Velocity S-wave (km/s) = 3.07157 3.87445 3.49613
# Velocity P-wave (km/s) = 4.69931 5.75113 5.25162
#
# Compressibility (1/GPa) = 0.04491169
#
# Stress axis : x y z
#
# Youngs Moduli (GPa) = 74.02379 52.63548 135.38799
#
# Poissons Ratio (x) = -0.20063 0.27473
# Poissons Ratio (y) = -0.28215 -0.09835
# Poissons Ratio (z) = 0.15021 -0.03823
#
# Static dielectric constant tensor:
#      x y z
#    x 1.889920 0.000000 0.000000 
#    y 0.000000 1.937180 0.000000 
#    z 0.000000 0.000000 1.907150 
# 
# From -- ./inp_files/9489.got.cif
#   From: 2010.05.17/outbox.cif.g08.bks.cpg/sg23_5_cif.got.tgz:9489.got - 2010.06.04 12:02:01.
