data_PCOD9330149
_publ_section_title
;
Structure prediction by ZEFSAII (Michael W. Deem and Ramdas Pophale) SiO2 
 PCOD9330149
Probable space group: I 2 2 2
;
_chemical_formula_sum "Si O2"
_cell_formula_units_Z 40
_cell_length_a 7.496496
_cell_length_b 27.117511
_cell_length_c 8.844930
_cell_angle_alpha 90.000000
_cell_angle_beta 90.000000
_cell_angle_gamma 90.000000
_cell_volume 1798.053206
_symmetry_space_group_name_H-M "I 2 2 2"
_symmetry_group_IT_number 23
_symmetry_cell_setting 'orthorhombic'
loop_
_space_group_symop_operation_xyz
x,y,z
-x,-y,z
x,-y,-z
-x,y,-z
1/2+x,1/2+y,1/2+z
1/2-x,1/2-y,1/2+z
1/2+x,1/2-y,1/2-z
1/2-x,1/2+y,1/2-z
loop_
_atom_site_type_symbol
_atom_site_label
_atom_site_fract_x
_atom_site_fract_y
_atom_site_fract_z
Si Si1 0.298324 0.550189 0.933987
Si Si2 0.394516 0.914629 0.150878
Si Si3 0.271203 0.191741 0.875962
Si Si4 0.144048 0.358295 0.888884
Si Si5 0.322181 0.774730 0.813035
O O1 0.234567 0.552228 0.757690
O O2 0.213974 0.500000 0.000000
O O3 0.500000 0.548486 0.000000
O O4 0.235408 0.601749 0.004507
O O5 0.274407 0.866839 0.108241
O O6 0.547381 0.891864 0.260885
O O7 0.500000 0.932953 0.000000
O O8 0.476480 0.207035 0.842347
O O9 0.171492 0.218965 0.741788
O O10 0.218235 0.216482 0.033017
O O11 0.248747 0.313987 0.810402
O O12 0.000000 0.333746 0.000000
#
# Coordination Sequence:
#
# PCOD9330149 Si02
#       5
#     8   8   8   8   8
#     4  10  23  42  65  94 127 160 208 273 348 409
#     4  10  19  41  65  88 126 170 215 274 317 394
#     4  10  21  36  55  83 124 163 212 266 312 379
#     4   9  19  36  61  83 120 162 213 257 319 390
#     4  10  21  35  53  82 119 161 211 255 316 370
#
# _framework density 22.246282999999998
#
# number of rings (size 3 to 8) (size 9 to 14) (size 15 to 20)
#    0.000    2.200    4.000    0.000    8.400    5.200 
#    0.000    3.000    0.000    2.400    0.000    0.000 
#    0.000    0.000    0.000    0.000    0.000    0.000 
#
# Total GULP energy -111361.523872 kJ/mol
# GULP energy per Si atom -5568.076194 kJ/mol
# Density = 2.219565 g / cm^3
# Si number density = 22.246283 Si / 1000 Ang^3
#
#
#
# Elastic Constant Matrix: (Units=GPa)
#
#
# Indices 1 2 3 4 5 6 
#
# 1 51.5352 21.3067 29.4462 0.0000 0.0000 0.0000
# 2 21.3067 87.1853 35.4833 -0.0001 0.0000 0.0003
# 3 29.4462 35.4833 143.0977 0.0002 0.0001 -0.0010
# 4 0.0000 -0.0001 0.0002 66.8704 0.0000 0.0003
# 5 0.0000 0.0000 0.0001 0.0000 24.3183 0.0003
# 6 0.0000 0.0003 -0.0010 0.0003 0.0003 -119.6615
#
#
#
# Elastic Compliance Matrix: (Units=1/GPa)
#
#
# Indices 1 2 3 4 5 6 
#
# 1 0.023270 -0.004158 -0.003758 0.000000 0.000000 0.000000
# 2 -0.004158 0.013500 -0.002492 0.000000 0.000000 0.000000
# 3 -0.003758 -0.002492 0.008379 0.000000 0.000000 0.000000
# 4 0.000000 0.000000 0.000000 0.014954 0.000000 0.000000
# 5 0.000000 0.000000 0.000000 0.000000 0.041121 0.000000
# 6 0.000000 0.000000 0.000000 0.000000 0.000000 -0.008357
#
#
# Mechanical properties :
#
#
# Convention : Reuss Voigt Hill
#
# Bulk Modulus (GPa) = 41.09251 50.47674 45.78463
# Shear Modulus (GPa) = 41.05282 7.34424 24.19853
#
# Velocity S-wave (km/s) = 4.30045 1.81893 3.30169
# Velocity P-wave (km/s) = 6.57040 5.21062 5.92962
#
# Compressibility (1/GPa) = 0.02433533
#
# Stress axis : x y z
#
# Youngs Moduli (GPa) = 42.97356 74.07355 119.34055
#
# Poissons Ratio (x) = 0.30797 0.44842
# Poissons Ratio (y) = 0.17867 0.29740
# Poissons Ratio (z) = 0.16147 0.18459
#
# Static dielectric constant tensor:
#      x y z
#    x 1.404330 0.000000 0.000000 
#    y 0.000000 1.846590 0.000000 
#    z 0.000000 0.000000 1.964870 
# 
# From -- ./inp_files/7080.got.cif
#   From: 2010.05.17/outbox.cif.g08.bks.cpg/sg23_4_cif.got.tgz:7080.got - 2010.06.04 12:02:01.
