data_PCOD9330864
_publ_section_title
;
Structure prediction by ZEFSAII (Michael W. Deem and Ramdas Pophale) SiO2 
 PCOD9330864
Probable space group: I 2 2 2
;
_chemical_formula_sum "Si O2"
_cell_formula_units_Z 64
_cell_length_a 27.847753
_cell_length_b 8.573787
_cell_length_c 13.239519
_cell_angle_alpha 90.000000
_cell_angle_beta 90.000000
_cell_angle_gamma 90.000000
_cell_volume 3161.076859
_symmetry_space_group_name_H-M "I 2 2 2"
_symmetry_group_IT_number 23
_symmetry_cell_setting 'orthorhombic'
loop_
_space_group_symop_operation_xyz
x,y,z
-x,-y,z
x,-y,-z
-x,y,-z
1/2+x,1/2+y,1/2+z
1/2-x,1/2-y,1/2+z
1/2+x,1/2-y,1/2-z
1/2-x,1/2+y,1/2-z
loop_
_atom_site_type_symbol
_atom_site_label
_atom_site_fract_x
_atom_site_fract_y
_atom_site_fract_z
Si Si1 0.637483 0.759070 0.249864
Si Si2 0.389357 0.780030 0.323583
Si Si3 0.272915 0.071788 0.164898
Si Si4 0.843245 0.325323 0.027021
Si Si5 0.822036 0.921363 0.304125
Si Si6 0.451911 0.077388 0.253745
Si Si7 0.008636 0.829980 0.881055
Si Si8 0.233260 0.751673 0.542726
O O1 0.678914 0.886808 0.226198
O O2 0.632194 0.756385 0.372721
O O3 0.656058 0.592206 0.212582
O O4 0.586907 0.809860 0.200305
O O5 0.361014 0.706064 0.230800
O O6 0.436022 0.690426 0.358316
O O7 0.353972 0.751181 0.418795
O O8 0.414774 0.946231 0.296731
O O9 0.226064 0.090021 0.234608
O O10 0.271449 0.899571 0.116145
O O11 0.273010 0.190970 0.070758
O O12 0.786930 0.317738 0.049333
O O13 0.859556 0.500000 0.000000
O O14 0.803863 0.876754 0.414998
O O15 0.477578 0.188680 0.335931
O O16 0.500000 0.000000 0.203752
O O17 0.000000 0.000000 0.836100
O O18 0.000000 0.830885 0.000000
#
# Coordination Sequence:
#
# PCOD9330864 Si02
#       8
#     8   8   8   8   8   8   8   8
#     4  12  24  38  62  90 123 168 213 263 327 377
#     4  11  23  36  61  86 122 167 208 258 314 381
#     4  11  23  42  59  87 127 170 217 263 310 383
#     4  12  23  34  59  87 119 167 218 250 307 380
#     4  12  23  39  61  92 127 167 217 267 317 386
#     4  10  22  40  59  85 119 162 213 261 316 387
#     4  10  21  37  54  83 122 156 204 263 317 376
#     4  11  25  40  58  86 125 171 211 265 305 376
#
# _framework density 20.246265999999999
#
# number of rings (size 3 to 8) (size 9 to 14) (size 15 to 20)
#    0.000    0.875    5.000    2.250    1.750    3.250 
#    0.000    0.000    0.000    0.000    0.000   14.875 
#    0.000   17.000    0.000    0.000    0.000    0.000 
#
# Total GULP energy -178465.936322 kJ/mol
# GULP energy per Si atom -5577.060510 kJ/mol
# Density = 2.020018 g / cm^3
# Si number density = 20.246266 Si / 1000 Ang^3
#
#
#
# Elastic Constant Matrix: (Units=GPa)
#
#
# Indices 1 2 3 4 5 6 
#
# 1 136.5550 28.5107 20.0095 0.0000 0.0000 0.0000
# 2 28.5107 80.3131 19.9459 0.0000 0.0000 0.0000
# 3 20.0095 19.9459 44.9888 0.0000 0.0000 0.0000
# 4 0.0000 0.0000 0.0000 27.3849 0.0000 0.0000
# 5 0.0000 0.0000 0.0000 0.0000 25.4370 0.0000
# 6 0.0000 0.0000 0.0000 0.0000 0.0000 46.1199
#
#
#
# Elastic Compliance Matrix: (Units=1/GPa)
#
#
# Indices 1 2 3 4 5 6 
#
# 1 0.008179 -0.002248 -0.002641 0.000000 0.000000 0.000000
# 2 -0.002248 0.014610 -0.005478 0.000000 0.000000 0.000000
# 3 -0.002641 -0.005478 0.025831 0.000000 0.000000 0.000000
# 4 0.000000 0.000000 0.000000 0.036517 0.000000 0.000000
# 5 0.000000 0.000000 0.000000 0.000000 0.039313 0.000000
# 6 0.000000 0.000000 0.000000 0.000000 0.000000 0.021683
#
#
# Mechanical properties :
#
#
# Convention : Reuss Voigt Hill
#
# Bulk Modulus (GPa) = 35.85921 44.30990 40.08455
# Shear Modulus (GPa) = 28.38319 32.68107 30.53213
#
# Velocity S-wave (km/s) = 3.74825 4.02204 3.88756
# Velocity P-wave (km/s) = 6.04008 6.59561 6.32395
#
# Compressibility (1/GPa) = 0.02788684
#
# Stress axis : x y z
#
# Youngs Moduli (GPa) = 122.25868 68.44852 38.71309
#
# Poissons Ratio (x) = 0.15385 0.10226
# Poissons Ratio (y) = 0.27479 0.21205
# Poissons Ratio (z) = 0.32294 0.37493
#
# Static dielectric constant tensor:
#      x y z
#    x 1.700720 0.000000 0.000000 
#    y 0.000000 1.815770 0.000000 
#    z 0.000000 0.000000 1.744790 
# 
# From -- ./inp_files/22610.got.cif
#   From: 2010.05.17/outbox.cif.g08.bks.cpg/sg23_12_cif.got.tgz:22610.got - 2010.06.04 12:02:01.
