data_PCOD9330624
_publ_section_title
;
Structure prediction by ZEFSAII (Michael W. Deem and Ramdas Pophale) SiO2 
 PCOD9330624
Probable space group: I 2 2 2
;
_chemical_formula_sum "Si O2"
_cell_formula_units_Z 58
_cell_length_a 16.251499
_cell_length_b 9.111896
_cell_length_c 18.899723
_cell_angle_alpha 90.000000
_cell_angle_beta 90.000000
_cell_angle_gamma 90.000000
_cell_volume 2798.708190
_symmetry_space_group_name_H-M "I 2 2 2"
_symmetry_group_IT_number 23
_symmetry_cell_setting 'orthorhombic'
loop_
_space_group_symop_operation_xyz
x,y,z
-x,-y,z
x,-y,-z
-x,y,-z
1/2+x,1/2+y,1/2+z
1/2-x,1/2-y,1/2+z
1/2+x,1/2-y,1/2-z
1/2-x,1/2+y,1/2-z
loop_
_atom_site_type_symbol
_atom_site_label
_atom_site_fract_x
_atom_site_fract_y
_atom_site_fract_z
Si Si1 0.109331 0.422257 0.617512
Si Si2 0.000000 0.500000 0.500000
Si Si3 0.717943 0.190601 0.090072
Si Si4 0.424556 0.097984 0.274797
Si Si5 0.631639 0.456696 0.425518
Si Si6 0.084467 0.057318 0.776091
Si Si7 0.254879 0.288408 0.065615
Si Si8 0.757717 0.967592 0.320150
O O1 0.140561 0.587908 0.606258
O O2 0.065253 0.396611 0.690462
O O3 0.186411 0.315467 0.612359
O O4 0.052600 0.397160 0.550590
O O5 0.792733 0.074570 0.080496
O O6 0.729106 0.300645 0.154848
O O7 0.714389 0.276402 0.015267
O O8 0.421894 0.269697 0.295180
O O9 0.500000 0.000000 0.304508
O O10 0.334146 0.026963 0.287333
O O11 0.590610 0.500000 0.500000
O O12 0.588794 0.471353 0.350452
O O13 0.667265 0.292999 0.432842
O O14 0.167550 0.022172 0.730553
O O15 0.000000 0.000000 0.739576
O O16 0.255123 0.439327 0.107260
#
# Coordination Sequence:
#
# PCOD9330624 Si02
#       8
#     8   2   8   8   8   8   8   8
#     4  11  21  38  65  94 130 180 229 269 328 411
#     4  12  20  36  64  94 132 176 228 282 320 404
#     4  10  20  39  66  97 131 171 227 274 329 400
#     4  12  28  44  68 101 137 179 226 282 347 405
#     4   9  20  41  69  93 122 169 227 272 328 399
#     4  12  28  44  67 101 137 176 228 277 339 409
#     4  10  20  39  66  97 127 176 224 274 329 401
#     4  12  25  42  69  97 139 178 220 280 350 399
#
# _framework density 20.723846999999999
#
# number of rings (size 3 to 8) (size 9 to 14) (size 15 to 20)
#    0.000    1.103    4.828    2.897    3.862    0.276 
#    0.000    0.000    0.000    3.310    0.000    0.000 
#    0.000    0.000    0.000    0.000    0.000    0.000 
#
# Total GULP energy -161761.503999 kJ/mol
# GULP energy per Si atom -5577.982897 kJ/mol
# Density = 2.067668 g / cm^3
# Si number density = 20.723847 Si / 1000 Ang^3
#
#
#
# Elastic Constant Matrix: (Units=GPa)
#
#
# Indices 1 2 3 4 5 6 
#
# 1 94.7995 26.9760 -5.6900 0.0000 0.0000 0.0000
# 2 26.9760 78.1451 4.7110 0.0000 0.0000 0.0000
# 3 -5.6900 4.7110 51.7189 0.0000 0.0000 0.0000
# 4 0.0000 0.0000 0.0000 28.6335 0.0000 0.0000
# 5 0.0000 0.0000 0.0000 0.0000 18.8297 0.0000
# 6 0.0000 0.0000 0.0000 0.0000 0.0000 11.6669
#
#
#
# Elastic Compliance Matrix: (Units=1/GPa)
#
#
# Indices 1 2 3 4 5 6 
#
# 1 0.011842 -0.004189 0.001684 0.000000 0.000000 0.000000
# 2 -0.004189 0.014349 -0.001768 0.000000 0.000000 0.000000
# 3 0.001684 -0.001768 0.019682 0.000000 0.000000 0.000000
# 4 0.000000 0.000000 0.000000 0.034924 0.000000 0.000000
# 5 0.000000 0.000000 0.000000 0.000000 0.053108 0.000000
# 6 0.000000 0.000000 0.000000 0.000000 0.000000 0.085713
#
#
# Mechanical properties :
#
#
# Convention : Reuss Voigt Hill
#
# Bulk Modulus (GPa) = 26.79024 30.73973 28.76498
# Shear Modulus (GPa) = 20.78090 25.07045 22.92568
#
# Velocity S-wave (km/s) = 3.17006 3.48190 3.32964
# Velocity P-wave (km/s) = 5.13365 5.57047 5.35651
#
# Compressibility (1/GPa) = 0.03732703
#
# Stress axis : x y z
#
# Youngs Moduli (GPa) = 84.44662 69.68894 50.80875
#
# Poissons Ratio (x) = 0.29195 -0.08558
# Poissons Ratio (y) = 0.35378 0.08983
# Poissons Ratio (z) = -0.14224 0.12321
#
# Static dielectric constant tensor:
#      x y z
#    x 1.827030 0.000000 0.000000 
#    y 0.000000 1.755220 0.000000 
#    z 0.000000 0.000000 1.744150 
# 
# From -- ./inp_files/25079.got.cif
#   From: 2010.05.17/outbox.cif.g08.bks.cpg/sg23_13_cif.got.tgz:25079.got - 2010.06.04 12:02:01.
