data_PCOD9330180
_publ_section_title
;
Structure prediction by ZEFSAII (Michael W. Deem and Ramdas Pophale) SiO2 
 PCOD9330180
Probable space group: I 2 2 2
;
_chemical_formula_sum "Si O2"
_cell_formula_units_Z 64
_cell_length_a 13.547205
_cell_length_b 31.363618
_cell_length_c 9.165554
_cell_angle_alpha 90.000000
_cell_angle_beta 90.000000
_cell_angle_gamma 90.000000
_cell_volume 3894.346397
_symmetry_space_group_name_H-M "I 2 2 2"
_symmetry_group_IT_number 23
_symmetry_cell_setting 'orthorhombic'
loop_
_space_group_symop_operation_xyz
x,y,z
-x,-y,z
x,-y,-z
-x,y,-z
1/2+x,1/2+y,1/2+z
1/2-x,1/2-y,1/2+z
1/2+x,1/2-y,1/2-z
1/2-x,1/2+y,1/2-z
loop_
_atom_site_type_symbol
_atom_site_label
_atom_site_fract_x
_atom_site_fract_y
_atom_site_fract_z
Si Si1 0.810670 0.312439 0.706640
Si Si2 0.391028 0.042012 0.926085
Si Si3 0.109154 0.458134 0.072967
Si Si4 0.609428 0.279684 0.176795
Si Si5 0.812186 0.316622 0.219285
Si Si6 0.385849 0.275677 0.175648
Si Si7 0.616805 0.133536 0.967641
Si Si8 0.385429 0.136108 0.542614
O O1 0.865220 0.267829 0.730484
O O2 0.698830 0.305157 0.755619
O O3 0.822914 0.328033 0.542179
O O4 0.868190 0.349057 0.793065
O O5 0.397029 0.038436 0.749840
O O6 0.500000 0.043697 0.000000
O O7 0.348082 0.087577 0.975443
O O8 0.343711 0.000000 0.000000
O O9 0.153720 0.412218 0.031368
O O10 0.157014 0.500000 0.000000
O O11 0.000000 0.456631 0.000000
O O12 0.695189 0.309941 0.238068
O O13 0.496828 0.289443 0.215125
O O14 0.619692 0.277367 0.000390
O O15 0.864594 0.272514 0.267326
O O16 0.861021 0.357107 0.299597
O O17 0.830859 0.328032 0.051335
O O18 0.500000 0.138403 0.000000
O O19 0.500000 0.136851 0.500000
#
# Coordination Sequence:
#
# PCOD9330180 Si02
#       8
#     8   8   8   8   8   8   8   8
#     4  11  20  35  49  73  98 132 172 207 246 296
#     4  10  20  31  47  69  98 138 170 197 249 307
#     4  10  20  31  46  69 103 133 165 210 246 293
#     4  10  20  35  52  72  99 133 168 211 262 291
#     4  11  22  33  51  75  96 136 172 212 243 303
#     4  10  20  35  53  70 101 133 165 215 258 296
#     4  11  21  33  52  71 103 137 169 205 247 296
#     4  11  21  31  48  73 102 131 172 206 244 291
#
# _framework density 16.434080000000002
#
# number of rings (size 3 to 8) (size 9 to 14) (size 15 to 20)
#    0.000    1.500    3.750    3.750    7.000    0.000 
#    0.000    1.875    0.000    0.000    0.000    0.000 
#    0.000    6.000    0.000    0.000    0.000    0.000 
#
# Total GULP energy -178275.842980 kJ/mol
# GULP energy per Si atom -5571.120093 kJ/mol
# Density = 1.639668 g / cm^3
# Si number density = 16.434080 Si / 1000 Ang^3
#
#
#
# Elastic Constant Matrix: (Units=GPa)
#
#
# Indices 1 2 3 4 5 6 
#
# 1 89.1130 25.5414 10.6783 0.0002 0.0000 0.0000
# 2 25.5414 76.8956 9.2786 0.0006 -0.0001 -0.0001
# 3 10.6783 9.2786 48.5958 0.0015 -0.0014 -0.0001
# 4 0.0002 0.0006 0.0015 26.6514 -0.0002 -0.0001
# 5 0.0000 -0.0001 -0.0014 -0.0002 23.6010 0.0001
# 6 0.0000 -0.0001 -0.0001 -0.0001 0.0001 11.0793
#
#
#
# Elastic Compliance Matrix: (Units=1/GPa)
#
#
# Indices 1 2 3 4 5 6 
#
# 1 0.012592 -0.003939 -0.002015 0.000000 0.000000 0.000000
# 2 -0.003939 0.014544 -0.001911 0.000000 0.000000 0.000000
# 3 -0.002015 -0.001911 0.021386 -0.000001 0.000001 0.000000
# 4 0.000000 0.000000 -0.000001 0.037522 0.000000 0.000000
# 5 0.000000 0.000000 0.000001 0.000000 0.042371 0.000000
# 6 0.000000 0.000000 0.000000 0.000000 0.000000 0.090259
#
#
# Mechanical properties :
#
#
# Convention : Reuss Voigt Hill
#
# Bulk Modulus (GPa) = 30.49662 33.95566 32.22614
# Shear Modulus (GPa) = 20.38036 23.54007 21.96021
#
# Velocity S-wave (km/s) = 3.52537 3.78880 3.65946
# Velocity P-wave (km/s) = 5.93027 6.31242 6.12433
#
# Compressibility (1/GPa) = 0.03279052
#
# Stress axis : x y z
#
# Youngs Moduli (GPa) = 79.41376 68.75785 46.76057
#
# Poissons Ratio (x) = 0.27087 0.09421
# Poissons Ratio (y) = 0.31285 0.08937
# Poissons Ratio (z) = 0.16000 0.13141
#
# Static dielectric constant tensor:
#      x y z
#    x 1.534190 0.000000 0.000000 
#    y 0.000000 1.583820 0.000000 
#    z 0.000000 0.000000 1.563880 
# 
# From -- ./inp_files/10428.got.cif
#   From: 2010.05.17/outbox.cif.g08.bks.cpg/sg23_6_cif.got.tgz:10428.got - 2010.06.04 12:02:01.
