data_PCOD9330807
_publ_section_title
;
Structure prediction by ZEFSAII (Michael W. Deem and Ramdas Pophale) SiO2 
 PCOD9330807
Probable space group: I 2 2 2
;
_chemical_formula_sum "Si O2"
_cell_formula_units_Z 64
_cell_length_a 9.437417
_cell_length_b 21.160000
_cell_length_c 18.358032
_cell_angle_alpha 90.000000
_cell_angle_beta 90.000000
_cell_angle_gamma 90.000000
_cell_volume 3666.020853
_symmetry_space_group_name_H-M "I 2 2 2"
_symmetry_group_IT_number 23
_symmetry_cell_setting 'orthorhombic'
loop_
_space_group_symop_operation_xyz
x,y,z
-x,-y,z
x,-y,-z
-x,y,-z
1/2+x,1/2+y,1/2+z
1/2-x,1/2-y,1/2+z
1/2+x,1/2-y,1/2-z
1/2-x,1/2+y,1/2-z
loop_
_atom_site_type_symbol
_atom_site_label
_atom_site_fract_x
_atom_site_fract_y
_atom_site_fract_z
Si Si1 0.144765 0.634414 0.331035
Si Si2 0.569155 0.931587 0.925317
Si Si3 0.192350 0.727108 0.206993
Si Si4 0.387271 0.750411 0.938077
Si Si5 0.356044 0.755205 0.539509
Si Si6 0.113751 0.894095 0.060185
Si Si7 0.995280 0.184351 0.297160
Si Si8 0.559905 0.428740 0.299034
O O1 0.132897 0.668827 0.253859
O O2 0.173254 0.690545 0.390340
O O3 0.275619 0.584676 0.323874
O O4 0.995430 0.607182 0.358327
O O5 0.737696 0.930935 0.934298
O O6 0.500000 0.000000 0.916954
O O7 0.500000 0.906504 0.000000
O O8 0.157362 0.722828 0.122219
O O9 0.125001 0.788685 0.243683
O O10 0.361102 0.723961 0.216940
O O11 0.450825 0.701846 0.879091
O O12 0.500000 0.769874 0.000000
O O13 0.265191 0.720508 0.986541
O O14 0.500000 0.771829 0.500000
O O15 0.347078 0.678481 0.542764
O O16 0.032445 0.898649 0.136111
O O17 0.000000 0.916769 0.000000
O O18 0.031683 0.113151 0.273212
O O19 0.500000 0.500000 0.291524
#
# Coordination Sequence:
#
# PCOD9330807 Si02
#       8
#     8   8   8   8   8   8   8   8
#     4  10  21  36  55  82 113 148 187 230 288 337
#     4  11  22  36  52  75 110 151 196 227 261 333
#     4  10  21  35  56  81 114 146 178 240 284 350
#     4  11  20  35  59  82 114 149 179 237 298 348
#     4  11  21  34  54  85 115 142 181 225 295 354
#     4  11  22  35  55  81 113 149 190 232 279 336
#     4  10  22  37  54  84 114 147 197 231 294 344
#     4  11  22  38  56  78 116 159 195 238 277 335
#
# _framework density 17.457619999999999
#
# number of rings (size 3 to 8) (size 9 to 14) (size 15 to 20)
#    0.000    1.375    2.500    4.875    5.250    1.250 
#    0.000    0.000    0.000    0.375    0.000    0.000 
#    0.000    0.000    0.000    0.000    0.000    0.000 
#
# Total GULP energy -178446.524248 kJ/mol
# GULP energy per Si atom -5576.453883 kJ/mol
# Density = 1.741789 g / cm^3
# Si number density = 17.457620 Si / 1000 Ang^3
#
#
#
# Elastic Constant Matrix: (Units=GPa)
#
#
# Indices 1 2 3 4 5 6 
#
# 1 103.3769 25.7080 38.6488 0.0000 0.0000 0.0000
# 2 25.7080 48.5954 34.7377 0.0000 0.0000 0.0000
# 3 38.6488 34.7377 116.0687 0.0000 0.0000 0.0000
# 4 0.0000 0.0000 0.0000 15.3695 0.0000 0.0000
# 5 0.0000 0.0000 0.0000 0.0000 33.5793 0.0000
# 6 0.0000 0.0000 0.0000 0.0000 0.0000 20.9012
#
#
#
# Elastic Compliance Matrix: (Units=1/GPa)
#
#
# Indices 1 2 3 4 5 6 
#
# 1 0.011727 -0.004341 -0.002606 0.000000 0.000000 0.000000
# 2 -0.004341 0.027786 -0.006870 0.000000 0.000000 0.000000
# 3 -0.002606 -0.006870 0.011539 0.000000 0.000000 0.000000
# 4 0.000000 0.000000 0.000000 0.065064 0.000000 0.000000
# 5 0.000000 0.000000 0.000000 0.000000 0.029780 0.000000
# 6 0.000000 0.000000 0.000000 0.000000 0.000000 0.047844
#
#
# Mechanical properties :
#
#
# Convention : Reuss Voigt Hill
#
# Bulk Modulus (GPa) = 42.70244 51.80335 47.25289
# Shear Modulus (GPa) = 21.81677 25.23308 23.52493
#
# Velocity S-wave (km/s) = 3.53894 3.80595 3.67487
# Velocity P-wave (km/s) = 6.41970 7.00371 6.71805
#
# Compressibility (1/GPa) = 0.02341787
#
# Stress axis : x y z
#
# Youngs Moduli (GPa) = 85.27269 35.98945 86.65950
#
# Poissons Ratio (x) = 0.15624 0.22580
# Poissons Ratio (y) = 0.37019 0.59538
# Poissons Ratio (z) = 0.22219 0.24726
#
# Static dielectric constant tensor:
#      x y z
#    x 1.597140 0.000000 0.000000 
#    y 0.000000 1.625870 0.000000 
#    z 0.000000 0.000000 1.587870 
# 
# From -- ./inp_files/11397.got.cif
#   From: 2010.05.17/outbox.cif.g08.bks.cpg/sg23_6_cif.got.tgz:11397.got - 2010.06.04 12:02:01.
