data_PCOD9330428
_publ_section_title
;
Structure prediction by ZEFSAII (Michael W. Deem and Ramdas Pophale) SiO2 
 PCOD9330428
Probable space group: I 2 2 2
;
_chemical_formula_sum "Si O2"
_cell_formula_units_Z 64
_cell_length_a 22.041428
_cell_length_b 14.884586
_cell_length_c 9.057203
_cell_angle_alpha 90.000000
_cell_angle_beta 90.000000
_cell_angle_gamma 90.000000
_cell_volume 2971.464795
_symmetry_space_group_name_H-M "I 2 2 2"
_symmetry_group_IT_number 23
_symmetry_cell_setting 'orthorhombic'
loop_
_space_group_symop_operation_xyz
x,y,z
-x,-y,z
x,-y,-z
-x,y,-z
1/2+x,1/2+y,1/2+z
1/2-x,1/2-y,1/2+z
1/2+x,1/2-y,1/2-z
1/2-x,1/2+y,1/2-z
loop_
_atom_site_type_symbol
_atom_site_label
_atom_site_fract_x
_atom_site_fract_y
_atom_site_fract_z
Si Si1 0.638742 0.965287 0.350518
Si Si2 0.241947 0.371360 0.727766
Si Si3 0.625543 0.616568 0.366165
Si Si4 0.252418 0.795913 0.095679
Si Si5 0.377363 0.573898 0.284141
Si Si6 0.889619 0.268519 0.709388
Si Si7 0.570709 0.791910 0.457887
Si Si8 0.562067 0.055864 0.134127
O O1 0.688258 0.941143 0.230424
O O2 0.595104 0.881544 0.382243
O O3 0.668485 0.000000 0.500000
O O4 0.597151 0.041760 0.284942
O O5 0.230333 0.303903 0.863261
O O6 0.242915 0.314727 0.577716
O O7 0.305631 0.419481 0.744616
O O8 0.697634 0.639544 0.347922
O O9 0.605210 0.530863 0.269402
O O10 0.615642 0.592445 0.539853
O O11 0.587245 0.707962 0.351990
O O12 0.320786 0.796343 0.161950
O O13 0.401763 0.660668 0.193672
O O14 0.895075 0.278841 0.886222
O O15 0.934799 0.336378 0.621930
O O16 0.500000 0.795602 0.500000
O O17 0.500000 0.000000 0.150476
O O18 0.591862 0.000000 0.000000
#
# Coordination Sequence:
#
# PCOD9330428 Si02
#       8
#     8   8   8   8   8   8   8   8
#     4  12  24  36  57  89 126 163 218 254 324 401
#     4  10  21  37  56  95 122 171 205 262 323 399
#     4   9  17  35  56  88 117 160 209 259 316 389
#     4  10  20  36  64  84 132 161 214 265 334 393
#     4   8  18  33  58  82 122 155 197 258 320 372
#     4  10  20  38  58  86 122 165 204 265 335 381
#     4  11  22  38  60  89 127 170 215 276 332 394
#     4  11  24  40  59  86 120 163 216 263 320 398
#
# _framework density 21.538198999999999
#
# number of rings (size 3 to 8) (size 9 to 14) (size 15 to 20)
#    0.000    1.875    2.500    2.250    1.750    0.000 
#    0.000    5.000    0.000    0.000    0.000    0.000 
#    0.000    0.000    0.750    0.000    0.000    0.000 
#
# Total GULP energy -178248.877197 kJ/mol
# GULP energy per Si atom -5570.277412 kJ/mol
# Density = 2.148918 g / cm^3
# Si number density = 21.538199 Si / 1000 Ang^3
#
#
#
# Elastic Constant Matrix: (Units=GPa)
#
#
# Indices 1 2 3 4 5 6 
#
# 1 52.2468 22.0252 4.9526 0.0000 0.0000 0.0000
# 2 22.0252 163.6073 15.4435 0.0000 0.0000 0.0000
# 3 4.9526 15.4435 29.1550 0.0000 0.0000 0.0000
# 4 0.0000 0.0000 0.0000 21.3648 0.0000 0.0000
# 5 0.0000 0.0000 0.0000 0.0000 19.6598 0.0000
# 6 0.0000 0.0000 0.0000 0.0000 0.0000 -2.3082
#
#
#
# Elastic Compliance Matrix: (Units=1/GPa)
#
#
# Indices 1 2 3 4 5 6 
#
# 1 0.020415 -0.002548 -0.002118 0.000000 0.000000 0.000000
# 2 -0.002548 0.006752 -0.003144 0.000000 0.000000 0.000000
# 3 -0.002118 -0.003144 0.036324 0.000000 0.000000 0.000000
# 4 0.000000 0.000000 0.000000 0.046806 0.000000 0.000000
# 5 0.000000 0.000000 0.000000 0.000000 0.050865 0.000000
# 6 0.000000 0.000000 0.000000 0.000000 0.000000 -0.433243
#
#
# Mechanical properties :
#
#
# Convention : Reuss Voigt Hill
#
# Bulk Modulus (GPa) = 20.88936 36.65017 28.76977
# Shear Modulus (GPa) = -20.78977 21.24915 0.22969
#
# Velocity S-wave (km/s) = -3.11022 3.14439 0.32692
# Velocity P-wave (km/s) = 1.78274 5.49875 3.67819
#
# Compressibility (1/GPa) = 0.04787125
#
# Stress axis : x y z
#
# Youngs Moduli (GPa) = 48.98357 148.10414 27.52970
#
# Poissons Ratio (x) = 0.37743 0.05831
# Poissons Ratio (y) = 0.12483 0.08654
# Poissons Ratio (z) = 0.10375 0.46559
#
# Static dielectric constant tensor:
#      x y z
#    x 1.803450 0.000000 0.000000 
#    y 0.000000 1.857150 0.000000 
#    z 0.000000 0.000000 1.816520 
# 
# From -- ./inp_files/12737.got.cif
#   From: 2010.05.17/outbox.cif.g08.bks.cpg/sg23_7_cif.got.tgz:12737.got - 2010.06.04 12:02:01.
