data_PCOD9330335
_publ_section_title
;
Structure prediction by ZEFSAII (Michael W. Deem and Ramdas Pophale) SiO2 
 PCOD9330335
Probable space group: I 2 2 2
;
_chemical_formula_sum "Si O2"
_cell_formula_units_Z 56
_cell_length_a 33.068496
_cell_length_b 17.085626
_cell_length_c 4.975581
_cell_angle_alpha 90.000000
_cell_angle_beta 90.000000
_cell_angle_gamma 90.000000
_cell_volume 2811.183139
_symmetry_space_group_name_H-M "I 2 2 2"
_symmetry_group_IT_number 23
_symmetry_cell_setting 'orthorhombic'
loop_
_space_group_symop_operation_xyz
x,y,z
-x,-y,z
x,-y,-z
-x,y,-z
1/2+x,1/2+y,1/2+z
1/2-x,1/2-y,1/2+z
1/2+x,1/2-y,1/2-z
1/2-x,1/2+y,1/2-z
loop_
_atom_site_type_symbol
_atom_site_label
_atom_site_fract_x
_atom_site_fract_y
_atom_site_fract_z
Si Si1 0.413869 0.284792 0.008622
Si Si2 0.111293 0.054737 0.757437
Si Si3 0.154408 0.665769 0.422228
Si Si4 0.704060 0.445455 0.738618
Si Si5 0.547900 0.791647 0.509336
Si Si6 0.257787 0.201341 0.862812
Si Si7 0.383749 0.910739 0.411653
O O1 0.411914 0.369175 0.149295
O O2 0.438575 0.230398 0.210927
O O3 0.369112 0.246565 0.005711
O O4 0.434751 0.273965 0.718479
O O5 0.157595 0.077681 0.829855
O O6 0.114136 0.000000 0.500000
O O7 0.095172 0.000000 0.000000
O O8 0.200922 0.674255 0.496567
O O9 0.143796 0.639577 0.120429
O O10 0.134806 0.601469 0.618585
O O11 0.719674 0.500000 0.500000
O O12 0.731556 0.369527 0.754953
O O13 0.704410 0.500000 0.000000
O O14 0.500000 0.798181 0.500000
O O15 0.572234 0.870069 0.585988
O O16 0.266076 0.256880 0.607143
O O17 0.384855 0.000000 0.500000
#
# Coordination Sequence:
#
# PCOD9330335 Si02
#       7
#     8   8   8   8   8   8   8
#     4  10  20  37  59  82 114 145 184 231 278 341
#     4  10  20  35  58  83 108 142 186 232 279 333
#     4  10  22  37  56  83 114 156 195 236 287 337
#     4  10  22  38  55  81 115 150 190 241 293 336
#     4  10  21  37  60  88 115 148 184 225 281 337
#     4  12  24  38  58  83 114 153 199 244 289 337
#     4  10  21  38  59  85 117 153 195 236 278 337
#
# _framework density 19.920438999999998
#
# number of rings (size 3 to 8) (size 9 to 14) (size 15 to 20)
#    0.000    1.714    0.000    4.286    0.000    6.571 
#    0.000    0.000    0.000   11.571    0.000    0.000 
#    0.000    0.000    0.000    0.000    0.000    0.000 
#
# Total GULP energy -156327.771749 kJ/mol
# GULP energy per Si atom -5583.134705 kJ/mol
# Density = 1.987510 g / cm^3
# Si number density = 19.920439 Si / 1000 Ang^3
#
#
#
# Elastic Constant Matrix: (Units=GPa)
#
#
# Indices 1 2 3 4 5 6 
#
# 1 55.8553 15.0037 -12.0703 -0.0006 -0.0010 -0.0001
# 2 15.0037 76.3339 4.5961 0.0006 -0.0003 -0.0005
# 3 -12.0703 4.5961 84.7150 0.0028 -0.0029 -0.0046
# 4 -0.0006 0.0006 0.0028 34.3447 0.0000 0.0008
# 5 -0.0010 -0.0003 -0.0029 0.0000 22.8240 0.0039
# 6 -0.0001 -0.0005 -0.0046 0.0008 0.0039 133.1193
#
#
#
# Elastic Compliance Matrix: (Units=1/GPa)
#
#
# Indices 1 2 3 4 5 6 
#
# 1 0.019641 -0.004042 0.003018 0.000000 0.000001 0.000000
# 2 -0.004042 0.013975 -0.001334 0.000000 0.000000 0.000000
# 3 0.003018 -0.001334 0.012307 -0.000001 0.000002 0.000000
# 4 0.000000 0.000000 -0.000001 0.029117 0.000000 0.000000
# 5 0.000001 0.000000 0.000002 0.000000 0.043813 -0.000001
# 6 0.000000 0.000000 0.000000 0.000000 -0.000001 0.007512
#
#
# Mechanical properties :
#
#
# Convention : Reuss Voigt Hill
#
# Bulk Modulus (GPa) = 24.26830 25.77369 25.02099
# Shear Modulus (GPa) = 34.52611 52.01592 43.27102
#
# Velocity S-wave (km/s) = 4.16769 5.11552 4.66573
# Velocity P-wave (km/s) = 5.94715 6.91793 6.45083
#
# Compressibility (1/GPa) = 0.04120602
#
# Stress axis : x y z
#
# Youngs Moduli (GPa) = 50.91295 71.55534 81.25683
#
# Poissons Ratio (x) = 0.28925 -0.24522
# Poissons Ratio (y) = 0.20580 0.10841
# Poissons Ratio (z) = -0.15365 0.09547
#
# Static dielectric constant tensor:
#      x y z
#    x 1.699430 0.000000 0.000000 
#    y 0.000000 1.659430 0.000000 
#    z 0.000000 0.000000 1.666800 
# 
# From -- ./inp_files/5367.got.cif
#   From: 2010.05.17/outbox.cif.g08.bks.cpg/sg23_3_cif.got.tgz:5367.got - 2010.06.04 12:02:01.
