data_PCOD9330202
_publ_section_title
;
Structure prediction by ZEFSAII (Michael W. Deem and Ramdas Pophale) SiO2 
 PCOD9330202
Probable space group: I 2 2 2
;
_chemical_formula_sum "Si O2"
_cell_formula_units_Z 56
_cell_length_a 14.185898
_cell_length_b 7.733962
_cell_length_c 24.168437
_cell_angle_alpha 90.000000
_cell_angle_beta 90.000000
_cell_angle_gamma 90.000000
_cell_volume 2651.596467
_symmetry_space_group_name_H-M "I 2 2 2"
_symmetry_group_IT_number 23
_symmetry_cell_setting 'orthorhombic'
loop_
_space_group_symop_operation_xyz
x,y,z
-x,-y,z
x,-y,-z
-x,y,-z
1/2+x,1/2+y,1/2+z
1/2-x,1/2-y,1/2+z
1/2+x,1/2-y,1/2-z
1/2-x,1/2+y,1/2-z
loop_
_atom_site_type_symbol
_atom_site_label
_atom_site_fract_x
_atom_site_fract_y
_atom_site_fract_z
Si Si1 0.102057 0.702711 0.225902
Si Si2 0.897943 0.297289 0.774098
Si Si3 0.293337 0.294982 0.171513
Si Si4 0.794247 0.791124 0.936913
Si Si5 1.000000 0.199868 0.067419
Si Si6 0.793337 0.794982 0.328487
Si Si7 0.205753 0.208876 0.063087
O O1 0.099460 0.500000 0.211915
O O2 0.123853 0.718330 0.291313
O O3 0.194402 0.778162 0.196331
O O4 0.000000 0.778701 0.211891
O O5 0.805598 0.221838 0.803669
O O6 0.876147 0.281670 0.708687
O O7 0.296463 0.500000 0.180507
O O8 0.285046 0.259880 0.106673
O O9 0.714954 0.740120 0.893327
O O10 0.898125 0.723160 0.917688
O O11 0.800877 0.000000 0.937897
O O12 0.777901 0.733610 1.000000
O O13 0.101875 0.276840 0.082312
O O14 0.000000 0.000000 0.085796
O O15 0.000000 0.198194 0.000000
#
# Coordination Sequence:
#
# PCOD9330202 Si02
#       7
#     8   8   8   8   8   8   8
#     4   9  19  36  54  71  97 133 169 205 246 295
#     4   9  19  36  54  71  97 133 169 205 246 295
#     4  10  20  32  50  77 104 129 163 206 251 295
#     4   9  17  30  48  70  99 135 170 201 238 291
#     4   7  12  24  41  63  91 125 165 199 226 269
#     4  10  20  32  50  77 104 129 163 206 251 295
#     4   9  17  30  48  70  99 135 170 201 238 291
#
# _framework density 21.119351000000002
#
# number of rings (size 3 to 8) (size 9 to 14) (size 15 to 20)
#    0.000    3.000    0.000    2.571    2.000    2.286 
#    0.000    0.000    0.000    3.429    0.000    6.000 
#    0.000    0.000    0.000    0.000    0.000    0.000 
#
# Total GULP energy -156123.578911 kJ/mol
# GULP energy per Si atom -5575.842104 kJ/mol
# Density = 2.107128 g / cm^3
# Si number density = 21.119351 Si / 1000 Ang^3
#
#
#
# Elastic Constant Matrix: (Units=GPa)
#
#
# Indices 1 2 3 4 5 6 
#
# 1 42.0331 3.0154 -1.7303 0.0000 0.0000 0.0000
# 2 3.0154 45.5870 -3.6337 0.0000 0.0000 0.0000
# 3 -1.7303 -3.6337 74.2686 0.0000 0.0000 0.0000
# 4 0.0000 0.0000 0.0000 15.1909 0.0000 0.0000
# 5 0.0000 0.0000 0.0000 0.0000 26.5589 0.0000
# 6 0.0000 0.0000 0.0000 0.0000 0.0000 7.1051
#
#
#
# Elastic Compliance Matrix: (Units=1/GPa)
#
#
# Indices 1 2 3 4 5 6 
#
# 1 0.023921 -0.001544 0.000482 0.000000 0.000000 0.000000
# 2 -0.001544 0.022122 0.001046 0.000000 0.000000 0.000000
# 3 0.000482 0.001046 0.013527 0.000000 0.000000 0.000000
# 4 0.000000 0.000000 0.000000 0.065829 0.000000 0.000000
# 5 0.000000 0.000000 0.000000 0.000000 0.037652 0.000000
# 6 0.000000 0.000000 0.000000 0.000000 0.000000 0.140743
#
#
# Mechanical properties :
#
#
# Convention : Reuss Voigt Hill
#
# Bulk Modulus (GPa) = 16.79585 17.46572 17.13079
# Shear Modulus (GPa) = 15.44775 20.72015 18.08395
#
# Velocity S-wave (km/s) = 2.70747 3.13565 2.92939
# Velocity P-wave (km/s) = 4.21235 4.62576 4.42389
#
# Compressibility (1/GPa) = 0.05953850
#
# Stress axis : x y z
#
# Youngs Moduli (GPa) = 41.80368 45.20468 73.92591
#
# Poissons Ratio (x) = 0.06979 -0.03562
# Poissons Ratio (y) = 0.06454 -0.07735
# Poissons Ratio (z) = -0.02014 -0.04730
#
# Static dielectric constant tensor:
#      x y z
#    x 1.784550 0.000000 0.000000 
#    y 0.000000 1.771830 0.000000 
#    z 0.000000 0.000000 1.821950 
# 
# From -- ./inp_files/27011.got.cif
#   From: 2010.05.17/outbox.cif.g08.bks.cpg/sg23_14_cif.got.tgz:27011.got - 2010.06.04 12:02:01.
