data_PCOD9330254
_publ_section_title
;
Structure prediction by ZEFSAII (Michael W. Deem and Ramdas Pophale) SiO2 
 PCOD9330254
Probable space group: I 2 2 2
;
_chemical_formula_sum "Si O2"
_cell_formula_units_Z 48
_cell_length_a 17.027352
_cell_length_b 10.987074
_cell_length_c 11.512890
_cell_angle_alpha 90.000000
_cell_angle_beta 90.000000
_cell_angle_gamma 90.000000
_cell_volume 2153.840400
_symmetry_space_group_name_H-M "I 2 2 2"
_symmetry_group_IT_number 23
_symmetry_cell_setting 'orthorhombic'
loop_
_space_group_symop_operation_xyz
x,y,z
-x,-y,z
x,-y,-z
-x,y,-z
1/2+x,1/2+y,1/2+z
1/2-x,1/2-y,1/2+z
1/2+x,1/2-y,1/2-z
1/2-x,1/2+y,1/2-z
loop_
_atom_site_type_symbol
_atom_site_label
_atom_site_fract_x
_atom_site_fract_y
_atom_site_fract_z
Si Si1 0.866052 0.393347 0.587400
Si Si2 0.487238 0.132665 0.707742
Si Si3 0.732353 0.557742 0.674562
Si Si4 0.626475 0.233380 0.862376
Si Si5 0.442979 0.609365 0.345063
Si Si6 0.127337 0.991374 0.635828
O O1 0.895974 0.500000 0.500000
O O2 0.913770 0.380117 0.704605
O O3 0.779094 0.441689 0.622536
O O4 0.877217 0.721877 0.497030
O O5 0.561206 0.159359 0.791821
O O6 0.472019 0.254166 0.632760
O O7 0.500000 0.000000 0.651043
O O8 0.789991 0.671192 0.661349
O O9 0.647172 0.583506 0.618062
O O10 0.711563 0.545077 0.810921
O O11 0.618569 0.370323 0.820353
O O12 0.500000 0.500000 0.380267
O O13 0.433324 0.593877 0.204087
O O14 0.120043 0.000000 0.500000
#
# Coordination Sequence:
#
# PCOD9330254 Si02
#       6
#     8   8   8   8   8   8
#     4  10  20  34  53  86 118 150 191 245 294 366
#     4  12  20  33  57  90 118 150 192 252 306 363
#     4   9  22  36  55  80 122 159 197 238 302 371
#     4  11  21  34  59  88 119 151 199 250 308 364
#     4  10  22  39  54  80 123 159 191 238 301 371
#     4  10  22  38  53  82 117 158 190 240 308 370
#
# _framework density 22.285775000000001
#
# number of rings (size 3 to 8) (size 9 to 14) (size 15 to 20)
#    1.000    0.667    5.000    1.500    2.333    0.333 
#    0.000    0.000    0.000    4.500    0.000    2.333 
#    0.000    0.000    0.000    0.000    0.000    0.000 
#
# Total GULP energy -133759.209484 kJ/mol
# GULP energy per Si atom -5573.300395 kJ/mol
# Density = 2.223505 g / cm^3
# Si number density = 22.285775 Si / 1000 Ang^3
#
#
#
# Elastic Constant Matrix: (Units=GPa)
#
#
# Indices 1 2 3 4 5 6 
#
# 1 138.3129 45.8719 6.3962 0.0000 0.0000 0.0000
# 2 45.8719 146.5389 7.6436 0.0000 0.0000 0.0000
# 3 6.3962 7.6436 71.6933 0.0000 0.0000 0.0000
# 4 0.0000 0.0000 0.0000 3.4287 0.0000 0.0000
# 5 0.0000 0.0000 0.0000 0.0000 2.5910 0.0000
# 6 0.0000 0.0000 0.0000 0.0000 0.0000 26.7042
#
#
#
# Elastic Compliance Matrix: (Units=1/GPa)
#
#
# Indices 1 2 3 4 5 6 
#
# 1 0.008082 -0.002506 -0.000454 0.000000 0.000000 0.000000
# 2 -0.002506 0.007640 -0.000591 0.000000 0.000000 0.000000
# 3 -0.000454 -0.000591 0.014052 0.000000 0.000000 0.000000
# 4 0.000000 0.000000 0.000000 0.291652 0.000000 0.000000
# 5 0.000000 0.000000 0.000000 0.000000 0.385956 0.000000
# 6 0.000000 0.000000 0.000000 0.000000 0.000000 0.037447
#
#
# Mechanical properties :
#
#
# Convention : Reuss Voigt Hill
#
# Bulk Modulus (GPa) = 44.10849 52.92982 48.51915
# Shear Modulus (GPa) = 6.58337 26.32033 16.45185
#
# Velocity S-wave (km/s) = 1.72061 3.44035 2.71997
# Velocity P-wave (km/s) = 4.87673 6.29153 5.62876
#
# Compressibility (1/GPa) = 0.02267137
#
# Stress axis : x y z
#
# Youngs Moduli (GPa) = 123.72854 130.89821 71.16525
#
# Poissons Ratio (x) = 0.32808 0.03230
# Poissons Ratio (y) = 0.31011 0.04205
# Poissons Ratio (z) = 0.05615 0.07735
#
# Static dielectric constant tensor:
#      x y z
#    x 1.820980 0.000000 0.000000 
#    y 0.000000 1.909340 0.000000 
#    z 0.000000 0.000000 1.832700 
# 
# From -- ./inp_files/21535.got.cif
#   From: 2010.05.17/outbox.cif.g08.bks.cpg/sg23_11_cif.got.tgz:21535.got - 2010.06.04 12:02:01.
