data_PCOD9330725
_publ_section_title
;
Structure prediction by ZEFSAII (Michael W. Deem and Ramdas Pophale) SiO2 
 PCOD9330725
Probable space group: I 2 2 2
;
_chemical_formula_sum "Si O2"
_cell_formula_units_Z 64
_cell_length_a 17.627725
_cell_length_b 13.841702
_cell_length_c 12.191107
_cell_angle_alpha 90.000000
_cell_angle_beta 90.000000
_cell_angle_gamma 90.000000
_cell_volume 2974.602268
_symmetry_space_group_name_H-M "I 2 2 2"
_symmetry_group_IT_number 23
_symmetry_cell_setting 'orthorhombic'
loop_
_space_group_symop_operation_xyz
x,y,z
-x,-y,z
x,-y,-z
-x,y,-z
1/2+x,1/2+y,1/2+z
1/2-x,1/2-y,1/2+z
1/2+x,1/2-y,1/2-z
1/2-x,1/2+y,1/2-z
loop_
_atom_site_type_symbol
_atom_site_label
_atom_site_fract_x
_atom_site_fract_y
_atom_site_fract_z
Si Si1 0.397361 0.967443 0.332503
Si Si2 0.035401 0.342088 0.884704
Si Si3 0.828972 0.552634 0.611707
Si Si4 0.679722 0.516923 0.285535
Si Si5 0.777297 0.324297 0.835352
Si Si6 0.623182 0.328896 0.196909
Si Si7 0.551485 0.345832 0.743314
Si Si8 0.133323 0.233811 0.550379
O O1 0.412483 0.064478 0.399245
O O2 0.367758 0.002588 0.215236
O O3 0.468499 0.895722 0.317056
O O4 0.334991 0.900044 0.384778
O O5 0.070643 0.251785 0.823603
O O6 0.000000 0.310975 0.000000
O O7 0.846389 0.500000 0.500000
O O8 0.737610 0.539072 0.632298
O O9 0.866061 0.657390 0.595812
O O10 0.726077 0.611917 0.247725
O O11 0.663206 0.434167 0.194921
O O12 0.597064 0.564291 0.310397
O O13 0.824378 0.242434 0.770457
O O14 0.721504 0.290045 0.929472
O O15 0.539976 0.346515 0.250006
O O16 0.613665 0.283172 0.076160
O O17 0.582701 0.331069 0.867550
#
# Coordination Sequence:
#
# PCOD9330725 Si02
#       8
#     8   8   8   8   8   8   8   8
#     4  10  20  42  64  97 137 172 234 291 354 424
#     4  11  23  43  65  98 138 184 230 292 357 424
#     4  11  22  42  69 102 137 181 235 296 356 425
#     4  10  24  44  68  97 142 188 230 294 350 434
#     4  10  22  41  64  99 134 175 233 288 349 420
#     4  12  23  46  70 101 140 187 236 293 363 427
#     4  11  24  45  69 102 142 184 237 297 351 430
#     4  11  23  43  68 102 137 181 232 293 359 423
#
# _framework density 21.515483
#
# number of rings (size 3 to 8) (size 9 to 14) (size 15 to 20)
#    0.000    1.250    3.750    3.000    0.000    2.000 
#   18.000    3.750    0.000    0.000    0.000    0.000 
#    0.000    0.000    0.000    0.000    0.000    0.000 
#
# Total GULP energy -178382.211131 kJ/mol
# GULP energy per Si atom -5574.444098 kJ/mol
# Density = 2.146651 g / cm^3
# Si number density = 21.515483 Si / 1000 Ang^3
#
#
#
# Elastic Constant Matrix: (Units=GPa)
#
#
# Indices 1 2 3 4 5 6 
#
# 1 73.0211 25.8683 11.2011 0.0000 0.0000 0.0000
# 2 25.8683 87.3289 12.0374 0.0000 0.0000 0.0000
# 3 11.2011 12.0374 45.2104 0.0000 0.0000 0.0000
# 4 0.0000 0.0000 0.0000 24.9389 0.0000 0.0000
# 5 0.0000 0.0000 0.0000 0.0000 27.6212 0.0000
# 6 0.0000 0.0000 0.0000 0.0000 0.0000 32.2755
#
#
#
# Elastic Compliance Matrix: (Units=1/GPa)
#
#
# Indices 1 2 3 4 5 6 
#
# 1 0.015620 -0.004249 -0.002739 0.000000 0.000000 0.000000
# 2 -0.004249 0.013043 -0.002420 0.000000 0.000000 0.000000
# 3 -0.002739 -0.002420 0.023442 0.000000 0.000000 0.000000
# 4 0.000000 0.000000 0.000000 0.040098 0.000000 0.000000
# 5 0.000000 0.000000 0.000000 0.000000 0.036204 0.000000
# 6 0.000000 0.000000 0.000000 0.000000 0.000000 0.030983
#
#
# Mechanical properties :
#
#
# Convention : Reuss Voigt Hill
#
# Bulk Modulus (GPa) = 30.03988 33.75267 31.89627
# Shear Modulus (GPa) = 26.41270 27.39735 26.90503
#
# Velocity S-wave (km/s) = 3.50753 3.57231 3.54007
# Velocity P-wave (km/s) = 5.51326 5.72162 5.61840
#
# Compressibility (1/GPa) = 0.03328908
#
# Stress axis : x y z
#
# Youngs Moduli (GPa) = 64.01981 76.66771 42.65916
#
# Poissons Ratio (x) = 0.32580 0.11682
# Poissons Ratio (y) = 0.27205 0.10323
# Poissons Ratio (z) = 0.17532 0.18553
#
# Static dielectric constant tensor:
#      x y z
#    x 1.928950 0.000000 0.000000 
#    y 0.000000 1.796790 0.000000 
#    z 0.000000 0.000000 1.739240 
# 
# From -- ./inp_files/17570.got.cif
#   From: 2010.05.17/outbox.cif.g08.bks.cpg/sg23_9_cif.got.tgz:17570.got - 2010.06.04 12:02:01.
