data_PCOD9330645
_publ_section_title
;
Structure prediction by ZEFSAII (Michael W. Deem and Ramdas Pophale) SiO2 
 PCOD9330645
Probable space group: I 2 2 2
;
_chemical_formula_sum "Si O2"
_cell_formula_units_Z 34
_cell_length_a 4.917043
_cell_length_b 10.904168
_cell_length_c 24.909563
_cell_angle_alpha 90.000000
_cell_angle_beta 90.000000
_cell_angle_gamma 90.000000
_cell_volume 1335.557679
_symmetry_space_group_name_H-M "I 2 2 2"
_symmetry_group_IT_number 23
_symmetry_cell_setting 'orthorhombic'
loop_
_space_group_symop_operation_xyz
x,y,z
-x,-y,z
x,-y,-z
-x,y,-z
1/2+x,1/2+y,1/2+z
1/2-x,1/2-y,1/2+z
1/2+x,1/2-y,1/2-z
1/2-x,1/2+y,1/2-z
loop_
_atom_site_type_symbol
_atom_site_label
_atom_site_fract_x
_atom_site_fract_y
_atom_site_fract_z
Si Si1 0.000000 0.000000 0.146702
Si Si2 0.389511 0.686101 0.081922
Si Si3 0.000000 0.000000 0.500000
Si Si4 0.500000 0.500000 0.172652
Si Si5 0.294290 0.665388 0.257198
Si Si6 0.888981 0.152620 0.940394
O O1 0.924304 0.892984 0.189279
O O2 0.793572 0.957797 0.098604
O O3 0.520806 0.615722 0.132770
O O4 0.130702 0.772820 0.090416
O O5 0.630700 0.761626 0.055626
O O6 0.315841 0.580674 0.039503
O O7 0.279906 0.554531 0.214230
O O8 0.006795 0.731704 0.263554
O O9 0.000000 0.126833 0.000000
#
# Coordination Sequence:
#
# PCOD9330645 Si02
#       6
#     4   8   2   4   8   8
#     4  11  27  43  73  97 133 177 219 268 340 384
#     4  11  24  40  66  95 133 171 220 267 324 382
#     4  10  20  40  60  92 122 178 210 258 318 364
#     4  10  24  41  67  97 127 166 216 270 328 390
#     4  11  25  46  68  97 129 168 217 274 329 396
#     4  12  24  44  63  98 134 177 216 271 315 395
#
# _framework density 25.457529000000001
#
# number of rings (size 3 to 8) (size 9 to 14) (size 15 to 20)
#    0.000    0.941    2.353    3.176    0.000   13.176 
#    0.000    2.353    0.000    0.000    0.000    0.000 
#    0.000    0.000    0.000    0.000    0.000    0.000 
#
# Total GULP energy -94659.607463 kJ/mol
# GULP energy per Si atom -5568.212204 kJ/mol
# Density = 2.539959 g / cm^3
# Si number density = 25.457529 Si / 1000 Ang^3
#
#
#
# Elastic Constant Matrix: (Units=GPa)
#
#
# Indices 1 2 3 4 5 6 
#
# 1 124.5095 39.6568 10.5378 0.0000 0.0000 0.0000
# 2 39.6568 63.8382 32.6422 0.0000 0.0000 0.0000
# 3 10.5378 32.6422 169.4955 0.0000 0.0000 0.0000
# 4 0.0000 0.0000 0.0000 47.0407 0.0000 0.0000
# 5 0.0000 0.0000 0.0000 0.0000 -17.1649 0.0000
# 6 0.0000 0.0000 0.0000 0.0000 0.0000 3.0621
#
#
#
# Elastic Compliance Matrix: (Units=1/GPa)
#
#
# Indices 1 2 3 4 5 6 
#
# 1 0.010075 -0.006587 0.000642 0.000000 0.000000 0.000000
# 2 -0.006587 0.021682 -0.003766 0.000000 0.000000 0.000000
# 3 0.000642 -0.003766 0.006585 0.000000 0.000000 0.000000
# 4 0.000000 0.000000 0.000000 0.021258 0.000000 0.000000
# 5 0.000000 0.000000 0.000000 0.000000 -0.058258 0.000000
# 6 0.000000 0.000000 0.000000 0.000000 0.000000 0.326570
#
#
# Mechanical properties :
#
#
# Convention : Reuss Voigt Hill
#
# Bulk Modulus (GPa) = 52.85263 58.16853 55.51058
# Shear Modulus (GPa) = 14.13862 24.92136 19.52999
#
# Velocity S-wave (km/s) = 2.35921 3.13219 2.77277
# Velocity P-wave (km/s) = 5.31294 5.99831 5.66600
#
# Compressibility (1/GPa) = 0.01892053
#
# Stress axis : x y z
#
# Youngs Moduli (GPa) = 99.25365 46.12056 151.85485
#
# Poissons Ratio (x) = 0.30380 -0.09752
# Poissons Ratio (y) = 0.65380 0.57191
# Poissons Ratio (z) = -0.06374 0.17370
#
# Static dielectric constant tensor:
#      x y z
#    x 1.912780 0.000000 0.000000 
#    y 0.000000 2.414060 0.000000 
#    z 0.000000 0.000000 2.047550 
# 
# From -- ./inp_files/27549.got.cif
#   From: 2010.05.17/outbox.cif.g08.bks.cpg/sg23_14_cif.got.tgz:27549.got - 2010.06.04 12:02:01.
