data_PCOD9330468
_publ_section_title
;
Structure prediction by ZEFSAII (Michael W. Deem and Ramdas Pophale) SiO2 
 PCOD9330468
Probable space group: I 2 2 2
;
_chemical_formula_sum "Si O2"
_cell_formula_units_Z 40
_cell_length_a 7.502771
_cell_length_b 8.881451
_cell_length_c 26.080428
_cell_angle_alpha 90.000000
_cell_angle_beta 90.000000
_cell_angle_gamma 90.000000
_cell_volume 1737.882177
_symmetry_space_group_name_H-M "I 2 2 2"
_symmetry_group_IT_number 23
_symmetry_cell_setting 'orthorhombic'
loop_
_space_group_symop_operation_xyz
x,y,z
-x,-y,z
x,-y,-z
-x,y,-z
1/2+x,1/2+y,1/2+z
1/2-x,1/2-y,1/2+z
1/2+x,1/2-y,1/2-z
1/2-x,1/2+y,1/2-z
loop_
_atom_site_type_symbol
_atom_site_label
_atom_site_fract_x
_atom_site_fract_y
_atom_site_fract_z
Si Si1 0.117273 0.874116 0.146254
Si Si2 0.820632 0.092098 0.303143
Si Si3 0.432210 0.142116 0.787683
Si Si4 0.204860 0.439356 0.554468
Si Si5 0.867189 0.365681 0.907158
O O1 0.266706 0.795949 0.180485
O O2 0.998523 0.744162 0.123435
O O3 0.198439 0.971872 0.100115
O O4 0.000000 0.000000 0.176359
O O5 0.654879 0.080424 0.264597
O O6 0.761123 0.072740 0.362015
O O7 0.896114 0.256144 0.288610
O O8 0.000000 0.000000 0.293561
O O9 0.500000 0.000000 0.819433
O O10 0.274943 0.500000 0.500000
O O11 0.250699 0.258638 0.559760
O O12 0.000000 0.500000 0.556369
O O13 0.000000 0.500000 0.928461
#
# Coordination Sequence:
#
# PCOD9330468 Si02
#       5
#     8   8   8   8   8
#     4  10  20  37  61  89 122 164 216 267 322 393
#     4  12  24  38  58  88 132 175 220 273 331 389
#     4  12  22  37  58  85 123 171 222 262 311 383
#     4  10  22  43  70  96 125 166 219 274 336 415
#     4  11  23  40  63  95 132 169 215 277 345 401
#
# _framework density 23.016518999999999
#
# number of rings (size 3 to 8) (size 9 to 14) (size 15 to 20)
#    0.000    1.000    0.000    9.000    0.000    3.600 
#    0.000    2.000    0.000    2.400    0.000    0.000 
#    0.000    0.000    0.000    0.000    0.000    0.000 
#
# Total GULP energy -111462.365140 kJ/mol
# GULP energy per Si atom -5573.118257 kJ/mol
# Density = 2.296413 g / cm^3
# Si number density = 23.016519 Si / 1000 Ang^3
#
#
#
# Elastic Constant Matrix: (Units=GPa)
#
#
# Indices 1 2 3 4 5 6 
#
# 1 121.9615 36.9319 23.6499 0.0000 0.0000 0.0000
# 2 36.9319 104.2294 7.6000 0.0000 0.0000 0.0000
# 3 23.6499 7.6000 101.1649 0.0000 0.0000 0.0000
# 4 0.0000 0.0000 0.0000 19.2454 0.0000 0.0000
# 5 0.0000 0.0000 0.0000 0.0000 25.0667 0.0000
# 6 0.0000 0.0000 0.0000 0.0000 0.0000 59.0726
#
#
#
# Elastic Compliance Matrix: (Units=1/GPa)
#
#
# Indices 1 2 3 4 5 6 
#
# 1 0.009568 -0.003245 -0.001993 0.000000 0.000000 0.000000
# 2 -0.003245 0.010748 -0.000049 0.000000 0.000000 0.000000
# 3 -0.001993 -0.000049 0.010354 0.000000 0.000000 0.000000
# 4 0.000000 0.000000 0.000000 0.051960 0.000000 0.000000
# 5 0.000000 0.000000 0.000000 0.000000 0.039894 0.000000
# 6 0.000000 0.000000 0.000000 0.000000 0.000000 0.016928
#
#
# Mechanical properties :
#
#
# Convention : Reuss Voigt Hill
#
# Bulk Modulus (GPa) = 49.75967 51.52438 50.64203
# Shear Modulus (GPa) = 31.90290 37.95522 34.92906
#
# Velocity S-wave (km/s) = 3.72706 4.06525 3.89982
# Velocity P-wave (km/s) = 6.33935 6.66854 6.50602
#
# Compressibility (1/GPa) = 0.02009660
#
# Stress axis : x y z
#
# Youngs Moduli (GPa) = 104.51005 93.04385 96.57680
#
# Poissons Ratio (x) = 0.30194 0.19249
# Poissons Ratio (y) = 0.33914 0.00471
# Poissons Ratio (z) = 0.20830 0.00454
#
# Static dielectric constant tensor:
#      x y z
#    x 1.775540 0.000000 0.000000 
#    y 0.000000 1.919050 0.000000 
#    z 0.000000 0.000000 1.885220 
# 
# From -- ./inp_files/27868.got.cif
#   From: 2010.05.17/outbox.cif.g08.bks.cpg/sg23_14_cif.got.tgz:27868.got - 2010.06.04 12:02:01.
