data_PCOD9330998
_publ_section_title
;
Structure prediction by ZEFSAII (Michael W. Deem and Ramdas Pophale) SiO2 
 PCOD9330998
Probable space group: I 2 2 2
;
_chemical_formula_sum "Si O2"
_cell_formula_units_Z 32
_cell_length_a 33.554337
_cell_length_b 7.208893
_cell_length_c 5.295615
_cell_angle_alpha 90.000000
_cell_angle_beta 90.000000
_cell_angle_gamma 90.000000
_cell_volume 1280.954327
_symmetry_space_group_name_H-M "I 2 2 2"
_symmetry_group_IT_number 23
_symmetry_cell_setting 'orthorhombic'
loop_
_space_group_symop_operation_xyz
x,y,z
-x,-y,z
x,-y,-z
-x,y,-z
1/2+x,1/2+y,1/2+z
1/2-x,1/2-y,1/2+z
1/2+x,1/2-y,1/2-z
1/2-x,1/2+y,1/2-z
loop_
_atom_site_type_symbol
_atom_site_label
_atom_site_fract_x
_atom_site_fract_y
_atom_site_fract_z
Si Si1 0.226534 0.706266 0.101185
Si Si2 0.982393 0.290249 0.746492
Si Si3 0.104745 0.222687 0.444859
Si Si4 0.861461 0.790988 0.951223
O O1 0.249756 0.797763 0.864818
O O2 0.218989 0.500000 0.000000
O O3 0.183645 0.798812 0.145442
O O4 0.000000 0.500000 0.748329
O O5 0.000000 0.197660 0.500000
O O6 0.935571 0.282617 0.696529
O O7 0.000000 0.206301 0.000000
O O8 0.104783 0.000000 0.500000
O O9 0.112376 0.700869 0.272497
O O10 0.137696 0.282842 0.238237
O O11 0.876647 0.000000 0.000000
#
# Coordination Sequence:
#
# PCOD9330998 Si02
#       4
#     8   8   8   8
#     4  12  25  44  69 103 139 183 230 281 340 414
#     4  10  21  39  59  88 121 164 212 260 336 378
#     4  10  21  39  63  90 126 166 218 272 329 397
#     4  10  21  40  64  95 130 172 214 273 338 393
#
# _framework density 24.981375
#
# number of rings (size 3 to 8) (size 9 to 14) (size 15 to 20)
#    0.000    1.500    0.000    5.250    0.000    2.500 
#   13.500    1.250    0.000    0.000    0.000    0.000 
#    0.000    0.000    0.000    0.000    0.000    0.000 
#
# Total GULP energy -89348.938113 kJ/mol
# GULP energy per Si atom -5584.308632 kJ/mol
# Density = 2.492452 g / cm^3
# Si number density = 24.981375 Si / 1000 Ang^3
#
#
#
# Elastic Constant Matrix: (Units=GPa)
#
#
# Indices 1 2 3 4 5 6 
#
# 1 110.8175 -18.5409 66.1557 0.0000 0.0000 0.0000
# 2 -18.5409 88.6275 16.7408 0.0000 0.0000 0.0001
# 3 66.1557 16.7408 252.0866 0.0000 0.0000 0.0001
# 4 0.0000 0.0000 0.0000 -18.9323 0.0000 0.0001
# 5 0.0000 0.0000 0.0000 0.0000 49.7332 0.0001
# 6 0.0000 0.0001 0.0001 0.0001 0.0001 62.2561
#
#
#
# Elastic Compliance Matrix: (Units=1/GPa)
#
#
# Indices 1 2 3 4 5 6 
#
# 1 0.011436 0.002997 -0.003200 0.000000 0.000000 0.000000
# 2 0.002997 0.012212 -0.001597 0.000000 0.000000 0.000000
# 3 -0.003200 -0.001597 0.004913 0.000000 0.000000 0.000000
# 4 0.000000 0.000000 0.000000 -0.052820 0.000000 0.000000
# 5 0.000000 0.000000 0.000000 0.000000 0.020107 0.000000
# 6 0.000000 0.000000 0.000000 0.000000 0.000000 0.016063
#
#
# Mechanical properties :
#
#
# Convention : Reuss Voigt Hill
#
# Bulk Modulus (GPa) = 40.06602 64.47143 52.26872
# Shear Modulus (GPa) = 209.80654 44.42313 127.11484
#
# Velocity S-wave (km/s) = 9.17429 4.22151 7.14103
# Velocity P-wave (km/s) = 11.32681 7.04452 9.43191
#
# Compressibility (1/GPa) = 0.02495880
#
# Stress axis : x y z
#
# Youngs Moduli (GPa) = 87.44599 81.88768 203.55064
#
# Poissons Ratio (x) = -0.24540 0.65138
# Poissons Ratio (y) = -0.26206 0.32516
# Poissons Ratio (z) = 0.27984 0.13081
#
# Static dielectric constant tensor:
#      x y z
#    x 2.091500 0.000000 0.000000 
#    y 0.000000 2.018210 0.000000 
#    z 0.000000 0.000000 1.886670 
# 
# From -- ./inp_files/5198.got.cif
#   From: 2010.05.17/outbox.cif.g08.bks.cpg/sg23_3_cif.got.tgz:5198.got - 2010.06.04 12:02:01.
