data_PCOD9330523
_publ_section_title
;
Structure prediction by ZEFSAII (Michael W. Deem and Ramdas Pophale) SiO2 
 PCOD9330523
Probable space group: I 2 2 2
;
_chemical_formula_sum "Si O2"
_cell_formula_units_Z 52
_cell_length_a 8.809095
_cell_length_b 20.080810
_cell_length_c 15.165930
_cell_angle_alpha 90.000000
_cell_angle_beta 90.000000
_cell_angle_gamma 90.000000
_cell_volume 2682.758427
_symmetry_space_group_name_H-M "I 2 2 2"
_symmetry_group_IT_number 23
_symmetry_cell_setting 'orthorhombic'
loop_
_space_group_symop_operation_xyz
x,y,z
-x,-y,z
x,-y,-z
-x,y,-z
1/2+x,1/2+y,1/2+z
1/2-x,1/2-y,1/2+z
1/2+x,1/2-y,1/2-z
1/2-x,1/2+y,1/2-z
loop_
_atom_site_type_symbol
_atom_site_label
_atom_site_fract_x
_atom_site_fract_y
_atom_site_fract_z
Si Si1 0.311017 0.670811 0.865375
Si Si2 0.318901 0.578360 0.518380
Si Si3 0.187487 0.328059 0.632129
Si Si4 0.664791 0.153928 0.180771
Si Si5 0.500000 0.500000 0.000000
Si Si6 0.750202 0.405871 0.046308
Si Si7 0.339015 0.689422 0.186109
Si Si8 0.000000 0.500000 0.000000
O O1 0.292715 0.749276 0.890286
O O2 0.211155 0.644683 0.783153
O O3 0.486911 0.671682 0.835235
O O4 0.274333 0.626145 0.950025
O O5 0.282975 0.500000 0.500000
O O6 0.500000 0.585728 0.500000
O O7 0.235978 0.625203 0.447407
O O8 0.259565 0.606933 0.613314
O O9 0.295198 0.334421 0.716988
O O10 0.015468 0.347584 0.659951
O O11 0.697344 0.233044 0.171486
O O12 0.606010 0.453639 0.058803
O O13 0.761063 0.348811 0.116224
O O14 0.893421 0.452558 0.054846
#
# Coordination Sequence:
#
# PCOD9330523 Si02
#       8
#     8   8   8   8   2   8   8   2
#     4  10  20  39  65  91 120 156 199 242 299 355
#     4  11  24  44  61  85 120 164 205 244 297 363
#     4  10  22  39  63  95 120 149 198 252 298 354
#     4  10  22  39  63  95 120 149 198 252 298 354
#     4  10  20  38  60  82 112 164 206 230 292 358
#     4  11  21  41  58  85 120 164 194 249 287 356
#     4  10  20  39  65  91 120 156 199 242 299 355
#     4  10  28  38  52  86 128 148 214 238 296 350
#
# _framework density 19.383035
#
# number of rings (size 3 to 8) (size 9 to 14) (size 15 to 20)
#    0.000    1.692    1.538    2.308    2.154    4.923 
#    8.308    0.000    0.000    0.000    0.000    0.000 
#    0.000    0.000    0.000    0.000    0.000    0.000 
#
# Total GULP energy -144993.697736 kJ/mol
# GULP energy per Si atom -5576.680682 kJ/mol
# Density = 1.933892 g / cm^3
# Si number density = 19.383035 Si / 1000 Ang^3
#
#
#
# Elastic Constant Matrix: (Units=GPa)
#
#
# Indices 1 2 3 4 5 6 
#
# 1 60.1110 33.7048 17.8802 0.0000 0.0000 0.0000
# 2 33.7048 76.8293 67.1700 0.0000 0.0000 0.0000
# 3 17.8802 67.1700 88.6226 0.0001 0.0000 0.0000
# 4 0.0000 0.0000 0.0001 -9.5987 0.0000 0.0000
# 5 0.0000 0.0000 0.0000 0.0000 8.9652 0.0000
# 6 0.0000 0.0000 0.0000 0.0000 0.0000 66.4417
#
#
#
# Elastic Compliance Matrix: (Units=1/GPa)
#
#
# Indices 1 2 3 4 5 6 
#
# 1 0.024489 -0.019041 0.009491 0.000000 0.000000 0.000000
# 2 -0.019041 0.053387 -0.036622 0.000000 0.000000 0.000000
# 3 0.009491 -0.036622 0.037126 0.000000 0.000000 0.000000
# 4 0.000000 0.000000 0.000000 -0.104181 0.000000 0.000000
# 5 0.000000 0.000000 0.000000 0.000000 0.111542 0.000000
# 6 0.000000 0.000000 0.000000 0.000000 0.000000 0.015051
#
#
# Mechanical properties :
#
#
# Convention : Reuss Voigt Hill
#
# Bulk Modulus (GPa) = 44.13473 51.45255 47.79364
# Shear Modulus (GPa) = 21.06939 20.28216 20.67578
#
# Velocity S-wave (km/s) = 3.30055 3.23830 3.26957
# Velocity P-wave (km/s) = 6.11098 6.37063 6.24215
#
# Compressibility (1/GPa) = 0.02265789
#
# Stress axis : x y z
#
# Youngs Moduli (GPa) = 40.83410 18.73118 26.93534
#
# Poissons Ratio (x) = 0.35666 -0.25565
# Poissons Ratio (y) = 0.77753 0.98643
# Poissons Ratio (z) = -0.38756 0.68597
#
# Static dielectric constant tensor:
#      x y z
#    x 1.672160 0.000000 0.000000 
#    y 0.000000 1.667590 0.000000 
#    z 0.000000 0.000000 1.651100 
# 
# From -- ./inp_files/20175.got.cif
#   From: 2010.05.17/outbox.cif.g08.bks.cpg/sg23_11_cif.got.tgz:20175.got - 2010.06.04 12:02:01.
