data_PCOD9330500
_publ_section_title
;
Structure prediction by ZEFSAII (Michael W. Deem and Ramdas Pophale) SiO2 
 PCOD9330500
Probable space group: I 2 2 2
;
_chemical_formula_sum "Si O2"
_cell_formula_units_Z 58
_cell_length_a 8.471187
_cell_length_b 18.163298
_cell_length_c 17.151798
_cell_angle_alpha 90.000000
_cell_angle_beta 90.000000
_cell_angle_gamma 90.000000
_cell_volume 2639.056149
_symmetry_space_group_name_H-M "I 2 2 2"
_symmetry_group_IT_number 23
_symmetry_cell_setting 'orthorhombic'
loop_
_space_group_symop_operation_xyz
x,y,z
-x,-y,z
x,-y,-z
-x,y,-z
1/2+x,1/2+y,1/2+z
1/2-x,1/2-y,1/2+z
1/2+x,1/2-y,1/2-z
1/2-x,1/2+y,1/2-z
loop_
_atom_site_type_symbol
_atom_site_label
_atom_site_fract_x
_atom_site_fract_y
_atom_site_fract_z
Si Si1 0.187256 0.611377 0.608760
Si Si2 0.048199 0.367140 0.077589
Si Si3 0.119910 0.818434 0.376360
Si Si4 0.500000 0.000000 0.000000
Si Si5 0.546870 0.585133 0.274751
Si Si6 0.727858 0.310855 0.278556
Si Si7 0.512871 0.916406 0.250840
Si Si8 0.229784 0.228193 0.397882
O O1 0.106408 0.553481 0.552337
O O2 0.335001 0.577199 0.653089
O O3 0.223053 0.689365 0.568955
O O4 0.075107 0.627211 0.683204
O O5 0.044585 0.405651 0.161465
O O6 0.900015 0.309156 0.083446
O O7 0.229149 0.339184 0.070372
O O8 0.000000 0.410818 0.000000
O O9 0.107522 0.879085 0.306760
O O10 0.180943 0.741526 0.338032
O O11 0.943100 0.810010 0.412066
O O12 0.500000 0.500000 0.257737
O O13 0.437053 0.654357 0.303773
O O14 0.812482 0.386571 0.254303
O O15 0.725205 0.267912 0.196930
O O16 0.500000 0.000000 0.228677
#
# Coordination Sequence:
#
# PCOD9330500 Si02
#       8
#     8   8   8   2   8   8   8   8
#     4  12  22  45  66  92 138 178 233 272 343 414
#     4  11  25  42  65 105 138 175 236 281 350 409
#     4  11  21  40  70 102 139 178 236 297 340 417
#     4  12  32  40  66 104 138 188 232 276 356 440
#     4  11  23  37  67 103 137 178 235 294 354 412
#     4  10  20  37  67 108 122 174 248 274 339 419
#     4  11  21  40  72  91 127 178 222 282 337 408
#     4  10  22  40  68  98 135 182 226 291 341 404
#
# _framework density 21.977554000000001
#
# number of rings (size 3 to 8) (size 9 to 14) (size 15 to 20)
#    0.000    1.103    4.828    1.655    3.862    1.931 
#    0.000    1.724    0.000    0.000    0.000    0.000 
#    0.000    0.000    0.000    0.000    0.000    0.000 
#
# Total GULP energy -161519.620223 kJ/mol
# GULP energy per Si atom -5569.642077 kJ/mol
# Density = 2.192753 g / cm^3
# Si number density = 21.977554 Si / 1000 Ang^3
#
#
#
# Elastic Constant Matrix: (Units=GPa)
#
#
# Indices 1 2 3 4 5 6 
#
# 1 121.4996 43.7701 21.9085 0.0000 0.0000 0.0000
# 2 43.7701 123.5961 15.1746 0.0000 0.0000 0.0000
# 3 21.9085 15.1746 57.7187 0.0000 0.0000 0.0000
# 4 0.0000 0.0000 0.0000 -40.4523 0.0000 0.0000
# 5 0.0000 0.0000 0.0000 0.0000 22.3951 0.0000
# 6 0.0000 0.0000 0.0000 0.0000 0.0000 18.1143
#
#
#
# Elastic Compliance Matrix: (Units=1/GPa)
#
#
# Indices 1 2 3 4 5 6 
#
# 1 0.009891 -0.003143 -0.002928 0.000000 0.000000 0.000000
# 2 -0.003143 0.009360 -0.001268 0.000000 0.000000 0.000000
# 3 -0.002928 -0.001268 0.018770 0.000000 0.000000 0.000000
# 4 0.000000 0.000000 0.000000 -0.024720 0.000000 0.000000
# 5 0.000000 0.000000 0.000000 0.000000 0.044653 0.000000
# 6 0.000000 0.000000 0.000000 0.000000 0.000000 0.055205
#
#
# Mechanical properties :
#
#
# Convention : Reuss Voigt Hill
#
# Bulk Modulus (GPa) = 42.83948 51.61341 47.22644
# Shear Modulus (GPa) = 36.86882 14.80884 25.83883
#
# Velocity S-wave (km/s) = 4.10025 2.59861 3.43256
# Velocity P-wave (km/s) = 6.47694 5.70432 6.10287
#
# Compressibility (1/GPa) = 0.02334295
#
# Stress axis : x y z
#
# Youngs Moduli (GPa) = 101.10428 106.84165 53.27642
#
# Poissons Ratio (x) = 0.33583 0.15599
# Poissons Ratio (y) = 0.31779 0.06753
# Poissons Ratio (z) = 0.29602 0.13543
#
# Static dielectric constant tensor:
#      x y z
#    x 2.069510 0.000000 0.000000 
#    y 0.000000 1.844920 0.000000 
#    z 0.000000 0.000000 1.868490 
# 
# From -- ./inp_files/23890.got.cif
#   From: 2010.05.17/outbox.cif.g08.bks.cpg/sg23_12_cif.got.tgz:23890.got - 2010.06.04 12:02:01.
