data_PCOD9330612
_publ_section_title
;
Structure prediction by ZEFSAII (Michael W. Deem and Ramdas Pophale) SiO2 
 PCOD9330612
Probable space group: I 2 2 2
;
_chemical_formula_sum "Si O2"
_cell_formula_units_Z 44
_cell_length_a 6.156793
_cell_length_b 22.523313
_cell_length_c 13.938270
_cell_angle_alpha 90.000000
_cell_angle_beta 90.000000
_cell_angle_gamma 90.000000
_cell_volume 1932.839077
_symmetry_space_group_name_H-M "I 2 2 2"
_symmetry_group_IT_number 23
_symmetry_cell_setting 'orthorhombic'
loop_
_space_group_symop_operation_xyz
x,y,z
-x,-y,z
x,-y,-z
-x,y,-z
1/2+x,1/2+y,1/2+z
1/2-x,1/2-y,1/2+z
1/2+x,1/2-y,1/2-z
1/2-x,1/2+y,1/2-z
loop_
_atom_site_type_symbol
_atom_site_label
_atom_site_fract_x
_atom_site_fract_y
_atom_site_fract_z
Si Si1 0.000000 0.652654 0.500000
Si Si2 0.339011 0.098995 0.189714
Si Si3 0.991592 0.796068 0.234263
Si Si4 0.000000 0.862800 0.500000
Si Si5 0.500000 0.500000 0.295028
Si Si6 0.237187 0.245164 0.412680
Si Si7 0.261297 0.900785 0.316092
O O1 0.022046 0.614015 0.404626
O O2 0.194777 0.699363 0.518663
O O3 0.487397 0.089377 0.284982
O O4 0.196775 0.157004 0.213225
O O5 0.178521 0.044852 0.160118
O O6 0.040742 0.755806 0.142644
O O7 0.188676 0.839402 0.264544
O O8 0.936100 0.755788 0.325155
O O9 0.183689 0.817787 0.541545
O O10 0.141382 0.896990 0.419896
O O11 0.642078 0.544726 0.233432
#
# Coordination Sequence:
#
# PCOD9330612 Si02
#       7
#     4   8   8   4   4   8   8
#     4  11  22  40  65 100 142 183 246 291 352 424
#     4  11  23  44  69  99 140 190 237 305 357 430
#     4  10  21  39  65  95 140 193 231 274 356 423
#     4   9  22  41  74 110 140 171 246 287 366 440
#     4  10  24  45  75  94 130 186 238 289 383 426
#     4  10  20  39  64 101 142 189 229 287 341 435
#     4  10  21  45  69 100 135 175 230 305 355 427
#
# _framework density 22.764441000000001
#
# number of rings (size 3 to 8) (size 9 to 14) (size 15 to 20)
#    0.000    1.818    1.818    1.636    0.000    1.091 
#    3.273   10.000    0.000    6.545    0.000    0.000 
#    0.000    0.000    0.000    0.000    0.000    0.000 
#
# Total GULP energy -122664.418472 kJ/mol
# GULP energy per Si atom -5575.655385 kJ/mol
# Density = 2.271263 g / cm^3
# Si number density = 22.764441 Si / 1000 Ang^3
#
#
#
# Elastic Constant Matrix: (Units=GPa)
#
#
# Indices 1 2 3 4 5 6 
#
# 1 70.8233 19.1129 11.0609 0.0000 0.0000 0.0000
# 2 19.1129 67.1422 9.0477 0.0000 0.0000 0.0000
# 3 11.0609 9.0477 72.4564 0.0001 0.0000 0.0000
# 4 0.0000 0.0000 0.0001 5.9723 0.0000 0.0000
# 5 0.0000 0.0000 0.0000 0.0000 41.0023 0.0000
# 6 0.0000 0.0000 0.0000 0.0000 0.0000 32.5387
#
#
#
# Elastic Compliance Matrix: (Units=1/GPa)
#
#
# Indices 1 2 3 4 5 6 
#
# 1 0.015535 -0.004173 -0.001850 0.000000 0.000000 0.000000
# 2 -0.004173 0.016270 -0.001395 0.000000 0.000000 0.000000
# 3 -0.001850 -0.001395 0.014258 0.000000 0.000000 0.000000
# 4 0.000000 0.000000 0.000000 0.167439 0.000000 0.000000
# 5 0.000000 0.000000 0.000000 0.000000 0.024389 0.000000
# 6 0.000000 0.000000 0.000000 0.000000 0.000000 0.030733
#
#
# Mechanical properties :
#
#
# Convention : Reuss Voigt Hill
#
# Bulk Modulus (GPa) = 32.02390 32.09610 32.06000
# Shear Modulus (GPa) = 17.01447 27.31602 22.16524
#
# Velocity S-wave (km/s) = 2.73685 3.46778 3.12377
# Velocity P-wave (km/s) = 4.90767 5.49216 5.20812
#
# Compressibility (1/GPa) = 0.03122668
#
# Stress axis : x y z
#
# Youngs Moduli (GPa) = 64.37184 61.46460 70.13598
#
# Poissons Ratio (x) = 0.25648 0.12978
# Poissons Ratio (y) = 0.26861 0.09781
# Poissons Ratio (z) = 0.11911 0.08572
#
# Static dielectric constant tensor:
#      x y z
#    x 1.959840 0.000000 0.000000 
#    y 0.000000 1.857150 0.000000 
#    z 0.000000 0.000000 1.890370 
# 
# From -- ./inp_files/19197.got.cif
#   From: 2010.05.17/outbox.cif.g08.bks.cpg/sg23_10_cif.got.tgz:19197.got - 2010.06.04 12:02:01.
