data_PCOD9330464
_publ_section_title
;
Structure prediction by ZEFSAII (Michael W. Deem and Ramdas Pophale) SiO2 
 PCOD9330464
Probable space group: I 2 2 2
;
_chemical_formula_sum "Si O2"
_cell_formula_units_Z 48
_cell_length_a 11.146743
_cell_length_b 25.400567
_cell_length_c 7.612155
_cell_angle_alpha 90.000000
_cell_angle_beta 90.000000
_cell_angle_gamma 90.000000
_cell_volume 2155.256791
_symmetry_space_group_name_H-M "I 2 2 2"
_symmetry_group_IT_number 23
_symmetry_cell_setting 'orthorhombic'
loop_
_space_group_symop_operation_xyz
x,y,z
-x,-y,z
x,-y,-z
-x,y,-z
1/2+x,1/2+y,1/2+z
1/2-x,1/2-y,1/2+z
1/2+x,1/2-y,1/2-z
1/2-x,1/2+y,1/2-z
loop_
_atom_site_type_symbol
_atom_site_label
_atom_site_fract_x
_atom_site_fract_y
_atom_site_fract_z
Si Si1 0.253775 0.892068 0.202493
Si Si2 0.141758 0.000001 0.700219
Si Si3 0.746226 0.892070 0.202491
Si Si4 0.635195 0.286737 0.288661
Si Si5 0.500000 0.061969 0.216531
Si Si6 0.135195 0.786736 0.211341
O O1 0.184998 0.947106 0.209015
O O2 0.383171 0.906641 0.279119
O O3 0.175067 0.844697 0.278013
O O4 0.275960 0.877253 0.000000
O O5 0.188176 0.000000 0.500000
O O6 0.185000 0.947108 0.790989
O O7 0.000000 0.000000 0.696065
O O8 0.824937 0.844699 0.278010
O O9 0.616830 0.906641 0.279119
O O10 0.750001 0.250002 0.250001
O O11 0.625113 0.288115 0.500001
O O12 0.500001 0.272307 0.223853
O O13 0.500000 0.000000 0.267953
O O14 0.500000 0.061010 0.000000
#
# Coordination Sequence:
#
# PCOD9330464 Si02
#       6
#     8   8   8   8   8   8
#     4  10  20  37  61  85 114 152 196 242 286 347
#     4  11  23  36  53  82 118 153 188 235 298 357
#     4  10  20  37  61  85 114 152 196 242 286 347
#     4  10  23  41  62  90 120 156 205 252 301 362
#     4   9  16  30  56  90 116 140 186 239 282 335
#     4  10  23  41  62  90 120 156 205 252 301 362
#
# _framework density 22.271128999999998
#
# number of rings (size 3 to 8) (size 9 to 14) (size 15 to 20)
#    0.000    2.000    1.667    1.500    2.333    4.667 
#    0.000    1.667    0.000    0.000    0.000    0.000 
#    0.000    0.000    0.000    0.000    0.000    0.000 
#
# Total GULP energy -133890.875240 kJ/mol
# GULP energy per Si atom -5578.786468 kJ/mol
# Density = 2.222044 g / cm^3
# Si number density = 22.271129 Si / 1000 Ang^3
#
#
#
# Elastic Constant Matrix: (Units=GPa)
#
#
# Indices 1 2 3 4 5 6 
#
# 1 208.0604 81.4988 12.7827 0.0001 0.0001 0.0000
# 2 81.4988 129.8051 -6.5455 -0.0004 0.0000 0.0000
# 3 12.7827 -6.5455 49.8283 -0.0011 0.0011 -0.0002
# 4 0.0001 -0.0004 -0.0011 -6.4065 0.0000 -0.0001
# 5 0.0001 0.0000 0.0011 0.0000 17.2636 0.0001
# 6 0.0000 0.0000 -0.0002 -0.0001 0.0001 33.8097
#
#
#
# Elastic Compliance Matrix: (Units=1/GPa)
#
#
# Indices 1 2 3 4 5 6 
#
# 1 0.006617 -0.004268 -0.002258 0.000001 0.000000 0.000000
# 2 -0.004268 0.010509 0.002475 -0.000001 0.000000 0.000000
# 3 -0.002258 0.002475 0.020973 -0.000004 -0.000001 0.000000
# 4 0.000001 -0.000001 -0.000004 -0.156091 0.000000 -0.000001
# 5 0.000000 0.000000 -0.000001 0.000000 0.057925 0.000000
# 6 0.000000 0.000000 0.000000 -0.000001 0.000000 0.029577
#
#
# Mechanical properties :
#
#
# Convention : Reuss Voigt Hill
#
# Bulk Modulus (GPa) = 33.33701 62.57397 47.95549
# Shear Modulus (GPa) = -403.61220 28.93054 -187.34083
#
# Velocity S-wave (km/s) = -13.47665 3.60810 -9.18155
# Velocity P-wave (km/s) = 15.07179 6.74650 9.53005
#
# Compressibility (1/GPa) = 0.02999670
#
# Stress axis : x y z
#
# Youngs Moduli (GPa) = 151.12613 95.16012 47.67941
#
# Poissons Ratio (x) = 0.40618 0.10767
# Poissons Ratio (y) = 0.64506 -0.11803
# Poissons Ratio (z) = 0.34127 -0.23556
#
# Static dielectric constant tensor:
#      x y z
#    x 1.857930 0.000000 0.000000 
#    y 0.000000 1.818890 0.000000 
#    z 0.000000 0.000000 1.876510 
# 
# From -- ./inp_files/8662.got.cif
#   From: 2010.05.17/outbox.cif.g08.bks.cpg/sg23_5_cif.got.tgz:8662.got - 2010.06.04 12:02:01.
