data_PCOD9330062
_publ_section_title
;
Structure prediction by ZEFSAII (Michael W. Deem and Ramdas Pophale) SiO2 
 PCOD9330062
Probable space group: I 2 2 2
;
_chemical_formula_sum "Si O2"
_cell_formula_units_Z 64
_cell_length_a 11.792127
_cell_length_b 15.702289
_cell_length_c 18.760189
_cell_angle_alpha 90.000000
_cell_angle_beta 90.000000
_cell_angle_gamma 90.000000
_cell_volume 3473.700119
_symmetry_space_group_name_H-M "I 2 2 2"
_symmetry_group_IT_number 23
_symmetry_cell_setting 'orthorhombic'
loop_
_space_group_symop_operation_xyz
x,y,z
-x,-y,z
x,-y,-z
-x,y,-z
1/2+x,1/2+y,1/2+z
1/2-x,1/2-y,1/2+z
1/2+x,1/2-y,1/2-z
1/2-x,1/2+y,1/2-z
loop_
_atom_site_type_symbol
_atom_site_label
_atom_site_fract_x
_atom_site_fract_y
_atom_site_fract_z
Si Si1 0.146923 0.654016 0.192414
Si Si2 0.374186 0.420068 0.034198
Si Si3 0.251152 0.171418 0.151495
Si Si4 0.288768 0.512892 0.824168
Si Si5 0.382084 0.834263 0.290127
Si Si6 0.869614 0.002362 0.165665
Si Si7 0.364751 0.769039 0.991420
Si Si8 0.265871 0.175954 0.859384
O O1 0.176547 0.658579 0.276561
O O2 0.221205 0.575391 0.161096
O O3 0.187527 0.742662 0.158344
O O4 0.011407 0.647496 0.188992
O O5 0.371160 0.446377 0.116563
O O6 0.324052 0.329011 0.016046
O O7 0.310196 0.500000 0.000000
O O8 0.500000 0.417064 0.000000
O O9 0.166499 0.249644 0.170899
O O10 0.326783 0.190655 0.082931
O O11 0.187513 0.083253 0.137360
O O12 0.194853 0.585522 0.811533
O O13 0.357087 0.498528 0.751489
O O14 0.359572 0.823944 0.204659
O O15 0.804677 0.088462 0.144198
O O16 0.000000 0.000000 0.144862
O O17 0.500000 0.769730 0.000000
O O18 0.315556 0.811397 0.062203
#
# Coordination Sequence:
#
# PCOD9330062 Si02
#       8
#     8   8   8   8   8   8   8   8
#     4  10  20  36  60  86 120 160 198 246 297 352
#     4  10  21  35  57  90 124 155 187 240 304 354
#     4  10  21  38  59  88 116 155 205 252 296 352
#     4  10  20  36  59  90 120 153 199 244 291 366
#     4  10  19  37  59  85 119 158 198 246 299 352
#     4  10  22  39  61  86 116 156 207 253 294 339
#     4  11  22  40  62  87 121 157 195 250 306 353
#     4  10  22  38  58  89 118 153 206 252 292 354
#
# _framework density 18.424159
#
# number of rings (size 3 to 8) (size 9 to 14) (size 15 to 20)
#    0.000    1.875    1.250    2.625    1.750    0.500 
#    4.500    5.625    0.000    0.750    0.000    0.000 
#    0.000    0.000    0.000    0.000    0.000    0.000 
#
# Total GULP energy -178431.376189 kJ/mol
# GULP energy per Si atom -5575.980506 kJ/mol
# Density = 1.838222 g / cm^3
# Si number density = 18.424159 Si / 1000 Ang^3
#
#
#
# Elastic Constant Matrix: (Units=GPa)
#
#
# Indices 1 2 3 4 5 6 
#
# 1 83.1956 35.0093 28.8578 0.0000 0.0000 0.0000
# 2 35.0093 137.9188 28.4129 0.0000 0.0000 0.0000
# 3 28.8578 28.4129 87.5475 0.0000 0.0000 0.0000
# 4 0.0000 0.0000 0.0000 13.1403 0.0000 0.0000
# 5 0.0000 0.0000 0.0000 0.0000 17.2499 0.0000
# 6 0.0000 0.0000 0.0000 0.0000 0.0000 15.5926
#
#
#
# Elastic Compliance Matrix: (Units=1/GPa)
#
#
# Indices 1 2 3 4 5 6 
#
# 1 0.014583 -0.002906 -0.003864 0.000000 0.000000 0.000000
# 2 -0.002906 0.008349 -0.001752 0.000000 0.000000 0.000000
# 3 -0.003864 -0.001752 0.013265 0.000000 0.000000 0.000000
# 4 0.000000 0.000000 0.000000 0.076102 0.000000 0.000000
# 5 0.000000 0.000000 0.000000 0.000000 0.057971 0.000000
# 6 0.000000 0.000000 0.000000 0.000000 0.000000 0.064133
#
#
# Mechanical properties :
#
#
# Convention : Reuss Voigt Hill
#
# Bulk Modulus (GPa) = 52.20920 54.80243 53.50582
# Shear Modulus (GPa) = 19.39262 23.62201 21.50732
#
# Velocity S-wave (km/s) = 3.24785 3.58456 3.42035
# Velocity P-wave (km/s) = 6.51641 6.85139 6.68600
#
# Compressibility (1/GPa) = 0.01915371
#
# Stress axis : x y z
#
# Youngs Moduli (GPa) = 68.57369 119.77292 75.38893
#
# Poissons Ratio (x) = 0.34803 0.29129
# Poissons Ratio (y) = 0.19926 0.13207
# Poissons Ratio (z) = 0.26496 0.20983
#
# Static dielectric constant tensor:
#      x y z
#    x 1.574390 0.000000 0.000000 
#    y 0.000000 1.654610 0.000000 
#    z 0.000000 0.000000 1.666300 
# 
# From -- ./inp_files/17567.got.cif
#   From: 2010.05.17/outbox.cif.g08.bks.cpg/sg23_9_cif.got.tgz:17567.got - 2010.06.04 12:02:01.
