data_PCOD9330597
_publ_section_title
;
Structure prediction by ZEFSAII (Michael W. Deem and Ramdas Pophale) SiO2 
 PCOD9330597
Probable space group: I 2 2 2
;
_chemical_formula_sum "Si O2"
_cell_formula_units_Z 60
_cell_length_a 5.240062
_cell_length_b 27.363462
_cell_length_c 21.637636
_cell_angle_alpha 90.000000
_cell_angle_beta 90.000000
_cell_angle_gamma 90.000000
_cell_volume 3102.539213
_symmetry_space_group_name_H-M "I 2 2 2"
_symmetry_group_IT_number 23
_symmetry_cell_setting 'orthorhombic'
loop_
_space_group_symop_operation_xyz
x,y,z
-x,-y,z
x,-y,-z
-x,y,-z
1/2+x,1/2+y,1/2+z
1/2-x,1/2-y,1/2+z
1/2+x,1/2-y,1/2-z
1/2-x,1/2+y,1/2-z
loop_
_atom_site_type_symbol
_atom_site_label
_atom_site_fract_x
_atom_site_fract_y
_atom_site_fract_z
Si Si1 0.979509 0.599213 0.360765
Si Si2 0.900162 0.925112 0.433354
Si Si3 0.009030 0.726505 0.828315
Si Si4 0.105650 0.554628 0.773190
Si Si5 0.507121 0.789665 0.817760
Si Si6 0.484320 0.442350 0.574020
Si Si7 0.000000 0.000000 0.336007
Si Si8 0.922949 0.376411 0.887083
O O1 0.956860 0.572246 0.294708
O O2 0.983252 0.656810 0.346928
O O3 0.727825 0.584651 0.397976
O O4 0.227733 0.580452 0.397357
O O5 0.643651 0.893396 0.433871
O O6 0.000000 0.941577 0.500000
O O7 0.140766 0.893820 0.407127
O O8 0.837613 0.969914 0.387024
O O9 0.243616 0.763544 0.834881
O O10 0.015463 0.707487 0.757144
O O11 0.050325 0.680557 0.872684
O O12 0.744934 0.755544 0.837003
O O13 0.398257 0.542425 0.790844
O O14 0.022112 0.594732 0.822798
O O15 0.000000 0.500000 0.783139
O O16 0.500000 0.500000 0.590031
O O17 0.500000 0.438355 0.500000
#
# Coordination Sequence:
#
# PCOD9330597 Si02
#       8
#     8   8   8   8   8   8   4   8
#     4  12  24  39  68  97 128 163 205 266 306 381
#     4  11  23  39  60  84 119 172 220 247 292 359
#     4  10  20  39  60  89 127 161 196 257 316 389
#     4  11  22  37  57  94 132 158 195 252 324 367
#     4  10  21  37  62  94 123 158 205 248 323 383
#     4  11  25  45  65  91 129 177 213 245 300 376
#     4  10  23  38  56  86 133 166 206 254 304 358
#     4  11  22  39  62  87 122 164 201 268 312 361
#
# _framework density 19.338998
#
# number of rings (size 3 to 8) (size 9 to 14) (size 15 to 20)
#    0.000    1.200    2.667    3.800    2.800    1.067 
#    0.000    1.333    0.000   16.000    0.000    0.000 
#    0.000    0.000    0.000    0.000    0.000    0.000 
#
# Total GULP energy -167426.862534 kJ/mol
# GULP energy per Si atom -5580.895418 kJ/mol
# Density = 1.929498 g / cm^3
# Si number density = 19.338998 Si / 1000 Ang^3
#
#
#
# Elastic Constant Matrix: (Units=GPa)
#
#
# Indices 1 2 3 4 5 6 
#
# 1 -86.3430 -143.4807 -38.4752 0.0000 0.0000 0.0000
# 2 -143.4807 -32.3244 -26.3163 0.0000 0.0000 0.0000
# 3 -38.4752 -26.3163 53.9637 0.0000 0.0000 0.0000
# 4 0.0000 0.0000 0.0000 23.3886 0.0000 0.0000
# 5 0.0000 0.0000 0.0000 0.0000 26.0690 0.0000
# 6 0.0000 0.0000 0.0000 0.0000 0.0000 15.1287
#
#
#
# Elastic Compliance Matrix: (Units=1/GPa)
#
#
# Indices 1 2 3 4 5 6 
#
# 1 0.002132 -0.007658 -0.002215 0.000000 0.000000 0.000000
# 2 -0.007658 0.005371 -0.002841 0.000000 0.000000 0.000000
# 3 -0.002215 -0.002841 0.015566 0.000000 0.000000 0.000000
# 4 0.000000 0.000000 0.000000 0.042756 0.000000 0.000000
# 5 0.000000 0.000000 0.000000 0.000000 0.038360 0.000000
# 6 0.000000 0.000000 0.000000 0.000000 0.000000 0.066099
#
#
# Mechanical properties :
#
#
# Convention : Reuss Voigt Hill
#
# Bulk Modulus (GPa) = -423.57064 -53.47203 -238.52134
# Shear Modulus (GPa) = 25.65084 22.48850 24.06967
#
# Velocity S-wave (km/s) = 3.64590 3.41377 3.53174
# Velocity P-wave (km/s) = 14.20479 3.48876 10.34281
#
# Compressibility (1/GPa) = -0.00236088
#
# Stress axis : x y z
#
# Youngs Moduli (GPa) = 469.13476 186.20234 64.24189
#
# Poissons Ratio (x) = 1.42600 0.14229
# Poissons Ratio (y) = 3.59280 0.18253
# Poissons Ratio (z) = 1.03911 0.52905
#
# Static dielectric constant tensor:
#      x y z
#    x 1.850090 0.000000 0.000000 
#    y 0.000000 1.653990 0.000000 
#    z 0.000000 0.000000 1.676390 
# 
# From -- ./inp_files/25811.got.cif
#   From: 2010.05.17/outbox.cif.g08.bks.cpg/sg23_13_cif.got.tgz:25811.got - 2010.06.04 12:02:01.
