data_PCOD9330205
_publ_section_title
;
Structure prediction by ZEFSAII (Michael W. Deem and Ramdas Pophale) SiO2 
 PCOD9330205
Probable space group: I 2 2 2
;
_chemical_formula_sum "Si O2"
_cell_formula_units_Z 52
_cell_length_a 25.309112
_cell_length_b 5.596579
_cell_length_c 13.758768
_cell_angle_alpha 90.000000
_cell_angle_beta 90.000000
_cell_angle_gamma 90.000000
_cell_volume 1948.853053
_symmetry_space_group_name_H-M "I 2 2 2"
_symmetry_group_IT_number 23
_symmetry_cell_setting 'orthorhombic'
loop_
_space_group_symop_operation_xyz
x,y,z
-x,-y,z
x,-y,-z
-x,y,-z
1/2+x,1/2+y,1/2+z
1/2-x,1/2-y,1/2+z
1/2+x,1/2-y,1/2-z
1/2-x,1/2+y,1/2-z
loop_
_atom_site_type_symbol
_atom_site_label
_atom_site_fract_x
_atom_site_fract_y
_atom_site_fract_z
Si Si1 0.905573 0.228366 0.389755
Si Si2 0.182764 0.681841 0.774700
Si Si3 0.217182 0.148495 0.603707
Si Si4 0.020412 0.245716 0.888796
Si Si5 0.644011 0.303429 0.632511
Si Si6 0.219187 0.000000 0.000000
Si Si7 0.597318 0.232996 0.123967
O O1 0.843256 0.191639 0.371058
O O2 0.906067 0.248815 0.506959
O O3 0.926816 0.477283 0.350149
O O4 0.928693 0.984018 0.347447
O O5 0.243128 0.598983 0.804884
O O6 0.153957 0.443296 0.811950
O O7 0.157574 0.720158 0.666671
O O8 0.161697 0.932399 0.825107
O O9 0.241466 0.404583 0.579184
O O10 0.220253 0.000000 0.500000
O O11 0.083016 0.209757 0.891543
O O12 0.000000 0.500000 0.847751
O O13 0.000000 0.000000 0.842487
O O14 0.000000 0.248043 0.000000
O O15 0.681162 0.293677 0.537798
#
# Coordination Sequence:
#
# PCOD9330205 Si02
#       7
#     8   8   8   8   8   4   8
#     4  10  21  35  58  70 103 138 185 243 284 336
#     4  11  24  35  54  77 110 142 183 231 276 329
#     4  11  20  34  49  71 103 141 189 228 285 322
#     4  10  20  34  54  78 104 139 185 213 238 299
#     4  11  22  36  52  78 108 143 177 226 256 302
#     4  10  20  32  51  68 106 144 186 220 276 316
#     4  10  20  37  52  77  97 139 182 233 293 328
#
# _framework density 26.682361
#
# number of rings (size 3 to 8) (size 9 to 14) (size 15 to 20)
#    0.000    1.538    3.077    3.692    0.000    4.923 
#    0.000    0.000    0.000    0.000    0.000    0.000 
#    0.000    0.000    0.000  193.846    0.000    0.000 
#
# Total GULP energy -144911.493068 kJ/mol
# GULP energy per Si atom -5573.518964 kJ/mol
# Density = 2.662163 g / cm^3
# Si number density = 26.682361 Si / 1000 Ang^3
#
#
#
# Elastic Constant Matrix: (Units=GPa)
#
#
# Indices 1 2 3 4 5 6 
#
# 1 87.6087 46.6834 11.8527 0.0000 0.0000 0.0000
# 2 46.6834 276.3114 32.1449 0.0000 0.0000 0.0000
# 3 11.8527 32.1449 89.7324 0.0000 0.0000 0.0000
# 4 0.0000 0.0000 0.0000 32.4718 0.0000 0.0000
# 5 0.0000 0.0000 0.0000 0.0000 26.3827 0.0000
# 6 0.0000 0.0000 0.0000 0.0000 0.0000 15.1764
#
#
#
# Elastic Compliance Matrix: (Units=1/GPa)
#
#
# Indices 1 2 3 4 5 6 
#
# 1 0.012620 -0.002022 -0.000942 0.000000 0.000000 0.000000
# 2 -0.002022 0.004101 -0.001202 0.000000 0.000000 0.000000
# 3 -0.000942 -0.001202 0.011699 0.000000 0.000000 0.000000
# 4 0.000000 0.000000 0.000000 0.030796 0.000000 0.000000
# 5 0.000000 0.000000 0.000000 0.000000 0.037904 0.000000
# 6 0.000000 0.000000 0.000000 0.000000 0.000000 0.065892
#
#
# Mechanical properties :
#
#
# Convention : Reuss Voigt Hill
#
# Bulk Modulus (GPa) = 49.78574 70.55717 60.17145
# Shear Modulus (GPa) = 28.08365 39.00430 33.54398
#
# Velocity S-wave (km/s) = 3.24777 3.82750 3.54949
# Velocity P-wave (km/s) = 5.72392 6.78482 6.27682
#
# Compressibility (1/GPa) = 0.02008607
#
# Stress axis : x y z
#
# Youngs Moduli (GPa) = 79.24193 243.86558 85.47556
#
# Poissons Ratio (x) = 0.49321 0.08055
# Poissons Ratio (y) = 0.16026 0.10273
# Poissons Ratio (z) = 0.07468 0.29308
#
# Static dielectric constant tensor:
#      x y z
#    x 2.002520 0.000000 0.000000 
#    y 0.000000 2.221840 0.000000 
#    z 0.000000 0.000000 2.140950 
# 
# From -- ./inp_files/25419.got.cif
#   From: 2010.05.17/outbox.cif.g08.bks.cpg/sg23_13_cif.got.tgz:25419.got - 2010.06.04 12:02:01.
