data_PCOD9330258
_publ_section_title
;
Structure prediction by ZEFSAII (Michael W. Deem and Ramdas Pophale) SiO2 
 PCOD9330258
Probable space group: I 2 2 2
;
_chemical_formula_sum "Si O2"
_cell_formula_units_Z 58
_cell_length_a 24.057359
_cell_length_b 8.886836
_cell_length_c 14.347037
_cell_angle_alpha 90.000000
_cell_angle_beta 90.000000
_cell_angle_gamma 90.000000
_cell_volume 3067.307617
_symmetry_space_group_name_H-M "I 2 2 2"
_symmetry_group_IT_number 23
_symmetry_cell_setting 'orthorhombic'
loop_
_space_group_symop_operation_xyz
x,y,z
-x,-y,z
x,-y,-z
-x,y,-z
1/2+x,1/2+y,1/2+z
1/2-x,1/2-y,1/2+z
1/2+x,1/2-y,1/2-z
1/2-x,1/2+y,1/2-z
loop_
_atom_site_type_symbol
_atom_site_label
_atom_site_fract_x
_atom_site_fract_y
_atom_site_fract_z
Si Si1 0.015197 0.161258 0.684343
Si Si2 0.922353 0.831229 0.022083
Si Si3 0.211949 0.163645 0.033050
Si Si4 0.710595 0.822651 0.715760
Si Si5 0.500000 0.500000 0.000000
Si Si6 0.422520 0.826702 0.285278
Si Si7 0.085680 0.672115 0.167634
Si Si8 0.282713 0.156953 0.359094
O O1 0.063690 0.231354 0.745782
O O2 0.961441 0.267787 0.701466
O O3 0.027973 0.113685 0.576593
O O4 0.000000 0.000000 0.727907
O O5 0.855132 0.836950 0.028936
O O6 0.939192 0.766879 0.122243
O O7 0.936174 0.727675 0.933014
O O8 0.940564 0.000000 0.000000
O O9 0.227515 0.201235 0.137697
O O10 0.228155 0.302422 0.966547
O O11 0.231755 0.000000 0.000000
O O12 0.643906 0.811143 0.731666
O O13 0.745090 0.776020 0.804937
O O14 0.725640 0.986633 0.675074
O O15 0.430680 0.000864 0.311094
O O16 0.152189 0.685607 0.160745
#
# Coordination Sequence:
#
# PCOD9330258 Si02
#       8
#     8   8   8   8   2   8   8   8
#     4  10  21  40  62  80 105 145 190 237 294 341
#     4   9  17  30  52  86 120 153 175 216 274 336
#     4   9  17  31  51  75 110 147 183 223 277 332
#     4  10  20  34  54  80 113 151 189 230 283 340
#     4   8  24  44  62  78 108 140 186 264 304 332
#     4  10  20  35  57  86 117 149 187 234 286 349
#     4  10  20  35  57  86 117 149 187 234 286 349
#     4  10  20  34  54  80 113 151 189 230 283 340
#
# _framework density 18.909091
#
# number of rings (size 3 to 8) (size 9 to 14) (size 15 to 20)
#    0.414    1.931    0.000    2.897    0.000    7.172 
#    0.000    5.517    0.000    3.310    0.000    0.000 
#    0.000    0.000    0.000    0.000    0.000    0.000 
#
# Total GULP energy -161532.516500 kJ/mol
# GULP energy per Si atom -5570.086776 kJ/mol
# Density = 1.886605 g / cm^3
# Si number density = 18.909091 Si / 1000 Ang^3
#
#
#
# Elastic Constant Matrix: (Units=GPa)
#
#
# Indices 1 2 3 4 5 6 
#
# 1 31.6487 13.7843 7.0256 0.0000 0.0000 0.0000
# 2 13.7843 80.6347 17.0785 0.0000 0.0000 0.0000
# 3 7.0256 17.0785 83.6663 0.0000 0.0000 0.0000
# 4 0.0000 0.0000 0.0000 32.5849 0.0000 0.0000
# 5 0.0000 0.0000 0.0000 0.0000 13.3944 0.0000
# 6 0.0000 0.0000 0.0000 0.0000 0.0000 17.6510
#
#
#
# Elastic Compliance Matrix: (Units=1/GPa)
#
#
# Indices 1 2 3 4 5 6 
#
# 1 0.034386 -0.005505 -0.001764 0.000000 0.000000 0.000000
# 2 -0.005505 0.013843 -0.002364 0.000000 0.000000 0.000000
# 3 -0.001764 -0.002364 0.012583 0.000000 0.000000 0.000000
# 4 0.000000 0.000000 0.000000 0.030689 0.000000 0.000000
# 5 0.000000 0.000000 0.000000 0.000000 0.074658 0.000000
# 6 0.000000 0.000000 0.000000 0.000000 0.000000 0.056654
#
#
# Mechanical properties :
#
#
# Convention : Reuss Voigt Hill
#
# Bulk Modulus (GPa) = 24.06853 30.19184 27.13018
# Shear Modulus (GPa) = 19.53687 23.26348 21.40018
#
# Velocity S-wave (km/s) = 3.21783 3.51134 3.36778
# Velocity P-wave (km/s) = 5.15384 5.69569 5.43153
#
# Compressibility (1/GPa) = 0.04154803
#
# Stress axis : x y z
#
# Youngs Moduli (GPa) = 29.08167 72.23759 79.47346
#
# Poissons Ratio (x) = 0.39764 0.14018
# Poissons Ratio (y) = 0.16008 0.18784
# Poissons Ratio (z) = 0.05129 0.17074
#
# Static dielectric constant tensor:
#      x y z
#    x 1.675280 0.000000 0.000000 
#    y 0.000000 1.666990 0.000000 
#    z 0.000000 0.000000 1.639050 
# 
# From -- ./inp_files/22585.got.cif
#   From: 2010.05.17/outbox.cif.g08.bks.cpg/sg23_12_cif.got.tgz:22585.got - 2010.06.04 12:02:01.
