data_PCOD9330809
_publ_section_title
;
Structure prediction by ZEFSAII (Michael W. Deem and Ramdas Pophale) SiO2 
 PCOD9330809
Probable space group: I 2 2 2
;
_chemical_formula_sum "Si O2"
_cell_formula_units_Z 40
_cell_length_a 9.192540
_cell_length_b 21.272371
_cell_length_c 9.248239
_cell_angle_alpha 90.000000
_cell_angle_beta 90.000000
_cell_angle_gamma 90.000000
_cell_volume 1808.466514
_symmetry_space_group_name_H-M "I 2 2 2"
_symmetry_group_IT_number 23
_symmetry_cell_setting 'orthorhombic'
loop_
_space_group_symop_operation_xyz
x,y,z
-x,-y,z
x,-y,-z
-x,y,-z
1/2+x,1/2+y,1/2+z
1/2-x,1/2-y,1/2+z
1/2+x,1/2-y,1/2-z
1/2-x,1/2+y,1/2-z
loop_
_atom_site_type_symbol
_atom_site_label
_atom_site_fract_x
_atom_site_fract_y
_atom_site_fract_z
Si Si1 0.247285 0.212358 0.887066
Si Si2 0.791901 0.336981 0.287952
Si Si3 0.432421 0.853191 0.355553
Si Si4 0.649470 0.432943 0.928621
Si Si5 0.011694 0.104169 0.843396
O O1 0.223392 0.283142 0.834024
O O2 0.361748 0.190309 0.765824
O O3 0.104127 0.169331 0.861020
O O4 0.298772 0.196705 0.051946
O O5 0.647695 0.378386 0.289372
O O6 0.929991 0.378517 0.237491
O O7 0.500000 0.823228 0.500000
O O8 0.301247 0.895849 0.417732
O O9 0.600739 0.438871 0.763499
O O10 0.670965 0.500000 0.000000
O O11 0.500000 0.403537 0.000000
O O12 0.000000 0.075661 0.000000
#
# Coordination Sequence:
#
# PCOD9330809 Si02
#       5
#     8   8   8   8   8
#     4  10  21  35  57  91 134 179 214 249 305 380
#     4  11  20  35  58  92 131 172 214 256 305 377
#     4  11  22  36  58  89 126 166 210 262 314 367
#     4  10  22  42  64  87 112 152 211 272 332 389
#     4   9  20  38  60  86 123 166 210 258 317 379
#
# _framework density 22.118188
#
# number of rings (size 3 to 8) (size 9 to 14) (size 15 to 20)
#    0.000    1.800    0.000    4.200    0.000    3.600 
#    0.000    3.000    0.000    0.000    0.000   16.800 
#    0.000    0.000    0.000    0.000    0.000    0.000 
#
# Total GULP energy -111483.394158 kJ/mol
# GULP energy per Si atom -5574.169708 kJ/mol
# Density = 2.206785 g / cm^3
# Si number density = 22.118188 Si / 1000 Ang^3
#
#
#
# Elastic Constant Matrix: (Units=GPa)
#
#
# Indices 1 2 3 4 5 6 
#
# 1 161.4992 33.9253 71.1121 0.0000 -0.0002 0.0000
# 2 33.9253 61.2034 43.2483 0.0000 0.0001 0.0000
# 3 71.1121 43.2483 160.4849 0.0000 -0.0006 0.0000
# 4 0.0000 0.0000 0.0000 27.7772 0.0000 0.0000
# 5 -0.0002 0.0001 -0.0006 0.0000 327.2340 -0.0001
# 6 0.0000 0.0000 0.0000 0.0000 -0.0001 12.0848
#
#
#
# Elastic Compliance Matrix: (Units=1/GPa)
#
#
# Indices 1 2 3 4 5 6 
#
# 1 0.007962 -0.002372 -0.002889 0.000000 0.000000 0.000000
# 2 -0.002372 0.020889 -0.004578 0.000000 0.000000 0.000000
# 3 -0.002889 -0.004578 0.008745 0.000000 0.000000 0.000000
# 4 0.000000 0.000000 0.000000 0.036001 0.000000 0.000000
# 5 0.000000 0.000000 0.000000 0.000000 0.003056 0.000000
# 6 0.000000 0.000000 0.000000 0.000000 0.000000 0.082748
#
#
# Mechanical properties :
#
#
# Convention : Reuss Voigt Hill
#
# Bulk Modulus (GPa) = 55.81039 75.52875 65.66957
# Shear Modulus (GPa) = 27.01940 89.07933 58.04936
#
# Velocity S-wave (km/s) = 3.49892 6.35308 5.12855
# Velocity P-wave (km/s) = 6.45065 9.38283 8.05135
#
# Compressibility (1/GPa) = 0.01791781
#
# Stress axis : x y z
#
# Youngs Moduli (GPa) = 125.59101 47.87228 114.35164
#
# Poissons Ratio (x) = 0.11356 0.33035
# Poissons Ratio (y) = 0.29792 0.52352
# Poissons Ratio (z) = 0.36282 0.21917
#
# Static dielectric constant tensor:
#      x y z
#    x 1.919110 0.000000 0.000000 
#    y 0.000000 1.230110 0.000000 
#    z 0.000000 0.000000 1.874420 
# 
# From -- ./inp_files/6890.got.cif
#   From: 2010.05.17/outbox.cif.g08.bks.cpg/sg23_4_cif.got.tgz:6890.got - 2010.06.04 12:02:01.
