data_PCOD9330231
_publ_section_title
;
Structure prediction by ZEFSAII (Michael W. Deem and Ramdas Pophale) SiO2 
 PCOD9330231
Probable space group: I 2 2 2
;
_chemical_formula_sum "Si O2"
_cell_formula_units_Z 44
_cell_length_a 14.210702
_cell_length_b 7.275321
_cell_length_c 18.568882
_cell_angle_alpha 90.000000
_cell_angle_beta 90.000000
_cell_angle_gamma 90.000000
_cell_volume 1919.788778
_symmetry_space_group_name_H-M "I 2 2 2"
_symmetry_group_IT_number 23
_symmetry_cell_setting 'orthorhombic'
loop_
_space_group_symop_operation_xyz
x,y,z
-x,-y,z
x,-y,-z
-x,y,-z
1/2+x,1/2+y,1/2+z
1/2-x,1/2-y,1/2+z
1/2+x,1/2-y,1/2-z
1/2-x,1/2+y,1/2-z
loop_
_atom_site_type_symbol
_atom_site_label
_atom_site_fract_x
_atom_site_fract_y
_atom_site_fract_z
Si Si1 0.607931 0.775552 0.497769
Si Si2 0.717646 0.224257 0.363286
Si Si3 0.500000 0.000000 0.256537
Si Si4 0.854591 0.302260 0.158879
Si Si5 0.113330 0.018695 0.585079
Si Si6 0.165896 0.739057 0.711577
O O1 0.500000 0.720813 0.500000
O O2 0.668224 0.708595 0.564401
O O3 0.644093 0.721272 0.420070
O O4 0.610124 0.000000 0.500000
O O5 0.828928 0.194496 0.381892
O O6 0.673420 0.319104 0.292728
O O7 0.681201 0.014062 0.349539
O O8 0.544118 0.835344 0.304905
O O9 0.412152 0.919873 0.212883
O O10 0.776297 0.195521 0.203115
O O11 0.143322 0.000000 0.500000
O O12 0.141600 0.861172 0.642298
O O13 0.000000 0.000000 0.584697
#
# Coordination Sequence:
#
# PCOD9330231 Si02
#       6
#     8   8   4   8   8   8
#     4   9  14  25  48  77 110 142 182 239 297 357
#     4   9  17  30  49  82 114 144 195 247 304 364
#     4  10  20  34  55  87 128 160 210 258 316 369
#     4   9  17  30  50  79 116 154 194 242 306 371
#     4  10  21  37  58  85 118 160 208 253 306 374
#     4  10  20  33  55  86 121 158 200 261 311 365
#
# _framework density 22.919188999999999
#
# number of rings (size 3 to 8) (size 9 to 14) (size 15 to 20)
#    0.000    2.545    0.000    6.000    2.545    0.000 
#    0.000    0.000    0.000    2.182   18.909    0.000 
#    0.000    0.000    0.000    0.000    0.000    0.000 
#
# Total GULP energy -122477.154537 kJ/mol
# GULP energy per Si atom -5567.143388 kJ/mol
# Density = 2.286702 g / cm^3
# Si number density = 22.919189 Si / 1000 Ang^3
#
#
#
# Elastic Constant Matrix: (Units=GPa)
#
#
# Indices 1 2 3 4 5 6 
#
# 1 143.0804 20.3736 49.8601 0.0000 0.0000 0.0000
# 2 20.3736 70.4962 28.2329 0.0000 0.0000 0.0000
# 3 49.8601 28.2329 161.8490 0.0000 0.0000 0.0000
# 4 0.0000 0.0000 0.0000 10.1770 0.0000 0.0000
# 5 0.0000 0.0000 0.0000 0.0000 183.4055 0.0000
# 6 0.0000 0.0000 0.0000 0.0000 0.0000 5.4917
#
#
#
# Elastic Compliance Matrix: (Units=1/GPa)
#
#
# Indices 1 2 3 4 5 6 
#
# 1 0.007959 -0.001417 -0.002205 0.000000 0.000000 0.000000
# 2 -0.001417 0.015503 -0.002268 0.000000 0.000000 0.000000
# 3 -0.002205 -0.002268 0.007253 0.000000 0.000000 0.000000
# 4 0.000000 0.000000 0.000000 0.098261 0.000000 0.000000
# 5 0.000000 0.000000 0.000000 0.000000 0.005452 0.000000
# 6 0.000000 0.000000 0.000000 0.000000 0.000000 0.182093
#
#
# Mechanical properties :
#
#
# Convention : Reuss Voigt Hill
#
# Bulk Modulus (GPa) = 52.80919 63.59543 58.20231
# Shear Modulus (GPa) = 14.94265 58.27880 36.61072
#
# Velocity S-wave (km/s) = 2.55614 5.04808 4.00106
# Velocity P-wave (km/s) = 5.63944 7.86037 6.84064
#
# Compressibility (1/GPa) = 0.01893610
#
# Stress axis : x y z
#
# Youngs Moduli (GPa) = 125.64117 64.50390 137.86685
#
# Poissons Ratio (x) = 0.09142 0.30396
# Poissons Ratio (y) = 0.17807 0.31264
# Poissons Ratio (z) = 0.27700 0.14628
#
# Static dielectric constant tensor:
#      x y z
#    x 1.927940 0.000000 0.000000 
#    y 0.000000 1.941230 0.000000 
#    z 0.000000 0.000000 1.983950 
# 
# From -- ./inp_files/24680.got.cif
#   From: 2010.05.17/outbox.cif.g08.bks.cpg/sg23_13_cif.got.tgz:24680.got - 2010.06.04 12:02:01.
