data_PCOD9330782
_publ_section_title
;
Structure prediction by ZEFSAII (Michael W. Deem and Ramdas Pophale) SiO2 
 PCOD9330782
Probable space group: I 2 2 2
;
_chemical_formula_sum "Si O2"
_cell_formula_units_Z 40
_cell_length_a 6.467536
_cell_length_b 24.894945
_cell_length_c 12.224290
_cell_angle_alpha 90.000000
_cell_angle_beta 90.000000
_cell_angle_gamma 90.000000
_cell_volume 1968.220134
_symmetry_space_group_name_H-M "I 2 2 2"
_symmetry_group_IT_number 23
_symmetry_cell_setting 'orthorhombic'
loop_
_space_group_symop_operation_xyz
x,y,z
-x,-y,z
x,-y,-z
-x,y,-z
1/2+x,1/2+y,1/2+z
1/2-x,1/2-y,1/2+z
1/2+x,1/2-y,1/2-z
1/2-x,1/2+y,1/2-z
loop_
_atom_site_type_symbol
_atom_site_label
_atom_site_fract_x
_atom_site_fract_y
_atom_site_fract_z
Si Si1 0.500000 0.903478 0.500000
Si Si2 0.713177 0.625709 0.686690
Si Si3 0.045377 0.687238 0.835103
Si Si4 0.840811 0.797171 0.860901
Si Si5 0.500000 0.858896 0.000000
Si Si6 0.391687 0.442420 0.892276
O O1 0.394587 0.860881 0.416651
O O2 0.654527 0.940097 0.431134
O O3 0.866838 0.662037 0.758933
O O4 0.528624 0.661161 0.639275
O O5 0.610743 0.585283 0.773965
O O6 0.863272 0.607460 0.587317
O O7 0.935650 0.739202 0.886210
O O8 0.237585 0.704570 0.760076
O O9 0.661593 0.819954 0.938258
O O10 0.500000 0.500000 0.882283
O O11 0.500000 0.416095 0.000000
#
# Coordination Sequence:
#
# PCOD9330782 Si02
#       6
#     4   8   8   8   4   8
#     4  10  22  37  56  94 130 158 213 274 328 402
#     4  10  21  40  58  90 128 168 221 268 320 403
#     4  10  21  33  56  86 130 170 210 264 321 391
#     4  11  20  36  55  86 127 176 220 261 317 398
#     4  10  24  36  58  85 130 182 219 264 328 390
#     4  10  22  42  68  95 121 165 214 282 352 394
#
# _framework density 20.322928999999998
#
# number of rings (size 3 to 8) (size 9 to 14) (size 15 to 20)
#    0.000    1.800    2.000    1.800    2.800    1.600 
#    7.200    0.000    0.000    3.600    0.000   11.200 
#    0.000    0.000    0.000    0.000    0.000    0.000 
#
# Total GULP energy -111484.112755 kJ/mol
# GULP energy per Si atom -5574.205638 kJ/mol
# Density = 2.027667 g / cm^3
# Si number density = 20.322929 Si / 1000 Ang^3
#
#
#
# Elastic Constant Matrix: (Units=GPa)
#
#
# Indices 1 2 3 4 5 6 
#
# 1 77.7584 47.6163 33.6287 0.0000 0.0000 0.0000
# 2 47.6163 88.6294 45.1115 0.0000 0.0000 0.0000
# 3 33.6287 45.1115 109.5191 0.0001 0.0000 0.0000
# 4 0.0000 0.0000 0.0001 16.1476 0.0000 0.0000
# 5 0.0000 0.0000 0.0000 0.0000 31.1159 0.0000
# 6 0.0000 0.0000 0.0000 0.0000 0.0000 20.9717
#
#
#
# Elastic Compliance Matrix: (Units=1/GPa)
#
#
# Indices 1 2 3 4 5 6 
#
# 1 0.019548 -0.009422 -0.002121 0.000000 0.000000 0.000000
# 2 -0.009422 0.018818 -0.004858 0.000000 0.000000 0.000000
# 3 -0.002121 -0.004858 0.011783 0.000000 0.000000 0.000000
# 4 0.000000 0.000000 0.000000 0.061929 0.000000 0.000000
# 5 0.000000 0.000000 0.000000 0.000000 0.032138 0.000000
# 6 0.000000 0.000000 0.000000 0.000000 0.000000 0.047683
#
#
# Mechanical properties :
#
#
# Convention : Reuss Voigt Hill
#
# Bulk Modulus (GPa) = 57.65121 58.73551 58.19336
# Shear Modulus (GPa) = 21.69358 23.61707 22.65532
#
# Velocity S-wave (km/s) = 3.27072 3.41264 3.34243
# Velocity P-wave (km/s) = 6.53396 6.67023 6.60245
#
# Compressibility (1/GPa) = 0.01734569
#
# Stress axis : x y z
#
# Youngs Moduli (GPa) = 51.15727 53.14134 84.86705
#
# Poissons Ratio (x) = 0.50072 0.18001
# Poissons Ratio (y) = 0.48202 0.41228
# Poissons Ratio (z) = 0.10851 0.25816
#
# Static dielectric constant tensor:
#      x y z
#    x 1.730270 0.000000 0.000000 
#    y 0.000000 1.695480 0.000000 
#    z 0.000000 0.000000 1.814260 
# 
# From -- ./inp_files/13910.got.cif
#   From: 2010.05.17/outbox.cif.g08.bks.cpg/sg23_7_cif.got.tgz:13910.got - 2010.06.04 12:02:01.
