data_PCOD9330330
_publ_section_title
;
Structure prediction by ZEFSAII (Michael W. Deem and Ramdas Pophale) SiO2 
 PCOD9330330
Probable space group: I 2 2 2
;
_chemical_formula_sum "Si O2"
_cell_formula_units_Z 56
_cell_length_a 11.416270
_cell_length_b 18.642043
_cell_length_c 14.313496
_cell_angle_alpha 90.000000
_cell_angle_beta 90.000000
_cell_angle_gamma 90.000000
_cell_volume 3046.235380
_symmetry_space_group_name_H-M "I 2 2 2"
_symmetry_group_IT_number 23
_symmetry_cell_setting 'orthorhombic'
loop_
_space_group_symop_operation_xyz
x,y,z
-x,-y,z
x,-y,-z
-x,y,-z
1/2+x,1/2+y,1/2+z
1/2-x,1/2-y,1/2+z
1/2+x,1/2-y,1/2-z
1/2-x,1/2+y,1/2-z
loop_
_atom_site_type_symbol
_atom_site_label
_atom_site_fract_x
_atom_site_fract_y
_atom_site_fract_z
Si Si1 0.786635 0.214940 0.760349
Si Si2 0.437107 0.155328 0.322591
Si Si3 0.491381 0.685513 0.389927
Si Si4 0.421659 0.428822 0.245828
Si Si5 0.308169 0.124466 0.692423
Si Si6 0.293318 0.916369 0.518076
Si Si7 0.936655 0.157418 0.592908
O O1 0.671260 0.168234 0.746054
O O2 0.860688 0.186229 0.847611
O O3 0.759367 0.298264 0.775857
O O4 0.869642 0.208077 0.667797
O O5 0.463001 0.235275 0.362020
O O6 0.555535 0.123278 0.279439
O O7 0.389803 0.107823 0.407522
O O8 0.500000 0.676333 0.500000
O O9 0.557206 0.622685 0.334265
O O10 0.500000 0.500000 0.255178
O O11 0.282299 0.435569 0.228441
O O12 0.470814 0.386896 0.154662
O O13 0.311036 0.122906 0.580260
O O14 0.166074 0.894870 0.557086
O O15 0.300304 0.000000 0.500000
O O16 0.000000 0.188038 0.500000
#
# Coordination Sequence:
#
# PCOD9330330 Si02
#       7
#     8   8   8   8   8   8   8
#     4   9  20  36  57  86 117 153 203 241 291 358
#     4  10  20  36  57  84 117 157 198 235 298 367
#     4  10  20  38  60  82 112 155 202 254 293 345
#     4  11  22  36  56  84 114 152 200 248 309 354
#     4  11  20  35  57  77 120 161 189 247 292 360
#     4  11  22  34  54  87 123 159 197 238 305 378
#     4  10  20  35  57  86 120 156 196 246 295 368
#
# _framework density 18.383344999999998
#
# number of rings (size 3 to 8) (size 9 to 14) (size 15 to 20)
#    0.000    1.714    2.857    3.000    0.000    1.429 
#    0.000    0.000    0.000    0.000    0.000    0.000 
#    0.000    4.857    0.000    0.000    0.000    0.000 
#
# Total GULP energy -156249.191235 kJ/mol
# GULP energy per Si atom -5580.328258 kJ/mol
# Density = 1.834150 g / cm^3
# Si number density = 18.383345 Si / 1000 Ang^3
#
#
#
# Elastic Constant Matrix: (Units=GPa)
#
#
# Indices 1 2 3 4 5 6 
#
# 1 132.2136 27.9704 45.9284 0.0000 0.0000 0.0000
# 2 27.9704 65.1261 30.9670 0.0000 0.0000 0.0000
# 3 45.9284 30.9670 100.5647 0.0000 0.0000 0.0000
# 4 0.0000 0.0000 0.0000 15.9525 0.0000 0.0000
# 5 0.0000 0.0000 0.0000 0.0000 19.3646 0.0000
# 6 0.0000 0.0000 0.0000 0.0000 0.0000 13.1070
#
#
#
# Elastic Compliance Matrix: (Units=1/GPa)
#
#
# Indices 1 2 3 4 5 6 
#
# 1 0.009277 -0.002307 -0.003526 0.000000 0.000000 0.000000
# 2 -0.002307 0.018563 -0.004662 0.000000 0.000000 0.000000
# 3 -0.003526 -0.004662 0.012990 0.000000 0.000000 0.000000
# 4 0.000000 0.000000 0.000000 0.062686 0.000000 0.000000
# 5 0.000000 0.000000 0.000000 0.000000 0.051641 0.000000
# 6 0.000000 0.000000 0.000000 0.000000 0.000000 0.076295
#
#
# Mechanical properties :
#
#
# Convention : Reuss Voigt Hill
#
# Bulk Modulus (GPa) = 50.40938 56.40399 53.40668
# Shear Modulus (GPa) = 19.30092 22.55407 20.92749
#
# Velocity S-wave (km/s) = 3.24375 3.50648 3.37767
# Velocity P-wave (km/s) = 6.44282 6.86604 6.65780
#
# Compressibility (1/GPa) = 0.01983758
#
# Stress axis : x y z
#
# Youngs Moduli (GPa) = 107.79839 53.87153 76.98305
#
# Poissons Ratio (x) = 0.12431 0.27145
# Poissons Ratio (y) = 0.24874 0.35891
# Poissons Ratio (z) = 0.38011 0.25116
#
# Static dielectric constant tensor:
#      x y z
#    x 1.700380 0.000000 0.000000 
#    y 0.000000 1.631070 0.000000 
#    z 0.000000 0.000000 1.622640 
# 
# From -- ./inp_files/20914.got.cif
#   From: 2010.05.17/outbox.cif.g08.bks.cpg/sg23_11_cif.got.tgz:20914.got - 2010.06.04 12:02:01.
