data_PCOD9330873
_publ_section_title
;
Structure prediction by ZEFSAII (Michael W. Deem and Ramdas Pophale) SiO2 
 PCOD9330873
Probable space group: I 2 2 2
;
_chemical_formula_sum "Si O2"
_cell_formula_units_Z 42
_cell_length_a 25.069338
_cell_length_b 7.452287
_cell_length_c 10.105592
_cell_angle_alpha 90.000000
_cell_angle_beta 90.000000
_cell_angle_gamma 90.000000
_cell_volume 1887.966126
_symmetry_space_group_name_H-M "I 2 2 2"
_symmetry_group_IT_number 23
_symmetry_cell_setting 'orthorhombic'
loop_
_space_group_symop_operation_xyz
x,y,z
-x,-y,z
x,-y,-z
-x,y,-z
1/2+x,1/2+y,1/2+z
1/2-x,1/2-y,1/2+z
1/2+x,1/2-y,1/2-z
1/2-x,1/2+y,1/2-z
loop_
_atom_site_type_symbol
_atom_site_label
_atom_site_fract_x
_atom_site_fract_y
_atom_site_fract_z
Si Si1 0.892006 0.172160 0.175493
Si Si2 0.696539 0.156422 0.322039
Si Si3 0.583262 0.743560 0.612767
Si Si4 0.000000 0.500000 0.500000
Si Si5 0.494851 0.713492 0.802006
Si Si6 0.722394 0.751606 0.392065
O O1 0.931314 0.243205 0.288970
O O2 0.828585 0.171944 0.186694
O O3 0.907573 0.967168 0.145394
O O4 0.906752 0.277336 0.041205
O O5 0.632531 0.160614 0.314885
O O6 0.714654 0.279902 0.449553
O O7 0.723971 0.197830 0.182597
O O8 0.715663 0.961624 0.364880
O O9 0.523602 0.764536 0.664539
O O10 0.023970 0.350517 0.401015
O O11 0.500000 0.500000 0.832276
#
# Coordination Sequence:
#
# PCOD9330873 Si02
#       6
#     8   8   8   2   8   8
#     4   9  18  36  63  88 113 145 190 246 305 354
#     4  10  21  37  57  85 117 151 196 246 295 356
#     4   9  18  36  63  88 113 145 190 246 305 354
#     4  12  26  40  58  82 128 164 210 230 296 356
#     4  10  22  41  61  87 121 158 197 248 294 356
#     4  10  21  37  57  85 117 151 196 246 295 356
#
# _framework density 22.246158999999999
#
# number of rings (size 3 to 8) (size 9 to 14) (size 15 to 20)
#    0.000    2.286    0.000    2.000    2.667    4.571 
#    3.429    0.952    0.000    0.000    0.000    0.000 
#    0.000    0.000    0.000    0.000    0.000    0.000 
#
# Total GULP energy -116932.421991 kJ/mol
# GULP energy per Si atom -5568.210571 kJ/mol
# Density = 2.219553 g / cm^3
# Si number density = 22.246159 Si / 1000 Ang^3
#
#
#
# Elastic Constant Matrix: (Units=GPa)
#
#
# Indices 1 2 3 4 5 6 
#
# 1 82.7144 7.5001 14.7671 0.0000 0.0000 0.0000
# 2 7.5001 54.4810 14.8549 0.0000 0.0000 0.0000
# 3 14.7671 14.8549 43.3389 0.0000 0.0000 0.0000
# 4 0.0000 0.0000 0.0000 20.9419 0.0000 0.0000
# 5 0.0000 0.0000 0.0000 0.0000 9.2019 0.0000
# 6 0.0000 0.0000 0.0000 0.0000 0.0000 37.2793
#
#
#
# Elastic Compliance Matrix: (Units=1/GPa)
#
#
# Indices 1 2 3 4 5 6 
#
# 1 0.012893 -0.000637 -0.004175 0.000000 0.000000 0.000000
# 2 -0.000637 0.020279 -0.006734 0.000000 0.000000 0.000000
# 3 -0.004175 -0.006734 0.026805 0.000000 0.000000 0.000000
# 4 0.000000 0.000000 0.000000 0.047751 0.000000 0.000000
# 5 0.000000 0.000000 0.000000 0.000000 0.108673 0.000000
# 6 0.000000 0.000000 0.000000 0.000000 0.000000 0.026825
#
#
# Mechanical properties :
#
#
# Convention : Reuss Voigt Hill
#
# Bulk Modulus (GPa) = 27.11087 28.30874 27.70980
# Shear Modulus (GPa) = 17.94619 23.04542 20.49580
#
# Velocity S-wave (km/s) = 2.84334 3.22208 3.03862
# Velocity P-wave (km/s) = 4.79507 5.15705 4.97935
#
# Compressibility (1/GPa) = 0.03688558
#
# Stress axis : x y z
#
# Youngs Moduli (GPa) = 77.56230 49.31283 37.30705
#
# Poissons Ratio (x) = 0.03139 0.15575
# Poissons Ratio (y) = 0.04937 0.25122
# Poissons Ratio (z) = 0.32381 0.33206
#
# Static dielectric constant tensor:
#      x y z
#    x 1.850900 0.000000 0.000000 
#    y 0.000000 1.893470 0.000000 
#    z 0.000000 0.000000 1.866090 
# 
# From -- ./inp_files/18262.got.cif
#   From: 2010.05.17/outbox.cif.g08.bks.cpg/sg23_10_cif.got.tgz:18262.got - 2010.06.04 12:02:01.
