data_PCOD9330616
_publ_section_title
;
Structure prediction by ZEFSAII (Michael W. Deem and Ramdas Pophale) SiO2 
 PCOD9330616
Probable space group: I 2 2 2
;
_chemical_formula_sum "Si O2"
_cell_formula_units_Z 28
_cell_length_a 8.072089
_cell_length_b 5.365539
_cell_length_c 28.220834
_cell_angle_alpha 90.000000
_cell_angle_beta 90.000000
_cell_angle_gamma 90.000000
_cell_volume 1222.275599
_symmetry_space_group_name_H-M "I 2 2 2"
_symmetry_group_IT_number 23
_symmetry_cell_setting 'orthorhombic'
loop_
_space_group_symop_operation_xyz
x,y,z
-x,-y,z
x,-y,-z
-x,y,-z
1/2+x,1/2+y,1/2+z
1/2-x,1/2-y,1/2+z
1/2+x,1/2-y,1/2-z
1/2-x,1/2+y,1/2-z
loop_
_atom_site_type_symbol
_atom_site_label
_atom_site_fract_x
_atom_site_fract_y
_atom_site_fract_z
Si Si1 0.000000 0.500000 0.332683
Si Si2 0.286639 0.669714 0.220827
Si Si3 0.667294 0.345285 0.629062
Si Si4 0.689160 0.246270 0.520114
O O1 0.035828 0.261149 0.299843
O O2 0.168272 0.515319 0.362571
O O3 0.268401 0.428729 0.253119
O O4 0.179688 0.651126 0.172499
O O5 0.500000 0.500000 0.633005
O O6 0.679502 0.237401 0.576619
O O7 0.765600 0.500000 0.500000
O O8 0.500000 0.247782 0.500000
O O9 0.772296 0.000000 0.500000
#
# Coordination Sequence:
#
# PCOD9330616 Si02
#       4
#     4   8   8   8
#     4   8  24  40  65 102 140 172 243 278 346 424
#     4  10  24  42  65  99 139 180 227 286 342 412
#     4  10  21  41  69  98 137 186 222 297 348 411
#     4  10  20  39  64  95 132 172 230 278 345 417
#
# _framework density 22.908089
#
# number of rings (size 3 to 8) (size 9 to 14) (size 15 to 20)
#    1.714    0.571    2.857    0.000    4.000    2.286 
#    0.000    0.714    0.000    3.429    0.000    0.000 
#    0.000    0.000    0.000    0.000    0.000    0.000 
#
# Total GULP energy -78041.319808 kJ/mol
# GULP energy per Si atom -5574.379986 kJ/mol
# Density = 2.285595 g / cm^3
# Si number density = 22.908089 Si / 1000 Ang^3
#
#
#
# Elastic Constant Matrix: (Units=GPa)
#
#
# Indices 1 2 3 4 5 6 
#
# 1 123.2146 18.9788 32.4083 0.0000 0.0000 0.0000
# 2 18.9788 135.0337 55.1132 0.0000 0.0000 0.0000
# 3 32.4083 55.1132 204.4014 0.0000 0.0000 0.0000
# 4 0.0000 0.0000 0.0000 41.9102 0.0000 0.0000
# 5 0.0000 0.0000 0.0000 0.0000 17.9122 0.0000
# 6 0.0000 0.0000 0.0000 0.0000 0.0000 13.5735
#
#
#
# Elastic Compliance Matrix: (Units=1/GPa)
#
#
# Indices 1 2 3 4 5 6 
#
# 1 0.008532 -0.000727 -0.001157 0.000000 0.000000 0.000000
# 2 -0.000727 0.008383 -0.002145 0.000000 0.000000 0.000000
# 3 -0.001157 -0.002145 0.005654 0.000000 0.000000 0.000000
# 4 0.000000 0.000000 0.000000 0.023861 0.000000 0.000000
# 5 0.000000 0.000000 0.000000 0.000000 0.055828 0.000000
# 6 0.000000 0.000000 0.000000 0.000000 0.000000 0.073673
#
#
# Mechanical properties :
#
#
# Convention : Reuss Voigt Hill
#
# Bulk Modulus (GPa) = 68.90996 75.07226 71.99111
# Shear Modulus (GPa) = 26.47944 38.42249 32.45096
#
# Velocity S-wave (km/s) = 3.40354 4.09986 3.76782
# Velocity P-wave (km/s) = 6.75217 7.43331 7.10091
#
# Compressibility (1/GPa) = 0.01451169
#
# Stress axis : x y z
#
# Youngs Moduli (GPa) = 117.20360 119.28529 176.86177
#
# Poissons Ratio (x) = 0.08673 0.20459
# Poissons Ratio (y) = 0.08521 0.37939
# Poissons Ratio (z) = 0.13558 0.25588
#
# Static dielectric constant tensor:
#      x y z
#    x 1.895960 0.000000 0.000000 
#    y 0.000000 1.740900 0.000000 
#    z 0.000000 0.000000 1.851610 
# 
# From -- ./inp_files/5699.got.cif
#   From: 2010.05.17/outbox.cif.g08.bks.cpg/sg23_3_cif.got.tgz:5699.got - 2010.06.04 12:02:01.
