data_PCOD9330618
_publ_section_title
;
Structure prediction by ZEFSAII (Michael W. Deem and Ramdas Pophale) SiO2 
 PCOD9330618
Probable space group: I 2 2 2
;
_chemical_formula_sum "Si O2"
_cell_formula_units_Z 40
_cell_length_a 16.951302
_cell_length_b 8.295730
_cell_length_c 12.294750
_cell_angle_alpha 90.000000
_cell_angle_beta 90.000000
_cell_angle_gamma 90.000000
_cell_volume 1728.929849
_symmetry_space_group_name_H-M "I 2 2 2"
_symmetry_group_IT_number 23
_symmetry_cell_setting 'orthorhombic'
loop_
_space_group_symop_operation_xyz
x,y,z
-x,-y,z
x,-y,-z
-x,y,-z
1/2+x,1/2+y,1/2+z
1/2-x,1/2-y,1/2+z
1/2+x,1/2-y,1/2-z
1/2-x,1/2+y,1/2-z
loop_
_atom_site_type_symbol
_atom_site_label
_atom_site_fract_x
_atom_site_fract_y
_atom_site_fract_z
Si Si1 0.373071 0.432515 0.607400
Si Si2 0.669967 0.063108 0.621133
Si Si3 0.697804 0.776359 0.790779
Si Si4 0.465697 0.818121 0.110426
Si Si5 0.020183 0.240118 0.847989
O O1 0.330317 0.500000 0.500000
O O2 0.323336 0.368989 0.707295
O O3 0.438014 0.288553 0.586524
O O4 0.427252 0.582282 0.637774
O O5 0.722299 0.220075 0.651520
O O6 0.577737 0.109562 0.631201
O O7 0.687590 0.000000 0.500000
O O8 0.693175 0.928653 0.709989
O O9 0.628744 0.805648 0.879256
O O10 0.495369 0.742335 0.222094
O O11 0.500000 0.000000 0.112856
O O12 0.500000 0.743459 0.000000
#
# Coordination Sequence:
#
# PCOD9330618 Si02
#       5
#     8   8   8   8   8
#     4  10  21  40  67  98 133 179 224 279 336 393
#     4  12  26  44  67 100 141 183 221 279 351 408
#     4  11  25  44  66 100 137 176 229 281 330 417
#     4  10  21  42  68  94 125 174 225 272 330 383
#     4  10  20  39  64  97 133 169 226 276 327 405
#
# _framework density 23.135698000000001
#
# number of rings (size 3 to 8) (size 9 to 14) (size 15 to 20)
#    0.000    1.400    2.000    3.600    0.000    4.800 
#    0.000    9.000    0.000    0.000    0.000    0.000 
#    0.000    0.000    0.000    0.000    0.000    0.000 
#
# Total GULP energy -111744.471352 kJ/mol
# GULP energy per Si atom -5587.223568 kJ/mol
# Density = 2.308304 g / cm^3
# Si number density = 23.135698 Si / 1000 Ang^3
#
#
#
# Elastic Constant Matrix: (Units=GPa)
#
#
# Indices 1 2 3 4 5 6 
#
# 1 119.4667 24.4800 52.5100 0.0000 0.0000 0.0000
# 2 24.4800 67.4179 34.8804 0.0000 0.0000 0.0000
# 3 52.5100 34.8804 123.9928 0.0000 0.0000 0.0000
# 4 0.0000 0.0000 0.0000 48.2389 0.0000 0.0000
# 5 0.0000 0.0000 0.0000 0.0000 9.4692 0.0000
# 6 0.0000 0.0000 0.0000 0.0000 0.0000 35.4350
#
#
#
# Elastic Compliance Matrix: (Units=1/GPa)
#
#
# Indices 1 2 3 4 5 6 
#
# 1 0.010461 -0.001763 -0.003934 0.000000 0.000000 0.000000
# 2 -0.001763 0.017657 -0.004220 0.000000 0.000000 0.000000
# 3 -0.003934 -0.004220 0.010918 0.000000 0.000000 0.000000
# 4 0.000000 0.000000 0.000000 0.020730 0.000000 0.000000
# 5 0.000000 0.000000 0.000000 0.000000 0.105606 0.000000
# 6 0.000000 0.000000 0.000000 0.000000 0.000000 0.028221
#
#
# Mechanical properties :
#
#
# Convention : Reuss Voigt Hill
#
# Bulk Modulus (GPa) = 52.08134 59.40205 55.74169
# Shear Modulus (GPa) = 22.74507 31.89574 27.32040
#
# Velocity S-wave (km/s) = 3.13887 3.71703 3.44012
# Velocity P-wave (km/s) = 5.97468 6.64477 6.31861
#
# Compressibility (1/GPa) = 0.01920074
#
# Stress axis : x y z
#
# Youngs Moduli (GPa) = 95.59289 56.63626 91.58920
#
# Poissons Ratio (x) = 0.09985 0.36033
# Poissons Ratio (y) = 0.16853 0.38654
# Poissons Ratio (z) = 0.37608 0.23902
#
# Static dielectric constant tensor:
#      x y z
#    x 1.884600 0.000000 0.000000 
#    y 0.000000 1.926780 0.000000 
#    z 0.000000 0.000000 1.893160 
# 
# From -- ./inp_files/17238.got.cif
#   From: 2010.05.17/outbox.cif.g08.bks.cpg/sg23_9_cif.got.tgz:17238.got - 2010.06.04 12:02:01.
