data_PCOD9330559
_publ_section_title
;
Structure prediction by ZEFSAII (Michael W. Deem and Ramdas Pophale) SiO2 
 PCOD9330559
Probable space group: I 2 2 2
;
_chemical_formula_sum "Si O2"
_cell_formula_units_Z 56
_cell_length_a 9.078597
_cell_length_b 13.102082
_cell_length_c 20.335927
_cell_angle_alpha 90.000000
_cell_angle_beta 90.000000
_cell_angle_gamma 90.000000
_cell_volume 2418.928467
_symmetry_space_group_name_H-M "I 2 2 2"
_symmetry_group_IT_number 23
_symmetry_cell_setting 'orthorhombic'
loop_
_space_group_symop_operation_xyz
x,y,z
-x,-y,z
x,-y,-z
-x,y,-z
1/2+x,1/2+y,1/2+z
1/2-x,1/2-y,1/2+z
1/2+x,1/2-y,1/2-z
1/2-x,1/2+y,1/2-z
loop_
_atom_site_type_symbol
_atom_site_label
_atom_site_fract_x
_atom_site_fract_y
_atom_site_fract_z
Si Si1 0.721499 0.292455 0.269934
Si Si2 0.640573 0.365633 0.865360
Si Si3 0.094102 0.749903 0.565020
Si Si4 0.663305 0.978238 0.290558
Si Si5 0.175961 0.378462 0.324885
Si Si6 0.358547 0.209265 0.525826
Si Si7 0.992553 0.881315 0.123510
O O1 0.828428 0.230246 0.317779
O O2 0.637318 0.204345 0.230841
O O3 0.613598 0.360374 0.314166
O O4 0.802279 0.360071 0.215673
O O5 0.479128 0.346079 0.896166
O O6 0.701318 0.462853 0.825492
O O7 0.754692 0.352099 0.925147
O O8 0.084318 0.650837 0.611240
O O9 0.257299 0.764496 0.536782
O O10 0.000000 0.733568 0.500000
O O11 0.659578 0.017481 0.214572
O O12 0.500000 0.000000 0.318708
O O13 0.344073 0.362261 0.348143
O O14 0.500000 0.149991 0.500000
O O15 0.426224 0.306470 0.566827
O O16 0.000000 0.000000 0.102096
#
# Coordination Sequence:
#
# PCOD9330559 Si02
#       7
#     8   8   8   8   8   8   8
#     4  10  23  37  64  93 133 165 217 273 343 412
#     4   9  22  40  65  92 129 171 220 271 339 405
#     4  10  21  41  65  87 123 177 220 269 326 402
#     4  11  23  38  63  98 133 169 220 282 343 415
#     4  11  23  38  66  92 131 177 215 274 346 407
#     4  10  20  38  64  91 124 176 222 272 334 396
#     4  11  22  40  60  95 135 173 223 282 342 412
#
# _framework density 23.150746000000002
#
# number of rings (size 3 to 8) (size 9 to 14) (size 15 to 20)
#    0.000    1.714    2.857    0.857   10.000    0.286 
#    0.000    0.000    3.143    9.857    0.000    0.000 
#    0.000    0.000    0.000    0.000    0.000    0.000 
#
# Total GULP energy -156291.479797 kJ/mol
# GULP energy per Si atom -5581.838564 kJ/mol
# Density = 2.309805 g / cm^3
# Si number density = 23.150746 Si / 1000 Ang^3
#
#
#
# Elastic Constant Matrix: (Units=GPa)
#
#
# Indices 1 2 3 4 5 6 
#
# 1 106.6386 12.4180 27.7601 0.0000 0.0000 0.0000
# 2 12.4180 44.4216 -2.8106 0.0000 0.0000 0.0000
# 3 27.7601 -2.8106 80.0258 0.0000 0.0000 0.0000
# 4 0.0000 0.0000 0.0000 9.0192 0.0000 0.0000
# 5 0.0000 0.0000 0.0000 0.0000 36.4702 0.0000
# 6 0.0000 0.0000 0.0000 0.0000 0.0000 20.8614
#
#
#
# Elastic Compliance Matrix: (Units=1/GPa)
#
#
# Indices 1 2 3 4 5 6 
#
# 1 0.010757 -0.003250 -0.003846 0.000000 0.000000 0.000000
# 2 -0.003250 0.023544 0.001954 0.000000 0.000000 0.000000
# 3 -0.003846 0.001954 0.013899 0.000000 0.000000 0.000000
# 4 0.000000 0.000000 0.000000 0.110874 0.000000 0.000000
# 5 0.000000 0.000000 0.000000 0.000000 0.027420 0.000000
# 6 0.000000 0.000000 0.000000 0.000000 0.000000 0.047935
#
#
# Mechanical properties :
#
#
# Convention : Reuss Voigt Hill
#
# Bulk Modulus (GPa) = 26.37391 33.98010 30.17701
# Shear Modulus (GPa) = 19.42873 26.18474 22.80674
#
# Velocity S-wave (km/s) = 2.90008 3.36676 3.14210
# Velocity P-wave (km/s) = 4.75720 5.46105 5.12123
#
# Compressibility (1/GPa) = 0.03791626
#
# Stress axis : x y z
#
# Youngs Moduli (GPa) = 92.96198 42.47383 71.94949
#
# Poissons Ratio (x) = 0.13806 0.27670
# Poissons Ratio (y) = 0.30217 -0.14062
# Poissons Ratio (z) = 0.35750 -0.08301
#
# Static dielectric constant tensor:
#      x y z
#    x 1.930260 0.000000 0.000000 
#    y 0.000000 1.876630 0.000000 
#    z 0.000000 0.000000 1.891390 
# 
# From -- ./inp_files/20210.got.cif
#   From: 2010.05.17/outbox.cif.g08.bks.cpg/sg23_11_cif.got.tgz:20210.got - 2010.06.04 12:02:01.
