data_PCOD9330560
_publ_section_title
;
Structure prediction by ZEFSAII (Michael W. Deem and Ramdas Pophale) SiO2 
 PCOD9330560
Probable space group: I 2 2 2
;
_chemical_formula_sum "Si O2"
_cell_formula_units_Z 36
_cell_length_a 8.959908
_cell_length_b 18.895176
_cell_length_c 10.067098
_cell_angle_alpha 90.000000
_cell_angle_beta 90.000000
_cell_angle_gamma 90.000000
_cell_volume 1704.350013
_symmetry_space_group_name_H-M "I 2 2 2"
_symmetry_group_IT_number 23
_symmetry_cell_setting 'orthorhombic'
loop_
_space_group_symop_operation_xyz
x,y,z
-x,-y,z
x,-y,-z
-x,y,-z
1/2+x,1/2+y,1/2+z
1/2-x,1/2-y,1/2+z
1/2+x,1/2-y,1/2-z
1/2-x,1/2+y,1/2-z
loop_
_atom_site_type_symbol
_atom_site_label
_atom_site_fract_x
_atom_site_fract_y
_atom_site_fract_z
Si Si1 0.500000 0.000000 0.500000
Si Si2 0.301352 0.160655 0.270240
Si Si3 0.680893 0.918356 0.000126
Si Si4 0.753060 0.597250 0.052703
Si Si5 0.500000 0.500000 0.000000
Si Si6 0.846542 0.309013 0.733382
O O1 0.605239 0.951205 0.589542
O O2 0.273809 0.110402 0.396411
O O3 0.201501 0.229657 0.297197
O O4 0.475655 0.183324 0.256383
O O5 0.265182 0.120528 0.133711
O O6 0.709840 0.866367 0.875165
O O7 0.500000 0.921710 0.000000
O O8 0.734444 0.000000 0.000000
O O9 0.607237 0.551946 0.080742
O O10 0.764901 0.669489 0.130271
#
# Coordination Sequence:
#
# PCOD9330560 Si02
#       6
#     2   8   8   8   2   8
#     4  10  20  38  64  92 112 154 218 260 304 374
#     4  11  23  40  64  92 127 167 206 256 315 385
#     4   9  21  37  61  91 123 155 202 257 312 363
#     4  11  23  41  66  89 124 162 218 260 318 376
#     4  10  28  38  64  96 124 158 210 284 316 354
#     4  11  23  40  64  92 127 167 206 256 315 385
#
# _framework density 21.122423000000001
#
# number of rings (size 3 to 8) (size 9 to 14) (size 15 to 20)
#    0.000    1.556    2.222    1.333    9.333    0.000 
#    0.000    0.000    0.000    2.667    0.000    0.000 
#    0.000    0.000    0.000    0.000    0.000    0.000 
#
# Total GULP energy -100493.558448 kJ/mol
# GULP energy per Si atom -5582.975469 kJ/mol
# Density = 2.107435 g / cm^3
# Si number density = 21.122423 Si / 1000 Ang^3
#
#
#
# Elastic Constant Matrix: (Units=GPa)
#
#
# Indices 1 2 3 4 5 6 
#
# 1 70.5128 28.6954 5.5884 0.0000 0.0000 0.0000
# 2 28.6954 119.5162 23.1457 0.0001 0.0000 0.0000
# 3 5.5884 23.1457 99.5247 0.0001 0.0000 -0.0001
# 4 0.0000 0.0001 0.0001 28.9612 0.0000 0.0000
# 5 0.0000 0.0000 0.0000 0.0000 9.7494 0.0000
# 6 0.0000 0.0000 -0.0001 0.0000 0.0000 33.7352
#
#
#
# Elastic Compliance Matrix: (Units=1/GPa)
#
#
# Indices 1 2 3 4 5 6 
#
# 1 0.015718 -0.003773 -0.000005 0.000000 0.000000 0.000000
# 2 -0.003773 0.009667 -0.002036 0.000000 0.000000 0.000000
# 3 -0.000005 -0.002036 0.010522 0.000000 0.000000 0.000000
# 4 0.000000 0.000000 0.000000 0.034529 0.000000 0.000000
# 5 0.000000 0.000000 0.000000 0.000000 0.102570 0.000000
# 6 0.000000 0.000000 0.000000 0.000000 0.000000 0.029643
#
#
# Mechanical properties :
#
#
# Convention : Reuss Voigt Hill
#
# Bulk Modulus (GPa) = 41.18976 44.93476 43.06226
# Shear Modulus (GPa) = 22.48508 29.96410 26.22459
#
# Velocity S-wave (km/s) = 3.26623 3.77051 3.52739
# Velocity P-wave (km/s) = 5.81095 6.34628 6.08451
#
# Compressibility (1/GPa) = 0.02427788
#
# Stress axis : x y z
#
# Youngs Moduli (GPa) = 63.62311 103.44190 95.04224
#
# Poissons Ratio (x) = 0.39026 0.00049
# Poissons Ratio (y) = 0.24003 0.19354
# Poissons Ratio (z) = 0.00033 0.21065
#
# Static dielectric constant tensor:
#      x y z
#    x 1.771980 0.000000 0.000000 
#    y 0.000000 1.736170 0.000000 
#    z 0.000000 0.000000 1.745220 
# 
# From -- ./inp_files/6760.got.cif
#   From: 2010.05.17/outbox.cif.g08.bks.cpg/sg23_4_cif.got.tgz:6760.got - 2010.06.04 12:02:01.
