data_PCOD9330081
_publ_section_title
;
Structure prediction by ZEFSAII (Michael W. Deem and Ramdas Pophale) SiO2 
 PCOD9330081
Probable space group: I 2 2 2
;
_chemical_formula_sum "Si O2"
_cell_formula_units_Z 60
_cell_length_a 20.483885
_cell_length_b 20.022410
_cell_length_c 7.150750
_cell_angle_alpha 90.000000
_cell_angle_beta 90.000000
_cell_angle_gamma 90.000000
_cell_volume 2932.785321
_symmetry_space_group_name_H-M "I 2 2 2"
_symmetry_group_IT_number 23
_symmetry_cell_setting 'orthorhombic'
loop_
_space_group_symop_operation_xyz
x,y,z
-x,-y,z
x,-y,-z
-x,y,-z
1/2+x,1/2+y,1/2+z
1/2-x,1/2-y,1/2+z
1/2+x,1/2-y,1/2-z
1/2-x,1/2+y,1/2-z
loop_
_atom_site_type_symbol
_atom_site_label
_atom_site_fract_x
_atom_site_fract_y
_atom_site_fract_z
Si Si1 0.751877 0.419014 0.656268
Si Si2 0.672846 0.209641 0.250051
Si Si3 0.076422 0.357404 0.540515
Si Si4 0.682869 0.638134 0.694086
Si Si5 0.866711 0.930962 0.574223
Si Si6 0.568565 0.798268 0.424125
Si Si7 0.063917 0.855934 0.102718
Si Si8 0.638581 0.000000 0.000000
O O1 0.772681 0.347627 0.742844
O O2 0.734273 0.401149 0.438799
O O3 0.691892 0.445279 0.778266
O O4 0.810845 0.471729 0.656587
O O5 0.700703 0.284736 0.258262
O O6 0.625474 0.202825 0.426185
O O7 0.623674 0.190086 0.081439
O O8 0.091159 0.340513 0.751942
O O9 0.093987 0.435020 0.520658
O O10 0.000000 0.344724 0.500000
O O11 0.621290 0.639418 0.551280
O O12 0.661941 0.605912 0.890999
O O13 0.916712 0.889765 0.702595
O O14 0.895522 0.000000 0.500000
O O15 0.500000 0.825679 0.500000
O O16 0.553927 0.722599 0.359778
O O17 0.000000 0.883653 0.000000
#
# Coordination Sequence:
#
# PCOD9330081 Si02
#       8
#     8   8   8   8   8   8   8   4
#     4  10  23  40  60  88 125 168 217 259 313 375
#     4  10  22  37  61  95 121 160 214 262 329 366
#     4  11  21  38  64  91 129 168 205 262 312 381
#     4  10  22  40  62  91 124 161 207 270 317 369
#     4  11  23  40  64  89 122 171 210 249 321 387
#     4  10  19  37  63  90 124 159 206 262 319 367
#     4   9  21  41  63  94 125 157 203 265 322 383
#     4  10  23  42  58  86 129 176 206 250 316 372
#
# _framework density 20.458366000000002
#
# number of rings (size 3 to 8) (size 9 to 14) (size 15 to 20)
#    0.000    1.867    1.333    1.800    1.867    5.333 
#    2.400    4.000    0.000    0.000    0.000    0.000 
#    0.000    0.000    0.000    0.000    0.000    0.000 
#
# Total GULP energy -167351.559767 kJ/mol
# GULP energy per Si atom -5578.385326 kJ/mol
# Density = 2.041180 g / cm^3
# Si number density = 20.458366 Si / 1000 Ang^3
#
#
#
# Elastic Constant Matrix: (Units=GPa)
#
#
# Indices 1 2 3 4 5 6 
#
# 1 33.0139 -2.6698 -1.1989 0.0000 0.0000 0.0000
# 2 -2.6698 49.5733 29.4575 0.0000 0.0000 0.0000
# 3 -1.1989 29.4575 98.6245 0.0000 0.0000 0.0000
# 4 0.0000 0.0000 0.0000 24.1545 0.0000 0.0000
# 5 0.0000 0.0000 0.0000 0.0000 16.0203 0.0000
# 6 0.0000 0.0000 0.0000 0.0000 0.0000 28.8499
#
#
#
# Elastic Compliance Matrix: (Units=1/GPa)
#
#
# Indices 1 2 3 4 5 6 
#
# 1 0.030424 0.001725 -0.000145 0.000000 0.000000 0.000000
# 2 0.001725 0.024623 -0.007333 0.000000 0.000000 0.000000
# 3 -0.000145 -0.007333 0.012328 0.000000 0.000000 0.000000
# 4 0.000000 0.000000 0.000000 0.041400 0.000000 0.000000
# 5 0.000000 0.000000 0.000000 0.000000 0.062421 0.000000
# 6 0.000000 0.000000 0.000000 0.000000 0.000000 0.034662
#
#
# Mechanical properties :
#
#
# Convention : Reuss Voigt Hill
#
# Bulk Modulus (GPa) = 17.89948 25.82103 21.86026
# Shear Modulus (GPa) = 21.18746 24.17980 22.68363
#
# Velocity S-wave (km/s) = 3.22162 3.44161 3.33343
# Velocity P-wave (km/s) = 4.75465 5.33306 5.05214
#
# Compressibility (1/GPa) = 0.05586754
#
# Stress axis : x y z
#
# Youngs Moduli (GPa) = 32.86825 40.61291 81.11562
#
# Poissons Ratio (x) = -0.07005 0.01179
# Poissons Ratio (y) = -0.05669 0.59486
# Poissons Ratio (z) = 0.00478 0.29783
#
# Static dielectric constant tensor:
#      x y z
#    x 1.730960 0.000000 0.000000 
#    y 0.000000 1.743790 0.000000 
#    z 0.000000 0.000000 1.704100 
# 
# From -- ./inp_files/4541.got.cif
#   From: 2010.05.17/outbox.cif.g08.bks.cpg/sg23_3_cif.got.tgz:4541.got - 2010.06.04 12:02:01.
