data_PCOD9330825
_publ_section_title
;
Structure prediction by ZEFSAII (Michael W. Deem and Ramdas Pophale) SiO2 
 PCOD9330825
Probable space group: I 2 2 2
;
_chemical_formula_sum "Si O2"
_cell_formula_units_Z 48
_cell_length_a 12.228005
_cell_length_b 18.516710
_cell_length_c 12.951111
_cell_angle_alpha 90.000000
_cell_angle_beta 90.000000
_cell_angle_gamma 90.000000
_cell_volume 2932.421926
_symmetry_space_group_name_H-M "I 2 2 2"
_symmetry_group_IT_number 23
_symmetry_cell_setting 'orthorhombic'
loop_
_space_group_symop_operation_xyz
x,y,z
-x,-y,z
x,-y,-z
-x,y,-z
1/2+x,1/2+y,1/2+z
1/2-x,1/2-y,1/2+z
1/2+x,1/2-y,1/2-z
1/2-x,1/2+y,1/2-z
loop_
_atom_site_type_symbol
_atom_site_label
_atom_site_fract_x
_atom_site_fract_y
_atom_site_fract_z
Si Si1 0.500000 0.912449 0.379297
Si Si2 0.803138 0.640029 0.740979
Si Si3 0.196862 0.640029 0.740978
Si Si4 0.369337 0.285764 0.877921
Si Si5 0.867742 0.500000 0.377800
Si Si6 0.869337 0.785764 0.622079
O O1 0.500000 0.897836 0.500000
O O2 0.603893 0.876411 0.325440
O O3 0.396108 0.876411 0.325439
O O4 0.500000 0.000000 0.366737
O O5 0.694008 0.657244 0.805468
O O6 0.809669 0.569750 0.669766
O O7 0.834113 0.708384 0.669588
O O8 0.165886 0.708384 0.669588
O O9 0.190331 0.569750 0.669766
O O10 0.305991 0.657244 0.805468
O O11 0.500000 0.292843 0.869820
O O12 0.340419 0.291042 0.000000
O O13 0.858584 0.500000 0.500000
O O14 0.000000 0.500000 0.355306
#
# Coordination Sequence:
#
# PCOD9330825 Si02
#       6
#     8   8   8   8   8   8
#     4  11  20  32  52  82 112 139 170 223 282 320
#     4  11  19  35  56  80 110 138 178 226 268 318
#     4  11  19  35  56  80 110 138 178 226 268 318
#     4  10  21  36  55  78 108 146 182 217 263 320
#     4  11  20  34  59  86 109 137 176 224 277 319
#     4  10  21  36  55  78 108 146 182 217 263 320
#
# _framework density 16.368722000000002
#
# number of rings (size 3 to 8) (size 9 to 14) (size 15 to 20)
#    0.000    1.333    5.000    2.000    0.000    2.667 
#    0.000    0.833    0.000    3.000    0.000    0.000 
#    0.000    0.000    0.000    0.000    0.000    0.000 
#
# Total GULP energy -133831.022693 kJ/mol
# GULP energy per Si atom -5576.292612 kJ/mol
# Density = 1.633147 g / cm^3
# Si number density = 16.368722 Si / 1000 Ang^3
#
#
#
# Elastic Constant Matrix: (Units=GPa)
#
#
# Indices 1 2 3 4 5 6 
#
# 1 81.1139 40.2957 56.6261 0.0000 0.0000 0.0000
# 2 40.2957 97.4172 55.5144 0.0001 0.0000 0.0000
# 3 56.6261 55.5144 163.1864 0.0001 0.0000 0.0000
# 4 0.0000 0.0001 0.0001 17.8304 0.0000 0.0000
# 5 0.0000 0.0000 0.0000 0.0000 36.4159 0.0000
# 6 0.0000 0.0000 0.0000 0.0000 0.0000 29.0756
#
#
#
# Elastic Compliance Matrix: (Units=1/GPa)
#
#
# Indices 1 2 3 4 5 6 
#
# 1 0.017911 -0.004797 -0.004583 0.000000 0.000000 0.000000
# 2 -0.004797 0.014018 -0.003104 0.000000 0.000000 0.000000
# 3 -0.004583 -0.003104 0.008774 0.000000 0.000000 0.000000
# 4 0.000000 0.000000 0.000000 0.056084 0.000000 0.000000
# 5 0.000000 0.000000 0.000000 0.000000 0.027461 0.000000
# 6 0.000000 0.000000 0.000000 0.000000 0.000000 0.034393
#
#
# Mechanical properties :
#
#
# Convention : Reuss Voigt Hill
#
# Bulk Modulus (GPa) = 63.55378 71.84333 67.69855
# Shear Modulus (GPa) = 26.47529 29.28314 27.87922
#
# Velocity S-wave (km/s) = 4.02609 4.23421 4.13146
# Velocity P-wave (km/s) = 7.77967 8.23958 8.01292
#
# Compressibility (1/GPa) = 0.01573470
#
# Stress axis : x y z
#
# Youngs Moduli (GPa) = 55.83176 71.33495 113.96699
#
# Poissons Ratio (x) = 0.34218 0.52235
# Poissons Ratio (y) = 0.26782 0.35380
# Poissons Ratio (z) = 0.25589 0.22145
#
# Static dielectric constant tensor:
#      x y z
#    x 1.540210 0.000000 0.000000 
#    y 0.000000 1.550130 0.000000 
#    z 0.000000 0.000000 1.545230 
# 
# From -- ./inp_files/15756.got.cif
#   From: 2010.05.17/outbox.cif.g08.bks.cpg/sg23_8_cif.got.tgz:15756.got - 2010.06.04 12:02:01.
