data_PCOD9330816
_publ_section_title
;
Structure prediction by ZEFSAII (Michael W. Deem and Ramdas Pophale) SiO2 
 PCOD9330816
Probable space group: I 2 2 2
;
_chemical_formula_sum "Si O2"
_cell_formula_units_Z 64
_cell_length_a 24.355728
_cell_length_b 11.963204
_cell_length_c 10.888691
_cell_angle_alpha 90.000000
_cell_angle_beta 90.000000
_cell_angle_gamma 90.000000
_cell_volume 3172.665583
_symmetry_space_group_name_H-M "I 2 2 2"
_symmetry_group_IT_number 23
_symmetry_cell_setting 'orthorhombic'
loop_
_space_group_symop_operation_xyz
x,y,z
-x,-y,z
x,-y,-z
-x,y,-z
1/2+x,1/2+y,1/2+z
1/2-x,1/2-y,1/2+z
1/2+x,1/2-y,1/2-z
1/2-x,1/2+y,1/2-z
loop_
_atom_site_type_symbol
_atom_site_label
_atom_site_fract_x
_atom_site_fract_y
_atom_site_fract_z
Si Si1 0.825832 0.032540 0.363292
Si Si2 0.293528 0.253536 0.606078
Si Si3 0.610422 0.758690 0.194763
Si Si4 0.879204 0.177759 0.698650
Si Si5 0.180484 0.346186 0.492813
Si Si6 0.855471 0.402109 0.085375
Si Si7 0.278308 0.042313 0.763605
Si Si8 0.001593 0.130057 0.352123
O O1 0.847034 0.156111 0.333298
O O2 0.782065 0.995494 0.259969
O O3 0.803040 0.000000 0.500000
O O4 0.876083 0.948983 0.349207
O O5 0.346772 0.308137 0.672796
O O6 0.239655 0.317293 0.555833
O O7 0.317453 0.177489 0.497142
O O8 0.272113 0.166048 0.707203
O O9 0.611655 0.818722 0.326595
O O10 0.551872 0.701731 0.180392
O O11 0.632400 0.848641 0.094672
O O12 0.845041 0.250364 0.599060
O O13 0.944274 0.196210 0.696210
O O14 0.195740 0.442805 0.395701
O O15 0.817502 0.472048 0.177398
O O16 0.882065 0.500000 0.000000
O O17 0.000000 0.126012 0.500000
O O18 0.000000 0.000000 0.307656
#
# Coordination Sequence:
#
# PCOD9330816 Si02
#       8
#     8   8   8   8   8   8   8   8
#     4  12  19  34  60  97 134 176 212 267 344 419
#     4  10  21  38  61  88 133 171 220 275 334 405
#     4  12  23  37  66  96 134 173 226 280 338 413
#     4  11  22  37  64  99 136 166 215 267 340 417
#     4  11  21  36  58 100 134 172 219 280 341 407
#     4  10  23  44  62  87 122 187 230 274 339 403
#     4  10  21  35  60  89 136 177 221 275 337 405
#     4  11  21  40  66 102 136 170 209 272 344 411
#
# _framework density 20.172312000000002
#
# number of rings (size 3 to 8) (size 9 to 14) (size 15 to 20)
#    0.000    1.125    5.000    2.625    3.500    0.500 
#    0.000    2.500    0.000   11.250    0.000    0.000 
#    0.000    0.000    0.000    0.000    0.000    0.000 
#
# Total GULP energy -178233.370502 kJ/mol
# GULP energy per Si atom -5569.792828 kJ/mol
# Density = 2.012640 g / cm^3
# Si number density = 20.172312 Si / 1000 Ang^3
#
#
#
# Elastic Constant Matrix: (Units=GPa)
#
#
# Indices 1 2 3 4 5 6 
#
# 1 147.1653 45.0808 58.5684 0.0000 0.0000 0.0000
# 2 45.0808 64.2697 43.7927 0.0000 0.0000 0.0000
# 3 58.5684 43.7927 113.4327 0.0000 0.0000 0.0000
# 4 0.0000 0.0000 0.0000 37.9471 0.0000 0.0000
# 5 0.0000 0.0000 0.0000 0.0000 24.1440 0.0000
# 6 0.0000 0.0000 0.0000 0.0000 0.0000 20.0670
#
#
#
# Elastic Compliance Matrix: (Units=1/GPa)
#
#
# Indices 1 2 3 4 5 6 
#
# 1 0.009410 -0.004464 -0.003135 0.000000 0.000000 0.000000
# 2 -0.004464 0.023232 -0.006664 0.000000 0.000000 0.000000
# 3 -0.003135 -0.006664 0.013007 0.000000 0.000000 0.000000
# 4 0.000000 0.000000 0.000000 0.026352 0.000000 0.000000
# 5 0.000000 0.000000 0.000000 0.000000 0.041418 0.000000
# 6 0.000000 0.000000 0.000000 0.000000 0.000000 0.049833
#
#
# Mechanical properties :
#
#
# Convention : Reuss Voigt Hill
#
# Bulk Modulus (GPa) = 58.40370 68.86129 63.63250
# Shear Modulus (GPa) = 25.31804 28.26001 26.78902
#
# Velocity S-wave (km/s) = 3.54657 3.74696 3.64814
# Velocity P-wave (km/s) = 6.76654 7.27532 7.02554
#
# Compressibility (1/GPa) = 0.01712220
#
# Stress axis : x y z
#
# Youngs Moduli (GPa) = 106.26503 43.04482 76.87962
#
# Poissons Ratio (x) = 0.19217 0.24104
# Poissons Ratio (y) = 0.47441 0.51232
# Poissons Ratio (z) = 0.33317 0.28685
#
# Static dielectric constant tensor:
#      x y z
#    x 1.704440 0.000000 0.000000 
#    y 0.000000 1.854420 0.000000 
#    z 0.000000 0.000000 1.758970 
# 
# From -- ./inp_files/18423.got.cif
#   From: 2010.05.17/outbox.cif.g08.bks.cpg/sg23_10_cif.got.tgz:18423.got - 2010.06.04 12:02:01.
