data_PCOD9330711
_publ_section_title
;
Structure prediction by ZEFSAII (Michael W. Deem and Ramdas Pophale) SiO2 
 PCOD9330711
Probable space group: I 2 2 2
;
_chemical_formula_sum "Si O2"
_cell_formula_units_Z 48
_cell_length_a 15.805781
_cell_length_b 8.093996
_cell_length_c 16.938897
_cell_angle_alpha 90.000000
_cell_angle_beta 90.000000
_cell_angle_gamma 90.000000
_cell_volume 2167.025755
_symmetry_space_group_name_H-M "I 2 2 2"
_symmetry_group_IT_number 23
_symmetry_cell_setting 'orthorhombic'
loop_
_space_group_symop_operation_xyz
x,y,z
-x,-y,z
x,-y,-z
-x,y,-z
1/2+x,1/2+y,1/2+z
1/2-x,1/2-y,1/2+z
1/2+x,1/2-y,1/2-z
1/2-x,1/2+y,1/2-z
loop_
_atom_site_type_symbol
_atom_site_label
_atom_site_fract_x
_atom_site_fract_y
_atom_site_fract_z
Si Si1 0.752559 0.686278 0.968906
Si Si2 0.868522 0.780624 0.710091
Si Si3 0.418200 0.182306 0.036934
Si Si4 0.419030 0.186497 0.537652
Si Si5 0.703988 0.348137 0.208391
Si Si6 0.963327 0.318670 0.778853
O O1 0.745510 0.698855 0.875355
O O2 0.755889 0.500000 0.000000
O O3 0.666871 0.749176 0.003239
O O4 0.833713 0.770090 0.007976
O O5 0.910312 0.707653 0.630254
O O6 0.785179 0.673483 0.733706
O O7 0.950035 0.787216 0.768642
O O8 0.830236 0.964585 0.702108
O O9 0.500000 0.270299 0.000000
O O10 0.420283 0.000000 0.000000
O O11 0.500000 0.271422 0.500000
O O12 0.430787 0.175688 0.630953
O O13 0.417940 0.000000 0.500000
O O14 0.619730 0.241130 0.230194
O O15 0.000000 0.500000 0.758234
#
# Coordination Sequence:
#
# PCOD9330711 Si02
#       6
#     8   8   8   8   8   8
#     4  11  23  44  72  99 138 188 248 295 359 444
#     4  12  27  47  70 108 152 190 244 309 378 446
#     4  11  26  46  69 101 141 192 247 304 368 436
#     4  10  20  41  72 101 135 186 245 288 353 433
#     4  12  27  46  73 110 147 193 244 306 382 446
#     4  12  25  43  74 108 146 192 243 306 371 445
#
# _framework density 22.150175999999998
#
# number of rings (size 3 to 8) (size 9 to 14) (size 15 to 20)
#    0.000    0.667    3.333    4.500   11.667    0.333 
#    0.000    0.000    0.000    0.000    0.000    0.000 
#    0.000    0.000    0.000    0.000    0.000    0.000 
#
# Total GULP energy -133943.957491 kJ/mol
# GULP energy per Si atom -5580.998229 kJ/mol
# Density = 2.209976 g / cm^3
# Si number density = 22.150176 Si / 1000 Ang^3
#
#
#
# Elastic Constant Matrix: (Units=GPa)
#
#
# Indices 1 2 3 4 5 6 
#
# 1 240.6329 42.0715 72.3321 0.0000 0.0000 0.0000
# 2 42.0715 41.7484 38.8911 0.0000 0.0000 0.0000
# 3 72.3321 38.8911 143.3035 0.0000 0.0000 0.0000
# 4 0.0000 0.0000 0.0000 24.5810 0.0000 0.0000
# 5 0.0000 0.0000 0.0000 0.0000 53.1624 0.0000
# 6 0.0000 0.0000 0.0000 0.0000 0.0000 31.2782
#
#
#
# Elastic Compliance Matrix: (Units=1/GPa)
#
#
# Indices 1 2 3 4 5 6 
#
# 1 0.005320 -0.003827 -0.001646 0.000000 0.000000 0.000000
# 2 -0.003827 0.034811 -0.007516 0.000000 0.000000 0.000000
# 3 -0.001646 -0.007516 0.009849 0.000000 0.000000 0.000000
# 4 0.000000 0.000000 0.000000 0.040682 0.000000 0.000000
# 5 0.000000 0.000000 0.000000 0.000000 0.018810 0.000000
# 6 0.000000 0.000000 0.000000 0.000000 0.000000 0.031971
#
#
# Mechanical properties :
#
#
# Convention : Reuss Voigt Hill
#
# Bulk Modulus (GPa) = 41.66456 81.36380 61.51418
# Shear Modulus (GPa) = 28.50274 39.96367 34.23321
#
# Velocity S-wave (km/s) = 3.59108 4.25221 3.93556
# Velocity P-wave (km/s) = 6.00378 7.80519 6.96299
#
# Compressibility (1/GPa) = 0.02400121
#
# Stress axis : x y z
#
# Youngs Moduli (GPa) = 187.97879 28.72655 101.53389
#
# Poissons Ratio (x) = 0.10994 0.16717
# Poissons Ratio (y) = 0.71942 0.76309
# Poissons Ratio (z) = 0.30951 0.21590
#
# Static dielectric constant tensor:
#      x y z
#    x 1.997330 0.000000 0.000000 
#    y 0.000000 1.834430 0.000000 
#    z 0.000000 0.000000 1.897280 
# 
# From -- ./inp_files/24736.got.cif
#   From: 2010.05.17/outbox.cif.g08.bks.cpg/sg23_13_cif.got.tgz:24736.got - 2010.06.04 12:02:01.
