data_PCOD9330429
_publ_section_title
;
Structure prediction by ZEFSAII (Michael W. Deem and Ramdas Pophale) SiO2 
 PCOD9330429
Probable space group: I 2 2 2
;
_chemical_formula_sum "Si O2"
_cell_formula_units_Z 60
_cell_length_a 9.967897
_cell_length_b 20.707527
_cell_length_c 12.899470
_cell_angle_alpha 90.000000
_cell_angle_beta 90.000000
_cell_angle_gamma 90.000000
_cell_volume 2662.586004
_symmetry_space_group_name_H-M "I 2 2 2"
_symmetry_group_IT_number 23
_symmetry_cell_setting 'orthorhombic'
loop_
_space_group_symop_operation_xyz
x,y,z
-x,-y,z
x,-y,-z
-x,y,-z
1/2+x,1/2+y,1/2+z
1/2-x,1/2-y,1/2+z
1/2+x,1/2-y,1/2-z
1/2-x,1/2+y,1/2-z
loop_
_atom_site_type_symbol
_atom_site_label
_atom_site_fract_x
_atom_site_fract_y
_atom_site_fract_z
Si Si1 0.328730 0.464665 0.393552
Si Si2 0.000000 0.000000 0.285766
Si Si3 0.151148 0.813219 0.536571
Si Si4 0.407825 0.126521 0.900223
Si Si5 0.146349 0.576254 0.298429
Si Si6 0.750989 0.554883 0.919402
Si Si7 0.766865 0.279653 0.363267
Si Si8 0.956474 0.753927 0.272143
O O1 0.370578 0.500000 0.500000
O O2 0.434369 0.450962 0.300115
O O3 0.237586 0.402831 0.420328
O O4 0.235965 0.519311 0.342177
O O5 0.112707 0.031601 0.360395
O O6 0.229262 0.878816 0.518185
O O7 0.204773 0.750227 0.476875
O O8 0.129164 0.803996 0.658554
O O9 0.000000 0.822270 0.500000
O O10 0.497137 0.073240 0.842098
O O11 0.411711 0.186377 0.823011
O O12 0.500000 0.142415 0.000000
O O13 0.149994 0.571034 0.174760
O O14 0.205654 0.644944 0.340398
O O15 0.791303 0.500000 0.000000
O O16 0.613614 0.261723 0.337430
O O17 0.883700 0.244122 0.292310
#
# Coordination Sequence:
#
# PCOD9330429 Si02
#       8
#     8   4   8   8   8   8   8   8
#     4  11  22  37  64  94 132 170 209 269 344 389
#     4  10  24  40  60  96 136 160 220 278 322 400
#     4  10  20  36  64  88 118 170 223 255 321 392
#     4  11  21  38  65  96 126 169 218 268 325 412
#     4  10  21  38  62  94 131 164 222 266 322 386
#     4  11  22  40  66  91 132 176 220 267 320 394
#     4  10  21  40  64  92 124 168 215 271 319 393
#     4  10  21  38  63  91 126 162 215 268 326 383
#
# _framework density 22.534483000000002
#
# number of rings (size 3 to 8) (size 9 to 14) (size 15 to 20)
#    0.000    1.600    2.667    3.600    0.000    4.267 
#    0.000    0.667    0.000   16.800    0.000    0.000 
#    0.000    0.000    0.000    0.000    0.000    0.000 
#
# Total GULP energy -167269.044619 kJ/mol
# GULP energy per Si atom -5575.634821 kJ/mol
# Density = 2.248319 g / cm^3
# Si number density = 22.534483 Si / 1000 Ang^3
#
#
#
# Elastic Constant Matrix: (Units=GPa)
#
#
# Indices 1 2 3 4 5 6 
#
# 1 23.5424 -24.7187 -9.6841 0.0000 0.0000 0.0000
# 2 -24.7187 76.3293 0.5435 0.0000 -0.0001 0.0000
# 3 -9.6841 0.5435 71.3458 0.0000 -0.0001 0.0000
# 4 0.0000 0.0000 0.0000 27.1691 -0.0001 0.0000
# 5 0.0000 -0.0001 -0.0001 -0.0001 23.4147 0.0000
# 6 0.0000 0.0000 0.0000 0.0000 0.0000 15.1067
#
#
#
# Elastic Compliance Matrix: (Units=1/GPa)
#
#
# Indices 1 2 3 4 5 6 
#
# 1 0.070076 0.022627 0.009339 0.000000 0.000000 0.000000
# 2 0.022627 0.020408 0.002916 0.000000 0.000000 0.000000
# 3 0.009339 0.002916 0.015262 0.000000 0.000000 0.000000
# 4 0.000000 0.000000 0.000000 0.036806 0.000000 0.000000
# 5 0.000000 0.000000 0.000000 0.000000 0.042708 0.000000
# 6 0.000000 0.000000 0.000000 0.000000 0.000000 0.066196
#
#
# Mechanical properties :
#
#
# Convention : Reuss Voigt Hill
#
# Bulk Modulus (GPa) = 5.69767 11.49988 8.59878
# Shear Modulus (GPa) = 20.81642 26.80990 23.81316
#
# Velocity S-wave (km/s) = 3.04264 3.45298 3.25429
# Velocity P-wave (km/s) = 3.85713 4.58386 4.23611
#
# Compressibility (1/GPa) = 0.17551029
#
# Stress axis : x y z
#
# Youngs Moduli (GPa) = 14.27022 49.00044 65.52347
#
# Poissons Ratio (x) = -1.10874 -0.61195
# Poissons Ratio (y) = -0.32289 -0.19105
# Poissons Ratio (z) = -0.13328 -0.14288
#
# Static dielectric constant tensor:
#      x y z
#    x 1.895620 0.000000 0.000000 
#    y 0.000000 1.870500 0.000000 
#    z 0.000000 0.000000 1.956660 
# 
# From -- ./inp_files/15956.got.cif
#   From: 2010.05.17/outbox.cif.g08.bks.cpg/sg23_8_cif.got.tgz:15956.got - 2010.06.04 12:02:01.
