data_PCOD9330463
_publ_section_title
;
Structure prediction by ZEFSAII (Michael W. Deem and Ramdas Pophale) SiO2 
 PCOD9330463
Probable space group: I 2 2 2
;
_chemical_formula_sum "Si O2"
_cell_formula_units_Z 56
_cell_length_a 8.555460
_cell_length_b 20.303542
_cell_length_c 16.038831
_cell_angle_alpha 90.000000
_cell_angle_beta 90.000000
_cell_angle_gamma 90.000000
_cell_volume 2786.043446
_symmetry_space_group_name_H-M "I 2 2 2"
_symmetry_group_IT_number 23
_symmetry_cell_setting 'orthorhombic'
loop_
_space_group_symop_operation_xyz
x,y,z
-x,-y,z
x,-y,-z
-x,y,-z
1/2+x,1/2+y,1/2+z
1/2-x,1/2-y,1/2+z
1/2+x,1/2-y,1/2-z
1/2-x,1/2+y,1/2-z
loop_
_atom_site_type_symbol
_atom_site_label
_atom_site_fract_x
_atom_site_fract_y
_atom_site_fract_z
Si Si1 0.873624 0.559850 0.748630
Si Si2 0.856224 0.119436 0.188151
Si Si3 0.688025 0.003676 0.092394
Si Si4 0.075630 0.214647 0.410797
Si Si5 0.936875 0.694420 0.253839
Si Si6 0.939111 0.069556 0.657949
Si Si7 0.063873 0.239634 0.908542
O O1 0.782264 0.552188 0.660606
O O2 0.742316 0.559265 0.818926
O O3 0.000000 0.500000 0.758373
O O4 0.960786 0.628620 0.745448
O O5 0.740799 0.170610 0.234407
O O6 0.939345 0.163188 0.118393
O O7 0.962859 0.083946 0.256705
O O8 0.747564 0.068346 0.138845
O O9 0.500000 0.000000 0.084276
O O10 0.755658 0.000000 0.000000
O O11 0.018527 0.257467 0.330738
O O12 0.046839 0.137043 0.394160
O O13 0.260287 0.231288 0.410165
O O14 0.000000 0.233458 0.500000
O O15 0.965432 0.726739 0.164798
O O16 0.000000 0.000000 0.622132
O O17 0.000000 0.249778 0.000000
#
# Coordination Sequence:
#
# PCOD9330463 Si02
#       7
#     8   8   8   8   8   8   8
#     4  11  21  41  67  98 128 181 222 268 336 416
#     4  11  23  41  64 103 133 175 221 278 337 405
#     4  10  20  37  60  96 135 172 220 267 330 410
#     4  11  27  44  68 101 133 180 233 283 338 397
#     4  11  22  45  72  92 136 180 226 274 342 410
#     4  12  23  41  70  97 131 174 227 277 342 390
#     4  11  26  44  68 102 134 177 226 283 346 409
#
# _framework density 20.100187999999999
#
# number of rings (size 3 to 8) (size 9 to 14) (size 15 to 20)
#    0.000    1.000    7.143    0.000    2.000    4.857 
#    0.000    0.714    0.000    0.429    0.000    0.000 
#    0.000    0.000    0.000    0.000    0.000    0.000 
#
# Total GULP energy -156240.638032 kJ/mol
# GULP energy per Si atom -5580.022787 kJ/mol
# Density = 2.005444 g / cm^3
# Si number density = 20.100188 Si / 1000 Ang^3
#
#
#
# Elastic Constant Matrix: (Units=GPa)
#
#
# Indices 1 2 3 4 5 6 
#
# 1 61.6574 32.1549 36.1034 0.0000 0.0000 0.0000
# 2 32.1549 110.5743 31.8826 0.0000 0.0000 0.0000
# 3 36.1034 31.8826 122.9993 0.0000 0.0000 0.0000
# 4 0.0000 0.0000 0.0000 -3.2151 0.0000 0.0000
# 5 0.0000 0.0000 0.0000 0.0000 13.4961 0.0000
# 6 0.0000 0.0000 0.0000 0.0000 0.0000 28.4835
#
#
#
# Elastic Compliance Matrix: (Units=1/GPa)
#
#
# Indices 1 2 3 4 5 6 
#
# 1 0.021748 -0.004846 -0.005128 0.000000 0.000000 0.000000
# 2 -0.004846 0.010854 -0.001391 0.000000 0.000000 0.000000
# 3 -0.005128 -0.001391 0.009996 0.000000 0.000000 0.000000
# 4 0.000000 0.000000 0.000000 -0.311030 0.000000 0.000000
# 5 0.000000 0.000000 0.000000 0.000000 0.074095 0.000000
# 6 0.000000 0.000000 0.000000 0.000000 0.000000 0.035108
#
#
# Mechanical properties :
#
#
# Convention : Reuss Voigt Hill
#
# Bulk Modulus (GPa) = 50.32977 55.05699 52.69338
# Shear Modulus (GPa) = -38.49824 20.75891 -8.86966
#
# Velocity S-wave (km/s) = -4.38118 3.21716 -2.10293
# Velocity P-wave (km/s) = 0.70654 6.42269 4.51396
#
# Compressibility (1/GPa) = 0.01986896
#
# Stress axis : x y z
#
# Youngs Moduli (GPa) = 45.98066 92.13224 100.04226
#
# Poissons Ratio (x) = 0.44646 0.51297
# Poissons Ratio (y) = 0.22282 0.13916
# Poissons Ratio (z) = 0.23577 0.12816
#
# Static dielectric constant tensor:
#      x y z
#    x 1.737350 0.000000 0.000000 
#    y 0.000000 1.882650 0.000000 
#    z 0.000000 0.000000 1.734470 
# 
# From -- ./inp_files/20219.got.cif
#   From: 2010.05.17/outbox.cif.g08.bks.cpg/sg23_11_cif.got.tgz:20219.got - 2010.06.04 12:02:01.
