data_PCOD9330603
_publ_section_title
;
Structure prediction by ZEFSAII (Michael W. Deem and Ramdas Pophale) SiO2 
 PCOD9330603
Probable space group: I 2 2 2
;
_chemical_formula_sum "Si O2"
_cell_formula_units_Z 58
_cell_length_a 11.247539
_cell_length_b 8.796291
_cell_length_c 28.088584
_cell_angle_alpha 90.000000
_cell_angle_beta 90.000000
_cell_angle_gamma 90.000000
_cell_volume 2778.989732
_symmetry_space_group_name_H-M "I 2 2 2"
_symmetry_group_IT_number 23
_symmetry_cell_setting 'orthorhombic'
loop_
_space_group_symop_operation_xyz
x,y,z
-x,-y,z
x,-y,-z
-x,y,-z
1/2+x,1/2+y,1/2+z
1/2-x,1/2-y,1/2+z
1/2+x,1/2-y,1/2-z
1/2-x,1/2+y,1/2-z
loop_
_atom_site_type_symbol
_atom_site_label
_atom_site_fract_x
_atom_site_fract_y
_atom_site_fract_z
Si Si1 0.287611 0.295992 0.785398
Si Si2 0.749642 0.646597 0.185869
Si Si3 0.139527 0.184138 0.007865
Si Si4 0.497662 0.321953 0.851777
Si Si5 0.000000 0.500000 0.500000
Si Si6 0.403620 0.718314 0.384598
Si Si7 0.839712 0.286613 0.563628
Si Si8 0.653757 0.616635 0.361139
O O1 0.270740 0.475364 0.795280
O O2 0.283265 0.249600 0.730836
O O3 0.410799 0.251155 0.811885
O O4 0.185281 0.201397 0.812659
O O5 0.634853 0.718618 0.158353
O O6 0.854663 0.646805 0.147284
O O7 0.156567 0.215942 0.063762
O O8 0.236245 0.267073 0.973811
O O9 0.000000 0.222519 0.000000
O O10 0.150437 0.000000 0.000000
O O11 0.500000 0.500000 0.842224
O O12 0.434220 0.305947 0.903517
O O13 0.918684 0.396778 0.532577
O O14 0.545508 0.703924 0.387148
O O15 0.373827 0.560573 0.357343
O O16 0.764458 0.371033 0.603793
#
# Coordination Sequence:
#
# PCOD9330603 Si02
#       8
#     8   8   8   8   2   8   8   8
#     4  10  23  44  65  90 125 168 207 268 313 393
#     4  11  24  42  65  94 124 161 223 254 328 384
#     4  11  18  35  62  95 129 163 214 260 318 368
#     4   9  23  44  64  85 126 170 205 259 324 391
#     4  12  24  32  60 100 132 156 224 260 308 356
#     4  11  21  35  64  97 125 170 206 266 310 387
#     4  11  21  37  60  92 128 165 205 268 308 375
#     4  10  20  39  61  90 128 165 209 253 329 361
#
# _framework density 20.870895000000001
#
# number of rings (size 3 to 8) (size 9 to 14) (size 15 to 20)
#    0.000    1.517    3.448    1.655    5.793    0.552 
#    0.000    0.345    3.034    0.000    0.000    0.000 
#    0.000    0.000    0.000    0.000    0.000    0.000 
#
# Total GULP energy -161608.841027 kJ/mol
# GULP energy per Si atom -5572.718656 kJ/mol
# Density = 2.082339 g / cm^3
# Si number density = 20.870895 Si / 1000 Ang^3
#
#
#
# Elastic Constant Matrix: (Units=GPa)
#
#
# Indices 1 2 3 4 5 6 
#
# 1 86.3886 9.4706 29.9451 0.0000 0.0000 0.0000
# 2 9.4706 21.8165 18.1948 0.0000 0.0000 0.0000
# 3 29.9451 18.1948 129.5693 0.0000 0.0000 0.0000
# 4 0.0000 0.0000 0.0000 47.4971 0.0000 0.0000
# 5 0.0000 0.0000 0.0000 0.0000 28.7767 0.0000
# 6 0.0000 0.0000 0.0000 0.0000 0.0000 26.7712
#
#
#
# Elastic Compliance Matrix: (Units=1/GPa)
#
#
# Indices 1 2 3 4 5 6 
#
# 1 0.012816 -0.003503 -0.002470 0.000000 0.000000 0.000000
# 2 -0.003503 0.052875 -0.006615 0.000000 0.000000 0.000000
# 3 -0.002470 -0.006615 0.009218 0.000000 0.000000 0.000000
# 4 0.000000 0.000000 0.000000 0.021054 0.000000 0.000000
# 5 0.000000 0.000000 0.000000 0.000000 0.034750 0.000000
# 6 0.000000 0.000000 0.000000 0.000000 0.000000 0.037354
#
#
# Mechanical properties :
#
#
# Convention : Reuss Voigt Hill
#
# Bulk Modulus (GPa) = 20.10818 39.22170 29.66494
# Shear Modulus (GPa) = 23.82988 32.61992 28.22490
#
# Velocity S-wave (km/s) = 3.38268 3.95769 3.68143
# Velocity P-wave (km/s) = 4.99121 6.30220 5.68463
#
# Compressibility (1/GPa) = 0.04973100
#
# Stress axis : x y z
#
# Youngs Moduli (GPa) = 78.02848 18.91258 108.48745
#
# Poissons Ratio (x) = 0.06626 0.26796
# Poissons Ratio (y) = 0.27337 0.71767
# Poissons Ratio (z) = 0.19272 0.12511
#
# Static dielectric constant tensor:
#      x y z
#    x 1.821790 0.000000 0.000000 
#    y 0.000000 1.731360 0.000000 
#    z 0.000000 0.000000 1.674670 
# 
# From -- ./inp_files/8850.got.cif
#   From: 2010.05.17/outbox.cif.g08.bks.cpg/sg23_5_cif.got.tgz:8850.got - 2010.06.04 12:02:01.
