data_PCOD9330213
_publ_section_title
;
Structure prediction by ZEFSAII (Michael W. Deem and Ramdas Pophale) SiO2 
 PCOD9330213
Probable space group: I 2 2 2
;
_chemical_formula_sum "Si O2"
_cell_formula_units_Z 64
_cell_length_a 13.434992
_cell_length_b 23.087896
_cell_length_c 8.838227
_cell_angle_alpha 90.000000
_cell_angle_beta 90.000000
_cell_angle_gamma 90.000000
_cell_volume 2741.491612
_symmetry_space_group_name_H-M "I 2 2 2"
_symmetry_group_IT_number 23
_symmetry_cell_setting 'orthorhombic'
loop_
_space_group_symop_operation_xyz
x,y,z
-x,-y,z
x,-y,-z
-x,y,-z
1/2+x,1/2+y,1/2+z
1/2-x,1/2-y,1/2+z
1/2+x,1/2-y,1/2-z
1/2-x,1/2+y,1/2-z
loop_
_atom_site_type_symbol
_atom_site_label
_atom_site_fract_x
_atom_site_fract_y
_atom_site_fract_z
Si Si1 0.183070 0.059168 0.068454
Si Si2 0.632750 0.315243 0.421034
Si Si3 0.602334 0.085358 0.426063
Si Si4 0.102334 0.414642 0.426062
Si Si5 0.128763 0.299132 0.582806
Si Si6 0.132750 0.815243 0.578971
Si Si7 0.816931 0.940832 0.431545
Si Si8 0.871237 0.299132 0.082811
O O1 0.125626 0.118327 0.025370
O O2 0.185221 0.057014 0.249999
O O3 0.296894 0.065042 0.008660
O O4 0.141269 0.000000 0.000000
O O5 0.751678 0.304157 0.408253
O O6 0.592383 0.309264 0.250002
O O7 0.600726 0.265604 0.536232
O O8 0.500000 0.063770 0.500000
O O9 0.607451 0.071142 0.250001
O O10 0.703107 0.065042 0.508661
O O11 0.601009 0.154685 0.455126
O O12 0.101008 0.345315 0.455122
O O13 0.000000 0.436230 0.500000
O O14 0.100726 0.234396 0.536227
O O15 0.090970 0.315522 0.749997
O O16 0.125626 0.881673 0.525373
O O17 0.251678 0.804157 0.591753
O O18 0.858731 0.000000 0.500000
#
# Coordination Sequence:
#
# PCOD9330213 Si02
#       8
#     8   8   8   8   8   8   8   8
#     4  10  20  33  47  65  89 118 153 187 221 260
#     4   8  15  27  43  63  86 111 140 177 220 264
#     4  11  21  33  47  63  87 118 152 187 223 261
#     4  11  21  33  47  63  87 118 152 187 223 261
#     4   9  16  27  44  65  86 109 141 179 221 265
#     4   8  15  27  43  63  86 111 140 177 220 264
#     4  10  20  33  47  65  89 118 153 187 221 260
#     4   9  16  27  44  65  86 109 141 179 221 265
#
# _framework density 23.344956
#
# number of rings (size 3 to 8) (size 9 to 14) (size 15 to 20)
#    0.000    2.500    0.000    5.250    0.000    7.500 
#    0.000    2.500    0.000    0.000    0.000    0.000 
#    0.000    1.000    0.000   10.500    0.000    6.250 
#
# Total GULP energy -178812.138731 kJ/mol
# GULP energy per Si atom -5587.879335 kJ/mol
# Density = 2.329182 g / cm^3
# Si number density = 23.344956 Si / 1000 Ang^3
#
#
#
# Elastic Constant Matrix: (Units=GPa)
#
#
# Indices 1 2 3 4 5 6 
#
# 1 56.3506 -13.7589 6.6978 0.0000 0.0000 0.0000
# 2 -13.7589 175.6158 32.3380 -0.0003 -0.0002 0.0000
# 3 6.6978 32.3380 82.6399 0.0001 -0.0002 -0.0003
# 4 0.0000 -0.0003 0.0001 30.8142 -0.0003 0.0000
# 5 0.0000 -0.0002 -0.0002 -0.0003 20.3745 0.0000
# 6 0.0000 0.0000 -0.0003 0.0000 0.0000 -12.8054
#
#
#
# Elastic Compliance Matrix: (Units=1/GPa)
#
#
# Indices 1 2 3 4 5 6 
#
# 1 0.018463 0.001856 -0.002223 0.000000 0.000000 0.000000
# 2 0.001856 0.006323 -0.002625 0.000000 0.000000 0.000000
# 3 -0.002223 -0.002625 0.013308 0.000000 0.000000 0.000000
# 4 0.000000 0.000000 0.000000 0.032453 0.000000 0.000000
# 5 0.000000 0.000000 0.000000 0.000000 0.049081 0.000000
# 6 0.000000 0.000000 0.000000 0.000000 0.000000 -0.078092
#
#
# Mechanical properties :
#
#
# Convention : Reuss Voigt Hill
#
# Bulk Modulus (GPa) = 31.14170 40.57333 35.85752
# Shear Modulus (GPa) = 85.87766 26.96529 56.42148
#
# Velocity S-wave (km/s) = 6.07176 3.40233 4.92149
# Velocity P-wave (km/s) = 7.90720 5.73168 6.90565
#
# Compressibility (1/GPa) = 0.03211129
#
# Stress axis : x y z
#
# Youngs Moduli (GPa) = 54.16133 158.15402 75.14342
#
# Poissons Ratio (x) = -0.29350 0.16701
# Poissons Ratio (y) = -0.10051 0.19723
# Poissons Ratio (z) = 0.12038 0.41510
#
# Static dielectric constant tensor:
#      x y z
#    x 1.941130 0.000000 0.000000 
#    y 0.000000 1.925690 0.000000 
#    z 0.000000 0.000000 1.801240 
# 
# From -- ./inp_files/12276.got.cif
#   From: 2010.05.17/outbox.cif.g08.bks.cpg/sg23_7_cif.got.tgz:12276.got - 2010.06.04 12:02:01.
