data_PCOD9330581
_publ_section_title
;
Structure prediction by ZEFSAII (Michael W. Deem and Ramdas Pophale) SiO2 
 PCOD9330581
Probable space group: I 2 2 2
;
_chemical_formula_sum "Si O2"
_cell_formula_units_Z 36
_cell_length_a 8.255947
_cell_length_b 9.533858
_cell_length_c 21.983731
_cell_angle_alpha 90.000000
_cell_angle_beta 90.000000
_cell_angle_gamma 90.000000
_cell_volume 1730.362030
_symmetry_space_group_name_H-M "I 2 2 2"
_symmetry_group_IT_number 23
_symmetry_cell_setting 'orthorhombic'
loop_
_space_group_symop_operation_xyz
x,y,z
-x,-y,z
x,-y,-z
-x,y,-z
1/2+x,1/2+y,1/2+z
1/2-x,1/2-y,1/2+z
1/2+x,1/2-y,1/2-z
1/2-x,1/2+y,1/2-z
loop_
_atom_site_type_symbol
_atom_site_label
_atom_site_fract_x
_atom_site_fract_y
_atom_site_fract_z
Si Si1 0.874314 0.371229 0.185826
Si Si2 0.805317 0.518045 0.068395
Si Si3 0.500000 0.000000 0.000000
Si Si4 0.120488 0.877408 0.792312
Si Si5 0.249484 0.657867 0.416950
Si Si6 0.000000 0.000000 0.000000
O O1 0.777121 0.408875 0.123544
O O2 0.742346 0.343614 0.237866
O O3 0.000000 0.500000 0.198709
O O4 0.997420 0.241801 0.183991
O O5 0.755326 0.674204 0.088247
O O6 0.000000 0.500000 0.063029
O O7 0.738247 0.500000 0.000000
O O8 0.399248 0.899923 0.955459
O O9 0.231328 0.910774 0.850796
O O10 0.000000 0.000000 0.772847
O O11 0.398751 0.602238 0.456996
#
# Coordination Sequence:
#
# PCOD9330581 Si02
#       6
#     8   8   2   8   8   2
#     4  11  24  45  67 102 137 185 244 299 362 435
#     4  10  20  40  71  96 126 177 240 296 351 430
#     4  10  28  42  66 106 152 178 230 316 356 434
#     4  12  25  43  69 100 137 190 237 296 362 436
#     4  11  22  43  66 101 137 184 235 290 362 428
#     4  10  20  38  70  98 136 178 240 282 352 442
#
# _framework density 20.804894000000001
#
# number of rings (size 3 to 8) (size 9 to 14) (size 15 to 20)
#    0.000    1.111    5.556    2.667    1.556    0.000 
#    4.000    0.556    0.000    0.000    0.000    0.000 
#    0.000    0.000    0.000    0.000    0.000    0.000 
#
# Total GULP energy -100393.264380 kJ/mol
# GULP energy per Si atom -5577.403577 kJ/mol
# Density = 2.075754 g / cm^3
# Si number density = 20.804894 Si / 1000 Ang^3
#
#
#
# Elastic Constant Matrix: (Units=GPa)
#
#
# Indices 1 2 3 4 5 6 
#
# 1 68.4005 21.2944 46.9379 0.0000 0.0000 0.0000
# 2 21.2944 60.5881 -2.5433 0.0000 0.0000 0.0000
# 3 46.9379 -2.5433 173.6448 0.0000 0.0000 0.0000
# 4 0.0000 0.0000 0.0000 24.8014 0.0000 0.0000
# 5 0.0000 0.0000 0.0000 0.0000 -16.0871 0.0000
# 6 0.0000 0.0000 0.0000 0.0000 0.0000 37.5256
#
#
#
# Elastic Compliance Matrix: (Units=1/GPa)
#
#
# Indices 1 2 3 4 5 6 
#
# 1 0.020950 -0.007606 -0.005774 0.000000 0.000000 0.000000
# 2 -0.007606 0.019276 0.002338 0.000000 0.000000 0.000000
# 3 -0.005774 0.002338 0.007354 0.000000 0.000000 0.000000
# 4 0.000000 0.000000 0.000000 0.040320 0.000000 0.000000
# 5 0.000000 0.000000 0.000000 0.000000 -0.062162 0.000000
# 6 0.000000 0.000000 0.000000 0.000000 0.000000 0.026648
#
#
# Mechanical properties :
#
#
# Convention : Reuss Voigt Hill
#
# Bulk Modulus (GPa) = 39.22085 48.22348 43.72216
# Shear Modulus (GPa) = 60.26308 25.04428 42.65368
#
# Velocity S-wave (km/s) = 5.38783 3.47330 4.53280
# Velocity P-wave (km/s) = 7.58931 6.27011 6.96103
#
# Compressibility (1/GPa) = 0.02549665
#
# Stress axis : x y z
#
# Youngs Moduli (GPa) = 47.73262 51.87779 135.98031
#
# Poissons Ratio (x) = 0.39456 0.78520
# Poissons Ratio (y) = 0.36303 -0.31794
# Poissons Ratio (z) = 0.27563 -0.12130
#
# Static dielectric constant tensor:
#      x y z
#    x 1.593720 0.000000 0.000000 
#    y 0.000000 1.907570 0.000000 
#    z 0.000000 0.000000 1.776290 
# 
# From -- ./inp_files/6758.got.cif
#   From: 2010.05.17/outbox.cif.g08.bks.cpg/sg23_4_cif.got.tgz:6758.got - 2010.06.04 12:02:01.
