data_PCOD9330347
_publ_section_title
;
Structure prediction by ZEFSAII (Michael W. Deem and Ramdas Pophale) SiO2 
 PCOD9330347
Probable space group: I 2 2 2
;
_chemical_formula_sum "Si O2"
_cell_formula_units_Z 58
_cell_length_a 13.335489
_cell_length_b 16.346118
_cell_length_c 12.501127
_cell_angle_alpha 90.000000
_cell_angle_beta 90.000000
_cell_angle_gamma 90.000000
_cell_volume 2725.039127
_symmetry_space_group_name_H-M "I 2 2 2"
_symmetry_group_IT_number 23
_symmetry_cell_setting 'orthorhombic'
loop_
_space_group_symop_operation_xyz
x,y,z
-x,-y,z
x,-y,-z
-x,y,-z
1/2+x,1/2+y,1/2+z
1/2-x,1/2-y,1/2+z
1/2+x,1/2-y,1/2-z
1/2-x,1/2+y,1/2-z
loop_
_atom_site_type_symbol
_atom_site_label
_atom_site_fract_x
_atom_site_fract_y
_atom_site_fract_z
Si Si1 0.844470 0.646035 0.624333
Si Si2 0.000000 0.000000 0.000000
Si Si3 0.107313 0.730411 0.028621
Si Si4 0.245987 0.310365 0.169777
Si Si5 0.230685 0.638076 0.604230
Si Si6 0.692402 0.511702 0.121491
Si Si7 0.412551 0.933937 0.670232
Si Si8 0.659538 0.465331 0.340183
O O1 0.828073 0.738297 0.663906
O O2 0.847790 0.638860 0.494881
O O3 0.914703 0.594716 0.704683
O O4 0.735788 0.607707 0.647839
O O5 0.070144 0.049113 0.079503
O O6 0.179912 0.798213 0.079020
O O7 0.087450 0.649422 0.100737
O O8 0.164494 0.703108 0.921655
O O9 0.000000 0.766026 0.000000
O O10 0.191809 0.327140 0.282949
O O11 0.303715 0.392909 0.143422
O O12 0.279607 0.548227 0.624148
O O13 0.805500 0.476409 0.141928
O O14 0.628658 0.472618 0.217008
O O15 0.661923 0.500000 0.000000
O O16 0.500000 0.000000 0.648225
#
# Coordination Sequence:
#
# PCOD9330347 Si02
#       8
#     8   2   8   8   8   8   8   8
#     4  10  20  38  57  88 122 166 214 251 319 384
#     4  12  20  40  54  92 106 144 190 258 296 336
#     4  11  22  34  58  94 125 159 210 269 313 370
#     4  10  20  35  59  89 122 163 204 264 308 383
#     4  10  20  38  59  86 119 164 205 256 304 386
#     4  10  20  37  58  88 121 164 206 248 323 378
#     4  11  22  36  59  91 130 167 213 267 315 384
#     4  10  22  34  60  82 120 151 202 256 307 376
#
# _framework density 21.284098
#
# number of rings (size 3 to 8) (size 9 to 14) (size 15 to 20)
#    0.000    1.655    4.138    0.828    0.966    0.000 
#    0.000    0.345    0.000   26.483    0.000    1.931 
#    0.000    0.000    0.000    0.000    0.000    0.000 
#
# Total GULP energy -161854.021982 kJ/mol
# GULP energy per Si atom -5581.173172 kJ/mol
# Density = 2.123565 g / cm^3
# Si number density = 21.284098 Si / 1000 Ang^3
#
#
#
# Elastic Constant Matrix: (Units=GPa)
#
#
# Indices 1 2 3 4 5 6 
#
# 1 27.7652 -0.6377 -3.6699 0.0000 0.0000 0.0000
# 2 -0.6377 102.6594 19.0136 0.0000 0.0000 0.0000
# 3 -3.6699 19.0136 163.5790 0.0000 0.0000 0.0000
# 4 0.0000 0.0000 0.0000 32.9267 0.0000 0.0000
# 5 0.0000 0.0000 0.0000 0.0000 22.0776 0.0000
# 6 0.0000 0.0000 0.0000 0.0000 0.0000 31.3919
#
#
#
# Elastic Compliance Matrix: (Units=1/GPa)
#
#
# Indices 1 2 3 4 5 6 
#
# 1 0.036124 0.000076 0.000802 0.000000 0.000000 0.000000
# 2 0.000076 0.009955 -0.001155 0.000000 0.000000 0.000000
# 3 0.000802 -0.001155 0.006266 0.000000 0.000000 0.000000
# 4 0.000000 0.000000 0.000000 0.030370 0.000000 0.000000
# 5 0.000000 0.000000 0.000000 0.000000 0.045295 0.000000
# 6 0.000000 0.000000 0.000000 0.000000 0.000000 0.031855
#
#
# Mechanical properties :
#
#
# Convention : Reuss Voigt Hill
#
# Bulk Modulus (GPa) = 19.30904 35.93505 27.62205
# Shear Modulus (GPa) = 28.13975 35.89908 32.01942
#
# Velocity S-wave (km/s) = 3.64002 4.11135 3.88284
# Velocity P-wave (km/s) = 5.17282 6.28155 5.75395
#
# Compressibility (1/GPa) = 0.05178922
#
# Stress axis : x y z
#
# Youngs Moduli (GPa) = 27.68237 100.44773 159.60308
#
# Poissons Ratio (x) = -0.00763 -0.12794
# Poissons Ratio (y) = -0.00210 0.18442
# Poissons Ratio (z) = -0.02219 0.11606
#
# Static dielectric constant tensor:
#      x y z
#    x 1.761840 0.000000 0.000000 
#    y 0.000000 1.770760 0.000000 
#    z 0.000000 0.000000 1.783300 
# 
# From -- ./inp_files/16943.got.cif
#   From: 2010.05.17/outbox.cif.g08.bks.cpg/sg23_9_cif.got.tgz:16943.got - 2010.06.04 12:02:01.
