data_PCOD9330101
_publ_section_title
;
Structure prediction by ZEFSAII (Michael W. Deem and Ramdas Pophale) SiO2 
 PCOD9330101
Probable space group: I 2 2 2
;
_chemical_formula_sum "Si O2"
_cell_formula_units_Z 64
_cell_length_a 14.652832
_cell_length_b 11.879809
_cell_length_c 19.531467
_cell_angle_alpha 90.000000
_cell_angle_beta 90.000000
_cell_angle_gamma 90.000000
_cell_volume 3399.898037
_symmetry_space_group_name_H-M "I 2 2 2"
_symmetry_group_IT_number 23
_symmetry_cell_setting 'orthorhombic'
loop_
_space_group_symop_operation_xyz
x,y,z
-x,-y,z
x,-y,-z
-x,y,-z
1/2+x,1/2+y,1/2+z
1/2-x,1/2-y,1/2+z
1/2+x,1/2-y,1/2-z
1/2-x,1/2+y,1/2-z
loop_
_atom_site_type_symbol
_atom_site_label
_atom_site_fract_x
_atom_site_fract_y
_atom_site_fract_z
Si Si1 0.538398 0.265292 0.704765
Si Si2 0.789625 0.627606 0.771131
Si Si3 0.848235 0.751216 0.359041
Si Si4 0.867725 0.383079 0.779405
Si Si5 0.452765 0.378772 0.437474
Si Si6 0.470236 0.628117 0.847942
Si Si7 0.724839 0.247868 0.868005
Si Si8 0.744930 0.873071 0.985839
O O1 0.642439 0.227699 0.709026
O O2 0.471095 0.159217 0.712422
O O3 0.525041 0.319106 0.632219
O O4 0.521518 0.352566 0.765984
O O5 0.703923 0.643173 0.822105
O O6 0.842265 0.512451 0.782239
O O7 0.775328 0.648763 0.690060
O O8 0.843505 0.662162 0.296619
O O9 0.805701 0.697926 0.426875
O O10 0.950805 0.789651 0.375821
O O11 0.806246 0.324006 0.837677
O O12 0.500000 0.500000 0.432672
O O13 0.500000 0.314714 0.500000
O O14 0.347052 0.388362 0.456135
O O15 0.500000 0.500000 0.865305
O O16 0.369875 0.678458 0.867022
O O17 0.742240 0.195081 0.942479
O O18 0.708445 0.000000 0.000000
#
# Coordination Sequence:
#
# PCOD9330101 Si02
#       8
#     8   8   8   8   8   8   8   8
#     4  10  20  35  61  91 121 155 202 254 302 377
#     4  10  19  38  59  87 122 162 200 254 311 365
#     4  10  22  38  61  88 121 158 210 261 301 368
#     4  10  20  36  59  88 122 162 200 250 312 364
#     4  11  21  36  59  91 122 157 192 245 305 366
#     4  10  21  41  63  89 117 162 215 264 305 351
#     4  10  23  38  60  89 123 158 212 259 301 369
#     4  12  23  41  62  89 124 159 199 255 313 363
#
# _framework density 18.824093999999999
#
# number of rings (size 3 to 8) (size 9 to 14) (size 15 to 20)
#    0.000    1.625    2.500    3.000    0.000    0.500 
#    4.500    5.625    0.000    0.750    0.000    0.000 
#    0.000    0.000    0.000    0.000    0.000    0.000 
#
# Total GULP energy -178355.623538 kJ/mol
# GULP energy per Si atom -5573.613236 kJ/mol
# Density = 1.878125 g / cm^3
# Si number density = 18.824094 Si / 1000 Ang^3
#
#
#
# Elastic Constant Matrix: (Units=GPa)
#
#
# Indices 1 2 3 4 5 6 
#
# 1 73.5784 -1.8464 4.3288 0.0000 0.0000 0.0000
# 2 -1.8464 59.7374 26.1587 0.0000 0.0000 0.0000
# 3 4.3288 26.1587 117.4126 0.0000 0.0000 0.0000
# 4 0.0000 0.0000 0.0000 5.8067 0.0000 0.0000
# 5 0.0000 0.0000 0.0000 0.0000 20.9005 0.0000
# 6 0.0000 0.0000 0.0000 0.0000 0.0000 11.1903
#
#
#
# Elastic Compliance Matrix: (Units=1/GPa)
#
#
# Indices 1 2 3 4 5 6 
#
# 1 0.013648 0.000712 -0.000662 0.000000 0.000000 0.000000
# 2 0.000712 0.018587 -0.004167 0.000000 0.000000 0.000000
# 3 -0.000662 -0.004167 0.009470 0.000000 0.000000 0.000000
# 4 0.000000 0.000000 0.000000 0.172214 0.000000 0.000000
# 5 0.000000 0.000000 0.000000 0.000000 0.047846 0.000000
# 6 0.000000 0.000000 0.000000 0.000000 0.000000 0.089363
#
#
# Mechanical properties :
#
#
# Convention : Reuss Voigt Hill
#
# Bulk Modulus (GPa) = 29.87787 34.22341 32.05064
# Shear Modulus (GPa) = 13.49460 22.38532 17.93996
#
# Velocity S-wave (km/s) = 2.68036 3.45220 3.09047
# Velocity P-wave (km/s) = 5.04834 5.84040 5.45876
#
# Compressibility (1/GPa) = 0.03346958
#
# Stress axis : x y z
#
# Youngs Moduli (GPa) = 73.27224 53.80179 105.59879
#
# Poissons Ratio (x) = -0.03829 0.06988
# Poissons Ratio (y) = -0.05214 0.44006
# Poissons Ratio (z) = 0.04849 0.22420
#
# Static dielectric constant tensor:
#      x y z
#    x 1.692820 0.000000 0.000000 
#    y 0.000000 1.652720 0.000000 
#    z 0.000000 0.000000 1.692520 
# 
# From -- ./inp_files/24862.got.cif
#   From: 2010.05.17/outbox.cif.g08.bks.cpg/sg23_13_cif.got.tgz:24862.got - 2010.06.04 12:02:01.
