data_PCOD9330805
_publ_section_title
;
Structure prediction by ZEFSAII (Michael W. Deem and Ramdas Pophale) SiO2 
 PCOD9330805
Probable space group: I 2 2 2
;
_chemical_formula_sum "Si O2"
_cell_formula_units_Z 48
_cell_length_a 35.669210
_cell_length_b 14.527764
_cell_length_c 5.142162
_cell_angle_alpha 90.000000
_cell_angle_beta 90.000000
_cell_angle_gamma 90.000000
_cell_volume 2664.636801
_symmetry_space_group_name_H-M "I 2 2 2"
_symmetry_group_IT_number 23
_symmetry_cell_setting 'orthorhombic'
loop_
_space_group_symop_operation_xyz
x,y,z
-x,-y,z
x,-y,-z
-x,y,-z
1/2+x,1/2+y,1/2+z
1/2-x,1/2-y,1/2+z
1/2+x,1/2-y,1/2-z
1/2-x,1/2+y,1/2-z
loop_
_atom_site_type_symbol
_atom_site_label
_atom_site_fract_x
_atom_site_fract_y
_atom_site_fract_z
Si Si1 0.268049 0.057341 0.241855
Si Si2 0.270029 0.272789 0.638536
Si Si3 0.542083 0.610340 0.977056
Si Si4 0.352849 0.103451 0.097090
Si Si5 0.856184 0.280069 0.909064
Si Si6 0.090964 0.889449 0.021281
O O1 0.235977 0.131677 0.290738
O O2 0.307725 0.099351 0.144876
O O3 0.276196 0.000000 0.500000
O O4 0.254065 0.000000 0.000000
O O5 0.251262 0.288446 0.355562
O O6 0.311503 0.237698 0.591715
O O7 0.571470 0.633634 0.204066
O O8 0.538740 0.500000 0.000000
O O9 0.500000 0.649045 0.000000
O O10 0.559902 0.629200 0.698818
O O11 0.367068 0.145308 0.369459
O O12 0.363735 0.174470 0.870607
O O13 0.363025 0.000000 0.000000
O O14 0.875871 0.182442 0.964711
O O15 0.100483 0.000000 0.000000
#
# Coordination Sequence:
#
# PCOD9330805 Si02
#       6
#     8   8   8   8   8   8
#     4  11  21  35  54  74  95 129 186 243 286 332
#     4  12  22  37  52  74 102 139 188 231 290 350
#     4   9  17  33  57  84 116 156 191 221 259 319
#     4  11  22  37  58  78 102 138 192 248 293 325
#     4  12  22  38  57  80 114 150 180 238 296 342
#     4  10  21  35  55  85 124 156 185 221 272 345
#
# _framework density 18.013712000000002
#
# number of rings (size 3 to 8) (size 9 to 14) (size 15 to 20)
#    0.000    1.167    3.333    5.000    0.000    2.667 
#    0.000    2.500    0.000    0.000    0.000    0.000 
#    0.000   46.667    0.000    0.000    0.000    0.000 
#
# Total GULP energy -133691.499884 kJ/mol
# GULP energy per Si atom -5570.479162 kJ/mol
# Density = 1.797271 g / cm^3
# Si number density = 18.013712 Si / 1000 Ang^3
#
#
#
# Elastic Constant Matrix: (Units=GPa)
#
#
# Indices 1 2 3 4 5 6 
#
# 1 42.8940 14.6599 8.4528 -0.0003 0.0603 -0.0012
# 2 14.6599 64.3537 21.3216 0.0003 0.1185 -0.0030
# 3 8.4528 21.3216 101.5767 0.0036 0.1969 -0.0059
# 4 -0.0003 0.0003 0.0036 29.7079 0.0776 -0.0032
# 5 0.0603 0.1185 0.1969 0.0776 251.8431 0.0490
# 6 -0.0012 -0.0030 -0.0059 -0.0032 0.0490 7.4405
#
#
#
# Elastic Compliance Matrix: (Units=1/GPa)
#
#
# Indices 1 2 3 4 5 6 
#
# 1 0.025369 -0.005459 -0.000965 0.000000 -0.000003 0.000001
# 2 -0.005459 0.017875 -0.003298 0.000000 -0.000005 0.000004
# 3 -0.000965 -0.003298 0.010617 -0.000001 -0.000007 0.000007
# 4 0.000000 0.000000 -0.000001 0.033661 -0.000010 0.000014
# 5 -0.000003 -0.000005 -0.000007 -0.000010 0.003971 -0.000026
# 6 0.000001 0.000004 0.000007 0.000014 -0.000026 0.134400
#
#
# Mechanical properties :
#
#
# Convention : Reuss Voigt Hill
#
# Bulk Modulus (GPa) = 29.05516 33.07701 31.06608
# Shear Modulus (GPa) = 19.46958 68.75764 44.11361
#
# Velocity S-wave (km/s) = 3.29115 6.18486 4.95400
# Velocity P-wave (km/s) = 5.53233 8.33098 7.07149
#
# Compressibility (1/GPa) = 0.03441730
#
# Stress axis : x y z
#
# Youngs Moduli (GPa) = 39.41763 55.94275 94.18552
#
# Poissons Ratio (x) = 0.30541 0.09091
# Poissons Ratio (y) = 0.21520 0.31061
# Poissons Ratio (z) = 0.03804 0.18449
#
# Static dielectric constant tensor:
#      x y z
#    x 1.600450 0.000000 0.000000 
#    y 0.000000 1.674540 -0.000010 
#    z 0.000000 -0.000010 1.682710 
# 
# From -- ./inp_files/4909.got.cif
#   From: 2010.05.17/outbox.cif.g08.bks.cpg/sg23_3_cif.got.tgz:4909.got - 2010.06.04 12:02:01.
