data_PCOD9330553
_publ_section_title
;
Structure prediction by ZEFSAII (Michael W. Deem and Ramdas Pophale) SiO2 
 PCOD9330553
Probable space group: I 2 2 2
;
_chemical_formula_sum "Si O2"
_cell_formula_units_Z 64
_cell_length_a 7.272004
_cell_length_b 18.954369
_cell_length_c 19.871704
_cell_angle_alpha 90.000000
_cell_angle_beta 90.000000
_cell_angle_gamma 90.000000
_cell_volume 2739.041105
_symmetry_space_group_name_H-M "I 2 2 2"
_symmetry_group_IT_number 23
_symmetry_cell_setting 'orthorhombic'
loop_
_space_group_symop_operation_xyz
x,y,z
-x,-y,z
x,-y,-z
-x,y,-z
1/2+x,1/2+y,1/2+z
1/2-x,1/2-y,1/2+z
1/2+x,1/2-y,1/2-z
1/2-x,1/2+y,1/2-z
loop_
_atom_site_type_symbol
_atom_site_label
_atom_site_fract_x
_atom_site_fract_y
_atom_site_fract_z
Si Si1 0.105901 0.247595 0.301868
Si Si2 0.221448 0.987229 0.281237
Si Si3 0.831148 0.876864 0.838497
Si Si4 0.277930 0.663287 0.397181
Si Si5 0.720607 0.575830 0.481498
Si Si6 0.878316 0.797552 0.566124
Si Si7 0.299715 0.537711 0.933447
Si Si8 0.361065 0.861241 0.760522
O O1 0.266688 0.297205 0.329410
O O2 0.179170 0.178684 0.264610
O O3 0.994478 0.215537 0.365249
O O4 0.015173 0.301151 0.246336
O O5 0.335047 0.057783 0.260238
O O6 0.227978 0.924662 0.225426
O O7 0.280534 0.970250 0.357954
O O8 0.000000 0.000000 0.282372
O O9 0.742191 0.909520 0.904791
O O10 0.043679 0.872670 0.863173
O O11 0.206662 0.630961 0.465889
O O12 0.292422 0.745307 0.417588
O O13 0.128451 0.646345 0.340753
O O14 0.788730 0.500000 0.500000
O O15 0.500000 0.577554 0.500000
O O16 0.822212 0.878682 0.556287
O O17 0.000000 0.778803 0.500000
O O18 0.500000 0.500000 0.929047
O O19 0.214400 0.500000 0.000000
#
# Coordination Sequence:
#
# PCOD9330553 Si02
#       8
#     8   8   8   8   8   8   8   8
#     4  11  25  40  64  95 137 171 226 291 354 415
#     4  11  22  37  67  95 130 178 230 279 344 417
#     4  11  22  39  64  96 133 176 224 276 345 424
#     4  10  21  36  60  93 129 173 221 271 338 402
#     4   9  18  33  57  88 126 170 216 261 316 403
#     4  11  22  39  65  99 135 174 230 290 341 416
#     4  10  20  38  63  96 127 173 236 282 338 404
#     4  11  23  40  62  93 128 174 224 284 346 411
#
# _framework density 23.365842000000001
#
# number of rings (size 3 to 8) (size 9 to 14) (size 15 to 20)
#    0.000    1.500    2.500    3.750    5.250    0.500 
#    0.000    0.000    0.000    4.875    0.000    2.625 
#    0.000    0.000    0.000    0.000    0.000    0.000 
#
# Total GULP energy -178302.862241 kJ/mol
# GULP energy per Si atom -5571.964445 kJ/mol
# Density = 2.331266 g / cm^3
# Si number density = 23.365842 Si / 1000 Ang^3
#
#
#
# Elastic Constant Matrix: (Units=GPa)
#
#
# Indices 1 2 3 4 5 6 
#
# 1 33.6611 15.1909 21.7118 0.0000 0.0000 0.0000
# 2 15.1909 173.0160 85.7606 0.0000 0.0000 0.0000
# 3 21.7118 85.7606 188.9062 0.0000 0.0000 0.0000
# 4 0.0000 0.0000 0.0000 46.0094 0.0000 0.0000
# 5 0.0000 0.0000 0.0000 0.0000 14.7849 0.0000
# 6 0.0000 0.0000 0.0000 0.0000 0.0000 28.9710
#
#
#
# Elastic Compliance Matrix: (Units=1/GPa)
#
#
# Indices 1 2 3 4 5 6 
#
# 1 0.032307 -0.001285 -0.003130 0.000000 0.000000 0.000000
# 2 -0.001285 0.007509 -0.003261 0.000000 0.000000 0.000000
# 3 -0.003130 -0.003261 0.007134 0.000000 0.000000 0.000000
# 4 0.000000 0.000000 0.000000 0.021735 0.000000 0.000000
# 5 0.000000 0.000000 0.000000 0.000000 0.067636 0.000000
# 6 0.000000 0.000000 0.000000 0.000000 0.000000 0.034517
#
#
# Mechanical properties :
#
#
# Convention : Reuss Voigt Hill
#
# Bulk Modulus (GPa) = 31.64835 71.21222 51.43028
# Shear Modulus (GPa) = 25.41646 36.14774 30.78210
#
# Velocity S-wave (km/s) = 3.30170 3.93750 3.63353
# Velocity P-wave (km/s) = 5.30180 7.15647 6.29779
#
# Compressibility (1/GPa) = 0.03159723
#
# Stress axis : x y z
#
# Youngs Moduli (GPa) = 30.95351 133.16895 140.17477
#
# Poissons Ratio (x) = 0.17115 0.43870
# Poissons Ratio (y) = 0.03978 0.45716
# Poissons Ratio (z) = 0.09687 0.43431
#
# Static dielectric constant tensor:
#      x y z
#    x 2.059650 0.000000 0.000000 
#    y 0.000000 1.960220 0.000000 
#    z 0.000000 0.000000 1.913660 
# 
# From -- ./inp_files/26357.got.cif
#   From: 2010.05.17/outbox.cif.g08.bks.cpg/sg23_14_cif.got.tgz:26357.got - 2010.06.04 12:02:01.
