data_PCOD9331274
_publ_section_title
;
Structure prediction by ZEFSAII (Michael W. Deem and Ramdas Pophale) SiO2 
 PCOD9331274
Probable space group: I 2 2 2
;
_chemical_formula_sum "Si O2"
_cell_formula_units_Z 28
_cell_length_a 5.346656
_cell_length_b 18.387416
_cell_length_c 11.846794
_cell_angle_alpha 90.000000
_cell_angle_beta 90.000000
_cell_angle_gamma 90.000000
_cell_volume 1164.672393
_symmetry_space_group_name_H-M "I 2 2 2"
_symmetry_group_IT_number 23
_symmetry_cell_setting 'orthorhombic'
loop_
_space_group_symop_operation_xyz
x,y,z
-x,-y,z
x,-y,-z
-x,y,-z
1/2+x,1/2+y,1/2+z
1/2-x,1/2-y,1/2+z
1/2+x,1/2-y,1/2-z
1/2-x,1/2+y,1/2-z
loop_
_atom_site_type_symbol
_atom_site_label
_atom_site_fract_x
_atom_site_fract_y
_atom_site_fract_z
Si Si1 0.500000 0.194151 0.500000
Si Si2 0.126674 0.693660 0.612732
Si Si3 0.104761 0.839393 0.324174
Si Si4 0.755535 0.033144 0.628840
O O1 0.666643 0.250551 0.568787
O O2 0.685521 0.147815 0.420737
O O3 0.262294 0.644791 0.705405
O O4 0.000000 0.660702 0.500000
O O5 0.935485 0.751612 0.669862
O O6 0.848999 0.883096 0.354148
O O7 0.500000 0.000000 0.676856
O O8 0.757185 0.000000 0.500000
O O9 0.000000 0.000000 0.686993
#
# Coordination Sequence:
#
# PCOD9331274 Si02
#       4
#     4   8   8   8
#     4  10  22  36  61 100 141 196 242 302 390 450
#     4  10  22  37  63  99 143 206 243 314 384 444
#     4  11  22  39  65  98 158 194 255 310 387 463
#     4  10  25  40  62  99 148 201 244 301 374 450
#
# _framework density 24.041094000000001
#
# number of rings (size 3 to 8) (size 9 to 14) (size 15 to 20)
#    0.000    1.714    2.857    0.000   16.000    0.000 
#    0.000    0.000    0.000    0.000    0.000    1.000 
#    8.571    2.286    0.000    0.000    0.000    0.000 
#
# Total GULP energy -78003.396127 kJ/mol
# GULP energy per Si atom -5571.671152 kJ/mol
# Density = 2.398637 g / cm^3
# Si number density = 24.041094 Si / 1000 Ang^3
#
#
#
# Elastic Constant Matrix: (Units=GPa)
#
#
# Indices 1 2 3 4 5 6 
#
# 1 190.0140 32.5446 61.9514 0.0000 0.0000 0.0000
# 2 32.5446 82.3004 41.7370 0.0000 0.0000 0.0000
# 3 61.9514 41.7370 158.5463 -0.0001 0.0000 0.0000
# 4 0.0000 0.0000 -0.0001 15.7318 0.0000 0.0000
# 5 0.0000 0.0000 0.0000 0.0000 46.4934 0.0000
# 6 0.0000 0.0000 0.0000 0.0000 0.0000 34.9349
#
#
#
# Elastic Compliance Matrix: (Units=1/GPa)
#
#
# Indices 1 2 3 4 5 6 
#
# 1 0.006169 -0.001404 -0.002041 0.000000 0.000000 0.000000
# 2 -0.001404 0.014342 -0.003227 0.000000 0.000000 0.000000
# 3 -0.002041 -0.003227 0.007954 0.000000 0.000000 0.000000
# 4 0.000000 0.000000 0.000000 0.063565 0.000000 0.000000
# 5 0.000000 0.000000 0.000000 0.000000 0.021508 0.000000
# 6 0.000000 0.000000 0.000000 0.000000 0.000000 0.028625
#
#
# Mechanical properties :
#
#
# Convention : Reuss Voigt Hill
#
# Bulk Modulus (GPa) = 66.13169 78.14740 72.13955
# Shear Modulus (GPa) = 31.14335 39.07388 35.10862
#
# Velocity S-wave (km/s) = 3.60310 4.03587 3.82561
# Velocity P-wave (km/s) = 6.69905 7.36844 7.04171
#
# Compressibility (1/GPa) = 0.01512134
#
# Stress axis : x y z
#
# Youngs Moduli (GPa) = 162.11025 69.72335 125.72069
#
# Poissons Ratio (x) = 0.09792 0.25655
# Poissons Ratio (y) = 0.22767 0.40568
# Poissons Ratio (z) = 0.33081 0.22499
#
# Static dielectric constant tensor:
#      x y z
#    x 2.068430 0.000000 0.000000 
#    y 0.000000 2.157070 0.000000 
#    z 0.000000 0.000000 1.956230 
# 
# From -- ./inp_files/13724.got.cif
#   From: 2010.05.17/outbox.cif.g08.bks.cpg/sg23_7_cif.got.tgz:13724.got - 2010.06.04 12:02:01.
