data_PCOD9331991
_publ_section_title
;
Structure prediction by ZEFSAII (Michael W. Deem and Ramdas Pophale) SiO2 
 PCOD9331991
Probable space group: I 2 2 2
;
_chemical_formula_sum "Si O2"
_cell_formula_units_Z 30
_cell_length_a 13.937479
_cell_length_b 7.086288
_cell_length_c 11.955465
_cell_angle_alpha 90.000000
_cell_angle_beta 90.000000
_cell_angle_gamma 90.000000
_cell_volume 1180.781383
_symmetry_space_group_name_H-M "I 2 2 2"
_symmetry_group_IT_number 23
_symmetry_cell_setting 'orthorhombic'
loop_
_space_group_symop_operation_xyz
x,y,z
-x,-y,z
x,-y,-z
-x,y,-z
1/2+x,1/2+y,1/2+z
1/2-x,1/2-y,1/2+z
1/2+x,1/2-y,1/2-z
1/2-x,1/2+y,1/2-z
loop_
_atom_site_type_symbol
_atom_site_label
_atom_site_fract_x
_atom_site_fract_y
_atom_site_fract_z
Si Si1 0.341153 0.000000 0.500000
Si Si2 0.962392 0.781798 0.843013
Si Si3 0.500000 0.000000 0.000000
Si Si4 0.375389 0.178234 0.813283
Si Si5 0.199586 0.908369 0.311839
O O1 0.406026 0.160835 0.437347
O O2 0.268098 0.881628 0.418703
O O3 0.055435 0.676327 0.794695
O O4 0.887566 0.786343 0.737629
O O5 0.000000 0.000000 0.867811
O O6 0.568153 0.115535 0.079934
O O7 0.348155 0.392785 0.831571
O O8 0.275962 0.074357 0.789244
#
# Coordination Sequence:
#
# PCOD9331991 Si02
#       5
#     4   8   2   8   8
#     4  12  24  47  89 110 168 226 265 336 427 478
#     4  10  25  50  77 122 168 208 276 344 404 493
#     4  12  28  44  78 122 150 224 270 336 410 490
#     4  11  26  49  77 109 170 200 273 339 400 482
#     4  11  25  48  77 119 158 209 268 335 400 496
#
# _framework density 25.406904999999998
#
# number of rings (size 3 to 8) (size 9 to 14) (size 15 to 20)
#    0.000    1.067    2.667    1.600    3.733    2.133 
#    0.000   10.667    0.000    0.000    0.000    0.000 
#    0.000    0.000    0.000    0.000    0.000    0.000 
#
# Total GULP energy -83905.461089 kJ/mol
# GULP energy per Si atom -5593.697406 kJ/mol
# Density = 2.534908 g / cm^3
# Si number density = 25.406905 Si / 1000 Ang^3
#
#
#
# Elastic Constant Matrix: (Units=GPa)
#
#
# Indices 1 2 3 4 5 6 
#
# 1 158.5533 21.6327 52.0169 0.0000 0.0000 0.0000
# 2 21.6327 75.8219 16.3816 0.0000 0.0000 0.0000
# 3 52.0169 16.3816 114.6975 0.0000 0.0000 0.0000
# 4 0.0000 0.0000 0.0000 14.7650 0.0000 0.0000
# 5 0.0000 0.0000 0.0000 0.0000 1.3617 0.0000
# 6 0.0000 0.0000 0.0000 0.0000 0.0000 69.0786
#
#
#
# Elastic Compliance Matrix: (Units=1/GPa)
#
#
# Indices 1 2 3 4 5 6 
#
# 1 0.007563 -0.001462 -0.003221 0.000000 0.000000 0.000000
# 2 -0.001462 0.013891 -0.001321 0.000000 0.000000 0.000000
# 3 -0.003221 -0.001321 0.010368 0.000000 0.000000 0.000000
# 4 0.000000 0.000000 0.000000 0.067728 0.000000 0.000000
# 5 0.000000 0.000000 0.000000 0.000000 0.734392 0.000000
# 6 0.000000 0.000000 0.000000 0.000000 0.000000 0.014476
#
#
# Mechanical properties :
#
#
# Convention : Reuss Voigt Hill
#
# Bulk Modulus (GPa) = 50.46847 58.79281 54.63064
# Shear Modulus (GPa) = 5.76680 34.31049 20.03864
#
# Velocity S-wave (km/s) = 1.50821 3.67882 2.81144
# Velocity P-wave (km/s) = 4.78959 6.42150 5.66462
#
# Compressibility (1/GPa) = 0.01981435
#
# Stress axis : x y z
#
# Youngs Moduli (GPa) = 132.21756 71.98746 96.44922
#
# Poissons Ratio (x) = 0.10524 0.31069
# Poissons Ratio (y) = 0.19329 0.12741
# Poissons Ratio (z) = 0.42591 0.09510
#
# Static dielectric constant tensor:
#      x y z
#    x 1.977510 0.000000 0.000000 
#    y 0.000000 2.055160 0.000000 
#    z 0.000000 0.000000 2.073130 
# 
# From -- ./inp_files/16275.got.cif
#   From: 2010.05.17/outbox.cif.g08.bks.cpg/sg23_9_cif.got.tgz:16275.got - 2010.06.04 12:02:01.
