data_PCOD9331190
_publ_section_title
;
Structure prediction by ZEFSAII (Michael W. Deem and Ramdas Pophale) SiO2 
 PCOD9331190
Probable space group: I 2 2 2
;
_chemical_formula_sum "Si O2"
_cell_formula_units_Z 28
_cell_length_a 26.734741
_cell_length_b 5.629647
_cell_length_c 8.123661
_cell_angle_alpha 90.000000
_cell_angle_beta 90.000000
_cell_angle_gamma 90.000000
_cell_volume 1222.669101
_symmetry_space_group_name_H-M "I 2 2 2"
_symmetry_group_IT_number 23
_symmetry_cell_setting 'orthorhombic'
loop_
_space_group_symop_operation_xyz
x,y,z
-x,-y,z
x,-y,-z
-x,y,-z
1/2+x,1/2+y,1/2+z
1/2-x,1/2-y,1/2+z
1/2+x,1/2-y,1/2-z
1/2-x,1/2+y,1/2-z
loop_
_atom_site_type_symbol
_atom_site_label
_atom_site_fract_x
_atom_site_fract_y
_atom_site_fract_z
Si Si1 0.673825 0.500000 0.500000
Si Si2 0.242472 0.739228 0.338930
Si Si3 0.980545 0.257320 0.310542
Si Si4 0.131589 0.839940 0.340634
O O1 0.712985 0.284732 0.471676
O O2 0.642331 0.468340 0.665598
O O3 0.254158 0.503627 0.232693
O O4 0.184068 0.711942 0.383319
O O5 0.920733 0.288328 0.314064
O O6 0.000000 0.500000 0.229307
O O7 0.000000 0.255907 0.500000
O O8 0.000000 0.000000 0.243701
O O9 0.122330 0.000000 0.500000
#
# Coordination Sequence:
#
# PCOD9331190 Si02
#       4
#     4   8   8   8
#     4  10  26  44  69 108 147 178 246 284 342 446
#     4  10  25  45  68 104 148 185 229 288 348 428
#     4  10  21  42  68  99 131 173 239 288 344 421
#     4  11  24  44  75 101 140 196 228 298 361 415
#
# _framework density 22.900715999999999
#
# number of rings (size 3 to 8) (size 9 to 14) (size 15 to 20)
#    0.000    1.714    2.857    0.000   16.000    6.857 
#    0.000    0.714    0.000    3.429    0.000    0.000 
#    0.000    0.000    0.000    0.000    0.000    0.000 
#
# Total GULP energy -77978.015002 kJ/mol
# GULP energy per Si atom -5569.858214 kJ/mol
# Density = 2.284859 g / cm^3
# Si number density = 22.900716 Si / 1000 Ang^3
#
#
#
# Elastic Constant Matrix: (Units=GPa)
#
#
# Indices 1 2 3 4 5 6 
#
# 1 190.8980 37.4814 12.4654 0.0000 0.0000 0.0000
# 2 37.4814 157.1422 32.2443 0.0000 0.0000 0.0000
# 3 12.4654 32.2443 106.6759 0.0000 0.0000 0.0000
# 4 0.0000 0.0000 0.0000 27.3627 0.0000 0.0000
# 5 0.0000 0.0000 0.0000 0.0000 15.4060 0.0000
# 6 0.0000 0.0000 0.0000 0.0000 0.0000 33.1659
#
#
#
# Elastic Compliance Matrix: (Units=1/GPa)
#
#
# Indices 1 2 3 4 5 6 
#
# 1 0.005503 -0.001259 -0.000263 0.000000 0.000000 0.000000
# 2 -0.001259 0.007072 -0.001991 0.000000 0.000000 0.000000
# 3 -0.000263 -0.001991 0.010007 0.000000 0.000000 0.000000
# 4 0.000000 0.000000 0.000000 0.036546 0.000000 0.000000
# 5 0.000000 0.000000 0.000000 0.000000 0.064910 0.000000
# 6 0.000000 0.000000 0.000000 0.000000 0.000000 0.030151
#
#
# Mechanical properties :
#
#
# Convention : Reuss Voigt Hill
#
# Bulk Modulus (GPa) = 64.27595 68.78871 66.53233
# Shear Modulus (GPa) = 30.04831 40.02191 35.03511
#
# Velocity S-wave (km/s) = 3.62624 4.18500 3.91560
# Velocity P-wave (km/s) = 6.75729 7.31131 7.03975
#
# Compressibility (1/GPa) = 0.01555792
#
# Stress axis : x y z
#
# Youngs Moduli (GPa) = 181.73019 141.39614 99.93429
#
# Poissons Ratio (x) = 0.17796 0.02624
# Poissons Ratio (y) = 0.22873 0.19893
# Poissons Ratio (z) = 0.04772 0.28147
#
# Static dielectric constant tensor:
#      x y z
#    x 1.839980 0.000000 0.000000 
#    y 0.000000 1.894080 0.000000 
#    z 0.000000 0.000000 2.071780 
# 
# From -- ./inp_files/12817.got.cif
#   From: 2010.05.17/outbox.cif.g08.bks.cpg/sg23_7_cif.got.tgz:12817.got - 2010.06.04 12:02:01.
