data_PCOD9331829
_publ_section_title
;
Structure prediction by ZEFSAII (Michael W. Deem and Ramdas Pophale) SiO2 
 PCOD9331829
Probable space group: I 2 2 2
;
_chemical_formula_sum "Si O2"
_cell_formula_units_Z 38
_cell_length_a 25.972531
_cell_length_b 6.203718
_cell_length_c 10.093872
_cell_angle_alpha 90.000000
_cell_angle_beta 90.000000
_cell_angle_gamma 90.000000
_cell_volume 1626.387825
_symmetry_space_group_name_H-M "I 2 2 2"
_symmetry_group_IT_number 23
_symmetry_cell_setting 'orthorhombic'
loop_
_space_group_symop_operation_xyz
x,y,z
-x,-y,z
x,-y,-z
-x,y,-z
1/2+x,1/2+y,1/2+z
1/2-x,1/2-y,1/2+z
1/2+x,1/2-y,1/2-z
1/2-x,1/2+y,1/2-z
loop_
_atom_site_type_symbol
_atom_site_label
_atom_site_fract_x
_atom_site_fract_y
_atom_site_fract_z
Si Si1 0.450441 0.643119 0.309412
Si Si2 0.637980 0.313189 0.649184
Si Si3 0.201993 0.927175 0.643929
Si Si4 0.000000 0.500000 0.000000
Si Si5 0.697288 0.000000 0.500000
Si Si6 0.623381 0.074922 0.149170
O O1 0.500000 0.500000 0.274152
O O2 0.409804 0.470602 0.364883
O O3 0.467124 0.835851 0.408532
O O4 0.420349 0.754265 0.188769
O O5 0.681233 0.438406 0.733278
O O6 0.661194 0.208001 0.515789
O O7 0.621592 0.115499 0.743994
O O8 0.262219 0.970054 0.619920
O O9 0.179203 0.689480 0.658850
O O10 0.179122 0.000000 0.500000
O O11 0.616089 0.000000 0.000000
#
# Coordination Sequence:
#
# PCOD9331829 Si02
#       6
#     8   8   8   2   4   8
#     4  11  27  48  79 105 147 195 254 328 398 471
#     4  11  24  45  72 113 148 198 260 311 381 470
#     4   9  21  42  69 105 150 204 243 310 370 454
#     4  12  26  54  78 102 148 204 250 340 416 454
#     4  10  24  41  74 111 151 206 250 315 384 458
#     4  11  22  45  76 104 153 196 248 310 384 463
#
# _framework density 23.364659
#
# number of rings (size 3 to 8) (size 9 to 14) (size 15 to 20)
#    0.632    0.842    2.105    1.579    2.947    5.053 
#    0.000   13.158    4.632    0.000    0.000    0.000 
#    0.000    0.000    0.000    0.000    0.000    0.000 
#
# Total GULP energy -106239.787966 kJ/mol
# GULP energy per Si atom -5591.567788 kJ/mol
# Density = 2.331148 g / cm^3
# Si number density = 23.364659 Si / 1000 Ang^3
#
#
#
# Elastic Constant Matrix: (Units=GPa)
#
#
# Indices 1 2 3 4 5 6 
#
# 1 165.7773 87.1660 60.9193 0.0000 0.0000 0.0000
# 2 87.1660 158.9482 76.0247 0.0000 0.0000 0.0000
# 3 60.9193 76.0247 110.6591 0.0000 0.0000 0.0000
# 4 0.0000 0.0000 0.0000 42.4373 0.0000 0.0000
# 5 0.0000 0.0000 0.0000 0.0000 25.4843 0.0000
# 6 0.0000 0.0000 0.0000 0.0000 0.0000 31.8016
#
#
#
# Elastic Compliance Matrix: (Units=1/GPa)
#
#
# Indices 1 2 3 4 5 6 
#
# 1 0.008850 -0.003758 -0.002290 0.000000 0.000000 0.000000
# 2 -0.003758 0.010966 -0.005465 0.000000 0.000000 0.000000
# 3 -0.002290 -0.005465 0.014052 0.000000 0.000000 0.000000
# 4 0.000000 0.000000 0.000000 0.023564 0.000000 0.000000
# 5 0.000000 0.000000 0.000000 0.000000 0.039240 0.000000
# 6 0.000000 0.000000 0.000000 0.000000 0.000000 0.031445
#
#
# Mechanical properties :
#
#
# Convention : Reuss Voigt Hill
#
# Bulk Modulus (GPa) = 92.23669 98.17829 95.20749
# Shear Modulus (GPa) = 32.30874 34.02961 33.16917
#
# Velocity S-wave (km/s) = 3.72264 3.82050 3.77189
# Velocity P-wave (km/s) = 7.61841 7.84683 7.73346
#
# Compressibility (1/GPa) = 0.01084167
#
# Stress axis : x y z
#
# Youngs Moduli (GPa) = 112.99993 91.19090 71.16275
#
# Poissons Ratio (x) = 0.34266 0.16298
# Poissons Ratio (y) = 0.42461 0.38892
# Poissons Ratio (z) = 0.25880 0.49838
#
# Static dielectric constant tensor:
#      x y z
#    x 1.885130 0.000000 0.000000 
#    y 0.000000 1.900800 0.000000 
#    z 0.000000 0.000000 1.864180 
# 
# From -- ./inp_files/18713.got.cif
#   From: 2010.05.17/outbox.cif.g08.bks.cpg/sg23_10_cif.got.tgz:18713.got - 2010.06.04 12:02:01.
