data_PCOD9331592
_publ_section_title
;
Structure prediction by ZEFSAII (Michael W. Deem and Ramdas Pophale) SiO2 
 PCOD9331592
Probable space group: I 2 2 2
;
_chemical_formula_sum "Si O2"
_cell_formula_units_Z 28
_cell_length_a 8.359400
_cell_length_b 12.696990
_cell_length_c 10.084235
_cell_angle_alpha 90.000000
_cell_angle_beta 90.000000
_cell_angle_gamma 90.000000
_cell_volume 1070.332819
_symmetry_space_group_name_H-M "I 2 2 2"
_symmetry_group_IT_number 23
_symmetry_cell_setting 'orthorhombic'
loop_
_space_group_symop_operation_xyz
x,y,z
-x,-y,z
x,-y,-z
-x,y,-z
1/2+x,1/2+y,1/2+z
1/2-x,1/2-y,1/2+z
1/2+x,1/2-y,1/2-z
1/2-x,1/2+y,1/2-z
loop_
_atom_site_type_symbol
_atom_site_label
_atom_site_fract_x
_atom_site_fract_y
_atom_site_fract_z
Si Si1 0.337977 0.184477 0.567189
Si Si2 0.000000 0.000000 0.209080
Si Si3 0.650280 0.068150 0.173285
Si Si4 0.649882 0.695263 0.818610
O O1 0.500000 0.228792 0.500000
O O2 0.362017 0.088369 0.667736
O O3 0.277684 0.273671 0.673284
O O4 0.246410 0.146418 0.438482
O O5 0.984845 0.889714 0.288026
O O6 0.175425 0.981747 0.143927
O O7 0.625282 0.187516 0.123770
O O8 0.500000 0.000000 0.135423
#
# Coordination Sequence:
#
# PCOD9331592 Si02
#       4
#     8   4   8   8
#     4  10  22  46  74 108 158 201 255 334 389 469
#     4  12  24  45  77 116 148 209 265 324 388 487
#     4  10  25  44  76 108 158 202 260 322 400 462
#     4  10  25  45  77 116 152 205 267 321 398 473
#
# _framework density 26.160088999999999
#
# number of rings (size 3 to 8) (size 9 to 14) (size 15 to 20)
#    1.714    0.000    0.000    3.429    4.000    6.286 
#    0.000    6.429    0.000    3.429    0.000    0.000 
#    0.000    0.000    0.000    0.000    0.000    0.000 
#
# Total GULP energy -77946.915438 kJ/mol
# GULP energy per Si atom -5567.636817 kJ/mol
# Density = 2.610055 g / cm^3
# Si number density = 26.160089 Si / 1000 Ang^3
#
#
#
# Elastic Constant Matrix: (Units=GPa)
#
#
# Indices 1 2 3 4 5 6 
#
# 1 122.4478 34.3651 41.9692 0.0000 0.0000 0.0000
# 2 34.3651 139.5287 -2.1917 0.0001 0.0000 0.0000
# 3 41.9692 -2.1917 198.9440 0.0001 0.0000 0.0000
# 4 0.0000 0.0001 0.0001 12.4699 0.0000 0.0000
# 5 0.0000 0.0000 0.0000 0.0000 -54.7654 0.0000
# 6 0.0000 0.0000 0.0000 0.0000 0.0000 19.6252
#
#
#
# Elastic Compliance Matrix: (Units=1/GPa)
#
#
# Indices 1 2 3 4 5 6 
#
# 1 0.009533 -0.002380 -0.002037 0.000000 0.000000 0.000000
# 2 -0.002380 0.007762 0.000588 0.000000 0.000000 0.000000
# 3 -0.002037 0.000588 0.005463 0.000000 0.000000 0.000000
# 4 0.000000 0.000000 0.000000 0.080193 0.000000 0.000000
# 5 0.000000 0.000000 0.000000 0.000000 -0.018260 0.000000
# 6 0.000000 0.000000 0.000000 0.000000 0.000000 0.050955
#
#
# Mechanical properties :
#
#
# Convention : Reuss Voigt Hill
#
# Bulk Modulus (GPa) = 66.23005 67.68951 66.95978
# Shear Modulus (GPa) = 33.70661 21.25112 27.47887
#
# Velocity S-wave (km/s) = 3.59343 2.85327 3.24452
# Velocity P-wave (km/s) = 6.52603 6.06516 6.29981
#
# Compressibility (1/GPa) = 0.01509889
#
# Stress axis : x y z
#
# Youngs Moduli (GPa) = 104.89928 128.82658 183.05630
#
# Poissons Ratio (x) = 0.30660 0.37294
# Poissons Ratio (y) = 0.24965 -0.10756
# Poissons Ratio (z) = 0.21371 -0.07570
#
# Static dielectric constant tensor:
#      x y z
#    x 2.214440 0.000000 0.000000 
#    y 0.000000 2.093010 0.000000 
#    z 0.000000 0.000000 2.041190 
# 
# From -- ./inp_files/14200.got.cif
#   From: 2010.05.17/outbox.cif.g08.bks.cpg/sg23_8_cif.got.tgz:14200.got - 2010.06.04 12:02:01.
