data_PCOD9331747
_publ_section_title
;
Structure prediction by ZEFSAII (Michael W. Deem and Ramdas Pophale) SiO2 
 PCOD9331747
Probable space group: I 2 2 2
;
_chemical_formula_sum "Si O2"
_cell_formula_units_Z 48
_cell_length_a 15.456727
_cell_length_b 8.505915
_cell_length_c 16.563184
_cell_angle_alpha 90.000000
_cell_angle_beta 90.000000
_cell_angle_gamma 90.000000
_cell_volume 2177.621528
_symmetry_space_group_name_H-M "I 2 2 2"
_symmetry_group_IT_number 23
_symmetry_cell_setting 'orthorhombic'
loop_
_space_group_symop_operation_xyz
x,y,z
-x,-y,z
x,-y,-z
-x,y,-z
1/2+x,1/2+y,1/2+z
1/2-x,1/2-y,1/2+z
1/2+x,1/2-y,1/2-z
1/2-x,1/2+y,1/2-z
loop_
_atom_site_type_symbol
_atom_site_label
_atom_site_fract_x
_atom_site_fract_y
_atom_site_fract_z
Si Si1 0.577334 0.896869 0.110356
Si Si2 0.597117 0.440231 0.914918
Si Si3 0.743747 0.912976 0.865575
Si Si4 0.137479 0.000000 0.000000
Si Si5 0.235107 0.917499 0.702402
Si Si6 0.000000 0.000000 0.870263
Si Si7 0.561077 0.849757 0.300785
O O1 0.585577 0.739152 0.064413
O O2 0.559678 0.847384 0.203602
O O3 0.500000 0.000000 0.084115
O O4 0.662988 0.994093 0.102612
O O5 0.500000 0.500000 0.892524
O O6 0.671413 0.473869 0.849819
O O7 0.629203 0.500000 0.000000
O O8 0.709433 0.760507 0.818523
O O9 0.804167 0.886711 0.943679
O O10 0.780002 0.026207 0.794189
O O11 0.074493 0.933942 0.930546
O O12 0.338602 0.904071 0.682272
O O13 0.035179 0.167111 0.828275
O O14 0.500000 0.000000 0.326347
#
# Coordination Sequence:
#
# PCOD9331747 Si02
#       7
#     8   8   8   4   8   4   8
#     4  10  23  44  71 105 137 190 242 304 373 442
#     4  11  26  44  67 103 143 186 241 303 369 448
#     4  11  24  44  72 103 145 187 245 305 373 446
#     4  11  26  42  69 106 146 200 243 308 390 449
#     4  11  23  47  70 105 142 192 248 300 376 447
#     4  11  24  46  72 104 151 198 249 304 394 450
#     4  10  23  44  73 111 142 189 254 306 362 460
#
# _framework density 22.042397000000001
#
# number of rings (size 3 to 8) (size 9 to 14) (size 15 to 20)
#    0.000    1.333    1.667    3.000    3.500    5.333 
#    1.500    1.667    0.000    0.000    0.000    0.000 
#    0.000    0.000    0.000    0.000    0.000    0.000 
#
# Total GULP energy -133619.443009 kJ/mol
# GULP energy per Si atom -5567.476792 kJ/mol
# Density = 2.199223 g / cm^3
# Si number density = 22.042397 Si / 1000 Ang^3
#
#
#
# Elastic Constant Matrix: (Units=GPa)
#
#
# Indices 1 2 3 4 5 6 
#
# 1 87.0191 21.7748 47.5374 0.0000 0.0000 0.0000
# 2 21.7748 114.1175 17.9016 0.0000 0.0000 0.0000
# 3 47.5374 17.9016 96.6647 0.0000 0.0000 0.0000
# 4 0.0000 0.0000 0.0000 8.2897 0.0000 0.0000
# 5 0.0000 0.0000 0.0000 0.0000 -14.2846 0.0000
# 6 0.0000 0.0000 0.0000 0.0000 0.0000 36.0676
#
#
#
# Elastic Compliance Matrix: (Units=1/GPa)
#
#
# Indices 1 2 3 4 5 6 
#
# 1 0.016097 -0.001884 -0.007567 0.000000 0.000000 0.000000
# 2 -0.001884 0.009246 -0.000786 0.000000 0.000000 0.000000
# 3 -0.007567 -0.000786 0.014212 0.000000 0.000000 0.000000
# 4 0.000000 0.000000 0.000000 0.120631 0.000000 0.000000
# 5 0.000000 0.000000 0.000000 0.000000 -0.070006 0.000000
# 6 0.000000 0.000000 0.000000 0.000000 0.000000 0.027726
#
#
# Mechanical properties :
#
#
# Convention : Reuss Voigt Hill
#
# Bulk Modulus (GPa) = 52.40981 52.46989 52.43985
# Shear Modulus (GPa) = 34.54465 20.05372 27.29919
#
# Velocity S-wave (km/s) = 3.96307 3.01953 3.52303
# Velocity P-wave (km/s) = 6.69102 6.00104 6.35540
#
# Compressibility (1/GPa) = 0.01908040
#
# Stress axis : x y z
#
# Youngs Moduli (GPa) = 62.12279 108.15847 70.36364
#
# Poissons Ratio (x) = 0.20382 0.53246
# Poissons Ratio (y) = 0.11707 0.05527
# Poissons Ratio (z) = 0.47010 0.08496
#
# Static dielectric constant tensor:
#      x y z
#    x 1.932310 0.000000 0.000000 
#    y 0.000000 1.937400 0.000000 
#    z 0.000000 0.000000 1.815570 
# 
# From -- ./inp_files/24766.got.cif
#   From: 2010.05.17/outbox.cif.g08.bks.cpg/sg23_13_cif.got.tgz:24766.got - 2010.06.04 12:02:01.
