data_PCOD9331221
_publ_section_title
;
Structure prediction by ZEFSAII (Michael W. Deem and Ramdas Pophale) SiO2 
 PCOD9331221
Probable space group: I 2 2 2
;
_chemical_formula_sum "Si O2"
_cell_formula_units_Z 54
_cell_length_a 5.796416
_cell_length_b 13.452484
_cell_length_c 30.396046
_cell_angle_alpha 90.000000
_cell_angle_beta 90.000000
_cell_angle_gamma 90.000000
_cell_volume 2370.167964
_symmetry_space_group_name_H-M "I 2 2 2"
_symmetry_group_IT_number 23
_symmetry_cell_setting 'orthorhombic'
loop_
_space_group_symop_operation_xyz
x,y,z
-x,-y,z
x,-y,-z
-x,y,-z
1/2+x,1/2+y,1/2+z
1/2-x,1/2-y,1/2+z
1/2+x,1/2-y,1/2-z
1/2-x,1/2+y,1/2-z
loop_
_atom_site_type_symbol
_atom_site_label
_atom_site_fract_x
_atom_site_fract_y
_atom_site_fract_z
Si Si1 0.000000 0.194599 0.000000
Si Si2 0.584062 0.229643 0.108791
Si Si3 0.698809 0.847924 0.566066
Si Si4 0.000000 0.500000 0.000000
Si Si5 0.956441 0.364746 0.155267
Si Si6 0.825667 0.270559 0.303827
Si Si7 0.748362 0.946635 0.945867
Si Si8 0.843916 0.906214 0.269503
O O1 0.041398 0.263145 0.042525
O O2 0.789829 0.120687 0.010542
O O3 0.439435 0.290776 0.072456
O O4 0.760723 0.306381 0.129226
O O5 0.411534 0.198949 0.147904
O O6 0.713727 0.133185 0.092500
O O7 0.666049 0.936188 0.531615
O O8 0.628044 0.889422 0.614630
O O9 0.814022 0.434870 0.188421
O O10 0.088778 0.288287 0.187206
O O11 0.797764 0.363191 0.271528
O O12 0.998859 0.187661 0.284337
O O13 0.500000 0.000000 0.947175
O O14 0.000000 0.000000 0.939358
O O15 0.000000 0.000000 0.257772
#
# Coordination Sequence:
#
# PCOD9331221 Si02
#       8
#     4   8   8   2   8   8   8   8
#     4  11  23  45  67  96 144 188 235 303 383 437
#     4  10  23  44  69  95 143 201 232 302 391 445
#     4  10  22  43  70  97 139 194 243 309 389 453
#     4  10  24  44  68 112 138 182 270 338 376 476
#     4  10  21  43  69  95 142 188 231 303 372 458
#     4  10  22  44  69 101 147 181 241 306 368 455
#     4  12  27  45  71 111 145 192 258 311 367 458
#     4  11  23  42  72 107 136 192 243 301 381 459
#
# _framework density 22.783194999999999
#
# number of rings (size 3 to 8) (size 9 to 14) (size 15 to 20)
#    0.000    1.481    2.963    1.111    2.074    8.296 
#    2.667    0.741    0.000    0.000    0.000    0.000 
#    0.000    0.000    0.000    0.000    0.000    0.000 
#
# Total GULP energy -150706.518808 kJ/mol
# GULP energy per Si atom -5581.722919 kJ/mol
# Density = 2.273134 g / cm^3
# Si number density = 22.783195 Si / 1000 Ang^3
#
#
#
# Elastic Constant Matrix: (Units=GPa)
#
#
# Indices 1 2 3 4 5 6 
#
# 1 98.8923 43.2379 29.0071 0.0000 0.0000 0.0000
# 2 43.2379 100.0476 45.3412 0.0000 0.0000 0.0000
# 3 29.0071 45.3412 95.3711 0.0000 0.0000 0.0000
# 4 0.0000 0.0000 0.0000 11.0168 0.0000 0.0000
# 5 0.0000 0.0000 0.0000 0.0000 34.1016 0.0000
# 6 0.0000 0.0000 0.0000 0.0000 0.0000 35.4422
#
#
#
# Elastic Compliance Matrix: (Units=1/GPa)
#
#
# Indices 1 2 3 4 5 6 
#
# 1 0.012655 -0.004748 -0.001592 0.000000 0.000000 0.000000
# 2 -0.004748 0.014521 -0.005460 0.000000 0.000000 0.000000
# 3 -0.001592 -0.005460 0.013565 0.000000 0.000000 0.000000
# 4 0.000000 0.000000 0.000000 0.090770 0.000000 0.000000
# 5 0.000000 0.000000 0.000000 0.000000 0.029324 0.000000
# 6 0.000000 0.000000 0.000000 0.000000 0.000000 0.028215
#
#
# Mechanical properties :
#
#
# Convention : Reuss Voigt Hill
#
# Bulk Modulus (GPa) = 58.33327 58.83150 58.58239
# Shear Modulus (GPa) = 22.89763 27.89377 25.39570
#
# Velocity S-wave (km/s) = 3.17365 3.50281 3.34229
# Velocity P-wave (km/s) = 6.25209 6.49908 6.37678
#
# Compressibility (1/GPa) = 0.01714288
#
# Stress axis : x y z
#
# Youngs Moduli (GPa) = 79.02218 68.86399 73.71819
#
# Poissons Ratio (x) = 0.32694 0.11735
# Poissons Ratio (y) = 0.37517 0.40248
# Poissons Ratio (z) = 0.12579 0.37598
#
# Static dielectric constant tensor:
#      x y z
#    x 1.885280 0.000000 0.000000 
#    y 0.000000 1.877770 0.000000 
#    z 0.000000 0.000000 1.886820 
# 
# From -- ./inp_files/29987.got.cif
#   From: 2010.05.17/outbox.cif.g08.bks.cpg/sg23_15_cif.got.tgz:29987.got - 2010.06.04 12:02:01.
