data_PCOD9331685
_publ_section_title
;
Structure prediction by ZEFSAII (Michael W. Deem and Ramdas Pophale) SiO2 
 PCOD9331685
Probable space group: I 2 2 2
;
_chemical_formula_sum "Si O2"
_cell_formula_units_Z 32
_cell_length_a 8.767423
_cell_length_b 32.362600
_cell_length_c 5.168871
_cell_angle_alpha 90.000000
_cell_angle_beta 90.000000
_cell_angle_gamma 90.000000
_cell_volume 1466.597902
_symmetry_space_group_name_H-M "I 2 2 2"
_symmetry_group_IT_number 23
_symmetry_cell_setting 'orthorhombic'
loop_
_space_group_symop_operation_xyz
x,y,z
-x,-y,z
x,-y,-z
-x,y,-z
1/2+x,1/2+y,1/2+z
1/2-x,1/2-y,1/2+z
1/2+x,1/2-y,1/2-z
1/2-x,1/2+y,1/2-z
loop_
_atom_site_type_symbol
_atom_site_label
_atom_site_fract_x
_atom_site_fract_y
_atom_site_fract_z
Si Si1 0.319746 0.912400 0.066605
Si Si2 0.680565 0.181512 0.034209
Si Si3 0.893687 0.765306 0.251517
Si Si4 0.674707 0.548943 0.943440
O O1 0.265626 0.864620 0.087432
O O2 0.286135 0.931375 0.345055
O O3 0.500000 0.914108 0.000000
O O4 0.228495 0.936888 0.841433
O O5 0.688975 0.220774 0.226525
O O6 0.500000 0.177446 0.000000
O O7 0.770508 0.198822 0.787347
O O8 0.000000 0.770476 0.500000
O O9 0.000000 0.765892 0.000000
O O10 0.680123 0.500000 0.000000
O O11 0.500000 0.562255 0.000000
#
# Coordination Sequence:
#
# PCOD9331685 Si02
#       4
#     8   8   8   8
#     4  11  25  42  67  99 131 167 211 265 319 380
#     4  10  23  42  63  92 131 170 214 264 318 370
#     4  11  24  41  64  92 127 175 222 264 312 371
#     4  11  25  46  69  95 129 167 208 261 324 386
#
# _framework density 21.819202000000001
#
# number of rings (size 3 to 8) (size 9 to 14) (size 15 to 20)
#    0.000    1.250    0.000    5.250    0.000   18.000 
#    0.000    1.250    0.000    0.000    0.000    0.000 
#    0.000    0.000    0.000    0.000    0.000    0.000 
#
# Total GULP energy -89396.832984 kJ/mol
# GULP energy per Si atom -5587.302062 kJ/mol
# Density = 2.176954 g / cm^3
# Si number density = 21.819202 Si / 1000 Ang^3
#
#
#
# Elastic Constant Matrix: (Units=GPa)
#
#
# Indices 1 2 3 4 5 6 
#
# 1 81.4948 13.3886 19.7338 0.0081 -0.0143 0.0220
# 2 13.3886 96.8532 -1.9150 0.0435 -0.0069 0.0226
# 3 19.7338 -1.9150 100.1970 0.0058 -0.0343 0.0141
# 4 0.0081 0.0435 0.0058 33.4875 -0.0230 0.0231
# 5 -0.0143 -0.0069 -0.0343 -0.0230 44.1658 0.0061
# 6 0.0220 0.0226 0.0141 0.0231 0.0061 16.1819
#
#
#
# Elastic Compliance Matrix: (Units=1/GPa)
#
#
# Indices 1 2 3 4 5 6 
#
# 1 0.013219 -0.001879 -0.002639 0.000000 0.000002 -0.000013
# 2 -0.001879 0.010596 0.000573 -0.000013 0.000001 -0.000013
# 3 -0.002639 0.000573 0.010511 -0.000002 0.000007 -0.000006
# 4 0.000000 -0.000013 -0.000002 0.029862 0.000016 -0.000043
# 5 0.000002 0.000001 0.000007 0.000016 0.022642 -0.000009
# 6 -0.000013 -0.000013 -0.000006 -0.000043 -0.000009 0.061798
#
#
# Mechanical properties :
#
#
# Convention : Reuss Voigt Hill
#
# Bulk Modulus (GPa) = 37.83073 37.88441 37.85757
# Shear Modulus (GPa) = 30.24242 35.25620 32.74931
#
# Velocity S-wave (km/s) = 3.72700 4.02410 3.87840
# Velocity P-wave (km/s) = 5.99138 6.24434 6.11917
#
# Compressibility (1/GPa) = 0.02643354
#
# Stress axis : x y z
#
# Youngs Moduli (GPa) = 75.65096 94.37480 95.13749
#
# Poissons Ratio (x) = 0.17737 0.25110
# Poissons Ratio (y) = 0.14218 -0.05448
# Poissons Ratio (z) = 0.19967 -0.05405
#
# Static dielectric constant tensor:
#      x y z
#    x 1.818440 0.000000 0.000620 
#    y 0.000000 1.794020 -0.001400 
#    z 0.000620 -0.001400 1.687970 
# 
# From -- ./inp_files/717.got.cif
#   From: 2010.05.17/outbox.cif.g08.bks.cpg/sg23_1_cif.got.tgz:717.got - 2010.06.04 12:02:01.
