data_PCOD9331616
_publ_section_title
;
Structure prediction by ZEFSAII (Michael W. Deem and Ramdas Pophale) SiO2 
 PCOD9331616
Probable space group: I 2 2 2
;
_chemical_formula_sum "Si O2"
_cell_formula_units_Z 56
_cell_length_a 15.396627
_cell_length_b 16.519239
_cell_length_c 9.551719
_cell_angle_alpha 90.000000
_cell_angle_beta 90.000000
_cell_angle_gamma 90.000000
_cell_volume 2429.389571
_symmetry_space_group_name_H-M "I 2 2 2"
_symmetry_group_IT_number 23
_symmetry_cell_setting 'orthorhombic'
loop_
_space_group_symop_operation_xyz
x,y,z
-x,-y,z
x,-y,-z
-x,y,-z
1/2+x,1/2+y,1/2+z
1/2-x,1/2-y,1/2+z
1/2+x,1/2-y,1/2-z
1/2-x,1/2+y,1/2-z
loop_
_atom_site_type_symbol
_atom_site_label
_atom_site_fract_x
_atom_site_fract_y
_atom_site_fract_z
Si Si1 0.600495 0.022314 0.342554
Si Si2 0.186521 0.612825 0.294036
Si Si3 0.082124 0.273973 0.925826
Si Si4 0.513055 0.686938 0.804164
Si Si5 0.171853 0.229825 0.588970
Si Si6 0.343484 0.420195 0.900692
Si Si7 0.339397 0.796490 0.295271
O O1 0.629256 0.112962 0.312398
O O2 0.500000 0.000000 0.347731
O O3 0.636040 0.000000 0.500000
O O4 0.636697 0.970833 0.212255
O O5 0.128910 0.665889 0.181654
O O6 0.184701 0.673374 0.426001
O O7 0.280440 0.586381 0.234206
O O8 0.034315 0.200043 0.846495
O O9 0.145293 0.253789 0.052791
O O10 0.000000 0.318385 0.000000
O O11 0.430660 0.712651 0.895048
O O12 0.559536 0.603847 0.847629
O O13 0.593668 0.749968 0.803884
O O14 0.195458 0.154543 0.490926
O O15 0.236448 0.212681 0.723411
O O16 0.342713 0.500000 0.000000
#
# Coordination Sequence:
#
# PCOD9331616 Si02
#       7
#     8   8   8   8   8   8   8
#     4  11  19  29  56  94 130 151 198 269 325 382
#     4  11  20  35  55  94 128 162 209 264 336 392
#     4   9  17  32  57  86 122 162 206 260 318 385
#     4  10  23  37  56  91 130 174 218 268 336 399
#     4  11  22  37  61  88 129 173 214 274 335 399
#     4  12  24  42  63  92 130 171 224 281 327 396
#     4  11  19  36  59  92 131 168 215 273 328 394
#
# _framework density 23.051057
#
# number of rings (size 3 to 8) (size 9 to 14) (size 15 to 20)
#    0.000    1.286    4.286    4.286    2.000    1.143 
#    0.000    0.000    0.000    0.857    0.000   64.000 
#    0.000    0.000    0.000    0.000    0.000    0.000 
#
# Total GULP energy -155871.113686 kJ/mol
# GULP energy per Si atom -5566.825489 kJ/mol
# Density = 2.299859 g / cm^3
# Si number density = 23.051057 Si / 1000 Ang^3
#
#
#
# Elastic Constant Matrix: (Units=GPa)
#
#
# Indices 1 2 3 4 5 6 
#
# 1 143.5426 44.1008 10.0208 0.0000 0.0000 0.0000
# 2 44.1008 121.0595 31.7699 0.0000 0.0000 0.0000
# 3 10.0208 31.7699 41.6115 0.0000 0.0000 0.0000
# 4 0.0000 0.0000 0.0000 41.7453 0.0000 0.0000
# 5 0.0000 0.0000 0.0000 0.0000 33.5174 0.0000
# 6 0.0000 0.0000 0.0000 0.0000 0.0000 32.3538
#
#
#
# Elastic Compliance Matrix: (Units=1/GPa)
#
#
# Indices 1 2 3 4 5 6 
#
# 1 0.007849 -0.002955 0.000366 0.000000 0.000000 0.000000
# 2 -0.002955 0.011443 -0.008025 0.000000 0.000000 0.000000
# 3 0.000366 -0.008025 0.030071 0.000000 0.000000 0.000000
# 4 0.000000 0.000000 0.000000 0.023955 0.000000 0.000000
# 5 0.000000 0.000000 0.000000 0.000000 0.029835 0.000000
# 6 0.000000 0.000000 0.000000 0.000000 0.000000 0.030908
#
#
# Mechanical properties :
#
#
# Convention : Reuss Voigt Hill
#
# Bulk Modulus (GPa) = 35.54366 53.11074 44.32720
# Shear Modulus (GPa) = 30.36429 36.21146 33.28788
#
# Velocity S-wave (km/s) = 3.63335 3.96779 3.80425
# Velocity P-wave (km/s) = 5.74932 6.63940 6.21032
#
# Compressibility (1/GPa) = 0.02813442
#
# Stress axis : x y z
#
# Youngs Moduli (GPa) = 127.40466 87.38945 33.25515
#
# Poissons Ratio (x) = 0.25827 -0.01218
# Poissons Ratio (y) = 0.37654 0.26687
# Poissons Ratio (z) = -0.04666 0.70129
#
# Static dielectric constant tensor:
#      x y z
#    x 1.957540 0.000000 0.000000 
#    y 0.000000 1.885900 0.000000 
#    z 0.000000 0.000000 2.112110 
# 
# From -- ./inp_files/16783.got.cif
#   From: 2010.05.17/outbox.cif.g08.bks.cpg/sg23_9_cif.got.tgz:16783.got - 2010.06.04 12:02:01.
