data_PCOD9331198
_publ_section_title
;
Structure prediction by ZEFSAII (Michael W. Deem and Ramdas Pophale) SiO2 
 PCOD9331198
Probable space group: I 2 2 2
;
_chemical_formula_sum "Si O2"
_cell_formula_units_Z 56
_cell_length_a 15.299710
_cell_length_b 8.877106
_cell_length_c 19.160589
_cell_angle_alpha 90.000000
_cell_angle_beta 90.000000
_cell_angle_gamma 90.000000
_cell_volume 2602.336541
_symmetry_space_group_name_H-M "I 2 2 2"
_symmetry_group_IT_number 23
_symmetry_cell_setting 'orthorhombic'
loop_
_space_group_symop_operation_xyz
x,y,z
-x,-y,z
x,-y,-z
-x,y,-z
1/2+x,1/2+y,1/2+z
1/2-x,1/2-y,1/2+z
1/2+x,1/2-y,1/2-z
1/2-x,1/2+y,1/2-z
loop_
_atom_site_type_symbol
_atom_site_label
_atom_site_fract_x
_atom_site_fract_y
_atom_site_fract_z
Si Si1 0.825456 0.352878 0.964629
Si Si2 0.143878 0.199576 0.258178
Si Si3 0.982824 0.822500 0.648287
Si Si4 0.242575 0.121307 0.937528
Si Si5 0.214142 0.107606 0.676554
Si Si6 0.908101 0.072364 0.890132
Si Si7 0.569062 0.902414 0.927535
O O1 0.765927 0.388955 0.897221
O O2 0.886650 0.213567 0.940848
O O3 0.867474 0.500000 0.000000
O O4 0.766554 0.281261 0.025985
O O5 0.055730 0.246730 0.299307
O O6 0.219807 0.314234 0.232243
O O7 0.102312 0.134462 0.187085
O O8 0.189811 0.061230 0.299414
O O9 0.017863 0.754950 0.575036
O O10 0.879548 0.805550 0.665430
O O11 0.000000 0.000000 0.649951
O O12 0.334098 0.111593 0.899079
O O13 0.161632 0.063496 0.894177
O O14 0.243981 0.000000 0.000000
O O15 0.000000 0.000000 0.906487
O O16 0.500000 0.000000 0.884433
O O17 0.579748 0.000000 0.000000
#
# Coordination Sequence:
#
# PCOD9331198 Si02
#       7
#     8   8   8   8   8   8   8
#     4  10  23  39  63  98 135 164 213 269 329 383
#     4  10  23  42  65  95 127 169 223 266 320 385
#     4  10  23  41  61  95 128 168 216 262 325 389
#     4   9  21  38  59  89 127 170 211 260 321 385
#     4  10  23  40  66  92 131 174 210 268 327 379
#     4  10  21  42  71  92 123 173 222 264 325 390
#     4  10  23  37  59  92 130 167 217 257 314 388
#
# _framework density 21.519124000000001
#
# number of rings (size 3 to 8) (size 9 to 14) (size 15 to 20)
#    0.000    2.143    0.000    1.286   16.000    2.571 
#    0.000    2.857    0.000    5.143    0.000    0.000 
#    0.000    0.000    0.000    0.000    0.000    0.000 
#
# Total GULP energy -155898.243772 kJ/mol
# GULP energy per Si atom -5567.794420 kJ/mol
# Density = 2.147015 g / cm^3
# Si number density = 21.519124 Si / 1000 Ang^3
#
#
#
# Elastic Constant Matrix: (Units=GPa)
#
#
# Indices 1 2 3 4 5 6 
#
# 1 141.3327 34.5513 42.6811 0.0000 0.0000 0.0000
# 2 34.5513 61.1654 23.8075 0.0000 0.0000 0.0000
# 3 42.6811 23.8075 81.8941 0.0000 0.0000 0.0000
# 4 0.0000 0.0000 0.0000 30.8973 0.0000 0.0000
# 5 0.0000 0.0000 0.0000 0.0000 -12.7610 0.0000
# 6 0.0000 0.0000 0.0000 0.0000 0.0000 20.7037
#
#
#
# Elastic Compliance Matrix: (Units=1/GPa)
#
#
# Indices 1 2 3 4 5 6 
#
# 1 0.009087 -0.003709 -0.003657 0.000000 0.000000 0.000000
# 2 -0.003709 0.019949 -0.003866 0.000000 0.000000 0.000000
# 3 -0.003657 -0.003866 0.015241 0.000000 0.000000 0.000000
# 4 0.000000 0.000000 0.000000 0.032365 0.000000 0.000000
# 5 0.000000 0.000000 0.000000 0.000000 -0.078364 0.000000
# 6 0.000000 0.000000 0.000000 0.000000 0.000000 0.048301
#
#
# Mechanical properties :
#
#
# Convention : Reuss Voigt Hill
#
# Bulk Modulus (GPa) = 45.84845 54.05246 49.95046
# Shear Modulus (GPa) = 65.51693 19.99148 42.75421
#
# Velocity S-wave (km/s) = 5.52377 3.05127 4.46219
# Velocity P-wave (km/s) = 7.87622 6.13079 7.05767
#
# Compressibility (1/GPa) = 0.02181099
#
# Stress axis : x y z
#
# Youngs Moduli (GPa) = 110.04914 50.12693 65.61236
#
# Poissons Ratio (x) = 0.18594 0.23998
# Poissons Ratio (y) = 0.40822 0.25367
# Poissons Ratio (z) = 0.40250 0.19380
#
# Static dielectric constant tensor:
#      x y z
#    x 1.855970 0.000000 0.000000 
#    y 0.000000 1.896820 0.000000 
#    z 0.000000 0.000000 1.889510 
# 
# From -- ./inp_files/26996.got.cif
#   From: 2010.05.17/outbox.cif.g08.bks.cpg/sg23_14_cif.got.tgz:26996.got - 2010.06.04 12:02:01.
