data_PCOD9331655
_publ_section_title
;
Structure prediction by ZEFSAII (Michael W. Deem and Ramdas Pophale) SiO2 
 PCOD9331655
Probable space group: I 2 2 2
;
_chemical_formula_sum "Si O2"
_cell_formula_units_Z 30
_cell_length_a 7.725966
_cell_length_b 16.140003
_cell_length_c 9.746734
_cell_angle_alpha 90.000000
_cell_angle_beta 90.000000
_cell_angle_gamma 90.000000
_cell_volume 1215.389605
_symmetry_space_group_name_H-M "I 2 2 2"
_symmetry_group_IT_number 23
_symmetry_cell_setting 'orthorhombic'
loop_
_space_group_symop_operation_xyz
x,y,z
-x,-y,z
x,-y,-z
-x,y,-z
1/2+x,1/2+y,1/2+z
1/2-x,1/2-y,1/2+z
1/2+x,1/2-y,1/2-z
1/2-x,1/2+y,1/2-z
loop_
_atom_site_type_symbol
_atom_site_label
_atom_site_fract_x
_atom_site_fract_y
_atom_site_fract_z
Si Si1 0.451491 0.407366 0.223950
Si Si2 0.500000 0.300442 0.500000
Si Si3 0.500000 0.000000 0.000000
Si Si4 0.756197 0.193446 0.618894
Si Si5 0.090693 0.634315 0.730276
O O1 0.500000 0.500000 0.256633
O O2 0.478185 0.355108 0.365012
O O3 0.592431 0.372292 0.119769
O O4 0.251626 0.399739 0.180523
O O5 0.662955 0.238497 0.491575
O O6 0.414353 0.066528 0.894001
O O7 0.849602 0.274823 0.681972
O O8 0.597473 0.150277 0.702934
#
# Coordination Sequence:
#
# PCOD9331655 Si02
#       5
#     8   4   2   8   8
#     4  11  24  43  72 108 145 187 247 305 358 430
#     4  10  23  40  72 109 138 192 240 295 366 427
#     4  12  28  40  78 114 146 178 268 312 358 402
#     4  11  23  44  66 104 154 189 235 299 375 441
#     4  11  24  42  64 110 148 188 230 312 365 431
#
# _framework density 24.683441999999999
#
# number of rings (size 3 to 8) (size 9 to 14) (size 15 to 20)
#    0.000    1.067    5.333    2.000   14.933    0.000 
#    0.000    0.000    0.000    8.800    0.000    0.000 
#    0.000    0.000    0.000    0.000    0.000    0.000 
#
# Total GULP energy -83730.138859 kJ/mol
# GULP energy per Si atom -5582.009257 kJ/mol
# Density = 2.462726 g / cm^3
# Si number density = 24.683442 Si / 1000 Ang^3
#
#
#
# Elastic Constant Matrix: (Units=GPa)
#
#
# Indices 1 2 3 4 5 6 
#
# 1 202.3380 69.8068 62.2218 0.0000 0.0000 0.0000
# 2 69.8068 155.5744 64.6435 0.0000 0.0000 0.0000
# 3 62.2218 64.6435 90.3064 0.0000 0.0000 0.0000
# 4 0.0000 0.0000 0.0000 48.0634 0.0000 0.0000
# 5 0.0000 0.0000 0.0000 0.0000 40.3436 0.0000
# 6 0.0000 0.0000 0.0000 0.0000 0.0000 41.2990
#
#
#
# Elastic Compliance Matrix: (Units=1/GPa)
#
#
# Indices 1 2 3 4 5 6 
#
# 1 0.006509 -0.001505 -0.003408 0.000000 0.000000 0.000000
# 2 -0.001505 0.009497 -0.005761 0.000000 0.000000 0.000000
# 3 -0.003408 -0.005761 0.017546 0.000000 0.000000 0.000000
# 4 0.000000 0.000000 0.000000 0.020806 0.000000 0.000000
# 5 0.000000 0.000000 0.000000 0.000000 0.024787 0.000000
# 6 0.000000 0.000000 0.000000 0.000000 0.000000 0.024214
#
#
# Mechanical properties :
#
#
# Convention : Reuss Voigt Hill
#
# Bulk Modulus (GPa) = 81.94080 93.50699 87.72389
# Shear Modulus (GPa) = 38.82768 42.71098 40.76933
#
# Velocity S-wave (km/s) = 3.97044 4.16426 4.06850
# Velocity P-wave (km/s) = 7.36803 7.81576 7.59520
#
# Compressibility (1/GPa) = 0.01220393
#
# Stress axis : x y z
#
# Youngs Moduli (GPa) = 153.62578 105.29758 56.99459
#
# Poissons Ratio (x) = 0.15845 0.19423
# Poissons Ratio (y) = 0.23117 0.32836
# Poissons Ratio (z) = 0.52353 0.60665
#
# Static dielectric constant tensor:
#      x y z
#    x 2.002670 0.000000 0.000000 
#    y 0.000000 1.890360 0.000000 
#    z 0.000000 0.000000 2.072010 
# 
# From -- ./inp_files/9248.got.cif
#   From: 2010.05.17/outbox.cif.g08.bks.cpg/sg23_5_cif.got.tgz:9248.got - 2010.06.04 12:02:01.
