data_PCOD9331045
_publ_section_title
;
Structure prediction by ZEFSAII (Michael W. Deem and Ramdas Pophale) SiO2 
 PCOD9331045
Probable space group: I 2 2 2
;
_chemical_formula_sum "Si O2"
_cell_formula_units_Z 36
_cell_length_a 22.239702
_cell_length_b 5.183614
_cell_length_c 12.554575
_cell_angle_alpha 90.000000
_cell_angle_beta 90.000000
_cell_angle_gamma 90.000000
_cell_volume 1447.316900
_symmetry_space_group_name_H-M "I 2 2 2"
_symmetry_group_IT_number 23
_symmetry_cell_setting 'orthorhombic'
loop_
_space_group_symop_operation_xyz
x,y,z
-x,-y,z
x,-y,-z
-x,y,-z
1/2+x,1/2+y,1/2+z
1/2-x,1/2-y,1/2+z
1/2+x,1/2-y,1/2-z
1/2-x,1/2+y,1/2-z
loop_
_atom_site_type_symbol
_atom_site_label
_atom_site_fract_x
_atom_site_fract_y
_atom_site_fract_z
Si Si1 0.255774 0.500000 0.000000
Si Si2 0.427494 0.506998 0.877212
Si Si3 0.354657 0.310945 0.419623
Si Si4 0.214783 0.931417 0.731622
Si Si5 0.427823 0.995966 0.261299
O O1 0.206586 0.276191 0.979069
O O2 0.294300 0.501714 0.892263
O O3 0.500000 0.500000 0.878868
O O4 0.411147 0.262855 0.802898
O O5 0.413070 0.775922 0.821327
O O6 0.409095 0.500000 0.000000
O O7 0.389378 0.500000 0.500000
O O8 0.331127 0.473840 0.319691
O O9 0.392380 0.074775 0.369267
O O10 0.270976 0.128244 0.756412
O O11 0.500000 0.000000 0.281908
#
# Coordination Sequence:
#
# PCOD9331045 Si02
#       5
#     4   8   8   8   8
#     4  10  22  42  69  94 138 176 233 292 366 414
#     4   9  18  37  65  91 126 177 225 288 353 400
#     4  11  23  41  69  99 139 194 232 292 366 431
#     4  10  21  39  65  99 129 174 226 281 356 427
#     4  10  22  38  64  97 138 177 238 292 342 428
#
# _framework density 24.873609999999999
#
# number of rings (size 3 to 8) (size 9 to 14) (size 15 to 20)
#    0.000    2.000    2.222    0.667    3.111    2.667 
#    2.000    0.556   19.556    0.000    0.000    0.000 
#    0.000    0.000    0.000    0.000    0.000    0.000 
#
# Total GULP energy -100589.276402 kJ/mol
# GULP energy per Si atom -5588.293133 kJ/mol
# Density = 2.481700 g / cm^3
# Si number density = 24.873610 Si / 1000 Ang^3
#
#
#
# Elastic Constant Matrix: (Units=GPa)
#
#
# Indices 1 2 3 4 5 6 
#
# 1 62.3297 34.7514 48.4928 0.0000 0.0000 0.0000
# 2 34.7514 161.6345 57.7930 0.0000 0.0000 0.0000
# 3 48.4928 57.7930 178.6747 0.0000 0.0000 0.0000
# 4 0.0000 0.0000 0.0000 39.1799 0.0000 0.0000
# 5 0.0000 0.0000 0.0000 0.0000 29.5013 0.0000
# 6 0.0000 0.0000 0.0000 0.0000 0.0000 33.7654
#
#
#
# Elastic Compliance Matrix: (Units=1/GPa)
#
#
# Indices 1 2 3 4 5 6 
#
# 1 0.021447 -0.002861 -0.004896 0.000000 0.000000 0.000000
# 2 -0.002861 0.007377 -0.001610 0.000000 0.000000 0.000000
# 3 -0.004896 -0.001610 0.007446 0.000000 0.000000 0.000000
# 4 0.000000 0.000000 0.000000 0.025523 0.000000 0.000000
# 5 0.000000 0.000000 0.000000 0.000000 0.033897 0.000000
# 6 0.000000 0.000000 0.000000 0.000000 0.000000 0.029616
#
#
# Mechanical properties :
#
#
# Convention : Reuss Voigt Hill
#
# Bulk Modulus (GPa) = 57.01675 76.07926 66.54800
# Shear Modulus (GPa) = 33.35870 37.92944 35.64407
#
# Velocity S-wave (km/s) = 3.66611 3.90922 3.78962
# Velocity P-wave (km/s) = 6.39475 7.14344 6.77944
#
# Compressibility (1/GPa) = 0.01753870
#
# Stress axis : x y z
#
# Youngs Moduli (GPa) = 46.62549 135.54778 134.29769
#
# Poissons Ratio (x) = 0.38777 0.65746
# Poissons Ratio (y) = 0.13339 0.21620
# Poissons Ratio (z) = 0.22826 0.21821
#
# Static dielectric constant tensor:
#      x y z
#    x 2.043500 0.000000 0.000000 
#    y 0.000000 1.981270 0.000000 
#    z 0.000000 0.000000 1.953970 
# 
# From -- ./inp_files/18188.got.cif
#   From: 2010.05.17/outbox.cif.g08.bks.cpg/sg23_10_cif.got.tgz:18188.got - 2010.06.04 12:02:01.
