data_PCOD9331287
_publ_section_title
;
Structure prediction by ZEFSAII (Michael W. Deem and Ramdas Pophale) SiO2 
 PCOD9331287
Probable space group: I 2 2 2
;
_chemical_formula_sum "Si O2"
_cell_formula_units_Z 48
_cell_length_a 9.057761
_cell_length_b 9.119316
_cell_length_c 30.150573
_cell_angle_alpha 90.000000
_cell_angle_beta 90.000000
_cell_angle_gamma 90.000000
_cell_volume 2490.454962
_symmetry_space_group_name_H-M "I 2 2 2"
_symmetry_group_IT_number 23
_symmetry_cell_setting 'orthorhombic'
loop_
_space_group_symop_operation_xyz
x,y,z
-x,-y,z
x,-y,-z
-x,y,-z
1/2+x,1/2+y,1/2+z
1/2-x,1/2-y,1/2+z
1/2+x,1/2-y,1/2-z
1/2-x,1/2+y,1/2-z
loop_
_atom_site_type_symbol
_atom_site_label
_atom_site_fract_x
_atom_site_fract_y
_atom_site_fract_z
Si Si1 0.300797 0.321388 0.193474
Si Si2 0.191731 0.842515 0.583503
Si Si3 0.361754 0.893164 0.669505
Si Si4 0.650360 0.689523 0.092878
Si Si5 0.320220 0.169044 0.003264
Si Si6 0.478497 0.671392 0.265855
O O1 0.254647 0.493570 0.191778
O O2 0.293926 0.275574 0.142072
O O3 0.459960 0.304461 0.216091
O O4 0.183001 0.231666 0.222462
O O5 0.296752 0.820030 0.625456
O O6 0.238066 0.767812 0.537340
O O7 0.026212 0.786889 0.593741
O O8 0.177566 0.018831 0.581275
O O9 0.418025 0.770424 0.702745
O O10 0.500000 0.000000 0.658171
O O11 0.719392 0.776685 0.052229
O O12 0.500000 0.180262 0.000000
O O13 0.278753 0.000000 0.000000
O O14 0.500000 0.500000 0.275784
#
# Coordination Sequence:
#
# PCOD9331287 Si02
#       6
#     8   8   8   8   8   8
#     4  10  22  37  59  82 113 150 188 238 273 336
#     4   9  17  31  57  80 104 147 182 227 269 336
#     4   9  20  38  55  81 113 146 187 236 279 329
#     4   9  18  31  54  81 109 142 188 223 274 327
#     4   9  17  30  49  80 117 140 169 224 280 333
#     4  11  23  37  58  81 113 151 189 236 285 330
#
# _framework density 19.273586000000002
#
# number of rings (size 3 to 8) (size 9 to 14) (size 15 to 20)
#    0.000    2.500    0.000    1.500    7.000    3.333 
#    0.000    0.000   11.000   17.000    0.000   11.667 
#    0.000    0.000    0.000    0.000    0.000    0.000 
#
# Total GULP energy -133847.606096 kJ/mol
# GULP energy per Si atom -5576.983587 kJ/mol
# Density = 1.922972 g / cm^3
# Si number density = 19.273586 Si / 1000 Ang^3
#
#
#
# Elastic Constant Matrix: (Units=GPa)
#
#
# Indices 1 2 3 4 5 6 
#
# 1 43.0353 18.2958 46.1659 0.0000 0.0000 0.0000
# 2 18.2958 47.0636 53.3740 0.0000 0.0000 0.0000
# 3 46.1659 53.3740 134.1074 0.0000 0.0000 0.0000
# 4 0.0000 0.0000 0.0000 23.2441 0.0000 0.0000
# 5 0.0000 0.0000 0.0000 0.0000 28.4924 0.0000
# 6 0.0000 0.0000 0.0000 0.0000 0.0000 19.9039
#
#
#
# Elastic Compliance Matrix: (Units=1/GPa)
#
#
# Indices 1 2 3 4 5 6 
#
# 1 0.036842 0.000111 -0.012727 0.000000 0.000000 0.000000
# 2 0.000111 0.038728 -0.015452 0.000000 0.000000 0.000000
# 3 -0.012727 -0.015452 0.017988 0.000000 0.000000 0.000000
# 4 0.000000 0.000000 0.000000 0.043022 0.000000 0.000000
# 5 0.000000 0.000000 0.000000 0.000000 0.035097 0.000000
# 6 0.000000 0.000000 0.000000 0.000000 0.000000 0.050241
#
#
# Mechanical properties :
#
#
# Convention : Reuss Voigt Hill
#
# Bulk Modulus (GPa) = 26.72157 51.09751 38.90954
# Shear Modulus (GPa) = 17.20999 21.41945 19.31472
#
# Velocity S-wave (km/s) = 2.99144 3.33729 3.16908
# Velocity P-wave (km/s) = 5.08193 6.43578 5.79850
#
# Compressibility (1/GPa) = 0.03742295
#
# Stress axis : x y z
#
# Youngs Moduli (GPa) = 27.14261 25.82082 55.59324
#
# Poissons Ratio (x) = -0.00287 0.70754
# Poissons Ratio (y) = -0.00302 0.85903
# Poissons Ratio (z) = 0.34545 0.39898
#
# Static dielectric constant tensor:
#      x y z
#    x 1.714100 0.000000 0.000000 
#    y 0.000000 1.649490 0.000000 
#    z 0.000000 0.000000 1.673130 
# 
# From -- ./inp_files/7362.got.cif
#   From: 2010.05.17/outbox.cif.g08.bks.cpg/sg23_4_cif.got.tgz:7362.got - 2010.06.04 12:02:01.
