data_PCOD9331604
_publ_section_title
;
Structure prediction by ZEFSAII (Michael W. Deem and Ramdas Pophale) SiO2 
 PCOD9331604
Probable space group: I 2 2 2
;
_chemical_formula_sum "Si O2"
_cell_formula_units_Z 24
_cell_length_a 7.808602
_cell_length_b 6.385728
_cell_length_c 19.342900
_cell_angle_alpha 90.000000
_cell_angle_beta 90.000000
_cell_angle_gamma 90.000000
_cell_volume 964.506792
_symmetry_space_group_name_H-M "I 2 2 2"
_symmetry_group_IT_number 23
_symmetry_cell_setting 'orthorhombic'
loop_
_space_group_symop_operation_xyz
x,y,z
-x,-y,z
x,-y,-z
-x,y,-z
1/2+x,1/2+y,1/2+z
1/2-x,1/2-y,1/2+z
1/2+x,1/2-y,1/2-z
1/2-x,1/2+y,1/2-z
loop_
_atom_site_type_symbol
_atom_site_label
_atom_site_fract_x
_atom_site_fract_y
_atom_site_fract_z
Si Si1 0.000000 0.000000 0.500000
Si Si2 0.242128 0.825188 0.939920
Si Si3 0.500000 0.500000 0.789624
Si Si4 0.500000 0.000000 0.500000
Si Si5 0.676959 0.090874 0.195227
O O1 0.109992 0.840963 0.455063
O O2 0.083671 0.668623 0.947599
O O3 0.270754 0.946251 0.869097
O O4 0.237475 0.000000 0.000000
O O5 0.609056 0.680526 0.827310
O O6 0.344640 0.597170 0.743185
O O7 0.500000 0.000000 0.227772
#
# Coordination Sequence:
#
# PCOD9331604 Si02
#       5
#     2   8   4   2   8
#     4  10  22  48  76 116 156 212 262 318 438 492
#     4  11  25  48  78 119 162 211 268 344 420 494
#     4  12  28  53  81 121 158 229 276 342 412 486
#     4  10  26  46  72 128 168 210 270 326 442 496
#     4  12  27  52  80 117 169 212 283 342 412 495
#
# _framework density 24.883185999999998
#
# number of rings (size 3 to 8) (size 9 to 14) (size 15 to 20)
#    0.000    0.667    3.333    3.000    4.667    8.000 
#    3.000    0.000    0.000    0.000    0.000    0.000 
#    0.000    0.000    0.000    0.000    0.000    0.000 
#
# Total GULP energy -67026.906910 kJ/mol
# GULP energy per Si atom -5585.575576 kJ/mol
# Density = 2.482655 g / cm^3
# Si number density = 24.883186 Si / 1000 Ang^3
#
#
#
# Elastic Constant Matrix: (Units=GPa)
#
#
# Indices 1 2 3 4 5 6 
#
# 1 121.2034 74.0650 43.7420 0.0000 0.0000 0.0000
# 2 74.0650 238.3540 71.6465 0.0000 0.0000 0.0000
# 3 43.7420 71.6465 76.0985 0.0000 0.0000 0.0000
# 4 0.0000 0.0000 0.0000 51.0829 0.0000 0.0000
# 5 0.0000 0.0000 0.0000 0.0000 29.4628 0.0000
# 6 0.0000 0.0000 0.0000 0.0000 0.0000 90.9313
#
#
#
# Elastic Compliance Matrix: (Units=1/GPa)
#
#
# Indices 1 2 3 4 5 6 
#
# 1 0.011144 -0.002144 -0.004387 0.000000 0.000000 0.000000
# 2 -0.002144 0.006264 -0.004665 0.000000 0.000000 0.000000
# 3 -0.004387 -0.004665 0.020055 0.000000 0.000000 0.000000
# 4 0.000000 0.000000 0.000000 0.019576 0.000000 0.000000
# 5 0.000000 0.000000 0.000000 0.000000 0.033941 0.000000
# 6 0.000000 0.000000 0.000000 0.000000 0.000000 0.010997
#
#
# Mechanical properties :
#
#
# Convention : Reuss Voigt Hill
#
# Bulk Modulus (GPa) = 66.35545 90.50699 78.43122
# Shear Modulus (GPa) = 38.64198 50.70890 44.67544
#
# Velocity S-wave (km/s) = 3.94501 4.51918 4.24182
# Velocity P-wave (km/s) = 6.89024 7.98013 7.45513
#
# Compressibility (1/GPa) = 0.01507035
#
# Stress axis : x y z
#
# Youngs Moduli (GPa) = 89.73346 159.64336 49.86384
#
# Poissons Ratio (x) = 0.34231 0.21875
# Poissons Ratio (y) = 0.19241 0.23261
# Poissons Ratio (z) = 0.39366 0.74474
#
# Static dielectric constant tensor:
#      x y z
#    x 2.113310 0.000000 0.000000 
#    y 0.000000 1.992970 0.000000 
#    z 0.000000 0.000000 1.933850 
# 
# From -- ./inp_files/29097.got.cif
#   From: 2010.05.17/outbox.cif.g08.bks.cpg/sg23_15_cif.got.tgz:29097.got - 2010.06.04 12:02:01.
