data_PCOD9331299
_publ_section_title
;
Structure prediction by ZEFSAII (Michael W. Deem and Ramdas Pophale) SiO2 
 PCOD9331299
Probable space group: I 2 2 2
;
_chemical_formula_sum "Si O2"
_cell_formula_units_Z 52
_cell_length_a 13.492266
_cell_length_b 9.579607
_cell_length_c 18.609819
_cell_angle_alpha 90.000000
_cell_angle_beta 90.000000
_cell_angle_gamma 90.000000
_cell_volume 2405.330380
_symmetry_space_group_name_H-M "I 2 2 2"
_symmetry_group_IT_number 23
_symmetry_cell_setting 'orthorhombic'
loop_
_space_group_symop_operation_xyz
x,y,z
-x,-y,z
x,-y,-z
-x,y,-z
1/2+x,1/2+y,1/2+z
1/2-x,1/2-y,1/2+z
1/2+x,1/2-y,1/2-z
1/2-x,1/2+y,1/2-z
loop_
_atom_site_type_symbol
_atom_site_label
_atom_site_fract_x
_atom_site_fract_y
_atom_site_fract_z
Si Si1 0.689372 0.569813 0.721689
Si Si2 0.500000 0.000000 0.143376
Si Si3 0.603222 0.195711 0.955980
Si Si4 0.745411 0.278935 0.080131
Si Si5 0.153405 0.355492 0.277518
Si Si6 0.614632 0.528923 0.127138
Si Si7 0.611516 0.441481 0.575310
O O1 0.798105 0.505545 0.738775
O O2 0.672210 0.735741 0.719601
O O3 0.626114 0.506802 0.788438
O O4 0.660090 0.508832 0.645338
O O5 0.584344 0.943645 0.089783
O O6 0.457258 0.880323 0.194512
O O7 0.627183 0.312929 0.896972
O O8 0.500000 0.221235 0.000000
O O9 0.687907 0.207291 0.014603
O O10 0.707108 0.213057 0.154240
O O11 0.698103 0.434300 0.086590
O O12 0.859085 0.224092 0.075709
O O13 0.500000 0.500000 0.105921
O O14 0.500000 0.500000 0.578710
O O15 0.650580 0.500000 0.500000
#
# Coordination Sequence:
#
# PCOD9331299 Si02
#       7
#     8   4   8   8   8   8   8
#     4  10  23  43  63  92 130 173 227 281 343 414
#     4  12  25  38  62  98 140 185 226 274 345 426
#     4  12  22  35  63 100 145 182 213 269 348 433
#     4  10  22  37  61  98 135 172 226 271 345 424
#     4  10  23  41  60  92 131 174 220 274 340 410
#     4  11  21  38  61  98 142 181 213 267 354 439
#     4  10  23  43  69  94 122 174 244 301 342 394
#
# _framework density 21.618652999999998
#
# number of rings (size 3 to 8) (size 9 to 14) (size 15 to 20)
#    0.000    1.385    3.077    2.077    6.462    0.000 
#    5.538    0.000    0.000    0.000    0.000    2.154 
#    0.000    0.000    0.000    0.000    0.000    0.000 
#
# Total GULP energy -144848.928924 kJ/mol
# GULP energy per Si atom -5571.112651 kJ/mol
# Density = 2.156945 g / cm^3
# Si number density = 21.618653 Si / 1000 Ang^3
#
#
#
# Elastic Constant Matrix: (Units=GPa)
#
#
# Indices 1 2 3 4 5 6 
#
# 1 55.1981 13.8499 19.9801 0.0000 0.0000 0.0000
# 2 13.8499 84.8606 37.3418 0.0000 0.0000 0.0000
# 3 19.9801 37.3418 82.4534 0.0000 0.0000 0.0000
# 4 0.0000 0.0000 0.0000 14.4630 0.0000 0.0000
# 5 0.0000 0.0000 0.0000 0.0000 -39.7754 0.0000
# 6 0.0000 0.0000 0.0000 0.0000 0.0000 33.2653
#
#
#
# Elastic Compliance Matrix: (Units=1/GPa)
#
#
# Indices 1 2 3 4 5 6 
#
# 1 0.019993 -0.001413 -0.004205 0.000000 0.000000 0.000000
# 2 -0.001413 0.014817 -0.006368 0.000000 0.000000 0.000000
# 3 -0.004205 -0.006368 0.016031 0.000000 0.000000 0.000000
# 4 0.000000 0.000000 0.000000 0.069142 0.000000 0.000000
# 5 0.000000 0.000000 0.000000 0.000000 -0.025141 0.000000
# 6 0.000000 0.000000 0.000000 0.000000 0.000000 0.030061
#
#
# Mechanical properties :
#
#
# Convention : Reuss Voigt Hill
#
# Bulk Modulus (GPa) = 37.21677 40.53955 38.87816
# Shear Modulus (GPa) = 31.67952 11.67992 21.67972
#
# Velocity S-wave (km/s) = 3.83218 2.32689 3.17018
# Velocity P-wave (km/s) = 6.06904 5.10020 5.60559
#
# Compressibility (1/GPa) = 0.02686961
#
# Stress axis : x y z
#
# Youngs Moduli (GPa) = 50.01726 67.49134 62.37940
#
# Poissons Ratio (x) = 0.09534 0.26230
# Poissons Ratio (y) = 0.07066 0.39723
# Poissons Ratio (z) = 0.21032 0.42978
#
# Static dielectric constant tensor:
#      x y z
#    x 1.924090 0.000000 0.000000 
#    y 0.000000 1.928050 0.000000 
#    z 0.000000 0.000000 1.794370 
# 
# From -- ./inp_files/26957.got.cif
#   From: 2010.05.17/outbox.cif.g08.bks.cpg/sg23_14_cif.got.tgz:26957.got - 2010.06.04 12:02:01.
