data_PCOD9331754
_publ_section_title
;
Structure prediction by ZEFSAII (Michael W. Deem and Ramdas Pophale) SiO2 
 PCOD9331754
Probable space group: I 2 2 2
;
_chemical_formula_sum "Si O2"
_cell_formula_units_Z 42
_cell_length_a 10.347482
_cell_length_b 7.861593
_cell_length_c 21.325565
_cell_angle_alpha 90.000000
_cell_angle_beta 90.000000
_cell_angle_gamma 90.000000
_cell_volume 1734.785495
_symmetry_space_group_name_H-M "I 2 2 2"
_symmetry_group_IT_number 23
_symmetry_cell_setting 'orthorhombic'
loop_
_space_group_symop_operation_xyz
x,y,z
-x,-y,z
x,-y,-z
-x,y,-z
1/2+x,1/2+y,1/2+z
1/2-x,1/2-y,1/2+z
1/2+x,1/2-y,1/2-z
1/2-x,1/2+y,1/2-z
loop_
_atom_site_type_symbol
_atom_site_label
_atom_site_fract_x
_atom_site_fract_y
_atom_site_fract_z
Si Si1 0.767928 0.368309 0.912411
Si Si2 0.703334 0.520694 0.430169
Si Si3 0.000000 0.000000 0.603524
Si Si4 0.500000 0.500000 0.671916
Si Si5 0.111920 0.356934 0.218934
Si Si6 0.000000 0.500000 0.000000
Si Si7 0.403942 0.842146 0.145369
O O1 0.746632 0.166900 0.914414
O O2 0.635713 0.461671 0.930907
O O3 0.798540 0.406803 0.839523
O O4 0.896844 0.405588 0.953890
O O5 0.653185 0.500000 0.500000
O O6 0.601926 0.574639 0.378202
O O7 0.820011 0.648609 0.417994
O O8 0.021870 0.833651 0.645135
O O9 0.558316 0.664669 0.706807
O O10 0.172117 0.358847 0.288664
O O11 0.000000 0.500000 0.219327
O O12 0.500000 0.000000 0.143341
#
# Coordination Sequence:
#
# PCOD9331754 Si02
#       7
#     8   8   4   4   8   2   8
#     4  11  27  47  77 112 149 199 256 313 394 450
#     4  11  26  46  73 107 148 197 250 315 389 463
#     4  12  27  49  74 114 148 204 244 324 382 455
#     4  10  24  44  72 114 134 196 254 320 376 452
#     4  10  23  44  73 105 148 197 250 311 370 446
#     4  12  28  50  74 112 148 198 264 324 380 492
#     4  11  25  48  69 106 152 197 253 305 378 457
#
# _framework density 24.210484999999998
#
# number of rings (size 3 to 8) (size 9 to 14) (size 15 to 20)
#    0.000    1.143    2.857    0.857   10.667    5.333 
#    0.000    0.000    0.000    0.000    0.000    0.000 
#    0.000    0.000    0.000    0.000    0.000    0.000 
#
# Total GULP energy -117268.769624 kJ/mol
# GULP energy per Si atom -5584.227125 kJ/mol
# Density = 2.415538 g / cm^3
# Si number density = 24.210485 Si / 1000 Ang^3
#
#
#
# Elastic Constant Matrix: (Units=GPa)
#
#
# Indices 1 2 3 4 5 6 
#
# 1 112.5502 23.3183 40.8752 0.0000 0.0000 0.0000
# 2 23.3183 69.5181 -4.1761 0.0000 0.0000 0.0000
# 3 40.8752 -4.1761 110.6798 0.0000 0.0000 0.0000
# 4 0.0000 0.0000 0.0000 21.7154 0.0000 0.0000
# 5 0.0000 0.0000 0.0000 0.0000 -16.0438 0.0000
# 6 0.0000 0.0000 0.0000 0.0000 0.0000 22.9497
#
#
#
# Elastic Compliance Matrix: (Units=1/GPa)
#
#
# Indices 1 2 3 4 5 6 
#
# 1 0.011294 -0.004048 -0.004324 0.000000 0.000000 0.000000
# 2 -0.004048 0.015868 0.002094 0.000000 0.000000 0.000000
# 3 -0.004324 0.002094 0.010711 0.000000 0.000000 0.000000
# 4 0.000000 0.000000 0.000000 0.046050 0.000000 0.000000
# 5 0.000000 0.000000 0.000000 0.000000 -0.062329 0.000000
# 6 0.000000 0.000000 0.000000 0.000000 0.000000 0.043574
#
#
# Mechanical properties :
#
#
# Convention : Reuss Voigt Hill
#
# Bulk Modulus (GPa) = 39.49904 45.86478 42.68191
# Shear Modulus (GPa) = 58.03004 21.23965 39.63484
#
# Velocity S-wave (km/s) = 4.90112 2.96512 4.05049
# Velocity P-wave (km/s) = 6.95545 5.54147 6.28833
#
# Compressibility (1/GPa) = 0.02531707
#
# Stress axis : x y z
#
# Youngs Moduli (GPa) = 88.54393 63.01864 93.36330
#
# Poissons Ratio (x) = 0.25510 0.40367
# Poissons Ratio (y) = 0.35843 -0.19547
# Poissons Ratio (z) = 0.38283 -0.13194
#
# Static dielectric constant tensor:
#      x y z
#    x 2.000210 0.000000 0.000000 
#    y 0.000000 1.882000 0.000000 
#    z 0.000000 0.000000 1.938350 
# 
# From -- ./inp_files/26621.got.cif
#   From: 2010.05.17/outbox.cif.g08.bks.cpg/sg23_14_cif.got.tgz:26621.got - 2010.06.04 12:02:01.
