data_PCOD9331714
_publ_section_title
;
Structure prediction by ZEFSAII (Michael W. Deem and Ramdas Pophale) SiO2 
 PCOD9331714
Probable space group: I 2 2 2
;
_chemical_formula_sum "Si O2"
_cell_formula_units_Z 34
_cell_length_a 5.088415
_cell_length_b 12.833982
_cell_length_c 19.679279
_cell_angle_alpha 90.000000
_cell_angle_beta 90.000000
_cell_angle_gamma 90.000000
_cell_volume 1285.147965
_symmetry_space_group_name_H-M "I 2 2 2"
_symmetry_group_IT_number 23
_symmetry_cell_setting 'orthorhombic'
loop_
_space_group_symop_operation_xyz
x,y,z
-x,-y,z
x,-y,-z
-x,y,-z
1/2+x,1/2+y,1/2+z
1/2-x,1/2-y,1/2+z
1/2+x,1/2-y,1/2-z
1/2-x,1/2+y,1/2-z
loop_
_atom_site_type_symbol
_atom_site_label
_atom_site_fract_x
_atom_site_fract_y
_atom_site_fract_z
Si Si1 0.000000 0.720327 0.000000
Si Si2 0.130683 0.892075 0.095793
Si Si3 0.000000 0.000000 0.500000
Si Si4 0.383441 0.625889 0.886243
Si Si5 0.500000 0.000000 0.705920
Si Si6 0.618871 0.842063 0.178224
O O1 0.180263 0.804976 0.039239
O O2 0.838548 0.660916 0.058241
O O3 0.912981 0.852628 0.149902
O O4 0.403886 0.901797 0.133315
O O5 0.000000 0.000000 0.072194
O O6 0.097874 0.918677 0.558911
O O7 0.455866 0.721610 0.837044
O O8 0.238868 0.542999 0.838438
O O9 0.406714 0.900475 0.750326
#
# Coordination Sequence:
#
# PCOD9331714 Si02
#       6
#     4   8   2   8   4   8
#     4  10  23  43  68 106 144 190 252 308 386 450
#     4  11  21  44  74 106 148 190 242 315 380 453
#     4  12  24  46  72 110 148 202 260 312 392 456
#     4  11  26  44  75 107 153 204 254 325 382 460
#     4  12  26  49  74 107 154 208 260 318 388 470
#     4  11  26  47  73 112 152 196 253 315 381 454
#
# _framework density 26.456098999999998
#
# number of rings (size 3 to 8) (size 9 to 14) (size 15 to 20)
#    0.000    0.941    2.353    3.176    0.000   12.235 
#    0.000    4.706    0.000    0.000    0.000    0.000 
#    0.000    0.000    0.000    0.000    0.000    0.000 
#
# Total GULP energy -94879.430571 kJ/mol
# GULP energy per Si atom -5581.142975 kJ/mol
# Density = 2.639588 g / cm^3
# Si number density = 26.456099 Si / 1000 Ang^3
#
#
#
# Elastic Constant Matrix: (Units=GPa)
#
#
# Indices 1 2 3 4 5 6 
#
# 1 82.1836 38.4507 31.5169 0.0000 0.0000 0.0000
# 2 38.4507 156.2039 98.6444 0.0000 0.0000 0.0000
# 3 31.5169 98.6444 174.7415 0.0000 0.0000 0.0000
# 4 0.0000 0.0000 0.0000 88.4098 0.0000 0.0000
# 5 0.0000 0.0000 0.0000 0.0000 43.0477 0.0000
# 6 0.0000 0.0000 0.0000 0.0000 0.0000 29.0766
#
#
#
# Elastic Compliance Matrix: (Units=1/GPa)
#
#
# Indices 1 2 3 4 5 6 
#
# 1 0.013840 -0.002845 -0.000890 0.000000 0.000000 0.000000
# 2 -0.002845 0.010533 -0.005433 0.000000 0.000000 0.000000
# 3 -0.000890 -0.005433 0.008950 0.000000 0.000000 0.000000
# 4 0.000000 0.000000 0.000000 0.011311 0.000000 0.000000
# 5 0.000000 0.000000 0.000000 0.000000 0.023230 0.000000
# 6 0.000000 0.000000 0.000000 0.000000 0.000000 0.034392
#
#
# Mechanical properties :
#
#
# Convention : Reuss Voigt Hill
#
# Bulk Modulus (GPa) = 66.72184 83.37256 75.04720
# Shear Modulus (GPa) = 39.81250 48.40796 44.11023
#
# Velocity S-wave (km/s) = 3.88345 4.28219 4.08769
# Velocity P-wave (km/s) = 6.73668 7.48542 7.12090
#
# Compressibility (1/GPa) = 0.01498760
#
# Stress axis : x y z
#
# Youngs Moduli (GPa) = 72.25321 94.93850 111.72667
#
# Poissons Ratio (x) = 0.27005 0.09949
# Poissons Ratio (y) = 0.20553 0.60702
# Poissons Ratio (z) = 0.06434 0.51581
#
# Static dielectric constant tensor:
#      x y z
#    x 2.094490 0.000000 0.000000 
#    y 0.000000 2.235420 0.000000 
#    z 0.000000 0.000000 2.122800 
# 
# From -- ./inp_files/22970.got.cif
#   From: 2010.05.17/outbox.cif.g08.bks.cpg/sg23_12_cif.got.tgz:22970.got - 2010.06.04 12:02:01.
