data_PCOD9331854
_publ_section_title
;
Structure prediction by ZEFSAII (Michael W. Deem and Ramdas Pophale) SiO2 
 PCOD9331854
Probable space group: I 2 2 2
;
_chemical_formula_sum "Si O2"
_cell_formula_units_Z 38
_cell_length_a 9.792673
_cell_length_b 7.727107
_cell_length_c 23.663509
_cell_angle_alpha 90.000000
_cell_angle_beta 90.000000
_cell_angle_gamma 90.000000
_cell_volume 1790.594822
_symmetry_space_group_name_H-M "I 2 2 2"
_symmetry_group_IT_number 23
_symmetry_cell_setting 'orthorhombic'
loop_
_space_group_symop_operation_xyz
x,y,z
-x,-y,z
x,-y,-z
-x,y,-z
1/2+x,1/2+y,1/2+z
1/2-x,1/2-y,1/2+z
1/2+x,1/2-y,1/2-z
1/2-x,1/2+y,1/2-z
loop_
_atom_site_type_symbol
_atom_site_label
_atom_site_fract_x
_atom_site_fract_y
_atom_site_fract_z
Si Si1 0.000000 0.000000 0.000000
Si Si2 0.506948 0.794659 0.580272
Si Si3 0.500000 0.000000 0.000000
Si Si4 0.830623 0.253334 0.422452
Si Si5 0.000000 0.000000 0.500000
Si Si6 0.632515 0.617187 0.196678
Si Si7 0.385412 0.131192 0.299208
O O1 0.065746 0.854343 0.042358
O O2 0.667064 0.747915 0.577908
O O3 0.447908 0.788471 0.643637
O O4 0.500000 0.000000 0.563820
O O5 0.602767 0.093317 0.957248
O O6 0.896915 0.096012 0.457552
O O7 0.878921 0.239171 0.357888
O O8 0.500000 0.500000 0.203668
O O9 0.654181 0.728253 0.252955
O O10 0.757634 0.488083 0.185288
O O11 0.500000 0.000000 0.275522
#
# Coordination Sequence:
#
# PCOD9331854 Si02
#       7
#     2   8   2   8   2   8   8
#     4  12  28  40  74 108 132 194 242 306 362 440
#     4  11  25  48  71 105 149 192 247 310 375 446
#     4  10  26  46  72 108 148 192 260 314 358 462
#     4  11  23  46  68 102 139 189 242 302 372 436
#     4  10  24  42  72  94 140 186 234 292 368 438
#     4  12  25  44  72 104 139 192 239 304 374 445
#     4  11  25  47  71 104 147 189 246 309 375 448
#
# _framework density 21.221997000000002
#
# number of rings (size 3 to 8) (size 9 to 14) (size 15 to 20)
#    0.000    0.842    5.263    2.211    5.895    0.000 
#    3.789    0.000    0.000    0.000    0.000    0.000 
#    0.000    0.000    0.000    0.000    0.000    0.000 
#
# Total GULP energy -106032.336948 kJ/mol
# GULP energy per Si atom -5580.649313 kJ/mol
# Density = 2.117369 g / cm^3
# Si number density = 21.221997 Si / 1000 Ang^3
#
#
#
# Elastic Constant Matrix: (Units=GPa)
#
#
# Indices 1 2 3 4 5 6 
#
# 1 102.3831 30.0627 35.1734 0.0000 0.0000 0.0000
# 2 30.0627 105.8294 71.7796 0.0000 0.0000 0.0000
# 3 35.1734 71.7796 189.7215 0.0000 0.0000 0.0000
# 4 0.0000 0.0000 0.0000 54.5432 0.0000 0.0000
# 5 0.0000 0.0000 0.0000 0.0000 32.2625 0.0000
# 6 0.0000 0.0000 0.0000 0.0000 0.0000 302.4337
#
#
#
# Elastic Compliance Matrix: (Units=1/GPa)
#
#
# Indices 1 2 3 4 5 6 
#
# 1 0.010835 -0.002308 -0.001136 0.000000 0.000000 0.000000
# 2 -0.002308 0.013202 -0.004567 0.000000 0.000000 0.000000
# 3 -0.001136 -0.004567 0.007209 0.000000 0.000000 0.000000
# 4 0.000000 0.000000 0.000000 0.018334 0.000000 0.000000
# 5 0.000000 0.000000 0.000000 0.000000 0.030996 0.000000
# 6 0.000000 0.000000 0.000000 0.000000 0.000000 0.003307
#
#
# Mechanical properties :
#
#
# Convention : Reuss Voigt Hill
#
# Bulk Modulus (GPa) = 65.67784 74.66283 70.17034
# Shear Modulus (GPa) = 47.62839 95.24244 71.43541
#
# Velocity S-wave (km/s) = 4.74254 6.70646 5.80811
# Velocity P-wave (km/s) = 7.81051 9.75843 8.83830
#
# Compressibility (1/GPa) = 0.01522583
#
# Stress axis : x y z
#
# Youngs Moduli (GPa) = 92.29368 75.74366 138.70766
#
# Poissons Ratio (x) = 0.17478 0.15753
# Poissons Ratio (y) = 0.21297 0.63351
# Poissons Ratio (z) = 0.10482 0.34594
#
# Static dielectric constant tensor:
#      x y z
#    x 1.630000 0.000000 0.000000 
#    y 0.000000 1.805340 0.000000 
#    z 0.000000 0.000000 1.743540 
# 
# From -- ./inp_files/27909.got.cif
#   From: 2010.05.17/outbox.cif.g08.bks.cpg/sg23_14_cif.got.tgz:27909.got - 2010.06.04 12:02:01.
