data_PCOD9331127
_publ_section_title
;
Structure prediction by ZEFSAII (Michael W. Deem and Ramdas Pophale) SiO2 
 PCOD9331127
Probable space group: I 2 2 2
;
_chemical_formula_sum "Si O2"
_cell_formula_units_Z 64
_cell_length_a 14.563734
_cell_length_b 16.346510
_cell_length_c 11.247810
_cell_angle_alpha 90.000000
_cell_angle_beta 90.000000
_cell_angle_gamma 90.000000
_cell_volume 2677.723649
_symmetry_space_group_name_H-M "I 2 2 2"
_symmetry_group_IT_number 23
_symmetry_cell_setting 'orthorhombic'
loop_
_space_group_symop_operation_xyz
x,y,z
-x,-y,z
x,-y,-z
-x,y,-z
1/2+x,1/2+y,1/2+z
1/2-x,1/2-y,1/2+z
1/2+x,1/2-y,1/2-z
1/2-x,1/2+y,1/2-z
loop_
_atom_site_type_symbol
_atom_site_label
_atom_site_fract_x
_atom_site_fract_y
_atom_site_fract_z
Si Si1 0.083878 0.051683 0.266201
Si Si2 0.984850 0.662870 0.364359
Si Si3 0.329372 0.859621 0.752216
Si Si4 0.797489 0.064679 0.098680
Si Si5 0.145024 0.553448 0.768989
Si Si6 0.140694 0.176064 0.104160
Si Si7 0.698796 0.840898 0.526388
Si Si8 0.603747 0.324121 0.045822
O O1 0.063149 0.127038 0.176384
O O2 0.130085 0.096866 0.375616
O O3 0.140102 0.988393 0.186588
O O4 0.000000 0.000000 0.312330
O O5 0.948327 0.593974 0.275385
O O6 0.916026 0.740436 0.380452
O O7 0.000000 0.632023 0.500000
O O8 0.085086 0.685648 0.314391
O O9 0.235384 0.841568 0.823272
O O10 0.321713 0.838751 0.613389
O O11 0.346672 0.957512 0.755866
O O12 0.717200 0.097388 0.180165
O O13 0.848093 0.133718 0.023866
O O14 0.761712 0.000000 0.000000
O O15 0.173828 0.577287 0.902130
O O16 0.135751 0.271880 0.087977
O O17 0.807223 0.817794 0.538005
O O18 0.500000 0.340165 0.000000
#
# Coordination Sequence:
#
# PCOD9331127 Si02
#       8
#     8   8   8   8   8   8   8   8
#     4  11  24  42  68 103 144 186 242 306 368 449
#     4  11  26  46  76 108 142 191 251 317 366 435
#     4  12  25  47  71 106 148 186 249 308 372 450
#     4  10  21  40  67  99 137 187 243 298 352 435
#     4  12  24  43  73 107 144 188 243 300 383 435
#     4  11  23  44  70  99 139 192 248 298 368 438
#     4  12  27  45  77 104 149 201 242 311 375 465
#     4  11  24  46  68 108 147 191 251 301 376 448
#
# _framework density 23.900898000000002
#
# number of rings (size 3 to 8) (size 9 to 14) (size 15 to 20)
#    0.000    0.750    3.750    4.500    3.500    4.500 
#    0.000    2.500    0.000    0.000    0.000    0.000 
#    0.000    0.000    0.000    0.000    0.000    0.000 
#
# Total GULP energy -178830.632159 kJ/mol
# GULP energy per Si atom -5588.457255 kJ/mol
# Density = 2.384650 g / cm^3
# Si number density = 23.900898 Si / 1000 Ang^3
#
#
#
# Elastic Constant Matrix: (Units=GPa)
#
#
# Indices 1 2 3 4 5 6 
#
# 1 39.4715 13.5574 18.0782 0.0000 0.0000 0.0000
# 2 13.5574 83.2726 19.0829 0.0000 0.0000 0.0000
# 3 18.0782 19.0829 65.0969 0.0000 0.0000 0.0000
# 4 0.0000 0.0000 0.0000 36.1562 0.0000 0.0000
# 5 0.0000 0.0000 0.0000 0.0000 30.5817 0.0000
# 6 0.0000 0.0000 0.0000 0.0000 0.0000 23.5064
#
#
#
# Elastic Compliance Matrix: (Units=1/GPa)
#
#
# Indices 1 2 3 4 5 6 
#
# 1 0.029786 -0.003166 -0.007344 0.000000 0.000000 0.000000
# 2 -0.003166 0.013210 -0.002993 0.000000 0.000000 0.000000
# 3 -0.007344 -0.002993 0.018279 0.000000 0.000000 0.000000
# 4 0.000000 0.000000 0.000000 0.027658 0.000000 0.000000
# 5 0.000000 0.000000 0.000000 0.000000 0.032699 0.000000
# 6 0.000000 0.000000 0.000000 0.000000 0.000000 0.042542
#
#
# Mechanical properties :
#
#
# Convention : Reuss Voigt Hill
#
# Bulk Modulus (GPa) = 29.18175 32.14202 30.66189
# Shear Modulus (GPa) = 24.67889 27.19036 25.93462
#
# Velocity S-wave (km/s) = 3.21682 3.37654 3.29764
# Velocity P-wave (km/s) = 5.10228 5.35524 5.23029
#
# Compressibility (1/GPa) = 0.03426799
#
# Stress axis : x y z
#
# Youngs Moduli (GPa) = 33.57309 75.69915 54.70889
#
# Poissons Ratio (x) = 0.23970 0.40176
# Poissons Ratio (y) = 0.10631 0.16375
# Poissons Ratio (z) = 0.24655 0.22658
#
# Static dielectric constant tensor:
#      x y z
#    x 2.003890 0.000000 0.000000 
#    y 0.000000 1.909510 0.000000 
#    z 0.000000 0.000000 1.913430 
# 
# From -- ./inp_files/16976.got.cif
#   From: 2010.05.17/outbox.cif.g08.bks.cpg/sg23_9_cif.got.tgz:16976.got - 2010.06.04 12:02:01.
