data_PCOD9331669
_publ_section_title
;
Structure prediction by ZEFSAII (Michael W. Deem and Ramdas Pophale) SiO2 
 PCOD9331669
Probable space group: I 2 2 2
;
_chemical_formula_sum "Si O2"
_cell_formula_units_Z 32
_cell_length_a 5.037272
_cell_length_b 28.331160
_cell_length_c 9.740932
_cell_angle_alpha 90.000000
_cell_angle_beta 90.000000
_cell_angle_gamma 90.000000
_cell_volume 1390.145540
_symmetry_space_group_name_H-M "I 2 2 2"
_symmetry_group_IT_number 23
_symmetry_cell_setting 'orthorhombic'
loop_
_space_group_symop_operation_xyz
x,y,z
-x,-y,z
x,-y,-z
-x,y,-z
1/2+x,1/2+y,1/2+z
1/2-x,1/2-y,1/2+z
1/2+x,1/2-y,1/2-z
1/2-x,1/2+y,1/2-z
loop_
_atom_site_type_symbol
_atom_site_label
_atom_site_fract_x
_atom_site_fract_y
_atom_site_fract_z
Si Si1 0.492853 0.264391 0.160414
Si Si2 0.069025 0.587600 0.655787
Si Si3 0.809456 0.356716 0.122345
Si Si4 0.095210 0.050630 0.295127
O O1 0.214285 0.258044 0.238028
O O2 0.583736 0.318944 0.149160
O O3 0.500000 0.247038 0.000000
O O4 0.361932 0.572529 0.700826
O O5 0.140190 0.547503 0.296255
O O6 0.000000 0.596603 0.500000
O O7 0.983821 0.633538 0.742742
O O8 0.691527 0.409245 0.098508
O O9 0.000000 0.341607 0.000000
O O10 0.000000 0.000000 0.345443
#
# Coordination Sequence:
#
# PCOD9331669 Si02
#       4
#     8   8   8   8
#     4  12  28  52  80 113 150 195 251 316 387 457
#     4  10  23  41  67 103 142 191 246 299 358 432
#     4  10  26  46  76 100 149 194 241 301 380 436
#     4  10  23  42  70 105 146 192 247 299 359 439
#
# _framework density 23.019172999999999
#
# number of rings (size 3 to 8) (size 9 to 14) (size 15 to 20)
#    1.500    0.000    0.000    3.750    7.000    4.000 
#    4.500    3.750    0.000    0.000    0.000    0.000 
#    0.000    0.000    0.000    0.000    0.000    0.000 
#
# Total GULP energy -89293.358710 kJ/mol
# GULP energy per Si atom -5580.834919 kJ/mol
# Density = 2.296678 g / cm^3
# Si number density = 23.019173 Si / 1000 Ang^3
#
#
#
# Elastic Constant Matrix: (Units=GPa)
#
#
# Indices 1 2 3 4 5 6 
#
# 1 115.6326 2.6283 21.8628 0.0000 0.0000 0.0000
# 2 2.6283 89.5296 6.6544 0.0000 0.0000 0.0000
# 3 21.8628 6.6544 116.8567 0.0002 0.0000 0.0000
# 4 0.0000 0.0000 0.0002 11.7881 0.0000 0.0000
# 5 0.0000 0.0000 0.0000 0.0000 41.9641 0.0000
# 6 0.0000 0.0000 0.0000 0.0000 0.0000 43.1050
#
#
#
# Elastic Compliance Matrix: (Units=1/GPa)
#
#
# Indices 1 2 3 4 5 6 
#
# 1 0.008967 -0.000139 -0.001670 0.000000 0.000000 0.000000
# 2 -0.000139 0.011219 -0.000613 0.000000 0.000000 0.000000
# 3 -0.001670 -0.000613 0.008905 0.000000 0.000000 0.000000
# 4 0.000000 0.000000 0.000000 0.084831 0.000000 0.000000
# 5 0.000000 0.000000 0.000000 0.000000 0.023830 0.000000
# 6 0.000000 0.000000 0.000000 0.000000 0.000000 0.023199
#
#
# Mechanical properties :
#
#
# Convention : Reuss Voigt Hill
#
# Bulk Modulus (GPa) = 41.24144 42.70112 41.97128
# Shear Modulus (GPa) = 28.75592 38.76299 33.75945
#
# Velocity S-wave (km/s) = 3.53826 4.10804 3.83375
# Velocity P-wave (km/s) = 5.88620 6.41029 6.15383
#
# Compressibility (1/GPa) = 0.02424746
#
# Stress axis : x y z
#
# Youngs Moduli (GPa) = 111.52083 89.13349 112.29929
#
# Poissons Ratio (x) = 0.01240 0.18751
# Poissons Ratio (y) = 0.01552 0.06882
# Poissons Ratio (z) = 0.18621 0.05462
#
# Static dielectric constant tensor:
#      x y z
#    x 1.837980 0.000000 0.000000 
#    y 0.000000 1.897980 0.000000 
#    z 0.000000 0.000000 1.917710 
# 
# From -- ./inp_files/5779.got.cif
#   From: 2010.05.17/outbox.cif.g08.bks.cpg/sg23_3_cif.got.tgz:5779.got - 2010.06.04 12:02:01.
