data_PCOD9331696
_publ_section_title
;
Structure prediction by ZEFSAII (Michael W. Deem and Ramdas Pophale) SiO2 
 PCOD9331696
Probable space group: I 2 2 2
;
_chemical_formula_sum "Si O2"
_cell_formula_units_Z 44
_cell_length_a 29.482566
_cell_length_b 14.218240
_cell_length_c 5.162305
_cell_angle_alpha 90.000000
_cell_angle_beta 90.000000
_cell_angle_gamma 90.000000
_cell_volume 2163.987661
_symmetry_space_group_name_H-M "I 2 2 2"
_symmetry_group_IT_number 23
_symmetry_cell_setting 'orthorhombic'
loop_
_space_group_symop_operation_xyz
x,y,z
-x,-y,z
x,-y,-z
-x,y,-z
1/2+x,1/2+y,1/2+z
1/2-x,1/2-y,1/2+z
1/2+x,1/2-y,1/2-z
1/2-x,1/2+y,1/2-z
loop_
_atom_site_type_symbol
_atom_site_label
_atom_site_fract_x
_atom_site_fract_y
_atom_site_fract_z
Si Si1 0.000000 0.651514 0.500000
Si Si2 0.525773 0.664351 0.251747
Si Si3 0.116662 0.061564 0.740575
Si Si4 0.803662 0.193064 0.428810
Si Si5 0.924650 0.500000 0.500000
Si Si6 0.302544 0.180832 0.569539
Si Si7 0.636141 0.000000 0.500000
O O1 0.982359 0.723809 0.717949
O O2 0.958104 0.585636 0.424405
O O3 0.500000 0.627618 0.500000
O O4 0.578171 0.640005 0.277832
O O5 0.500000 0.624683 0.000000
O O6 0.162755 0.109367 0.642696
O O7 0.099765 0.000000 0.500000
O O8 0.122364 0.000000 0.000000
O O9 0.751339 0.160444 0.415020
O O10 0.812742 0.243180 0.704259
O O11 0.810161 0.270994 0.207177
O O12 0.894479 0.524311 0.750063
O O13 0.332594 0.087867 0.583917
#
# Coordination Sequence:
#
# PCOD9331696 Si02
#       7
#     4   8   8   8   4   8   4
#     4   9  26  44  67  94 132 182 205 282 324 399
#     4  10  24  41  67  90 124 173 213 271 331 389
#     4  12  26  42  66  99 127 173 221 278 330 395
#     4  10  23  45  66  93 133 179 218 272 324 411
#     4  11  26  42  66 100 138 164 234 254 337 394
#     4  10  23  42  67  97 133 175 220 265 340 380
#     4  12  26  39  70 104 134 172 215 288 308 416
#
# _framework density 20.332832
#
# number of rings (size 3 to 8) (size 9 to 14) (size 15 to 20)
#    0.545    0.909    0.000    3.273    8.909    2.909 
#    1.636    0.000    0.000    0.000    0.000    0.000 
#    0.000    0.000    0.000    0.000    0.000    0.000 
#
# Total GULP energy -122857.856857 kJ/mol
# GULP energy per Si atom -5584.448039 kJ/mol
# Density = 2.028655 g / cm^3
# Si number density = 20.332832 Si / 1000 Ang^3
#
#
#
# Elastic Constant Matrix: (Units=GPa)
#
#
# Indices 1 2 3 4 5 6 
#
# 1 84.5618 54.2213 18.1763 0.0005 0.0006 -0.0004
# 2 54.2213 81.9570 13.8373 0.0004 0.0005 -0.0003
# 3 18.1763 13.8373 94.9223 -0.0023 -0.0004 0.0007
# 4 0.0005 0.0004 -0.0023 64.3854 -0.0005 0.0010
# 5 0.0006 0.0005 -0.0004 -0.0005 -9.9375 0.0000
# 6 -0.0004 -0.0003 0.0007 0.0010 0.0000 31.6120
#
#
#
# Elastic Compliance Matrix: (Units=1/GPa)
#
#
# Indices 1 2 3 4 5 6 
#
# 1 0.020916 -0.013493 -0.002038 0.000000 0.000001 0.000000
# 2 -0.013493 0.021214 -0.000509 0.000000 0.000000 0.000000
# 3 -0.002038 -0.000509 0.010999 0.000000 -0.000001 0.000000
# 4 0.000000 0.000000 0.000000 0.015531 -0.000001 -0.000001
# 5 0.000001 0.000000 -0.000001 -0.000001 -0.100629 0.000000
# 6 0.000000 0.000000 0.000000 -0.000001 0.000000 0.031634
#
#
# Mechanical properties :
#
#
# Convention : Reuss Voigt Hill
#
# Bulk Modulus (GPa) = 47.50795 48.21233 47.86014
# Shear Modulus (GPa) = 128.99081 28.89239 78.94160
#
# Velocity S-wave (km/s) = 7.97354 3.77367 6.23771
# Velocity P-wave (km/s) = 10.40124 6.53838 8.68724
#
# Compressibility (1/GPa) = 0.02104911
#
# Stress axis : x y z
#
# Youngs Moduli (GPa) = 47.81083 47.13778 90.91440
#
# Poissons Ratio (x) = 0.63605 0.18529
# Poissons Ratio (y) = 0.64513 0.04625
# Poissons Ratio (z) = 0.09744 0.02398
#
# Static dielectric constant tensor:
#      x y z
#    x 1.693610 0.000000 0.000000 
#    y 0.000000 2.136310 0.000000 
#    z 0.000000 0.000000 1.698930 
# 
# From -- ./inp_files/4881.got.cif
#   From: 2010.05.17/outbox.cif.g08.bks.cpg/sg23_3_cif.got.tgz:4881.got - 2010.06.04 12:02:01.
