data_PCOD9331259
_publ_section_title
;
Structure prediction by ZEFSAII (Michael W. Deem and Ramdas Pophale) SiO2 
 PCOD9331259
Probable space group: I 2 2 2
;
_chemical_formula_sum "Si O2"
_cell_formula_units_Z 46
_cell_length_a 7.092620
_cell_length_b 26.904566
_cell_length_c 15.117285
_cell_angle_alpha 90.000000
_cell_angle_beta 90.000000
_cell_angle_gamma 90.000000
_cell_volume 2884.738720
_symmetry_space_group_name_H-M "I 2 2 2"
_symmetry_group_IT_number 23
_symmetry_cell_setting 'orthorhombic'
loop_
_space_group_symop_operation_xyz
x,y,z
-x,-y,z
x,-y,-z
-x,y,-z
1/2+x,1/2+y,1/2+z
1/2-x,1/2-y,1/2+z
1/2+x,1/2-y,1/2-z
1/2-x,1/2+y,1/2-z
loop_
_atom_site_type_symbol
_atom_site_label
_atom_site_fract_x
_atom_site_fract_y
_atom_site_fract_z
Si Si1 0.486323 0.799700 0.806006
Si Si2 0.372723 0.047779 0.583559
Si Si3 0.878341 0.185807 0.696429
Si Si4 0.000000 0.000000 0.500000
Si Si5 0.500000 0.790635 0.000000
Si Si6 0.254541 0.641208 0.825694
Si Si7 0.778903 0.700460 0.995244
O O1 0.279410 0.811518 0.770781
O O2 0.521403 0.740130 0.805238
O O3 0.515311 0.817768 0.906501
O O4 0.629589 0.824576 0.737525
O O5 0.500000 0.067569 0.500000
O O6 0.345653 0.088950 0.657857
O O7 0.500000 0.000000 0.610163
O O8 0.157834 0.032350 0.554246
O O9 0.781168 0.179911 0.600387
O O10 0.033545 0.143557 0.710796
O O11 0.676613 0.753070 0.007167
O O12 0.275356 0.665126 0.923678
O O13 0.000000 0.707252 0.000000
#
# Coordination Sequence:
#
# PCOD9331259 Si02
#       7
#     8   8   8   2   4   8   8
#     4  11  21  34  48  72 105 140 182 224 258 308
#     4   9  21  37  52  78 108 140 175 221 267 315
#     4  11  21  31  48  74 106 138 183 220 254 305
#     4   8  18  34  56  70 112 136 168 222 264 318
#     4  10  22  35  46  66 109 143 176 223 264 296
#     4  12  21  33  54  76 104 142 181 217 258 318
#     4  11  19  30  47  73 100 139 177 215 248 303
#
# _framework density 15.945985
#
# number of rings (size 3 to 8) (size 9 to 14) (size 15 to 20)
#    0.000    1.565    6.957    0.522    2.435    1.391 
#    0.000    0.000    0.000    0.000    0.000    0.609 
#    0.000    0.000    0.000    0.000    0.000    0.000 
#
# Total GULP energy -128177.608111 kJ/mol
# GULP energy per Si atom -5572.939483 kJ/mol
# Density = 1.590969 g / cm^3
# Si number density = 15.945985 Si / 1000 Ang^3
#
#
#
# Elastic Constant Matrix: (Units=GPa)
#
#
# Indices 1 2 3 4 5 6 
#
# 1 123.2355 22.0201 20.2419 0.0000 0.0000 0.0000
# 2 22.0201 39.3976 30.5310 0.0000 0.0000 0.0000
# 3 20.2419 30.5310 78.5772 0.0000 0.0000 0.0000
# 4 0.0000 0.0000 0.0000 13.3904 0.0000 0.0000
# 5 0.0000 0.0000 0.0000 0.0000 23.3934 0.0000
# 6 0.0000 0.0000 0.0000 0.0000 0.0000 16.2516
#
#
#
# Elastic Compliance Matrix: (Units=1/GPa)
#
#
# Indices 1 2 3 4 5 6 
#
# 1 0.009030 -0.004642 -0.000522 0.000000 0.000000 0.000000
# 2 -0.004642 0.038704 -0.013843 0.000000 0.000000 0.000000
# 3 -0.000522 -0.013843 0.018239 0.000000 0.000000 0.000000
# 4 0.000000 0.000000 0.000000 0.074680 0.000000 0.000000
# 5 0.000000 0.000000 0.000000 0.000000 0.042747 0.000000
# 6 0.000000 0.000000 0.000000 0.000000 0.000000 0.061532
#
#
# Mechanical properties :
#
#
# Convention : Reuss Voigt Hill
#
# Bulk Modulus (GPa) = 35.76649 42.97736 39.37193
# Shear Modulus (GPa) = 17.10764 21.83490 19.47127
#
# Velocity S-wave (km/s) = 3.27899 3.70443 3.49818
# Velocity P-wave (km/s) = 6.06747 6.73108 6.40787
#
# Compressibility (1/GPa) = 0.02795913
#
# Stress axis : x y z
#
# Youngs Moduli (GPa) = 110.74420 25.83706 54.82626
#
# Poissons Ratio (x) = 0.11994 0.02864
# Poissons Ratio (y) = 0.51408 0.75894
# Poissons Ratio (z) = 0.05786 0.35765
#
# Static dielectric constant tensor:
#      x y z
#    x 1.571030 0.000000 0.000000 
#    y 0.000000 1.542790 0.000000 
#    z 0.000000 0.000000 1.558420 
# 
# From -- ./inp_files/23229.got.cif
#   From: 2010.05.17/outbox.cif.g08.bks.cpg/sg23_12_cif.got.tgz:23229.got - 2010.06.04 12:02:01.
