data_PCOD9331011
_publ_section_title
;
Structure prediction by ZEFSAII (Michael W. Deem and Ramdas Pophale) SiO2 
 PCOD9331011
Probable space group: I 2 2 2
;
_chemical_formula_sum "Si O2"
_cell_formula_units_Z 58
_cell_length_a 13.305849
_cell_length_b 25.366041
_cell_length_c 8.236873
_cell_angle_alpha 90.000000
_cell_angle_beta 90.000000
_cell_angle_gamma 90.000000
_cell_volume 2780.082286
_symmetry_space_group_name_H-M "I 2 2 2"
_symmetry_group_IT_number 23
_symmetry_cell_setting 'orthorhombic'
loop_
_space_group_symop_operation_xyz
x,y,z
-x,-y,z
x,-y,-z
-x,y,-z
1/2+x,1/2+y,1/2+z
1/2-x,1/2-y,1/2+z
1/2+x,1/2-y,1/2-z
1/2-x,1/2+y,1/2-z
loop_
_atom_site_type_symbol
_atom_site_label
_atom_site_fract_x
_atom_site_fract_y
_atom_site_fract_z
Si Si1 0.697394 0.981536 0.324936
Si Si2 0.656633 0.391852 0.151312
Si Si3 0.544323 0.242268 0.821447
Si Si4 0.765847 0.092293 0.283328
Si Si5 0.762169 0.717276 0.830737
Si Si6 0.000000 0.500000 0.000000
Si Si7 0.356941 0.806355 0.322480
Si Si8 0.538787 0.359954 0.680567
O O1 0.762733 0.932153 0.268993
O O2 0.741037 0.000000 0.500000
O O3 0.719474 0.035954 0.232668
O O4 0.580705 0.971219 0.378805
O O5 0.688144 0.331749 0.184859
O O6 0.543492 0.394472 0.218990
O O7 0.675846 0.401617 0.958911
O O8 0.653138 0.216929 0.806217
O O9 0.471182 0.209290 0.704681
O O10 0.551800 0.303255 0.767025
O O11 0.500000 0.240533 0.000000
O O12 0.674099 0.133278 0.299365
O O13 0.853740 0.111796 0.166670
O O14 0.703430 0.771267 0.807427
O O15 0.817523 0.711976 0.002333
O O16 0.500000 0.350264 0.500000
#
# Coordination Sequence:
#
# PCOD9331011 Si02
#       8
#     8   8   8   8   8   2   8   8
#     4   8  18  37  64  94 120 153 200 258 299 357
#     4  10  21  39  62  90 122 160 205 254 311 361
#     4  12  24  39  58  84 121 165 212 258 318 369
#     4  10  21  39  62  90 122 160 205 254 311 361
#     4  11  22  36  58  88 122 159 206 253 310 377
#     4   8  16  36  68  94 126 136 212 260 310 328
#     4  11  22  36  58  88 122 159 206 253 310 377
#     4  12  24  37  60  87 125 168 205 253 310 382
#
# _framework density 20.862691999999999
#
# number of rings (size 3 to 8) (size 9 to 14) (size 15 to 20)
#    0.414    1.103    2.759    3.310    0.000    2.759 
#    0.000    3.448    0.000    0.000    0.000    1.931 
#    0.000    0.000    0.000    0.000    0.000    0.000 
#
# Total GULP energy -161664.412815 kJ/mol
# GULP energy per Si atom -5574.634925 kJ/mol
# Density = 2.081521 g / cm^3
# Si number density = 20.862692 Si / 1000 Ang^3
#
#
#
# Elastic Constant Matrix: (Units=GPa)
#
#
# Indices 1 2 3 4 5 6 
#
# 1 84.8235 2.5919 -3.3248 0.0002 -0.0001 -0.0006
# 2 2.5919 29.2857 11.7640 0.0029 -0.0010 -0.0016
# 3 -3.3248 11.7640 43.3116 0.0019 -0.0012 -0.0024
# 4 0.0002 0.0029 0.0019 7.3295 -0.0008 -0.0007
# 5 -0.0001 -0.0010 -0.0012 -0.0008 27.0069 0.0005
# 6 -0.0006 -0.0016 -0.0024 -0.0007 0.0005 16.0864
#
#
#
# Elastic Compliance Matrix: (Units=1/GPa)
#
#
# Indices 1 2 3 4 5 6 
#
# 1 0.011891 -0.001593 0.001345 0.000000 0.000000 0.000000
# 2 -0.001593 0.038542 -0.010591 -0.000012 0.000001 0.000002
# 3 0.001345 -0.010591 0.026068 -0.000003 0.000001 0.000003
# 4 0.000000 -0.000012 -0.000003 0.136436 0.000004 0.000006
# 5 0.000000 0.000001 0.000001 0.000004 0.037028 -0.000001
# 6 0.000000 0.000002 0.000003 0.000006 -0.000001 0.062164
#
#
# Mechanical properties :
#
#
# Convention : Reuss Voigt Hill
#
# Bulk Modulus (GPa) = 18.24005 19.94254 19.09129
# Shear Modulus (GPa) = 14.20136 19.84387 17.02261
#
# Velocity S-wave (km/s) = 2.61186 3.08744 2.85956
# Velocity P-wave (km/s) = 4.22583 4.72117 4.48035
#
# Compressibility (1/GPa) = 0.05482442
#
# Stress axis : x y z
#
# Youngs Moduli (GPa) = 84.10006 25.94598 38.36069
#
# Poissons Ratio (x) = 0.04133 -0.05161
# Poissons Ratio (y) = 0.13396 0.40626
# Poissons Ratio (z) = -0.11315 0.27479
#
# Static dielectric constant tensor:
#      x y z
#    x 1.823170 0.000000 0.000000 
#    y 0.000000 1.808650 0.000000 
#    z 0.000000 0.000000 1.832280 
# 
# From -- ./inp_files/10335.got.cif
#   From: 2010.05.17/outbox.cif.g08.bks.cpg/sg23_6_cif.got.tgz:10335.got - 2010.06.04 12:02:01.
