data_PCOD9331543
_publ_section_title
;
Structure prediction by ZEFSAII (Michael W. Deem and Ramdas Pophale) SiO2 
 PCOD9331543
Probable space group: I 2 2 2
;
_chemical_formula_sum "Si O2"
_cell_formula_units_Z 34
_cell_length_a 8.531044
_cell_length_b 8.236600
_cell_length_c 21.461537
_cell_angle_alpha 90.000000
_cell_angle_beta 90.000000
_cell_angle_gamma 90.000000
_cell_volume 1508.033464
_symmetry_space_group_name_H-M "I 2 2 2"
_symmetry_group_IT_number 23
_symmetry_cell_setting 'orthorhombic'
loop_
_space_group_symop_operation_xyz
x,y,z
-x,-y,z
x,-y,-z
-x,y,-z
1/2+x,1/2+y,1/2+z
1/2-x,1/2-y,1/2+z
1/2+x,1/2-y,1/2-z
1/2-x,1/2+y,1/2-z
loop_
_atom_site_type_symbol
_atom_site_label
_atom_site_fract_x
_atom_site_fract_y
_atom_site_fract_z
Si Si1 0.500000 0.500000 0.500000
Si Si2 0.000000 0.000000 0.587763
Si Si3 0.749456 0.316055 0.822744
Si Si4 0.000000 0.500000 0.107960
Si Si5 0.741250 0.754621 0.432903
Si Si6 0.182551 0.550038 0.689667
O O1 0.629983 0.618678 0.466213
O O2 0.880848 0.901572 0.633820
O O3 0.098969 0.857952 0.552067
O O4 0.914805 0.373378 0.848267
O O5 0.740700 0.375972 0.751661
O O6 0.752314 0.123789 0.826880
O O7 0.876094 0.404091 0.069097
O O8 0.789495 0.673439 0.366922
O O9 0.000000 0.500000 0.699514
#
# Coordination Sequence:
#
# PCOD9331543 Si02
#       6
#     2   4   8   4   8   8
#     4  12  28  52  82 108 136 202 256 328 380 438
#     4  10  22  43  74 107 146 186 234 306 360 452
#     4  11  22  37  65 106 149 187 226 272 369 441
#     4  10  22  43  72 106 138 183 226 300 358 462
#     4  11  25  47  77 103 145 187 255 308 378 424
#     4  12  24  40  67 106 149 194 234 293 352 453
#
# _framework density 22.545918
#
# number of rings (size 3 to 8) (size 9 to 14) (size 15 to 20)
#    0.000    0.941    3.529    4.235    0.000    1.412 
#    0.000    0.588    5.176    0.000    0.000    0.000 
#    0.000    0.000    0.000    0.000    0.000    0.000 
#
# Total GULP energy -94746.501910 kJ/mol
# GULP energy per Si atom -5573.323642 kJ/mol
# Density = 2.249460 g / cm^3
# Si number density = 22.545918 Si / 1000 Ang^3
#
#
#
# Elastic Constant Matrix: (Units=GPa)
#
#
# Indices 1 2 3 4 5 6 
#
# 1 134.7051 52.7554 61.0041 0.0000 0.0000 0.0000
# 2 52.7554 132.2910 44.5532 0.0000 0.0000 0.0000
# 3 61.0041 44.5532 73.6480 0.0000 0.0000 0.0000
# 4 0.0000 0.0000 0.0000 5.9939 0.0000 0.0000
# 5 0.0000 0.0000 0.0000 0.0000 117.3525 0.0000
# 6 0.0000 0.0000 0.0000 0.0000 0.0000 60.1626
#
#
#
# Elastic Compliance Matrix: (Units=1/GPa)
#
#
# Indices 1 2 3 4 5 6 
#
# 1 0.012227 -0.001840 -0.009015 0.000000 0.000000 0.000000
# 2 -0.001840 0.009770 -0.004386 0.000000 0.000000 0.000000
# 3 -0.009015 -0.004386 0.023699 0.000000 0.000000 0.000000
# 4 0.000000 0.000000 0.000000 0.166836 0.000000 0.000000
# 5 0.000000 0.000000 0.000000 0.000000 0.008521 0.000000
# 6 0.000000 0.000000 0.000000 0.000000 0.000000 0.016622
#
#
# Mechanical properties :
#
#
# Convention : Reuss Voigt Hill
#
# Bulk Modulus (GPa) = 65.73033 73.02997 69.38015
# Shear Modulus (GPa) = 18.29984 48.85723 33.57854
#
# Velocity S-wave (km/s) = 2.85207 4.66017 3.86338
# Velocity P-wave (km/s) = 6.32954 7.83697 7.12324
#
# Compressibility (1/GPa) = 0.01521368
#
# Stress axis : x y z
#
# Youngs Moduli (GPa) = 81.78900 102.35367 42.19666
#
# Poissons Ratio (x) = 0.18831 0.38038
# Poissons Ratio (y) = 0.15048 0.18509
# Poissons Ratio (z) = 0.73729 0.44896
#
# Static dielectric constant tensor:
#      x y z
#    x 1.888380 0.000000 0.000000 
#    y 0.000000 1.750930 0.000000 
#    z 0.000000 0.000000 1.993020 
# 
# From -- ./inp_files/6737.got.cif
#   From: 2010.05.17/outbox.cif.g08.bks.cpg/sg23_4_cif.got.tgz:6737.got - 2010.06.04 12:02:01.
