data_PCOD9331584
_publ_section_title
;
Structure prediction by ZEFSAII (Michael W. Deem and Ramdas Pophale) SiO2 
 PCOD9331584
Probable space group: I 2 2 2
;
_chemical_formula_sum "Si O2"
_cell_formula_units_Z 40
_cell_length_a 6.887818
_cell_length_b 16.880454
_cell_length_c 16.450505
_cell_angle_alpha 90.000000
_cell_angle_beta 90.000000
_cell_angle_gamma 90.000000
_cell_volume 1912.691907
_symmetry_space_group_name_H-M "I 2 2 2"
_symmetry_group_IT_number 23
_symmetry_cell_setting 'orthorhombic'
loop_
_space_group_symop_operation_xyz
x,y,z
-x,-y,z
x,-y,-z
-x,y,-z
1/2+x,1/2+y,1/2+z
1/2-x,1/2-y,1/2+z
1/2+x,1/2-y,1/2-z
1/2-x,1/2+y,1/2-z
loop_
_atom_site_type_symbol
_atom_site_label
_atom_site_fract_x
_atom_site_fract_y
_atom_site_fract_z
Si Si1 0.000000 0.000000 0.500000
Si Si2 0.875554 0.073182 0.340900
Si Si3 0.840778 0.569695 0.604762
Si Si4 0.996065 0.638092 0.239818
Si Si5 0.837351 0.781309 0.348114
Si Si6 0.000000 0.710901 0.500000
Si Si7 0.000000 0.000000 0.000000
O O1 0.873551 0.052059 0.437321
O O2 0.665935 0.084292 0.302252
O O3 0.997604 0.153390 0.330174
O O4 0.000000 0.000000 0.305009
O O5 0.862712 0.589838 0.699580
O O6 0.641679 0.545111 0.562393
O O7 0.000000 0.500000 0.589681
O O8 0.892431 0.651584 0.560600
O O9 0.130891 0.682965 0.175677
O O10 0.883034 0.703703 0.294195
O O11 0.858092 0.760629 0.443010
#
# Coordination Sequence:
#
# PCOD9331584 Si02
#       7
#     2   8   8   8   8   4   2
#     4   8  22  44  76  98 152 188 242 280 368 430
#     4  10  23  46  72 105 144 188 240 303 353 438
#     4  11  24  43  67 106 141 187 243 302 367 448
#     4  11  25  43  72 107 146 184 244 303 369 433
#     4  11  23  44  70 104 141 192 235 301 366 430
#     4  10  22  46  65  95 152 176 242 304 348 448
#     4  12  22  44  70  98 144 190 244 300 376 428
#
# _framework density 20.912932999999999
#
# number of rings (size 3 to 8) (size 9 to 14) (size 15 to 20)
#    0.600    0.800    4.000    0.600    2.800    3.200 
#    0.000    4.000    0.000    0.000    0.000    0.000 
#    0.000    0.000    0.000    0.000    0.000    0.000 
#
# Total GULP energy -111622.362578 kJ/mol
# GULP energy per Si atom -5581.118129 kJ/mol
# Density = 2.086533 g / cm^3
# Si number density = 20.912933 Si / 1000 Ang^3
#
#
#
# Elastic Constant Matrix: (Units=GPa)
#
#
# Indices 1 2 3 4 5 6 
#
# 1 123.3820 46.9764 77.3143 0.0000 0.0000 0.0000
# 2 46.9764 79.1639 59.3611 0.0000 0.0000 0.0000
# 3 77.3143 59.3611 141.6183 0.0000 0.0000 0.0000
# 4 0.0000 0.0000 0.0000 30.6757 0.0000 0.0000
# 5 0.0000 0.0000 0.0000 0.0000 26.6093 0.0000
# 6 0.0000 0.0000 0.0000 0.0000 0.0000 36.8705
#
#
#
# Elastic Compliance Matrix: (Units=1/GPa)
#
#
# Indices 1 2 3 4 5 6 
#
# 1 0.012943 -0.003474 -0.005610 0.000000 0.000000 0.000000
# 2 -0.003474 0.019355 -0.006216 0.000000 0.000000 0.000000
# 3 -0.005610 -0.006216 0.012729 0.000000 0.000000 0.000000
# 4 0.000000 0.000000 0.000000 0.032599 0.000000 0.000000
# 5 0.000000 0.000000 0.000000 0.000000 0.037581 0.000000
# 6 0.000000 0.000000 0.000000 0.000000 0.000000 0.027122
#
#
# Mechanical properties :
#
#
# Convention : Reuss Voigt Hill
#
# Bulk Modulus (GPa) = 69.31401 79.05197 74.18299
# Shear Modulus (GPa) = 28.13133 29.53192 28.83162
#
# Velocity S-wave (km/s) = 3.67163 3.76192 3.71705
# Velocity P-wave (km/s) = 7.15475 7.53339 7.34651
#
# Compressibility (1/GPa) = 0.01442710
#
# Stress axis : x y z
#
# Youngs Moduli (GPa) = 77.26312 51.66706 78.55801
#
# Poissons Ratio (x) = 0.17948 0.44070
# Poissons Ratio (y) = 0.26840 0.48834
# Poissons Ratio (z) = 0.43343 0.32118
#
# Static dielectric constant tensor:
#      x y z
#    x 1.721740 0.000000 0.000000 
#    y 0.000000 1.780570 0.000000 
#    z 0.000000 0.000000 1.775140 
# 
# From -- ./inp_files/23060.got.cif
#   From: 2010.05.17/outbox.cif.g08.bks.cpg/sg23_12_cif.got.tgz:23060.got - 2010.06.04 12:02:01.
