data_PCOD9331449
_publ_section_title
;
Structure prediction by ZEFSAII (Michael W. Deem and Ramdas Pophale) SiO2 
 PCOD9331449
Probable space group: I 2 2 2
;
_chemical_formula_sum "Si O2"
_cell_formula_units_Z 28
_cell_length_a 5.538171
_cell_length_b 31.877733
_cell_length_c 7.605657
_cell_angle_alpha 90.000000
_cell_angle_beta 90.000000
_cell_angle_gamma 90.000000
_cell_volume 1342.735668
_symmetry_space_group_name_H-M "I 2 2 2"
_symmetry_group_IT_number 23
_symmetry_cell_setting 'orthorhombic'
loop_
_space_group_symop_operation_xyz
x,y,z
-x,-y,z
x,-y,-z
-x,y,-z
1/2+x,1/2+y,1/2+z
1/2-x,1/2-y,1/2+z
1/2+x,1/2-y,1/2-z
1/2-x,1/2+y,1/2-z
loop_
_atom_site_type_symbol
_atom_site_label
_atom_site_fract_x
_atom_site_fract_y
_atom_site_fract_z
Si Si1 0.000000 0.768242 0.500000
Si Si2 0.758706 0.401441 0.605746
Si Si3 0.305494 0.306672 0.343508
Si Si4 0.248386 0.982855 0.299337
O O1 0.161023 0.735233 0.607672
O O2 0.109836 0.797882 0.352761
O O3 0.500000 0.403822 0.500000
O O4 0.807927 0.352880 0.654489
O O5 0.741378 0.432970 0.770720
O O6 0.000000 0.414633 0.500000
O O7 0.500000 0.308638 0.500000
O O8 0.500000 0.000000 0.223182
O O9 0.247054 0.000000 0.500000
O O10 0.000000 0.000000 0.216982
#
# Coordination Sequence:
#
# PCOD9331449 Si02
#       4
#     4   8   8   8
#     4  12  22  42  68  98 134 186 228 292 350 418
#     4  11  24  42  67  99 135 176 226 285 346 411
#     4  11  24  41  67  99 138 178 234 289 349 415
#     4  10  22  41  64  92 129 171 217 275 335 408
#
# _framework density 20.852951000000001
#
# number of rings (size 3 to 8) (size 9 to 14) (size 15 to 20)
#    0.000    1.143    4.286    1.714    0.000    5.714 
#    0.000    8.571    0.000    0.000    0.000    0.000 
#    0.000    0.000    0.000    0.000    0.000    0.000 
#
# Total GULP energy -77979.806069 kJ/mol
# GULP energy per Si atom -5569.986148 kJ/mol
# Density = 2.080549 g / cm^3
# Si number density = 20.852951 Si / 1000 Ang^3
#
#
#
# Elastic Constant Matrix: (Units=GPa)
#
#
# Indices 1 2 3 4 5 6 
#
# 1 119.9725 17.7765 23.9985 0.0000 0.0000 0.0000
# 2 17.7765 136.9160 48.5063 0.0001 0.0000 0.0000
# 3 23.9985 48.5063 133.7650 0.0001 0.0000 0.0000
# 4 0.0000 0.0001 0.0001 61.1667 0.0000 0.0000
# 5 0.0000 0.0000 0.0000 0.0000 16.3330 0.0000
# 6 0.0000 0.0000 0.0000 0.0000 0.0000 25.5953
#
#
#
# Elastic Compliance Matrix: (Units=1/GPa)
#
#
# Indices 1 2 3 4 5 6 
#
# 1 0.008697 -0.000661 -0.001321 0.000000 0.000000 0.000000
# 2 -0.000661 0.008431 -0.002938 0.000000 0.000000 0.000000
# 3 -0.001321 -0.002938 0.008778 0.000000 0.000000 0.000000
# 4 0.000000 0.000000 0.000000 0.016349 0.000000 0.000000
# 5 0.000000 0.000000 0.000000 0.000000 0.061226 0.000000
# 6 0.000000 0.000000 0.000000 0.000000 0.000000 0.039070
#
#
# Mechanical properties :
#
#
# Convention : Reuss Voigt Hill
#
# Bulk Modulus (GPa) = 62.24525 63.46844 62.85685
# Shear Modulus (GPa) = 31.69641 40.64381 36.17011
#
# Velocity S-wave (km/s) = 3.90294 4.41961 4.16929
# Velocity P-wave (km/s) = 7.08696 7.51972 7.30655
#
# Compressibility (1/GPa) = 0.01606548
#
# Stress axis : x y z
#
# Youngs Moduli (GPa) = 114.97694 118.61465 113.91757
#
# Poissons Ratio (x) = 0.07845 0.15043
# Poissons Ratio (y) = 0.07604 0.33475
# Poissons Ratio (z) = 0.15183 0.34855
#
# Static dielectric constant tensor:
#      x y z
#    x 1.748380 0.000000 0.000000 
#    y 0.000000 1.723300 0.000000 
#    z 0.000000 0.000000 1.750150 
# 
# From -- ./inp_files/614.got.cif
#   From: 2010.05.17/outbox.cif.g08.bks.cpg/sg23_1_cif.got.tgz:614.got - 2010.06.04 12:02:01.
