data_PCOD9331246
_publ_section_title
;
Structure prediction by ZEFSAII (Michael W. Deem and Ramdas Pophale) SiO2 
 PCOD9331246
Probable space group: I 2 2 2
;
_chemical_formula_sum "Si O2"
_cell_formula_units_Z 48
_cell_length_a 10.710235
_cell_length_b 11.148724
_cell_length_c 14.664844
_cell_angle_alpha 90.000000
_cell_angle_beta 90.000000
_cell_angle_gamma 90.000000
_cell_volume 1751.062356
_symmetry_space_group_name_H-M "I 2 2 2"
_symmetry_group_IT_number 23
_symmetry_cell_setting 'orthorhombic'
loop_
_space_group_symop_operation_xyz
x,y,z
-x,-y,z
x,-y,-z
-x,y,-z
1/2+x,1/2+y,1/2+z
1/2-x,1/2-y,1/2+z
1/2+x,1/2-y,1/2-z
1/2-x,1/2+y,1/2-z
loop_
_atom_site_type_symbol
_atom_site_label
_atom_site_fract_x
_atom_site_fract_y
_atom_site_fract_z
Si Si1 0.797580 0.938442 0.843042
Si Si2 0.055983 0.835156 0.896428
Si Si3 0.455275 0.129383 0.296325
Si Si4 0.668833 0.316996 0.828643
Si Si5 0.636941 0.202288 0.017369
Si Si6 0.296046 0.440550 0.904747
O O1 0.921514 0.716094 0.713044
O O2 0.743298 0.863833 0.756301
O O3 0.721671 0.891564 0.929685
O O4 0.935529 0.884438 0.843357
O O5 0.167569 0.921183 0.858140
O O6 0.049666 0.696355 0.865942
O O7 0.000000 0.848428 0.000000
O O8 0.500000 0.000000 0.264003
O O9 0.325591 0.103481 0.350164
O O10 0.630353 0.452178 0.856438
O O11 0.701874 0.256520 0.926615
O O12 0.623157 0.322870 0.077483
O O13 0.500000 0.153327 0.000000
O O14 0.254366 0.500000 0.000000
#
# Coordination Sequence:
#
# PCOD9331246 Si02
#       6
#     8   8   8   8   8   8
#     4  10  21  46  72 122 155 208 287 333 429 502
#     4  10  22  42  76 117 154 204 264 365 430 497
#     4  11  25  46  76 120 153 206 284 356 433 500
#     4  10  24  47  76 111 164 224 266 363 404 516
#     4  11  24  45  80 116 169 224 280 340 425 526
#     4  10  23  45  72 110 159 212 273 339 415 509
#
# _framework density 27.411929000000001
#
# number of rings (size 3 to 8) (size 9 to 14) (size 15 to 20)
#    0.000    1.667    3.333    1.000    2.333    9.667 
#   12.000    3.333    0.000    0.000    0.000    0.000 
#    0.000    0.000    0.000    0.000    0.000    0.000 
#
# Total GULP energy -133961.402920 kJ/mol
# GULP energy per Si atom -5581.725122 kJ/mol
# Density = 2.734954 g / cm^3
# Si number density = 27.411929 Si / 1000 Ang^3
#
#
#
# Elastic Constant Matrix: (Units=GPa)
#
#
# Indices 1 2 3 4 5 6 
#
# 1 110.7581 66.4812 45.6903 0.0000 0.0000 0.0000
# 2 66.4812 191.0130 61.9337 0.0000 0.0000 0.0000
# 3 45.6903 61.9337 145.8810 0.0000 0.0000 0.0000
# 4 0.0000 0.0000 0.0000 55.1231 0.0000 0.0000
# 5 0.0000 0.0000 0.0000 0.0000 39.8364 0.0000
# 6 0.0000 0.0000 0.0000 0.0000 0.0000 57.0341
#
#
#
# Elastic Compliance Matrix: (Units=1/GPa)
#
#
# Indices 1 2 3 4 5 6 
#
# 1 0.012050 -0.003444 -0.002312 0.000000 0.000000 0.000000
# 2 -0.003444 0.007055 -0.001917 0.000000 0.000000 0.000000
# 3 -0.002312 -0.001917 0.008393 0.000000 0.000000 0.000000
# 4 0.000000 0.000000 0.000000 0.018141 0.000000 0.000000
# 5 0.000000 0.000000 0.000000 0.000000 0.025103 0.000000
# 6 0.000000 0.000000 0.000000 0.000000 0.000000 0.017533
#
#
# Mechanical properties :
#
#
# Convention : Reuss Voigt Hill
#
# Bulk Modulus (GPa) = 82.28749 88.42918 85.35834
# Shear Modulus (GPa) = 46.43763 48.63516 47.53639
#
# Velocity S-wave (km/s) = 4.12037 4.21673 4.16883
# Velocity P-wave (km/s) = 7.26090 7.48580 7.37421
#
# Compressibility (1/GPa) = 0.01215252
#
# Stress axis : x y z
#
# Youngs Moduli (GPa) = 82.98939 141.73413 119.15188
#
# Poissons Ratio (x) = 0.48817 0.27545
# Poissons Ratio (y) = 0.28584 0.22837
# Poissons Ratio (z) = 0.19185 0.27165
#
# Static dielectric constant tensor:
#      x y z
#    x 2.216480 0.000000 0.000000 
#    y 0.000000 2.136240 0.000000 
#    z 0.000000 0.000000 2.288510 
# 
# From -- ./inp_files/20846.got.cif
#   From: 2010.05.17/outbox.cif.g08.bks.cpg/sg23_11_cif.got.tgz:20846.got - 2010.06.04 12:02:01.
