data_PCOD9331389
_publ_section_title
;
Structure prediction by ZEFSAII (Michael W. Deem and Ramdas Pophale) SiO2 
 PCOD9331389
Probable space group: I 2 2 2
;
_chemical_formula_sum "Si O2"
_cell_formula_units_Z 56
_cell_length_a 17.877933
_cell_length_b 9.779832
_cell_length_c 14.553663
_cell_angle_alpha 90.000000
_cell_angle_beta 90.000000
_cell_angle_gamma 90.000000
_cell_volume 2544.608738
_symmetry_space_group_name_H-M "I 2 2 2"
_symmetry_group_IT_number 23
_symmetry_cell_setting 'orthorhombic'
loop_
_space_group_symop_operation_xyz
x,y,z
-x,-y,z
x,-y,-z
-x,y,-z
1/2+x,1/2+y,1/2+z
1/2-x,1/2-y,1/2+z
1/2+x,1/2-y,1/2-z
1/2-x,1/2+y,1/2-z
loop_
_atom_site_type_symbol
_atom_site_label
_atom_site_fract_x
_atom_site_fract_y
_atom_site_fract_z
Si Si1 0.859270 0.349824 0.749413
Si Si2 0.933347 0.402661 0.136290
Si Si3 0.014535 0.155202 0.241378
Si Si4 0.925274 0.116302 0.420712
Si Si5 0.149898 0.354147 0.461359
Si Si6 0.286875 0.813923 0.543916
Si Si7 0.230012 0.945157 0.352747
O O1 0.891977 0.485858 0.798693
O O2 0.875418 0.353234 0.642841
O O3 0.772012 0.367595 0.771947
O O4 0.902194 0.212393 0.780314
O O5 0.964401 0.274296 0.194679
O O6 0.874061 0.338546 0.064211
O O7 0.000000 0.500000 0.099178
O O8 0.992970 0.148057 0.350825
O O9 0.000000 0.000000 0.207872
O O10 0.894376 0.245623 0.476549
O O11 0.857930 0.073861 0.353168
O O12 0.929169 0.000000 0.500000
O O13 0.133931 0.500000 0.500000
O O14 0.239476 0.324372 0.461321
O O15 0.265752 0.880288 0.445769
O O16 0.246893 0.896392 0.627784
#
# Coordination Sequence:
#
# PCOD9331389 Si02
#       7
#     8   8   8   8   8   8   8
#     4  10  22  40  61  88 122 167 212 247 316 381
#     4   9  20  41  63  86 123 164 209 250 309 386
#     4  11  24  39  58  94 127 164 209 260 313 379
#     4  11  21  40  62  89 128 167 216 258 313 380
#     4  11  22  37  57  95 126 158 203 258 328 369
#     4   9  18  38  62  91 116 152 209 259 303 364
#     4   9  18  39  65  88 115 157 218 257 286 379
#
# _framework density 22.007314000000001
#
# number of rings (size 3 to 8) (size 9 to 14) (size 15 to 20)
#    0.000    2.000    2.857    1.714    2.000    2.000 
#    7.714   12.857    0.000    0.857    0.000    0.000 
#    0.000    0.000    0.000    0.000    0.000    0.000 
#
# Total GULP energy -156102.848244 kJ/mol
# GULP energy per Si atom -5575.101723 kJ/mol
# Density = 2.195722 g / cm^3
# Si number density = 22.007314 Si / 1000 Ang^3
#
#
#
# Elastic Constant Matrix: (Units=GPa)
#
#
# Indices 1 2 3 4 5 6 
#
# 1 71.9175 17.3189 1.0939 0.0000 0.0000 0.0000
# 2 17.3189 142.5422 19.3491 0.0000 0.0000 0.0000
# 3 1.0939 19.3491 34.9869 0.0000 0.0000 0.0000
# 4 0.0000 0.0000 0.0000 14.5909 0.0000 0.0000
# 5 0.0000 0.0000 0.0000 0.0000 39.4337 0.0000
# 6 0.0000 0.0000 0.0000 0.0000 0.0000 27.1733
#
#
#
# Elastic Compliance Matrix: (Units=1/GPa)
#
#
# Indices 1 2 3 4 5 6 
#
# 1 0.014334 -0.001817 0.000557 0.000000 0.000000 0.000000
# 2 -0.001817 0.007815 -0.004265 0.000000 0.000000 0.000000
# 3 0.000557 -0.004265 0.030924 0.000000 0.000000 0.000000
# 4 0.000000 0.000000 0.000000 0.068536 0.000000 0.000000
# 5 0.000000 0.000000 0.000000 0.000000 0.025359 0.000000
# 6 0.000000 0.000000 0.000000 0.000000 0.000000 0.036801
#
#
# Mechanical properties :
#
#
# Convention : Reuss Voigt Hill
#
# Bulk Modulus (GPa) = 23.79739 36.10783 29.95261
# Shear Modulus (GPa) = 23.94327 30.35188 27.14757
#
# Velocity S-wave (km/s) = 3.30202 3.71775 3.51603
# Velocity P-wave (km/s) = 5.03732 5.90523 5.48846
#
# Compressibility (1/GPa) = 0.04202142
#
# Stress axis : x y z
#
# Youngs Moduli (GPa) = 69.76438 127.95513 32.33776
#
# Poissons Ratio (x) = 0.23252 -0.01801
# Poissons Ratio (y) = 0.12677 0.13793
# Poissons Ratio (z) = -0.03884 0.54577
#
# Static dielectric constant tensor:
#      x y z
#    x 1.917280 0.000000 0.000000 
#    y 0.000000 1.781290 0.000000 
#    z 0.000000 0.000000 1.778620 
# 
# From -- ./inp_files/22395.got.cif
#   From: 2010.05.17/outbox.cif.g08.bks.cpg/sg23_12_cif.got.tgz:22395.got - 2010.06.04 12:02:01.
