data_PCOD9331335
_publ_section_title
;
Structure prediction by ZEFSAII (Michael W. Deem and Ramdas Pophale) SiO2 
 PCOD9331335
Probable space group: I 2 2 2
;
_chemical_formula_sum "Si O2"
_cell_formula_units_Z 64
_cell_length_a 18.364420
_cell_length_b 15.025970
_cell_length_c 9.518611
_cell_angle_alpha 90.000000
_cell_angle_beta 90.000000
_cell_angle_gamma 90.000000
_cell_volume 2626.596207
_symmetry_space_group_name_H-M "I 2 2 2"
_symmetry_group_IT_number 23
_symmetry_cell_setting 'orthorhombic'
loop_
_space_group_symop_operation_xyz
x,y,z
-x,-y,z
x,-y,-z
-x,y,-z
1/2+x,1/2+y,1/2+z
1/2-x,1/2-y,1/2+z
1/2+x,1/2-y,1/2-z
1/2-x,1/2+y,1/2-z
loop_
_atom_site_type_symbol
_atom_site_label
_atom_site_fract_x
_atom_site_fract_y
_atom_site_fract_z
Si Si1 0.018227 0.708922 0.837749
Si Si2 0.714794 0.142583 0.853157
Si Si3 0.321009 0.581758 0.109366
Si Si4 0.043591 0.907065 0.813535
Si Si5 0.804175 0.160799 0.335043
Si Si6 0.429981 0.938240 0.836052
Si Si7 0.852436 0.570885 0.131799
Si Si8 0.660156 0.401537 0.543802
O O1 0.013533 0.808748 0.775973
O O2 0.095136 0.657118 0.853069
O O3 0.964806 0.642012 0.754441
O O4 0.000000 0.716298 0.000000
O O5 0.698839 0.238133 0.787516
O O6 0.638589 0.106054 0.919304
O O7 0.754995 0.091784 0.721616
O O8 0.776235 0.156121 0.972812
O O9 0.392421 0.576175 0.202101
O O10 0.330602 0.339272 0.003790
O O11 0.315345 0.500000 0.000000
O O12 0.084479 0.890737 0.962794
O O13 0.000000 0.000000 0.818132
O O14 0.726313 0.112559 0.345876
O O15 0.845881 0.111146 0.209289
O O16 0.500000 0.000000 0.872956
O O17 0.381953 0.007503 0.751048
O O18 0.856855 0.500000 0.000000
O O19 0.685564 0.500000 0.500000
#
# Coordination Sequence:
#
# PCOD9331335 Si02
#       8
#     8   8   8   8   8   8   8   8
#     4  11  24  39  67 107 143 193 248 315 376 462
#     4  11  24  44  69 106 147 188 241 311 381 448
#     4  11  24  47  73 102 138 192 250 307 376 460
#     4  11  28  50  71 103 147 197 252 315 388 465
#     4  12  24  41  75 107 142 187 242 316 371 453
#     4  10  22  38  66 103 143 190 246 300 367 452
#     4  11  20  39  68 106 145 185 246 310 380 448
#     4  11  25  44  69 102 138 184 240 299 377 443
#
# _framework density 24.366136000000001
#
# number of rings (size 3 to 8) (size 9 to 14) (size 15 to 20)
#    0.000    1.000    1.250    6.375    3.500    1.250 
#    0.000    0.625    0.000   14.625    0.000    0.000 
#    0.000    0.000    0.000    0.000    0.000    0.000 
#
# Total GULP energy -178528.572829 kJ/mol
# GULP energy per Si atom -5579.017901 kJ/mol
# Density = 2.431068 g / cm^3
# Si number density = 24.366136 Si / 1000 Ang^3
#
#
#
# Elastic Constant Matrix: (Units=GPa)
#
#
# Indices 1 2 3 4 5 6 
#
# 1 142.8921 56.4296 45.5394 0.0000 0.0000 0.0000
# 2 56.4296 160.3103 23.0138 0.0000 0.0000 0.0000
# 3 45.5394 23.0138 89.7977 0.0000 0.0000 0.0000
# 4 0.0000 0.0000 0.0000 33.1729 0.0000 0.0000
# 5 0.0000 0.0000 0.0000 0.0000 42.0233 0.0000
# 6 0.0000 0.0000 0.0000 0.0000 0.0000 39.1503
#
#
#
# Elastic Compliance Matrix: (Units=1/GPa)
#
#
# Indices 1 2 3 4 5 6 
#
# 1 0.009361 -0.002713 -0.004052 0.000000 0.000000 0.000000
# 2 -0.002713 0.007263 -0.000485 0.000000 0.000000 0.000000
# 3 -0.004052 -0.000485 0.013315 0.000000 0.000000 0.000000
# 4 0.000000 0.000000 0.000000 0.030145 0.000000 0.000000
# 5 0.000000 0.000000 0.000000 0.000000 0.023796 0.000000
# 6 0.000000 0.000000 0.000000 0.000000 0.000000 0.025543
#
#
# Mechanical properties :
#
#
# Convention : Reuss Voigt Hill
#
# Bulk Modulus (GPa) = 64.77534 71.44063 68.10799
# Shear Modulus (GPa) = 38.73846 40.73710 39.73778
#
# Velocity S-wave (km/s) = 3.99162 4.09329 4.04277
# Velocity P-wave (km/s) = 6.91996 7.19189 7.05724
#
# Compressibility (1/GPa) = 0.01543797
#
# Stress axis : x y z
#
# Youngs Moduli (GPa) = 106.82362 137.68953 75.10116
#
# Poissons Ratio (x) = 0.37362 0.30431
# Poissons Ratio (y) = 0.28986 0.03644
# Poissons Ratio (z) = 0.43285 0.06681
#
# Static dielectric constant tensor:
#      x y z
#    x 1.916710 0.000000 0.000000 
#    y 0.000000 2.005060 0.000000 
#    z 0.000000 0.000000 1.999090 
# 
# From -- ./inp_files/17587.got.cif
#   From: 2010.05.17/outbox.cif.g08.bks.cpg/sg23_9_cif.got.tgz:17587.got - 2010.06.04 12:02:01.
