data_PCOD9331235
_publ_section_title
;
Structure prediction by ZEFSAII (Michael W. Deem and Ramdas Pophale) SiO2 
 PCOD9331235
Probable space group: I 2 2 2
;
_chemical_formula_sum "Si O2"
_cell_formula_units_Z 26
_cell_length_a 6.899293
_cell_length_b 29.315945
_cell_length_c 4.853203
_cell_angle_alpha 90.000000
_cell_angle_beta 90.000000
_cell_angle_gamma 90.000000
_cell_volume 981.605413
_symmetry_space_group_name_H-M "I 2 2 2"
_symmetry_group_IT_number 23
_symmetry_cell_setting 'orthorhombic'
loop_
_space_group_symop_operation_xyz
x,y,z
-x,-y,z
x,-y,-z
-x,y,-z
1/2+x,1/2+y,1/2+z
1/2-x,1/2-y,1/2+z
1/2+x,1/2-y,1/2-z
1/2-x,1/2+y,1/2-z
loop_
_atom_site_type_symbol
_atom_site_label
_atom_site_fract_x
_atom_site_fract_y
_atom_site_fract_z
Si Si1 0.767250 0.636209 0.977744
Si Si2 0.268336 0.078857 0.977599
Si Si3 0.500000 0.500000 0.500000
Si Si4 0.790173 0.279392 0.377920
O O1 0.716236 0.593161 0.786967
O O2 0.701830 0.680436 0.809120
O O3 0.716095 0.622080 0.285692
O O4 0.000000 0.641182 0.000000
O O5 0.152070 0.035485 0.867117
O O6 0.500000 0.071356 0.000000
O O7 0.684682 0.260592 0.649826
O O8 0.000000 0.293264 0.500000
#
# Coordination Sequence:
#
# PCOD9331235 Si02
#       4
#     8   8   2   8
#     4  10  21  44  71  94 138 194 239 286 364 445
#     4  10  23  43  71 101 139 192 238 300 370 440
#     4  12  26  46  72 112 144 182 254 314 376 444
#     4  12  24  43  72 107 146 196 248 308 369 441
#
# _framework density 26.487221999999999
#
# number of rings (size 3 to 8) (size 9 to 14) (size 15 to 20)
#    0.000    1.231    0.000    7.846    0.000    3.692 
#   11.077    4.615    6.769    0.000    0.000    0.000 
#    0.000    0.000    0.000    0.000    0.000    0.000 
#
# Total GULP energy -72641.856306 kJ/mol
# GULP energy per Si atom -5587.835100 kJ/mol
# Density = 2.642694 g / cm^3
# Si number density = 26.487222 Si / 1000 Ang^3
#
#
#
# Elastic Constant Matrix: (Units=GPa)
#
#
# Indices 1 2 3 4 5 6 
#
# 1 135.9257 38.3722 24.6299 -0.0152 -0.0005 -0.0015
# 2 38.3722 138.9934 55.0701 0.0148 0.0012 -0.0008
# 3 24.6299 55.0701 185.1179 0.0159 -0.0179 0.0002
# 4 -0.0152 0.0148 0.0159 6.4393 -0.0011 0.0043
# 5 -0.0005 0.0012 -0.0179 -0.0011 16.0216 -0.0012
# 6 -0.0015 -0.0008 0.0002 0.0043 -0.0012 34.5623
#
#
#
# Elastic Compliance Matrix: (Units=1/GPa)
#
#
# Indices 1 2 3 4 5 6 
#
# 1 0.008014 -0.002029 -0.000463 0.000025 0.000000 0.000000
# 2 -0.002029 0.008670 -0.002309 -0.000019 -0.000003 0.000000
# 3 -0.000463 -0.002309 0.006150 -0.000011 0.000007 0.000000
# 4 0.000025 -0.000019 -0.000011 0.155296 0.000011 -0.000020
# 5 0.000000 -0.000003 0.000007 0.000011 0.062416 0.000002
# 6 0.000000 0.000000 0.000000 -0.000020 0.000002 0.028933
#
#
# Mechanical properties :
#
#
# Convention : Reuss Voigt Hill
#
# Bulk Modulus (GPa) = 75.57363 77.35348 76.46356
# Shear Modulus (GPa) = 17.63724 34.20229 25.91976
#
# Velocity S-wave (km/s) = 2.58326 3.59733 3.13161
# Velocity P-wave (km/s) = 6.12305 6.82069 6.48126
#
# Compressibility (1/GPa) = 0.01323213
#
# Stress axis : x y z
#
# Youngs Moduli (GPa) = 124.78794 115.34491 162.58978
#
# Poissons Ratio (x) = 0.23404 0.07521
# Poissons Ratio (y) = 0.25320 0.37544
# Poissons Ratio (z) = 0.05773 0.26635
#
# Static dielectric constant tensor:
#      x y z
#    x 2.193450 0.000010 -0.000010 
#    y 0.000010 2.090250 -0.000010 
#    z -0.000010 -0.000010 1.963230 
# 
# From -- ./inp_files/537.got.cif
#   From: 2010.05.17/outbox.cif.g08.bks.cpg/sg23_1_cif.got.tgz:537.got - 2010.06.04 12:02:01.
