data_PCOD9331979
_publ_section_title
;
Structure prediction by ZEFSAII (Michael W. Deem and Ramdas Pophale) SiO2 
 PCOD9331979
Probable space group: I 2 2 2
;
_chemical_formula_sum "Si O2"
_cell_formula_units_Z 38
_cell_length_a 9.135976
_cell_length_b 11.972424
_cell_length_c 15.807328
_cell_angle_alpha 90.000000
_cell_angle_beta 90.000000
_cell_angle_gamma 90.000000
_cell_volume 1729.002033
_symmetry_space_group_name_H-M "I 2 2 2"
_symmetry_group_IT_number 23
_symmetry_cell_setting 'orthorhombic'
loop_
_space_group_symop_operation_xyz
x,y,z
-x,-y,z
x,-y,-z
-x,y,-z
1/2+x,1/2+y,1/2+z
1/2-x,1/2-y,1/2+z
1/2+x,1/2-y,1/2-z
1/2-x,1/2+y,1/2-z
loop_
_atom_site_type_symbol
_atom_site_label
_atom_site_fract_x
_atom_site_fract_y
_atom_site_fract_z
Si Si1 0.983269 0.369490 0.320952
Si Si2 0.000000 0.500000 0.000000
Si Si3 0.771151 0.334198 0.914272
Si Si4 0.000000 0.747281 0.500000
Si Si5 0.509489 0.630019 0.601059
Si Si6 0.286216 0.713807 0.738233
O O1 0.987444 0.330566 0.417856
O O2 0.117653 0.301664 0.281578
O O3 0.000000 0.500000 0.316119
O O4 0.843803 0.334183 0.266286
O O5 0.894365 0.421268 0.943466
O O6 0.853885 0.216389 0.893517
O O7 0.690548 0.359316 0.824620
O O8 0.648639 0.319110 0.987499
O O9 0.500000 0.500000 0.628887
O O10 0.500000 0.625547 0.500000
O O11 0.377185 0.681667 0.655099
#
# Coordination Sequence:
#
# PCOD9331979 Si02
#       6
#     8   2   8   4   8   8
#     4  11  25  45  73 105 150 192 242 317 378 439
#     4  12  28  50  78 100 156 208 252 298 404 466
#     4  11  25  50  73 110 147 203 246 314 372 466
#     4  10  25  47  72 110 144 184 264 306 374 446
#     4  11  24  46  74 102 143 191 250 313 376 439
#     4  11  25  44  68 109 146 187 255 300 371 460
#
# _framework density 21.977996000000001
#
# number of rings (size 3 to 8) (size 9 to 14) (size 15 to 20)
#    0.000    1.053    3.158    1.579    7.368    0.421 
#    7.579    0.000    0.000    0.000    0.000    0.000 
#    0.000    0.000    0.000    0.000    0.000    0.000 
#
# Total GULP energy -105889.736876 kJ/mol
# GULP energy per Si atom -5573.144046 kJ/mol
# Density = 2.192797 g / cm^3
# Si number density = 21.977996 Si / 1000 Ang^3
#
#
#
# Elastic Constant Matrix: (Units=GPa)
#
#
# Indices 1 2 3 4 5 6 
#
# 1 109.9218 58.6333 9.1930 0.0000 0.0000 0.0000
# 2 58.6333 108.8568 42.4334 0.0000 0.0000 0.0000
# 3 9.1930 42.4334 77.2587 0.0000 0.0000 0.0000
# 4 0.0000 0.0000 0.0000 -34.3445 0.0000 0.0000
# 5 0.0000 0.0000 0.0000 0.0000 43.9795 0.0000
# 6 0.0000 0.0000 0.0000 0.0000 0.0000 12.8790
#
#
#
# Elastic Compliance Matrix: (Units=1/GPa)
#
#
# Indices 1 2 3 4 5 6 
#
# 1 0.013286 -0.008322 0.002990 0.000000 0.000000 0.000000
# 2 -0.008322 0.016901 -0.008293 0.000000 0.000000 0.000000
# 3 0.002990 -0.008293 0.017142 0.000000 0.000000 0.000000
# 4 0.000000 0.000000 0.000000 -0.029117 0.000000 0.000000
# 5 0.000000 0.000000 0.000000 0.000000 0.022738 0.000000
# 6 0.000000 0.000000 0.000000 0.000000 0.000000 0.077646
#
#
# Mechanical properties :
#
#
# Convention : Reuss Voigt Hill
#
# Bulk Modulus (GPa) = 49.79944 57.39522 53.59733
# Shear Modulus (GPa) = 32.77832 16.88796 24.83314
#
# Velocity S-wave (km/s) = 3.86607 2.77502 3.36506
# Velocity P-wave (km/s) = 6.52968 6.03649 6.28792
#
# Compressibility (1/GPa) = 0.02008055
#
# Stress axis : x y z
#
# Youngs Moduli (GPa) = 75.26586 59.16728 58.33495
#
# Poissons Ratio (x) = 0.49237 -0.17440
# Poissons Ratio (y) = 0.62634 0.48375
# Poissons Ratio (z) = -0.22502 0.49065
#
# Static dielectric constant tensor:
#      x y z
#    x 1.835730 0.000000 0.000000 
#    y 0.000000 1.833240 0.000000 
#    z 0.000000 0.000000 1.889540 
# 
# From -- ./inp_files/23571.got.cif
#   From: 2010.05.17/outbox.cif.g08.bks.cpg/sg23_12_cif.got.tgz:23571.got - 2010.06.04 12:02:01.
