data_PCOD9331561
_publ_section_title
;
Structure prediction by ZEFSAII (Michael W. Deem and Ramdas Pophale) SiO2 
 PCOD9331561
Probable space group: I 2 2 2
;
_chemical_formula_sum "Si O2"
_cell_formula_units_Z 48
_cell_length_a 9.647320
_cell_length_b 8.609326
_cell_length_c 25.515315
_cell_angle_alpha 90.000000
_cell_angle_beta 90.000000
_cell_angle_gamma 90.000000
_cell_volume 2119.223551
_symmetry_space_group_name_H-M "I 2 2 2"
_symmetry_group_IT_number 23
_symmetry_cell_setting 'orthorhombic'
loop_
_space_group_symop_operation_xyz
x,y,z
-x,-y,z
x,-y,-z
-x,y,-z
1/2+x,1/2+y,1/2+z
1/2-x,1/2-y,1/2+z
1/2+x,1/2-y,1/2-z
1/2-x,1/2+y,1/2-z
loop_
_atom_site_type_symbol
_atom_site_label
_atom_site_fract_x
_atom_site_fract_y
_atom_site_fract_z
Si Si1 0.145800 0.932059 0.916539
Si Si2 0.798653 0.369919 0.964547
Si Si3 0.131538 0.341413 0.459669
Si Si4 0.360482 0.566854 0.117146
Si Si5 0.353000 0.573128 0.295093
Si Si6 0.157960 0.551756 0.793896
O O1 0.130080 0.746434 0.924107
O O2 0.159489 0.973968 0.855755
O O3 0.286221 0.003416 0.941941
O O4 0.000000 0.000000 0.936884
O O5 0.678208 0.457864 0.932627
O O6 0.867683 0.500000 0.000000
O O7 0.744102 0.253506 0.008123
O O8 0.109372 0.236874 0.407284
O O9 0.000000 0.345886 0.500000
O O10 0.500000 0.500000 0.141822
O O11 0.238201 0.536310 0.158453
O O12 0.500000 0.500000 0.276964
O O13 0.234168 0.503412 0.258767
O O14 0.341482 0.760487 0.295041
O O15 0.000000 0.500000 0.794949
#
# Coordination Sequence:
#
# PCOD9331561 Si02
#       6
#     8   8   8   8   8   8
#     4  11  26  48  74 111 157 201 258 324 396 464
#     4  10  22  44  69 103 144 199 248 313 369 456
#     4  11  24  43  73 107 151 205 259 316 379 459
#     4  11  23  44  75 109 153 196 258 315 388 458
#     4  11  26  51  79 111 159 200 257 332 401 485
#     4  12  27  48  80 115 151 202 264 328 407 482
#
# _framework density 22.649806000000002
#
# number of rings (size 3 to 8) (size 9 to 14) (size 15 to 20)
#    0.000    1.000    3.333    2.000    7.000    2.667 
#    3.000    6.667    0.000    0.000    0.000    0.000 
#    0.000    0.000    0.000    0.000    0.000    0.000 
#
# Total GULP energy -133928.442602 kJ/mol
# GULP energy per Si atom -5580.351775 kJ/mol
# Density = 2.259825 g / cm^3
# Si number density = 22.649806 Si / 1000 Ang^3
#
#
#
# Elastic Constant Matrix: (Units=GPa)
#
#
# Indices 1 2 3 4 5 6 
#
# 1 164.0147 53.3923 56.8564 0.0000 0.0000 0.0000
# 2 53.3923 133.4600 27.0905 0.0000 0.0000 0.0000
# 3 56.8564 27.0905 112.6327 0.0000 0.0000 0.0000
# 4 0.0000 0.0000 0.0000 29.3792 0.0000 0.0000
# 5 0.0000 0.0000 0.0000 0.0000 65.4323 0.0000
# 6 0.0000 0.0000 0.0000 0.0000 0.0000 16.8322
#
#
#
# Elastic Compliance Matrix: (Units=1/GPa)
#
#
# Indices 1 2 3 4 5 6 
#
# 1 0.008138 -0.002546 -0.003495 0.000000 0.000000 0.000000
# 2 -0.002546 0.008674 -0.000801 0.000000 0.000000 0.000000
# 3 -0.003495 -0.000801 0.010836 0.000000 0.000000 0.000000
# 4 0.000000 0.000000 0.000000 0.034038 0.000000 0.000000
# 5 0.000000 0.000000 0.000000 0.000000 0.015283 0.000000
# 6 0.000000 0.000000 0.000000 0.000000 0.000000 0.059410
#
#
# Mechanical properties :
#
#
# Convention : Reuss Voigt Hill
#
# Bulk Modulus (GPa) = 71.62224 76.08732 73.85478
# Shear Modulus (GPa) = 32.31712 40.51329 36.41521
#
# Velocity S-wave (km/s) = 3.78142 4.23387 4.01402
# Velocity P-wave (km/s) = 7.12431 7.58727 7.35943
#
# Compressibility (1/GPa) = 0.01396214
#
# Stress axis : x y z
#
# Youngs Moduli (GPa) = 122.88746 115.28643 92.28870
#
# Poissons Ratio (x) = 0.29352 0.32259
# Poissons Ratio (y) = 0.31287 0.07393
# Poissons Ratio (z) = 0.42954 0.09235
#
# Static dielectric constant tensor:
#      x y z
#    x 1.848810 0.000000 0.000000 
#    y 0.000000 1.899650 0.000000 
#    z 0.000000 0.000000 1.875580 
# 
# From -- ./inp_files/30245.got.cif
#   From: 2010.05.17/outbox.cif.g08.bks.cpg/sg23_16_cif.got.tgz:30245.got - 2010.06.04 12:02:01.
