data_PCOD9331838
_publ_section_title
;
Structure prediction by ZEFSAII (Michael W. Deem and Ramdas Pophale) SiO2 
 PCOD9331838
Probable space group: I 2 2 2
;
_chemical_formula_sum "Si O2"
_cell_formula_units_Z 60
_cell_length_a 5.116471
_cell_length_b 21.010576
_cell_length_c 25.964868
_cell_angle_alpha 90.000000
_cell_angle_beta 90.000000
_cell_angle_gamma 90.000000
_cell_volume 2791.223383
_symmetry_space_group_name_H-M "I 2 2 2"
_symmetry_group_IT_number 23
_symmetry_cell_setting 'orthorhombic'
loop_
_space_group_symop_operation_xyz
x,y,z
-x,-y,z
x,-y,-z
-x,y,-z
1/2+x,1/2+y,1/2+z
1/2-x,1/2-y,1/2+z
1/2+x,1/2-y,1/2-z
1/2-x,1/2+y,1/2-z
loop_
_atom_site_type_symbol
_atom_site_label
_atom_site_fract_x
_atom_site_fract_y
_atom_site_fract_z
Si Si1 0.080678 0.635076 0.397021
Si Si2 0.072775 0.926036 0.058473
Si Si3 0.037421 0.231938 0.217594
Si Si4 0.698765 0.110314 0.207540
Si Si5 0.993059 0.777324 0.438633
Si Si6 0.483674 0.820401 0.381837
Si Si7 0.500000 0.500000 0.262400
Si Si8 0.390837 0.929651 0.693807
O O1 0.870642 0.591153 0.427895
O O2 0.993348 0.629960 0.337944
O O3 0.374994 0.612237 0.405202
O O4 0.052135 0.706107 0.418654
O O5 0.000000 0.000000 0.063585
O O6 0.000000 0.907044 0.000000
O O7 0.811214 0.263253 0.253140
O O8 0.930533 0.161260 0.208536
O O9 0.051533 0.269925 0.164443
O O10 0.563325 0.105787 0.263074
O O11 0.800528 0.037974 0.201778
O O12 0.209672 0.822720 0.411924
O O13 0.000000 0.779617 0.500000
O O14 0.706168 0.795152 0.419472
O O15 0.592177 0.884758 0.355404
O O16 0.626138 0.447551 0.224293
O O17 0.500000 0.000000 0.681988
#
# Coordination Sequence:
#
# PCOD9331838 Si02
#       8
#     8   8   8   8   8   8   4   8
#     4  12  26  42  68  95 134 180 228 283 358 406
#     4  11  25  44  64  87 121 175 241 299 344 400
#     4  12  24  40  68 102 144 179 227 282 332 425
#     4  11  25  39  63 101 138 184 227 271 340 412
#     4  12  27  47  72 103 137 180 241 308 360 418
#     4  12  25  45  74 103 140 188 230 286 368 419
#     4  10  24  42  66  96 154 186 228 276 332 418
#     4  10  24  43  70 104 144 185 227 274 340 435
#
# _framework density 21.495953
#
# number of rings (size 3 to 8) (size 9 to 14) (size 15 to 20)
#    0.000    0.667    2.667    4.400    6.533    3.200 
#    0.000    0.000    0.000    2.400    0.000    0.000 
#    0.000    0.000    0.000    0.000    0.000    0.000 
#
# Total GULP energy -168016.416697 kJ/mol
# GULP energy per Si atom -5600.547223 kJ/mol
# Density = 2.144703 g / cm^3
# Si number density = 21.495953 Si / 1000 Ang^3
#
#
#
# Elastic Constant Matrix: (Units=GPa)
#
#
# Indices 1 2 3 4 5 6 
#
# 1 69.9134 7.7589 12.7058 0.0000 0.0000 0.0000
# 2 7.7589 75.9652 33.2101 0.0000 0.0000 0.0000
# 3 12.7058 33.2101 114.6372 0.0000 0.0000 0.0000
# 4 0.0000 0.0000 0.0000 17.5514 0.0000 0.0000
# 5 0.0000 0.0000 0.0000 0.0000 31.1575 0.0000
# 6 0.0000 0.0000 0.0000 0.0000 0.0000 34.5564
#
#
#
# Elastic Compliance Matrix: (Units=1/GPa)
#
#
# Indices 1 2 3 4 5 6 
#
# 1 0.014651 -0.000901 -0.001363 0.000000 0.000000 0.000000
# 2 -0.000901 0.015128 -0.004283 0.000000 0.000000 0.000000
# 3 -0.001363 -0.004283 0.010115 0.000000 0.000000 0.000000
# 4 0.000000 0.000000 0.000000 0.056976 0.000000 0.000000
# 5 0.000000 0.000000 0.000000 0.000000 0.032095 0.000000
# 6 0.000000 0.000000 0.000000 0.000000 0.000000 0.028938
#
#
# Mechanical properties :
#
#
# Convention : Reuss Voigt Hill
#
# Bulk Modulus (GPa) = 37.31122 40.87393 39.09258
# Shear Modulus (GPa) = 27.78865 30.44245 29.11555
#
# Velocity S-wave (km/s) = 3.59937 3.76732 3.68430
# Velocity P-wave (km/s) = 5.88803 6.16276 6.02696
#
# Compressibility (1/GPa) = 0.02680159
#
# Stress axis : x y z
#
# Youngs Moduli (GPa) = 68.25445 66.10157 98.86353
#
# Poissons Ratio (x) = 0.05953 0.13475
# Poissons Ratio (y) = 0.06147 0.42341
# Poissons Ratio (z) = 0.09303 0.28310
#
# Static dielectric constant tensor:
#      x y z
#    x 1.805660 0.000000 0.000000 
#    y 0.000000 1.824390 0.000000 
#    z 0.000000 0.000000 1.762110 
# 
# From -- ./inp_files/27717.got.cif
#   From: 2010.05.17/outbox.cif.g08.bks.cpg/sg23_14_cif.got.tgz:27717.got - 2010.06.04 12:02:01.
