data_PCOD9331639
_publ_section_title
;
Structure prediction by ZEFSAII (Michael W. Deem and Ramdas Pophale) SiO2 
 PCOD9331639
Probable space group: I 2 2 2
;
_chemical_formula_sum "Si O2"
_cell_formula_units_Z 42
_cell_length_a 10.305434
_cell_length_b 18.761475
_cell_length_c 9.080309
_cell_angle_alpha 90.000000
_cell_angle_beta 90.000000
_cell_angle_gamma 90.000000
_cell_volume 1755.633636
_symmetry_space_group_name_H-M "I 2 2 2"
_symmetry_group_IT_number 23
_symmetry_cell_setting 'orthorhombic'
loop_
_space_group_symop_operation_xyz
x,y,z
-x,-y,z
x,-y,-z
-x,y,-z
1/2+x,1/2+y,1/2+z
1/2-x,1/2-y,1/2+z
1/2+x,1/2-y,1/2-z
1/2-x,1/2+y,1/2-z
loop_
_atom_site_type_symbol
_atom_site_label
_atom_site_fract_x
_atom_site_fract_y
_atom_site_fract_z
Si Si1 0.370856 0.863198 0.657243
Si Si2 0.000000 0.000000 0.000000
Si Si3 0.865139 0.184230 0.452194
Si Si4 0.173701 0.500000 0.000000
Si Si5 0.000000 0.240116 0.000000
Si Si6 0.801238 0.920469 0.779822
Si Si7 0.777585 0.339212 0.470707
O O1 0.249714 0.839682 0.557264
O O2 0.402800 0.939108 0.588565
O O3 0.472180 0.798150 0.631888
O O4 0.315123 0.874782 0.818201
O O5 0.092132 0.043421 0.886129
O O6 0.844214 0.155533 0.288915
O O7 0.862167 0.268223 0.470658
O O8 0.000000 0.151523 0.500000
O O9 0.258671 0.465075 0.135609
O O10 0.127573 0.191517 0.029897
O O11 0.694800 0.893317 0.896488
#
# Coordination Sequence:
#
# PCOD9331639 Si02
#       7
#     8   2   8   4   4   8   8
#     4  10  23  41  69  94 135 183 225 279 345 419
#     4  12  26  38  68 100 140 186 232 294 340 424
#     4  10  23  39  65  98 135 177 222 287 357 414
#     4  10  24  46  62  92 134 188 237 269 352 426
#     4  10  23  43  68 101 141 172 228 294 360 408
#     4  11  25  41  63 101 138 182 234 292 348 419
#     4  11  23  42  68 106 133 176 231 301 349 409
#
# _framework density 23.922988
#
# number of rings (size 3 to 8) (size 9 to 14) (size 15 to 20)
#    0.000    1.524    0.000    4.000   13.333    0.381 
#    0.000    0.000    0.000    0.000    0.000    0.000 
#    0.000    0.000    0.000    0.000    0.000    0.000 
#
# Total GULP energy -117179.043487 kJ/mol
# GULP energy per Si atom -5579.954452 kJ/mol
# Density = 2.386854 g / cm^3
# Si number density = 23.922988 Si / 1000 Ang^3
#
#
#
# Elastic Constant Matrix: (Units=GPa)
#
#
# Indices 1 2 3 4 5 6 
#
# 1 57.4078 8.1006 25.5525 0.0000 0.0000 0.0002
# 2 8.1006 105.2333 59.7562 0.0000 0.0000 0.0000
# 3 25.5525 59.7562 199.5468 0.0000 0.0000 -0.0003
# 4 0.0000 0.0000 0.0000 35.2389 0.0000 -0.0001
# 5 0.0000 0.0000 0.0000 0.0000 26.3356 -0.0003
# 6 0.0002 0.0000 -0.0003 -0.0001 -0.0003 123.2317
#
#
#
# Elastic Compliance Matrix: (Units=1/GPa)
#
#
# Indices 1 2 3 4 5 6 
#
# 1 0.018473 -0.000095 -0.002337 0.000000 0.000000 0.000000
# 2 -0.000095 0.011450 -0.003417 0.000000 0.000000 0.000000
# 3 -0.002337 -0.003417 0.006334 0.000000 0.000000 0.000000
# 4 0.000000 0.000000 0.000000 0.028378 0.000000 0.000000
# 5 0.000000 0.000000 0.000000 0.000000 0.037971 0.000000
# 6 0.000000 0.000000 0.000000 0.000000 0.000000 0.008115
#
#
# Mechanical properties :
#
#
# Convention : Reuss Voigt Hill
#
# Bulk Modulus (GPa) = 40.71753 61.00072 50.85913
# Shear Modulus (GPa) = 38.28348 54.87982 46.58165
#
# Velocity S-wave (km/s) = 4.00469 4.79479 4.41744
# Velocity P-wave (km/s) = 6.20005 7.49716 6.87925
#
# Compressibility (1/GPa) = 0.02455944
#
# Stress axis : x y z
#
# Youngs Moduli (GPa) = 54.13342 87.33505 157.88342
#
# Poissons Ratio (x) = 0.00829 0.36899
# Poissons Ratio (y) = 0.00514 0.53944
# Poissons Ratio (z) = 0.12651 0.29840
#
# Static dielectric constant tensor:
#      x y z
#    x 1.949190 0.000000 0.000000 
#    y 0.000000 2.457460 0.000000 
#    z 0.000000 0.000000 1.297680 
# 
# From -- ./inp_files/8538.got.cif
#   From: 2010.05.17/outbox.cif.g08.bks.cpg/sg23_5_cif.got.tgz:8538.got - 2010.06.04 12:02:01.
