data_PCOD9331876
_publ_section_title
;
Structure prediction by ZEFSAII (Michael W. Deem and Ramdas Pophale) SiO2 
 PCOD9331876
Probable space group: I 2 2 2
;
_chemical_formula_sum "Si O2"
_cell_formula_units_Z 60
_cell_length_a 12.619875
_cell_length_b 18.841939
_cell_length_c 12.028949
_cell_angle_alpha 90.000000
_cell_angle_beta 90.000000
_cell_angle_gamma 90.000000
_cell_volume 2860.278557
_symmetry_space_group_name_H-M "I 2 2 2"
_symmetry_group_IT_number 23
_symmetry_cell_setting 'orthorhombic'
loop_
_space_group_symop_operation_xyz
x,y,z
-x,-y,z
x,-y,-z
-x,y,-z
1/2+x,1/2+y,1/2+z
1/2-x,1/2-y,1/2+z
1/2+x,1/2-y,1/2-z
1/2-x,1/2+y,1/2-z
loop_
_atom_site_type_symbol
_atom_site_label
_atom_site_fract_x
_atom_site_fract_y
_atom_site_fract_z
Si Si1 0.118995 0.517145 0.629946
Si Si2 0.371669 0.710724 0.206179
Si Si3 0.500000 0.669688 0.000000
Si Si4 0.824216 0.910219 0.641764
Si Si5 0.889079 0.216306 0.963093
Si Si6 0.246914 0.154275 0.859620
Si Si7 0.735205 0.440799 0.195681
Si Si8 0.876739 0.380977 0.002494
O O1 0.123105 0.500000 0.500000
O O2 0.156385 0.598621 0.641636
O O3 0.203333 0.469974 0.697096
O O4 0.000000 0.500000 0.669970
O O5 0.401371 0.727377 0.332136
O O6 0.283375 0.768365 0.177892
O O7 0.330808 0.630215 0.211613
O O8 0.454990 0.713632 0.104840
O O9 0.403906 0.624135 0.946864
O O10 0.832685 0.874827 0.764000
O O11 0.702559 0.898025 0.599997
O O12 0.836641 0.994367 0.652788
O O13 0.800720 0.165769 0.017317
O O14 0.874461 0.295435 0.013063
O O15 0.000000 0.184747 0.000000
O O16 0.822484 0.420900 0.104312
O O17 0.000000 0.401604 0.000000
#
# Coordination Sequence:
#
# PCOD9331876 Si02
#       8
#     8   8   4   8   8   8   8   8
#     4  10  24  44  67 100 138 183 230 285 352 421
#     4  12  25  43  68  99 138 181 229 286 349 415
#     4  12  26  45  66 104 139 182 228 292 361 426
#     4  11  24  44  67 101 142 177 230 291 356 418
#     4  11  23  43  68  98 136 183 230 284 345 418
#     4  11  23  45  68  97 142 180 234 289 339 426
#     4  11  24  41  68  98 133 186 225 288 351 418
#     4  11  23  40  67 101 136 177 231 288 353 417
#
# _framework density 20.976977999999999
#
# number of rings (size 3 to 8) (size 9 to 14) (size 15 to 20)
#    0.000    0.933    4.000    2.000    3.733    2.667 
#    2.400    0.000    0.000    5.200    0.000    0.000 
#    0.000    0.000    0.000    0.000    0.000    0.000 
#
# Total GULP energy -167521.101388 kJ/mol
# GULP energy per Si atom -5584.036713 kJ/mol
# Density = 2.092923 g / cm^3
# Si number density = 20.976978 Si / 1000 Ang^3
#
#
#
# Elastic Constant Matrix: (Units=GPa)
#
#
# Indices 1 2 3 4 5 6 
#
# 1 34.9836 19.7512 24.9247 0.0000 0.0000 0.0000
# 2 19.7512 90.5022 9.9453 0.0000 0.0000 0.0000
# 3 24.9247 9.9453 120.7396 0.0000 0.0000 0.0000
# 4 0.0000 0.0000 0.0000 29.1821 0.0000 0.0000
# 5 0.0000 0.0000 0.0000 0.0000 26.2761 0.0000
# 6 0.0000 0.0000 0.0000 0.0000 0.0000 16.0165
#
#
#
# Elastic Compliance Matrix: (Units=1/GPa)
#
#
# Indices 1 2 3 4 5 6 
#
# 1 0.037957 -0.007490 -0.007219 0.000000 0.000000 0.000000
# 2 -0.007490 0.012629 0.000506 0.000000 0.000000 0.000000
# 3 -0.007219 0.000506 0.009731 0.000000 0.000000 0.000000
# 4 0.000000 0.000000 0.000000 0.034268 0.000000 0.000000
# 5 0.000000 0.000000 0.000000 0.000000 0.038057 0.000000
# 6 0.000000 0.000000 0.000000 0.000000 0.000000 0.062436
#
#
# Mechanical properties :
#
#
# Convention : Reuss Voigt Hill
#
# Bulk Modulus (GPa) = 31.33791 39.49641 35.41716
# Shear Modulus (GPa) = 21.35663 27.06855 24.21259
#
# Velocity S-wave (km/s) = 3.19423 3.59610 3.40111
# Velocity P-wave (km/s) = 5.34563 6.00932 5.68716
#
# Compressibility (1/GPa) = 0.03191024
#
# Stress axis : x y z
#
# Youngs Moduli (GPa) = 26.34575 79.18562 102.76693
#
# Poissons Ratio (x) = 0.59313 0.74183
# Poissons Ratio (y) = 0.19734 -0.05201
# Poissons Ratio (z) = 0.19018 -0.04007
#
# Static dielectric constant tensor:
#      x y z
#    x 1.749260 0.000000 0.000000 
#    y 0.000000 1.735030 0.000000 
#    z 0.000000 0.000000 1.804440 
# 
# From -- ./inp_files/15982.got.cif
#   From: 2010.05.17/outbox.cif.g08.bks.cpg/sg23_8_cif.got.tgz:15982.got - 2010.06.04 12:02:01.
