data_PCOD9331942
_publ_section_title
;
Structure prediction by ZEFSAII (Michael W. Deem and Ramdas Pophale) SiO2 
 PCOD9331942
Probable space group: I 2 2 2
;
_chemical_formula_sum "Si O2"
_cell_formula_units_Z 44
_cell_length_a 17.950494
_cell_length_b 13.729800
_cell_length_c 8.891368
_cell_angle_alpha 90.000000
_cell_angle_beta 90.000000
_cell_angle_gamma 90.000000
_cell_volume 2191.337149
_symmetry_space_group_name_H-M "I 2 2 2"
_symmetry_group_IT_number 23
_symmetry_cell_setting 'orthorhombic'
loop_
_space_group_symop_operation_xyz
x,y,z
-x,-y,z
x,-y,-z
-x,y,-z
1/2+x,1/2+y,1/2+z
1/2-x,1/2-y,1/2+z
1/2+x,1/2-y,1/2-z
1/2-x,1/2+y,1/2-z
loop_
_atom_site_type_symbol
_atom_site_label
_atom_site_fract_x
_atom_site_fract_y
_atom_site_fract_z
Si Si1 0.328667 0.288067 0.143659
Si Si2 0.292332 0.000000 0.000000
Si Si3 0.042577 0.751637 0.860964
Si Si4 0.304051 0.305504 0.497538
Si Si5 0.581321 0.133176 0.064506
Si Si6 0.536415 0.604529 0.151677
O O1 0.314771 0.282203 0.321615
O O2 0.375734 0.387259 0.125703
O O3 0.250035 0.277375 0.063644
O O4 0.379651 0.204020 0.062267
O O5 0.237445 0.908723 0.969630
O O6 0.355818 0.948333 0.104224
O O7 0.065122 0.686593 0.720391
O O8 0.986102 0.831051 0.792939
O O9 0.117031 0.802185 0.921140
O O10 0.000000 0.701680 0.000000
O O11 0.500000 0.104191 0.000000
O O12 0.500000 0.500000 0.170329
O O13 0.500000 0.646740 0.000000
#
# Coordination Sequence:
#
# PCOD9331942 Si02
#       6
#     8   4   8   8   8   8
#     4  11  21  42  63  90 130 168 215 266 325 393
#     4  10  25  38  61  94 126 168 214 266 317 386
#     4  12  22  40  69  96 127 171 218 270 325 400
#     4  11  24  38  63  94 127 170 213 265 333 387
#     4  11  20  43  69  91 123 168 223 267 328 385
#     4  11  23  40  64  95 127 168 213 270 327 381
#
# _framework density 20.079063999999999
#
# number of rings (size 3 to 8) (size 9 to 14) (size 15 to 20)
#    0.000    0.909    5.455    2.455    2.545    0.364 
#    0.000    0.000    0.000   30.545    0.000    0.000 
#    0.000    0.000    0.000    0.000    0.000    0.000 
#
# Total GULP energy -122486.209376 kJ/mol
# GULP energy per Si atom -5567.554972 kJ/mol
# Density = 2.003336 g / cm^3
# Si number density = 20.079064 Si / 1000 Ang^3
#
#
#
# Elastic Constant Matrix: (Units=GPa)
#
#
# Indices 1 2 3 4 5 6 
#
# 1 128.3474 38.5115 43.6034 0.0000 0.0000 0.0000
# 2 38.5115 69.8096 42.5870 0.0000 0.0000 0.0000
# 3 43.6034 42.5870 132.8617 0.0000 0.0000 0.0000
# 4 0.0000 0.0000 0.0000 1.5238 0.0000 0.0000
# 5 0.0000 0.0000 0.0000 0.0000 41.6738 0.0000
# 6 0.0000 0.0000 0.0000 0.0000 0.0000 17.4128
#
#
#
# Elastic Compliance Matrix: (Units=1/GPa)
#
#
# Indices 1 2 3 4 5 6 
#
# 1 0.009679 -0.004229 -0.001821 0.000000 0.000000 0.000000
# 2 -0.004229 0.019654 -0.004912 0.000000 0.000000 0.000000
# 3 -0.001821 -0.004912 0.009699 0.000000 0.000000 0.000000
# 4 0.000000 0.000000 0.000000 0.656244 0.000000 0.000000
# 5 0.000000 0.000000 0.000000 0.000000 0.023996 0.000000
# 6 0.000000 0.000000 0.000000 0.000000 0.000000 0.057429
#
#
# Mechanical properties :
#
#
# Convention : Reuss Voigt Hill
#
# Bulk Modulus (GPa) = 58.45132 64.49139 61.47136
# Shear Modulus (GPa) = 6.21638 25.87652 16.04645
#
# Velocity S-wave (km/s) = 1.76144 3.59379 2.83001
# Velocity P-wave (km/s) = 5.77154 7.02914 6.43116
#
# Compressibility (1/GPa) = 0.01710825
#
# Stress axis : x y z
#
# Youngs Moduli (GPa) = 103.31833 50.88026 103.10590
#
# Poissons Ratio (x) = 0.21515 0.18776
# Poissons Ratio (y) = 0.43689 0.50646
# Poissons Ratio (z) = 0.18815 0.24993
#
# Static dielectric constant tensor:
#      x y z
#    x 1.736760 0.000000 0.000000 
#    y 0.000000 1.792990 0.000000 
#    z 0.000000 0.000000 1.711890 
# 
# From -- ./inp_files/10957.got.cif
#   From: 2010.05.17/outbox.cif.g08.bks.cpg/sg23_6_cif.got.tgz:10957.got - 2010.06.04 12:02:01.
