data_PCOD9331791
_publ_section_title
;
Structure prediction by ZEFSAII (Michael W. Deem and Ramdas Pophale) SiO2 
 PCOD9331791
Probable space group: I 2 2 2
;
_chemical_formula_sum "Si O2"
_cell_formula_units_Z 38
_cell_length_a 9.011489
_cell_length_b 21.494070
_cell_length_c 8.354057
_cell_angle_alpha 90.000000
_cell_angle_beta 90.000000
_cell_angle_gamma 90.000000
_cell_volume 1618.127169
_symmetry_space_group_name_H-M "I 2 2 2"
_symmetry_group_IT_number 23
_symmetry_cell_setting 'orthorhombic'
loop_
_space_group_symop_operation_xyz
x,y,z
-x,-y,z
x,-y,-z
-x,y,-z
1/2+x,1/2+y,1/2+z
1/2-x,1/2-y,1/2+z
1/2+x,1/2-y,1/2-z
1/2-x,1/2+y,1/2-z
loop_
_atom_site_type_symbol
_atom_site_label
_atom_site_fract_x
_atom_site_fract_y
_atom_site_fract_z
Si Si1 0.500000 0.216957 0.000000
Si Si2 0.486727 0.665253 0.184621
Si Si3 0.277529 0.578304 0.786534
Si Si4 0.500000 0.500000 0.000000
Si Si5 0.318858 0.000000 0.000000
Si Si6 0.679093 0.121879 0.810695
Si Si7 0.500000 0.109082 0.500000
O O1 0.540285 0.261760 0.150778
O O2 0.370604 0.172053 0.059159
O O3 0.649086 0.645834 0.244951
O O4 0.354297 0.629668 0.274298
O O5 0.500000 0.644491 0.000000
O O6 0.263036 0.545770 0.617646
O O7 0.127408 0.577505 0.890461
O O8 0.393119 0.537750 0.884445
O O9 0.378280 0.053592 0.126873
O O10 0.599188 0.138998 0.641818
#
# Coordination Sequence:
#
# PCOD9331791 Si02
#       7
#     4   8   8   2   4   8   4
#     4  10  25  45  76 113 153 192 260 328 386 474
#     4  10  23  50  74 108 146 198 261 314 385 471
#     4  12  24  45  69 105 147 195 265 316 397 468
#     4  12  22  40  68  92 138 192 244 318 368 484
#     4  12  30  44  70 112 156 196 250 322 392 460
#     4  12  26  48  73 110 157 202 254 324 392 477
#     4  12  24  43  74  98 142 210 252 315 390 470
#
# _framework density 23.483937000000001
#
# number of rings (size 3 to 8) (size 9 to 14) (size 15 to 20)
#    0.632    0.000    3.158    3.789    0.000   15.579 
#    0.000    0.000    0.000    0.000    0.000    0.000 
#    0.000    0.000    0.000    0.000    0.000    0.000 
#
# Total GULP energy -105777.590883 kJ/mol
# GULP energy per Si atom -5567.241625 kJ/mol
# Density = 2.343049 g / cm^3
# Si number density = 23.483937 Si / 1000 Ang^3
#
#
#
# Elastic Constant Matrix: (Units=GPa)
#
#
# Indices 1 2 3 4 5 6 
#
# 1 131.7016 34.5911 47.6406 0.0099 -0.0002 -0.0002
# 2 34.5911 114.2238 40.3789 0.0021 0.0000 0.0000
# 3 47.6406 40.3789 115.5639 0.0350 -0.0006 -0.0016
# 4 0.0099 0.0021 0.0350-1195.5514 -0.0035 0.0012
# 5 -0.0002 0.0000 -0.0006 -0.0035 39.3993 -0.0002
# 6 -0.0002 0.0000 -0.0016 0.0012 -0.0002 30.7537
#
#
#
# Elastic Compliance Matrix: (Units=1/GPa)
#
#
# Indices 1 2 3 4 5 6 
#
# 1 0.009187 -0.001647 -0.003212 0.000000 0.000000 0.000000
# 2 -0.001647 0.010284 -0.002914 0.000000 0.000000 0.000000
# 3 -0.003212 -0.002914 0.010996 0.000000 0.000000 0.000001
# 4 0.000000 0.000000 0.000000 -0.000836 0.000000 0.000000
# 5 0.000000 0.000000 0.000000 0.000000 0.025381 0.000000
# 6 0.000000 0.000000 0.000001 0.000000 0.000000 0.032516
#
#
# Mechanical properties :
#
#
# Convention : Reuss Voigt Hill
#
# Bulk Modulus (GPa) = 67.02234 67.41229 67.21731
# Shear Modulus (GPa) = 46.27593 -209.15444 -81.43926
#
# Velocity S-wave (km/s) = 4.44389 -9.44755 -5.89525
# Velocity P-wave (km/s) = 7.41164 9.49948 4.20165
#
# Compressibility (1/GPa) = 0.01492040
#
# Stress axis : x y z
#
# Youngs Moduli (GPa) = 108.84546 97.24143 90.94506
#
# Poissons Ratio (x) = 0.16014 0.29212
# Poissons Ratio (y) = 0.17924 0.26504
# Poissons Ratio (z) = 0.34962 0.28339
#
# Static dielectric constant tensor:
#      x y z
#    x 2.194650 0.000000 0.000010 
#    y 0.000000 2.040870 0.000000 
#    z 0.000010 0.000000 1.621900 
# 
# From -- ./inp_files/6987.got.cif
#   From: 2010.05.17/outbox.cif.g08.bks.cpg/sg23_4_cif.got.tgz:6987.got - 2010.06.04 12:02:01.
