data_PCOD9331450
_publ_section_title
;
Structure prediction by ZEFSAII (Michael W. Deem and Ramdas Pophale) SiO2 
 PCOD9331450
Probable space group: I 2 2 2
;
_chemical_formula_sum "Si O2"
_cell_formula_units_Z 32
_cell_length_a 37.291430
_cell_length_b 5.549441
_cell_length_c 7.310580
_cell_angle_alpha 90.000000
_cell_angle_beta 90.000000
_cell_angle_gamma 90.000000
_cell_volume 1512.899606
_symmetry_space_group_name_H-M "I 2 2 2"
_symmetry_group_IT_number 23
_symmetry_cell_setting 'orthorhombic'
loop_
_space_group_symop_operation_xyz
x,y,z
-x,-y,z
x,-y,-z
-x,y,-z
1/2+x,1/2+y,1/2+z
1/2-x,1/2-y,1/2+z
1/2+x,1/2-y,1/2-z
1/2-x,1/2+y,1/2-z
loop_
_atom_site_type_symbol
_atom_site_label
_atom_site_fract_x
_atom_site_fract_y
_atom_site_fract_z
Si Si1 0.081180 0.494487 0.720725
Si Si2 0.228128 0.000000 0.500000
Si Si3 0.144346 0.500000 0.000000
Si Si4 0.790957 0.200599 0.855273
Si Si5 0.458781 0.502327 0.221560
O O1 0.085427 0.500000 0.500000
O O2 0.118391 0.464700 0.827715
O O3 0.058973 0.253508 0.772288
O O4 0.061990 0.749712 0.773349
O O5 0.203835 0.141463 0.356973
O O6 0.256616 0.124931 0.635696
O O7 0.172251 0.704949 0.941404
O O8 0.779693 0.000000 0.000000
O O9 0.500000 0.500000 0.283372
O O10 0.459072 0.500000 0.000000
#
# Coordination Sequence:
#
# PCOD9331450 Si02
#       5
#     8   4   4   8   8
#     4  10  22  41  64  93 138 176 225 278 335 404
#     4  11  22  44  70  98 125 162 218 276 335 390
#     4  11  28  42  61  96 135 182 214 264 337 418
#     4  11  24  42  69  96 130 164 214 276 334 401
#     4   9  18  37  67  96 126 175 230 285 337 389
#
# _framework density 21.151437000000001
#
# number of rings (size 3 to 8) (size 9 to 14) (size 15 to 20)
#    0.000    1.750    2.500    0.750    3.500    5.000 
#    2.250    3.750    0.000    0.000    0.000    0.000 
#    0.000    0.000    0.000    0.000    0.000    0.000 
#
# Total GULP energy -89164.981232 kJ/mol
# GULP energy per Si atom -5572.811327 kJ/mol
# Density = 2.110330 g / cm^3
# Si number density = 21.151437 Si / 1000 Ang^3
#
#
#
# Elastic Constant Matrix: (Units=GPa)
#
#
# Indices 1 2 3 4 5 6 
#
# 1 102.5996 46.1883 29.5836 0.0000 0.0000 0.0000
# 2 46.1883 113.7373 33.0738 0.0000 0.0000 0.0000
# 3 29.5836 33.0738 126.9588 0.0000 0.0000 0.0000
# 4 0.0000 0.0000 0.0000 18.1712 0.0000 0.0000
# 5 0.0000 0.0000 0.0000 0.0000 66.2465 0.0000
# 6 0.0000 0.0000 0.0000 0.0000 0.0000 -14.7039
#
#
#
# Elastic Compliance Matrix: (Units=1/GPa)
#
#
# Indices 1 2 3 4 5 6 
#
# 1 0.012252 -0.004485 -0.001687 0.000000 0.000000 0.000000
# 2 -0.004485 0.011155 -0.001861 0.000000 0.000000 0.000000
# 3 -0.001687 -0.001861 0.008754 0.000000 0.000000 0.000000
# 4 0.000000 0.000000 0.000000 0.055032 0.000000 0.000000
# 5 0.000000 0.000000 0.000000 0.000000 0.015095 0.000000
# 6 0.000000 0.000000 0.000000 0.000000 0.000000 -0.068009
#
#
# Mechanical properties :
#
#
# Convention : Reuss Voigt Hill
#
# Bulk Modulus (GPa) = 62.12642 62.33192 62.22917
# Shear Modulus (GPa) = 89.75152 29.57275 59.66213
#
# Velocity S-wave (km/s) = 6.52111 3.74323 5.31680
# Velocity P-wave (km/s) = 9.28094 6.94375 8.19608
#
# Compressibility (1/GPa) = 0.01609621
#
# Stress axis : x y z
#
# Youngs Moduli (GPa) = 81.61919 89.64862 114.22946
#
# Poissons Ratio (x) = 0.40208 0.19265
# Poissons Ratio (y) = 0.36607 0.21256
# Poissons Ratio (z) = 0.13765 0.16682
#
# Static dielectric constant tensor:
#      x y z
#    x 1.746370 0.000000 0.000000 
#    y 0.000000 1.597730 0.000000 
#    z 0.000000 0.000000 1.807720 
# 
# From -- ./inp_files/13215.got.cif
#   From: 2010.05.17/outbox.cif.g08.bks.cpg/sg23_7_cif.got.tgz:13215.got - 2010.06.04 12:02:01.
