data_PCOD9331553
_publ_section_title
;
Structure prediction by ZEFSAII (Michael W. Deem and Ramdas Pophale) SiO2 
 PCOD9331553
Probable space group: I 2 2 2
;
_chemical_formula_sum "Si O2"
_cell_formula_units_Z 36
_cell_length_a 9.855304
_cell_length_b 18.959296
_cell_length_c 8.861075
_cell_angle_alpha 90.000000
_cell_angle_beta 90.000000
_cell_angle_gamma 90.000000
_cell_volume 1655.688547
_symmetry_space_group_name_H-M "I 2 2 2"
_symmetry_group_IT_number 23
_symmetry_cell_setting 'orthorhombic'
loop_
_space_group_symop_operation_xyz
x,y,z
-x,-y,z
x,-y,-z
-x,y,-z
1/2+x,1/2+y,1/2+z
1/2-x,1/2-y,1/2+z
1/2+x,1/2-y,1/2-z
1/2-x,1/2+y,1/2-z
loop_
_atom_site_type_symbol
_atom_site_label
_atom_site_fract_x
_atom_site_fract_y
_atom_site_fract_z
Si Si1 0.695164 0.500000 0.000000
Si Si2 0.193482 0.088578 0.778915
Si Si3 0.587945 0.633621 0.816081
Si Si4 0.322734 0.125831 0.075831
Si Si5 0.000000 0.500000 0.500000
Si Si6 0.500000 0.245669 0.000000
Si Si7 0.000000 0.000000 0.000000
O O1 0.758279 0.545981 0.138302
O O2 0.616660 0.438667 0.092596
O O3 0.072057 0.137326 0.719209
O O4 0.292522 0.125773 0.895941
O O5 0.102942 0.038999 0.888147
O O6 0.686024 0.630207 0.672354
O O7 0.606379 0.703611 0.914432
O O8 0.417111 0.192560 0.107756
O O9 0.404056 0.052328 0.096163
#
# Coordination Sequence:
#
# PCOD9331553 Si02
#       7
#     4   8   8   8   2   4   2
#     4  12  21  34  66 101 128 151 216 292 333 370
#     4  12  20  36  63 101 127 164 221 277 332 390
#     4  12  22  40  65  99 128 173 221 279 333 389
#     4  11  25  44  67  91 136 177 224 270 333 412
#     4  10  22  44  66  96 124 172 220 270 336 392
#     4  11  28  42  64  97 136 184 224 271 336 394
#     4  12  18  30  60 102 116 160 224 266 326 382
#
# _framework density 21.743219
#
# number of rings (size 3 to 8) (size 9 to 14) (size 15 to 20)
#    0.000    0.444    6.667    2.667    3.111    0.000 
#    0.000    0.000    0.000   25.333    0.000    0.000 
#    0.000    0.000    0.000    0.000    0.000    0.000 
#
# Total GULP energy -100329.496373 kJ/mol
# GULP energy per Si atom -5573.860910 kJ/mol
# Density = 2.169373 g / cm^3
# Si number density = 21.743219 Si / 1000 Ang^3
#
#
#
# Elastic Constant Matrix: (Units=GPa)
#
#
# Indices 1 2 3 4 5 6 
#
# 1 64.2866 26.9405 29.8794 0.0000 0.0000 0.0000
# 2 26.9405 126.9997 33.7906 -0.0002 0.0000 0.0000
# 3 29.8794 33.7906 122.1345 -0.0002 0.0000 0.0000
# 4 0.0000 -0.0002 -0.0002 26.5851 0.0000 0.0000
# 5 0.0000 0.0000 0.0000 0.0000 22.2272 0.0000
# 6 0.0000 0.0000 0.0000 0.0000 0.0000 24.1913
#
#
#
# Elastic Compliance Matrix: (Units=1/GPa)
#
#
# Indices 1 2 3 4 5 6 
#
# 1 0.018514 -0.002939 -0.003716 0.000000 0.000000 0.000000
# 2 -0.002939 0.008966 -0.001762 0.000000 0.000000 0.000000
# 3 -0.003716 -0.001762 0.009584 0.000000 0.000000 0.000000
# 4 0.000000 0.000000 0.000000 0.037615 0.000000 0.000000
# 5 0.000000 0.000000 0.000000 0.000000 0.044990 0.000000
# 6 0.000000 0.000000 0.000000 0.000000 0.000000 0.041337
#
#
# Mechanical properties :
#
#
# Convention : Reuss Voigt Hill
#
# Bulk Modulus (GPa) = 49.42864 54.96023 52.19443
# Shear Modulus (GPa) = 27.08796 29.45473 28.27135
#
# Velocity S-wave (km/s) = 3.53344 3.68457 3.60979
# Velocity P-wave (km/s) = 6.27926 6.59039 6.43671
#
# Compressibility (1/GPa) = 0.02023118
#
# Stress axis : x y z
#
# Youngs Moduli (GPa) = 54.01283 111.53071 104.33744
#
# Poissons Ratio (x) = 0.32775 0.38775
# Poissons Ratio (y) = 0.15872 0.18381
# Poissons Ratio (z) = 0.20073 0.19649
#
# Static dielectric constant tensor:
#      x y z
#    x 1.823620 0.000000 0.000000 
#    y 0.000000 1.844010 0.000000 
#    z 0.000000 0.000000 1.920170 
# 
# From -- ./inp_files/8417.got.cif
#   From: 2010.05.17/outbox.cif.g08.bks.cpg/sg23_5_cif.got.tgz:8417.got - 2010.06.04 12:02:01.
