data_PCOD9331786
_publ_section_title
;
Structure prediction by ZEFSAII (Michael W. Deem and Ramdas Pophale) SiO2 
 PCOD9331786
Probable space group: I 2 2 2
;
_chemical_formula_sum "Si O2"
_cell_formula_units_Z 28
_cell_length_a 19.873127
_cell_length_b 11.477460
_cell_length_c 5.217385
_cell_angle_alpha 90.000000
_cell_angle_beta 90.000000
_cell_angle_gamma 90.000000
_cell_volume 1190.049102
_symmetry_space_group_name_H-M "I 2 2 2"
_symmetry_group_IT_number 23
_symmetry_cell_setting 'orthorhombic'
loop_
_space_group_symop_operation_xyz
x,y,z
-x,-y,z
x,-y,-z
-x,y,-z
1/2+x,1/2+y,1/2+z
1/2-x,1/2-y,1/2+z
1/2+x,1/2-y,1/2-z
1/2-x,1/2+y,1/2-z
loop_
_atom_site_type_symbol
_atom_site_label
_atom_site_fract_x
_atom_site_fract_y
_atom_site_fract_z
Si Si1 0.574186 0.675116 0.404708
Si Si2 0.381164 0.101770 0.142670
Si Si3 0.851645 0.838348 0.414972
Si Si4 0.269788 0.000000 0.500000
O O1 0.500000 0.648465 0.500000
O O2 0.581351 0.814732 0.347218
O O3 0.626344 0.637521 0.625474
O O4 0.593991 0.622419 0.129835
O O5 0.319661 0.035298 0.274150
O O6 0.353188 0.199083 0.947568
O O7 0.421299 0.000000 0.000000
O O8 0.781841 0.891836 0.508893
#
# Coordination Sequence:
#
# PCOD9331786 Si02
#       4
#     8   8   8   4
#     4  10  23  48  70 101 139 178 230 283 337 415
#     4  10  25  41  72 104 135 183 219 289 342 408
#     4  10  26  42  73 102 136 183 225 283 351 399
#     4  12  26  44  68 108 140 176 234 284 348 418
#
# _framework density 23.528441999999998
#
# number of rings (size 3 to 8) (size 9 to 14) (size 15 to 20)
#    1.714    0.000    0.000    2.571   12.000    0.000 
#    0.000   15.000    0.000    0.000    0.000    0.000 
#    0.000    0.000    0.000    0.000    0.000    0.000 
#
# Total GULP energy -78068.317842 kJ/mol
# GULP energy per Si atom -5576.308417 kJ/mol
# Density = 2.347489 g / cm^3
# Si number density = 23.528442 Si / 1000 Ang^3
#
#
#
# Elastic Constant Matrix: (Units=GPa)
#
#
# Indices 1 2 3 4 5 6 
#
# 1 82.3900 4.6367 15.3654 0.0000 0.0000 0.0000
# 2 4.6367 114.5427 27.4353 0.0000 0.0000 0.0000
# 3 15.3654 27.4353 109.3088 0.0000 0.0000 0.0000
# 4 0.0000 0.0000 0.0000 35.9286 0.0000 0.0000
# 5 0.0000 0.0000 0.0000 0.0000 29.0096 0.0000
# 6 0.0000 0.0000 0.0000 0.0000 0.0000 -42.9224
#
#
#
# Elastic Compliance Matrix: (Units=1/GPa)
#
#
# Indices 1 2 3 4 5 6 
#
# 1 0.012465 -0.000090 -0.001730 0.000000 0.000000 0.000000
# 2 -0.000090 0.009289 -0.002319 0.000000 0.000000 0.000000
# 3 -0.001730 -0.002319 0.009974 0.000000 0.000000 0.000000
# 4 0.000000 0.000000 0.000000 0.027833 0.000000 0.000000
# 5 0.000000 0.000000 0.000000 0.000000 0.034471 0.000000
# 6 0.000000 0.000000 0.000000 0.000000 0.000000 -0.023298
#
#
# Mechanical properties :
#
#
# Convention : Reuss Voigt Hill
#
# Bulk Modulus (GPa) = 42.64286 44.56847 43.60567
# Shear Modulus (GPa) = 57.58468 21.65677 39.62073
#
# Velocity S-wave (km/s) = 4.95254 3.03718 4.10805
# Velocity P-wave (km/s) = 7.13210 5.59310 6.40896
#
# Compressibility (1/GPa) = 0.02345058
#
# Stress axis : x y z
#
# Youngs Moduli (GPa) = 80.22445 107.64914 100.26551
#
# Poissons Ratio (x) = 0.00972 0.17341
# Poissons Ratio (y) = 0.00725 0.23250
# Poissons Ratio (z) = 0.13875 0.24962
#
# Static dielectric constant tensor:
#      x y z
#    x 1.831600 0.000000 0.000000 
#    y 0.000000 1.958450 0.000000 
#    z 0.000000 0.000000 1.926630 
# 
# From -- ./inp_files/3603.got.cif
#   From: 2010.05.17/outbox.cif.g08.bks.cpg/sg23_2_cif.got.tgz:3603.got - 2010.06.04 12:02:01.
