data_PCOD9331905
_publ_section_title
;
Structure prediction by ZEFSAII (Michael W. Deem and Ramdas Pophale) SiO2 
 PCOD9331905
Probable space group: I 2 2 2
;
_chemical_formula_sum "Si O2"
_cell_formula_units_Z 34
_cell_length_a 9.626789
_cell_length_b 7.708671
_cell_length_c 20.119578
_cell_angle_alpha 90.000000
_cell_angle_beta 90.000000
_cell_angle_gamma 90.000000
_cell_volume 1493.068837
_symmetry_space_group_name_H-M "I 2 2 2"
_symmetry_group_IT_number 23
_symmetry_cell_setting 'orthorhombic'
loop_
_space_group_symop_operation_xyz
x,y,z
-x,-y,z
x,-y,-z
-x,y,-z
1/2+x,1/2+y,1/2+z
1/2-x,1/2-y,1/2+z
1/2+x,1/2-y,1/2-z
1/2-x,1/2+y,1/2-z
loop_
_atom_site_type_symbol
_atom_site_label
_atom_site_fract_x
_atom_site_fract_y
_atom_site_fract_z
Si Si1 0.166764 0.492301 0.077076
Si Si2 0.500000 0.000000 0.000000
Si Si3 0.701776 0.325672 0.328751
Si Si4 0.664896 0.176672 0.118027
Si Si5 0.471029 0.199420 0.243387
O O1 0.212120 0.316762 0.113452
O O2 0.236785 0.658417 0.110609
O O3 0.000000 0.500000 0.080081
O O4 0.207820 0.500000 0.000000
O O5 0.406415 0.117927 0.951051
O O6 0.750546 0.510144 0.355619
O O7 0.550506 0.315019 0.296342
O O8 0.809566 0.272389 0.270195
O O9 0.544648 0.217268 0.171495
O O10 0.500000 0.000000 0.263923
#
# Coordination Sequence:
#
# PCOD9331905 Si02
#       5
#     8   2   8   8   8
#     4  11  27  48  72 107 147 190 248 311 375 451
#     4  12  20  52  78 106 152 186 266 310 374 456
#     4  11  24  49  72 107 148 194 245 305 373 449
#     4  11  25  46  74 107 144 192 246 313 367 438
#     4  10  24  46  68 108 144 191 243 302 369 442
#
# _framework density 22.771891
#
# number of rings (size 3 to 8) (size 9 to 14) (size 15 to 20)
#    0.000    1.176    3.529    2.118    9.882    1.882 
#    4.235    2.353    0.000    0.000    0.000    0.000 
#    0.000    0.000    0.000    0.000    0.000    0.000 
#
# Total GULP energy -95307.011805 kJ/mol
# GULP energy per Si atom -5606.294812 kJ/mol
# Density = 2.272006 g / cm^3
# Si number density = 22.771891 Si / 1000 Ang^3
#
#
#
# Elastic Constant Matrix: (Units=GPa)
#
#
# Indices 1 2 3 4 5 6 
#
# 1 64.1259 34.8823 6.5667 0.0000 0.0000 0.0000
# 2 34.8823 117.7807 36.0016 0.0000 0.0000 0.0000
# 3 6.5667 36.0016 117.9745 0.0000 0.0000 0.0000
# 4 0.0000 0.0000 0.0000 18.8410 0.0000 0.0000
# 5 0.0000 0.0000 0.0000 0.0000 34.3097 0.0000
# 6 0.0000 0.0000 0.0000 0.0000 0.0000 38.4204
#
#
#
# Elastic Compliance Matrix: (Units=1/GPa)
#
#
# Indices 1 2 3 4 5 6 
#
# 1 0.018643 -0.005740 0.000714 0.000000 0.000000 0.000000
# 2 -0.005740 0.011131 -0.003077 0.000000 0.000000 0.000000
# 3 0.000714 -0.003077 0.009376 0.000000 0.000000 0.000000
# 4 0.000000 0.000000 0.000000 0.053076 0.000000 0.000000
# 5 0.000000 0.000000 0.000000 0.000000 0.029146 0.000000
# 6 0.000000 0.000000 0.000000 0.000000 0.000000 0.026028
#
#
# Mechanical properties :
#
#
# Convention : Reuss Voigt Hill
#
# Bulk Modulus (GPa) = 43.58483 50.53137 47.05810
# Shear Modulus (GPa) = 29.19640 33.14293 31.16967
#
# Velocity S-wave (km/s) = 3.58456 3.81915 3.70371
# Velocity P-wave (km/s) = 6.02606 6.45649 6.24499
#
# Compressibility (1/GPa) = 0.02294376
#
# Stress axis : x y z
#
# Youngs Moduli (GPa) = 53.63827 89.84038 106.65820
#
# Poissons Ratio (x) = 0.51565 -0.07613
# Poissons Ratio (y) = 0.30787 0.32821
# Poissons Ratio (z) = -0.03829 0.27646
#
# Static dielectric constant tensor:
#      x y z
#    x 1.837000 0.000000 0.000000 
#    y 0.000000 1.828980 0.000000 
#    z 0.000000 0.000000 1.868130 
# 
# From -- ./inp_files/11680.got.cif
#   From: 2010.05.17/outbox.cif.g08.bks.cpg/sg23_6_cif.got.tgz:11680.got - 2010.06.04 12:02:01.
