data_PCOD9331436
_publ_section_title
;
Structure prediction by ZEFSAII (Michael W. Deem and Ramdas Pophale) SiO2 
 PCOD9331436
Probable space group: I 2 2 2
;
_chemical_formula_sum "Si O2"
_cell_formula_units_Z 48
_cell_length_a 11.963858
_cell_length_b 9.243006
_cell_length_c 21.954266
_cell_angle_alpha 90.000000
_cell_angle_beta 90.000000
_cell_angle_gamma 90.000000
_cell_volume 2427.746890
_symmetry_space_group_name_H-M "I 2 2 2"
_symmetry_group_IT_number 23
_symmetry_cell_setting 'orthorhombic'
loop_
_space_group_symop_operation_xyz
x,y,z
-x,-y,z
x,-y,-z
-x,y,-z
1/2+x,1/2+y,1/2+z
1/2-x,1/2-y,1/2+z
1/2+x,1/2-y,1/2-z
1/2-x,1/2+y,1/2-z
loop_
_atom_site_type_symbol
_atom_site_label
_atom_site_fract_x
_atom_site_fract_y
_atom_site_fract_z
Si Si1 0.476114 0.330751 0.330680
Si Si2 0.107783 0.397134 0.588918
Si Si3 0.562979 0.845563 0.558221
Si Si4 0.511152 0.168116 0.206138
Si Si5 0.308231 0.657915 0.998610
Si Si6 0.272766 0.826823 0.122164
O O1 0.500000 0.500000 0.332919
O O2 0.548743 0.246833 0.381182
O O3 0.497961 0.269078 0.263691
O O4 0.347342 0.306486 0.348618
O O5 0.124688 0.280536 0.537192
O O6 0.209332 0.509970 0.596137
O O7 0.000000 0.500000 0.578035
O O8 0.081885 0.317952 0.652962
O O9 0.500000 0.775045 0.500000
O O10 0.690871 0.861422 0.537705
O O11 0.500000 0.000000 0.566959
O O12 0.629047 0.190705 0.171860
O O13 0.500000 0.000000 0.225954
O O14 0.287351 0.716941 0.066311
O O15 0.362190 0.500000 0.000000
#
# Coordination Sequence:
#
# PCOD9331436 Si02
#       6
#     8   8   8   8   8   8
#     4  12  24  37  62  95 125 157 208 264 310 371
#     4   9  22  44  63  87 126 171 211 255 316 380
#     4  11  21  41  61  91 134 163 200 255 316 375
#     4   9  23  44  62  80 118 168 209 251 312 379
#     4  12  22  37  67  97 123 167 212 257 315 374
#     4  10  22  41  61  88 124 167 205 255 321 372
#
# _framework density 19.771418000000001
#
# number of rings (size 3 to 8) (size 9 to 14) (size 15 to 20)
#    0.000    1.833    3.333    2.000    0.000   11.000 
#    0.000    5.833    0.000    0.000    0.000    0.000 
#    0.000    0.000    0.000    0.000    0.000    0.000 
#
# Total GULP energy -134121.251759 kJ/mol
# GULP energy per Si atom -5588.385490 kJ/mol
# Density = 1.972642 g / cm^3
# Si number density = 19.771418 Si / 1000 Ang^3
#
#
#
# Elastic Constant Matrix: (Units=GPa)
#
#
# Indices 1 2 3 4 5 6 
#
# 1 59.2174 36.2321 40.1762 0.0000 0.0000 0.0000
# 2 36.2321 114.2349 98.7497 0.0000 0.0000 0.0000
# 3 40.1762 98.7497 149.7065 0.0000 0.0000 0.0000
# 4 0.0000 0.0000 0.0000 18.2802 0.0000 0.0000
# 5 0.0000 0.0000 0.0000 0.0000 23.3417 0.0000
# 6 0.0000 0.0000 0.0000 0.0000 0.0000 22.9209
#
#
#
# Elastic Compliance Matrix: (Units=1/GPa)
#
#
# Indices 1 2 3 4 5 6 
#
# 1 0.021502 -0.004262 -0.002959 0.000000 0.000000 0.000000
# 2 -0.004262 0.021212 -0.012848 0.000000 0.000000 0.000000
# 3 -0.002959 -0.012848 0.015949 0.000000 0.000000 0.000000
# 4 0.000000 0.000000 0.000000 0.054704 0.000000 0.000000
# 5 0.000000 0.000000 0.000000 0.000000 0.042842 0.000000
# 6 0.000000 0.000000 0.000000 0.000000 0.000000 0.043628
#
#
# Mechanical properties :
#
#
# Convention : Reuss Voigt Hill
#
# Bulk Modulus (GPa) = 53.98224 74.83053 64.40639
# Shear Modulus (GPa) = 20.31270 22.77528 21.54399
#
# Velocity S-wave (km/s) = 3.20875 3.39769 3.30457
# Velocity P-wave (km/s) = 6.41019 7.30222 6.87070
#
# Compressibility (1/GPa) = 0.01852461
#
# Stress axis : x y z
#
# Youngs Moduli (GPa) = 46.50682 47.14244 62.69979
#
# Poissons Ratio (x) = 0.20091 0.18555
# Poissons Ratio (y) = 0.19820 0.80559
# Poissons Ratio (z) = 0.13763 0.60571
#
# Static dielectric constant tensor:
#      x y z
#    x 1.723660 0.000000 0.000000 
#    y 0.000000 1.698220 0.000000 
#    z 0.000000 0.000000 1.674460 
# 
# From -- ./inp_files/18288.got.cif
#   From: 2010.05.17/outbox.cif.g08.bks.cpg/sg23_10_cif.got.tgz:18288.got - 2010.06.04 12:02:01.
