data_PCOD9331345
_publ_section_title
;
Structure prediction by ZEFSAII (Michael W. Deem and Ramdas Pophale) SiO2 
 PCOD9331345
Probable space group: I 2 2 2
;
_chemical_formula_sum "Si O2"
_cell_formula_units_Z 40
_cell_length_a 20.975869
_cell_length_b 11.286222
_cell_length_c 7.841118
_cell_angle_alpha 90.000000
_cell_angle_beta 90.000000
_cell_angle_gamma 90.000000
_cell_volume 1856.293057
_symmetry_space_group_name_H-M "I 2 2 2"
_symmetry_group_IT_number 23
_symmetry_cell_setting 'orthorhombic'
loop_
_space_group_symop_operation_xyz
x,y,z
-x,-y,z
x,-y,-z
-x,y,-z
1/2+x,1/2+y,1/2+z
1/2-x,1/2-y,1/2+z
1/2+x,1/2-y,1/2-z
1/2-x,1/2+y,1/2-z
loop_
_atom_site_type_symbol
_atom_site_label
_atom_site_fract_x
_atom_site_fract_y
_atom_site_fract_z
Si Si1 0.700013 0.625348 0.923717
Si Si2 0.434475 0.278901 0.031485
Si Si3 0.065158 0.347871 0.890831
Si Si4 0.617872 0.934363 0.826989
Si Si5 0.185577 0.738089 0.894455
O O1 0.692250 0.644552 0.720637
O O2 0.720114 0.500000 0.000000
O O3 0.631109 0.653915 0.002721
O O4 0.753841 0.715794 0.988873
O O5 0.439248 0.230015 0.221188
O O6 0.500000 0.346782 0.000000
O O7 0.429972 0.167329 0.898156
O O8 0.087493 0.475223 0.810400
O O9 0.120808 0.284524 0.000402
O O10 0.000000 0.353045 0.000000
O O11 0.677124 0.867758 0.743589
O O12 0.636889 0.000000 0.000000
#
# Coordination Sequence:
#
# PCOD9331345 Si02
#       5
#     8   8   8   8   8
#     4  11  24  43  65  88 120 164 206 255 314 372
#     4  10  22  39  58  87 125 164 210 256 298 362
#     4  11  21  36  60  93 128 162 201 254 313 367
#     4   9  20  35  58  90 124 159 198 251 316 369
#     4  11  23  39  60  90 121 155 203 255 305 370
#
# _framework density 21.548321999999999
#
# number of rings (size 3 to 8) (size 9 to 14) (size 15 to 20)
#    0.000    1.600    0.000    5.400    0.000   13.600 
#    0.000    3.000    0.000    1.200    0.000    0.000 
#    0.000    0.000    0.000    0.000    0.000    0.000 
#
# Total GULP energy -111656.471003 kJ/mol
# GULP energy per Si atom -5582.823550 kJ/mol
# Density = 2.149928 g / cm^3
# Si number density = 21.548322 Si / 1000 Ang^3
#
#
#
# Elastic Constant Matrix: (Units=GPa)
#
#
# Indices 1 2 3 4 5 6 
#
# 1 132.3140 11.6143 51.7902 0.0000 0.0000 0.0000
# 2 11.6143 45.8786 34.2598 0.0000 0.0000 0.0000
# 3 51.7902 34.2598 139.1436 0.0000 0.0000 0.0000
# 4 0.0000 0.0000 0.0000 14.0964 0.0000 0.0000
# 5 0.0000 0.0000 0.0000 0.0000 42.2136 0.0000
# 6 0.0000 0.0000 0.0000 0.0000 0.0000 14.2065
#
#
#
# Elastic Compliance Matrix: (Units=1/GPa)
#
#
# Indices 1 2 3 4 5 6 
#
# 1 0.008849 0.000269 -0.003360 0.000000 0.000000 0.000000
# 2 0.000269 0.026715 -0.006678 0.000000 0.000000 0.000000
# 3 -0.003360 -0.006678 0.010082 0.000000 0.000000 0.000000
# 4 0.000000 0.000000 0.000000 0.070940 0.000000 0.000000
# 5 0.000000 0.000000 0.000000 0.000000 0.023689 0.000000
# 6 0.000000 0.000000 0.000000 0.000000 0.000000 0.070390
#
#
# Mechanical properties :
#
#
# Convention : Reuss Voigt Hill
#
# Bulk Modulus (GPa) = 38.30211 56.96274 47.63242
# Shear Modulus (GPa) = 20.92870 28.74810 24.83840
#
# Velocity S-wave (km/s) = 3.11986 3.65653 3.39880
# Velocity P-wave (km/s) = 5.54902 6.65727 6.12825
#
# Compressibility (1/GPa) = 0.02610822
#
# Stress axis : x y z
#
# Youngs Moduli (GPa) = 113.00274 37.43180 99.19018
#
# Poissons Ratio (x) = -0.01006 0.33328
# Poissons Ratio (y) = -0.03038 0.66238
# Poissons Ratio (z) = 0.37969 0.24996
#
# Static dielectric constant tensor:
#      x y z
#    x 1.773910 0.000000 0.000000 
#    y 0.000000 1.846010 0.000000 
#    z 0.000000 0.000000 1.820990 
# 
# From -- ./inp_files/8457.got.cif
#   From: 2010.05.17/outbox.cif.g08.bks.cpg/sg23_5_cif.got.tgz:8457.got - 2010.06.04 12:02:01.
