data_PCOD9331507
_publ_section_title
;
Structure prediction by ZEFSAII (Michael W. Deem and Ramdas Pophale) SiO2 
 PCOD9331507
Probable space group: I 2 2 2
;
_chemical_formula_sum "Si O2"
_cell_formula_units_Z 56
_cell_length_a 14.998240
_cell_length_b 9.256178
_cell_length_c 19.218837
_cell_angle_alpha 90.000000
_cell_angle_beta 90.000000
_cell_angle_gamma 90.000000
_cell_volume 2668.081552
_symmetry_space_group_name_H-M "I 2 2 2"
_symmetry_group_IT_number 23
_symmetry_cell_setting 'orthorhombic'
loop_
_space_group_symop_operation_xyz
x,y,z
-x,-y,z
x,-y,-z
-x,y,-z
1/2+x,1/2+y,1/2+z
1/2-x,1/2-y,1/2+z
1/2+x,1/2-y,1/2-z
1/2-x,1/2+y,1/2-z
loop_
_atom_site_type_symbol
_atom_site_label
_atom_site_fract_x
_atom_site_fract_y
_atom_site_fract_z
Si Si1 0.646472 0.315743 0.843265
Si Si2 0.105181 0.661505 0.485825
Si Si3 0.634490 0.642310 0.885215
Si Si4 0.395716 0.655204 0.483850
Si Si5 0.858234 0.675666 0.151229
Si Si6 0.312956 0.911422 0.568488
Si Si7 0.013937 0.329971 0.282892
O O1 0.630960 0.210021 0.908782
O O2 0.612677 0.474674 0.868799
O O3 0.752688 0.321394 0.827946
O O4 0.581406 0.252085 0.784062
O O5 0.141156 0.500000 0.500000
O O6 0.131905 0.791705 0.537226
O O7 0.000000 0.652445 0.500000
O O8 0.740708 0.640328 0.875227
O O9 0.573668 0.748477 0.840693
O O10 0.356048 0.500000 0.500000
O O11 0.500000 0.651212 0.500000
O O12 0.375195 0.699983 0.405131
O O13 0.358063 0.774953 0.535166
O O14 0.873155 0.526864 0.108577
O O15 0.927773 0.683987 0.213397
O O16 0.276561 0.000000 0.500000
O O17 0.000000 0.500000 0.298547
#
# Coordination Sequence:
#
# PCOD9331507 Si02
#       7
#     8   8   8   8   8   8   8
#     4  11  24  45  68 100 138 177 226 279 335 393
#     4  11  21  35  66 103 135 174 216 278 331 397
#     4  11  22  41  64  99 133 169 226 272 336 398
#     4  10  22  42  69 107 132 165 221 281 338 392
#     4  10  25  46  68  98 137 178 225 274 332 401
#     4   9  20  41  71  98 129 173 221 276 339 395
#     4  12  27  44  65  96 134 185 227 267 330 407
#
# _framework density 20.988865000000001
#
# number of rings (size 3 to 8) (size 9 to 14) (size 15 to 20)
#    0.000    1.429    1.429    4.286    2.000    8.286 
#    5.143    0.000    0.000    0.000    0.000    0.000 
#    0.000    0.000    0.000    0.000    0.000    0.000 
#
# Total GULP energy -156217.601318 kJ/mol
# GULP energy per Si atom -5579.200047 kJ/mol
# Density = 2.094109 g / cm^3
# Si number density = 20.988865 Si / 1000 Ang^3
#
#
#
# Elastic Constant Matrix: (Units=GPa)
#
#
# Indices 1 2 3 4 5 6 
#
# 1 107.0944 71.5908 51.8632 0.0000 0.0000 0.0000
# 2 71.5908 168.5908 45.8763 0.0000 0.0000 0.0000
# 3 51.8632 45.8763 84.2669 0.0000 0.0000 0.0000
# 4 0.0000 0.0000 0.0000 10.9420 0.0000 0.0000
# 5 0.0000 0.0000 0.0000 0.0000 34.9932 0.0000
# 6 0.0000 0.0000 0.0000 0.0000 0.0000 21.8636
#
#
#
# Elastic Compliance Matrix: (Units=1/GPa)
#
#
# Indices 1 2 3 4 5 6 
#
# 1 0.016107 -0.004862 -0.007266 0.000000 0.000000 0.000000
# 2 -0.004862 0.008431 -0.001597 0.000000 0.000000 0.000000
# 3 -0.007266 -0.001597 0.017209 0.000000 0.000000 0.000000
# 4 0.000000 0.000000 0.000000 0.091391 0.000000 0.000000
# 5 0.000000 0.000000 0.000000 0.000000 0.028577 0.000000
# 6 0.000000 0.000000 0.000000 0.000000 0.000000 0.045738
#
#
# Mechanical properties :
#
#
# Convention : Reuss Voigt Hill
#
# Bulk Modulus (GPa) = 69.95480 77.62364 73.78922
# Shear Modulus (GPa) = 20.86212 26.26788 23.56500
#
# Velocity S-wave (km/s) = 3.15614 3.54151 3.35436
# Velocity P-wave (km/s) = 6.83253 7.33394 7.08767
#
# Compressibility (1/GPa) = 0.01429495
#
# Stress axis : x y z
#
# Youngs Moduli (GPa) = 62.08601 118.61044 58.11060
#
# Poissons Ratio (x) = 0.57673 0.42223
# Poissons Ratio (y) = 0.30189 0.09282
# Poissons Ratio (z) = 0.45111 0.18946
#
# Static dielectric constant tensor:
#      x y z
#    x 1.846890 0.000000 0.000000 
#    y 0.000000 1.789610 0.000000 
#    z 0.000000 0.000000 1.791060 
# 
# From -- ./inp_files/26989.got.cif
#   From: 2010.05.17/outbox.cif.g08.bks.cpg/sg23_14_cif.got.tgz:26989.got - 2010.06.04 12:02:01.
