data_PCOD9331860
_publ_section_title
;
Structure prediction by ZEFSAII (Michael W. Deem and Ramdas Pophale) SiO2 
 PCOD9331860
Probable space group: I 2 2 2
;
_chemical_formula_sum "Si O2"
_cell_formula_units_Z 34
_cell_length_a 6.794196
_cell_length_b 11.759137
_cell_length_c 21.209719
_cell_angle_alpha 90.000000
_cell_angle_beta 90.000000
_cell_angle_gamma 90.000000
_cell_volume 1694.526778
_symmetry_space_group_name_H-M "I 2 2 2"
_symmetry_group_IT_number 23
_symmetry_cell_setting 'orthorhombic'
loop_
_space_group_symop_operation_xyz
x,y,z
-x,-y,z
x,-y,-z
-x,y,-z
1/2+x,1/2+y,1/2+z
1/2-x,1/2-y,1/2+z
1/2+x,1/2-y,1/2-z
1/2-x,1/2+y,1/2-z
loop_
_atom_site_type_symbol
_atom_site_label
_atom_site_fract_x
_atom_site_fract_y
_atom_site_fract_z
Si Si1 0.000000 0.000000 0.000000
Si Si2 0.059315 0.133681 0.431883
Si Si3 0.079463 0.379016 0.284933
Si Si4 0.128323 0.810996 0.102081
Si Si5 0.243895 0.776944 0.330252
O O1 0.887338 0.910019 0.952133
O O2 0.914349 0.180833 0.379574
O O3 0.000000 0.179362 0.500000
O O4 0.274636 0.190035 0.420437
O O5 0.000000 0.000000 0.432221
O O6 0.233966 0.347374 0.339388
O O7 0.170097 0.373164 0.215296
O O8 0.000000 0.500000 0.302232
O O9 0.885445 0.300923 0.284123
O O10 0.914172 0.787243 0.131602
#
# Coordination Sequence:
#
# PCOD9331860 Si02
#       5
#     2   8   8   8   8
#     4  12  24  44  74  98 140 194 230 286 342 424
#     4  10  24  43  65  96 131 173 227 284 341 406
#     4  11  24  40  65  97 135 173 223 281 343 406
#     4  11  24  44  66 100 135 181 231 280 347 413
#     4  11  23  42  65  97 132 174 224 280 343 410
#
# _framework density 20.064599000000001
#
# number of rings (size 3 to 8) (size 9 to 14) (size 15 to 20)
#    0.000    1.176    2.353    2.824    3.294    1.882 
#    2.118    7.059    0.000    0.000    0.000    0.000 
#    0.000    0.000    0.000    0.000    0.000    0.000 
#
# Total GULP energy -94663.096392 kJ/mol
# GULP energy per Si atom -5568.417435 kJ/mol
# Density = 2.001893 g / cm^3
# Si number density = 20.064599 Si / 1000 Ang^3
#
#
#
# Elastic Constant Matrix: (Units=GPa)
#
#
# Indices 1 2 3 4 5 6 
#
# 1 86.4663 12.2072 23.6437 0.0000 0.0000 0.0000
# 2 12.2072 50.6681 9.9613 0.0000 0.0000 0.0000
# 3 23.6437 9.9613 95.9729 0.0000 0.0000 0.0000
# 4 0.0000 0.0000 0.0000 35.6308 0.0000 0.0000
# 5 0.0000 0.0000 0.0000 0.0000 5.2238 0.0000
# 6 0.0000 0.0000 0.0000 0.0000 0.0000 16.5341
#
#
#
# Elastic Compliance Matrix: (Units=1/GPa)
#
#
# Indices 1 2 3 4 5 6 
#
# 1 0.012702 -0.002496 -0.002870 0.000000 0.000000 0.000000
# 2 -0.002496 0.020638 -0.001527 0.000000 0.000000 0.000000
# 3 -0.002870 -0.001527 0.011285 0.000000 0.000000 0.000000
# 4 0.000000 0.000000 0.000000 0.028066 0.000000 0.000000
# 5 0.000000 0.000000 0.000000 0.000000 0.191432 0.000000
# 6 0.000000 0.000000 0.000000 0.000000 0.000000 0.060481
#
#
# Mechanical properties :
#
#
# Convention : Reuss Voigt Hill
#
# Bulk Modulus (GPa) = 32.42686 36.08130 34.25408
# Shear Modulus (GPa) = 14.34017 23.96406 19.15212
#
# Velocity S-wave (km/s) = 2.67629 3.45968 3.09289
# Velocity P-wave (km/s) = 5.07409 5.82930 5.46476
#
# Compressibility (1/GPa) = 0.03083863
#
# Stress axis : x y z
#
# Youngs Moduli (GPa) = 78.72498 48.45459 88.61135
#
# Poissons Ratio (x) = 0.12094 0.25434
# Poissons Ratio (y) = 0.19650 0.13532
# Poissons Ratio (z) = 0.22596 0.07400
#
# Static dielectric constant tensor:
#      x y z
#    x 1.671840 0.000000 0.000000 
#    y 0.000000 1.899450 0.000000 
#    z 0.000000 0.000000 1.700340 
# 
# From -- ./inp_files/1510.got.cif
#   From: 2010.05.17/outbox.cif.g08.bks.cpg/sg23_1_cif.got.tgz:1510.got - 2010.06.04 12:02:01.
