data_PCOD9331007
_publ_section_title
;
Structure prediction by ZEFSAII (Michael W. Deem and Ramdas Pophale) SiO2 
 PCOD9331007
Probable space group: I 2 2 2
;
_chemical_formula_sum "Si O2"
_cell_formula_units_Z 38
_cell_length_a 22.960425
_cell_length_b 9.527747
_cell_length_c 8.148928
_cell_angle_alpha 90.000000
_cell_angle_beta 90.000000
_cell_angle_gamma 90.000000
_cell_volume 1782.668619
_symmetry_space_group_name_H-M "I 2 2 2"
_symmetry_group_IT_number 23
_symmetry_cell_setting 'orthorhombic'
loop_
_space_group_symop_operation_xyz
x,y,z
-x,-y,z
x,-y,-z
-x,y,-z
1/2+x,1/2+y,1/2+z
1/2-x,1/2-y,1/2+z
1/2+x,1/2-y,1/2-z
1/2-x,1/2+y,1/2-z
loop_
_atom_site_type_symbol
_atom_site_label
_atom_site_fract_x
_atom_site_fract_y
_atom_site_fract_z
Si Si1 0.212525 0.560691 0.720148
Si Si2 0.605175 0.000000 0.000000
Si Si3 0.099878 0.056222 0.228432
Si Si4 0.500000 0.500000 0.500000
Si Si5 0.718762 0.672340 0.593971
Si Si6 0.933935 0.803958 0.553511
O O1 0.148173 0.548397 0.646048
O O2 0.239241 0.405771 0.726180
O O3 0.252258 0.633720 0.578519
O O4 0.215421 0.662835 0.873131
O O5 0.571266 0.136560 0.936149
O O6 0.156159 0.102465 0.127494
O O7 0.102383 0.143491 0.396410
O O8 0.043221 0.086698 0.117466
O O9 0.089516 0.895376 0.292488
O O10 0.000000 0.840686 0.500000
#
# Coordination Sequence:
#
# PCOD9331007 Si02
#       6
#     8   4   8   2   8   8
#     4  10  23  39  60  89 118 157 198 242 302 360
#     4  10  21  39  62  86 119 149 202 254 284 350
#     4  11  22  37  64  89 118 156 201 249 297 360
#     4  12  20  40  60  90 130 142 200 262 294 358
#     4  10  22  39  59  90 120 155 198 242 301 356
#     4  11  21  40  63  89 111 161 211 239 293 369
#
# _framework density 21.316357
#
# number of rings (size 3 to 8) (size 9 to 14) (size 15 to 20)
#    0.000    1.684    4.211    2.211    5.895    0.842 
#    0.000    0.000    0.000    2.526    0.000    0.000 
#    0.000    0.000    0.000    0.000    0.000    0.000 
#
# Total GULP energy -105961.474564 kJ/mol
# GULP energy per Si atom -5576.919714 kJ/mol
# Density = 2.126784 g / cm^3
# Si number density = 21.316357 Si / 1000 Ang^3
#
#
#
# Elastic Constant Matrix: (Units=GPa)
#
#
# Indices 1 2 3 4 5 6 
#
# 1 74.6510 0.0459 2.9253 0.0000 0.0000 0.0000
# 2 0.0459 109.1180 1.5702 0.0000 0.0000 0.0000
# 3 2.9253 1.5702 63.6614 0.0000 0.0000 0.0000
# 4 0.0000 0.0000 0.0000 33.0672 0.0000 0.0000
# 5 0.0000 0.0000 0.0000 0.0000 -9.8607 0.0000
# 6 0.0000 0.0000 0.0000 0.0000 0.0000 -3.1253
#
#
#
# Elastic Compliance Matrix: (Units=1/GPa)
#
#
# Indices 1 2 3 4 5 6 
#
# 1 0.013420 0.000003 -0.000617 0.000000 0.000000 0.000000
# 2 0.000003 0.009168 -0.000226 0.000000 0.000000 0.000000
# 3 -0.000617 -0.000226 0.015742 0.000000 0.000000 0.000000
# 4 0.000000 0.000000 0.000000 0.030241 0.000000 0.000000
# 5 0.000000 0.000000 0.000000 0.000000 -0.101412 0.000000
# 6 0.000000 0.000000 0.000000 0.000000 0.000000 -0.319967
#
#
# Mechanical properties :
#
#
# Convention : Reuss Voigt Hill
#
# Bulk Modulus (GPa) = 27.28516 28.50147 27.89331
# Shear Modulus (GPa) = -14.75309 20.20884 2.72787
#
# Velocity S-wave (km/s) = -2.63364 3.08237 1.13247
# Velocity P-wave (km/s) = 1.89204 5.10566 3.85017
#
# Compressibility (1/GPa) = 0.03664996
#
# Stress axis : x y z
#
# Youngs Moduli (GPa) = 74.51654 109.07928 63.52426
#
# Poissons Ratio (x) = -0.00035 0.03918
# Poissons Ratio (y) = -0.00024 0.01437
# Poissons Ratio (z) = 0.04596 0.02468
#
# Static dielectric constant tensor:
#      x y z
#    x 1.805880 0.000000 0.000000 
#    y 0.000000 1.826710 0.000000 
#    z 0.000000 0.000000 1.800880 
# 
# From -- ./inp_files/12445.got.cif
#   From: 2010.05.17/outbox.cif.g08.bks.cpg/sg23_7_cif.got.tgz:12445.got - 2010.06.04 12:02:01.
