data_PCOD9331319
_publ_section_title
;
Structure prediction by ZEFSAII (Michael W. Deem and Ramdas Pophale) SiO2 
 PCOD9331319
Probable space group: I 2 2 2
;
_chemical_formula_sum "Si O2"
_cell_formula_units_Z 64
_cell_length_a 23.668914
_cell_length_b 14.226684
_cell_length_c 8.568710
_cell_angle_alpha 90.000000
_cell_angle_beta 90.000000
_cell_angle_gamma 90.000000
_cell_volume 2885.343090
_symmetry_space_group_name_H-M "I 2 2 2"
_symmetry_group_IT_number 23
_symmetry_cell_setting 'orthorhombic'
loop_
_space_group_symop_operation_xyz
x,y,z
-x,-y,z
x,-y,-z
-x,y,-z
1/2+x,1/2+y,1/2+z
1/2-x,1/2-y,1/2+z
1/2+x,1/2-y,1/2-z
1/2-x,1/2+y,1/2-z
loop_
_atom_site_type_symbol
_atom_site_label
_atom_site_fract_x
_atom_site_fract_y
_atom_site_fract_z
Si Si1 0.003961 0.605622 0.252872
Si Si2 0.902978 0.604879 0.023442
Si Si3 0.709830 0.357371 0.172642
Si Si4 0.739262 0.546290 0.336156
Si Si5 0.081324 0.112638 0.362659
Si Si6 0.609084 0.437463 0.652017
Si Si7 0.032105 0.808858 0.312196
Si Si8 0.710595 0.807790 0.609623
O O1 0.023731 0.698526 0.342840
O O2 0.000000 0.500000 0.321265
O O3 0.942300 0.618820 0.175449
O O4 0.051189 0.605865 0.115645
O O5 0.850971 0.675612 0.035875
O O6 0.877419 0.500000 0.000000
O O7 0.727891 0.462429 0.214313
O O8 0.643121 0.344121 0.147603
O O9 0.722292 0.294308 0.322371
O O10 0.743332 0.328312 0.020731
O O11 0.758033 0.500000 0.500000
O O12 0.675560 0.585955 0.357789
O O13 0.780103 0.621129 0.255743
O O14 0.056915 0.140734 0.532779
O O15 0.029252 0.151910 0.262684
O O16 0.093628 0.007841 0.296853
O O17 0.595718 0.500000 0.500000
O O18 0.574342 0.342473 0.676952
#
# Coordination Sequence:
#
# PCOD9331319 Si02
#       8
#     8   8   8   8   8   8   8   8
#     4   9  20  38  60  90 123 154 203 264 313 363
#     4   9  19  37  61  88 118 156 203 259 309 359
#     4  11  24  40  61  89 125 164 205 260 313 369
#     4  10  22  42  62  88 127 165 204 261 319 367
#     4  10  23  40  56  86 127 161 197 246 311 373
#     4  10  22  38  61  92 125 160 206 255 303 371
#     4  11  21  37  63  88 121 167 202 243 313 383
#     4  12  23  39  63  89 120 162 214 255 309 383
#
# _framework density 22.181069999999998
#
# number of rings (size 3 to 8) (size 9 to 14) (size 15 to 20)
#    0.000    1.750    0.000    4.875    0.000   11.000 
#    0.000    3.750    0.000    0.000    0.000    0.875 
#    0.000    1.000    0.000    0.000    0.000    0.000 
#
# Total GULP energy -178513.120312 kJ/mol
# GULP energy per Si atom -5578.535010 kJ/mol
# Density = 2.213059 g / cm^3
# Si number density = 22.181070 Si / 1000 Ang^3
#
#
#
# Elastic Constant Matrix: (Units=GPa)
#
#
# Indices 1 2 3 4 5 6 
#
# 1 67.4185 22.0832 29.0125 0.0000 0.0000 0.0000
# 2 22.0832 75.0315 23.3607 0.0000 0.0000 0.0000
# 3 29.0125 23.3607 71.7136 0.0000 0.0000 0.0000
# 4 0.0000 0.0000 0.0000 23.7346 0.0000 0.0000
# 5 0.0000 0.0000 0.0000 0.0000 11.0127 0.0000
# 6 0.0000 0.0000 0.0000 0.0000 0.0000 25.6988
#
#
#
# Elastic Compliance Matrix: (Units=1/GPa)
#
#
# Indices 1 2 3 4 5 6 
#
# 1 0.018757 -0.003514 -0.006443 0.000000 0.000000 0.000000
# 2 -0.003514 0.015490 -0.003624 0.000000 0.000000 0.000000
# 3 -0.006443 -0.003624 0.017732 0.000000 0.000000 0.000000
# 4 0.000000 0.000000 0.000000 0.042133 0.000000 0.000000
# 5 0.000000 0.000000 0.000000 0.000000 0.090804 0.000000
# 6 0.000000 0.000000 0.000000 0.000000 0.000000 0.038912
#
#
# Mechanical properties :
#
#
# Convention : Reuss Voigt Hill
#
# Bulk Modulus (GPa) = 40.29847 40.34184 40.32015
# Shear Modulus (GPa) = 19.28540 21.40304 20.34422
#
# Velocity S-wave (km/s) = 2.95185 3.10969 3.03180
# Velocity P-wave (km/s) = 5.46125 5.57858 5.52023
#
# Compressibility (1/GPa) = 0.02481484
#
# Stress axis : x y z
#
# Youngs Moduli (GPa) = 53.31437 64.55585 56.39617
#
# Poissons Ratio (x) = 0.22687 0.36338
# Poissons Ratio (y) = 0.18736 0.20439
# Poissons Ratio (z) = 0.34353 0.23397
#
# Static dielectric constant tensor:
#      x y z
#    x 1.774710 0.000000 0.000000 
#    y 0.000000 1.909580 0.000000 
#    z 0.000000 0.000000 1.889930 
# 
# From -- ./inp_files/12718.got.cif
#   From: 2010.05.17/outbox.cif.g08.bks.cpg/sg23_7_cif.got.tgz:12718.got - 2010.06.04 12:02:01.
