data_PCOD9331815
_publ_section_title
;
Structure prediction by ZEFSAII (Michael W. Deem and Ramdas Pophale) SiO2 
 PCOD9331815
Probable space group: I 2 2 2
;
_chemical_formula_sum "Si O2"
_cell_formula_units_Z 48
_cell_length_a 5.932690
_cell_length_b 26.971056
_cell_length_c 13.035471
_cell_angle_alpha 90.000000
_cell_angle_beta 90.000000
_cell_angle_gamma 90.000000
_cell_volume 2085.817632
_symmetry_space_group_name_H-M "I 2 2 2"
_symmetry_group_IT_number 23
_symmetry_cell_setting 'orthorhombic'
loop_
_space_group_symop_operation_xyz
x,y,z
-x,-y,z
x,-y,-z
-x,y,-z
1/2+x,1/2+y,1/2+z
1/2-x,1/2-y,1/2+z
1/2+x,1/2-y,1/2-z
1/2-x,1/2+y,1/2-z
loop_
_atom_site_type_symbol
_atom_site_label
_atom_site_fract_x
_atom_site_fract_y
_atom_site_fract_z
Si Si1 0.800056 0.056144 0.834910
Si Si2 0.000000 0.500000 0.173067
Si Si3 0.500000 0.500000 0.000000
Si Si4 0.000000 0.500000 0.500000
Si Si5 0.905291 0.763176 0.116193
Si Si6 0.787592 0.171938 0.272031
Si Si7 0.080754 0.651343 0.386834
Si Si8 0.099895 0.932654 0.339032
O O1 0.633439 0.037299 0.747467
O O2 0.780190 0.114412 0.856953
O O3 0.043643 0.050687 0.779258
O O4 0.681253 0.031152 0.932831
O O5 0.174719 0.461152 0.121851
O O6 0.421773 0.457856 0.916229
O O7 0.855101 0.707952 0.154170
O O8 0.670560 0.792961 0.115193
O O9 0.058893 0.792264 0.200092
O O10 0.000000 0.765592 0.000000
O O11 0.617699 0.145276 0.193655
O O12 0.897832 0.126636 0.335436
O O13 0.000000 0.639268 0.500000
#
# Coordination Sequence:
#
# PCOD9331815 Si02
#       8
#     8   4   2   2   8   8   8   8
#     4  11  22  43  71 108 145 185 239 297 366 443
#     4  11  22  44  69  98 146 189 232 302 355 424
#     4  12  28  54  72 108 146 200 260 322 356 436
#     4  10  24  40  76 114 148 190 234 296 378 454
#     4  12  26  47  74 107 147 192 245 310 373 446
#     4  12  26  47  74 105 149 194 243 313 372 446
#     4  12  23  42  74 107 144 189 244 297 376 445
#     4  12  26  49  75 102 148 196 253 310 369 436
#
# _framework density 23.012559
#
# number of rings (size 3 to 8) (size 9 to 14) (size 15 to 20)
#    0.000    0.333    9.167    0.000    0.000    0.333 
#   10.500   11.667    0.000    0.000    0.000    0.000 
#    0.000    0.000    0.000    0.000    0.000    0.000 
#
# Total GULP energy -133651.447265 kJ/mol
# GULP energy per Si atom -5568.810303 kJ/mol
# Density = 2.296018 g / cm^3
# Si number density = 23.012559 Si / 1000 Ang^3
#
#
#
# Elastic Constant Matrix: (Units=GPa)
#
#
# Indices 1 2 3 4 5 6 
#
# 1 53.3574 19.6891 22.5519 0.0000 0.0000 0.0000
# 2 19.6891 153.8253 55.2891 0.0000 0.0000 0.0000
# 3 22.5519 55.2891 111.1710 -0.0001 0.0000 0.0000
# 4 0.0000 0.0000 -0.0001 14.4845 0.0000 0.0000
# 5 0.0000 0.0000 0.0000 0.0000 21.7067 0.0000
# 6 0.0000 0.0000 0.0000 0.0000 0.0000 42.7503
#
#
#
# Elastic Compliance Matrix: (Units=1/GPa)
#
#
# Indices 1 2 3 4 5 6 
#
# 1 0.020741 -0.001391 -0.003516 0.000000 0.000000 0.000000
# 2 -0.001391 0.008009 -0.003701 0.000000 0.000000 0.000000
# 3 -0.003516 -0.003701 0.011549 0.000000 0.000000 0.000000
# 4 0.000000 0.000000 0.000000 0.069039 0.000000 0.000000
# 5 0.000000 0.000000 0.000000 0.000000 0.046069 0.000000
# 6 0.000000 0.000000 0.000000 0.000000 0.000000 0.023392
#
#
# Mechanical properties :
#
#
# Convention : Reuss Voigt Hill
#
# Bulk Modulus (GPa) = 43.32116 57.04600 50.18358
# Shear Modulus (GPa) = 24.54484 30.50985 27.52734
#
# Velocity S-wave (km/s) = 3.26940 3.64509 3.46235
# Velocity P-wave (km/s) = 5.75481 6.52369 6.15127
#
# Compressibility (1/GPa) = 0.02308341
#
# Stress axis : x y z
#
# Youngs Moduli (GPa) = 48.21427 124.85637 86.58783
#
# Poissons Ratio (x) = 0.17369 0.30440
# Poissons Ratio (y) = 0.06707 0.32047
# Poissons Ratio (z) = 0.16950 0.46210
#
# Static dielectric constant tensor:
#      x y z
#    x 2.163280 0.000000 0.000000 
#    y 0.000000 1.857730 0.000000 
#    z 0.000000 0.000000 1.879170 
# 
# From -- ./inp_files/19261.got.cif
#   From: 2010.05.17/outbox.cif.g08.bks.cpg/sg23_10_cif.got.tgz:19261.got - 2010.06.04 12:02:01.
