data_PCOD9331832
_publ_section_title
;
Structure prediction by ZEFSAII (Michael W. Deem and Ramdas Pophale) SiO2 
 PCOD9331832
Probable space group: I 2 2 2
;
_chemical_formula_sum "Si O2"
_cell_formula_units_Z 56
_cell_length_a 8.686377
_cell_length_b 15.681345
_cell_length_c 20.929988
_cell_angle_alpha 90.000000
_cell_angle_beta 90.000000
_cell_angle_gamma 90.000000
_cell_volume 2850.958945
_symmetry_space_group_name_H-M "I 2 2 2"
_symmetry_group_IT_number 23
_symmetry_cell_setting 'orthorhombic'
loop_
_space_group_symop_operation_xyz
x,y,z
-x,-y,z
x,-y,-z
-x,y,-z
1/2+x,1/2+y,1/2+z
1/2-x,1/2-y,1/2+z
1/2+x,1/2-y,1/2-z
1/2-x,1/2+y,1/2-z
loop_
_atom_site_type_symbol
_atom_site_label
_atom_site_fract_x
_atom_site_fract_y
_atom_site_fract_z
Si Si1 0.683709 0.992290 0.253623
Si Si2 0.704763 0.738011 0.557175
Si Si3 0.889258 0.903155 0.561424
Si Si4 0.702625 0.183531 0.216888
Si Si5 0.840572 0.678107 0.685353
Si Si6 0.811112 0.081041 0.615817
Si Si7 0.844781 0.244382 0.084254
O O1 0.741691 0.087124 0.238462
O O2 0.500000 0.000000 0.263291
O O3 0.708871 0.918804 0.201252
O O4 0.756306 0.953620 0.317088
O O5 0.754110 0.836570 0.560008
O O6 0.808114 0.694135 0.610952
O O7 0.526917 0.731750 0.576896
O O8 0.725392 0.711442 0.483109
O O9 0.000000 0.890952 0.500000
O O10 0.012367 0.885933 0.618139
O O11 0.823815 0.997445 0.571331
O O12 0.750494 0.253232 0.270225
O O13 0.519535 0.187084 0.204236
O O14 0.784038 0.203429 0.149442
O O15 0.702315 0.155905 0.590887
#
# Coordination Sequence:
#
# PCOD9331832 Si02
#       7
#     8   8   8   8   8   8   8
#     4  10  24  42  64  96 133 169 218 271 332 394
#     4  11  25  41  63  94 128 174 221 274 325 396
#     4  11  23  38  58  94 132 166 213 262 325 403
#     4  11  23  44  67  96 133 175 220 278 327 398
#     4  11  23  41  68  97 131 175 223 272 334 392
#     4  11  21  37  60  90 131 165 208 263 321 399
#     4  11  24  42  64  91 130 174 222 269 335 386
#
# _framework density 19.642513999999998
#
# number of rings (size 3 to 8) (size 9 to 14) (size 15 to 20)
#    0.000    1.143    2.857    3.429    4.000    1.143 
#    5.143    2.143    0.000    4.286    0.000    0.000 
#    0.000    0.000    0.000    0.000    0.000    0.000 
#
# Total GULP energy -156348.104089 kJ/mol
# GULP energy per Si atom -5583.860860 kJ/mol
# Density = 1.959781 g / cm^3
# Si number density = 19.642514 Si / 1000 Ang^3
#
#
#
# Elastic Constant Matrix: (Units=GPa)
#
#
# Indices 1 2 3 4 5 6 
#
# 1 16.9929 16.8669 19.3092 0.0000 0.0000 0.0000
# 2 16.8669 71.6192 33.5360 0.0000 0.0000 0.0000
# 3 19.3092 33.5360 120.5327 0.0000 0.0000 0.0000
# 4 0.0000 0.0000 0.0000 32.6952 0.0000 0.0000
# 5 0.0000 0.0000 0.0000 0.0000 33.6417 0.0000
# 6 0.0000 0.0000 0.0000 0.0000 0.0000 23.2173
#
#
#
# Elastic Compliance Matrix: (Units=1/GPa)
#
#
# Indices 1 2 3 4 5 6 
#
# 1 0.084901 -0.015667 -0.009242 0.000000 0.000000 0.000000
# 2 -0.015667 0.018946 -0.002761 0.000000 0.000000 0.000000
# 3 -0.009242 -0.002761 0.010545 0.000000 0.000000 0.000000
# 4 0.000000 0.000000 0.000000 0.030585 0.000000 0.000000
# 5 0.000000 0.000000 0.000000 0.000000 0.029725 0.000000
# 6 0.000000 0.000000 0.000000 0.000000 0.000000 0.043071
#
#
# Mechanical properties :
#
#
# Convention : Reuss Voigt Hill
#
# Bulk Modulus (GPa) = 16.93457 38.72986 27.83221
# Shear Modulus (GPa) = 17.07659 27.20637 22.14148
#
# Velocity S-wave (km/s) = 2.95170 3.72570 3.36106
# Velocity P-wave (km/s) = 4.50076 6.18611 5.40947
#
# Compressibility (1/GPa) = 0.05905082
#
# Stress axis : x y z
#
# Youngs Moduli (GPa) = 11.77841 52.78290 94.82860
#
# Poissons Ratio (x) = 0.82697 0.87640
# Poissons Ratio (y) = 0.18454 0.26186
# Poissons Ratio (z) = 0.10885 0.14575
#
# Static dielectric constant tensor:
#      x y z
#    x 1.699480 0.000000 0.000000 
#    y 0.000000 1.687890 0.000000 
#    z 0.000000 0.000000 1.758800 
# 
# From -- ./inp_files/26240.got.cif
#   From: 2010.05.17/outbox.cif.g08.bks.cpg/sg23_14_cif.got.tgz:26240.got - 2010.06.04 12:02:01.
