data_PCOD9331717
_publ_section_title
;
Structure prediction by ZEFSAII (Michael W. Deem and Ramdas Pophale) SiO2 
 PCOD9331717
Probable space group: I 2 2 2
;
_chemical_formula_sum "Si O2"
_cell_formula_units_Z 36
_cell_length_a 22.104463
_cell_length_b 11.463108
_cell_length_c 7.110697
_cell_angle_alpha 90.000000
_cell_angle_beta 90.000000
_cell_angle_gamma 90.000000
_cell_volume 1801.749980
_symmetry_space_group_name_H-M "I 2 2 2"
_symmetry_group_IT_number 23
_symmetry_cell_setting 'orthorhombic'
loop_
_space_group_symop_operation_xyz
x,y,z
-x,-y,z
x,-y,-z
-x,y,-z
1/2+x,1/2+y,1/2+z
1/2-x,1/2-y,1/2+z
1/2+x,1/2-y,1/2-z
1/2-x,1/2+y,1/2-z
loop_
_atom_site_type_symbol
_atom_site_label
_atom_site_fract_x
_atom_site_fract_y
_atom_site_fract_z
Si Si1 0.678564 0.780680 0.786310
Si Si2 0.289315 0.617330 0.887188
Si Si3 0.617997 0.635796 0.453801
Si Si4 0.050523 0.379558 0.382873
Si Si5 0.000000 0.296259 0.000000
O O1 0.723521 0.879354 0.709170
O O2 0.658248 0.691808 0.621659
O O3 0.616419 0.827792 0.869591
O O4 0.712099 0.716453 0.954900
O O5 0.341594 0.639504 0.734516
O O6 0.301492 0.500000 0.000000
O O7 0.604605 0.500000 0.500000
O O8 0.556762 0.713164 0.442706
O O9 0.056774 0.500000 0.500000
O O10 0.000000 0.308689 0.500000
O O11 0.024013 0.374940 0.172161
#
# Coordination Sequence:
#
# PCOD9331717 Si02
#       5
#     8   8   8   8   4
#     4  11  24  42  65  97 134 172 218 270 321 390
#     4  12  24  41  67  99 133 175 216 267 328 386
#     4  11  22  42  69  96 131 171 219 271 328 387
#     4  10  23  44  65  92 130 171 218 267 321 382
#     4  10  23  43  68  98 132 174 216 268 330 388
#
# _framework density 19.980575999999999
#
# number of rings (size 3 to 8) (size 9 to 14) (size 15 to 20)
#    0.000    1.111    4.444    1.667    0.000    4.444 
#   16.000    0.000    0.000    0.000    0.000    0.000 
#    0.000    0.000    0.000    0.000    0.000    0.000 
#
# Total GULP energy -100425.569413 kJ/mol
# GULP energy per Si atom -5579.198301 kJ/mol
# Density = 1.993510 g / cm^3
# Si number density = 19.980576 Si / 1000 Ang^3
#
#
#
# Elastic Constant Matrix: (Units=GPa)
#
#
# Indices 1 2 3 4 5 6 
#
# 1 134.9800 27.8511 39.5325 0.0000 0.0000 0.0000
# 2 27.8511 72.9639 35.8722 0.0000 0.0000 0.0000
# 3 39.5325 35.8722 91.1719 0.0000 0.0000 0.0000
# 4 0.0000 0.0000 0.0000 41.3929 0.0000 0.0000
# 5 0.0000 0.0000 0.0000 0.0000 39.8494 0.0000
# 6 0.0000 0.0000 0.0000 0.0000 0.0000 10.3313
#
#
#
# Elastic Compliance Matrix: (Units=1/GPa)
#
#
# Indices 1 2 3 4 5 6 
#
# 1 0.008675 -0.001813 -0.003048 0.000000 0.000000 0.000000
# 2 -0.001813 0.017371 -0.006049 0.000000 0.000000 0.000000
# 3 -0.003048 -0.006049 0.014670 0.000000 0.000000 0.000000
# 4 0.000000 0.000000 0.000000 0.024159 0.000000 0.000000
# 5 0.000000 0.000000 0.000000 0.000000 0.025094 0.000000
# 6 0.000000 0.000000 0.000000 0.000000 0.000000 0.096793
#
#
# Mechanical properties :
#
#
# Convention : Reuss Voigt Hill
#
# Bulk Modulus (GPa) = 52.91940 56.18079 54.55010
# Shear Modulus (GPa) = 23.26858 31.37205 27.32032
#
# Velocity S-wave (km/s) = 3.41627 3.96678 3.70177
# Velocity P-wave (km/s) = 6.48877 7.01136 6.75512
#
# Compressibility (1/GPa) = 0.01889666
#
# Stress axis : x y z
#
# Youngs Moduli (GPa) = 115.26916 57.56651 68.16610
#
# Poissons Ratio (x) = 0.10435 0.20780
# Poissons Ratio (y) = 0.20895 0.41232
# Poissons Ratio (z) = 0.35139 0.34821
#
# Static dielectric constant tensor:
#      x y z
#    x 1.713780 0.000000 0.000000 
#    y 0.000000 1.711870 0.000000 
#    z 0.000000 0.000000 1.713150 
# 
# From -- ./inp_files/1557.got.cif
#   From: 2010.05.17/outbox.cif.g08.bks.cpg/sg23_1_cif.got.tgz:1557.got - 2010.06.04 12:02:01.
