data_PCOD9331311
_publ_section_title
;
Structure prediction by ZEFSAII (Michael W. Deem and Ramdas Pophale) SiO2 
 PCOD9331311
Probable space group: I 2 2 2
;
_chemical_formula_sum "Si O2"
_cell_formula_units_Z 64
_cell_length_a 25.842731
_cell_length_b 9.358908
_cell_length_c 13.766320
_cell_angle_alpha 90.000000
_cell_angle_beta 90.000000
_cell_angle_gamma 90.000000
_cell_volume 3329.518602
_symmetry_space_group_name_H-M "I 2 2 2"
_symmetry_group_IT_number 23
_symmetry_cell_setting 'orthorhombic'
loop_
_space_group_symop_operation_xyz
x,y,z
-x,-y,z
x,-y,-z
-x,y,-z
1/2+x,1/2+y,1/2+z
1/2-x,1/2-y,1/2+z
1/2+x,1/2-y,1/2-z
1/2-x,1/2+y,1/2-z
loop_
_atom_site_type_symbol
_atom_site_label
_atom_site_fract_x
_atom_site_fract_y
_atom_site_fract_z
Si Si1 0.379091 0.469677 0.884239
Si Si2 0.495557 0.827006 0.616804
Si Si3 0.395576 0.281353 0.263541
Si Si4 0.663744 0.005281 0.737522
Si Si5 0.837929 0.998063 0.111335
Si Si6 0.757754 0.086353 0.596255
Si Si7 0.725135 0.914432 0.912369
Si Si8 0.598022 0.740717 0.720948
O O1 0.402656 0.601510 0.821619
O O2 0.316047 0.459863 0.871068
O O3 0.401181 0.325305 0.831310
O O4 0.387565 0.500000 0.000000
O O5 0.500000 0.798516 0.500000
O O6 0.444006 0.769924 0.671381
O O7 0.541686 0.746531 0.673388
O O8 0.500000 0.000000 0.628498
O O9 0.356606 0.358814 0.337417
O O10 0.365880 0.143568 0.223630
O O11 0.688257 0.912007 0.821998
O O12 0.621176 0.896994 0.697219
O O13 0.711678 0.053370 0.670844
O O14 0.776109 0.994349 0.113373
O O15 0.864807 0.868494 0.164987
O O16 0.854137 0.000000 0.000000
O O17 0.759272 0.252781 0.567462
O O18 0.745610 0.000000 0.500000
O O19 0.699621 0.000000 0.000000
#
# Coordination Sequence:
#
# PCOD9331311 Si02
#       8
#     8   8   8   8   8   8   8   8
#     4  10  24  44  66  91 129 166 215 265 316 376
#     4  11  24  43  68  99 130 159 205 262 322 385
#     4  11  23  42  65  93 124 169 211 261 319 379
#     4  12  24  37  63  89 128 169 209 256 318 368
#     4  10  22  38  59  91 133 164 209 256 311 383
#     4  11  25  39  61  93 129 171 215 257 312 376
#     4  11  25  39  60  92 127 168 214 260 308 372
#     4  11  23  42  65  92 125 169 213 262 320 378
#
# _framework density 19.221999
#
# number of rings (size 3 to 8) (size 9 to 14) (size 15 to 20)
#    0.000    1.125    3.750    2.250    7.000    3.000 
#    0.000    4.375    0.000    0.750    0.000    0.000 
#    0.000    0.000    0.000    0.000    0.000    0.000 
#
# Total GULP energy -178410.254150 kJ/mol
# GULP energy per Si atom -5575.320442 kJ/mol
# Density = 1.917825 g / cm^3
# Si number density = 19.221999 Si / 1000 Ang^3
#
#
#
# Elastic Constant Matrix: (Units=GPa)
#
#
# Indices 1 2 3 4 5 6 
#
# 1 38.9716 4.7558 24.2784 0.0000 0.0000 0.0000
# 2 4.7558 94.8941 17.5993 0.0000 0.0000 0.0000
# 3 24.2784 17.5993 96.0041 0.0000 0.0000 0.0000
# 4 0.0000 0.0000 0.0000 31.9677 0.0000 0.0000
# 5 0.0000 0.0000 0.0000 0.0000 -37.7742 0.0000
# 6 0.0000 0.0000 0.0000 0.0000 0.0000 32.4705
#
#
#
# Elastic Compliance Matrix: (Units=1/GPa)
#
#
# Indices 1 2 3 4 5 6 
#
# 1 0.030459 -0.000101 -0.007684 0.000000 0.000000 0.000000
# 2 -0.000101 0.010909 -0.001974 0.000000 0.000000 0.000000
# 3 -0.007684 -0.001974 0.012721 0.000000 0.000000 0.000000
# 4 0.000000 0.000000 0.000000 0.031282 0.000000 0.000000
# 5 0.000000 0.000000 0.000000 0.000000 -0.026473 0.000000
# 6 0.000000 0.000000 0.000000 0.000000 0.000000 0.030797
#
#
# Mechanical properties :
#
#
# Convention : Reuss Voigt Hill
#
# Bulk Modulus (GPa) = 28.92663 35.90408 32.41536
# Shear Modulus (GPa) = 41.41177 17.54854 29.48016
#
# Velocity S-wave (km/s) = 4.64658 3.02477 3.92046
# Velocity P-wave (km/s) = 6.62337 5.56041 6.11503
#
# Compressibility (1/GPa) = 0.03457022
#
# Stress axis : x y z
#
# Youngs Moduli (GPa) = 32.83082 91.66498 78.60780
#
# Poissons Ratio (x) = 0.00929 0.60404
# Poissons Ratio (y) = 0.00333 0.15519
# Poissons Ratio (z) = 0.25228 0.18097
#
# Static dielectric constant tensor:
#      x y z
#    x 1.661460 0.000000 0.000000 
#    y 0.000000 1.678420 0.000000 
#    z 0.000000 0.000000 1.693400 
# 
# From -- ./inp_files/22614.got.cif
#   From: 2010.05.17/outbox.cif.g08.bks.cpg/sg23_12_cif.got.tgz:22614.got - 2010.06.04 12:02:01.
