data_PCOD9331599
_publ_section_title
;
Structure prediction by ZEFSAII (Michael W. Deem and Ramdas Pophale) SiO2 
 PCOD9331599
Probable space group: I 2 2 2
;
_chemical_formula_sum "Si O2"
_cell_formula_units_Z 36
_cell_length_a 21.245815
_cell_length_b 12.527553
_cell_length_c 5.303183
_cell_angle_alpha 90.000000
_cell_angle_beta 90.000000
_cell_angle_gamma 90.000000
_cell_volume 1411.484970
_symmetry_space_group_name_H-M "I 2 2 2"
_symmetry_group_IT_number 23
_symmetry_cell_setting 'orthorhombic'
loop_
_space_group_symop_operation_xyz
x,y,z
-x,-y,z
x,-y,-z
-x,y,-z
1/2+x,1/2+y,1/2+z
1/2-x,1/2-y,1/2+z
1/2+x,1/2-y,1/2-z
1/2-x,1/2+y,1/2-z
loop_
_atom_site_type_symbol
_atom_site_label
_atom_site_fract_x
_atom_site_fract_y
_atom_site_fract_z
Si Si1 0.562063 0.824202 0.338363
Si Si2 0.740199 0.607332 0.597038
Si Si3 0.000000 0.500000 0.500000
Si Si4 0.429080 0.610339 0.884674
Si Si5 0.000000 0.000000 0.000000
Si Si6 0.813305 0.340673 0.898866
O O1 0.500000 0.792427 0.500000
O O2 0.541751 0.922774 0.169941
O O3 0.591564 0.732161 0.149435
O O4 0.615078 0.858591 0.533923
O O5 0.706348 0.500000 0.500000
O O6 0.771127 0.608872 0.874347
O O7 0.698101 0.712949 0.588443
O O8 0.791930 0.621220 0.375308
O O9 0.448085 0.580246 0.605991
O O10 0.399144 0.500000 0.000000
O O11 0.500000 0.613946 0.000000
#
# Coordination Sequence:
#
# PCOD9331599 Si02
#       6
#     8   8   2   8   2   8
#     4  12  26  45  65 102 149 193 248 290 364 455
#     4  10  22  47  74 105 138 181 246 309 370 423
#     4  12  30  44  62  98 142 200 246 290 356 456
#     4   9  18  35  60  87 123 179 225 284 341 408
#     4   8  14  32  56  80 110 168 218 260 334 390
#     4  10  25  44  74 107 140 190 240 302 366 436
#
# _framework density 25.505056
#
# number of rings (size 3 to 8) (size 9 to 14) (size 15 to 20)
#    0.000    2.000    2.222    1.000    4.667    1.778 
#    2.000    4.444    0.000    0.000    0.000    0.000 
#    0.000    0.000    0.000    0.000    0.000    0.000 
#
# Total GULP energy -100411.321830 kJ/mol
# GULP energy per Si atom -5578.406768 kJ/mol
# Density = 2.544701 g / cm^3
# Si number density = 25.505056 Si / 1000 Ang^3
#
#
#
# Elastic Constant Matrix: (Units=GPa)
#
#
# Indices 1 2 3 4 5 6 
#
# 1 71.3575 0.6079 28.0088 0.0000 0.0000 0.0000
# 2 0.6079 175.9674 50.1299 0.0000 0.0000 0.0000
# 3 28.0088 50.1299 79.7496 0.0000 0.0000 0.0000
# 4 0.0000 0.0000 0.0000 48.9878 0.0000 0.0000
# 5 0.0000 0.0000 0.0000 0.0000 3.5874 0.0000
# 6 0.0000 0.0000 0.0000 0.0000 0.0000 -26.0286
#
#
#
# Elastic Compliance Matrix: (Units=1/GPa)
#
#
# Indices 1 2 3 4 5 6 
#
# 1 0.016801 0.001977 -0.007143 0.000000 0.000000 0.000000
# 2 0.001977 0.007155 -0.005192 0.000000 0.000000 0.000000
# 3 -0.007143 -0.005192 0.018312 0.000000 0.000000 0.000000
# 4 0.000000 0.000000 0.000000 0.020413 0.000000 0.000000
# 5 0.000000 0.000000 0.000000 0.000000 0.278757 0.000000
# 6 0.000000 0.000000 0.000000 0.000000 0.000000 -0.038419
#
#
# Mechanical properties :
#
#
# Convention : Reuss Voigt Hill
#
# Bulk Modulus (GPa) = 46.40146 53.84086 50.12116
# Shear Modulus (GPa) = 15.10944 21.86448 18.48696
#
# Velocity S-wave (km/s) = 2.43659 2.93108 2.69520
# Velocity P-wave (km/s) = 5.11356 5.71057 5.42029
#
# Compressibility (1/GPa) = 0.02155105
#
# Stress axis : x y z
#
# Youngs Moduli (GPa) = 59.52042 139.75953 54.60990
#
# Poissons Ratio (x) = -0.27630 0.39010
# Poissons Ratio (y) = -0.11767 0.28353
# Poissons Ratio (z) = 0.42518 0.72563
#
# Static dielectric constant tensor:
#      x y z
#    x 1.959720 0.000000 0.000000 
#    y 0.000000 2.150840 0.000000 
#    z 0.000000 0.000000 2.966100 
# 
# From -- ./inp_files/4321.got.cif
#   From: 2010.05.17/outbox.cif.g08.bks.cpg/sg23_3_cif.got.tgz:4321.got - 2010.06.04 12:02:01.
