data_PCOD9331870
_publ_section_title
;
Structure prediction by ZEFSAII (Michael W. Deem and Ramdas Pophale) SiO2 
 PCOD9331870
Probable space group: I 2 2 2
;
_chemical_formula_sum "Si O2"
_cell_formula_units_Z 48
_cell_length_a 8.403837
_cell_length_b 7.670606
_cell_length_c 31.455751
_cell_angle_alpha 90.000000
_cell_angle_beta 90.000000
_cell_angle_gamma 90.000000
_cell_volume 2027.717057
_symmetry_space_group_name_H-M "I 2 2 2"
_symmetry_group_IT_number 23
_symmetry_cell_setting 'orthorhombic'
loop_
_space_group_symop_operation_xyz
x,y,z
-x,-y,z
x,-y,-z
-x,y,-z
1/2+x,1/2+y,1/2+z
1/2-x,1/2-y,1/2+z
1/2+x,1/2-y,1/2-z
1/2-x,1/2+y,1/2-z
loop_
_atom_site_type_symbol
_atom_site_label
_atom_site_fract_x
_atom_site_fract_y
_atom_site_fract_z
Si Si1 0.316515 0.065230 0.045364
Si Si2 0.303252 0.284470 0.392002
Si Si3 0.137753 0.265767 0.304055
Si Si4 0.318595 0.563683 0.915847
Si Si5 0.097090 0.323210 0.157532
Si Si6 0.801587 0.659060 0.725378
O O1 0.305250 0.272798 0.052168
O O2 0.500000 0.000000 0.047639
O O3 0.232524 0.958206 0.082631
O O4 0.253759 0.000000 0.000000
O O5 0.175330 0.253639 0.353826
O O6 0.285640 0.112552 0.421789
O O7 0.473299 0.289301 0.369635
O O8 0.172626 0.465174 0.291262
O O9 0.259846 0.158253 0.274971
O O10 0.957637 0.233383 0.288905
O O11 0.500000 0.500000 0.915341
O O12 0.251755 0.638923 0.871287
O O13 0.151253 0.237154 0.200818
O O14 0.000000 0.500000 0.163987
#
# Coordination Sequence:
#
# PCOD9331870 Si02
#       6
#     8   8   8   8   8   8
#     4  11  25  45  72 110 142 182 240 301 372 447
#     4  11  24  45  70 105 139 189 243 298 370 434
#     4  11  26  42  68 101 144 188 245 300 360 436
#     4  11  22  42  73 101 140 187 235 295 353 430
#     4  10  24  43  71 101 143 189 243 297 361 437
#     4  11  25  43  66 100 142 190 241 303 360 419
#
# _framework density 23.671941
#
# number of rings (size 3 to 8) (size 9 to 14) (size 15 to 20)
#    0.000    1.167    1.667    3.000    9.333    5.333 
#    0.000    1.667    0.000    3.000    0.000    0.000 
#    0.000    0.000    0.000    0.000    0.000    0.000 
#
# Total GULP energy -134391.766179 kJ/mol
# GULP energy per Si atom -5599.656924 kJ/mol
# Density = 2.361806 g / cm^3
# Si number density = 23.671941 Si / 1000 Ang^3
#
#
#
# Elastic Constant Matrix: (Units=GPa)
#
#
# Indices 1 2 3 4 5 6 
#
# 1 96.5391 35.8553 53.8264 0.0000 0.0000 0.0000
# 2 35.8553 122.1094 49.3015 0.0000 0.0000 0.0000
# 3 53.8264 49.3015 105.2765 0.0000 0.0000 0.0000
# 4 0.0000 0.0000 0.0000 31.5176 0.0000 0.0000
# 5 0.0000 0.0000 0.0000 0.0000 18.3448 0.0000
# 6 0.0000 0.0000 0.0000 0.0000 0.0000 39.2735
#
#
#
# Elastic Compliance Matrix: (Units=1/GPa)
#
#
# Indices 1 2 3 4 5 6 
#
# 1 0.014733 -0.001584 -0.006791 0.000000 0.000000 0.000000
# 2 -0.001584 0.010269 -0.003999 0.000000 0.000000 0.000000
# 3 -0.006791 -0.003999 0.014844 0.000000 0.000000 0.000000
# 4 0.000000 0.000000 0.000000 0.031728 0.000000 0.000000
# 5 0.000000 0.000000 0.000000 0.000000 0.054511 0.000000
# 6 0.000000 0.000000 0.000000 0.000000 0.000000 0.025462
#
#
# Mechanical properties :
#
#
# Convention : Reuss Voigt Hill
#
# Bulk Modulus (GPa) = 66.23633 66.87683 66.55658
# Shear Modulus (GPa) = 27.57407 30.15663 28.86535
#
# Velocity S-wave (km/s) = 3.41668 3.57310 3.49577
# Velocity P-wave (km/s) = 6.60353 6.73317 6.66867
#
# Compressibility (1/GPa) = 0.01509745
#
# Stress axis : x y z
#
# Youngs Moduli (GPa) = 67.87336 97.37852 67.36853
#
# Poissons Ratio (x) = 0.15428 0.45750
# Poissons Ratio (y) = 0.10753 0.26941
# Poissons Ratio (z) = 0.46093 0.38942
#
# Static dielectric constant tensor:
#      x y z
#    x 1.934570 0.000000 0.000000 
#    y 0.000000 1.913660 0.000000 
#    z 0.000000 0.000000 1.870760 
# 
# From -- ./inp_files/30255.got.cif
#   From: 2010.05.17/outbox.cif.g08.bks.cpg/sg23_16_cif.got.tgz:30255.got - 2010.06.04 12:02:01.
