data_PCOD9331308
_publ_section_title
;
Structure prediction by ZEFSAII (Michael W. Deem and Ramdas Pophale) SiO2 
 PCOD9331308
Probable space group: I 2 2 2
;
_chemical_formula_sum "Si O2"
_cell_formula_units_Z 56
_cell_length_a 13.826080
_cell_length_b 8.471580
_cell_length_c 21.782607
_cell_angle_alpha 90.000000
_cell_angle_beta 90.000000
_cell_angle_gamma 90.000000
_cell_volume 2551.369373
_symmetry_space_group_name_H-M "I 2 2 2"
_symmetry_group_IT_number 23
_symmetry_cell_setting 'orthorhombic'
loop_
_space_group_symop_operation_xyz
x,y,z
-x,-y,z
x,-y,-z
-x,y,-z
1/2+x,1/2+y,1/2+z
1/2-x,1/2-y,1/2+z
1/2+x,1/2-y,1/2-z
1/2-x,1/2+y,1/2-z
loop_
_atom_site_type_symbol
_atom_site_label
_atom_site_fract_x
_atom_site_fract_y
_atom_site_fract_z
Si Si1 0.759482 0.508638 0.299074
Si Si2 0.101735 0.727056 0.972344
Si Si3 0.217127 0.016905 0.568847
Si Si4 0.015422 0.175964 0.148619
Si Si5 0.140994 0.168207 0.692232
Si Si6 0.050864 0.670186 0.732479
Si Si7 0.183633 0.798541 0.098336
O O1 0.803015 0.334180 0.296596
O O2 0.686478 0.549266 0.243140
O O3 0.846557 0.636095 0.296995
O O4 0.715649 0.546968 0.365562
O O5 0.179332 0.602417 0.945768
O O6 0.067881 0.831406 0.915944
O O7 0.151461 0.818580 0.028196
O O8 0.000000 0.664006 0.000000
O O9 0.161697 0.109234 0.622881
O O10 0.171775 0.000000 0.500000
O O11 0.240867 0.843838 0.594889
O O12 0.071001 0.275557 0.198362
O O13 0.911304 0.255612 0.136516
O O14 0.000000 0.000000 0.171621
O O15 0.027621 0.208891 0.703961
O O16 0.000000 0.500000 0.733393
#
# Coordination Sequence:
#
# PCOD9331308 Si02
#       7
#     8   8   8   8   8   8   8
#     4  11  23  40  64  94 129 174 213 274 325 389
#     4   9  21  37  58  85 127 172 212 260 319 396
#     4  10  22  40  61  90 123 172 218 265 323 387
#     4  11  23  35  56  94 131 166 213 258 322 385
#     4  11  23  41  66  94 130 170 223 265 331 392
#     4  10  24  41  63  93 128 171 216 268 326 390
#     4  10  22  38  56  87 129 165 214 258 323 379
#
# _framework density 21.948996999999999
#
# number of rings (size 3 to 8) (size 9 to 14) (size 15 to 20)
#    0.000    1.714    1.429    1.714    8.000    9.714 
#    2.571    0.000    0.000    6.000    0.000   12.000 
#    0.000    0.000    0.000    0.000    0.000    0.000 
#
# Total GULP energy -156424.878663 kJ/mol
# GULP energy per Si atom -5586.602809 kJ/mol
# Density = 2.189904 g / cm^3
# Si number density = 21.948997 Si / 1000 Ang^3
#
#
#
# Elastic Constant Matrix: (Units=GPa)
#
#
# Indices 1 2 3 4 5 6 
#
# 1 63.9215 4.6008 36.2011 0.0000 0.0000 0.0000
# 2 4.6008 39.3869 28.6794 0.0000 0.0000 0.0000
# 3 36.2011 28.6794 123.8232 0.0000 0.0000 0.0000
# 4 0.0000 0.0000 0.0000 41.1454 0.0000 0.0000
# 5 0.0000 0.0000 0.0000 0.0000 37.7469 0.0000
# 6 0.0000 0.0000 0.0000 0.0000 0.0000 23.8605
#
#
#
# Elastic Compliance Matrix: (Units=1/GPa)
#
#
# Indices 1 2 3 4 5 6 
#
# 1 0.018903 0.002184 -0.006033 0.000000 0.000000 0.000000
# 2 0.002184 0.030792 -0.007771 0.000000 0.000000 0.000000
# 3 -0.006033 -0.007771 0.011640 0.000000 0.000000 0.000000
# 4 0.000000 0.000000 0.000000 0.024304 0.000000 0.000000
# 5 0.000000 0.000000 0.000000 0.000000 0.026492 0.000000
# 6 0.000000 0.000000 0.000000 0.000000 0.000000 0.041910
#
#
# Mechanical properties :
#
#
# Convention : Reuss Voigt Hill
#
# Bulk Modulus (GPa) = 26.24834 40.67714 33.46274
# Shear Modulus (GPa) = 26.31881 31.06060 28.68971
#
# Velocity S-wave (km/s) = 3.46654 3.76590 3.61932
# Velocity P-wave (km/s) = 5.29219 6.12226 5.72230
#
# Compressibility (1/GPa) = 0.03809765
#
# Stress axis : x y z
#
# Youngs Moduli (GPa) = 52.90039 32.47587 85.91422
#
# Poissons Ratio (x) = -0.07094 0.51829
# Poissons Ratio (y) = -0.11556 0.66760
# Poissons Ratio (z) = 0.31913 0.25236
#
# Static dielectric constant tensor:
#      x y z
#    x 1.869020 0.000000 0.000000 
#    y 0.000000 1.810280 0.000000 
#    z 0.000000 0.000000 1.785220 
# 
# From -- ./inp_files/27004.got.cif
#   From: 2010.05.17/outbox.cif.g08.bks.cpg/sg23_14_cif.got.tgz:27004.got - 2010.06.04 12:02:01.
