data_PCOD9331230
_publ_section_title
;
Structure prediction by ZEFSAII (Michael W. Deem and Ramdas Pophale) SiO2 
 PCOD9331230
Probable space group: I 2 2 2
;
_chemical_formula_sum "Si O2"
_cell_formula_units_Z 54
_cell_length_a 6.418804
_cell_length_b 29.841359
_cell_length_c 13.146070
_cell_angle_alpha 90.000000
_cell_angle_beta 90.000000
_cell_angle_gamma 90.000000
_cell_volume 2518.074949
_symmetry_space_group_name_H-M "I 2 2 2"
_symmetry_group_IT_number 23
_symmetry_cell_setting 'orthorhombic'
loop_
_space_group_symop_operation_xyz
x,y,z
-x,-y,z
x,-y,-z
-x,y,-z
1/2+x,1/2+y,1/2+z
1/2-x,1/2-y,1/2+z
1/2+x,1/2-y,1/2-z
1/2-x,1/2+y,1/2-z
loop_
_atom_site_type_symbol
_atom_site_label
_atom_site_fract_x
_atom_site_fract_y
_atom_site_fract_z
Si Si1 0.208222 0.973049 0.404605
Si Si2 0.467992 0.150465 0.837055
Si Si3 0.596181 0.610594 0.200247
Si Si4 0.000000 0.500000 0.728858
Si Si5 0.761450 0.072943 0.864599
Si Si6 0.164716 0.803611 0.712583
Si Si7 0.858364 0.777546 0.898952
Si Si8 0.500000 0.500000 0.500000
O O1 0.159478 0.920445 0.395845
O O2 0.323464 0.983311 0.302251
O O3 0.300720 0.000000 0.500000
O O4 0.000000 0.000000 0.393148
O O5 0.302737 0.123911 0.764418
O O6 0.638417 0.118588 0.894367
O O7 0.620608 0.179227 0.764064
O O8 0.312674 0.182327 0.901087
O O9 0.432371 0.585824 0.277932
O O10 0.468348 0.654839 0.168912
O O11 0.070336 0.456938 0.670934
O O12 0.868252 0.036304 0.936726
O O13 0.227777 0.766789 0.629689
O O14 0.016467 0.785394 0.803734
O O15 0.000000 0.775246 0.000000
#
# Coordination Sequence:
#
# PCOD9331230 Si02
#       8
#     8   8   8   4   8   8   8   2
#     4  11  22  38  65  97 133 174 235 289 331 409
#     4  10  22  45  71  97 140 189 226 292 360 419
#     4  10  21  44  68  98 137 185 229 284 362 416
#     4  12  21  41  66  88 128 194 224 271 359 408
#     4  11  24  44  68  92 139 187 226 296 352 419
#     4  10  22  44  73 101 145 183 230 298 361 428
#     4  11  23  45  75 109 139 186 242 288 364 451
#     4  12  28  46  60 112 140 172 256 298 344 436
#
# _framework density 21.444953000000002
#
# number of rings (size 3 to 8) (size 9 to 14) (size 15 to 20)
#    0.000    1.333    4.444    1.111    0.000    0.889 
#   14.667    2.963    0.000    0.000    0.000    0.000 
#    0.000    0.000    0.000    0.000    0.000    0.000 
#
# Total GULP energy -150379.457043 kJ/mol
# GULP energy per Si atom -5569.609520 kJ/mol
# Density = 2.139614 g / cm^3
# Si number density = 21.444953 Si / 1000 Ang^3
#
#
#
# Elastic Constant Matrix: (Units=GPa)
#
#
# Indices 1 2 3 4 5 6 
#
# 1 108.4580 54.9637 15.4842 0.0001 0.0000 0.0000
# 2 54.9637 170.8219 65.0254 0.0000 0.0000 0.0000
# 3 15.4842 65.0254 51.3848 -0.0002 0.0000 0.0001
# 4 0.0001 0.0000 -0.0002 -99.8542 0.0001 0.0001
# 5 0.0000 0.0000 0.0000 0.0001 33.2811 0.0000
# 6 0.0000 0.0000 0.0001 0.0001 0.0000 56.0320
#
#
#
# Elastic Compliance Matrix: (Units=1/GPa)
#
#
# Indices 1 2 3 4 5 6 
#
# 1 0.011153 -0.004456 0.002277 0.000000 0.000000 0.000000
# 2 -0.004456 0.013075 -0.015203 0.000000 0.000000 0.000000
# 3 0.002277 -0.015203 0.038014 0.000000 0.000000 0.000000
# 4 0.000000 0.000000 0.000000 -0.010015 0.000000 0.000000
# 5 0.000000 0.000000 0.000000 0.000000 0.030047 0.000000
# 6 0.000000 0.000000 0.000000 0.000000 0.000000 0.017847
#
#
# Mechanical properties :
#
#
# Convention : Reuss Voigt Hill
#
# Bulk Modulus (GPa) = 36.39126 66.84569 51.61848
# Shear Modulus (GPa) = 34.71186 10.90455 22.80820
#
# Velocity S-wave (km/s) = 4.02761 2.25742 3.26478
# Velocity P-wave (km/s) = 6.21573 6.16710 6.19146
#
# Compressibility (1/GPa) = 0.02747912
#
# Stress axis : x y z
#
# Youngs Moduli (GPa) = 89.66238 76.48234 26.30635
#
# Poissons Ratio (x) = 0.34077 -0.05991
# Poissons Ratio (y) = 0.39949 0.39994
# Poissons Ratio (z) = -0.20420 1.16277
#
# Static dielectric constant tensor:
#      x y z
#    x 1.801100 0.000000 0.000000 
#    y 0.000000 1.810990 0.000000 
#    z 0.000000 0.000000 1.724420 
# 
# From -- ./inp_files/19349.got.cif
#   From: 2010.05.17/outbox.cif.g08.bks.cpg/sg23_10_cif.got.tgz:19349.got - 2010.06.04 12:02:01.
