data_PCOD9331250
_publ_section_title
;
Structure prediction by ZEFSAII (Michael W. Deem and Ramdas Pophale) SiO2 
 PCOD9331250
Probable space group: I 2 2 2
;
_chemical_formula_sum "Si O2"
_cell_formula_units_Z 32
_cell_length_a 5.110187
_cell_length_b 16.278872
_cell_length_c 15.956911
_cell_angle_alpha 90.000000
_cell_angle_beta 90.000000
_cell_angle_gamma 90.000000
_cell_volume 1327.424790
_symmetry_space_group_name_H-M "I 2 2 2"
_symmetry_group_IT_number 23
_symmetry_cell_setting 'orthorhombic'
loop_
_space_group_symop_operation_xyz
x,y,z
-x,-y,z
x,-y,-z
-x,y,-z
1/2+x,1/2+y,1/2+z
1/2-x,1/2-y,1/2+z
1/2+x,1/2-y,1/2-z
1/2-x,1/2+y,1/2-z
loop_
_atom_site_type_symbol
_atom_site_label
_atom_site_fract_x
_atom_site_fract_y
_atom_site_fract_z
Si Si1 0.000000 0.000000 0.702609
Si Si2 0.000000 0.500000 0.500000
Si Si3 0.364685 0.368832 0.084160
Si Si4 0.926244 0.237644 0.805393
Si Si5 0.500000 0.000000 0.500000
Si Si6 0.683709 0.569655 0.362573
O O1 0.945022 0.080958 0.647341
O O2 0.218976 0.032134 0.768869
O O3 0.914385 0.568031 0.428261
O O4 0.194885 0.300145 0.128257
O O5 0.500000 0.337227 0.000000
O O6 0.177909 0.442079 0.055492
O O7 0.536130 0.345219 0.652659
O O8 0.176575 0.274885 0.756152
O O9 0.500000 0.500000 0.404105
#
# Coordination Sequence:
#
# PCOD9331250 Si02
#       6
#     4   2   8   8   2   8
#     4  10  21  49  76 110 160 220 266 331 413 500
#     4  12  26  54  84 122 154 230 278 352 408 496
#     4  12  26  50  80 123 171 213 278 340 421 496
#     4  12  29  53  83 126 166 218 282 344 412 490
#     4  12  26  42  84 114 166 222 262 352 408 504
#     4  10  26  50  84 112 163 221 282 335 418 497
#
# _framework density 24.106826000000002
#
# number of rings (size 3 to 8) (size 9 to 14) (size 15 to 20)
#    0.750    0.000    5.000    0.375   10.500    1.000 
#    6.750    2.500    0.000    0.000    0.000    0.000 
#    0.000    0.000    0.000    0.000    0.000    0.000 
#
# Total GULP energy -89220.000786 kJ/mol
# GULP energy per Si atom -5576.250049 kJ/mol
# Density = 2.405196 g / cm^3
# Si number density = 24.106826 Si / 1000 Ang^3
#
#
#
# Elastic Constant Matrix: (Units=GPa)
#
#
# Indices 1 2 3 4 5 6 
#
# 1 96.5141 68.6435 62.9529 0.0000 0.0000 0.0000
# 2 68.6435 190.9758 101.8681 0.0000 0.0000 0.0000
# 3 62.9529 101.8681 185.8784 0.0000 0.0000 0.0000
# 4 0.0000 0.0000 0.0000 26.5857 0.0000 0.0000
# 5 0.0000 0.0000 0.0000 0.0000 29.6402 0.0000
# 6 0.0000 0.0000 0.0000 0.0000 0.0000 38.0636
#
#
#
# Elastic Compliance Matrix: (Units=1/GPa)
#
#
# Indices 1 2 3 4 5 6 
#
# 1 0.015022 -0.003795 -0.003008 0.000000 0.000000 0.000000
# 2 -0.003795 0.008358 -0.003295 0.000000 0.000000 0.000000
# 3 -0.003008 -0.003295 0.008204 0.000000 0.000000 0.000000
# 4 0.000000 0.000000 0.000000 0.037614 0.000000 0.000000
# 5 0.000000 0.000000 0.000000 0.000000 0.033738 0.000000
# 6 0.000000 0.000000 0.000000 0.000000 0.000000 0.026272
#
#
# Mechanical properties :
#
#
# Convention : Reuss Voigt Hill
#
# Bulk Modulus (GPa) = 87.80828 104.47747 96.14288
# Shear Modulus (GPa) = 32.63681 34.85150 33.74416
#
# Velocity S-wave (km/s) = 3.68345 3.80638 3.74542
# Velocity P-wave (km/s) = 7.38878 7.92158 7.65982
#
# Compressibility (1/GPa) = 0.01138845
#
# Stress axis : x y z
#
# Youngs Moduli (GPa) = 66.56762 119.64511 121.88536
#
# Poissons Ratio (x) = 0.45407 0.36661
# Poissons Ratio (y) = 0.25263 0.40163
# Poissons Ratio (z) = 0.20023 0.39425
#
# Static dielectric constant tensor:
#      x y z
#    x 2.400120 0.000000 0.000000 
#    y 0.000000 1.891900 0.000000 
#    z 0.000000 0.000000 2.026170 
# 
# From -- ./inp_files/19003.got.cif
#   From: 2010.05.17/outbox.cif.g08.bks.cpg/sg23_10_cif.got.tgz:19003.got - 2010.06.04 12:02:01.
