data_PCOD9331424
_publ_section_title
;
Structure prediction by ZEFSAII (Michael W. Deem and Ramdas Pophale) SiO2 
 PCOD9331424
Probable space group: I 2 2 2
;
_chemical_formula_sum "Si O2"
_cell_formula_units_Z 34
_cell_length_a 13.957346
_cell_length_b 22.891739
_cell_length_c 5.048713
_cell_angle_alpha 90.000000
_cell_angle_beta 90.000000
_cell_angle_gamma 90.000000
_cell_volume 1613.103798
_symmetry_space_group_name_H-M "I 2 2 2"
_symmetry_group_IT_number 23
_symmetry_cell_setting 'orthorhombic'
loop_
_space_group_symop_operation_xyz
x,y,z
-x,-y,z
x,-y,-z
-x,y,-z
1/2+x,1/2+y,1/2+z
1/2-x,1/2-y,1/2+z
1/2+x,1/2-y,1/2-z
1/2-x,1/2+y,1/2-z
loop_
_atom_site_type_symbol
_atom_site_label
_atom_site_fract_x
_atom_site_fract_y
_atom_site_fract_z
Si Si1 0.589982 0.395808 0.190467
Si Si2 0.715132 0.068662 0.443816
Si Si3 0.500000 0.218745 0.000000
Si Si4 0.500000 0.301095 0.500000
Si Si5 0.500000 0.500000 0.500000
Si Si6 0.894778 0.604870 0.554440
O O1 0.585119 0.345221 0.411655
O O2 0.566389 0.457696 0.326809
O O3 0.500000 0.383782 0.000000
O O4 0.685992 0.400649 0.024333
O O5 0.683242 0.078685 0.143316
O O6 0.723427 0.000000 0.500000
O O7 0.635670 0.094719 0.644380
O O8 0.483869 0.259062 0.252386
O O9 0.588293 0.173032 0.016986
O O10 0.000000 0.577912 0.500000
#
# Coordination Sequence:
#
# PCOD9331424 Si02
#       6
#     8   8   4   4   2   8
#     4  11  25  42  68 106 141 181 226 275 350 424
#     4  12  25  41  71 105 141 176 224 280 348 425
#     4  10  22  48  71  91 132 186 228 302 332 388
#     4  11  22  43  78  92 135 182 233 282 352 396
#     4  10  22  40  68  94 154 190 206 286 350 410
#     4  10  25  45  70  95 139 180 233 284 343 398
#
# _framework density 21.077376999999998
#
# number of rings (size 3 to 8) (size 9 to 14) (size 15 to 20)
#    0.706    0.471    1.176    4.588    9.882    2.824 
#    0.000    4.706    0.000    0.000    0.000    0.000 
#    0.000    0.000    0.000    0.000    0.000    0.000 
#
# Total GULP energy -95006.373044 kJ/mol
# GULP energy per Si atom -5588.610179 kJ/mol
# Density = 2.102940 g / cm^3
# Si number density = 21.077377 Si / 1000 Ang^3
#
#
#
# Elastic Constant Matrix: (Units=GPa)
#
#
# Indices 1 2 3 4 5 6 
#
# 1 72.4536 3.1837 -6.9824 0.0001 0.0000 0.0001
# 2 3.1837 116.7363 22.4533 0.0002 0.0000 0.0000
# 3 -6.9824 22.4533 82.2258 -0.0001 0.0004 0.0000
# 4 0.0001 0.0002 -0.0001 48.9182 -0.0001 0.0000
# 5 0.0000 0.0000 0.0004 -0.0001 39.0410 0.0002
# 6 0.0001 0.0000 0.0000 0.0000 0.0002 2.4396
#
#
#
# Elastic Compliance Matrix: (Units=1/GPa)
#
#
# Indices 1 2 3 4 5 6 
#
# 1 0.013961 -0.000643 0.001361 0.000000 0.000000 -0.000001
# 2 -0.000643 0.009071 -0.002531 0.000000 0.000000 0.000000
# 3 0.001361 -0.002531 0.012968 0.000000 0.000000 0.000000
# 4 0.000000 0.000000 0.000000 0.020442 0.000000 0.000000
# 5 0.000000 0.000000 0.000000 0.000000 0.025614 -0.000002
# 6 -0.000001 0.000000 0.000000 0.000000 -0.000002 0.409905
#
#
# Mechanical properties :
#
#
# Convention : Reuss Voigt Hill
#
# Bulk Modulus (GPa) = 30.88848 34.30276 32.59562
# Shear Modulus (GPa) = 9.87403 34.93050 22.40226
#
# Velocity S-wave (km/s) = 2.16675 4.07535 3.26369
# Velocity P-wave (km/s) = 4.57672 6.20118 5.44982
#
# Compressibility (1/GPa) = 0.03237453
#
# Stress axis : x y z
#
# Youngs Moduli (GPa) = 71.62637 110.24446 77.11004
#
# Poissons Ratio (x) = 0.07084 -0.10495
# Poissons Ratio (y) = 0.04602 0.19520
# Poissons Ratio (z) = -0.09748 0.27908
#
# Static dielectric constant tensor:
#      x y z
#    x 1.756290 0.000000 0.000000 
#    y 0.000000 1.762140 0.000000 
#    z 0.000000 0.000000 1.813110 
# 
# From -- ./inp_files/1626.got.cif
#   From: 2010.05.17/outbox.cif.g08.bks.cpg/sg23_1_cif.got.tgz:1626.got - 2010.06.04 12:02:01.
