data_PCOD9331180
_publ_section_title
;
Structure prediction by ZEFSAII (Michael W. Deem and Ramdas Pophale) SiO2 
 PCOD9331180
Probable space group: I 2 2 2
;
_chemical_formula_sum "Si O2"
_cell_formula_units_Z 58
_cell_length_a 12.217054
_cell_length_b 8.203414
_cell_length_c 27.788227
_cell_angle_alpha 90.000000
_cell_angle_beta 90.000000
_cell_angle_gamma 90.000000
_cell_volume 2784.979232
_symmetry_space_group_name_H-M "I 2 2 2"
_symmetry_group_IT_number 23
_symmetry_cell_setting 'orthorhombic'
loop_
_space_group_symop_operation_xyz
x,y,z
-x,-y,z
x,-y,-z
-x,y,-z
1/2+x,1/2+y,1/2+z
1/2-x,1/2-y,1/2+z
1/2+x,1/2-y,1/2-z
1/2-x,1/2+y,1/2-z
loop_
_atom_site_type_symbol
_atom_site_label
_atom_site_fract_x
_atom_site_fract_y
_atom_site_fract_z
Si Si1 0.296742 0.844880 0.445012
Si Si2 0.623561 0.188075 0.015840
Si Si3 0.500000 0.000000 0.500000
Si Si4 0.383199 0.583086 0.099885
Si Si5 0.213895 0.906589 0.210778
Si Si6 0.103625 0.885218 0.867945
Si Si7 0.617539 0.348415 0.212448
Si Si8 0.981077 0.310700 0.213821
O O1 0.216802 0.788001 0.487846
O O2 0.412722 0.907070 0.465980
O O3 0.331820 0.696451 0.411003
O O4 0.221471 0.973436 0.415551
O O5 0.629021 0.245635 0.071303
O O6 0.500000 0.232052 0.000000
O O7 0.638177 0.000000 0.000000
O O8 0.500000 0.500000 0.085623
O O9 0.388179 0.603797 0.157183
O O10 0.331892 0.832622 0.215766
O O11 0.142301 0.742417 0.203563
O O12 0.187577 0.011552 0.164040
O O13 0.182793 0.020170 0.255680
O O14 0.054017 0.750976 0.831140
O O15 0.000000 0.000000 0.881744
O O16 0.506992 0.310761 0.241555
O O17 0.000000 0.500000 0.221145
#
# Coordination Sequence:
#
# PCOD9331180 Si02
#       8
#     8   8   2   8   8   8   8   8
#     4  12  26  45  74 100 141 177 235 284 353 422
#     4  11  25  49  74 100 137 179 231 297 367 415
#     4  12  28  44  68 112 128 184 230 282 340 444
#     4  12  25  46  75 101 137 188 237 290 357 425
#     4  10  22  41  64  93 141 173 224 276 345 405
#     4   9  23  42  67  97 134 181 226 281 345 415
#     4  11  24  40  65 101 132 181 229 283 339 413
#     4  10  21  42  62  93 135 178 219 276 339 413
#
# _framework density 20.826007000000001
#
# number of rings (size 3 to 8) (size 9 to 14) (size 15 to 20)
#    0.000    1.241    2.759    2.897    8.690    2.207 
#    4.966    0.000    0.000    0.000    0.000    0.000 
#    0.000    0.000    0.000    0.000    0.000    0.000 
#
# Total GULP energy -161796.408773 kJ/mol
# GULP energy per Si atom -5579.186509 kJ/mol
# Density = 2.077861 g / cm^3
# Si number density = 20.826007 Si / 1000 Ang^3
#
#
#
# Elastic Constant Matrix: (Units=GPa)
#
#
# Indices 1 2 3 4 5 6 
#
# 1 104.6590 36.4739 22.7726 0.0000 0.0000 0.0000
# 2 36.4739 104.0916 39.1935 0.0000 0.0000 0.0000
# 3 22.7726 39.1935 105.1036 0.0000 0.0000 0.0000
# 4 0.0000 0.0000 0.0000 10.3639 0.0000 0.0000
# 5 0.0000 0.0000 0.0000 0.0000 27.9340 0.0000
# 6 0.0000 0.0000 0.0000 0.0000 0.0000 28.3742
#
#
#
# Elastic Compliance Matrix: (Units=1/GPa)
#
#
# Indices 1 2 3 4 5 6 
#
# 1 0.010992 -0.003438 -0.001100 0.000000 0.000000 0.000000
# 2 -0.003438 0.012251 -0.003824 0.000000 0.000000 0.000000
# 3 -0.001100 -0.003824 0.011179 0.000000 0.000000 0.000000
# 4 0.000000 0.000000 0.000000 0.096488 0.000000 0.000000
# 5 0.000000 0.000000 0.000000 0.000000 0.035799 0.000000
# 6 0.000000 0.000000 0.000000 0.000000 0.000000 0.035243
#
#
# Mechanical properties :
#
#
# Convention : Reuss Voigt Hill
#
# Bulk Modulus (GPa) = 56.49771 56.74824 56.62297
# Shear Modulus (GPa) = 22.26435 27.69538 24.97986
#
# Velocity S-wave (km/s) = 3.27320 3.65066 3.46707
# Velocity P-wave (km/s) = 6.43991 6.71399 6.57838
#
# Compressibility (1/GPa) = 0.01769983
#
# Stress axis : x y z
#
# Youngs Moduli (GPa) = 90.97414 81.62473 89.45688
#
# Poissons Ratio (x) = 0.28059 0.09838
# Poissons Ratio (y) = 0.31273 0.34206
# Poissons Ratio (z) = 0.10005 0.31211
#
# Static dielectric constant tensor:
#      x y z
#    x 1.779120 0.000000 0.000000 
#    y 0.000000 1.726390 0.000000 
#    z 0.000000 0.000000 1.734230 
# 
# From -- ./inp_files/29489.got.cif
#   From: 2010.05.17/outbox.cif.g08.bks.cpg/sg23_15_cif.got.tgz:29489.got - 2010.06.04 12:02:01.
