data_PCOD9331850
_publ_section_title
;
Structure prediction by ZEFSAII (Michael W. Deem and Ramdas Pophale) SiO2 
 PCOD9331850
Probable space group: I 2 2 2
;
_chemical_formula_sum "Si O2"
_cell_formula_units_Z 40
_cell_length_a 11.507712
_cell_length_b 8.967162
_cell_length_c 16.630599
_cell_angle_alpha 90.000000
_cell_angle_beta 90.000000
_cell_angle_gamma 90.000000
_cell_volume 1716.136752
_symmetry_space_group_name_H-M "I 2 2 2"
_symmetry_group_IT_number 23
_symmetry_cell_setting 'orthorhombic'
loop_
_space_group_symop_operation_xyz
x,y,z
-x,-y,z
x,-y,-z
-x,y,-z
1/2+x,1/2+y,1/2+z
1/2-x,1/2-y,1/2+z
1/2+x,1/2-y,1/2-z
1/2-x,1/2+y,1/2-z
loop_
_atom_site_type_symbol
_atom_site_label
_atom_site_fract_x
_atom_site_fract_y
_atom_site_fract_z
Si Si1 0.623907 0.564859 0.730385
Si Si2 0.359617 0.382633 0.432251
Si Si3 0.871660 0.242178 0.500922
Si Si4 0.549312 0.151434 0.363171
Si Si5 0.285917 0.470784 0.108999
O O1 0.500000 0.500000 0.760256
O O2 0.652458 0.470659 0.651083
O O3 0.604385 0.733457 0.700712
O O4 0.713649 0.532508 0.801007
O O5 0.395187 0.500000 0.500000
O O6 0.235010 0.334691 0.465644
O O7 0.451494 0.248656 0.411350
O O8 0.852994 0.181719 0.410291
O O9 0.000000 0.306599 0.500000
O O10 0.853254 0.097471 0.558748
O O11 0.655675 0.082070 0.415305
O O12 0.500000 0.000000 0.325241
#
# Coordination Sequence:
#
# PCOD9331850 Si02
#       5
#     8   8   8   8   8
#     4  10  24  42  71 107 156 194 241 318 381 445
#     4  11  25  49  71 113 155 193 254 319 388 447
#     4  11  24  44  72 101 144 200 256 311 376 458
#     4  11  24  45  75 109 143 198 250 312 379 457
#     4  11  23  43  70 106 147 190 255 307 379 453
#
# _framework density 23.308164999999999
#
# number of rings (size 3 to 8) (size 9 to 14) (size 15 to 20)
#    0.000    1.200    2.000    3.600    2.800    9.600 
#    0.000    2.000    0.000    0.000    0.000    0.000 
#    0.000    0.000    0.000    0.000    0.000    0.000 
#
# Total GULP energy -111520.845645 kJ/mol
# GULP energy per Si atom -5576.042282 kJ/mol
# Density = 2.325511 g / cm^3
# Si number density = 23.308165 Si / 1000 Ang^3
#
#
#
# Elastic Constant Matrix: (Units=GPa)
#
#
# Indices 1 2 3 4 5 6 
#
# 1 169.2634 66.7873 33.9257 0.0000 0.0000 0.0000
# 2 66.7873 148.1031 59.5027 0.0000 0.0000 0.0000
# 3 33.9257 59.5027 126.2949 0.0000 0.0000 0.0000
# 4 0.0000 0.0000 0.0000 18.1222 0.0000 0.0000
# 5 0.0000 0.0000 0.0000 0.0000 28.1321 0.0000
# 6 0.0000 0.0000 0.0000 0.0000 0.0000 15.5773
#
#
#
# Elastic Compliance Matrix: (Units=1/GPa)
#
#
# Indices 1 2 3 4 5 6 
#
# 1 0.007212 -0.003052 -0.000500 0.000000 0.000000 0.000000
# 2 -0.003052 0.009620 -0.003713 0.000000 0.000000 0.000000
# 3 -0.000500 -0.003713 0.009801 0.000000 0.000000 0.000000
# 4 0.000000 0.000000 0.000000 0.055181 0.000000 0.000000
# 5 0.000000 0.000000 0.000000 0.000000 0.035547 0.000000
# 6 0.000000 0.000000 0.000000 0.000000 0.000000 0.064196
#
#
# Mechanical properties :
#
#
# Convention : Reuss Voigt Hill
#
# Bulk Modulus (GPa) = 82.60553 84.89920 83.75236
# Shear Modulus (GPa) = 24.98506 31.26269 28.12388
#
# Velocity S-wave (km/s) = 3.27761 3.66632 3.47740
# Velocity P-wave (km/s) = 7.05983 7.37741 7.22037
#
# Compressibility (1/GPa) = 0.01210573
#
# Stress axis : x y z
#
# Youngs Moduli (GPa) = 138.65421 103.95283 102.02719
#
# Poissons Ratio (x) = 0.31722 0.05097
# Poissons Ratio (y) = 0.42312 0.37878
# Poissons Ratio (z) = 0.06927 0.38593
#
# Static dielectric constant tensor:
#      x y z
#    x 1.946670 0.000000 0.000000 
#    y 0.000000 1.946290 0.000000 
#    z 0.000000 0.000000 1.881010 
# 
# From -- ./inp_files/24179.got.cif
#   From: 2010.05.17/outbox.cif.g08.bks.cpg/sg23_13_cif.got.tgz:24179.got - 2010.06.04 12:02:01.
