data_PCOD9331155
_publ_section_title
;
Structure prediction by ZEFSAII (Michael W. Deem and Ramdas Pophale) SiO2 
 PCOD9331155
Probable space group: I 2 2 2
;
_chemical_formula_sum "Si O2"
_cell_formula_units_Z 58
_cell_length_a 5.948658
_cell_length_b 16.076810
_cell_length_c 26.627016
_cell_angle_alpha 90.000000
_cell_angle_beta 90.000000
_cell_angle_gamma 90.000000
_cell_volume 2546.486509
_symmetry_space_group_name_H-M "I 2 2 2"
_symmetry_group_IT_number 23
_symmetry_cell_setting 'orthorhombic'
loop_
_space_group_symop_operation_xyz
x,y,z
-x,-y,z
x,-y,-z
-x,y,-z
1/2+x,1/2+y,1/2+z
1/2-x,1/2-y,1/2+z
1/2+x,1/2-y,1/2-z
1/2-x,1/2+y,1/2-z
loop_
_atom_site_type_symbol
_atom_site_label
_atom_site_fract_x
_atom_site_fract_y
_atom_site_fract_z
Si Si1 0.788472 0.140686 0.153221
Si Si2 0.248810 0.297697 0.003203
Si Si3 0.500000 0.500000 0.500000
Si Si4 0.168572 0.924087 0.255209
Si Si5 0.671725 0.129731 0.046180
Si Si6 0.532771 0.909839 0.346224
Si Si7 0.572877 0.304160 0.184462
Si Si8 0.826121 0.247123 0.887209
O O1 0.771470 0.072222 0.196528
O O2 0.625873 0.123264 0.105686
O O3 0.730714 0.225261 0.183317
O O4 0.030425 0.166790 0.129386
O O5 0.244606 0.224749 0.961530
O O6 0.500000 0.339363 0.000000
O O7 0.254517 0.246973 0.055721
O O8 0.000000 0.340021 0.000000
O O9 0.356718 0.560654 0.534842
O O10 0.377042 0.916349 0.295013
O O11 0.026467 0.839727 0.264604
O O12 0.000000 0.000000 0.266014
O O13 0.500000 0.115550 0.000000
O O14 0.788278 0.883482 0.335656
O O15 0.460758 0.833930 0.381194
O O16 0.500000 0.000000 0.370141
O O17 0.375285 0.269772 0.149900
#
# Coordination Sequence:
#
# PCOD9331155 Si02
#       8
#     8   8   2   8   8   8   8   8
#     4  11  24  40  65  98 127 173 233 281 338 405
#     4  11  21  40  68  97 130 172 220 289 342 409
#     4  12  22  40  64  86 132 172 224 284 350 404
#     4  11  24  40  62  93 137 177 217 278 343 411
#     4  11  23  41  64  90 131 175 230 280 346 413
#     4  10  21  41  63  91 131 175 222 264 339 413
#     4  10  22  39  65  91 132 170 222 282 332 407
#     4  10  22  38  65 100 119 170 228 282 337 412
#
# _framework density 22.776481
#
# number of rings (size 3 to 8) (size 9 to 14) (size 15 to 20)
#    0.000    1.379    3.448    1.862    8.690    0.000 
#    0.000    1.379    0.000    0.414    0.000    0.000 
#    0.000    0.000    0.000    0.000    0.000    0.000 
#
# Total GULP energy -161482.179059 kJ/mol
# GULP energy per Si atom -5568.351002 kJ/mol
# Density = 2.272464 g / cm^3
# Si number density = 22.776481 Si / 1000 Ang^3
#
#
#
# Elastic Constant Matrix: (Units=GPa)
#
#
# Indices 1 2 3 4 5 6 
#
# 1 98.0742 15.2382 21.9786 0.0000 0.0000 0.0000
# 2 15.2382 54.3872 6.5909 0.0000 0.0000 0.0000
# 3 21.9786 6.5909 116.3420 0.0000 0.0000 0.0000
# 4 0.0000 0.0000 0.0000 15.3317 0.0000 0.0000
# 5 0.0000 0.0000 0.0000 0.0000 25.4869 0.0000
# 6 0.0000 0.0000 0.0000 0.0000 0.0000 18.6366
#
#
#
# Elastic Compliance Matrix: (Units=1/GPa)
#
#
# Indices 1 2 3 4 5 6 
#
# 1 0.011075 -0.002869 -0.001930 0.000000 0.000000 0.000000
# 2 -0.002869 0.019257 -0.000549 0.000000 0.000000 0.000000
# 3 -0.001930 -0.000549 0.008991 0.000000 0.000000 0.000000
# 4 0.000000 0.000000 0.000000 0.065224 0.000000 0.000000
# 5 0.000000 0.000000 0.000000 0.000000 0.039236 0.000000
# 6 0.000000 0.000000 0.000000 0.000000 0.000000 0.053658
#
#
# Mechanical properties :
#
#
# Convention : Reuss Voigt Hill
#
# Bulk Modulus (GPa) = 34.93151 39.60210 37.26680
# Shear Modulus (GPa) = 22.96969 26.89076 24.93023
#
# Velocity S-wave (km/s) = 3.17911 3.43977 3.31200
# Velocity P-wave (km/s) = 5.37081 5.76203 5.56986
#
# Compressibility (1/GPa) = 0.02862745
#
# Stress axis : x y z
#
# Youngs Moduli (GPa) = 90.29706 51.92905 111.22261
#
# Poissons Ratio (x) = 0.14899 0.21462
# Poissons Ratio (y) = 0.25906 0.06105
# Poissons Ratio (z) = 0.17424 0.02851
#
# Static dielectric constant tensor:
#      x y z
#    x 2.054020 0.000000 0.000000 
#    y 0.000000 1.842000 0.000000 
#    z 0.000000 0.000000 1.878700 
# 
# From -- ./inp_files/29027.got.cif
#   From: 2010.05.17/outbox.cif.g08.bks.cpg/sg23_15_cif.got.tgz:29027.got - 2010.06.04 12:02:01.
