data_PCOD9331003
_publ_section_title
;
Structure prediction by ZEFSAII (Michael W. Deem and Ramdas Pophale) SiO2 
 PCOD9331003
Probable space group: I 2 2 2
;
_chemical_formula_sum "Si O2"
_cell_formula_units_Z 24
_cell_length_a 11.450020
_cell_length_b 8.698050
_cell_length_c 12.560061
_cell_angle_alpha 90.000000
_cell_angle_beta 90.000000
_cell_angle_gamma 90.000000
_cell_volume 1250.892227
_symmetry_space_group_name_H-M "I 2 2 2"
_symmetry_group_IT_number 23
_symmetry_cell_setting 'orthorhombic'
loop_
_space_group_symop_operation_xyz
x,y,z
-x,-y,z
x,-y,-z
-x,y,-z
1/2+x,1/2+y,1/2+z
1/2-x,1/2-y,1/2+z
1/2+x,1/2-y,1/2-z
1/2-x,1/2+y,1/2-z
loop_
_atom_site_type_symbol
_atom_site_label
_atom_site_fract_x
_atom_site_fract_y
_atom_site_fract_z
Si Si1 0.531339 0.680587 0.339256
Si Si2 0.064975 0.831747 0.401798
Si Si3 0.667406 0.173817 0.474954
O O1 0.500000 0.500000 0.344755
O O2 0.556705 0.728491 0.218214
O O3 0.417015 0.764789 0.383377
O O4 0.636112 0.725007 0.420332
O O5 0.199379 0.833292 0.437000
O O6 0.000000 0.749215 0.500000
O O7 0.000000 0.000000 0.394986
O O8 0.633929 0.000000 0.500000
#
# Coordination Sequence:
#
# PCOD9331003 Si02
#       3
#     8   8   8
#     4  10  23  39  63  92 123 161 199 246 311 357
#     4  10  21  39  61  90 119 159 204 247 301 352
#     4  11  21  39  66  88 122 158 206 247 299 365
#
# _framework density 19.186305999999998
#
# number of rings (size 3 to 8) (size 9 to 14) (size 15 to 20)
#    0.000    1.667    3.333    4.000    4.667    0.000 
#    0.000    0.000    7.333    0.000    0.000    0.000 
#    0.000    0.000    0.000    0.000    0.000    0.000 
#
# Total GULP energy -66872.217117 kJ/mol
# GULP energy per Si atom -5572.684760 kJ/mol
# Density = 1.914264 g / cm^3
# Si number density = 19.186306 Si / 1000 Ang^3
#
#
#
# Elastic Constant Matrix: (Units=GPa)
#
#
# Indices 1 2 3 4 5 6 
#
# 1 180.1376 36.4366 90.8377 0.0000 0.0000 0.0000
# 2 36.4366 75.7226 41.9169 0.0000 0.0000 0.0000
# 3 90.8377 41.9169 215.2672 0.0000 0.0000 0.0000
# 4 0.0000 0.0000 0.0000 1.4663 0.0000 0.0000
# 5 0.0000 0.0000 0.0000 0.0000 -823.0847 0.0000
# 6 0.0000 0.0000 0.0000 0.0000 0.0000 20.3320
#
#
#
# Elastic Compliance Matrix: (Units=1/GPa)
#
#
# Indices 1 2 3 4 5 6 
#
# 1 0.007320 -0.002031 -0.002693 0.000000 0.000000 0.000000
# 2 -0.002031 0.015365 -0.002135 0.000000 0.000000 0.000000
# 3 -0.002693 -0.002135 0.006198 0.000000 0.000000 0.000000
# 4 0.000000 0.000000 0.000000 0.682005 0.000000 0.000000
# 5 0.000000 0.000000 0.000000 0.000000 -0.001215 0.000000
# 6 0.000000 0.000000 0.000000 0.000000 0.000000 0.049183
#
#
# Mechanical properties :
#
#
# Convention : Reuss Voigt Hill
#
# Bulk Modulus (GPa) = 65.94542 89.94553 77.94547
# Shear Modulus (GPa) = 6.42979 -140.12819 -66.84920
#
# Velocity S-wave (km/s) = 1.83262 -8.55535 -5.90913
# Velocity P-wave (km/s) = 6.23889 7.11409 2.41729
#
# Compressibility (1/GPa) = 0.01516406
#
# Stress axis : x y z
#
# Youngs Moduli (GPa) = 136.60332 65.08172 161.35149
#
# Poissons Ratio (x) = 0.13221 0.43460
# Poissons Ratio (y) = 0.27751 0.34444
# Poissons Ratio (z) = 0.36794 0.13893
#
# Static dielectric constant tensor:
#      x y z
#    x 1.683650 0.000000 0.000000 
#    y 0.000000 2.613790 0.000000 
#    z 0.000000 0.000000 1.711250 
# 
# From -- ./inp_files/14131.got.cif
#   From: 2010.05.17/outbox.cif.g08.bks.cpg/sg23_8_cif.got.tgz:14131.got - 2010.06.04 12:02:01.
