data_PCOD9331141
_publ_section_title
;
Structure prediction by ZEFSAII (Michael W. Deem and Ramdas Pophale) SiO2 
 PCOD9331141
Probable space group: I 2 2 2
;
_chemical_formula_sum "Si O2"
_cell_formula_units_Z 54
_cell_length_a 11.281619
_cell_length_b 8.912810
_cell_length_c 25.002472
_cell_angle_alpha 90.000000
_cell_angle_beta 90.000000
_cell_angle_gamma 90.000000
_cell_volume 2514.021728
_symmetry_space_group_name_H-M "I 2 2 2"
_symmetry_group_IT_number 23
_symmetry_cell_setting 'orthorhombic'
loop_
_space_group_symop_operation_xyz
x,y,z
-x,-y,z
x,-y,-z
-x,y,-z
1/2+x,1/2+y,1/2+z
1/2-x,1/2-y,1/2+z
1/2+x,1/2-y,1/2-z
1/2-x,1/2+y,1/2-z
loop_
_atom_site_type_symbol
_atom_site_label
_atom_site_fract_x
_atom_site_fract_y
_atom_site_fract_z
Si Si1 0.968505 0.648660 0.860422
Si Si2 0.767655 0.772847 0.315631
Si Si3 0.000000 0.000000 0.773633
Si Si4 0.804932 0.122048 0.286962
Si Si5 0.199615 0.379317 0.423633
Si Si6 0.318786 0.354793 0.642161
Si Si7 0.000000 0.500000 0.500000
Si Si8 0.627162 0.144542 0.528159
O O1 0.871817 0.745085 0.830350
O O2 0.900072 0.590048 0.912017
O O3 0.000000 0.500000 0.827667
O O4 0.078411 0.746269 0.879846
O O5 0.780726 0.673270 0.262329
O O6 0.830366 0.714488 0.369418
O O7 0.784065 0.949767 0.304584
O O8 0.106292 0.935743 0.810265
O O9 0.939711 0.879056 0.734102
O O10 0.778294 0.244374 0.332207
O O11 0.263536 0.528370 0.399491
O O12 0.291746 0.288198 0.461286
O O13 0.086691 0.410686 0.460098
O O14 0.500000 0.175196 0.500000
O O15 0.684052 0.000000 0.500000
#
# Coordination Sequence:
#
# PCOD9331141 Si02
#       8
#     8   8   4   8   8   8   2   8
#     4  11  20  36  65 102 140 175 221 290 364 418
#     4  11  22  41  67 105 145 189 235 297 363 447
#     4  12  22  40  64 109 142 179 242 290 348 438
#     4  12  23  39  70 106 149 191 236 288 367 450
#     4  11  27  51  72  99 143 192 252 304 375 438
#     4  12  24  43  70 101 145 188 235 303 360 436
#     4  12  32  56  72  96 144 204 262 310 360 450
#     4  10  21  40  74 109 135 168 231 309 372 437
#
# _framework density 21.479527000000001
#
# number of rings (size 3 to 8) (size 9 to 14) (size 15 to 20)
#    0.000    0.741    7.407    0.889    2.074    1.185 
#    0.000    0.370    0.000    0.000    0.000    0.000 
#    0.000    0.000    0.000    0.000    0.000    0.000 
#
# Total GULP energy -150565.205738 kJ/mol
# GULP energy per Si atom -5576.489101 kJ/mol
# Density = 2.143064 g / cm^3
# Si number density = 21.479527 Si / 1000 Ang^3
#
#
#
# Elastic Constant Matrix: (Units=GPa)
#
#
# Indices 1 2 3 4 5 6 
#
# 1 82.7675 53.6419 39.3104 0.0000 0.0000 0.0000
# 2 53.6419 161.2093 70.7938 0.0000 0.0000 0.0000
# 3 39.3104 70.7938 106.7859 0.0000 0.0000 0.0000
# 4 0.0000 0.0000 0.0000 55.8644 0.0000 0.0000
# 5 0.0000 0.0000 0.0000 0.0000 34.3854 0.0000
# 6 0.0000 0.0000 0.0000 0.0000 0.0000 37.3043
#
#
#
# Elastic Compliance Matrix: (Units=1/GPa)
#
#
# Indices 1 2 3 4 5 6 
#
# 1 0.016223 -0.003916 -0.003376 0.000000 0.000000 0.000000
# 2 -0.003916 0.009696 -0.004986 0.000000 0.000000 0.000000
# 3 -0.003376 -0.004986 0.013913 0.000000 0.000000 0.000000
# 4 0.000000 0.000000 0.000000 0.017900 0.000000 0.000000
# 5 0.000000 0.000000 0.000000 0.000000 0.029082 0.000000
# 6 0.000000 0.000000 0.000000 0.000000 0.000000 0.026807
#
#
# Mechanical properties :
#
#
# Convention : Reuss Voigt Hill
#
# Bulk Modulus (GPa) = 65.46378 75.36167 70.41273
# Shear Modulus (GPa) = 34.89917 37.97860 36.43889
#
# Velocity S-wave (km/s) = 4.03521 4.20948 4.12326
# Velocity P-wave (km/s) = 7.22869 7.66732 7.45123
#
# Compressibility (1/GPa) = 0.01527562
#
# Stress axis : x y z
#
# Youngs Moduli (GPa) = 61.63960 103.13801 71.87431
#
# Poissons Ratio (x) = 0.40384 0.24267
# Poissons Ratio (y) = 0.24135 0.35839
# Poissons Ratio (z) = 0.20812 0.51429
#
# Static dielectric constant tensor:
#      x y z
#    x 1.823760 0.000000 0.000000 
#    y 0.000000 1.937960 0.000000 
#    z 0.000000 0.000000 1.821710 
# 
# From -- ./inp_files/29447.got.cif
#   From: 2010.05.17/outbox.cif.g08.bks.cpg/sg23_15_cif.got.tgz:29447.got - 2010.06.04 12:02:01.
