data_PCOD9331803
_publ_section_title
;
Structure prediction by ZEFSAII (Michael W. Deem and Ramdas Pophale) SiO2 
 PCOD9331803
Probable space group: I 2 2 2
;
_chemical_formula_sum "Si O2"
_cell_formula_units_Z 64
_cell_length_a 5.073683
_cell_length_b 17.468945
_cell_length_c 29.169564
_cell_angle_alpha 90.000000
_cell_angle_beta 90.000000
_cell_angle_gamma 90.000000
_cell_volume 2585.353567
_symmetry_space_group_name_H-M "I 2 2 2"
_symmetry_group_IT_number 23
_symmetry_cell_setting 'orthorhombic'
loop_
_space_group_symop_operation_xyz
x,y,z
-x,-y,z
x,-y,-z
-x,y,-z
1/2+x,1/2+y,1/2+z
1/2-x,1/2-y,1/2+z
1/2+x,1/2-y,1/2-z
1/2-x,1/2+y,1/2-z
loop_
_atom_site_type_symbol
_atom_site_label
_atom_site_fract_x
_atom_site_fract_y
_atom_site_fract_z
Si Si1 0.058099 0.165673 0.347436
Si Si2 0.828445 0.304186 0.247666
Si Si3 0.855553 0.080923 0.820844
Si Si4 0.450302 0.918979 0.373442
Si Si5 0.444638 0.080785 0.080936
Si Si6 0.307147 0.688616 0.625607
Si Si7 0.236592 0.107024 0.530380
Si Si8 0.830612 0.773145 0.045963
O O1 0.208039 0.162227 0.299118
O O2 0.263918 0.119693 0.379446
O O3 0.070629 0.255164 0.361215
O O4 0.767812 0.131749 0.347550
O O5 0.612497 0.236668 0.258770
O O6 0.826642 0.375778 0.283460
O O7 0.707263 0.069850 0.870050
O O8 0.065295 0.148488 0.831041
O O9 0.000000 0.000000 0.808972
O O10 0.310925 0.933204 0.422417
O O11 0.500000 0.000000 0.349759
O O12 0.719266 0.117959 0.094909
O O13 0.312925 0.146265 0.050930
O O14 0.500000 0.000000 0.058789
O O15 0.501635 0.734455 0.592598
O O16 0.500000 0.107735 0.500000
O O17 0.164682 0.195348 0.543458
O O18 0.000000 0.077960 0.500000
O O19 0.000000 0.775218 0.000000
#
# Coordination Sequence:
#
# PCOD9331803 Si02
#       8
#     8   8   8   8   8   8   8   8
#     4  12  25  46  74 106 144 200 243 300 377 450
#     4  12  26  46  74 110 146 191 250 310 367 447
#     4  11  24  43  68 105 141 186 248 314 368 435
#     4  12  27  48  72 107 150 191 239 300 381 459
#     4  11  23  41  69  95 138 194 243 300 374 432
#     4  11  22  43  70  98 140 191 245 300 358 446
#     4  11  24  44  74 106 136 184 248 306 363 436
#     4  10  24  39  67 101 141 181 249 307 361 440
#
# _framework density 24.754833000000001
#
# number of rings (size 3 to 8) (size 9 to 14) (size 15 to 20)
#    0.000    0.750    3.750    3.375    7.000    1.250 
#    0.000    3.125    0.000    0.000    0.000    0.000 
#    0.000    0.000    0.000    0.000    0.000    0.000 
#
# Total GULP energy -179052.753742 kJ/mol
# GULP energy per Si atom -5595.398554 kJ/mol
# Density = 2.469849 g / cm^3
# Si number density = 24.754833 Si / 1000 Ang^3
#
#
#
# Elastic Constant Matrix: (Units=GPa)
#
#
# Indices 1 2 3 4 5 6 
#
# 1 96.1392 29.3419 11.7953 0.0000 0.0000 0.0000
# 2 29.3419 159.0908 17.0701 0.0000 0.0000 0.0000
# 3 11.7953 17.0701 67.5914 0.0000 0.0000 0.0000
# 4 0.0000 0.0000 0.0000 35.9582 0.0000 0.0000
# 5 0.0000 0.0000 0.0000 0.0000 30.6103 0.0000
# 6 0.0000 0.0000 0.0000 0.0000 0.0000 35.2250
#
#
#
# Elastic Compliance Matrix: (Units=1/GPa)
#
#
# Indices 1 2 3 4 5 6 
#
# 1 0.011162 -0.001901 -0.001468 0.000000 0.000000 0.000000
# 2 -0.001901 0.006785 -0.001382 0.000000 0.000000 0.000000
# 3 -0.001468 -0.001382 0.015400 0.000000 0.000000 0.000000
# 4 0.000000 0.000000 0.000000 0.027810 0.000000 0.000000
# 5 0.000000 0.000000 0.000000 0.000000 0.032669 0.000000
# 6 0.000000 0.000000 0.000000 0.000000 0.000000 0.028389
#
#
# Mechanical properties :
#
#
# Convention : Reuss Voigt Hill
#
# Bulk Modulus (GPa) = 41.93708 48.80401 45.37054
# Shear Modulus (GPa) = 35.80029 37.99963 36.89996
#
# Velocity S-wave (km/s) = 3.80701 3.92221 3.86504
# Velocity P-wave (km/s) = 6.02513 6.34581 6.18755
#
# Compressibility (1/GPa) = 0.02384525
#
# Stress axis : x y z
#
# Youngs Moduli (GPa) = 89.59051 147.39245 64.93573
#
# Poissons Ratio (x) = 0.28022 0.09531
# Poissons Ratio (y) = 0.17033 0.08972
# Poissons Ratio (z) = 0.13149 0.20365
#
# Static dielectric constant tensor:
#      x y z
#    x 1.991700 0.000000 0.000000 
#    y 0.000000 1.975160 0.000000 
#    z 0.000000 0.000000 2.065720 
# 
# From -- ./inp_files/30035.got.cif
#   From: 2010.05.17/outbox.cif.g08.bks.cpg/sg23_16_cif.got.tgz:30035.got - 2010.06.04 12:02:01.
