data_PCOD9331191
_publ_section_title
;
Structure prediction by ZEFSAII (Michael W. Deem and Ramdas Pophale) SiO2 
 PCOD9331191
Probable space group: I 2 2 2
;
_chemical_formula_sum "Si O2"
_cell_formula_units_Z 44
_cell_length_a 27.235723
_cell_length_b 4.973718
_cell_length_c 12.510609
_cell_angle_alpha 90.000000
_cell_angle_beta 90.000000
_cell_angle_gamma 90.000000
_cell_volume 1694.722197
_symmetry_space_group_name_H-M "I 2 2 2"
_symmetry_group_IT_number 23
_symmetry_cell_setting 'orthorhombic'
loop_
_space_group_symop_operation_xyz
x,y,z
-x,-y,z
x,-y,-z
-x,y,-z
1/2+x,1/2+y,1/2+z
1/2-x,1/2-y,1/2+z
1/2+x,1/2-y,1/2-z
1/2-x,1/2+y,1/2-z
loop_
_atom_site_type_symbol
_atom_site_label
_atom_site_fract_x
_atom_site_fract_y
_atom_site_fract_z
Si Si1 0.898376 0.000000 0.500000
Si Si2 0.143122 0.508458 0.633742
Si Si3 0.938105 0.898088 0.684614
Si Si4 0.000000 0.500000 0.186363
Si Si5 0.897573 0.287966 0.852716
Si Si6 0.327325 0.500000 0.500000
Si Si7 0.251191 0.042890 0.821125
O O1 0.860224 0.219489 0.564750
O O2 0.942705 0.893110 0.409930
O O3 0.101466 0.275903 0.610531
O O4 0.129852 0.550878 0.759134
O O5 0.199275 0.420000 0.628788
O O6 0.981548 0.732645 0.734880
O O7 0.910601 0.016364 0.787399
O O8 0.048699 0.410947 0.124115
O O9 0.863436 0.222627 0.951150
O O10 0.291718 0.406423 0.405414
O O11 0.265641 0.319312 0.763644
#
# Coordination Sequence:
#
# PCOD9331191 Si02
#       7
#     4   8   8   4   8   4   8
#     4  10  22  38  69 102 146 200 248 315 392 472
#     4  10  22  42  67 101 153 195 255 315 390 475
#     4  10  21  42  69 100 146 194 255 330 390 471
#     4  10  22  44  74  98 146 198 252 337 401 460
#     4  10  22  47  69 106 143 199 251 329 386 477
#     4  12  26  48  81 112 160 207 266 330 410 476
#     4  12  28  50  76 116 161 212 265 328 394 486
#
# _framework density 25.962961
#
# number of rings (size 3 to 8) (size 9 to 14) (size 15 to 20)
#    0.000    1.455    1.818    2.182    5.091    0.727 
#    6.545   29.091    0.000    2.182    0.000    0.000 
#    0.000    0.000    0.000    0.000    0.000    0.000 
#
# Total GULP energy -122677.540195 kJ/mol
# GULP energy per Si atom -5576.251827 kJ/mol
# Density = 2.590387 g / cm^3
# Si number density = 25.962961 Si / 1000 Ang^3
#
#
#
# Elastic Constant Matrix: (Units=GPa)
#
#
# Indices 1 2 3 4 5 6 
#
# 1 175.9327 16.7424 71.4765 0.0000 0.0000 0.0000
# 2 16.7424 89.8636 34.0138 0.0000 0.0000 0.0000
# 3 71.4765 34.0138 147.5054 0.0000 0.0000 0.0000
# 4 0.0000 0.0000 0.0000 30.9487 0.0000 0.0000
# 5 0.0000 0.0000 0.0000 0.0000 24.1395 0.0000
# 6 0.0000 0.0000 0.0000 0.0000 0.0000 43.4086
#
#
#
# Elastic Compliance Matrix: (Units=1/GPa)
#
#
# Indices 1 2 3 4 5 6 
#
# 1 0.007077 -0.000022 -0.003424 0.000000 0.000000 0.000000
# 2 -0.000022 0.012192 -0.002801 0.000000 0.000000 0.000000
# 3 -0.003424 -0.002801 0.009084 0.000000 0.000000 0.000000
# 4 0.000000 0.000000 0.000000 0.032312 0.000000 0.000000
# 5 0.000000 0.000000 0.000000 0.000000 0.041426 0.000000
# 6 0.000000 0.000000 0.000000 0.000000 0.000000 0.023037
#
#
# Mechanical properties :
#
#
# Convention : Reuss Voigt Hill
#
# Bulk Modulus (GPa) = 63.05401 73.08524 68.06962
# Shear Modulus (GPa) = 34.98721 39.10396 37.04558
#
# Velocity S-wave (km/s) = 3.67492 3.88512 3.78148
# Velocity P-wave (km/s) = 6.50735 6.95244 6.73357
#
# Compressibility (1/GPa) = 0.01585942
#
# Stress axis : x y z
#
# Youngs Moduli (GPa) = 141.29664 82.01976 110.07770
#
# Poissons Ratio (x) = 0.00184 0.37693
# Poissons Ratio (y) = 0.00318 0.30828
# Poissons Ratio (z) = 0.48384 0.22970
#
# Static dielectric constant tensor:
#      x y z
#    x 2.210600 0.000000 0.000000 
#    y 0.000000 2.692740 0.000000 
#    z 0.000000 0.000000 2.198800 
# 
# From -- ./inp_files/22693.got.cif
#   From: 2010.05.17/outbox.cif.g08.bks.cpg/sg23_12_cif.got.tgz:22693.got - 2010.06.04 12:02:01.
