data_PCOD9331457
_publ_section_title
;
Structure prediction by ZEFSAII (Michael W. Deem and Ramdas Pophale) SiO2 
 PCOD9331457
Probable space group: I 2 2 2
;
_chemical_formula_sum "Si O2"
_cell_formula_units_Z 34
_cell_length_a 11.928550
_cell_length_b 12.464706
_cell_length_c 10.556442
_cell_angle_alpha 90.000000
_cell_angle_beta 90.000000
_cell_angle_gamma 90.000000
_cell_volume 1569.593750
_symmetry_space_group_name_H-M "I 2 2 2"
_symmetry_group_IT_number 23
_symmetry_cell_setting 'orthorhombic'
loop_
_space_group_symop_operation_xyz
x,y,z
-x,-y,z
x,-y,-z
-x,y,-z
1/2+x,1/2+y,1/2+z
1/2-x,1/2-y,1/2+z
1/2+x,1/2-y,1/2-z
1/2-x,1/2+y,1/2-z
loop_
_atom_site_type_symbol
_atom_site_label
_atom_site_fract_x
_atom_site_fract_y
_atom_site_fract_z
Si Si1 0.081656 0.269897 0.118390
Si Si2 0.000000 0.500000 0.500000
Si Si3 0.666906 0.353652 0.904868
Si Si4 0.403714 0.137056 0.217566
Si Si5 0.660129 0.591684 0.813829
O O1 0.201049 0.323059 0.085878
O O2 0.106823 0.162259 0.200947
O O3 0.015571 0.358781 0.200182
O O4 0.000000 0.245799 0.000000
O O5 0.922665 0.569837 0.591377
O O6 0.614971 0.258789 0.824886
O O7 0.640294 0.465082 0.833710
O O8 0.627492 0.358596 0.050283
O O9 0.293979 0.100941 0.292118
#
# Coordination Sequence:
#
# PCOD9331457 Si02
#       5
#     8   2   8   8   8
#     4  11  22  42  69 100 137 178 228 281 340 415
#     4  12  24  40  66  98 122 176 224 290 336 414
#     4  10  22  42  67  95 137 174 225 282 339 403
#     4  11  23  41  64  96 130 174 226 279 337 411
#     4  10  22  41  66  96 131 181 220 280 340 397
#
# _framework density 21.661656000000001
#
# number of rings (size 3 to 8) (size 9 to 14) (size 15 to 20)
#    0.000    1.412    2.353    2.824    0.000    2.824 
#    0.000    3.529    0.000    0.000    0.000    0.000 
#    0.000    0.000    0.000    0.000    0.000    0.000 
#
# Total GULP energy -95045.410089 kJ/mol
# GULP energy per Si atom -5590.906476 kJ/mol
# Density = 2.161235 g / cm^3
# Si number density = 21.661656 Si / 1000 Ang^3
#
#
#
# Elastic Constant Matrix: (Units=GPa)
#
#
# Indices 1 2 3 4 5 6 
#
# 1 87.7972 -0.4445 19.9629 0.0000 0.0000 0.0000
# 2 -0.4445 70.8378 38.5253 0.0000 0.0000 0.0000
# 3 19.9629 38.5253 99.9108 0.0000 0.0000 0.0000
# 4 0.0000 0.0000 0.0000 34.3030 0.0000 0.0000
# 5 0.0000 0.0000 0.0000 0.0000 30.0801 0.0000
# 6 0.0000 0.0000 0.0000 0.0000 0.0000 16.8846
#
#
#
# Elastic Compliance Matrix: (Units=1/GPa)
#
#
# Indices 1 2 3 4 5 6 
#
# 1 0.012103 0.001760 -0.003097 0.000000 0.000000 0.000000
# 2 0.001760 0.018119 -0.007338 0.000000 0.000000 0.000000
# 3 -0.003097 -0.007338 0.013457 0.000000 0.000000 0.000000
# 4 0.000000 0.000000 0.000000 0.029152 0.000000 0.000000
# 5 0.000000 0.000000 0.000000 0.000000 0.033245 0.000000
# 6 0.000000 0.000000 0.000000 0.000000 0.000000 0.059226
#
#
# Mechanical properties :
#
#
# Convention : Reuss Voigt Hill
#
# Bulk Modulus (GPa) = 37.98084 41.62591 39.80337
# Shear Modulus (GPa) = 26.11953 29.62034 27.86993
#
# Velocity S-wave (km/s) = 3.47622 3.70186 3.59082
# Velocity P-wave (km/s) = 5.80378 6.12616 5.96715
#
# Compressibility (1/GPa) = 0.02632907
#
# Stress axis : x y z
#
# Youngs Moduli (GPa) = 82.62427 55.19150 74.30887
#
# Poissons Ratio (x) = -0.09715 0.23014
# Poissons Ratio (y) = -0.14544 0.54530
# Poissons Ratio (z) = 0.25589 0.40501
#
# Static dielectric constant tensor:
#      x y z
#    x 1.812640 0.000000 0.000000 
#    y 0.000000 1.757290 0.000000 
#    z 0.000000 0.000000 1.752780 
# 
# From -- ./inp_files/9312.got.cif
#   From: 2010.05.17/outbox.cif.g08.bks.cpg/sg23_5_cif.got.tgz:9312.got - 2010.06.04 12:02:01.
