data_PCOD9331397
_publ_section_title
;
Structure prediction by ZEFSAII (Michael W. Deem and Ramdas Pophale) SiO2 
 PCOD9331397
Probable space group: I 2 2 2
;
_chemical_formula_sum "Si O2"
_cell_formula_units_Z 38
_cell_length_a 28.432948
_cell_length_b 5.356071
_cell_length_c 12.596757
_cell_angle_alpha 90.000000
_cell_angle_beta 90.000000
_cell_angle_gamma 90.000000
_cell_volume 1918.346119
_symmetry_space_group_name_H-M "I 2 2 2"
_symmetry_group_IT_number 23
_symmetry_cell_setting 'orthorhombic'
loop_
_space_group_symop_operation_xyz
x,y,z
-x,-y,z
x,-y,-z
-x,y,-z
1/2+x,1/2+y,1/2+z
1/2-x,1/2-y,1/2+z
1/2+x,1/2-y,1/2-z
1/2-x,1/2+y,1/2-z
loop_
_atom_site_type_symbol
_atom_site_label
_atom_site_fract_x
_atom_site_fract_y
_atom_site_fract_z
Si Si1 0.336006 0.000000 0.500000
Si Si2 0.000000 0.000000 0.500000
Si Si3 0.247801 0.812411 0.922599
Si Si4 0.636646 0.016643 0.737403
Si Si5 0.304846 0.517981 0.219192
Si Si6 0.552366 0.105449 0.113285
O O1 0.299828 0.227966 0.518165
O O2 0.364556 0.986566 0.609157
O O3 0.962106 0.884308 0.417202
O O4 0.275249 0.567712 0.882966
O O5 0.231831 0.958506 0.816550
O O6 0.274778 0.000000 0.000000
O O7 0.668543 0.782583 0.777494
O O8 0.587329 0.966580 0.794397
O O9 0.659790 0.283938 0.765122
O O10 0.500000 0.000000 0.130763
O O11 0.570463 0.000000 0.000000
#
# Coordination Sequence:
#
# PCOD9331397 Si02
#       6
#     4   2   8   8   8   8
#     4  10  22  40  64  86 132 174 209 265 310 386
#     4   8  18  40  66  90 122 176 190 266 330 402
#     4  11  22  42  60  85 128 179 221 256 327 367
#     4  11  24  42  62 100 124 166 218 266 319 382
#     4  11  25  39  62  91 125 167 221 269 300 379
#     4   9  21  41  68  95 127 163 207 262 337 392
#
# _framework density 19.808731000000002
#
# number of rings (size 3 to 8) (size 9 to 14) (size 15 to 20)
#    0.000    1.895    2.105    2.526    8.842    0.842 
#    0.000    0.526    0.000    0.000    0.000    0.000 
#    0.000    0.000    0.000    0.000    0.000    0.000 
#
# Total GULP energy -105878.856193 kJ/mol
# GULP energy per Si atom -5572.571379 kJ/mol
# Density = 1.976364 g / cm^3
# Si number density = 19.808731 Si / 1000 Ang^3
#
#
#
# Elastic Constant Matrix: (Units=GPa)
#
#
# Indices 1 2 3 4 5 6 
#
# 1 68.9784 14.1401 64.0491 0.0000 0.0000 0.0000
# 2 14.1401 84.4838 29.0347 0.0000 0.0000 0.0000
# 3 64.0491 29.0347 146.2132 0.0000 0.0000 0.0000
# 4 0.0000 0.0000 0.0000 43.9926 0.0000 0.0000
# 5 0.0000 0.0000 0.0000 0.0000 39.1349 0.0000
# 6 0.0000 0.0000 0.0000 0.0000 0.0000 85.1115
#
#
#
# Elastic Compliance Matrix: (Units=1/GPa)
#
#
# Indices 1 2 3 4 5 6 
#
# 1 0.024452 -0.000442 -0.010624 0.000000 0.000000 0.000000
# 2 -0.000442 0.012712 -0.002331 0.000000 0.000000 0.000000
# 3 -0.010624 -0.002331 0.011956 0.000000 0.000000 0.000000
# 4 0.000000 0.000000 0.000000 0.022731 0.000000 0.000000
# 5 0.000000 0.000000 0.000000 0.000000 0.025553 0.000000
# 6 0.000000 0.000000 0.000000 0.000000 0.000000 0.011749
#
#
# Mechanical properties :
#
#
# Convention : Reuss Voigt Hill
#
# Bulk Modulus (GPa) = 44.78751 57.12481 50.95616
# Shear Modulus (GPa) = 34.87051 46.47789 40.67420
#
# Velocity S-wave (km/s) = 4.20022 4.84915 4.53630
# Velocity P-wave (km/s) = 6.79570 7.76229 7.29502
#
# Compressibility (1/GPa) = 0.02232765
#
# Stress axis : x y z
#
# Youngs Moduli (GPa) = 40.89581 78.66875 83.64042
#
# Poissons Ratio (x) = 0.03473 0.88858
# Poissons Ratio (y) = 0.01806 0.19495
# Poissons Ratio (z) = 0.43447 0.18336
#
# Static dielectric constant tensor:
#      x y z
#    x 1.667180 0.000000 0.000000 
#    y 0.000000 2.076080 0.000000 
#    z 0.000000 0.000000 1.700530 
# 
# From -- ./inp_files/4793.got.cif
#   From: 2010.05.17/outbox.cif.g08.bks.cpg/sg23_3_cif.got.tgz:4793.got - 2010.06.04 12:02:01.
