data_PCOD9331960
_publ_section_title
;
Structure prediction by ZEFSAII (Michael W. Deem and Ramdas Pophale) SiO2 
 PCOD9331960
Probable space group: I 2 2 2
;
_chemical_formula_sum "Si O2"
_cell_formula_units_Z 48
_cell_length_a 13.292518
_cell_length_b 19.667207
_cell_length_c 8.118672
_cell_angle_alpha 90.000000
_cell_angle_beta 90.000000
_cell_angle_gamma 90.000000
_cell_volume 2122.437654
_symmetry_space_group_name_H-M "I 2 2 2"
_symmetry_group_IT_number 23
_symmetry_cell_setting 'orthorhombic'
loop_
_space_group_symop_operation_xyz
x,y,z
-x,-y,z
x,-y,-z
-x,y,-z
1/2+x,1/2+y,1/2+z
1/2-x,1/2-y,1/2+z
1/2+x,1/2-y,1/2-z
1/2-x,1/2+y,1/2-z
loop_
_atom_site_type_symbol
_atom_site_label
_atom_site_fract_x
_atom_site_fract_y
_atom_site_fract_z
Si Si1 0.202143 0.537952 0.822193
Si Si2 0.302086 0.665038 0.941696
Si Si3 0.722080 0.898254 0.222070
Si Si4 0.837146 0.792631 0.054188
Si Si5 0.992470 0.384292 0.691106
Si Si6 0.475840 0.726464 0.761996
O O1 0.280995 0.599106 0.832214
O O2 0.241598 0.477949 0.705502
O O3 0.096117 0.572626 0.773879
O O4 0.194277 0.500000 0.000000
O O5 0.224194 0.725026 0.899274
O O6 0.412290 0.694951 0.911611
O O7 0.275680 0.638046 0.123571
O O8 0.756109 0.853442 0.066296
O O9 0.603421 0.896839 0.261315
O O10 0.928807 0.809264 0.178054
O O11 0.890388 0.775805 0.881673
O O12 0.984301 0.302686 0.705394
O O13 0.000000 0.403629 0.500000
#
# Coordination Sequence:
#
# PCOD9331960 Si02
#       6
#     8   8   8   8   8   8
#     4  10  25  44  69  99 143 188 226 284 356 430
#     4  11  21  41  67  96 135 189 232 286 350 420
#     4  11  25  42  66  99 138 185 234 282 358 422
#     4  11  22  41  66  97 139 184 236 293 345 419
#     4  12  25  40  69 106 141 179 225 299 350 424
#     4  11  25  40  68 103 134 183 243 290 349 412
#
# _framework density 22.615504000000001
#
# number of rings (size 3 to 8) (size 9 to 14) (size 15 to 20)
#    0.000    1.000    5.000    0.500    4.667    6.000 
#    0.000    0.833    0.000    5.000    0.000    0.000 
#    0.000    0.000    0.000    0.000    0.000    0.000 
#
# Total GULP energy -134129.507419 kJ/mol
# GULP energy per Si atom -5588.729476 kJ/mol
# Density = 2.256403 g / cm^3
# Si number density = 22.615504 Si / 1000 Ang^3
#
#
#
# Elastic Constant Matrix: (Units=GPa)
#
#
# Indices 1 2 3 4 5 6 
#
# 1 116.4666 54.4265 21.8359 0.0000 0.0000 0.0000
# 2 54.4265 161.2858 21.7121 0.0000 0.0000 0.0000
# 3 21.8359 21.7121 53.0019 0.0000 0.0000 0.0000
# 4 0.0000 0.0000 0.0000 25.6666 0.0000 0.0000
# 5 0.0000 0.0000 0.0000 0.0000 35.2718 0.0000
# 6 0.0000 0.0000 0.0000 0.0000 0.0000 31.1353
#
#
#
# Elastic Compliance Matrix: (Units=1/GPa)
#
#
# Indices 1 2 3 4 5 6 
#
# 1 0.010650 -0.003179 -0.003086 0.000000 0.000000 0.000000
# 2 -0.003179 0.007511 -0.001767 0.000000 0.000000 0.000000
# 3 -0.003086 -0.001767 0.020862 0.000000 0.000000 0.000000
# 4 0.000000 0.000000 0.000000 0.038961 0.000000 0.000000
# 5 0.000000 0.000000 0.000000 0.000000 0.028351 0.000000
# 6 0.000000 0.000000 0.000000 0.000000 0.000000 0.032118
#
#
# Mechanical properties :
#
#
# Convention : Reuss Voigt Hill
#
# Bulk Modulus (GPa) = 43.55312 58.52260 51.03786
# Shear Modulus (GPa) = 30.83193 33.93338 32.38265
#
# Velocity S-wave (km/s) = 3.69631 3.87776 3.78812
# Velocity P-wave (km/s) = 6.12510 6.78106 6.46141
#
# Compressibility (1/GPa) = 0.02296047
#
# Stress axis : x y z
#
# Youngs Moduli (GPa) = 93.89656 133.14366 47.93314
#
# Poissons Ratio (x) = 0.42320 0.14790
# Poissons Ratio (y) = 0.29845 0.08471
# Poissons Ratio (z) = 0.28972 0.23530
#
# Static dielectric constant tensor:
#      x y z
#    x 1.819420 0.000000 0.000000 
#    y 0.000000 1.876200 0.000000 
#    z 0.000000 0.000000 1.980930 
# 
# From -- ./inp_files/10104.got.cif
#   From: 2010.05.17/outbox.cif.g08.bks.cpg/sg23_6_cif.got.tgz:10104.got - 2010.06.04 12:02:01.
