data_PCOD9331051
_publ_section_title
;
Structure prediction by ZEFSAII (Michael W. Deem and Ramdas Pophale) SiO2 
 PCOD9331051
Probable space group: I 2 2 2
;
_chemical_formula_sum "Si O2"
_cell_formula_units_Z 52
_cell_length_a 8.195324
_cell_length_b 18.305840
_cell_length_c 17.302213
_cell_angle_alpha 90.000000
_cell_angle_beta 90.000000
_cell_angle_gamma 90.000000
_cell_volume 2595.717614
_symmetry_space_group_name_H-M "I 2 2 2"
_symmetry_group_IT_number 23
_symmetry_cell_setting 'orthorhombic'
loop_
_space_group_symop_operation_xyz
x,y,z
-x,-y,z
x,-y,-z
-x,y,-z
1/2+x,1/2+y,1/2+z
1/2-x,1/2-y,1/2+z
1/2+x,1/2-y,1/2-z
1/2-x,1/2+y,1/2-z
loop_
_atom_site_type_symbol
_atom_site_label
_atom_site_fract_x
_atom_site_fract_y
_atom_site_fract_z
Si Si1 0.500000 0.203802 0.500000
Si Si2 0.428076 0.838679 0.233786
Si Si3 0.941377 0.583422 0.879105
Si Si4 0.903480 0.805440 0.691797
Si Si5 0.818464 0.715088 0.541854
Si Si6 0.066523 0.081825 0.416563
Si Si7 0.956879 0.419303 0.410690
O O1 0.526472 0.147308 0.429043
O O2 0.335824 0.253692 0.493641
O O3 0.533987 0.889958 0.290909
O O4 0.242020 0.838929 0.259326
O O5 0.494930 0.755963 0.237109
O O6 0.442979 0.867126 0.146528
O O7 0.759885 0.582617 0.912703
O O8 0.000000 0.500000 0.887523
O O9 0.828957 0.763888 0.618086
O O10 0.009785 0.868556 0.653924
O O11 0.795783 0.631919 0.575441
O O12 0.000000 0.720019 0.500000
O O13 0.000000 0.108209 0.500000
O O14 0.000000 0.000000 0.407497
O O15 0.000000 0.500000 0.378795
O O16 0.000000 0.426433 0.500000
#
# Coordination Sequence:
#
# PCOD9331051 Si02
#       7
#     4   8   8   8   8   8   8
#     4  12  23  38  66 101 136 178 228 280 331 424
#     4  11  23  38  67  93 129 169 225 278 339 405
#     4  12  25  40  62  97 137 182 230 277 333 416
#     4  11  21  41  58  95 128 170 220 277 338 405
#     4  10  21  39  66  96 134 173 219 275 337 405
#     4  11  25  40  63  91 138 184 225 277 348 415
#     4   9  20  41  68  94 121 169 220 274 349 407
#
# _framework density 20.032993999999999
#
# number of rings (size 3 to 8) (size 9 to 14) (size 15 to 20)
#    0.000    1.231    1.538    4.846    4.308    3.077 
#    0.000    0.000    0.000    7.385    0.000    0.000 
#    0.000    0.000    0.000    0.000    0.000    0.000 
#
# Total GULP energy -144747.962227 kJ/mol
# GULP energy per Si atom -5567.229316 kJ/mol
# Density = 1.998740 g / cm^3
# Si number density = 20.032994 Si / 1000 Ang^3
#
#
#
# Elastic Constant Matrix: (Units=GPa)
#
#
# Indices 1 2 3 4 5 6 
#
# 1 113.2549 48.9346 35.0228 0.0000 0.0000 0.0000
# 2 48.9346 136.3276 22.0679 0.0000 0.0000 0.0000
# 3 35.0228 22.0679 81.4460 0.0000 0.0000 0.0000
# 4 0.0000 0.0000 0.0000 71.9913 0.0000 0.0000
# 5 0.0000 0.0000 0.0000 0.0000 15.3178 0.0000
# 6 0.0000 0.0000 0.0000 0.0000 0.0000 31.4001
#
#
#
# Elastic Compliance Matrix: (Units=1/GPa)
#
#
# Indices 1 2 3 4 5 6 
#
# 1 0.011593 -0.003508 -0.004035 0.000000 0.000000 0.000000
# 2 -0.003508 0.008733 -0.000858 0.000000 0.000000 0.000000
# 3 -0.004035 -0.000858 0.014245 0.000000 0.000000 0.000000
# 4 0.000000 0.000000 0.000000 0.013891 0.000000 0.000000
# 5 0.000000 0.000000 0.000000 0.000000 0.065284 0.000000
# 6 0.000000 0.000000 0.000000 0.000000 0.000000 0.031847
#
#
# Mechanical properties :
#
#
# Convention : Reuss Voigt Hill
#
# Bulk Modulus (GPa) = 56.27228 60.34211 58.30719
# Shear Modulus (GPa) = 29.70568 38.74205 34.22387
#
# Velocity S-wave (km/s) = 3.85494 4.40240 4.13773
# Velocity P-wave (km/s) = 6.92567 7.48520 7.21086
#
# Compressibility (1/GPa) = 0.01777074
#
# Stress axis : x y z
#
# Youngs Moduli (GPa) = 86.25806 114.50299 70.19799
#
# Poissons Ratio (x) = 0.40170 0.28322
# Poissons Ratio (y) = 0.30261 0.06021
# Poissons Ratio (z) = 0.34802 0.09821
#
# Static dielectric constant tensor:
#      x y z
#    x 1.488080 0.000000 0.000000 
#    y 0.000000 1.823320 0.000000 
#    z 0.000000 0.000000 1.751270 
# 
# From -- ./inp_files/23854.got.cif
#   From: 2010.05.17/outbox.cif.g08.bks.cpg/sg23_12_cif.got.tgz:23854.got - 2010.06.04 12:02:01.
