data_PCOD9331773
_publ_section_title
;
Structure prediction by ZEFSAII (Michael W. Deem and Ramdas Pophale) SiO2 
 PCOD9331773
Probable space group: I 2 2 2
;
_chemical_formula_sum "Si O2"
_cell_formula_units_Z 48
_cell_length_a 8.647844
_cell_length_b 9.925246
_cell_length_c 26.438354
_cell_angle_alpha 90.000000
_cell_angle_beta 90.000000
_cell_angle_gamma 90.000000
_cell_volume 2269.256247
_symmetry_space_group_name_H-M "I 2 2 2"
_symmetry_group_IT_number 23
_symmetry_cell_setting 'orthorhombic'
loop_
_space_group_symop_operation_xyz
x,y,z
-x,-y,z
x,-y,-z
-x,y,-z
1/2+x,1/2+y,1/2+z
1/2-x,1/2-y,1/2+z
1/2+x,1/2-y,1/2-z
1/2-x,1/2+y,1/2-z
loop_
_atom_site_type_symbol
_atom_site_label
_atom_site_fract_x
_atom_site_fract_y
_atom_site_fract_z
Si Si1 0.543664 0.345629 0.379351
Si Si2 0.801934 0.767360 0.805558
Si Si3 0.393628 0.373392 0.896493
Si Si4 0.403651 0.868087 0.889967
Si Si5 0.152507 0.445975 0.723077
Si Si6 0.086049 0.376068 0.946368
O O1 0.500000 0.500000 0.376043
O O2 0.478159 0.279545 0.327249
O O3 0.721146 0.347253 0.396391
O O4 0.447291 0.266070 0.421000
O O5 0.700829 0.695934 0.849928
O O6 0.778748 0.669998 0.757904
O O7 0.750661 0.921407 0.792500
O O8 0.500000 0.500000 0.881539
O O9 0.510081 0.257781 0.913357
O O10 0.266965 0.405830 0.939507
O O11 0.407761 0.876760 0.828565
O O12 0.500000 0.000000 0.906874
O O13 0.000000 0.500000 0.751031
O O14 0.000000 0.500000 0.918060
O O15 0.000000 0.369977 0.000000
#
# Coordination Sequence:
#
# PCOD9331773 Si02
#       6
#     8   8   8   8   8   8
#     4  11  22  41  68  92 127 179 221 271 341 403
#     4  11  25  40  60  94 133 186 237 279 334 385
#     4  11  23  41  68  99 130 180 225 274 348 406
#     4  11  21  42  60  87 130 173 224 278 334 386
#     4  11  24  39  58  90 131 182 231 292 324 375
#     4  10  23  46  70 100 133 163 211 273 342 428
#
# _framework density 21.152304000000001
#
# number of rings (size 3 to 8) (size 9 to 14) (size 15 to 20)
#    0.000    1.167    5.000    2.000    4.667    3.000 
#    0.000    5.833    0.000    1.000    0.000    0.000 
#    0.000    0.000    0.000    0.000    0.000    0.000 
#
# Total GULP energy -133668.606137 kJ/mol
# GULP energy per Si atom -5569.525256 kJ/mol
# Density = 2.110416 g / cm^3
# Si number density = 21.152304 Si / 1000 Ang^3
#
#
#
# Elastic Constant Matrix: (Units=GPa)
#
#
# Indices 1 2 3 4 5 6 
#
# 1 136.5943 37.1286 4.7569 0.0000 0.0000 0.0000
# 2 37.1286 118.8994 23.3428 0.0000 0.0000 0.0000
# 3 4.7569 23.3428 43.7431 0.0000 0.0000 0.0000
# 4 0.0000 0.0000 0.0000 -161.4589 0.0000 0.0000
# 5 0.0000 0.0000 0.0000 0.0000 13.8722 0.0000
# 6 0.0000 0.0000 0.0000 0.0000 0.0000 29.9854
#
#
#
# Elastic Compliance Matrix: (Units=1/GPa)
#
#
# Indices 1 2 3 4 5 6 
#
# 1 0.008010 -0.002603 0.000518 0.000000 0.000000 0.000000
# 2 -0.002603 0.010241 -0.005182 0.000000 0.000000 0.000000
# 3 0.000518 -0.005182 0.025570 0.000000 0.000000 0.000000
# 4 0.000000 0.000000 0.000000 -0.006194 0.000000 0.000000
# 5 0.000000 0.000000 0.000000 0.000000 0.072087 0.000000
# 6 0.000000 0.000000 0.000000 0.000000 0.000000 0.033350
#
#
# Mechanical properties :
#
#
# Convention : Reuss Voigt Hill
#
# Bulk Modulus (GPa) = 34.14475 47.74370 40.94422
# Shear Modulus (GPa) = 29.87585 -7.91969 10.97808
#
# Velocity S-wave (km/s) = 3.76229 -1.93707 2.28063
# Velocity P-wave (km/s) = 5.92034 4.19731 5.13166
#
# Compressibility (1/GPa) = 0.02928708
#
# Stress axis : x y z
#
# Youngs Moduli (GPa) = 124.83649 97.65029 39.10906
#
# Poissons Ratio (x) = 0.25420 -0.02026
# Poissons Ratio (y) = 0.32496 0.20265
# Poissons Ratio (z) = -0.06467 0.50599
#
# Static dielectric constant tensor:
#      x y z
#    x 2.022440 0.000000 0.000000 
#    y 0.000000 1.794830 0.000000 
#    z 0.000000 0.000000 1.809140 
# 
# From -- ./inp_files/13328.got.cif
#   From: 2010.05.17/outbox.cif.g08.bks.cpg/sg23_7_cif.got.tgz:13328.got - 2010.06.04 12:02:01.
