data_PCOD9331077
_publ_section_title
;
Structure prediction by ZEFSAII (Michael W. Deem and Ramdas Pophale) SiO2 
 PCOD9331077
Probable space group: I 2 2 2
;
_chemical_formula_sum "Si O2"
_cell_formula_units_Z 44
_cell_length_a 7.463712
_cell_length_b 17.506634
_cell_length_c 15.679642
_cell_angle_alpha 90.000000
_cell_angle_beta 90.000000
_cell_angle_gamma 90.000000
_cell_volume 2048.772179
_symmetry_space_group_name_H-M "I 2 2 2"
_symmetry_group_IT_number 23
_symmetry_cell_setting 'orthorhombic'
loop_
_space_group_symop_operation_xyz
x,y,z
-x,-y,z
x,-y,-z
-x,y,-z
1/2+x,1/2+y,1/2+z
1/2-x,1/2-y,1/2+z
1/2+x,1/2-y,1/2-z
1/2-x,1/2+y,1/2-z
loop_
_atom_site_type_symbol
_atom_site_label
_atom_site_fract_x
_atom_site_fract_y
_atom_site_fract_z
Si Si1 0.710559 0.207726 0.373053
Si Si2 0.780877 0.173087 0.181743
Si Si3 0.287928 0.987061 0.095709
Si Si4 0.810889 0.865822 0.195350
Si Si5 0.312016 0.837087 0.617626
Si Si6 0.500000 0.360388 0.000000
O O1 0.693443 0.184787 0.273575
O O2 0.748912 0.299056 0.369847
O O3 0.520563 0.175187 0.407796
O O4 0.876806 0.175348 0.425357
O O5 0.736091 0.097690 0.130323
O O6 0.749321 0.248057 0.124552
O O7 0.987083 0.161940 0.208644
O O8 0.500000 0.000000 0.096334
O O9 0.199300 0.051118 0.154834
O O10 0.220751 0.000000 0.000000
O O11 0.706622 0.865165 0.284628
O O12 0.173623 0.885990 0.559576
#
# Coordination Sequence:
#
# PCOD9331077 Si02
#       6
#     8   8   8   8   8   4
#     4  10  22  38  63  90 124 162 206 252 305 360
#     4  10  21  40  59  86 125 169 202 246 307 371
#     4  11  25  37  59  91 128 165 204 250 305 370
#     4  10  21  40  59  86 125 169 202 246 307 371
#     4  10  22  38  63  90 124 162 206 252 305 360
#     4  12  22  36  64  96 116 160 202 276 286 360
#
# _framework density 21.476278000000001
#
# number of rings (size 3 to 8) (size 9 to 14) (size 15 to 20)
#    0.000    1.636    1.818    2.182    7.636    1.455 
#    0.000    0.000    0.000    2.182    0.000    3.818 
#    0.000    0.000    0.000    0.000    0.000    0.000 
#
# Total GULP energy -122482.363332 kJ/mol
# GULP energy per Si atom -5567.380151 kJ/mol
# Density = 2.142740 g / cm^3
# Si number density = 21.476278 Si / 1000 Ang^3
#
#
#
# Elastic Constant Matrix: (Units=GPa)
#
#
# Indices 1 2 3 4 5 6 
#
# 1 96.7304 -14.2060 8.8491 0.0000 0.0000 0.0000
# 2 -14.2060 72.7779 28.4879 0.0000 0.0000 0.0000
# 3 8.8491 28.4879 41.9369 0.0000 0.0000 0.0000
# 4 0.0000 0.0000 0.0000 -961.0944 0.0000 0.0000
# 5 0.0000 0.0000 0.0000 0.0000 23.9916 0.0000
# 6 0.0000 0.0000 0.0000 0.0000 0.0000 21.3210
#
#
#
# Elastic Compliance Matrix: (Units=1/GPa)
#
#
# Indices 1 2 3 4 5 6 
#
# 1 0.011466 0.004339 -0.005367 0.000000 0.000000 0.000000
# 2 0.004339 0.020359 -0.014746 0.000000 0.000000 0.000000
# 3 -0.005367 -0.014746 0.034995 0.000000 0.000000 0.000000
# 4 0.000000 0.000000 0.000000 -0.001040 0.000000 0.000000
# 5 0.000000 0.000000 0.000000 0.000000 0.041681 0.000000
# 6 0.000000 0.000000 0.000000 0.000000 0.000000 0.046902
#
#
# Mechanical properties :
#
#
# Convention : Reuss Voigt Hill
#
# Bulk Modulus (GPa) = 28.35047 28.63413 28.49230
# Shear Modulus (GPa) = 25.29489 -170.60208 -72.65360
#
# Velocity S-wave (km/s) = 3.43564 -8.92244 -5.82264
# Velocity P-wave (km/s) = 5.38216 9.63248 5.64876
#
# Compressibility (1/GPa) = 0.03527279
#
# Stress axis : x y z
#
# Youngs Moduli (GPa) = 87.21265 49.11722 28.57575
#
# Poissons Ratio (x) = -0.21312 0.15337
# Poissons Ratio (y) = -0.37842 0.42137
# Poissons Ratio (z) = 0.46807 0.72427
#
# Static dielectric constant tensor:
#      x y z
#    x 1.883160 0.000000 0.000000 
#    y 0.000000 1.780700 0.000000 
#    z 0.000000 0.000000 1.841190 
# 
# From -- ./inp_files/19940.got.cif
#   From: 2010.05.17/outbox.cif.g08.bks.cpg/sg23_10_cif.got.tgz:19940.got - 2010.06.04 12:02:01.
