data_PCOD9331515
_publ_section_title
;
Structure prediction by ZEFSAII (Michael W. Deem and Ramdas Pophale) SiO2 
 PCOD9331515
Probable space group: I 2 2 2
;
_chemical_formula_sum "Si O2"
_cell_formula_units_Z 48
_cell_length_a 17.069815
_cell_length_b 8.701082
_cell_length_c 14.872664
_cell_angle_alpha 90.000000
_cell_angle_beta 90.000000
_cell_angle_gamma 90.000000
_cell_volume 2208.975212
_symmetry_space_group_name_H-M "I 2 2 2"
_symmetry_group_IT_number 23
_symmetry_cell_setting 'orthorhombic'
loop_
_space_group_symop_operation_xyz
x,y,z
-x,-y,z
x,-y,-z
-x,y,-z
1/2+x,1/2+y,1/2+z
1/2-x,1/2-y,1/2+z
1/2+x,1/2-y,1/2-z
1/2-x,1/2+y,1/2-z
loop_
_atom_site_type_symbol
_atom_site_label
_atom_site_fract_x
_atom_site_fract_y
_atom_site_fract_z
Si Si1 0.369081 0.500000 0.000000
Si Si2 0.073785 0.093908 0.826618
Si Si3 0.000000 0.249027 0.500000
Si Si4 0.500000 0.746423 0.500000
Si Si5 0.615541 0.000000 0.500000
Si Si6 0.835564 0.806489 0.225968
Si Si7 0.498319 0.826028 0.796099
Si Si8 0.736977 0.000069 0.641681
O O1 0.425485 0.641490 0.019408
O O2 0.313193 0.538815 0.917373
O O3 0.071371 0.235465 0.756688
O O4 0.140064 0.962606 0.829147
O O5 0.000000 0.000000 0.788976
O O6 0.045260 0.152599 0.923999
O O7 0.984730 0.327948 0.403822
O O8 0.562720 0.865127 0.541616
O O9 0.671404 0.069352 0.575625
O O10 0.915871 0.746905 0.273716
O O11 0.799068 0.657629 0.178590
O O12 0.768280 0.873391 0.290301
O O13 0.500000 0.000000 0.762099
#
# Coordination Sequence:
#
# PCOD9331515 Si02
#       8
#     4   8   4   4   4   8   8   8
#     4  10  22  42  72  98 134 186 226 288 352 418
#     4  10  23  41  67 101 132 178 236 289 347 402
#     4  11  21  42  74 104 134 172 242 292 352 406
#     4  11  23  42  72 100 140 180 238 296 344 410
#     4  10  24  40  68 104 134 186 228 286 358 414
#     4  11  25  43  69 101 140 191 229 288 355 424
#     4  11  24  41  71 106 138 175 239 300 352 414
#     4  11  24  44  66 100 144 185 230 277 357 433
#
# _framework density 21.729534999999998
#
# number of rings (size 3 to 8) (size 9 to 14) (size 15 to 20)
#    0.000    1.333    1.667    3.500   11.667    1.333 
#    0.000    0.000    0.000    0.000    0.000    0.000 
#    0.000    0.000    0.000    0.000    0.000    0.000 
#
# Total GULP energy -133859.960333 kJ/mol
# GULP energy per Si atom -5577.498347 kJ/mol
# Density = 2.168008 g / cm^3
# Si number density = 21.729535 Si / 1000 Ang^3
#
#
#
# Elastic Constant Matrix: (Units=GPa)
#
#
# Indices 1 2 3 4 5 6 
#
# 1 97.2270 30.7308 32.1901 0.0000 0.0000 0.0000
# 2 30.7308 107.7130 42.0336 0.0000 0.0000 0.0000
# 3 32.1901 42.0336 101.5664 0.0000 0.0000 0.0000
# 4 0.0000 0.0000 0.0000 30.8814 0.0000 0.0000
# 5 0.0000 0.0000 0.0000 0.0000 27.3237 0.0000
# 6 0.0000 0.0000 0.0000 0.0000 0.0000 48.3275
#
#
#
# Elastic Compliance Matrix: (Units=1/GPa)
#
#
# Indices 1 2 3 4 5 6 
#
# 1 0.011952 -0.002304 -0.002835 0.000000 0.000000 0.000000
# 2 -0.002304 0.011516 -0.004036 0.000000 0.000000 0.000000
# 3 -0.002835 -0.004036 0.012414 0.000000 0.000000 0.000000
# 4 0.000000 0.000000 0.000000 0.032382 0.000000 0.000000
# 5 0.000000 0.000000 0.000000 0.000000 0.036598 0.000000
# 6 0.000000 0.000000 0.000000 0.000000 0.000000 0.020692
#
#
# Mechanical properties :
#
#
# Convention : Reuss Voigt Hill
#
# Bulk Modulus (GPa) = 57.03182 57.37946 57.20564
# Shear Modulus (GPa) = 33.38949 34.74332 34.06641
#
# Velocity S-wave (km/s) = 3.92420 4.00296 3.96377
# Velocity P-wave (km/s) = 6.84365 6.91581 6.87983
#
# Compressibility (1/GPa) = 0.01753407
#
# Stress axis : x y z
#
# Youngs Moduli (GPa) = 83.66918 86.83477 80.55163
#
# Poissons Ratio (x) = 0.20004 0.22833
# Poissons Ratio (y) = 0.19275 0.32509
# Poissons Ratio (z) = 0.23717 0.35045
#
# Static dielectric constant tensor:
#      x y z
#    x 1.793070 0.000000 0.000000 
#    y 0.000000 1.836420 0.000000 
#    z 0.000000 0.000000 1.853640 
# 
# From -- ./inp_files/22057.got.cif
#   From: 2010.05.17/outbox.cif.g08.bks.cpg/sg23_12_cif.got.tgz:22057.got - 2010.06.04 12:02:01.
