data_PCOD9331134
_publ_section_title
;
Structure prediction by ZEFSAII (Michael W. Deem and Ramdas Pophale) SiO2 
 PCOD9331134
Probable space group: I 2 2 2
;
_chemical_formula_sum "Si O2"
_cell_formula_units_Z 40
_cell_length_a 5.760791
_cell_length_b 11.337901
_cell_length_c 25.950819
_cell_angle_alpha 90.000000
_cell_angle_beta 90.000000
_cell_angle_gamma 90.000000
_cell_volume 1694.984958
_symmetry_space_group_name_H-M "I 2 2 2"
_symmetry_group_IT_number 23
_symmetry_cell_setting 'orthorhombic'
loop_
_space_group_symop_operation_xyz
x,y,z
-x,-y,z
x,-y,-z
-x,y,-z
1/2+x,1/2+y,1/2+z
1/2-x,1/2-y,1/2+z
1/2+x,1/2-y,1/2-z
1/2-x,1/2+y,1/2-z
loop_
_atom_site_type_symbol
_atom_site_label
_atom_site_fract_x
_atom_site_fract_y
_atom_site_fract_z
Si Si1 0.749756 0.634331 0.481593
Si Si2 0.257222 0.819632 0.329047
Si Si3 0.598810 0.629287 0.283276
Si Si4 0.137013 0.292303 0.373665
Si Si5 0.741490 0.028949 0.592729
O O1 0.749967 0.500000 0.500000
O O2 0.500000 0.687121 0.500000
O O3 0.768036 0.631278 0.419979
O O4 0.000000 0.689152 0.500000
O O5 0.455898 0.739008 0.305796
O O6 0.114844 0.852807 0.277643
O O7 0.133770 0.737605 0.371697
O O8 0.284085 0.941886 0.358379
O O9 0.500000 0.500000 0.293250
O O10 0.824973 0.645813 0.318578
O O11 0.246813 0.163003 0.386492
O O12 0.500000 0.000000 0.563050
O O13 0.000000 0.000000 0.570085
#
# Coordination Sequence:
#
# PCOD9331134 Si02
#       5
#     8   8   8   8   8
#     4  10  25  45  71  99 140 179 242 302 364 417
#     4  11  24  43  63 100 149 185 239 293 355 439
#     4  12  25  38  64 103 142 187 245 287 358 443
#     4  11  24  43  71  98 137 197 226 302 368 423
#     4  10  21  40  70  95 135 187 232 277 355 418
#
# _framework density 23.599028000000001
#
# number of rings (size 3 to 8) (size 9 to 14) (size 15 to 20)
#    0.000    1.200    4.000    1.800    5.600    2.400 
#    0.000    0.000    0.000   13.200    0.000    0.000 
#    0.000    0.000    0.000    0.000    0.000    0.000 
#
# Total GULP energy -111418.194832 kJ/mol
# GULP energy per Si atom -5570.909742 kJ/mol
# Density = 2.354532 g / cm^3
# Si number density = 23.599028 Si / 1000 Ang^3
#
#
#
# Elastic Constant Matrix: (Units=GPa)
#
#
# Indices 1 2 3 4 5 6 
#
# 1 123.7693 -8.3345 13.5702 0.0000 0.0000 0.0000
# 2 -8.3345 89.6418 16.0635 0.0000 0.0000 0.0000
# 3 13.5702 16.0635 85.3861 0.0000 0.0000 0.0000
# 4 0.0000 0.0000 0.0000 -39.8774 0.0000 0.0000
# 5 0.0000 0.0000 0.0000 0.0000 -5.9214 0.0000
# 6 0.0000 0.0000 0.0000 0.0000 0.0000 18.0499
#
#
#
# Elastic Compliance Matrix: (Units=1/GPa)
#
#
# Indices 1 2 3 4 5 6 
#
# 1 0.008316 0.001045 -0.001518 0.000000 0.000000 0.000000
# 2 0.001045 0.011676 -0.002363 0.000000 0.000000 0.000000
# 3 -0.001518 -0.002363 0.012397 0.000000 0.000000 0.000000
# 4 0.000000 0.000000 0.000000 -0.025077 0.000000 0.000000
# 5 0.000000 0.000000 0.000000 0.000000 -0.168879 0.000000
# 6 0.000000 0.000000 0.000000 0.000000 0.000000 0.055402
#
#
# Mechanical properties :
#
#
# Convention : Reuss Voigt Hill
#
# Bulk Modulus (GPa) = 37.42755 37.93282 37.68019
# Shear Modulus (GPa) = -54.59330 12.95010 -20.82160
#
# Velocity S-wave (km/s) = -4.81497 2.34509 -2.97359
# Velocity P-wave (km/s) = 3.87527 4.84163 2.05228
#
# Compressibility (1/GPa) = 0.02671828
#
# Stress axis : x y z
#
# Youngs Moduli (GPa) = 120.24417 85.64508 80.66270
#
# Poissons Ratio (x) = -0.08953 0.12247
# Poissons Ratio (y) = -0.12569 0.19058
# Poissons Ratio (z) = 0.18257 0.20236
#
# Static dielectric constant tensor:
#      x y z
#    x 2.285710 0.000000 0.000000 
#    y 0.000000 1.856490 0.000000 
#    z 0.000000 0.000000 1.923240 
# 
# From -- ./inp_files/1695.got.cif
#   From: 2010.05.17/outbox.cif.g08.bks.cpg/sg23_1_cif.got.tgz:1695.got - 2010.06.04 12:02:01.
