data_PCOD9331047
_publ_section_title
;
Structure prediction by ZEFSAII (Michael W. Deem and Ramdas Pophale) SiO2 
 PCOD9331047
Probable space group: I 2 2 2
;
_chemical_formula_sum "Si O2"
_cell_formula_units_Z 46
_cell_length_a 8.000424
_cell_length_b 12.137269
_cell_length_c 23.209263
_cell_angle_alpha 90.000000
_cell_angle_beta 90.000000
_cell_angle_gamma 90.000000
_cell_volume 2253.695986
_symmetry_space_group_name_H-M "I 2 2 2"
_symmetry_group_IT_number 23
_symmetry_cell_setting 'orthorhombic'
loop_
_space_group_symop_operation_xyz
x,y,z
-x,-y,z
x,-y,-z
-x,y,-z
1/2+x,1/2+y,1/2+z
1/2-x,1/2-y,1/2+z
1/2+x,1/2-y,1/2-z
1/2-x,1/2+y,1/2-z
loop_
_atom_site_type_symbol
_atom_site_label
_atom_site_fract_x
_atom_site_fract_y
_atom_site_fract_z
Si Si1 0.500000 0.500000 0.361784
Si Si2 0.327994 0.941230 0.668638
Si Si3 0.328918 0.343971 0.727785
Si Si4 0.638240 0.311852 0.078368
Si Si5 0.617861 0.341116 0.824177
Si Si6 0.829144 0.888236 0.967034
Si Si7 0.000000 0.000000 0.500000
O O1 0.382956 0.571888 0.321161
O O2 0.388704 0.425188 0.403755
O O3 0.320400 0.891796 0.732809
O O4 0.282259 0.845691 0.623778
O O5 0.500000 0.000000 0.655308
O O6 0.184761 0.035550 0.666014
O O7 0.481206 0.335355 0.773063
O O8 0.271493 0.232430 0.697472
O O9 0.473219 0.297051 0.118154
O O10 0.694991 0.207751 0.040894
O O11 0.608613 0.418085 0.038831
O O12 0.000000 0.851807 0.000000
O O13 0.772430 0.000000 0.000000
#
# Coordination Sequence:
#
# PCOD9331047 Si02
#       7
#     4   8   8   8   8   8   2
#     4  10  21  39  66  88 131 175 216 268 336 390
#     4  11  23  40  61 101 137 173 224 274 333 416
#     4  11  22  38  63  94 139 177 215 268 335 404
#     4  11  24  44  69  94 136 170 226 282 345 397
#     4  11  23  40  61 103 137 176 218 276 331 411
#     4   9  23  45  66  98 129 170 231 285 331 404
#     4  12  24  46  68  92 130 180 210 294 346 384
#
# _framework density 20.410917999999999
#
# number of rings (size 3 to 8) (size 9 to 14) (size 15 to 20)
#    0.000    1.565    3.478    2.087    7.304    5.565 
#    0.000    2.174    0.000    0.000    0.000    0.000 
#    0.000    0.000    0.000    0.000    0.000    0.000 
#
# Total GULP energy -128498.315844 kJ/mol
# GULP energy per Si atom -5586.883298 kJ/mol
# Density = 2.036446 g / cm^3
# Si number density = 20.410918 Si / 1000 Ang^3
#
#
#
# Elastic Constant Matrix: (Units=GPa)
#
#
# Indices 1 2 3 4 5 6 
#
# 1 61.5015 35.0742 20.5857 0.0000 0.0000 0.0000
# 2 35.0742 111.3917 42.4135 0.0000 0.0000 0.0000
# 3 20.5857 42.4135 113.1294 0.0000 0.0000 0.0000
# 4 0.0000 0.0000 0.0000 26.1615 0.0000 0.0000
# 5 0.0000 0.0000 0.0000 0.0000 9.2645 0.0000
# 6 0.0000 0.0000 0.0000 0.0000 0.0000 38.3286
#
#
#
# Elastic Compliance Matrix: (Units=1/GPa)
#
#
# Indices 1 2 3 4 5 6 
#
# 1 0.020033 -0.005739 -0.001494 0.000000 0.000000 0.000000
# 2 -0.005739 0.012116 -0.003498 0.000000 0.000000 0.000000
# 3 -0.001494 -0.003498 0.010423 0.000000 0.000000 0.000000
# 4 0.000000 0.000000 0.000000 0.038224 0.000000 0.000000
# 5 0.000000 0.000000 0.000000 0.000000 0.107939 0.000000
# 6 0.000000 0.000000 0.000000 0.000000 0.000000 0.026090
#
#
# Mechanical properties :
#
#
# Convention : Reuss Voigt Hill
#
# Bulk Modulus (GPa) = 47.37098 53.57438 50.47268
# Shear Modulus (GPa) = 20.54874 27.28087 23.91481
#
# Velocity S-wave (km/s) = 3.17638 3.65990 3.42668
# Velocity P-wave (km/s) = 6.05900 6.64565 6.35910
#
# Compressibility (1/GPa) = 0.02110997
#
# Stress axis : x y z
#
# Youngs Moduli (GPa) = 49.91844 82.53282 95.94387
#
# Poissons Ratio (x) = 0.47366 0.14331
# Poissons Ratio (y) = 0.28648 0.33564
# Poissons Ratio (z) = 0.07456 0.28872
#
# Static dielectric constant tensor:
#      x y z
#    x 1.760200 0.000000 0.000000 
#    y 0.000000 1.728750 0.000000 
#    z 0.000000 0.000000 1.725610 
# 
# From -- ./inp_files/28018.got.cif
#   From: 2010.05.17/outbox.cif.g08.bks.cpg/sg23_15_cif.got.tgz:28018.got - 2010.06.04 12:02:01.
