data_PCOD9331413
_publ_section_title
;
Structure prediction by ZEFSAII (Michael W. Deem and Ramdas Pophale) SiO2 
 PCOD9331413
Probable space group: I 2 2 2
;
_chemical_formula_sum "Si O2"
_cell_formula_units_Z 52
_cell_length_a 13.568792
_cell_length_b 17.769788
_cell_length_c 9.953948
_cell_angle_alpha 90.000000
_cell_angle_beta 90.000000
_cell_angle_gamma 90.000000
_cell_volume 2400.041765
_symmetry_space_group_name_H-M "I 2 2 2"
_symmetry_group_IT_number 23
_symmetry_cell_setting 'orthorhombic'
loop_
_space_group_symop_operation_xyz
x,y,z
-x,-y,z
x,-y,-z
-x,y,-z
1/2+x,1/2+y,1/2+z
1/2-x,1/2-y,1/2+z
1/2+x,1/2-y,1/2-z
1/2-x,1/2+y,1/2-z
loop_
_atom_site_type_symbol
_atom_site_label
_atom_site_fract_x
_atom_site_fract_y
_atom_site_fract_z
Si Si1 0.893442 0.695640 0.780907
Si Si2 0.500000 0.500000 0.000000
Si Si3 0.355758 0.884025 0.441063
Si Si4 0.000000 0.500000 0.000000
Si Si5 0.693302 0.344629 0.590548
Si Si6 0.891266 0.280503 0.695245
Si Si7 0.686805 0.369371 0.287076
Si Si8 0.172329 0.961890 0.323813
O O1 0.869550 0.777975 0.840607
O O2 0.797324 0.664265 0.708056
O O3 0.993238 0.697711 0.693506
O O4 0.892488 0.643794 0.914646
O O5 0.569868 0.453636 0.900938
O O6 0.358995 0.814139 0.340751
O O7 0.251539 0.924326 0.424510
O O8 0.431066 0.950148 0.405323
O O9 0.808245 0.316009 0.597560
O O10 0.344019 0.366131 0.557155
O O11 0.683145 0.415484 0.687625
O O12 0.875624 0.191104 0.701411
O O13 0.685581 0.451040 0.219067
#
# Coordination Sequence:
#
# PCOD9331413 Si02
#       8
#     8   2   8   2   8   8   8   8
#     4  11  21  41  67  98 131 180 229 280 349 412
#     4  12  26  48  62  98 132 176 222 284 344 418
#     4  11  21  39  65  99 131 168 227 290 340 410
#     4  12  18  28  64  98 118 158 202 288 328 376
#     4  10  24  43  65  98 138 179 226 284 343 415
#     4  10  22  40  65  97 132 176 232 276 344 413
#     4  11  23  43  67  95 140 183 224 282 341 416
#     4  11  26  45  66  97 135 179 231 283 348 401
#
# _framework density 21.66629
#
# number of rings (size 3 to 8) (size 9 to 14) (size 15 to 20)
#    0.000    1.231    3.077    2.769    2.154    0.615 
#    0.000    0.769    0.000    1.846    0.000    0.000 
#    0.000    0.000    0.000    0.000    0.000    0.000 
#
# Total GULP energy -145139.594599 kJ/mol
# GULP energy per Si atom -5582.292100 kJ/mol
# Density = 2.161698 g / cm^3
# Si number density = 21.666290 Si / 1000 Ang^3
#
#
#
# Elastic Constant Matrix: (Units=GPa)
#
#
# Indices 1 2 3 4 5 6 
#
# 1 108.9928 22.4529 -13.5385 0.0000 0.0000 0.0000
# 2 22.4529 139.3015 18.3504 0.0000 0.0000 0.0000
# 3 -13.5385 18.3504 52.5943 0.0000 0.0000 0.0000
# 4 0.0000 0.0000 0.0000 12.5551 0.0000 0.0000
# 5 0.0000 0.0000 0.0000 0.0000 18.6133 0.0000
# 6 0.0000 0.0000 0.0000 0.0000 0.0000 24.8099
#
#
#
# Elastic Compliance Matrix: (Units=1/GPa)
#
#
# Indices 1 2 3 4 5 6 
#
# 1 0.010005 -0.002046 0.003289 0.000000 0.000000 0.000000
# 2 -0.002046 0.007943 -0.003298 0.000000 0.000000 0.000000
# 3 0.003289 -0.003298 0.021011 0.000000 0.000000 0.000000
# 4 0.000000 0.000000 0.000000 0.079649 0.000000 0.000000
# 5 0.000000 0.000000 0.000000 0.000000 0.053725 0.000000
# 6 0.000000 0.000000 0.000000 0.000000 0.000000 0.040306
#
#
# Mechanical properties :
#
#
# Convention : Reuss Voigt Hill
#
# Bulk Modulus (GPa) = 28.69487 39.49091 34.09289
# Shear Modulus (GPa) = 21.89482 29.43726 25.66604
#
# Velocity S-wave (km/s) = 3.18236 3.69001 3.44555
# Velocity P-wave (km/s) = 5.17455 6.03501 5.62127
#
# Compressibility (1/GPa) = 0.03484943
#
# Stress axis : x y z
#
# Youngs Moduli (GPa) = 99.95044 125.89882 47.59448
#
# Poissons Ratio (x) = 0.25758 -0.15655
# Poissons Ratio (y) = 0.20449 0.15696
# Poissons Ratio (z) = -0.32876 0.41521
#
# Static dielectric constant tensor:
#      x y z
#    x 1.842510 0.000000 0.000000 
#    y 0.000000 1.825500 0.000000 
#    z 0.000000 0.000000 1.819980 
# 
# From -- ./inp_files/17521.got.cif
#   From: 2010.05.17/outbox.cif.g08.bks.cpg/sg23_9_cif.got.tgz:17521.got - 2010.06.04 12:02:01.
