data_PCOD9331576
_publ_section_title
;
Structure prediction by ZEFSAII (Michael W. Deem and Ramdas Pophale) SiO2 
 PCOD9331576
Probable space group: I 2 2 2
;
_chemical_formula_sum "Si O2"
_cell_formula_units_Z 40
_cell_length_a 11.850866
_cell_length_b 7.627116
_cell_length_c 19.045493
_cell_angle_alpha 90.000000
_cell_angle_beta 90.000000
_cell_angle_gamma 90.000000
_cell_volume 1721.482682
_symmetry_space_group_name_H-M "I 2 2 2"
_symmetry_group_IT_number 23
_symmetry_cell_setting 'orthorhombic'
loop_
_space_group_symop_operation_xyz
x,y,z
-x,-y,z
x,-y,-z
-x,y,-z
1/2+x,1/2+y,1/2+z
1/2-x,1/2-y,1/2+z
1/2+x,1/2-y,1/2-z
1/2-x,1/2+y,1/2-z
loop_
_atom_site_type_symbol
_atom_site_label
_atom_site_fract_x
_atom_site_fract_y
_atom_site_fract_z
Si Si1 0.221631 0.287615 0.314274
Si Si2 0.284704 0.207331 0.508538
Si Si3 0.335843 0.333588 0.661895
Si Si4 0.431996 0.181823 0.936515
Si Si5 0.061207 0.685923 0.115295
O O1 0.275712 0.478064 0.330490
O O2 0.195856 0.266267 0.232949
O O3 0.107458 0.251998 0.359819
O O4 0.324655 0.164593 0.339422
O O5 0.291160 0.251232 0.589677
O O6 0.189671 0.323632 0.472448
O O7 0.394577 0.243380 0.461137
O O8 0.260275 0.000000 0.500000
O O9 0.470820 0.314350 0.650918
O O10 0.500000 0.000000 0.926221
O O11 0.500000 0.278370 0.000000
O O12 0.000000 0.500000 0.108057
#
# Coordination Sequence:
#
# PCOD9331576 Si02
#       5
#     8   8   8   8   8
#     4  11  27  44  72 112 144 199 245 303 376 452
#     4  11  24  43  76 105 139 190 254 308 365 449
#     4  12  24  43  72 103 151 189 244 307 373 441
#     4  10  22  45  69  96 140 187 241 294 363 430
#     4  11  23  45  72 103 148 188 246 309 371 433
#
# _framework density 23.235783999999999
#
# number of rings (size 3 to 8) (size 9 to 14) (size 15 to 20)
#    0.000    1.000    2.000    4.800    2.800    6.800 
#    0.000    5.000    0.000    0.000    0.000    0.000 
#    0.000    0.000    0.000    0.000    0.000    0.000 
#
# Total GULP energy -111654.421124 kJ/mol
# GULP energy per Si atom -5582.721056 kJ/mol
# Density = 2.318290 g / cm^3
# Si number density = 23.235784 Si / 1000 Ang^3
#
#
#
# Elastic Constant Matrix: (Units=GPa)
#
#
# Indices 1 2 3 4 5 6 
#
# 1 130.9810 41.8960 67.7054 0.0000 0.0000 0.0000
# 2 41.8960 73.0240 47.9998 0.0000 0.0000 0.0000
# 3 67.7054 47.9998 231.1599 0.0000 0.0000 0.0000
# 4 0.0000 0.0000 0.0000 29.0922 0.0000 0.0000
# 5 0.0000 0.0000 0.0000 0.0000 -157.5091 0.0000
# 6 0.0000 0.0000 0.0000 0.0000 0.0000 38.8967
#
#
#
# Elastic Compliance Matrix: (Units=1/GPa)
#
#
# Indices 1 2 3 4 5 6 
#
# 1 0.010115 -0.004465 -0.002035 0.000000 0.000000 0.000000
# 2 -0.004465 0.017830 -0.002394 0.000000 0.000000 0.000000
# 3 -0.002035 -0.002394 0.005419 0.000000 0.000000 0.000000
# 4 0.000000 0.000000 0.000000 0.034373 0.000000 0.000000
# 5 0.000000 0.000000 0.000000 0.000000 -0.006349 0.000000
# 6 0.000000 0.000000 0.000000 0.000000 0.000000 0.025709
#
#
# Mechanical properties :
#
#
# Convention : Reuss Voigt Hill
#
# Bulk Modulus (GPa) = 64.21008 83.37414 73.79211
# Shear Modulus (GPa) = 45.42142 0.60020 23.01081
#
# Velocity S-wave (km/s) = 4.42611 0.50879 3.15035
# Velocity P-wave (km/s) = 7.33585 6.02535 6.71266
#
# Compressibility (1/GPa) = 0.01557388
#
# Stress axis : x y z
#
# Youngs Moduli (GPa) = 98.86148 56.08526 184.52289
#
# Poissons Ratio (x) = 0.25045 0.37558
# Poissons Ratio (y) = 0.44146 0.44183
# Poissons Ratio (z) = 0.20123 0.13429
#
# Static dielectric constant tensor:
#      x y z
#    x 1.922690 0.000000 0.000000 
#    y 0.000000 2.155590 0.000000 
#    z 0.000000 0.000000 1.882540 
# 
# From -- ./inp_files/24165.got.cif
#   From: 2010.05.17/outbox.cif.g08.bks.cpg/sg23_13_cif.got.tgz:24165.got - 2010.06.04 12:02:01.
