data_PCOD9331374
_publ_section_title
;
Structure prediction by ZEFSAII (Michael W. Deem and Ramdas Pophale) SiO2 
 PCOD9331374
Probable space group: I 2 2 2
;
_chemical_formula_sum "Si O2"
_cell_formula_units_Z 48
_cell_length_a 22.329080
_cell_length_b 10.168481
_cell_length_c 9.550672
_cell_angle_alpha 90.000000
_cell_angle_beta 90.000000
_cell_angle_gamma 90.000000
_cell_volume 2168.507065
_symmetry_space_group_name_H-M "I 2 2 2"
_symmetry_group_IT_number 23
_symmetry_cell_setting 'orthorhombic'
loop_
_space_group_symop_operation_xyz
x,y,z
-x,-y,z
x,-y,-z
-x,y,-z
1/2+x,1/2+y,1/2+z
1/2-x,1/2-y,1/2+z
1/2+x,1/2-y,1/2-z
1/2-x,1/2+y,1/2-z
loop_
_atom_site_type_symbol
_atom_site_label
_atom_site_fract_x
_atom_site_fract_y
_atom_site_fract_z
Si Si1 0.371056 0.489247 0.838788
Si Si2 0.231881 0.907543 0.136453
Si Si3 0.963220 0.127799 0.179818
Si Si4 0.638284 0.006978 0.167609
Si Si5 0.359140 0.793434 0.585753
Si Si6 0.419512 0.780747 0.302730
O O1 0.315118 0.542412 0.750992
O O2 0.429834 0.583180 0.821368
O O3 0.389356 0.348802 0.769184
O O4 0.354953 0.500000 0.000000
O O5 0.207801 0.764464 0.089797
O O6 0.298347 0.919025 0.196987
O O7 0.227861 0.000000 0.000000
O O8 0.905787 0.169798 0.091166
O O9 0.011877 0.241815 0.171499
O O10 0.000000 0.000000 0.137797
O O11 0.634085 0.882575 0.274412
O O12 0.582824 0.100463 0.196302
O O13 0.640555 0.000000 0.000000
O O14 0.381619 0.840950 0.434335
#
# Coordination Sequence:
#
# PCOD9331374 Si02
#       6
#     8   8   8   8   8   8
#     4  10  22  39  68 108 135 168 219 287 349 398
#     4  10  22  44  69  97 134 173 227 281 339 402
#     4   9  22  41  70 101 133 168 222 287 339 401
#     4  11  28  44  62  97 138 187 225 280 346 407
#     4  11  23  43  70 100 131 177 234 277 338 417
#     4  11  23  42  68  96 136 178 226 274 341 413
#
# _framework density 22.135045999999999
#
# number of rings (size 3 to 8) (size 9 to 14) (size 15 to 20)
#    0.000    1.667    1.667    1.000    7.000    7.000 
#    0.000    2.500    0.000    0.000    0.000    0.000 
#    0.000    0.000    0.000    0.000    0.000    0.000 
#
# Total GULP energy -133634.254478 kJ/mol
# GULP energy per Si atom -5568.093937 kJ/mol
# Density = 2.208467 g / cm^3
# Si number density = 22.135046 Si / 1000 Ang^3
#
#
#
# Elastic Constant Matrix: (Units=GPa)
#
#
# Indices 1 2 3 4 5 6 
#
# 1 75.6596 18.0422 32.1794 0.0000 0.0000 0.0000
# 2 18.0422 46.4843 11.6969 0.0000 0.0000 0.0000
# 3 32.1794 11.6969 128.3130 0.0000 0.0000 0.0000
# 4 0.0000 0.0000 0.0000 25.5030 0.0000 0.0000
# 5 0.0000 0.0000 0.0000 0.0000 18.8283 0.0000
# 6 0.0000 0.0000 0.0000 0.0000 0.0000 20.7920
#
#
#
# Elastic Compliance Matrix: (Units=1/GPa)
#
#
# Indices 1 2 3 4 5 6 
#
# 1 0.015984 -0.005317 -0.003524 0.000000 0.000000 0.000000
# 2 -0.005317 0.023786 -0.000835 0.000000 0.000000 0.000000
# 3 -0.003524 -0.000835 0.008753 0.000000 0.000000 0.000000
# 4 0.000000 0.000000 0.000000 0.039211 0.000000 0.000000
# 5 0.000000 0.000000 0.000000 0.000000 0.053111 0.000000
# 6 0.000000 0.000000 0.000000 0.000000 0.000000 0.048095
#
#
# Mechanical properties :
#
#
# Convention : Reuss Voigt Hill
#
# Bulk Modulus (GPa) = 34.27967 41.58823 37.93395
# Shear Modulus (GPa) = 22.93397 25.59389 24.26393
#
# Velocity S-wave (km/s) = 3.22233 3.40407 3.31445
# Velocity P-wave (km/s) = 5.41893 5.85487 5.64111
#
# Compressibility (1/GPa) = 0.02917181
#
# Stress axis : x y z
#
# Youngs Moduli (GPa) = 62.56327 42.04066 114.24274
#
# Poissons Ratio (x) = 0.22354 0.40257
# Poissons Ratio (y) = 0.33266 0.09538
# Poissons Ratio (z) = 0.22046 0.03510
#
# Static dielectric constant tensor:
#      x y z
#    x 1.793170 0.000000 0.000000 
#    y 0.000000 1.932560 0.000000 
#    z 0.000000 0.000000 2.078470 
# 
# From -- ./inp_files/12597.got.cif
#   From: 2010.05.17/outbox.cif.g08.bks.cpg/sg23_7_cif.got.tgz:12597.got - 2010.06.04 12:02:01.
