data_PCOD9331137
_publ_section_title
;
Structure prediction by ZEFSAII (Michael W. Deem and Ramdas Pophale) SiO2 
 PCOD9331137
Probable space group: I 2 2 2
;
_chemical_formula_sum "Si O2"
_cell_formula_units_Z 40
_cell_length_a 23.840184
_cell_length_b 9.406095
_cell_length_c 7.323775
_cell_angle_alpha 90.000000
_cell_angle_beta 90.000000
_cell_angle_gamma 90.000000
_cell_volume 1642.305537
_symmetry_space_group_name_H-M "I 2 2 2"
_symmetry_group_IT_number 23
_symmetry_cell_setting 'orthorhombic'
loop_
_space_group_symop_operation_xyz
x,y,z
-x,-y,z
x,-y,-z
-x,y,-z
1/2+x,1/2+y,1/2+z
1/2-x,1/2-y,1/2+z
1/2+x,1/2-y,1/2-z
1/2-x,1/2+y,1/2-z
loop_
_atom_site_type_symbol
_atom_site_label
_atom_site_fract_x
_atom_site_fract_y
_atom_site_fract_z
Si Si1 0.584018 0.145353 0.242364
Si Si2 0.612344 0.157290 0.674769
Si Si3 0.676342 0.643888 0.906731
Si Si4 0.228266 0.629183 0.361906
Si Si5 0.484522 0.655097 0.716764
O O1 0.600325 0.154633 0.458606
O O2 0.629917 0.237488 0.135018
O O3 0.525289 0.222523 0.209845
O O4 0.584653 0.976392 0.219586
O O5 0.677615 0.139217 0.716790
O O6 0.579848 0.298630 0.739034
O O7 0.711061 0.608515 0.725024
O O8 0.655929 0.500000 0.000000
O O9 0.722049 0.721547 0.034745
O O10 0.217356 0.500000 0.500000
O O11 0.500000 0.500000 0.788480
O O12 0.500000 0.651907 0.500000
#
# Coordination Sequence:
#
# PCOD9331137 Si02
#       5
#     8   8   8   8   8
#     4  10  21  41  67 100 132 180 231 278 341 410
#     4  10  21  40  71  95 134 179 231 281 334 416
#     4  12  27  43  68 100 140 180 232 291 347 412
#     4  12  25  46  67  98 136 183 232 283 350 416
#     4   9  19  37  64 102 134 171 224 281 342 410
#
# _framework density 24.356005
#
# number of rings (size 3 to 8) (size 9 to 14) (size 15 to 20)
#    0.000    1.400    2.000    3.000    5.600    2.400 
#    3.600    1.000    0.000    0.000    0.000    0.000 
#    0.000    0.000    0.000    0.000    0.000    0.000 
#
# Total GULP energy -111911.024063 kJ/mol
# GULP energy per Si atom -5595.551203 kJ/mol
# Density = 2.430057 g / cm^3
# Si number density = 24.356005 Si / 1000 Ang^3
#
#
#
# Elastic Constant Matrix: (Units=GPa)
#
#
# Indices 1 2 3 4 5 6 
#
# 1 72.4142 21.6097 10.1848 0.0000 0.0000 0.0000
# 2 21.6097 149.6832 23.5697 0.0000 0.0000 0.0000
# 3 10.1848 23.5697 70.6666 0.0000 0.0000 0.0000
# 4 0.0000 0.0000 0.0000 30.9634 0.0000 0.0000
# 5 0.0000 0.0000 0.0000 0.0000 26.7006 0.0000
# 6 0.0000 0.0000 0.0000 0.0000 0.0000 27.6115
#
#
#
# Elastic Compliance Matrix: (Units=1/GPa)
#
#
# Indices 1 2 3 4 5 6 
#
# 1 0.014576 -0.001872 -0.001476 0.000000 0.000000 0.000000
# 2 -0.001872 0.007291 -0.002162 0.000000 0.000000 0.000000
# 3 -0.001476 -0.002162 0.015085 0.000000 0.000000 0.000000
# 4 0.000000 0.000000 0.000000 0.032296 0.000000 0.000000
# 5 0.000000 0.000000 0.000000 0.000000 0.037452 0.000000
# 6 0.000000 0.000000 0.000000 0.000000 0.000000 0.036217
#
#
# Mechanical properties :
#
#
# Convention : Reuss Voigt Hill
#
# Bulk Modulus (GPa) = 38.56348 44.83250 41.69799
# Shear Modulus (GPa) = 30.75374 32.88176 31.81775
#
# Velocity S-wave (km/s) = 3.55727 3.67829 3.61828
# Velocity P-wave (km/s) = 5.72187 6.04043 5.88331
#
# Compressibility (1/GPa) = 0.02593127
#
# Stress axis : x y z
#
# Youngs Moduli (GPa) = 68.60743 137.14648 66.29140
#
# Poissons Ratio (x) = 0.25671 0.09787
# Poissons Ratio (y) = 0.12842 0.14333
# Poissons Ratio (z) = 0.10129 0.29654
#
# Static dielectric constant tensor:
#      x y z
#    x 1.914910 0.000000 0.000000 
#    y 0.000000 1.901640 0.000000 
#    z 0.000000 0.000000 2.020800 
# 
# From -- ./inp_files/6898.got.cif
#   From: 2010.05.17/outbox.cif.g08.bks.cpg/sg23_4_cif.got.tgz:6898.got - 2010.06.04 12:02:01.
