data_PCOD9331536
_publ_section_title
;
Structure prediction by ZEFSAII (Michael W. Deem and Ramdas Pophale) SiO2 
 PCOD9331536
Probable space group: I 2 2 2
;
_chemical_formula_sum "Si O2"
_cell_formula_units_Z 44
_cell_length_a 29.707805
_cell_length_b 10.017442
_cell_length_c 7.930118
_cell_angle_alpha 90.000000
_cell_angle_beta 90.000000
_cell_angle_gamma 90.000000
_cell_volume 2359.973090
_symmetry_space_group_name_H-M "I 2 2 2"
_symmetry_group_IT_number 23
_symmetry_cell_setting 'orthorhombic'
loop_
_space_group_symop_operation_xyz
x,y,z
-x,-y,z
x,-y,-z
-x,y,-z
1/2+x,1/2+y,1/2+z
1/2-x,1/2-y,1/2+z
1/2+x,1/2-y,1/2-z
1/2-x,1/2+y,1/2-z
loop_
_atom_site_type_symbol
_atom_site_label
_atom_site_fract_x
_atom_site_fract_y
_atom_site_fract_z
Si Si1 0.641302 0.500000 0.500000
Si Si2 0.200381 0.750357 0.877385
Si Si3 0.389340 0.907608 0.839148
Si Si4 0.067199 0.864551 0.235707
Si Si5 0.500000 0.500000 0.000000
Si Si6 0.500000 0.500000 0.500000
Si Si7 0.795308 0.657053 0.505261
Si Si8 0.148692 0.500000 0.000000
O O1 0.672393 0.381514 0.427907
O O2 0.611228 0.441581 0.657489
O O3 0.195687 0.712211 0.681419
O O4 0.179865 0.629659 0.985806
O O5 0.253114 0.768464 0.914586
O O6 0.420741 0.785688 0.785070
O O7 0.380212 0.993383 0.670985
O O8 0.341734 0.840792 0.892520
O O9 0.402657 0.000000 0.000000
O O10 0.036037 0.919899 0.387138
O O11 0.032988 0.895127 0.087036
O O12 0.783141 0.500000 0.500000
#
# Coordination Sequence:
#
# PCOD9331536 Si02
#       8
#     4   8   8   8   2   2   8   4
#     4  11  24  41  72 100 130 186 236 275 336 419
#     4  12  24  40  64  95 141 181 237 281 330 385
#     4  11  23  43  66  98 137 181 226 272 342 411
#     4  10  22  43  70 100 131 166 224 279 356 412
#     4  10  24  42  72  98 132 162 208 306 352 418
#     4   8  20  46  72 100 128 166 212 300 344 424
#     4  11  24  41  60  96 138 183 234 279 325 388
#     4  12  22  42  65  93 134 190 214 294 328 384
#
# _framework density 18.644280999999999
#
# number of rings (size 3 to 8) (size 9 to 14) (size 15 to 20)
#    0.000    1.091    6.364    1.091    2.545    0.000 
#    3.273    0.455    0.000    0.000    0.000    0.000 
#    0.000    0.000    0.000    0.000    0.000    0.000 
#
# Total GULP energy -122537.035691 kJ/mol
# GULP energy per Si atom -5569.865259 kJ/mol
# Density = 1.860185 g / cm^3
# Si number density = 18.644281 Si / 1000 Ang^3
#
#
#
# Elastic Constant Matrix: (Units=GPa)
#
#
# Indices 1 2 3 4 5 6 
#
# 1 68.5091 52.8337 34.2995 0.0000 0.0000 0.0000
# 2 52.8337 130.1967 48.3591 0.0000 0.0000 0.0000
# 3 34.2995 48.3591 111.5775 0.0000 0.0000 0.0000
# 4 0.0000 0.0000 0.0000 40.2071 0.0000 0.0000
# 5 0.0000 0.0000 0.0000 0.0000 851.7148 0.0000
# 6 0.0000 0.0000 0.0000 0.0000 0.0000 38.0087
#
#
#
# Elastic Compliance Matrix: (Units=1/GPa)
#
#
# Indices 1 2 3 4 5 6 
#
# 1 0.022337 -0.007764 -0.003502 0.000000 0.000000 0.000000
# 2 -0.007764 0.011853 -0.002751 0.000000 0.000000 0.000000
# 3 -0.003502 -0.002751 0.011231 0.000000 0.000000 0.000000
# 4 0.000000 0.000000 0.000000 0.024871 0.000000 0.000000
# 5 0.000000 0.000000 0.000000 0.000000 0.001174 0.000000
# 6 0.000000 0.000000 0.000000 0.000000 0.000000 0.026310
#
#
# Mechanical properties :
#
#
# Convention : Reuss Voigt Hill
#
# Bulk Modulus (GPa) = 57.50768 64.58531 61.04649
# Shear Modulus (GPa) = 37.99272 197.63886 117.81579
#
# Velocity S-wave (km/s) = 4.51906 10.30705 7.95792
# Velocity P-wave (km/s) = 7.62502 13.28017 10.82829
#
# Compressibility (1/GPa) = 0.01738898
#
# Stress axis : x y z
#
# Youngs Moduli (GPa) = 44.76859 84.36782 89.03985
#
# Poissons Ratio (x) = 0.65501 0.31178
# Poissons Ratio (y) = 0.34757 0.24491
# Poissons Ratio (z) = 0.15676 0.23206
#
# Static dielectric constant tensor:
#      x y z
#    x 1.631600 0.000000 0.000000 
#    y 0.000000 1.592750 0.000000 
#    z 0.000000 0.000000 1.705350 
# 
# From -- ./inp_files/13309.got.cif
#   From: 2010.05.17/outbox.cif.g08.bks.cpg/sg23_7_cif.got.tgz:13309.got - 2010.06.04 12:02:01.
