data_PCOD9331336
_publ_section_title
;
Structure prediction by ZEFSAII (Michael W. Deem and Ramdas Pophale) SiO2 
 PCOD9331336
Probable space group: I 2 2 2
;
_chemical_formula_sum "Si O2"
_cell_formula_units_Z 48
_cell_length_a 30.637743
_cell_length_b 8.375533
_cell_length_c 8.474446
_cell_angle_alpha 90.000000
_cell_angle_beta 90.000000
_cell_angle_gamma 90.000000
_cell_volume 2174.605788
_symmetry_space_group_name_H-M "I 2 2 2"
_symmetry_group_IT_number 23
_symmetry_cell_setting 'orthorhombic'
loop_
_space_group_symop_operation_xyz
x,y,z
-x,-y,z
x,-y,-z
-x,y,-z
1/2+x,1/2+y,1/2+z
1/2-x,1/2-y,1/2+z
1/2+x,1/2-y,1/2-z
1/2-x,1/2+y,1/2-z
loop_
_atom_site_type_symbol
_atom_site_label
_atom_site_fract_x
_atom_site_fract_y
_atom_site_fract_z
Si Si1 0.500000 0.000000 0.257672
Si Si2 0.738305 0.591820 0.353878
Si Si3 0.357322 0.241123 0.054270
Si Si4 0.420936 0.500000 0.500000
Si Si5 0.070637 0.500000 0.500000
Si Si6 0.693834 0.930631 0.340052
Si Si7 0.149859 0.062592 0.258876
Si Si8 0.000000 0.229562 0.000000
O O1 0.487638 0.847452 0.359812
O O2 0.540704 0.965876 0.148142
O O3 0.759805 0.500000 0.500000
O O4 0.771789 0.565803 0.212154
O O5 0.694640 0.490187 0.321856
O O6 0.722239 0.771524 0.376862
O O7 0.335275 0.126410 0.188603
O O8 0.399095 0.152741 0.987323
O O9 0.336692 0.304032 0.889000
O O10 0.365757 0.404414 0.147601
O O11 0.388320 0.417685 0.628215
O O12 0.456972 0.631427 0.553349
O O13 0.671578 0.000000 0.500000
#
# Coordination Sequence:
#
# PCOD9331336 Si02
#       8
#     4   8   8   4   4   8   8   4
#     4  10  22  42  60  94 132 170 210 270 334 402
#     4  11  24  41  66  94 130 182 219 292 346 417
#     4  10  24  42  63  95 128 176 220 286 334 409
#     4  11  20  40  67 100 126 172 219 264 330 417
#     4  11  22  40  65  90 128 174 221 268 340 401
#     4  11  26  44  65  95 133 177 237 287 350 421
#     4  10  22  42  65  93 137 170 223 277 346 399
#     4  10  22  38  66  96 132 168 210 268 330 404
#
# _framework density 22.072966000000001
#
# number of rings (size 3 to 8) (size 9 to 14) (size 15 to 20)
#    0.000    1.500    0.833    3.000    8.167    1.333 
#    9.000    0.000    0.000    8.000    0.000    0.000 
#    0.000    0.000    0.000    0.000    0.000    0.000 
#
# Total GULP energy -133799.081434 kJ/mol
# GULP energy per Si atom -5574.961726 kJ/mol
# Density = 2.202273 g / cm^3
# Si number density = 22.072966 Si / 1000 Ang^3
#
#
#
# Elastic Constant Matrix: (Units=GPa)
#
#
# Indices 1 2 3 4 5 6 
#
# 1 51.0908 9.9344 18.1834 0.0000 0.0000 0.0000
# 2 9.9344 69.6770 23.5461 0.0000 0.0000 0.0000
# 3 18.1834 23.5461 98.6945 0.0000 0.0000 0.0000
# 4 0.0000 0.0000 0.0000 44.4891 0.0000 0.0000
# 5 0.0000 0.0000 0.0000 0.0000 48.2006 0.0000
# 6 0.0000 0.0000 0.0000 0.0000 0.0000 25.3761
#
#
#
# Elastic Compliance Matrix: (Units=1/GPa)
#
#
# Indices 1 2 3 4 5 6 
#
# 1 0.021163 -0.001849 -0.003458 0.000000 0.000000 0.000000
# 2 -0.001849 0.015772 -0.003422 0.000000 0.000000 0.000000
# 3 -0.003458 -0.003422 0.011586 0.000000 0.000000 0.000000
# 4 0.000000 0.000000 0.000000 0.022477 0.000000 0.000000
# 5 0.000000 0.000000 0.000000 0.000000 0.020747 0.000000
# 6 0.000000 0.000000 0.000000 0.000000 0.000000 0.039407
#
#
# Mechanical properties :
#
#
# Convention : Reuss Voigt Hill
#
# Bulk Modulus (GPa) = 32.19264 35.86556 34.02910
# Shear Modulus (GPa) = 31.45354 34.79973 33.12664
#
# Velocity S-wave (km/s) = 3.77899 3.97492 3.87819
# Velocity P-wave (km/s) = 5.80149 6.11151 5.95852
#
# Compressibility (1/GPa) = 0.03106300
#
# Stress axis : x y z
#
# Youngs Moduli (GPa) = 47.25178 63.40341 86.31236
#
# Poissons Ratio (x) = 0.11722 0.29847
# Poissons Ratio (y) = 0.08736 0.29538
# Poissons Ratio (z) = 0.16340 0.21698
#
# Static dielectric constant tensor:
#      x y z
#    x 1.745140 0.000000 0.000000 
#    y 0.000000 1.893870 0.000000 
#    z 0.000000 0.000000 1.919380 
# 
# From -- ./inp_files/13410.got.cif
#   From: 2010.05.17/outbox.cif.g08.bks.cpg/sg23_7_cif.got.tgz:13410.got - 2010.06.04 12:02:01.
