data_PCOD9331943
_publ_section_title
;
Structure prediction by ZEFSAII (Michael W. Deem and Ramdas Pophale) SiO2 
 PCOD9331943
Probable space group: I 2 2 2
;
_chemical_formula_sum "Si O2"
_cell_formula_units_Z 40
_cell_length_a 23.021406
_cell_length_b 9.907950
_cell_length_c 7.600322
_cell_angle_alpha 90.000000
_cell_angle_beta 90.000000
_cell_angle_gamma 90.000000
_cell_volume 1733.594987
_symmetry_space_group_name_H-M "I 2 2 2"
_symmetry_group_IT_number 23
_symmetry_cell_setting 'orthorhombic'
loop_
_space_group_symop_operation_xyz
x,y,z
-x,-y,z
x,-y,-z
-x,y,-z
1/2+x,1/2+y,1/2+z
1/2-x,1/2-y,1/2+z
1/2+x,1/2-y,1/2-z
1/2-x,1/2+y,1/2-z
loop_
_atom_site_type_symbol
_atom_site_label
_atom_site_fract_x
_atom_site_fract_y
_atom_site_fract_z
Si Si1 0.339881 0.208806 0.353819
Si Si2 0.257581 0.631326 0.883613
Si Si3 0.649640 0.066164 0.187474
Si Si4 0.929559 0.825564 0.313656
Si Si5 0.563177 0.633157 0.233386
O O1 0.309322 0.274519 0.180530
O O2 0.290227 0.207724 0.499042
O O3 0.397642 0.293057 0.375736
O O4 0.359814 0.056913 0.320414
O O5 0.218669 0.590781 0.714602
O O6 0.275419 0.500000 0.000000
O O7 0.611865 0.199058 0.227889
O O8 0.635902 0.000000 0.000000
O O9 0.930032 0.825574 0.527896
O O10 0.995744 0.827910 0.240816
O O11 0.914189 0.978797 0.261414
#
# Coordination Sequence:
#
# PCOD9331943 Si02
#       5
#     8   8   8   8   8
#     4  11  22  39  61  88 123 167 210 266 324 377
#     4  10  25  41  61  94 130 172 218 266 326 397
#     4  11  21  38  63  92 124 159 210 266 319 390
#     4   9  19  36  60  94 120 158 211 259 323 390
#     4   9  19  36  62  88 124 162 206 264 318 386
#
# _framework density 23.073440000000002
#
# number of rings (size 3 to 8) (size 9 to 14) (size 15 to 20)
#    0.000    2.000    2.000    2.400    2.800    2.400 
#    0.000    6.000    0.000    6.000    0.000    0.000 
#    0.000    0.000    0.000    0.000    0.000    0.000 
#
# Total GULP energy -111552.729249 kJ/mol
# GULP energy per Si atom -5577.636462 kJ/mol
# Density = 2.302092 g / cm^3
# Si number density = 23.073440 Si / 1000 Ang^3
#
#
#
# Elastic Constant Matrix: (Units=GPa)
#
#
# Indices 1 2 3 4 5 6 
#
# 1 54.6081 63.9401 23.5228 0.0000 0.0000 0.0000
# 2 63.9401 137.3358 32.7190 0.0000 0.0000 0.0000
# 3 23.5228 32.7190 71.4195 0.0000 0.0000 0.0000
# 4 0.0000 0.0000 0.0000 24.3340 0.0000 0.0000
# 5 0.0000 0.0000 0.0000 0.0000 23.7173 0.0000
# 6 0.0000 0.0000 0.0000 0.0000 0.0000 43.3585
#
#
#
# Elastic Compliance Matrix: (Units=1/GPa)
#
#
# Indices 1 2 3 4 5 6 
#
# 1 0.042089 -0.018289 -0.005484 0.000000 0.000000 0.000000
# 2 -0.018289 0.016121 -0.001362 0.000000 0.000000 0.000000
# 3 -0.005484 -0.001362 0.016432 0.000000 0.000000 0.000000
# 4 0.000000 0.000000 0.000000 0.041095 0.000000 0.000000
# 5 0.000000 0.000000 0.000000 0.000000 0.042163 0.000000
# 6 0.000000 0.000000 0.000000 0.000000 0.000000 0.023064
#
#
# Mechanical properties :
#
#
# Convention : Reuss Voigt Hill
#
# Bulk Modulus (GPa) = 41.02988 55.96969 48.49978
# Shear Modulus (GPa) = 20.88936 27.82740 24.35838
#
# Velocity S-wave (km/s) = 3.01215 3.47657 3.25266
# Velocity P-wave (km/s) = 5.46977 6.35808 5.93058
#
# Compressibility (1/GPa) = 0.02437248
#
# Stress axis : x y z
#
# Youngs Moduli (GPa) = 23.75914 62.03173 60.85796
#
# Poissons Ratio (x) = 1.13451 0.33373
# Poissons Ratio (y) = 0.43453 0.08286
# Poissons Ratio (z) = 0.13029 0.08446
#
# Static dielectric constant tensor:
#      x y z
#    x 1.867990 0.000000 0.000000 
#    y 0.000000 1.893390 0.000000 
#    z 0.000000 0.000000 1.938890 
# 
# From -- ./inp_files/12414.got.cif
#   From: 2010.05.17/outbox.cif.g08.bks.cpg/sg23_7_cif.got.tgz:12414.got - 2010.06.04 12:02:01.
