data_PCOD9331799
_publ_section_title
;
Structure prediction by ZEFSAII (Michael W. Deem and Ramdas Pophale) SiO2 
 PCOD9331799
Probable space group: I 2 2 2
;
_chemical_formula_sum "Si O2"
_cell_formula_units_Z 48
_cell_length_a 5.252001
_cell_length_b 14.692037
_cell_length_c 32.032472
_cell_angle_alpha 90.000000
_cell_angle_beta 90.000000
_cell_angle_gamma 90.000000
_cell_volume 2471.708600
_symmetry_space_group_name_H-M "I 2 2 2"
_symmetry_group_IT_number 23
_symmetry_cell_setting 'orthorhombic'
loop_
_space_group_symop_operation_xyz
x,y,z
-x,-y,z
x,-y,-z
-x,y,-z
1/2+x,1/2+y,1/2+z
1/2-x,1/2-y,1/2+z
1/2+x,1/2-y,1/2-z
1/2-x,1/2+y,1/2-z
loop_
_atom_site_type_symbol
_atom_site_label
_atom_site_fract_x
_atom_site_fract_y
_atom_site_fract_z
Si Si1 0.000000 0.500000 0.663107
Si Si2 0.736540 0.405149 0.261948
Si Si3 0.062159 0.342177 0.404622
Si Si4 0.946706 0.107007 0.951367
Si Si5 0.000000 0.000000 0.688281
Si Si6 0.569071 0.697776 0.158468
Si Si7 0.932228 0.250831 0.209867
O O1 0.800722 0.542574 0.695903
O O2 0.923741 0.417198 0.632689
O O3 0.712953 0.469381 0.221822
O O4 0.478623 0.348356 0.270756
O O5 0.925718 0.325482 0.246738
O O6 0.340221 0.339592 0.424977
O O7 0.840732 0.373595 0.436571
O O8 0.970293 0.246674 0.385547
O O9 0.000000 0.000000 0.943957
O O10 0.000000 0.124994 0.000000
O O11 0.066651 0.088525 0.661479
O O12 0.828868 0.731895 0.179589
O O13 0.323587 0.732077 0.184406
#
# Coordination Sequence:
#
# PCOD9331799 Si02
#       7
#     4   8   8   8   4   8   8
#     4  12  24  34  57  88 122 160 208 250 297 346
#     4  11  23  37  58  81 120 169 222 258 302 347
#     4  12  24  40  62  93 123 155 191 245 303 355
#     4  11  23  43  66  93 125 156 185 225 296 392
#     4  10  24  38  60  82 117 170 221 256 306 338
#     4  11  24  42  60  85 120 156 211 261 302 348
#     4  11  23  40  56  80 114 166 215 261 302 342
#
# _framework density 19.419765000000002
#
# number of rings (size 3 to 8) (size 9 to 14) (size 15 to 20)
#    0.000    0.833    3.333    4.500    2.333    3.333 
#    0.000    0.000    0.000    0.000    0.000    3.500 
#    0.000    0.000    0.000    0.000    0.000    0.000 
#
# Total GULP energy -134152.269759 kJ/mol
# GULP energy per Si atom -5589.677907 kJ/mol
# Density = 1.937556 g / cm^3
# Si number density = 19.419765 Si / 1000 Ang^3
#
#
#
# Elastic Constant Matrix: (Units=GPa)
#
#
# Indices 1 2 3 4 5 6 
#
# 1 84.2621 -0.9197 4.5008 0.0000 0.0000 0.0000
# 2 -0.9197 99.6482 26.6951 0.0000 0.0000 0.0000
# 3 4.5008 26.6951 64.2999 0.0000 0.0000 0.0000
# 4 0.0000 0.0000 0.0000 16.1463 0.0000 0.0000
# 5 0.0000 0.0000 0.0000 0.0000 11.7736 0.0000
# 6 0.0000 0.0000 0.0000 0.0000 0.0000 31.1651
#
#
#
# Elastic Compliance Matrix: (Units=1/GPa)
#
#
# Indices 1 2 3 4 5 6 
#
# 1 0.011925 0.000375 -0.000991 0.000000 0.000000 0.000000
# 2 0.000375 0.011303 -0.004719 0.000000 0.000000 0.000000
# 3 -0.000991 -0.004719 0.017581 0.000000 0.000000 0.000000
# 4 0.000000 0.000000 0.000000 0.061934 0.000000 0.000000
# 5 0.000000 0.000000 0.000000 0.000000 0.084936 0.000000
# 6 0.000000 0.000000 0.000000 0.000000 0.000000 0.032087
#
#
# Mechanical properties :
#
#
# Convention : Reuss Voigt Hill
#
# Bulk Modulus (GPa) = 33.17822 34.30693 33.74258
# Shear Modulus (GPa) = 20.79178 26.34595 23.56886
#
# Velocity S-wave (km/s) = 3.27563 3.68728 3.48753
# Velocity P-wave (km/s) = 5.60608 5.98601 5.79916
#
# Compressibility (1/GPa) = 0.03014026
#
# Stress axis : x y z
#
# Youngs Moduli (GPa) = 83.85926 88.47274 56.88101
#
# Poissons Ratio (x) = -0.03321 0.05634
# Poissons Ratio (y) = -0.03148 0.26841
# Poissons Ratio (z) = 0.08307 0.41749
#
# Static dielectric constant tensor:
#      x y z
#    x 1.806820 0.000000 0.000000 
#    y 0.000000 1.733290 0.000000 
#    z 0.000000 0.000000 1.680990 
# 
# From -- ./inp_files/28962.got.cif
#   From: 2010.05.17/outbox.cif.g08.bks.cpg/sg23_15_cif.got.tgz:28962.got - 2010.06.04 12:02:01.
