data_PCOD9331012
_publ_section_title
;
Structure prediction by ZEFSAII (Michael W. Deem and Ramdas Pophale) SiO2 
 PCOD9331012
Probable space group: I 2 2 2
;
_chemical_formula_sum "Si O2"
_cell_formula_units_Z 64
_cell_length_a 12.143537
_cell_length_b 31.688015
_cell_length_c 7.565334
_cell_angle_alpha 90.000000
_cell_angle_beta 90.000000
_cell_angle_gamma 90.000000
_cell_volume 2911.175192
_symmetry_space_group_name_H-M "I 2 2 2"
_symmetry_group_IT_number 23
_symmetry_cell_setting 'orthorhombic'
loop_
_space_group_symop_operation_xyz
x,y,z
-x,-y,z
x,-y,-z
-x,y,-z
1/2+x,1/2+y,1/2+z
1/2-x,1/2-y,1/2+z
1/2+x,1/2-y,1/2-z
1/2-x,1/2+y,1/2-z
loop_
_atom_site_type_symbol
_atom_site_label
_atom_site_fract_x
_atom_site_fract_y
_atom_site_fract_z
Si Si1 0.757948 0.127894 0.323126
Si Si2 0.503604 0.657539 0.210629
Si Si3 0.279481 0.622929 0.238004
Si Si4 0.948801 0.678024 0.169595
Si Si5 0.838873 0.301253 0.391785
Si Si6 0.377719 0.951993 0.791571
Si Si7 0.373890 0.049386 0.781087
Si Si8 0.632669 0.257338 0.236766
O O1 0.764437 0.138511 0.533851
O O2 0.650748 0.151867 0.252036
O O3 0.722554 0.079413 0.291461
O O4 0.871890 0.145040 0.240001
O O5 0.409020 0.626106 0.280353
O O6 0.456977 0.704930 0.243266
O O7 0.500000 0.652979 0.000000
O O8 0.219651 0.652793 0.380703
O O9 0.219996 0.578288 0.234480
O O10 0.897078 0.722926 0.115338
O O11 0.045711 0.688659 0.301831
O O12 0.000000 0.655876 0.000000
O O13 0.752343 0.275612 0.272355
O O14 0.859829 0.270343 0.557755
O O15 0.500309 0.937545 0.731537
O O16 0.362022 0.000223 0.731533
O O17 0.374622 0.950311 0.005235
#
# Coordination Sequence:
#
# PCOD9331012 Si02
#       8
#     8   8   8   8   8   8   8   8
#     4  11  23  40  62  88 124 165 209 265 317 389
#     4   9  21  42  60  81 117 168 206 259 317 375
#     4  10  21  39  63  86 123 157 215 262 312 383
#     4  12  24  38  59  89 123 156 207 266 307 386
#     4  11  23  41  60  91 117 164 210 265 327 377
#     4   9  19  39  62  95 131 160 202 259 317 403
#     4   9  20  37  64  93 129 167 198 251 334 389
#     4  11  25  41  65  84 125 164 214 266 325 390
#
# _framework density 21.984249999999999
#
# number of rings (size 3 to 8) (size 9 to 14) (size 15 to 20)
#    0.000    1.750    1.250    3.375    7.000    0.500 
#    0.000    2.500    0.000    3.750    0.000    0.000 
#    0.000    0.000    0.000    0.000    0.000    0.000 
#
# Total GULP energy -178603.143615 kJ/mol
# GULP energy per Si atom -5581.348238 kJ/mol
# Density = 2.193421 g / cm^3
# Si number density = 21.984250 Si / 1000 Ang^3
#
#
#
# Elastic Constant Matrix: (Units=GPa)
#
#
# Indices 1 2 3 4 5 6 
#
# 1 153.4520 72.0231 17.5605 0.0034 0.0027 -0.0011
# 2 72.0231 107.8350 14.2250 0.0020 0.0006 0.0003
# 3 17.5605 14.2250 61.2917 0.0162 0.0124 -0.0002
# 4 0.0034 0.0020 0.0162 26.7796 -0.0031 0.0009
# 5 0.0027 0.0006 0.0124 -0.0031 27.6370 0.0005
# 6 -0.0011 0.0003 -0.0002 0.0009 0.0005 29.1590
#
#
#
# Elastic Compliance Matrix: (Units=1/GPa)
#
#
# Indices 1 2 3 4 5 6 
#
# 1 0.009592 -0.006235 -0.001301 0.000000 0.000000 0.000000
# 2 -0.006235 0.013619 -0.001374 0.000001 0.000001 0.000000
# 3 -0.001301 -0.001374 0.017007 -0.000010 -0.000007 0.000000
# 4 0.000000 0.000001 -0.000010 0.037342 0.000004 -0.000001
# 5 0.000000 0.000001 -0.000007 0.000004 0.036183 -0.000001
# 6 0.000000 0.000000 0.000000 -0.000001 -0.000001 0.034295
#
#
# Mechanical properties :
#
#
# Convention : Reuss Voigt Hill
#
# Bulk Modulus (GPa) = 44.64831 58.91065 51.77948
# Shear Modulus (GPa) = 28.84758 31.29978 30.07368
#
# Velocity S-wave (km/s) = 3.62635 3.77734 3.70261
# Velocity P-wave (km/s) = 6.15526 6.77343 6.47173
#
# Compressibility (1/GPa) = 0.02239727
#
# Stress axis : x y z
#
# Youngs Moduli (GPa) = 104.25447 73.42700 58.79861
#
# Poissons Ratio (x) = 0.45780 0.07651
# Poissons Ratio (y) = 0.65001 0.08082
# Poissons Ratio (z) = 0.13565 0.10092
#
# Static dielectric constant tensor:
#      x y z
#    x 1.866650 -0.000020 0.000000 
#    y -0.000020 1.853550 0.000000 
#    z 0.000000 0.000000 1.953340 
# 
# From -- ./inp_files/8961.got.cif
#   From: 2010.05.17/outbox.cif.g08.bks.cpg/sg23_5_cif.got.tgz:8961.got - 2010.06.04 12:02:01.
