data_PCOD9331913
_publ_section_title
;
Structure prediction by ZEFSAII (Michael W. Deem and Ramdas Pophale) SiO2 
 PCOD9331913
Probable space group: I 2 2 2
;
_chemical_formula_sum "Si O2"
_cell_formula_units_Z 30
_cell_length_a 14.470200
_cell_length_b 13.387248
_cell_length_c 6.675382
_cell_angle_alpha 90.000000
_cell_angle_beta 90.000000
_cell_angle_gamma 90.000000
_cell_volume 1293.129341
_symmetry_space_group_name_H-M "I 2 2 2"
_symmetry_group_IT_number 23
_symmetry_cell_setting 'orthorhombic'
loop_
_space_group_symop_operation_xyz
x,y,z
-x,-y,z
x,-y,-z
-x,y,-z
1/2+x,1/2+y,1/2+z
1/2-x,1/2-y,1/2+z
1/2+x,1/2-y,1/2-z
1/2-x,1/2+y,1/2-z
loop_
_atom_site_type_symbol
_atom_site_label
_atom_site_fract_x
_atom_site_fract_y
_atom_site_fract_z
Si Si1 0.639880 0.577284 0.847048
Si Si2 0.344291 0.031510 0.225699
Si Si3 0.500000 0.000000 0.500000
Si Si4 0.500000 0.368820 0.500000
Si Si5 0.589143 0.250025 0.865662
O O1 0.739312 0.530947 0.796986
O O2 0.577581 0.583687 0.647801
O O3 0.595072 0.500000 0.000000
O O4 0.646710 0.680551 0.976955
O O5 0.420440 0.964186 0.343352
O O6 0.370898 0.148063 0.221832
O O7 0.347544 0.000000 0.000000
O O8 0.558563 0.309696 0.667764
O O9 0.500000 0.225142 0.000000
#
# Coordination Sequence:
#
# PCOD9331913 Si02
#       5
#     8   8   2   4   8
#     4  11  27  46  70 111 142 188 243 289 360 429
#     4  12  27  46  73 106 146 188 238 296 358 427
#     4  12  24  48  74 102 146 186 240 300 354 432
#     4  10  25  47  75  97 144 190 237 301 361 415
#     4  10  24  46  71 103 135 186 240 294 355 423
#
# _framework density 23.199536999999999
#
# number of rings (size 3 to 8) (size 9 to 14) (size 15 to 20)
#    0.000    1.067    1.333    2.800    7.467    8.000 
#    0.000    0.000    0.000    0.000    0.000    0.000 
#    0.000    0.000    0.000    0.000    0.000    0.000 
#
# Total GULP energy -83590.795643 kJ/mol
# GULP energy per Si atom -5572.719710 kJ/mol
# Density = 2.314673 g / cm^3
# Si number density = 23.199537 Si / 1000 Ang^3
#
#
#
# Elastic Constant Matrix: (Units=GPa)
#
#
# Indices 1 2 3 4 5 6 
#
# 1 153.0733 4.9778 73.9000 0.0000 0.0000 0.0000
# 2 4.9778 52.6625 31.4485 0.0000 0.0000 0.0000
# 3 73.9000 31.4485 214.7348 0.0000 0.0000 0.0000
# 4 0.0000 0.0000 0.0000 16.4084 0.0000 0.0000
# 5 0.0000 0.0000 0.0000 0.0000 41.4811 0.0000
# 6 0.0000 0.0000 0.0000 0.0000 0.0000 19.3954
#
#
#
# Elastic Compliance Matrix: (Units=1/GPa)
#
#
# Indices 1 2 3 4 5 6 
#
# 1 0.007878 0.000958 -0.002852 0.000000 0.000000 0.000000
# 2 0.000958 0.020925 -0.003394 0.000000 0.000000 0.000000
# 3 -0.002852 -0.003394 0.006135 0.000000 0.000000 0.000000
# 4 0.000000 0.000000 0.000000 0.060945 0.000000 0.000000
# 5 0.000000 0.000000 0.000000 0.000000 0.024107 0.000000
# 6 0.000000 0.000000 0.000000 0.000000 0.000000 0.051559
#
#
# Mechanical properties :
#
#
# Convention : Reuss Voigt Hill
#
# Bulk Modulus (GPa) = 41.04495 71.23593 56.14044
# Shear Modulus (GPa) = 26.28172 36.13325 31.20748
#
# Velocity S-wave (km/s) = 3.36944 3.95080 3.67164
# Velocity P-wave (km/s) = 5.73307 7.18221 6.49816
#
# Compressibility (1/GPa) = 0.02436353
#
# Stress axis : x y z
#
# Youngs Moduli (GPa) = 126.92999 47.78912 162.98866
#
# Poissons Ratio (x) = -0.04579 0.46478
# Poissons Ratio (y) = -0.12163 0.55324
# Poissons Ratio (z) = 0.36196 0.16221
#
# Static dielectric constant tensor:
#      x y z
#    x 1.872610 0.000000 0.000000 
#    y 0.000000 2.057400 0.000000 
#    z 0.000000 0.000000 1.852210 
# 
# From -- ./inp_files/2957.got.cif
#   From: 2010.05.17/outbox.cif.g08.bks.cpg/sg23_2_cif.got.tgz:2957.got - 2010.06.04 12:02:01.
