data_PCOD9331673
_publ_section_title
;
Structure prediction by ZEFSAII (Michael W. Deem and Ramdas Pophale) SiO2 
 PCOD9331673
Probable space group: I 2 2 2
;
_chemical_formula_sum "Si O2"
_cell_formula_units_Z 40
_cell_length_a 12.510512
_cell_length_b 5.204089
_cell_length_c 29.305092
_cell_angle_alpha 90.000000
_cell_angle_beta 90.000000
_cell_angle_gamma 90.000000
_cell_volume 1907.931983
_symmetry_space_group_name_H-M "I 2 2 2"
_symmetry_group_IT_number 23
_symmetry_cell_setting 'orthorhombic'
loop_
_space_group_symop_operation_xyz
x,y,z
-x,-y,z
x,-y,-z
-x,y,-z
1/2+x,1/2+y,1/2+z
1/2-x,1/2-y,1/2+z
1/2+x,1/2-y,1/2-z
1/2-x,1/2+y,1/2-z
loop_
_atom_site_type_symbol
_atom_site_label
_atom_site_fract_x
_atom_site_fract_y
_atom_site_fract_z
Si Si1 0.621785 0.749856 0.979518
Si Si2 0.823006 0.806638 0.756332
Si Si3 0.429752 0.745772 0.645348
Si Si4 0.108270 0.638019 0.337632
Si Si5 0.199572 0.836820 0.619777
O O1 0.634355 0.738957 0.925617
O O2 0.675130 0.500000 0.000000
O O3 0.500000 0.749841 0.000000
O O4 0.674299 0.000000 0.000000
O O5 0.736451 0.574006 0.754896
O O6 0.887096 0.811823 0.803354
O O7 0.900152 0.735759 0.713966
O O8 0.500000 0.500000 0.630274
O O9 0.327221 0.823910 0.614415
O O10 0.500000 0.000000 0.648296
O O11 0.184308 0.392846 0.343672
O O12 0.000000 0.500000 0.353304
O O13 0.153807 0.885872 0.364628
#
# Coordination Sequence:
#
# PCOD9331673 Si02
#       5
#     8   8   8   8   8
#     4  10  23  41  68  98 132 174 208 272 360 445
#     4  12  22  43  63  94 141 188 238 293 353 393
#     4  12  25  43  70  93 135 194 241 289 341 410
#     4  12  25  39  65 100 139 185 221 293 349 424
#     4  12  25  44  67 102 139 174 236 288 348 430
#
# _framework density 20.965109000000002
#
# number of rings (size 3 to 8) (size 9 to 14) (size 15 to 20)
#    0.000    0.400    4.000    4.800    8.400    1.600 
#    0.000    0.000    0.000    3.600    0.000    0.000 
#    0.000    0.000    0.000    0.000    0.000    0.000 
#
# Total GULP energy -111607.262313 kJ/mol
# GULP energy per Si atom -5580.363116 kJ/mol
# Density = 2.091739 g / cm^3
# Si number density = 20.965109 Si / 1000 Ang^3
#
#
#
# Elastic Constant Matrix: (Units=GPa)
#
#
# Indices 1 2 3 4 5 6 
#
# 1 105.7339 40.3833 44.3962 0.0000 0.0000 0.0000
# 2 40.3833 186.5419 32.7114 0.0000 0.0000 0.0000
# 3 44.3962 32.7114 70.9446 0.0000 0.0000 0.0000
# 4 0.0000 0.0000 0.0000 20.2364 0.0000 0.0000
# 5 0.0000 0.0000 0.0000 0.0000 13.7183 0.0000
# 6 0.0000 0.0000 0.0000 0.0000 0.0000 39.2777
#
#
#
# Elastic Compliance Matrix: (Units=1/GPa)
#
#
# Indices 1 2 3 4 5 6 
#
# 1 0.013221 -0.001535 -0.007565 0.000000 0.000000 0.000000
# 2 -0.001535 0.006011 -0.001811 0.000000 0.000000 0.000000
# 3 -0.007565 -0.001811 0.019665 0.000000 0.000000 0.000000
# 4 0.000000 0.000000 0.000000 0.049416 0.000000 0.000000
# 5 0.000000 0.000000 0.000000 0.000000 0.072895 0.000000
# 6 0.000000 0.000000 0.000000 0.000000 0.000000 0.025460
#
#
# Mechanical properties :
#
#
# Convention : Reuss Voigt Hill
#
# Bulk Modulus (GPa) = 58.57118 66.46690 62.51904
# Shear Modulus (GPa) = 23.34475 31.02844 27.18660
#
# Velocity S-wave (km/s) = 3.34054 3.85126 3.60495
# Velocity P-wave (km/s) = 6.54806 7.17974 6.87116
#
# Compressibility (1/GPa) = 0.01707324
#
# Stress axis : x y z
#
# Youngs Moduli (GPa) = 75.63871 166.37234 50.85272
#
# Poissons Ratio (x) = 0.25545 0.38472
# Poissons Ratio (y) = 0.11614 0.09207
# Poissons Ratio (z) = 0.57224 0.30122
#
# Static dielectric constant tensor:
#      x y z
#    x 1.926210 0.000000 0.000000 
#    y 0.000000 1.994150 0.000000 
#    z 0.000000 0.000000 1.777910 
# 
# From -- ./inp_files/13969.got.cif
#   From: 2010.05.17/outbox.cif.g08.bks.cpg/sg23_7_cif.got.tgz:13969.got - 2010.06.04 12:02:01.
