data_PCOD9331262
_publ_section_title
;
Structure prediction by ZEFSAII (Michael W. Deem and Ramdas Pophale) SiO2 
 PCOD9331262
Probable space group: I 2 2 2
;
_chemical_formula_sum "Si O2"
_cell_formula_units_Z 60
_cell_length_a 12.522973
_cell_length_b 22.134692
_cell_length_c 10.692090
_cell_angle_alpha 90.000000
_cell_angle_beta 90.000000
_cell_angle_gamma 90.000000
_cell_volume 2963.763418
_symmetry_space_group_name_H-M "I 2 2 2"
_symmetry_group_IT_number 23
_symmetry_cell_setting 'orthorhombic'
loop_
_space_group_symop_operation_xyz
x,y,z
-x,-y,z
x,-y,-z
-x,y,-z
1/2+x,1/2+y,1/2+z
1/2-x,1/2-y,1/2+z
1/2+x,1/2-y,1/2-z
1/2-x,1/2+y,1/2-z
loop_
_atom_site_type_symbol
_atom_site_label
_atom_site_fract_x
_atom_site_fract_y
_atom_site_fract_z
Si Si1 0.374666 0.889748 0.460172
Si Si2 0.730633 0.703651 0.181373
Si Si3 0.114170 0.469193 0.292990
Si Si4 0.000000 0.768994 0.000000
Si Si5 0.950158 0.708219 0.731739
Si Si6 0.843424 0.348910 0.598617
Si Si7 0.296319 0.909632 0.722136
Si Si8 0.807198 0.825538 0.125582
O O1 0.500000 0.882478 0.500000
O O2 0.299508 0.831069 0.426228
O O3 0.378048 0.930877 0.336116
O O4 0.313770 0.920321 0.575782
O O5 0.612500 0.733264 0.172616
O O6 0.748905 0.662318 0.301199
O O7 0.794490 0.765386 0.207169
O O8 0.129768 0.419694 0.399927
O O9 0.189589 0.526903 0.289905
O O10 0.000000 0.500000 0.299160
O O11 0.095927 0.812571 0.963750
O O12 0.975727 0.730582 0.873848
O O13 0.881849 0.645650 0.752285
O O14 0.052384 0.686725 0.650353
O O15 0.794831 0.329829 0.467385
O O16 0.190144 0.880272 0.778717
#
# Coordination Sequence:
#
# PCOD9331262 Si02
#       8
#     8   8   8   4   8   8   8   8
#     4  11  21  35  65  94 131 161 203 258 317 382
#     4  10  22  35  56  93 124 165 203 257 309 382
#     4  11  21  37  62  93 129 161 206 255 318 380
#     4  12  22  40  68  86 126 174 204 272 304 388
#     4  11  22  36  61  92 127 165 209 253 325 376
#     4  11  22  40  60  92 129 169 203 261 318 379
#     4  11  23  37  56  97 126 162 204 248 313 388
#     4  11  25  38  61  89 130 167 215 251 320 374
#
# _framework density 20.244532
#
# number of rings (size 3 to 8) (size 9 to 14) (size 15 to 20)
#    0.000    1.067    5.333    2.000    5.600    2.667 
#    0.000    0.667    0.000    1.600    0.000    0.000 
#    4.000    0.000    0.000    0.000    0.000    0.000 
#
# Total GULP energy -167029.619307 kJ/mol
# GULP energy per Si atom -5567.653977 kJ/mol
# Density = 2.019845 g / cm^3
# Si number density = 20.244532 Si / 1000 Ang^3
#
#
#
# Elastic Constant Matrix: (Units=GPa)
#
#
# Indices 1 2 3 4 5 6 
#
# 1 54.4984 41.0252 16.9741 -0.0001 0.0000 0.0000
# 2 41.0252 116.2744 10.7004 -0.0001 0.0000 0.0000
# 3 16.9741 10.7004 61.3811 -0.0002 0.0000 0.0000
# 4 -0.0001 -0.0001 -0.0002 21.3016 0.0000 0.0000
# 5 0.0000 0.0000 0.0000 0.0000 24.7313 0.0000
# 6 0.0000 0.0000 0.0000 0.0000 0.0000 36.9743
#
#
#
# Elastic Compliance Matrix: (Units=1/GPa)
#
#
# Indices 1 2 3 4 5 6 
#
# 1 0.026926 -0.008959 -0.005884 0.000000 0.000000 0.000000
# 2 -0.008959 0.011721 0.000434 0.000000 0.000000 0.000000
# 3 -0.005884 0.000434 0.017843 0.000000 0.000000 0.000000
# 4 0.000000 0.000000 0.000000 0.046945 0.000000 0.000000
# 5 0.000000 0.000000 0.000000 0.000000 0.040435 0.000000
# 6 0.000000 0.000000 0.000000 0.000000 0.000000 0.027046
#
#
# Mechanical properties :
#
#
# Convention : Reuss Voigt Hill
#
# Bulk Modulus (GPa) = 36.13692 41.06149 38.59921
# Shear Modulus (GPa) = 23.92831 27.49838 25.71334
#
# Velocity S-wave (km/s) = 3.44170 3.68953 3.56777
# Velocity P-wave (km/s) = 5.80368 6.20298 6.00665
#
# Compressibility (1/GPa) = 0.02767253
#
# Stress axis : x y z
#
# Youngs Moduli (GPa) = 37.13914 85.31472 56.04376
#
# Poissons Ratio (x) = 0.76431 0.32977
# Poissons Ratio (y) = 0.33272 -0.02433
# Poissons Ratio (z) = 0.21853 -0.03703
#
# Static dielectric constant tensor:
#      x y z
#    x 1.837290 0.000000 0.000000 
#    y 0.000000 1.756610 0.000000 
#    z 0.000000 0.000000 1.771610 
# 
# From -- ./inp_files/15955.got.cif
#   From: 2010.05.17/outbox.cif.g08.bks.cpg/sg23_8_cif.got.tgz:15955.got - 2010.06.04 12:02:01.
