data_PCOD9331785
_publ_section_title
;
Structure prediction by ZEFSAII (Michael W. Deem and Ramdas Pophale) SiO2 
 PCOD9331785
Probable space group: I 2 2 2
;
_chemical_formula_sum "Si O2"
_cell_formula_units_Z 30
_cell_length_a 4.911464
_cell_length_b 29.127068
_cell_length_c 8.738054
_cell_angle_alpha 90.000000
_cell_angle_beta 90.000000
_cell_angle_gamma 90.000000
_cell_volume 1250.035823
_symmetry_space_group_name_H-M "I 2 2 2"
_symmetry_group_IT_number 23
_symmetry_cell_setting 'orthorhombic'
loop_
_space_group_symop_operation_xyz
x,y,z
-x,-y,z
x,-y,-z
-x,y,-z
1/2+x,1/2+y,1/2+z
1/2-x,1/2-y,1/2+z
1/2+x,1/2-y,1/2-z
1/2-x,1/2+y,1/2-z
loop_
_atom_site_type_symbol
_atom_site_label
_atom_site_fract_x
_atom_site_fract_y
_atom_site_fract_z
Si Si1 0.366573 0.766116 0.339051
Si Si2 0.303857 0.131292 0.719283
Si Si3 0.000000 0.096004 0.000000
Si Si4 0.682330 0.426673 0.192396
Si Si5 0.500000 0.000000 0.500000
O O1 0.500000 0.752482 0.500000
O O2 0.111397 0.736182 0.284323
O O3 0.259477 0.818259 0.343781
O O4 0.610341 0.116227 0.688327
O O5 0.203186 0.126827 0.895991
O O6 0.114066 0.091892 0.645478
O O7 0.847767 0.065304 0.874853
O O8 0.809601 0.469002 0.106840
#
# Coordination Sequence:
#
# PCOD9331785 Si02
#       5
#     8   8   4   8   2
#     4  12  28  48  78 117 162 205 262 329 395 475
#     4  10  23  47  78 106 147 207 263 314 390 476
#     4   8  22  46  77 103 138 210 255 304 388 475
#     4  10  24  44  78 103 156 195 265 314 405 444
#     4  12  28  50  74 124 156 204 270 350 384 482
#
# _framework density 23.999313999999998
#
# number of rings (size 3 to 8) (size 9 to 14) (size 15 to 20)
#    1.600    0.000    0.000    3.200    3.733    5.333 
#    0.000    4.000    0.000    0.000    0.000    0.000 
#    0.000    0.000    0.000    0.000    0.000    0.000 
#
# Total GULP energy -83871.027886 kJ/mol
# GULP energy per Si atom -5591.401859 kJ/mol
# Density = 2.394469 g / cm^3
# Si number density = 23.999314 Si / 1000 Ang^3
#
#
#
# Elastic Constant Matrix: (Units=GPa)
#
#
# Indices 1 2 3 4 5 6 
#
# 1 97.8003 13.3902 5.1369 -0.0001 0.0000 0.0000
# 2 13.3902 76.6699 14.5419 -0.0001 0.0000 -0.0001
# 3 5.1369 14.5419 83.0072 -0.0005 -0.0001 -0.0002
# 4 -0.0001 -0.0001 -0.0005 26.3812 0.0000 0.0000
# 5 0.0000 0.0000 -0.0001 0.0000 51.5618 0.0000
# 6 0.0000 -0.0001 -0.0002 0.0000 0.0000 33.9494
#
#
#
# Elastic Compliance Matrix: (Units=1/GPa)
#
#
# Indices 1 2 3 4 5 6 
#
# 1 0.010485 -0.001767 -0.000339 0.000000 0.000000 0.000000
# 2 -0.001767 0.013789 -0.002306 0.000000 0.000000 0.000000
# 3 -0.000339 -0.002306 0.012472 0.000000 0.000000 0.000000
# 4 0.000000 0.000000 0.000000 0.037906 0.000000 0.000000
# 5 0.000000 0.000000 0.000000 0.000000 0.019394 0.000000
# 6 0.000000 0.000000 0.000000 0.000000 0.000000 0.029456
#
#
# Mechanical properties :
#
#
# Convention : Reuss Voigt Hill
#
# Bulk Modulus (GPa) = 35.81543 35.95728 35.88635
# Shear Modulus (GPa) = 35.30247 37.33903 36.32075
#
# Velocity S-wave (km/s) = 3.83949 3.94869 3.89447
# Velocity P-wave (km/s) = 5.88316 5.98370 5.93364
#
# Compressibility (1/GPa) = 0.02792093
#
# Stress axis : x y z
#
# Youngs Moduli (GPa) = 95.37770 72.52191 80.17839
#
# Poissons Ratio (x) = 0.12813 0.02721
# Poissons Ratio (y) = 0.16851 0.18492
# Poissons Ratio (z) = 0.03236 0.16726
#
# Static dielectric constant tensor:
#      x y z
#    x 1.903970 0.000000 0.000000 
#    y 0.000000 1.849880 0.000000 
#    z 0.000000 0.000000 2.025860 
# 
# From -- ./inp_files/5759.got.cif
#   From: 2010.05.17/outbox.cif.g08.bks.cpg/sg23_3_cif.got.tgz:5759.got - 2010.06.04 12:02:01.
