data_PCOD9331231
_publ_section_title
;
Structure prediction by ZEFSAII (Michael W. Deem and Ramdas Pophale) SiO2 
 PCOD9331231
Probable space group: I 2 2 2
;
_chemical_formula_sum "Si O2"
_cell_formula_units_Z 42
_cell_length_a 20.625093
_cell_length_b 12.595977
_cell_length_c 7.082398
_cell_angle_alpha 90.000000
_cell_angle_beta 90.000000
_cell_angle_gamma 90.000000
_cell_volume 1839.958819
_symmetry_space_group_name_H-M "I 2 2 2"
_symmetry_group_IT_number 23
_symmetry_cell_setting 'orthorhombic'
loop_
_space_group_symop_operation_xyz
x,y,z
-x,-y,z
x,-y,-z
-x,y,-z
1/2+x,1/2+y,1/2+z
1/2-x,1/2-y,1/2+z
1/2+x,1/2-y,1/2-z
1/2-x,1/2+y,1/2-z
loop_
_atom_site_type_symbol
_atom_site_label
_atom_site_fract_x
_atom_site_fract_y
_atom_site_fract_z
Si Si1 0.592544 0.117492 0.228591
Si Si2 0.000000 0.500000 0.500000
Si Si3 0.391107 0.365501 0.720902
Si Si4 0.808366 0.500000 0.000000
Si Si5 0.702468 0.340467 0.971269
Si Si6 0.000000 0.500000 0.000000
Si Si7 0.500000 0.500000 0.500000
Si Si8 0.735943 0.384054 0.539673
O O1 0.598164 0.239982 0.271927
O O2 0.559278 0.089645 0.029559
O O3 0.650981 0.050390 0.326470
O O4 0.535914 0.074536 0.359129
O O5 0.362941 0.383055 0.932616
O O6 0.451489 0.429970 0.633680
O O7 0.328045 0.379981 0.589240
O O8 0.762276 0.404130 0.066840
O O9 0.710029 0.631016 0.247306
O O10 0.715560 0.214833 0.001846
O O11 0.765041 0.500000 0.500000
#
# Coordination Sequence:
#
# PCOD9331231 Si02
#       8
#     8   2   8   4   8   2   2   8
#     4  10  21  44  69 106 144 192 249 316 376 459
#     4  10  24  46  66 108 144 194 256 300 380 480
#     4  12  26  51  73 113 154 208 262 321 388 477
#     4  11  22  41  74 107 146 189 248 320 402 437
#     4  12  26  47  77 120 158 202 255 335 410 479
#     4   8  18  38  72  88 140 192 234 300 372 438
#     4  12  30  56  80 106 166 224 266 320 382 504
#     4  12  25  47  76 116 162 200 262 331 404 482
#
# _framework density 22.826595999999999
#
# number of rings (size 3 to 8) (size 9 to 14) (size 15 to 20)
#    0.000    0.762    4.762    1.714    0.000    1.524 
#   13.714    0.952    0.000    0.000    0.000    0.000 
#    0.000    0.000    0.000    0.000    0.000    0.000 
#
# Total GULP energy -116944.091966 kJ/mol
# GULP energy per Si atom -5568.766284 kJ/mol
# Density = 2.277464 g / cm^3
# Si number density = 22.826596 Si / 1000 Ang^3
#
#
#
# Elastic Constant Matrix: (Units=GPa)
#
#
# Indices 1 2 3 4 5 6 
#
# 1 103.8432 52.6404 18.3271 0.0000 0.0000 0.0000
# 2 52.6404 196.4024 34.9033 0.0000 0.0000 0.0000
# 3 18.3271 34.9033 77.0767 0.0000 0.0000 0.0000
# 4 0.0000 0.0000 0.0000 29.1588 0.0000 0.0000
# 5 0.0000 0.0000 0.0000 0.0000 -228.5216 0.0000
# 6 0.0000 0.0000 0.0000 0.0000 0.0000 28.2925
#
#
#
# Elastic Compliance Matrix: (Units=1/GPa)
#
#
# Indices 1 2 3 4 5 6 
#
# 1 0.011287 -0.002771 -0.001429 0.000000 0.000000 0.000000
# 2 -0.002771 0.006218 -0.002157 0.000000 0.000000 0.000000
# 3 -0.001429 -0.002157 0.014290 0.000000 0.000000 0.000000
# 4 0.000000 0.000000 0.000000 0.034295 0.000000 0.000000
# 5 0.000000 0.000000 0.000000 0.000000 -0.004376 0.000000
# 6 0.000000 0.000000 0.000000 0.000000 0.000000 0.035345
#
#
# Mechanical properties :
#
#
# Convention : Reuss Voigt Hill
#
# Bulk Modulus (GPa) = 52.40674 65.45154 58.92914
# Shear Modulus (GPa) = 43.05410 -16.11731 13.46839
#
# Velocity S-wave (km/s) = 4.34768 -2.66009 2.43169
# Velocity P-wave (km/s) = 6.94346 4.39327 5.81001
#
# Compressibility (1/GPa) = 0.01908151
#
# Stress axis : x y z
#
# Youngs Moduli (GPa) = 88.59850 160.83378 69.97678
#
# Poissons Ratio (x) = 0.44571 0.09999
# Poissons Ratio (y) = 0.24553 0.15091
# Poissons Ratio (z) = 0.12659 0.34686
#
# Static dielectric constant tensor:
#      x y z
#    x 1.873450 0.000000 0.000000 
#    y 0.000000 2.200790 0.000000 
#    z 0.000000 0.000000 2.411580 
# 
# From -- ./inp_files/11874.got.cif
#   From: 2010.05.17/outbox.cif.g08.bks.cpg/sg23_6_cif.got.tgz:11874.got - 2010.06.04 12:02:01.
