data_PCOD9331222
_publ_section_title
;
Structure prediction by ZEFSAII (Michael W. Deem and Ramdas Pophale) SiO2 
 PCOD9331222
Probable space group: I 2 2 2
;
_chemical_formula_sum "Si O2"
_cell_formula_units_Z 40
_cell_length_a 8.726105
_cell_length_b 18.912884
_cell_length_c 11.692455
_cell_angle_alpha 90.000000
_cell_angle_beta 90.000000
_cell_angle_gamma 90.000000
_cell_volume 1929.673801
_symmetry_space_group_name_H-M "I 2 2 2"
_symmetry_group_IT_number 23
_symmetry_cell_setting 'orthorhombic'
loop_
_space_group_symop_operation_xyz
x,y,z
-x,-y,z
x,-y,-z
-x,y,-z
1/2+x,1/2+y,1/2+z
1/2-x,1/2-y,1/2+z
1/2+x,1/2-y,1/2-z
1/2-x,1/2+y,1/2-z
loop_
_atom_site_type_symbol
_atom_site_label
_atom_site_fract_x
_atom_site_fract_y
_atom_site_fract_z
Si Si1 0.166795 0.526095 0.713929
Si Si2 0.500000 0.648809 0.000000
Si Si3 0.000000 0.500000 0.000000
Si Si4 0.266347 0.093656 0.353425
Si Si5 0.500000 0.000000 0.000000
Si Si6 0.532736 0.767662 0.364420
Si Si7 0.287771 0.326177 0.203457
O O1 0.258827 0.454694 0.741071
O O2 0.115024 0.542215 0.584080
O O3 0.238304 0.592047 0.778945
O O4 0.000000 0.500000 0.758933
O O5 0.606685 0.604606 0.915924
O O6 0.383112 0.687464 0.913295
O O7 0.121050 0.553135 0.059564
O O8 0.351245 0.168001 0.334204
O O9 0.500000 0.764677 0.500000
O O10 0.610585 0.699084 0.309738
O O11 0.371244 0.784213 0.304712
#
# Coordination Sequence:
#
# PCOD9331222 Si02
#       7
#     8   4   2   8   2   8   8
#     4  10  21  43  70 101 138 184 249 296 365 438
#     4  12  26  43  69 106 147 187 250 306 386 443
#     4  12  18  34  68  94 140 174 230 306 376 412
#     4  12  21  41  70 104 136 188 241 312 363 445
#     4   8  18  44  70  96 130 188 230 280 354 460
#     4  12  24  47  69 105 150 190 243 303 384 442
#     4  12  26  47  70 108 142 196 247 308 374 460
#
# _framework density 20.728891000000001
#
# number of rings (size 3 to 8) (size 9 to 14) (size 15 to 20)
#    0.600    0.000    6.000    2.400    0.000    3.600 
#   10.800    1.000    0.000    0.000    0.000    0.000 
#    0.000    0.000    0.000    0.000    0.000    0.000 
#
# Total GULP energy -111406.818479 kJ/mol
# GULP energy per Si atom -5570.340924 kJ/mol
# Density = 2.068171 g / cm^3
# Si number density = 20.728891 Si / 1000 Ang^3
#
#
#
# Elastic Constant Matrix: (Units=GPa)
#
#
# Indices 1 2 3 4 5 6 
#
# 1 113.3387 29.0431 34.3273 0.0000 0.0000 0.0000
# 2 29.0431 76.8317 26.0409 0.0002 0.0000 0.0000
# 3 34.3273 26.0409 67.3081 -0.0007 0.0000 0.0000
# 4 0.0000 0.0002 -0.0007 -775.0790 0.0001 0.0000
# 5 0.0000 0.0000 0.0000 0.0001 30.8545 0.0000
# 6 0.0000 0.0000 0.0000 0.0000 0.0000 29.1969
#
#
#
# Elastic Compliance Matrix: (Units=1/GPa)
#
#
# Indices 1 2 3 4 5 6 
#
# 1 0.010857 -0.002563 -0.004545 0.000000 0.000000 0.000000
# 2 -0.002563 0.015585 -0.004722 0.000000 0.000000 0.000000
# 3 -0.004545 -0.004722 0.019002 0.000000 0.000000 0.000000
# 4 0.000000 0.000000 0.000000 -0.001290 0.000000 0.000000
# 5 0.000000 0.000000 0.000000 0.000000 0.032410 0.000000
# 6 0.000000 0.000000 0.000000 0.000000 0.000000 0.034250
#
#
# Mechanical properties :
#
#
# Convention : Reuss Voigt Hill
#
# Bulk Modulus (GPa) = 45.90960 48.47792 47.19376
# Shear Modulus (GPa) = 35.27675 -131.80106 -48.26215
#
# Velocity S-wave (km/s) = 4.12978 -7.98256 -4.83043
# Velocity P-wave (km/s) = 6.70342 7.84374 2.87997
#
# Compressibility (1/GPa) = 0.02178194
#
# Stress axis : x y z
#
# Youngs Moduli (GPa) = 92.11002 64.16420 52.62562
#
# Poissons Ratio (x) = 0.16448 0.23919
# Poissons Ratio (y) = 0.23611 0.24852
# Poissons Ratio (z) = 0.41865 0.30301
#
# Static dielectric constant tensor:
#      x y z
#    x 4.857410 0.000000 0.000000 
#    y 0.000000 1.788790 0.000000 
#    z 0.000000 0.000000 1.912990 
# 
# From -- ./inp_files/14652.got.cif
#   From: 2010.05.17/outbox.cif.g08.bks.cpg/sg23_8_cif.got.tgz:14652.got - 2010.06.04 12:02:01.
