data_PCOD9331757
_publ_section_title
;
Structure prediction by ZEFSAII (Michael W. Deem and Ramdas Pophale) SiO2 
 PCOD9331757
Probable space group: I 2 2 2
;
_chemical_formula_sum "Si O2"
_cell_formula_units_Z 34
_cell_length_a 13.948598
_cell_length_b 5.932693
_cell_length_c 16.711377
_cell_angle_alpha 90.000000
_cell_angle_beta 90.000000
_cell_angle_gamma 90.000000
_cell_volume 1382.912398
_symmetry_space_group_name_H-M "I 2 2 2"
_symmetry_group_IT_number 23
_symmetry_cell_setting 'orthorhombic'
loop_
_space_group_symop_operation_xyz
x,y,z
-x,-y,z
x,-y,-z
-x,y,-z
1/2+x,1/2+y,1/2+z
1/2-x,1/2-y,1/2+z
1/2+x,1/2-y,1/2-z
1/2-x,1/2+y,1/2-z
loop_
_atom_site_type_symbol
_atom_site_label
_atom_site_fract_x
_atom_site_fract_y
_atom_site_fract_z
Si Si1 0.093179 0.149966 0.393495
Si Si2 0.500000 0.000000 0.000000
Si Si3 0.849828 0.136219 0.255868
Si Si4 0.165715 0.787122 0.861882
Si Si5 0.265547 0.000000 0.500000
Si Si6 0.000000 0.500000 0.786396
O O1 0.068732 0.379594 0.436456
O O2 0.109214 0.084245 0.301827
O O3 0.192787 0.086279 0.433079
O O4 0.000000 0.000000 0.415808
O O5 0.753313 0.204878 0.302752
O O6 0.925721 0.339883 0.261751
O O7 0.839344 0.050496 0.164521
O O8 0.183650 0.704899 0.952752
O O9 0.068121 0.659225 0.838839
#
# Coordination Sequence:
#
# PCOD9331757 Si02
#       6
#     8   2   8   8   4   4
#     4  11  22  42  63 106 151 199 251 321 402 463
#     4  12  22  38  68 104 148 196 242 312 410 470
#     4  11  25  45  75 110 153 197 266 314 388 467
#     4  11  24  46  72 112 149 203 257 321 378 469
#     4  10  23  45  64 100 160 196 256 320 386 460
#     4  12  24  48  78 106 150 210 252 326 385 447
#
# _framework density 24.585795000000001
#
# number of rings (size 3 to 8) (size 9 to 14) (size 15 to 20)
#    0.000    0.941    4.706    2.118    0.000    6.118 
#    0.000    0.000    0.000    2.824    0.000    0.000 
#    0.000    0.000    0.000    0.000    0.000    0.000 
#
# Total GULP energy -94834.233618 kJ/mol
# GULP energy per Si atom -5578.484330 kJ/mol
# Density = 2.452984 g / cm^3
# Si number density = 24.585795 Si / 1000 Ang^3
#
#
#
# Elastic Constant Matrix: (Units=GPa)
#
#
# Indices 1 2 3 4 5 6 
#
# 1 121.1691 21.2878 25.8863 0.0000 0.0000 0.0000
# 2 21.2878 67.4568 34.7730 0.0000 0.0000 0.0000
# 3 25.8863 34.7730 112.0682 0.0000 0.0000 0.0000
# 4 0.0000 0.0000 0.0000 31.1807 0.0000 0.0000
# 5 0.0000 0.0000 0.0000 0.0000 28.0756 0.0000
# 6 0.0000 0.0000 0.0000 0.0000 0.0000 42.3839
#
#
#
# Elastic Compliance Matrix: (Units=1/GPa)
#
#
# Indices 1 2 3 4 5 6 
#
# 1 0.008921 -0.002087 -0.001413 0.000000 0.000000 0.000000
# 2 -0.002087 0.018135 -0.005145 0.000000 0.000000 0.000000
# 3 -0.001413 -0.005145 0.010846 0.000000 0.000000 0.000000
# 4 0.000000 0.000000 0.000000 0.032071 0.000000 0.000000
# 5 0.000000 0.000000 0.000000 0.000000 0.035618 0.000000
# 6 0.000000 0.000000 0.000000 0.000000 0.000000 0.023594
#
#
# Mechanical properties :
#
#
# Convention : Reuss Voigt Hill
#
# Bulk Modulus (GPa) = 48.51473 51.62094 50.06783
# Shear Modulus (GPa) = 32.60588 34.91117 33.75853
#
# Velocity S-wave (km/s) = 3.64566 3.77234 3.70954
# Velocity P-wave (km/s) = 6.12347 6.32581 6.22546
#
# Compressibility (1/GPa) = 0.02061230
#
# Stress axis : x y z
#
# Youngs Moduli (GPa) = 112.08888 55.14191 92.20019
#
# Poissons Ratio (x) = 0.11508 0.13030
# Poissons Ratio (y) = 0.23392 0.47437
# Poissons Ratio (z) = 0.15841 0.28370
#
# Static dielectric constant tensor:
#      x y z
#    x 1.951220 0.000000 0.000000 
#    y 0.000000 2.095440 0.000000 
#    z 0.000000 0.000000 2.007630 
# 
# From -- ./inp_files/26864.got.cif
#   From: 2010.05.17/outbox.cif.g08.bks.cpg/sg23_14_cif.got.tgz:26864.got - 2010.06.04 12:02:01.
