data_PCOD9331760
_publ_section_title
;
Structure prediction by ZEFSAII (Michael W. Deem and Ramdas Pophale) SiO2 
 PCOD9331760
Probable space group: I 2 2 2
;
_chemical_formula_sum "Si O2"
_cell_formula_units_Z 38
_cell_length_a 23.476011
_cell_length_b 14.076059
_cell_length_c 5.322461
_cell_angle_alpha 90.000000
_cell_angle_beta 90.000000
_cell_angle_gamma 90.000000
_cell_volume 1758.805725
_symmetry_space_group_name_H-M "I 2 2 2"
_symmetry_group_IT_number 23
_symmetry_cell_setting 'orthorhombic'
loop_
_space_group_symop_operation_xyz
x,y,z
-x,-y,z
x,-y,-z
-x,y,-z
1/2+x,1/2+y,1/2+z
1/2-x,1/2-y,1/2+z
1/2+x,1/2-y,1/2-z
1/2-x,1/2+y,1/2-z
loop_
_atom_site_type_symbol
_atom_site_label
_atom_site_fract_x
_atom_site_fract_y
_atom_site_fract_z
Si Si1 0.000000 0.500000 0.000000
Si Si2 0.586927 0.905733 0.862646
Si Si3 0.187418 0.847881 0.271887
Si Si4 0.316283 0.224668 0.722291
Si Si5 0.109886 0.000000 0.000000
Si Si6 0.500000 0.762436 0.000000
Si Si7 0.500000 0.638501 0.500000
O O1 0.038930 0.436337 0.171070
O O2 0.637470 0.855891 0.727615
O O3 0.555277 0.828789 0.031692
O O4 0.606341 0.000000 0.000000
O O5 0.256582 0.833775 0.268156
O O6 0.174455 0.797249 0.540719
O O7 0.153854 0.947622 0.203345
O O8 0.174016 0.782906 0.031118
O O9 0.060564 0.918217 0.966320
O O10 0.500399 0.699213 0.247427
#
# Coordination Sequence:
#
# PCOD9331760 Si02
#       7
#     2   8   8   8   4   4   4
#     4  12  24  44  58 106 132 176 228 282 324 412
#     4  12  25  40  66  97 132 178 225 276 335 405
#     4  10  23  45  68  97 134 170 225 275 335 401
#     4  10  24  44  68  97 132 178 215 274 345 395
#     4  11  24  44  66 102 126 175 222 284 316 405
#     4  12  23  45  62  92 134 176 210 283 329 410
#     4  11  27  40  68  94 132 174 227 263 350 388
#
# _framework density 21.605568000000002
#
# number of rings (size 3 to 8) (size 9 to 14) (size 15 to 20)
#    0.000    1.053    2.105    3.158    4.421    4.211 
#    0.000    0.000    0.000    0.000    0.000    0.000 
#    0.000    0.000    0.000    0.000    0.000    0.000 
#
# Total GULP energy -105806.803652 kJ/mol
# GULP energy per Si atom -5568.779140 kJ/mol
# Density = 2.155639 g / cm^3
# Si number density = 21.605568 Si / 1000 Ang^3
#
#
#
# Elastic Constant Matrix: (Units=GPa)
#
#
# Indices 1 2 3 4 5 6 
#
# 1 69.9162 33.3936 -4.4367 0.0000 0.0000 0.0000
# 2 33.3936 81.3561 21.6827 0.0000 0.0000 0.0000
# 3 -4.4367 21.6827 89.2932 0.0000 0.0000 0.0000
# 4 0.0000 0.0000 0.0000 -106.5762 0.0000 0.0000
# 5 0.0000 0.0000 0.0000 0.0000 -551.8151 0.0000
# 6 0.0000 0.0000 0.0000 0.0000 0.0000 29.3588
#
#
#
# Elastic Compliance Matrix: (Units=1/GPa)
#
#
# Indices 1 2 3 4 5 6 
#
# 1 0.018491 -0.008377 0.002953 0.000000 0.000000 0.000000
# 2 -0.008377 0.016937 -0.004529 0.000000 0.000000 0.000000
# 3 0.002953 -0.004529 0.012446 0.000000 0.000000 0.000000
# 4 0.000000 0.000000 0.000000 -0.009383 0.000000 0.000000
# 5 0.000000 0.000000 0.000000 0.000000 -0.001812 0.000000
# 6 0.000000 0.000000 0.000000 0.000000 0.000000 0.034061
#
#
# Mechanical properties :
#
#
# Convention : Reuss Voigt Hill
#
# Bulk Modulus (GPa) = 35.75537 37.98275 36.86906
# Shear Modulus (GPa) = 50.01561 -113.14477 -31.56458
#
# Velocity S-wave (km/s) = 4.81660 -7.24445 -3.82638
# Velocity P-wave (km/s) = 6.89333 7.23587 1.55561
#
# Compressibility (1/GPa) = 0.02796783
#
# Stress axis : x y z
#
# Youngs Moduli (GPa) = 54.07966 59.04188 80.35002
#
# Poissons Ratio (x) = 0.49459 -0.23727
# Poissons Ratio (y) = 0.45302 0.36391
# Poissons Ratio (z) = -0.15969 0.26740
#
# Static dielectric constant tensor:
#      x y z
#    x 1.823300 0.000000 0.000000 
#    y 0.000000 1.934400 0.000000 
#    z 0.000000 0.000000 1.856260 
# 
# From -- ./inp_files/4405.got.cif
#   From: 2010.05.17/outbox.cif.g08.bks.cpg/sg23_3_cif.got.tgz:4405.got - 2010.06.04 12:02:01.
