data_PCOD9331659
_publ_section_title
;
Structure prediction by ZEFSAII (Michael W. Deem and Ramdas Pophale) SiO2 
 PCOD9331659
Probable space group: I 2 2 2
;
_chemical_formula_sum "Si O2"
_cell_formula_units_Z 40
_cell_length_a 24.441589
_cell_length_b 8.727887
_cell_length_c 8.999192
_cell_angle_alpha 90.000000
_cell_angle_beta 90.000000
_cell_angle_gamma 90.000000
_cell_volume 1919.738477
_symmetry_space_group_name_H-M "I 2 2 2"
_symmetry_group_IT_number 23
_symmetry_cell_setting 'orthorhombic'
loop_
_space_group_symop_operation_xyz
x,y,z
-x,-y,z
x,-y,-z
-x,y,-z
1/2+x,1/2+y,1/2+z
1/2-x,1/2-y,1/2+z
1/2+x,1/2-y,1/2-z
1/2-x,1/2+y,1/2-z
loop_
_atom_site_type_symbol
_atom_site_label
_atom_site_fract_x
_atom_site_fract_y
_atom_site_fract_z
Si Si1 0.557728 0.191340 0.686468
Si Si2 0.854305 0.108349 0.360073
Si Si3 0.934819 0.329054 0.829863
Si Si4 0.820040 0.816399 0.201774
Si Si5 0.733719 0.820626 0.978564
O O1 0.597664 0.299427 0.778750
O O2 0.564667 0.202749 0.507691
O O3 0.494259 0.225961 0.724275
O O4 0.567802 0.009521 0.708846
O O5 0.810518 0.226331 0.425899
O O6 0.871765 0.000000 0.500000
O O7 0.825140 0.994068 0.243795
O O8 0.880143 0.250770 0.773022
O O9 0.794465 0.788469 0.040430
O O10 0.778041 0.736775 0.314114
O O11 0.723523 0.000000 0.000000
#
# Coordination Sequence:
#
# PCOD9331659 Si02
#       5
#     8   8   8   8   8
#     4   9  19  40  65  95 125 161 207 254 321 376
#     4  10  23  41  62  92 128 162 212 262 312 378
#     4   9  20  38  67  95 123 162 208 259 309 384
#     4  11  24  40  62  95 125 162 210 256 315 366
#     4  11  24  42  61  87 127 169 211 253 309 374
#
# _framework density 20.836172999999999
#
# number of rings (size 3 to 8) (size 9 to 14) (size 15 to 20)
#    0.000    2.000    0.000    3.600    5.600    0.800 
#    7.200    9.000    0.000   10.800    0.000    0.000 
#    0.000    0.000    0.000    0.000    0.000    0.000 
#
# Total GULP energy -111704.457288 kJ/mol
# GULP energy per Si atom -5585.222864 kJ/mol
# Density = 2.078875 g / cm^3
# Si number density = 20.836173 Si / 1000 Ang^3
#
#
#
# Elastic Constant Matrix: (Units=GPa)
#
#
# Indices 1 2 3 4 5 6 
#
# 1 107.9611 66.2672 48.4878 0.0000 0.0000 0.0000
# 2 66.2672 83.5215 31.1691 0.0000 0.0000 0.0000
# 3 48.4878 31.1691 60.0005 0.0000 0.0000 0.0000
# 4 0.0000 0.0000 0.0000 35.2056 0.0000 0.0000
# 5 0.0000 0.0000 0.0000 0.0000 38.2372 0.0000
# 6 0.0000 0.0000 0.0000 0.0000 0.0000 13.5508
#
#
#
# Elastic Compliance Matrix: (Units=1/GPa)
#
#
# Indices 1 2 3 4 5 6 
#
# 1 0.022876 -0.013957 -0.011236 0.000000 0.000000 0.000000
# 2 -0.013957 0.023368 -0.000860 0.000000 0.000000 0.000000
# 3 -0.011236 -0.000860 0.026194 0.000000 0.000000 0.000000
# 4 0.000000 0.000000 0.000000 0.028405 0.000000 0.000000
# 5 0.000000 0.000000 0.000000 0.000000 0.026153 0.000000
# 6 0.000000 0.000000 0.000000 0.000000 0.000000 0.073797
#
#
# Mechanical properties :
#
#
# Convention : Reuss Voigt Hill
#
# Bulk Modulus (GPa) = 49.18692 60.37015 54.77854
# Shear Modulus (GPa) = 19.25493 24.43598 21.84545
#
# Velocity S-wave (km/s) = 3.04322 3.42828 3.24147
# Velocity P-wave (km/s) = 6.00050 6.68636 6.35269
#
# Compressibility (1/GPa) = 0.02033061
#
# Stress axis : x y z
#
# Youngs Moduli (GPa) = 43.71427 42.79441 38.17736
#
# Poissons Ratio (x) = 0.59728 0.42897
# Poissons Ratio (y) = 0.61011 0.03284
# Poissons Ratio (z) = 0.49118 0.03681
#
# Static dielectric constant tensor:
#      x y z
#    x 1.728680 0.000000 0.000000 
#    y 0.000000 1.723450 0.000000 
#    z 0.000000 0.000000 1.784020 
# 
# From -- ./inp_files/6885.got.cif
#   From: 2010.05.17/outbox.cif.g08.bks.cpg/sg23_4_cif.got.tgz:6885.got - 2010.06.04 12:02:01.
