data_PCOD9331518
_publ_section_title
;
Structure prediction by ZEFSAII (Michael W. Deem and Ramdas Pophale) SiO2 
 PCOD9331518
Probable space group: I 2 2 2
;
_chemical_formula_sum "Si O2"
_cell_formula_units_Z 20
_cell_length_a 12.004601
_cell_length_b 14.051208
_cell_length_c 4.600490
_cell_angle_alpha 90.000000
_cell_angle_beta 90.000000
_cell_angle_gamma 90.000000
_cell_volume 776.006723
_symmetry_space_group_name_H-M "I 2 2 2"
_symmetry_group_IT_number 23
_symmetry_cell_setting 'orthorhombic'
loop_
_space_group_symop_operation_xyz
x,y,z
-x,-y,z
x,-y,-z
-x,y,-z
1/2+x,1/2+y,1/2+z
1/2-x,1/2-y,1/2+z
1/2+x,1/2-y,1/2-z
1/2-x,1/2+y,1/2-z
loop_
_atom_site_type_symbol
_atom_site_label
_atom_site_fract_x
_atom_site_fract_y
_atom_site_fract_z
Si Si1 0.500000 0.500000 0.500000
Si Si2 0.000000 0.131721 0.500000
Si Si3 0.336759 0.000000 0.000000
Si Si4 0.712963 0.690493 0.329940
Si Si5 0.000000 0.500000 0.000000
O O1 0.443259 0.568192 0.259403
O O2 0.904972 0.185511 0.329061
O O3 0.263600 0.085933 0.875272
O O4 0.413466 0.957071 0.738310
O O5 0.705904 0.749346 0.623731
#
# Coordination Sequence:
#
# PCOD9331518 Si02
#       5
#     2   4   4   8   2
#     4  10  22  42  76 102 140 198 242 310 388 430
#     4  11  24  46  74 111 150 194 256 321 376 447
#     4  11  25  50  77 113 150 197 255 313 381 456
#     4  12  27  46  77 112 151 201 256 312 381 456
#     4  10  24  46  82 108 152 200 244 314 382 452
#
# _framework density 25.772974000000001
#
# number of rings (size 3 to 8) (size 9 to 14) (size 15 to 20)
#    0.000    0.800    0.000    6.000    0.000   12.800 
#    0.000    4.000    0.000   14.400    0.000    0.000 
#    0.000    0.000    0.000    0.000    0.000    0.000 
#
# Total GULP energy -55881.206480 kJ/mol
# GULP energy per Si atom -5588.120648 kJ/mol
# Density = 2.571431 g / cm^3
# Si number density = 25.772974 Si / 1000 Ang^3
#
#
#
# Elastic Constant Matrix: (Units=GPa)
#
#
# Indices 1 2 3 4 5 6 
#
# 1 120.4346 47.4149 38.8909 0.0000 0.0000 0.0000
# 2 47.4149 142.0977 41.8290 0.0000 0.0000 0.0000
# 3 38.8909 41.8290 178.3505 0.0000 0.0000 0.0000
# 4 0.0000 0.0000 0.0000 67.1499 0.0000 0.0000
# 5 0.0000 0.0000 0.0000 0.0000 50.6395 0.0000
# 6 0.0000 0.0000 0.0000 0.0000 0.0000 4.7153
#
#
#
# Elastic Compliance Matrix: (Units=1/GPa)
#
#
# Indices 1 2 3 4 5 6 
#
# 1 0.009914 -0.002870 -0.001489 0.000000 0.000000 0.000000
# 2 -0.002870 0.008390 -0.001342 0.000000 0.000000 0.000000
# 3 -0.001489 -0.001342 0.006246 0.000000 0.000000 0.000000
# 4 0.000000 0.000000 0.000000 0.014892 0.000000 0.000000
# 5 0.000000 0.000000 0.000000 0.000000 0.019747 0.000000
# 6 0.000000 0.000000 0.000000 0.000000 0.000000 0.212073
#
#
# Mechanical properties :
#
#
# Convention : Reuss Voigt Hill
#
# Bulk Modulus (GPa) = 76.05029 77.46141 76.75585
# Shear Modulus (GPa) = 17.41874 45.35080 31.38477
#
# Velocity S-wave (km/s) = 2.60254 4.19934 3.49340
# Velocity P-wave (km/s) = 6.21311 7.32347 6.79102
#
# Compressibility (1/GPa) = 0.01314919
#
# Stress axis : x y z
#
# Youngs Moduli (GPa) = 100.86909 119.18913 160.09475
#
# Poissons Ratio (x) = 0.34205 0.23834
# Poissons Ratio (y) = 0.28947 0.21484
# Poissons Ratio (z) = 0.15017 0.15995
#
# Static dielectric constant tensor:
#      x y z
#    x 2.101170 0.000000 0.000000 
#    y 0.000000 2.068990 0.000000 
#    z 0.000000 0.000000 2.085020 
# 
# From -- ./inp_files/1035.got.cif
#   From: 2010.05.17/outbox.cif.g08.bks.cpg/sg23_1_cif.got.tgz:1035.got - 2010.06.04 12:02:01.
