data_PCOD9331755
_publ_section_title
;
Structure prediction by ZEFSAII (Michael W. Deem and Ramdas Pophale) SiO2 
 PCOD9331755
Probable space group: I 2 2 2
;
_chemical_formula_sum "Si O2"
_cell_formula_units_Z 64
_cell_length_a 5.462700
_cell_length_b 29.429269
_cell_length_c 17.850141
_cell_angle_alpha 90.000000
_cell_angle_beta 90.000000
_cell_angle_gamma 90.000000
_cell_volume 2869.646997
_symmetry_space_group_name_H-M "I 2 2 2"
_symmetry_group_IT_number 23
_symmetry_cell_setting 'orthorhombic'
loop_
_space_group_symop_operation_xyz
x,y,z
-x,-y,z
x,-y,-z
-x,y,-z
1/2+x,1/2+y,1/2+z
1/2-x,1/2-y,1/2+z
1/2+x,1/2-y,1/2-z
1/2-x,1/2+y,1/2-z
loop_
_atom_site_type_symbol
_atom_site_label
_atom_site_fract_x
_atom_site_fract_y
_atom_site_fract_z
Si Si1 0.749101 0.317404 0.041702
Si Si2 0.248773 0.027944 0.291831
Si Si3 0.691239 0.865025 0.711501
Si Si4 0.898654 0.584756 0.920196
Si Si5 0.094440 0.899795 0.826463
Si Si6 0.475002 0.719291 0.171426
Si Si7 0.243245 0.980298 0.915109
Si Si8 0.201196 0.692870 0.308115
O O1 0.742875 0.370908 0.058786
O O2 0.753236 0.291834 0.119748
O O3 0.500000 0.304200 0.000000
O O4 0.000000 0.308545 0.000000
O O5 0.247798 0.047705 0.375511
O O6 0.248217 0.070588 0.234307
O O7 0.500000 0.000000 0.283250
O O8 0.000000 0.000000 0.281013
O O9 0.591968 0.896463 0.643317
O O10 0.485623 0.835947 0.755637
O O11 0.843619 0.892651 0.776367
O O12 0.858207 0.825981 0.672277
O O13 0.000000 0.568476 0.000000
O O14 0.176050 0.927827 0.901483
O O15 0.157887 0.848113 0.846280
O O16 0.386158 0.721574 0.256433
O O17 0.576034 0.767557 0.145700
O O18 0.500000 0.000000 0.884758
O O19 0.000000 0.000000 0.876797
O O20 0.243232 0.000000 0.000000
#
# Coordination Sequence:
#
# PCOD9331755 Si02
#       8
#     8   8   8   8   8   8   8   8
#     4  11  24  41  68  93 131 185 231 281 325 417
#     4  12  26  43  65  92 131 172 219 282 341 408
#     4  11  21  41  64  99 139 176 236 289 344 418
#     4  11  23  44  67  95 133 185 233 282 340 410
#     4  11  24  41  68 101 135 178 231 294 356 416
#     4  11  21  38  63 100 134 181 232 285 350 413
#     4  10  23  44  75 105 133 177 238 301 363 447
#     4  11  22  36  66  97 137 173 225 292 347 413
#
# _framework density 22.302396000000002
#
# number of rings (size 3 to 8) (size 9 to 14) (size 15 to 20)
#    0.000    1.000    3.750    3.750    1.750    2.250 
#    0.000    1.875    2.750    0.000    3.250    0.000 
#    0.000    0.000    0.000    0.000    0.000    0.000 
#
# Total GULP energy -178279.189359 kJ/mol
# GULP energy per Si atom -5571.224667 kJ/mol
# Density = 2.225163 g / cm^3
# Si number density = 22.302396 Si / 1000 Ang^3
#
#
#
# Elastic Constant Matrix: (Units=GPa)
#
#
# Indices 1 2 3 4 5 6 
#
# 1 108.2784 23.2399 9.3854 0.0000 0.0000 0.0000
# 2 23.2399 70.3095 18.6117 0.0000 0.0000 0.0000
# 3 9.3854 18.6117 93.4557 0.0000 0.0000 0.0000
# 4 0.0000 0.0000 0.0000 27.1672 0.0000 0.0000
# 5 0.0000 0.0000 0.0000 0.0000 25.8174 0.0000
# 6 0.0000 0.0000 0.0000 0.0000 0.0000 39.1012
#
#
#
# Elastic Compliance Matrix: (Units=1/GPa)
#
#
# Indices 1 2 3 4 5 6 
#
# 1 0.009952 -0.003193 -0.000364 0.000000 0.000000 0.000000
# 2 -0.003193 0.016039 -0.002873 0.000000 0.000000 0.000000
# 3 -0.000364 -0.002873 0.011309 0.000000 0.000000 0.000000
# 4 0.000000 0.000000 0.000000 0.036809 0.000000 0.000000
# 5 0.000000 0.000000 0.000000 0.000000 0.038734 0.000000
# 6 0.000000 0.000000 0.000000 0.000000 0.000000 0.025575
#
#
# Mechanical properties :
#
#
# Convention : Reuss Voigt Hill
#
# Bulk Modulus (GPa) = 40.91716 41.61306 41.26511
# Shear Modulus (GPa) = 31.36271 33.13760 32.25016
#
# Velocity S-wave (km/s) = 3.75407 3.85883 3.80681
# Velocity P-wave (km/s) = 6.09730 6.20912 6.15346
#
# Compressibility (1/GPa) = 0.02443963
#
# Stress axis : x y z
#
# Youngs Moduli (GPa) = 100.47866 62.34806 88.42502
#
# Poissons Ratio (x) = 0.19910 0.03214
# Poissons Ratio (y) = 0.32087 0.25409
# Poissons Ratio (z) = 0.03653 0.17915
#
# Static dielectric constant tensor:
#      x y z
#    x 1.948970 0.000000 0.000000 
#    y 0.000000 1.921200 0.000000 
#    z 0.000000 0.000000 1.952580 
# 
# From -- ./inp_files/23343.got.cif
#   From: 2010.05.17/outbox.cif.g08.bks.cpg/sg23_12_cif.got.tgz:23343.got - 2010.06.04 12:02:01.
