data_PCOD9331082
_publ_section_title
;
Structure prediction by ZEFSAII (Michael W. Deem and Ramdas Pophale) SiO2 
 PCOD9331082
Probable space group: I 2 2 2
;
_chemical_formula_sum "Si O2"
_cell_formula_units_Z 42
_cell_length_a 22.504570
_cell_length_b 18.724003
_cell_length_c 5.239224
_cell_angle_alpha 90.000000
_cell_angle_beta 90.000000
_cell_angle_gamma 90.000000
_cell_volume 2207.681346
_symmetry_space_group_name_H-M "I 2 2 2"
_symmetry_group_IT_number 23
_symmetry_cell_setting 'orthorhombic'
loop_
_space_group_symop_operation_xyz
x,y,z
-x,-y,z
x,-y,-z
-x,y,-z
1/2+x,1/2+y,1/2+z
1/2-x,1/2-y,1/2+z
1/2+x,1/2-y,1/2-z
1/2-x,1/2+y,1/2-z
loop_
_atom_site_type_symbol
_atom_site_label
_atom_site_fract_x
_atom_site_fract_y
_atom_site_fract_z
Si Si1 0.675035 0.779060 0.657045
Si Si2 0.841782 0.000000 0.500000
Si Si3 0.039251 0.732375 0.744937
Si Si4 0.000000 0.000000 0.000000
Si Si5 0.441322 0.601652 0.154438
Si Si6 0.765443 0.000000 0.000000
Si Si7 0.236941 0.658017 0.348181
O O1 0.604931 0.795377 0.680657
O O2 0.697340 0.695747 0.638085
O O3 0.705850 0.820793 0.420119
O O4 0.702037 0.804017 0.924065
O O5 0.883096 0.930806 0.466519
O O6 0.803680 0.984452 0.749100
O O7 0.054428 0.814596 0.679016
O O8 0.000000 0.705323 0.500000
O O9 0.000000 0.728742 0.000000
O O10 0.951398 0.058955 0.911859
O O11 0.500000 0.577606 0.000000
O O12 0.734570 0.074089 0.913597
#
# Coordination Sequence:
#
# PCOD9331082 Si02
#       7
#     8   4   8   2   8   4   8
#     4  10  21  40  61  84 120 161 195 243 298 350
#     4  12  23  34  52  80 118 156 195 238 284 338
#     4  11  23  36  56  86 115 153 201 244 282 348
#     4  12  16  36  44  66 112 166 204 222 272 318
#     4  11  22  31  48  72 115 165 200 230 273 331
#     4  12  25  38  59  90 113 144 202 257 296 354
#     4  10  22  40  62  85 117 157 202 245 300 350
#
# _framework density 19.024484000000001
#
# number of rings (size 3 to 8) (size 9 to 14) (size 15 to 20)
#    0.000    1.143    2.857    4.000    0.000    6.095 
#    0.000    0.000    0.000    0.000    0.000   10.000 
#    0.000    0.000    0.000    0.000    0.000    0.000 
#
# Total GULP energy -116920.264008 kJ/mol
# GULP energy per Si atom -5567.631619 kJ/mol
# Density = 1.898118 g / cm^3
# Si number density = 19.024484 Si / 1000 Ang^3
#
#
#
# Elastic Constant Matrix: (Units=GPa)
#
#
# Indices 1 2 3 4 5 6 
#
# 1 104.0823 8.7609 37.2332 0.0000 0.0000 0.0000
# 2 8.7609 45.2005 -11.3897 0.0000 0.0000 0.0000
# 3 37.2332 -11.3897 88.1815 0.0000 0.0000 0.0000
# 4 0.0000 0.0000 0.0000 8.8170 0.0000 0.0000
# 5 0.0000 0.0000 0.0000 0.0000 38.3119 0.0000
# 6 0.0000 0.0000 0.0000 0.0000 0.0000 -19.4286
#
#
#
# Elastic Compliance Matrix: (Units=1/GPa)
#
#
# Indices 1 2 3 4 5 6 
#
# 1 0.011884 -0.003688 -0.005494 0.000000 0.000000 0.000000
# 2 -0.003688 0.024012 0.004659 0.000000 0.000000 0.000000
# 3 -0.005494 0.004659 0.014262 0.000000 0.000000 0.000000
# 4 0.000000 0.000000 0.000000 0.113417 0.000000 0.000000
# 5 0.000000 0.000000 0.000000 0.000000 0.026102 0.000000
# 6 0.000000 0.000000 0.000000 0.000000 0.000000 -0.051471
#
#
# Mechanical properties :
#
#
# Convention : Reuss Voigt Hill
#
# Bulk Modulus (GPa) = 24.32418 34.07479 29.19948
# Shear Modulus (GPa) = 31.06453 19.06405 25.06429
#
# Velocity S-wave (km/s) = 4.04526 3.16900 3.63364
# Velocity P-wave (km/s) = 5.88493 5.59821 5.74336
#
# Compressibility (1/GPa) = 0.04111136
#
# Stress axis : x y z
#
# Youngs Moduli (GPa) = 84.15009 41.64531 70.11797
#
# Poissons Ratio (x) = 0.15357 0.38522
# Poissons Ratio (y) = 0.31032 -0.32665
# Poissons Ratio (z) = 0.46232 -0.19401
#
# Static dielectric constant tensor:
#      x y z
#    x 1.775680 0.000000 0.000000 
#    y 0.000000 1.662270 0.000000 
#    z 0.000000 0.000000 1.945920 
# 
# From -- ./inp_files/3826.got.cif
#   From: 2010.05.17/outbox.cif.g08.bks.cpg/sg23_2_cif.got.tgz:3826.got - 2010.06.04 12:02:01.
