data_PCOD9331181
_publ_section_title
;
Structure prediction by ZEFSAII (Michael W. Deem and Ramdas Pophale) SiO2 
 PCOD9331181
Probable space group: I 2 2 2
;
_chemical_formula_sum "Si O2"
_cell_formula_units_Z 38
_cell_length_a 7.111653
_cell_length_b 25.452509
_cell_length_c 10.882158
_cell_angle_alpha 90.000000
_cell_angle_beta 90.000000
_cell_angle_gamma 90.000000
_cell_volume 1969.773021
_symmetry_space_group_name_H-M "I 2 2 2"
_symmetry_group_IT_number 23
_symmetry_cell_setting 'orthorhombic'
loop_
_space_group_symop_operation_xyz
x,y,z
-x,-y,z
x,-y,-z
-x,y,-z
1/2+x,1/2+y,1/2+z
1/2-x,1/2-y,1/2+z
1/2+x,1/2-y,1/2-z
1/2-x,1/2+y,1/2-z
loop_
_atom_site_type_symbol
_atom_site_label
_atom_site_fract_x
_atom_site_fract_y
_atom_site_fract_z
Si Si1 0.188678 0.310808 0.281915
Si Si2 0.500000 0.863035 0.000000
Si Si3 0.436001 0.698895 0.137087
Si Si4 0.500000 0.500000 0.500000
Si Si5 0.338554 0.044612 0.159502
Si Si6 0.602309 0.882499 0.372630
O O1 0.389827 0.319707 0.220294
O O2 0.151831 0.248471 0.290423
O O3 0.149944 0.330767 0.420275
O O4 0.041027 0.343795 0.200639
O O5 0.605835 0.902179 0.090252
O O6 0.288513 0.652564 0.115423
O O7 0.500000 0.715903 0.000000
O O8 0.644923 0.527882 0.594727
O O9 0.343854 0.064502 0.299533
O O10 0.500000 0.000000 0.142855
O O11 0.500000 0.894540 0.500000
#
# Coordination Sequence:
#
# PCOD9331181 Si02
#       6
#     8   4   8   2   8   8
#     4  11  23  38  63  95 140 178 227 270 337 397
#     4  10  21  42  62  96 132 176 218 281 334 408
#     4  12  23  40  63  98 139 185 228 275 327 414
#     4  12  22  44  72 104 128 164 222 298 352 394
#     4  11  24  44  69  96 133 169 223 289 347 407
#     4  11  25  43  65  95 134 185 224 279 342 409
#
# _framework density 19.291561999999999
#
# number of rings (size 3 to 8) (size 9 to 14) (size 15 to 20)
#    0.000    0.842    7.368    0.000    2.947    0.421 
#    0.000    4.211    0.000    0.000    0.000    0.000 
#    0.000    0.000    0.000    0.000    0.000    0.000 
#
# Total GULP energy -105928.865881 kJ/mol
# GULP energy per Si atom -5575.203467 kJ/mol
# Density = 1.924765 g / cm^3
# Si number density = 19.291562 Si / 1000 Ang^3
#
#
#
# Elastic Constant Matrix: (Units=GPa)
#
#
# Indices 1 2 3 4 5 6 
#
# 1 135.8560 51.5741 59.0723 0.0000 0.0000 0.0000
# 2 51.5741 73.0069 42.7439 0.0000 0.0000 0.0000
# 3 59.0723 42.7439 131.8338 0.0001 0.0000 0.0000
# 4 0.0000 0.0000 0.0001 33.6448 0.0000 0.0000
# 5 0.0000 0.0000 0.0000 0.0000 37.0628 0.0000
# 6 0.0000 0.0000 0.0000 0.0000 0.0000 1.1350
#
#
#
# Elastic Compliance Matrix: (Units=1/GPa)
#
#
# Indices 1 2 3 4 5 6 
#
# 1 0.010915 -0.005983 -0.002951 0.000000 0.000000 0.000000
# 2 -0.005983 0.020186 -0.003864 0.000000 0.000000 0.000000
# 3 -0.002951 -0.003864 0.010160 0.000000 0.000000 0.000000
# 4 0.000000 0.000000 0.000000 0.029722 0.000000 0.000000
# 5 0.000000 0.000000 0.000000 0.000000 0.026981 0.000000
# 6 0.000000 0.000000 0.000000 0.000000 0.000000 0.881093
#
#
# Mechanical properties :
#
#
# Convention : Reuss Voigt Hill
#
# Bulk Modulus (GPa) = 63.83382 71.94192 67.88787
# Shear Modulus (GPa) = 4.95110 26.85560 15.90335
#
# Velocity S-wave (km/s) = 1.60376 3.73512 2.87430
# Velocity P-wave (km/s) = 6.04898 7.48160 6.80311
#
# Compressibility (1/GPa) = 0.01566568
#
# Stress axis : x y z
#
# Youngs Moduli (GPa) = 91.61537 49.53877 98.42104
#
# Poissons Ratio (x) = 0.29639 0.29045
# Poissons Ratio (y) = 0.54814 0.38030
# Poissons Ratio (z) = 0.27036 0.19142
#
# Static dielectric constant tensor:
#      x y z
#    x 1.678270 0.000000 0.000000 
#    y 0.000000 1.661810 0.000000 
#    z 0.000000 0.000000 1.749950 
# 
# From -- ./inp_files/1731.got.cif
#   From: 2010.05.17/outbox.cif.g08.bks.cpg/sg23_1_cif.got.tgz:1731.got - 2010.06.04 12:02:01.
