data_PCOD9331853
_publ_section_title
;
Structure prediction by ZEFSAII (Michael W. Deem and Ramdas Pophale) SiO2 
 PCOD9331853
Probable space group: I 2 2 2
;
_chemical_formula_sum "Si O2"
_cell_formula_units_Z 20
_cell_length_a 17.814348
_cell_length_b 7.514957
_cell_length_c 5.232252
_cell_angle_alpha 90.000000
_cell_angle_beta 90.000000
_cell_angle_gamma 90.000000
_cell_volume 700.462814
_symmetry_space_group_name_H-M "I 2 2 2"
_symmetry_group_IT_number 23
_symmetry_cell_setting 'orthorhombic'
loop_
_space_group_symop_operation_xyz
x,y,z
-x,-y,z
x,-y,-z
-x,y,-z
1/2+x,1/2+y,1/2+z
1/2-x,1/2-y,1/2+z
1/2+x,1/2-y,1/2-z
1/2-x,1/2+y,1/2-z
loop_
_atom_site_type_symbol
_atom_site_label
_atom_site_fract_x
_atom_site_fract_y
_atom_site_fract_z
Si Si1 0.648225 0.194479 0.677677
Si Si2 0.000000 0.500000 0.000000
Si Si3 0.251307 0.500000 0.500000
Si Si4 0.100093 0.000000 0.500000
Si Si5 0.500000 0.500000 0.500000
O O1 0.561525 0.133090 0.628581
O O2 0.696497 0.326485 0.503142
O O3 0.642479 0.322674 0.924495
O O4 0.695219 0.023817 0.762490
O O5 0.058485 0.947369 0.768153
#
# Coordination Sequence:
#
# PCOD9331853 Si02
#       5
#     8   2   4   4   2
#     4  12  27  50  83 123 170 226 289 356 430 517
#     4  12  30  54  84 132 174 226 296 366 426 510
#     4  12  27  52  80 120 171 230 280 348 437 524
#     4  11  24  47  80 119 168 225 280 346 426 510
#     4  10  24  42  72 120 172 210 260 346 432 482
#
# _framework density 28.552548999999999
#
# number of rings (size 3 to 8) (size 9 to 14) (size 15 to 20)
#    0.000    0.400    0.000    7.200    0.000   14.400 
#    0.000    0.000    0.000    1.200    0.000    0.000 
#    0.000    0.000    0.000    0.000    0.000    0.000 
#
# Total GULP energy -55704.331565 kJ/mol
# GULP energy per Si atom -5570.433157 kJ/mol
# Density = 2.848756 g / cm^3
# Si number density = 28.552549 Si / 1000 Ang^3
#
#
#
# Elastic Constant Matrix: (Units=GPa)
#
#
# Indices 1 2 3 4 5 6 
#
# 1 267.9655 81.0927 77.1648 0.0000 0.0000 0.0000
# 2 81.0927 194.3590 25.4788 0.0000 0.0000 0.0000
# 3 77.1648 25.4788 162.6923 0.0000 0.0000 0.0000
# 4 0.0000 0.0000 0.0000 53.5096 0.0000 0.0000
# 5 0.0000 0.0000 0.0000 0.0000 9.4719 0.0000
# 6 0.0000 0.0000 0.0000 0.0000 0.0000-1550.9336
#
#
#
# Elastic Compliance Matrix: (Units=1/GPa)
#
#
# Indices 1 2 3 4 5 6 
#
# 1 0.004846 -0.001757 -0.002023 0.000000 0.000000 0.000000
# 2 -0.001757 0.005890 -0.000089 0.000000 0.000000 0.000000
# 3 -0.002023 -0.000089 0.007120 0.000000 0.000000 0.000000
# 4 0.000000 0.000000 0.000000 0.018688 0.000000 0.000000
# 5 0.000000 0.000000 0.000000 0.000000 0.105576 0.000000
# 6 0.000000 0.000000 0.000000 0.000000 0.000000 -0.000645
#
#
# Mechanical properties :
#
#
# Convention : Reuss Voigt Hill
#
# Bulk Modulus (GPa) = 98.83808 110.27660 104.55734
# Shear Modulus (GPa) = 32.76830 -268.17175 -117.70172
#
# Velocity S-wave (km/s) = 3.39137 -9.70186 -6.42747
# Velocity P-wave (km/s) = 7.07295 9.31640 4.28770
#
# Compressibility (1/GPa) = 0.01011756
#
# Stress axis : x y z
#
# Youngs Moduli (GPa) = 206.35111 169.78618 140.44485
#
# Poissons Ratio (x) = 0.29826 0.28418
# Poissons Ratio (y) = 0.36250 0.01252
# Poissons Ratio (z) = 0.41753 0.01514
#
# Static dielectric constant tensor:
#      x y z
#    x 2.305720 0.000000 0.000000 
#    y 0.000000 2.688090 0.000000 
#    z 0.000000 0.000000 2.482730 
# 
# From -- ./inp_files/2832.got.cif
#   From: 2010.05.17/outbox.cif.g08.bks.cpg/sg23_2_cif.got.tgz:2832.got - 2010.06.04 12:02:01.
