data_PCOD9331751
_publ_section_title
;
Structure prediction by ZEFSAII (Michael W. Deem and Ramdas Pophale) SiO2 
 PCOD9331751
Probable space group: I 2 2 2
;
_chemical_formula_sum "Si O2"
_cell_formula_units_Z 32
_cell_length_a 13.351381
_cell_length_b 5.580427
_cell_length_c 19.099662
_cell_angle_alpha 90.000000
_cell_angle_beta 90.000000
_cell_angle_gamma 90.000000
_cell_volume 1423.047191
_symmetry_space_group_name_H-M "I 2 2 2"
_symmetry_group_IT_number 23
_symmetry_cell_setting 'orthorhombic'
loop_
_space_group_symop_operation_xyz
x,y,z
-x,-y,z
x,-y,-z
-x,y,-z
1/2+x,1/2+y,1/2+z
1/2-x,1/2-y,1/2+z
1/2+x,1/2-y,1/2-z
1/2-x,1/2+y,1/2-z
loop_
_atom_site_type_symbol
_atom_site_label
_atom_site_fract_x
_atom_site_fract_y
_atom_site_fract_z
Si Si1 0.500000 0.000000 0.650406
Si Si2 0.867762 0.248245 0.042060
Si Si3 0.849533 0.630522 0.748902
Si Si4 0.000000 0.000000 0.691281
Si Si5 0.815582 0.718928 0.356718
O O1 0.453085 0.794095 0.601076
O O2 0.408353 0.061149 0.702413
O O3 0.758449 0.237269 0.078433
O O4 0.871136 0.500000 0.000000
O O5 0.882039 0.000000 0.000000
O O6 0.832207 0.550984 0.669440
O O7 0.749721 0.684382 0.790828
O O8 0.927843 0.844168 0.740580
O O9 0.922880 0.154057 0.643981
#
# Coordination Sequence:
#
# PCOD9331751 Si02
#       5
#     4   8   8   4   8
#     4  10  23  44  72 108 141 182 246 318 374 442
#     4  11  28  49  73 103 151 208 250 302 364 449
#     4  11  22  40  67 113 141 182 230 321 390 441
#     4  12  22  38  73 104 145 186 236 300 396 446
#     4  11  24  42  71 102 153 186 244 303 377 452
#
# _framework density 22.486954999999998
#
# number of rings (size 3 to 8) (size 9 to 14) (size 15 to 20)
#    0.000    1.000    5.000    0.375    3.500    6.000 
#    0.000    0.625    0.000    0.000    0.000    0.000 
#    0.000    0.000    0.000    0.000    0.000    0.000 
#
# Total GULP energy -89270.558010 kJ/mol
# GULP energy per Si atom -5579.409876 kJ/mol
# Density = 2.243577 g / cm^3
# Si number density = 22.486955 Si / 1000 Ang^3
#
#
#
# Elastic Constant Matrix: (Units=GPa)
#
#
# Indices 1 2 3 4 5 6 
#
# 1 143.1447 32.4052 25.1108 0.0000 0.0000 0.0000
# 2 32.4052 77.4293 30.0373 0.0000 0.0000 0.0000
# 3 25.1108 30.0373 71.1747 0.0000 0.0000 0.0000
# 4 0.0000 0.0000 0.0000 21.5105 0.0000 0.0000
# 5 0.0000 0.0000 0.0000 0.0000 45.5207 0.0000
# 6 0.0000 0.0000 0.0000 0.0000 0.0000 41.8821
#
#
#
# Elastic Compliance Matrix: (Units=1/GPa)
#
#
# Indices 1 2 3 4 5 6 
#
# 1 0.007878 -0.002653 -0.001660 0.000000 0.000000 0.000000
# 2 -0.002653 0.016337 -0.005958 0.000000 0.000000 0.000000
# 3 -0.001660 -0.005958 0.017150 0.000000 0.000000 0.000000
# 4 0.000000 0.000000 0.000000 0.046489 0.000000 0.000000
# 5 0.000000 0.000000 0.000000 0.000000 0.021968 0.000000
# 6 0.000000 0.000000 0.000000 0.000000 0.000000 0.023877
#
#
# Mechanical properties :
#
#
# Convention : Reuss Voigt Hill
#
# Bulk Modulus (GPa) = 48.02567 51.87281 49.94924
# Shear Modulus (GPa) = 31.02100 35.39571 33.20835
#
# Velocity S-wave (km/s) = 3.71821 3.97174 3.84706
# Velocity P-wave (km/s) = 6.31165 6.64462 6.48027
#
# Compressibility (1/GPa) = 0.02082220
#
# Stress axis : x y z
#
# Youngs Moduli (GPa) = 126.94084 61.21127 58.30881
#
# Poissons Ratio (x) = 0.16240 0.09677
# Poissons Ratio (y) = 0.33679 0.34743
# Poissons Ratio (z) = 0.21067 0.36473
#
# Static dielectric constant tensor:
#      x y z
#    x 1.858040 0.000000 0.000000 
#    y 0.000000 2.035230 0.000000 
#    z 0.000000 0.000000 1.854570 
# 
# From -- ./inp_files/24565.got.cif
#   From: 2010.05.17/outbox.cif.g08.bks.cpg/sg23_13_cif.got.tgz:24565.got - 2010.06.04 12:02:01.
