data_PCOD9331890
_publ_section_title
;
Structure prediction by ZEFSAII (Michael W. Deem and Ramdas Pophale) SiO2 
 PCOD9331890
Probable space group: I 2 2 2
;
_chemical_formula_sum "Si O2"
_cell_formula_units_Z 56
_cell_length_a 7.961457
_cell_length_b 20.645206
_cell_length_c 13.934195
_cell_angle_alpha 90.000000
_cell_angle_beta 90.000000
_cell_angle_gamma 90.000000
_cell_volume 2290.306778
_symmetry_space_group_name_H-M "I 2 2 2"
_symmetry_group_IT_number 23
_symmetry_cell_setting 'orthorhombic'
loop_
_space_group_symop_operation_xyz
x,y,z
-x,-y,z
x,-y,-z
-x,y,-z
1/2+x,1/2+y,1/2+z
1/2-x,1/2-y,1/2+z
1/2+x,1/2-y,1/2-z
1/2-x,1/2+y,1/2-z
loop_
_atom_site_type_symbol
_atom_site_label
_atom_site_fract_x
_atom_site_fract_y
_atom_site_fract_z
Si Si1 0.299532 0.418007 0.827023
Si Si2 0.597892 0.773081 0.879582
Si Si3 0.241547 0.109452 0.841352
Si Si4 0.095676 0.404021 0.137370
Si Si5 0.266097 0.229881 0.553020
Si Si6 0.560423 0.698926 0.708350
Si Si7 0.795394 0.000000 0.500000
Si Si8 0.000000 0.000000 0.170410
O O1 0.351666 0.348338 0.785241
O O2 0.371571 0.461810 0.740288
O O3 0.102399 0.413450 0.849154
O O4 0.379093 0.448195 0.924732
O O5 0.622210 0.849727 0.901734
O O6 0.424905 0.739128 0.911618
O O7 0.576507 0.766134 0.765136
O O8 0.746910 0.738399 0.939280
O O9 0.325852 0.086696 0.742917
O O10 0.117891 0.167383 0.808542
O O11 0.119399 0.053144 0.881581
O O12 0.149832 0.336460 0.086896
O O13 0.181122 0.457189 0.070003
O O14 0.358191 0.289323 0.605446
#
# Coordination Sequence:
#
# PCOD9331890 Si02
#       8
#     8   8   8   8   8   8   4   4
#     4  11  24  39  66  94 145 178 236 278 345 420
#     4  11  22  42  66  99 135 187 229 296 347 435
#     4  11  23  41  69  93 140 180 235 284 363 419
#     4  12  22  41  64  98 139 192 219 293 341 437
#     4  11  25  41  68 103 143 178 244 285 370 418
#     4  11  22  42  62 103 136 186 226 291 352 429
#     4  12  25  41  62 107 142 185 240 273 354 437
#     4  10  24  45  62 105 126 194 234 284 351 425
#
# _framework density 24.450873000000001
#
# number of rings (size 3 to 8) (size 9 to 14) (size 15 to 20)
#    0.000    0.857    4.286    3.000    2.000    0.857 
#    0.000    0.000    0.000    6.857    0.000    8.000 
#    0.000    0.000    0.000    0.000    0.000    0.000 
#
# Total GULP energy -156322.520844 kJ/mol
# GULP energy per Si atom -5582.947173 kJ/mol
# Density = 2.439522 g / cm^3
# Si number density = 24.450873 Si / 1000 Ang^3
#
#
#
# Elastic Constant Matrix: (Units=GPa)
#
#
# Indices 1 2 3 4 5 6 
#
# 1 96.0696 32.9153 18.6164 0.0000 0.0000 0.0000
# 2 32.9153 110.4483 15.3643 0.0000 0.0000 0.0000
# 3 18.6164 15.3643 58.2179 0.0001 0.0000 0.0000
# 4 0.0000 0.0000 0.0001 34.2529 0.0000 0.0000
# 5 0.0000 0.0000 0.0000 0.0000 28.5569 0.0000
# 6 0.0000 0.0000 0.0000 0.0000 0.0000 48.5888
#
#
#
# Elastic Compliance Matrix: (Units=1/GPa)
#
#
# Indices 1 2 3 4 5 6 
#
# 1 0.012085 -0.003181 -0.003025 0.000000 0.000000 0.000000
# 2 -0.003181 0.010236 -0.001684 0.000000 0.000000 0.000000
# 3 -0.003025 -0.001684 0.018589 0.000000 0.000000 0.000000
# 4 0.000000 0.000000 0.000000 0.029195 0.000000 0.000000
# 5 0.000000 0.000000 0.000000 0.000000 0.035018 0.000000
# 6 0.000000 0.000000 0.000000 0.000000 0.000000 0.020581
#
#
# Mechanical properties :
#
#
# Convention : Reuss Voigt Hill
#
# Bulk Modulus (GPa) = 39.79340 44.28085 42.03712
# Shear Modulus (GPa) = 33.36444 35.46903 34.41674
#
# Velocity S-wave (km/s) = 3.69799 3.81284 3.75585
# Velocity P-wave (km/s) = 5.87739 6.12643 6.00320
#
# Compressibility (1/GPa) = 0.02512980
#
# Stress axis : x y z
#
# Youngs Moduli (GPa) = 82.74659 97.69233 53.79618
#
# Poissons Ratio (x) = 0.31073 0.16273
# Poissons Ratio (y) = 0.26319 0.09061
# Poissons Ratio (z) = 0.25031 0.16455
#
# Static dielectric constant tensor:
#      x y z
#    x 2.066400 0.000000 0.000000 
#    y 0.000000 2.056840 0.000000 
#    z 0.000000 0.000000 2.013800 
# 
# From -- ./inp_files/20236.got.cif
#   From: 2010.05.17/outbox.cif.g08.bks.cpg/sg23_11_cif.got.tgz:20236.got - 2010.06.04 12:02:01.
