data_PCOD9331332
_publ_section_title
;
Structure prediction by ZEFSAII (Michael W. Deem and Ramdas Pophale) SiO2 
 PCOD9331332
Probable space group: I 2 2 2
;
_chemical_formula_sum "Si O2"
_cell_formula_units_Z 32
_cell_length_a 8.962647
_cell_length_b 8.104268
_cell_length_c 17.596724
_cell_angle_alpha 90.000000
_cell_angle_beta 90.000000
_cell_angle_gamma 90.000000
_cell_volume 1278.150247
_symmetry_space_group_name_H-M "I 2 2 2"
_symmetry_group_IT_number 23
_symmetry_cell_setting 'orthorhombic'
loop_
_space_group_symop_operation_xyz
x,y,z
-x,-y,z
x,-y,-z
-x,y,-z
1/2+x,1/2+y,1/2+z
1/2-x,1/2-y,1/2+z
1/2+x,1/2-y,1/2-z
1/2-x,1/2+y,1/2-z
loop_
_atom_site_type_symbol
_atom_site_label
_atom_site_fract_x
_atom_site_fract_y
_atom_site_fract_z
Si Si1 0.198251 0.935391 0.585109
Si Si2 0.698253 0.064609 0.085109
Si Si3 0.700590 0.750000 0.180620
Si Si4 0.555397 0.750001 0.346369
O O1 0.132404 0.750000 0.592613
O O2 0.371104 0.899592 0.606135
O O3 0.180724 0.000000 0.500000
O O4 0.149126 0.081114 0.640585
O O5 0.871105 0.100408 0.106135
O O6 0.649126 0.918885 0.140584
O O7 0.680727 0.000000 0.000000
O O8 0.643928 0.750001 0.266358
O O9 0.881304 0.749999 0.171376
#
# Coordination Sequence:
#
# PCOD9331332 Si02
#       4
#     8   8   8   8
#     4  10  22  38  64  92 123 158 206 261 305 353
#     4  10  22  38  64  92 123 158 206 261 305 353
#     4  12  21  45  57  97 123 162 202 252 308 366
#     4  10  25  37  67  87 127 162 200 252 310 362
#
# _framework density 25.036182
#
# number of rings (size 3 to 8) (size 9 to 14) (size 15 to 20)
#    1.500    0.000    2.500    3.000    0.000    6.000 
#    0.000    0.000    0.000    9.000    0.000    0.000 
#    0.000    0.000    0.000    0.000    0.000    0.000 
#
# Total GULP energy -89380.833801 kJ/mol
# GULP energy per Si atom -5586.302113 kJ/mol
# Density = 2.497920 g / cm^3
# Si number density = 25.036182 Si / 1000 Ang^3
#
#
#
# Elastic Constant Matrix: (Units=GPa)
#
#
# Indices 1 2 3 4 5 6 
#
# 1 171.0650 58.2911 20.9231 0.0000 0.0000 0.0000
# 2 58.2911 203.5017 36.7496 0.0000 0.0000 0.0000
# 3 20.9231 36.7496 103.3306 0.0000 0.0000 0.0000
# 4 0.0000 0.0000 0.0000 306.5127 0.0000 0.0000
# 5 0.0000 0.0000 0.0000 0.0000 -60.7157 0.0000
# 6 0.0000 0.0000 0.0000 0.0000 0.0000 38.9371
#
#
#
# Elastic Compliance Matrix: (Units=1/GPa)
#
#
# Indices 1 2 3 4 5 6 
#
# 1 0.006525 -0.001742 -0.000702 0.000000 0.000000 0.000000
# 2 -0.001742 0.005716 -0.001680 0.000000 0.000000 0.000000
# 3 -0.000702 -0.001680 0.010417 0.000000 0.000000 0.000000
# 4 0.000000 0.000000 0.000000 0.003263 0.000000 0.000000
# 5 0.000000 0.000000 0.000000 0.000000 -0.016470 0.000000
# 6 0.000000 0.000000 0.000000 0.000000 0.000000 0.025682
#
#
# Mechanical properties :
#
#
# Convention : Reuss Voigt Hill
#
# Bulk Modulus (GPa) = 69.39349 78.86942 74.13145
# Shear Modulus (GPa) = 103.76477 81.07571 92.42024
#
# Velocity S-wave (km/s) = 6.44484 5.69682 6.08234
# Velocity P-wave (km/s) = 9.11914 8.65114 8.88822
#
# Compressibility (1/GPa) = 0.01441057
#
# Stress axis : x y z
#
# Youngs Moduli (GPa) = 153.25023 174.93249 95.99389
#
# Poissons Ratio (x) = 0.30480 0.06735
# Poissons Ratio (y) = 0.26702 0.16130
# Poissons Ratio (z) = 0.10752 0.29393
#
# Static dielectric constant tensor:
#      x y z
#    x 2.023330 0.000000 0.000000 
#    y 0.000000 2.028640 0.000000 
#    z 0.000000 0.000000 1.859250 
# 
# From -- ./inp_files/24122.got.cif
#   From: 2010.05.17/outbox.cif.g08.bks.cpg/sg23_13_cif.got.tgz:24122.got - 2010.06.04 12:02:01.
