data_PCOD9331638
_publ_section_title
;
Structure prediction by ZEFSAII (Michael W. Deem and Ramdas Pophale) SiO2 
 PCOD9331638
Probable space group: I 2 2 2
;
_chemical_formula_sum "Si O2"
_cell_formula_units_Z 32
_cell_length_a 8.323161
_cell_length_b 15.763556
_cell_length_c 10.738746
_cell_angle_alpha 90.000000
_cell_angle_beta 90.000000
_cell_angle_gamma 90.000000
_cell_volume 1408.951552
_symmetry_space_group_name_H-M "I 2 2 2"
_symmetry_group_IT_number 23
_symmetry_cell_setting 'orthorhombic'
loop_
_space_group_symop_operation_xyz
x,y,z
-x,-y,z
x,-y,-z
-x,y,-z
1/2+x,1/2+y,1/2+z
1/2-x,1/2-y,1/2+z
1/2+x,1/2-y,1/2-z
1/2-x,1/2+y,1/2-z
loop_
_atom_site_type_symbol
_atom_site_label
_atom_site_fract_x
_atom_site_fract_y
_atom_site_fract_z
Si Si1 0.198344 0.492014 0.638571
Si Si2 0.313920 0.810593 0.760006
Si Si3 0.100095 0.412990 0.153394
Si Si4 0.179032 0.188843 0.499306
O O1 0.262693 0.500000 0.500000
O O2 0.250008 0.402422 0.695234
O O3 0.231230 0.564047 0.740021
O O4 0.000000 0.500000 0.626749
O O5 0.488948 0.838106 0.707709
O O6 0.221519 0.776769 0.638046
O O7 0.316001 0.754242 0.884410
O O8 0.000000 0.500000 0.135439
O O9 0.189579 0.381688 0.031636
O O10 0.000000 0.153413 0.500000
#
# Coordination Sequence:
#
# PCOD9331638 Si02
#       4
#     8   8   8   8
#     4   8  17  34  65  90 115 165 223 261 313 391
#     4  10  23  39  65  97 133 176 216 270 336 391
#     4   9  21  43  67  92 128 179 226 271 328 403
#     4  12  25  39  64 101 138 174 220 281 328 389
#
# _framework density 22.711924
#
# number of rings (size 3 to 8) (size 9 to 14) (size 15 to 20)
#    0.000    2.750    0.000    2.250   10.500    8.000 
#    0.000   10.000    0.000    1.500    0.000    0.000 
#    0.000    0.000    0.000    0.000    0.000    0.000 
#
# Total GULP energy -89185.342937 kJ/mol
# GULP energy per Si atom -5574.083934 kJ/mol
# Density = 2.266023 g / cm^3
# Si number density = 22.711924 Si / 1000 Ang^3
#
#
#
# Elastic Constant Matrix: (Units=GPa)
#
#
# Indices 1 2 3 4 5 6 
#
# 1 59.3607 42.5333 33.4708 0.0000 0.0000 0.0000
# 2 42.5333 69.2840 49.7866 0.0000 0.0000 0.0000
# 3 33.4708 49.7866 204.3627 0.0000 0.0000 0.0000
# 4 0.0000 0.0000 0.0000 46.9733 0.0000 0.0000
# 5 0.0000 0.0000 0.0000 0.0000 27.3562 0.0000
# 6 0.0000 0.0000 0.0000 0.0000 0.0000 21.1495
#
#
#
# Elastic Compliance Matrix: (Units=1/GPa)
#
#
# Indices 1 2 3 4 5 6 
#
# 1 0.030121 -0.018118 -0.000519 0.000000 0.000000 0.000000
# 2 -0.018118 0.028394 -0.003950 0.000000 0.000000 0.000000
# 3 -0.000519 -0.003950 0.005941 0.000000 0.000000 0.000000
# 4 0.000000 0.000000 0.000000 0.021289 0.000000 0.000000
# 5 0.000000 0.000000 0.000000 0.000000 0.036555 0.000000
# 6 0.000000 0.000000 0.000000 0.000000 0.000000 0.047282
#
#
# Mechanical properties :
#
#
# Convention : Reuss Voigt Hill
#
# Bulk Modulus (GPa) = 51.86396 64.95432 58.40914
# Shear Modulus (GPa) = 22.60565 32.91024 27.75795
#
# Velocity S-wave (km/s) = 3.15829 3.81074 3.49975
# Velocity P-wave (km/s) = 6.01539 6.92991 6.48878
#
# Compressibility (1/GPa) = 0.01928121
#
# Stress axis : x y z
#
# Youngs Moduli (GPa) = 33.19949 35.21822 168.33247
#
# Poissons Ratio (x) = 0.63808 0.08743
# Poissons Ratio (y) = 0.60151 0.66492
# Poissons Ratio (z) = 0.01724 0.13911
#
# Static dielectric constant tensor:
#      x y z
#    x 1.907150 0.000000 0.000000 
#    y 0.000000 1.842880 0.000000 
#    z 0.000000 0.000000 1.966920 
# 
# From -- ./inp_files/7816.got.cif
#   From: 2010.05.17/outbox.cif.g08.bks.cpg/sg23_4_cif.got.tgz:7816.got - 2010.06.04 12:02:01.
