data_PCOD9331024
_publ_section_title
;
Structure prediction by ZEFSAII (Michael W. Deem and Ramdas Pophale) SiO2 
 PCOD9331024
Probable space group: I 2 2 2
;
_chemical_formula_sum "Si O2"
_cell_formula_units_Z 58
_cell_length_a 10.645311
_cell_length_b 29.435268
_cell_length_c 8.492269
_cell_angle_alpha 90.000000
_cell_angle_beta 90.000000
_cell_angle_gamma 90.000000
_cell_volume 2661.031959
_symmetry_space_group_name_H-M "I 2 2 2"
_symmetry_group_IT_number 23
_symmetry_cell_setting 'orthorhombic'
loop_
_space_group_symop_operation_xyz
x,y,z
-x,-y,z
x,-y,-z
-x,y,-z
1/2+x,1/2+y,1/2+z
1/2-x,1/2-y,1/2+z
1/2+x,1/2-y,1/2-z
1/2-x,1/2+y,1/2-z
loop_
_atom_site_type_symbol
_atom_site_label
_atom_site_fract_x
_atom_site_fract_y
_atom_site_fract_z
Si Si1 0.500000 0.500000 0.500000
Si Si2 0.060203 0.926424 0.758341
Si Si3 0.803011 0.132547 0.977676
Si Si4 0.191905 0.107446 0.655982
Si Si5 0.628626 0.046877 0.910961
Si Si6 0.864548 0.792520 0.572942
Si Si7 0.144045 0.767860 0.057108
Si Si8 0.697618 0.950633 0.431490
O O1 0.573186 0.466805 0.384200
O O2 0.170389 0.932453 0.636298
O O3 0.925461 0.926991 0.677185
O O4 0.079988 0.881409 0.863915
O O5 0.794295 0.122291 0.163149
O O6 0.800899 0.186803 0.971279
O O7 0.704465 0.094332 0.920733
O O8 0.150119 0.152905 0.566505
O O9 0.314263 0.084514 0.576798
O O10 0.612084 0.042409 0.722392
O O11 0.500000 0.054553 0.000000
O O12 0.677392 0.000000 0.000000
O O13 0.860487 0.777068 0.755596
O O14 0.744736 0.770902 0.484719
O O15 0.000000 0.779836 0.500000
O O16 0.000000 0.759816 0.000000
O O17 0.712896 0.000000 0.500000
#
# Coordination Sequence:
#
# PCOD9331024 Si02
#       8
#     2   8   8   8   8   8   8   8
#     4  12  20  28  54  92 126 176 214 236 292 400
#     4  11  21  33  57  89 133 175 206 249 314 405
#     4  10  21  39  64  88 125 172 216 261 326 415
#     4  11  21  40  59  95 133 170 212 272 342 396
#     4  10  23  43  63  84 120 174 227 273 324 400
#     4  11  24  43  70  95 133 181 226 286 351 422
#     4  11  24  43  68 101 136 173 225 284 349 411
#     4  11  23  35  59  91 126 164 209 273 328 386
#
# _framework density 21.796056
#
# number of rings (size 3 to 8) (size 9 to 14) (size 15 to 20)
#    0.000    1.241    1.379    5.379    3.862    4.414 
#    0.000    7.586    0.000    0.000    0.000    0.000 
#    0.000    0.000    0.000    0.000    0.000    0.000 
#
# Total GULP energy -161616.639450 kJ/mol
# GULP energy per Si atom -5572.987567 kJ/mol
# Density = 2.174645 g / cm^3
# Si number density = 21.796056 Si / 1000 Ang^3
#
#
#
# Elastic Constant Matrix: (Units=GPa)
#
#
# Indices 1 2 3 4 5 6 
#
# 1 85.3064 44.9983 38.9435 -0.0003 0.0006 -0.0001
# 2 44.9983 84.8970 38.9717 -0.0021 0.0007 -0.0001
# 3 38.9435 38.9717 110.4273 -0.0058 -0.0017 0.0004
# 4 -0.0003 -0.0021 -0.0058 -16.2010 -0.0016 -0.0003
# 5 0.0006 0.0007 -0.0017 -0.0016 30.5389 -0.0002
# 6 -0.0001 -0.0001 0.0004 -0.0003 -0.0002 22.0371
#
#
#
# Elastic Compliance Matrix: (Units=1/GPa)
#
#
# Indices 1 2 3 4 5 6 
#
# 1 0.017289 -0.007595 -0.003417 0.000002 0.000000 0.000000
# 2 -0.007595 0.017393 -0.003460 -0.000001 0.000000 0.000000
# 3 -0.003417 -0.003460 0.011482 -0.000004 0.000001 0.000000
# 4 0.000002 -0.000001 -0.000004 -0.061725 -0.000003 -0.000001
# 5 0.000000 0.000000 0.000001 -0.000003 0.032745 0.000000
# 6 0.000000 0.000000 0.000000 -0.000001 0.000000 0.045378
#
#
# Mechanical properties :
#
#
# Convention : Reuss Voigt Hill
#
# Bulk Modulus (GPa) = 58.07147 58.49528 58.28337
# Shear Modulus (GPa) = 51.41692 17.78949 34.60321
#
# Velocity S-wave (km/s) = 4.86222 2.85998 3.98878
# Velocity P-wave (km/s) = 7.63037 6.14832 6.92908
#
# Compressibility (1/GPa) = 0.01722016
#
# Stress axis : x y z
#
# Youngs Moduli (GPa) = 57.84188 57.49496 87.09579
#
# Poissons Ratio (x) = 0.43668 0.29757
# Poissons Ratio (y) = 0.43932 0.30133
# Poissons Ratio (z) = 0.19762 0.19892
#
# Static dielectric constant tensor:
#      x y z
#    x 1.861950 0.000000 0.000000 
#    y 0.000000 1.791260 -0.000010 
#    z 0.000000 -0.000010 1.044610 
# 
# From -- ./inp_files/8911.got.cif
#   From: 2010.05.17/outbox.cif.g08.bks.cpg/sg23_5_cif.got.tgz:8911.got - 2010.06.04 12:02:01.
