data_PCOD9331703
_publ_section_title
;
Structure prediction by ZEFSAII (Michael W. Deem and Ramdas Pophale) SiO2 
 PCOD9331703
Probable space group: I 2 2 2
;
_chemical_formula_sum "Si O2"
_cell_formula_units_Z 36
_cell_length_a 8.800033
_cell_length_b 9.688990
_cell_length_c 20.600193
_cell_angle_alpha 90.000000
_cell_angle_beta 90.000000
_cell_angle_gamma 90.000000
_cell_volume 1756.443150
_symmetry_space_group_name_H-M "I 2 2 2"
_symmetry_group_IT_number 23
_symmetry_cell_setting 'orthorhombic'
loop_
_space_group_symop_operation_xyz
x,y,z
-x,-y,z
x,-y,-z
-x,y,-z
1/2+x,1/2+y,1/2+z
1/2-x,1/2-y,1/2+z
1/2+x,1/2-y,1/2-z
1/2-x,1/2+y,1/2-z
loop_
_atom_site_type_symbol
_atom_site_label
_atom_site_fract_x
_atom_site_fract_y
_atom_site_fract_z
Si Si1 0.500000 0.000000 0.000000
Si Si2 0.000000 0.500000 0.000000
Si Si3 0.473475 0.273912 0.430278
Si Si4 0.697186 0.133594 0.885127
Si Si5 0.236562 0.141383 0.817212
Si Si6 0.988042 0.155816 0.303199
O O1 0.611565 0.084014 0.950902
O O2 0.065367 0.385340 0.949807
O O3 0.500000 0.342614 0.500000
O O4 0.632368 0.309184 0.395555
O O5 0.338004 0.326052 0.386668
O O6 0.604658 0.258286 0.855338
O O7 0.695554 0.009914 0.831710
O O8 0.104428 0.143929 0.763957
O O9 0.357053 0.257395 0.796377
O O10 0.000000 0.000000 0.327021
#
# Coordination Sequence:
#
# PCOD9331703 Si02
#       6
#     2   2   8   8   8   8
#     4  12  24  48  74 108 144 192 250 304 360 424
#     4   8  24  40  60 110 128 176 222 296 348 424
#     4  10  23  42  70  97 139 185 239 291 365 430
#     4  12  25  46  72 103 144 192 242 300 361 441
#     4  12  24  48  68 106 139 193 240 302 367 439
#     4  12  27  43  72 102 141 184 242 300 368 431
#
# _framework density 20.495965999999999
#
# number of rings (size 3 to 8) (size 9 to 14) (size 15 to 20)
#    0.667    0.000    2.222    6.000    3.111    0.889 
#    4.000    0.000    0.000    0.000    0.000    0.000 
#    0.000    0.000    0.000    0.000    0.000    0.000 
#
# Total GULP energy -100361.590749 kJ/mol
# GULP energy per Si atom -5575.643931 kJ/mol
# Density = 2.044932 g / cm^3
# Si number density = 20.495966 Si / 1000 Ang^3
#
#
#
# Elastic Constant Matrix: (Units=GPa)
#
#
# Indices 1 2 3 4 5 6 
#
# 1 100.1898 55.0046 28.6278 0.0000 0.0000 0.0000
# 2 55.0046 174.7640 53.6193 0.0000 0.0000 0.0000
# 3 28.6278 53.6193 97.8526 0.0000 0.0000 0.0000
# 4 0.0000 0.0000 0.0000 19.3939 0.0000 0.0000
# 5 0.0000 0.0000 0.0000 0.0000 47.3952 0.0000
# 6 0.0000 0.0000 0.0000 0.0000 0.0000 21.9169
#
#
#
# Elastic Compliance Matrix: (Units=1/GPa)
#
#
# Indices 1 2 3 4 5 6 
#
# 1 0.012318 -0.003331 -0.001778 0.000000 0.000000 0.000000
# 2 -0.003331 0.007779 -0.003288 0.000000 0.000000 0.000000
# 3 -0.001778 -0.003288 0.012542 0.000000 0.000000 0.000000
# 4 0.000000 0.000000 0.000000 0.051563 0.000000 0.000000
# 5 0.000000 0.000000 0.000000 0.000000 0.021099 0.000000
# 6 0.000000 0.000000 0.000000 0.000000 0.000000 0.045627
#
#
# Mechanical properties :
#
#
# Convention : Reuss Voigt Hill
#
# Bulk Modulus (GPa) = 63.11828 71.92332 67.52080
# Shear Modulus (GPa) = 28.90099 33.44484 31.17292
#
# Velocity S-wave (km/s) = 3.75918 4.04391 3.90414
# Velocity P-wave (km/s) = 7.05012 7.54797 7.30329
#
# Compressibility (1/GPa) = 0.01584327
#
# Stress axis : x y z
#
# Youngs Moduli (GPa) = 81.18121 128.54565 79.73522
#
# Poissons Ratio (x) = 0.42823 0.14180
# Poissons Ratio (y) = 0.27044 0.26218
# Poissons Ratio (z) = 0.14437 0.42268
#
# Static dielectric constant tensor:
#      x y z
#    x 1.789940 0.000000 0.000000 
#    y 0.000000 0.926090 0.000000 
#    z 0.000000 0.000000 1.789740 
# 
# From -- ./inp_files/25979.got.cif
#   From: 2010.05.17/outbox.cif.g08.bks.cpg/sg23_13_cif.got.tgz:25979.got - 2010.06.04 12:02:01.
