data_PCOD9331145
_publ_section_title
;
Structure prediction by ZEFSAII (Michael W. Deem and Ramdas Pophale) SiO2 
 PCOD9331145
Probable space group: I 2 2 2
;
_chemical_formula_sum "Si O2"
_cell_formula_units_Z 56
_cell_length_a 17.852915
_cell_length_b 11.248727
_cell_length_c 13.971763
_cell_angle_alpha 90.000000
_cell_angle_beta 90.000000
_cell_angle_gamma 90.000000
_cell_volume 2805.845311
_symmetry_space_group_name_H-M "I 2 2 2"
_symmetry_group_IT_number 23
_symmetry_cell_setting 'orthorhombic'
loop_
_space_group_symop_operation_xyz
x,y,z
-x,-y,z
x,-y,-z
-x,y,-z
1/2+x,1/2+y,1/2+z
1/2-x,1/2-y,1/2+z
1/2+x,1/2-y,1/2-z
1/2-x,1/2+y,1/2-z
loop_
_atom_site_type_symbol
_atom_site_label
_atom_site_fract_x
_atom_site_fract_y
_atom_site_fract_z
Si Si1 0.833237 0.564151 0.785092
Si Si2 0.978837 0.630533 0.695138
Si Si3 0.390234 0.174405 0.672453
Si Si4 0.532105 0.379538 0.106781
Si Si5 0.081888 0.672289 0.039348
Si Si6 0.416720 0.555136 0.602059
Si Si7 0.159076 0.916301 0.734441
O O1 0.890183 0.627825 0.712039
O O2 0.840041 0.422391 0.773702
O O3 0.872612 0.591848 0.886851
O O4 0.747482 0.596681 0.775866
O O5 0.000000 0.500000 0.652704
O O6 0.025668 0.636458 0.795110
O O7 0.005685 0.750875 0.644556
O O8 0.374342 0.176809 0.560747
O O9 0.375231 0.304668 0.709800
O O10 0.500000 0.500000 0.155774
O O11 0.619282 0.402916 0.130554
O O12 0.500000 0.381279 0.000000
O O13 0.076140 0.804117 0.084668
O O14 0.000000 0.635826 0.000000
O O15 0.500000 0.500000 0.615563
O O16 0.388660 0.500000 0.500000
O O17 0.366150 0.523884 0.694776
#
# Coordination Sequence:
#
# PCOD9331145 Si02
#       7
#     8   8   8   8   8   8   8
#     4  11  25  37  62  95 129 171 203 268 347 396
#     4   9  20  40  66  90 121 170 214 258 330 401
#     4  10  21  41  60  89 130 162 210 263 327 411
#     4  10  23  43  66  88 119 174 231 270 310 389
#     4  12  21  37  66  99 126 165 220 265 332 403
#     4  11  21  38  66  99 124 167 221 277 333 396
#     4  11  24  42  62  92 134 168 215 280 336 401
#
# _framework density 19.958335000000002
#
# number of rings (size 3 to 8) (size 9 to 14) (size 15 to 20)
#    0.000    1.429    4.286    0.857    6.000    0.857 
#    7.714    0.000    0.000    0.000    0.000    0.000 
#    0.000    0.000    0.000    0.000    0.000    0.000 
#
# Total GULP energy -155981.733626 kJ/mol
# GULP energy per Si atom -5570.776201 kJ/mol
# Density = 1.991291 g / cm^3
# Si number density = 19.958335 Si / 1000 Ang^3
#
#
#
# Elastic Constant Matrix: (Units=GPa)
#
#
# Indices 1 2 3 4 5 6 
#
# 1 141.1302 20.5722 25.6626 0.0000 0.0000 0.0000
# 2 20.5722 127.1524 12.8881 0.0000 0.0000 0.0000
# 3 25.6626 12.8881 79.7229 0.0000 0.0000 0.0000
# 4 0.0000 0.0000 0.0000 4.5710 0.0000 0.0000
# 5 0.0000 0.0000 0.0000 0.0000 11.6655 0.0000
# 6 0.0000 0.0000 0.0000 0.0000 0.0000 16.4001
#
#
#
# Elastic Compliance Matrix: (Units=1/GPa)
#
#
# Indices 1 2 3 4 5 6 
#
# 1 0.007650 -0.001005 -0.002300 0.000000 0.000000 0.000000
# 2 -0.001005 0.008128 -0.000991 0.000000 0.000000 0.000000
# 3 -0.002300 -0.000991 0.013444 0.000000 0.000000 0.000000
# 4 0.000000 0.000000 0.000000 0.218769 0.000000 0.000000
# 5 0.000000 0.000000 0.000000 0.000000 0.085723 0.000000
# 6 0.000000 0.000000 0.000000 0.000000 0.000000 0.060975
#
#
# Mechanical properties :
#
#
# Convention : Reuss Voigt Hill
#
# Bulk Modulus (GPa) = 48.47035 51.80569 50.13802
# Shear Modulus (GPa) = 12.19047 25.78616 18.98831
#
# Velocity S-wave (km/s) = 2.47411 3.59834 3.08782
# Velocity P-wave (km/s) = 5.70089 6.57855 6.15538
#
# Compressibility (1/GPa) = 0.02063117
#
# Stress axis : x y z
#
# Youngs Moduli (GPa) = 130.71276 123.03879 74.38250
#
# Poissons Ratio (x) = 0.12361 0.17110
# Poissons Ratio (y) = 0.13132 0.07368
# Poissons Ratio (z) = 0.30067 0.12187
#
# Static dielectric constant tensor:
#      x y z
#    x 1.721900 0.000000 0.000000 
#    y 0.000000 1.761050 0.000000 
#    z 0.000000 0.000000 1.782390 
# 
# From -- ./inp_files/21605.got.cif
#   From: 2010.05.17/outbox.cif.g08.bks.cpg/sg23_11_cif.got.tgz:21605.got - 2010.06.04 12:02:01.
