data_PCOD9331298
_publ_section_title
;
Structure prediction by ZEFSAII (Michael W. Deem and Ramdas Pophale) SiO2 
 PCOD9331298
Probable space group: I 2 2 2
;
_chemical_formula_sum "Si O2"
_cell_formula_units_Z 64
_cell_length_a 11.560915
_cell_length_b 15.684073
_cell_length_c 16.765136
_cell_angle_alpha 90.000000
_cell_angle_beta 90.000000
_cell_angle_gamma 90.000000
_cell_volume 3039.891926
_symmetry_space_group_name_H-M "I 2 2 2"
_symmetry_group_IT_number 23
_symmetry_cell_setting 'orthorhombic'
loop_
_space_group_symop_operation_xyz
x,y,z
-x,-y,z
x,-y,-z
-x,y,-z
1/2+x,1/2+y,1/2+z
1/2-x,1/2-y,1/2+z
1/2+x,1/2-y,1/2-z
1/2-x,1/2+y,1/2-z
loop_
_atom_site_type_symbol
_atom_site_label
_atom_site_fract_x
_atom_site_fract_y
_atom_site_fract_z
Si Si1 0.858331 0.233448 0.318293
Si Si2 0.697353 0.102452 0.251810
Si Si3 0.477517 0.402842 0.906857
Si Si4 0.231500 0.463586 0.415487
Si Si5 0.564214 0.323851 0.584309
Si Si6 0.827140 0.136904 0.842786
Si Si7 0.240365 0.930699 0.676280
Si Si8 0.038725 0.659387 0.182148
O O1 0.786247 0.180649 0.251957
O O2 0.760069 0.286127 0.368260
O O3 0.933927 0.300749 0.269217
O O4 0.942793 0.168699 0.364959
O O5 0.661023 0.070628 0.162837
O O6 0.592771 0.130966 0.308805
O O7 0.768717 0.027244 0.294362
O O8 0.500000 0.500000 0.877132
O O9 0.339744 0.397703 0.893883
O O10 0.500000 0.399015 0.000000
O O11 0.180137 0.500000 0.500000
O O12 0.327728 0.388301 0.425220
O O13 0.292195 0.549129 0.383997
O O14 0.500000 0.321847 0.500000
O O15 0.463338 0.354297 0.644610
O O16 0.578484 0.228032 0.616243
O O17 0.802043 0.126855 0.749778
O O18 0.376366 0.918535 0.667084
#
# Coordination Sequence:
#
# PCOD9331298 Si02
#       8
#     8   8   8   8   8   8   8   8
#     4  11  22  41  65  96 131 174 227 287 346 414
#     4  11  22  42  69  95 135 179 229 293 341 429
#     4  11  24  42  65  95 129 170 222 287 344 408
#     4  11  23  40  63 100 139 184 231 286 360 420
#     4  12  22  35  61  98 140 175 222 295 351 413
#     4  10  22  37  61  94 133 173 223 275 344 422
#     4  10  23  42  69  92 125 174 229 281 343 415
#     4  11  24  42  66 100 131 179 235 279 353 420
#
# _framework density 21.053379
#
# number of rings (size 3 to 8) (size 9 to 14) (size 15 to 20)
#    0.000    1.125    5.000    1.500    1.750    1.000 
#    2.250    0.000    0.000    7.500    0.000    0.000 
#    0.000    0.000    0.000    0.000    0.000    0.000 
#
# Total GULP energy -178216.313512 kJ/mol
# GULP energy per Si atom -5569.259797 kJ/mol
# Density = 2.100546 g / cm^3
# Si number density = 21.053379 Si / 1000 Ang^3
#
#
#
# Elastic Constant Matrix: (Units=GPa)
#
#
# Indices 1 2 3 4 5 6 
#
# 1 67.7631 7.7566 18.8481 0.0000 0.0000 0.0000
# 2 7.7566 74.0905 12.5094 0.0000 0.0000 -0.0001
# 3 18.8481 12.5094 59.5948 0.0000 0.0000 0.0000
# 4 0.0000 0.0000 0.0000 12.0034 0.0000 -0.0001
# 5 0.0000 0.0000 0.0000 0.0000 19.1973 0.0000
# 6 0.0000 -0.0001 0.0000 -0.0001 0.0000 -280.4819
#
#
#
# Elastic Compliance Matrix: (Units=1/GPa)
#
#
# Indices 1 2 3 4 5 6 
#
# 1 0.016234 -0.000863 -0.004953 0.000000 0.000000 0.000000
# 2 -0.000863 0.014039 -0.002674 0.000000 0.000000 0.000000
# 3 -0.004953 -0.002674 0.018908 0.000000 0.000000 0.000000
# 4 0.000000 0.000000 0.000000 0.083310 0.000000 0.000000
# 5 0.000000 0.000000 0.000000 0.000000 0.052091 0.000000
# 6 0.000000 0.000000 0.000000 0.000000 0.000000 -0.003565
#
#
# Mechanical properties :
#
#
# Convention : Reuss Voigt Hill
#
# Bulk Modulus (GPa) = 31.05583 31.07516 31.06550
# Shear Modulus (GPa) = 23.95445 -39.03398 -7.53977
#
# Velocity S-wave (km/s) = 3.37678 -4.31054 -1.89448
# Velocity P-wave (km/s) = 5.47600 3.15944 3.16263
#
# Compressibility (1/GPa) = 0.03220007
#
# Stress axis : x y z
#
# Youngs Moduli (GPa) = 61.59989 71.23099 52.88834
#
# Poissons Ratio (x) = 0.06149 0.26196
# Poissons Ratio (y) = 0.05318 0.14142
# Poissons Ratio (z) = 0.30511 0.19046
#
# Static dielectric constant tensor:
#      x y z
#    x 1.802730 0.000000 0.000000 
#    y 0.000000 1.794140 0.000000 
#    z 0.000000 0.000000 2.077560 
# 
# From -- ./inp_files/24436.got.cif
#   From: 2010.05.17/outbox.cif.g08.bks.cpg/sg23_13_cif.got.tgz:24436.got - 2010.06.04 12:02:01.
