data_PCOD9331209
_publ_section_title
;
Structure prediction by ZEFSAII (Michael W. Deem and Ramdas Pophale) SiO2 
 PCOD9331209
Probable space group: I 2 2 2
;
_chemical_formula_sum "Si O2"
_cell_formula_units_Z 52
_cell_length_a 6.822794
_cell_length_b 14.525414
_cell_length_c 20.227059
_cell_angle_alpha 90.000000
_cell_angle_beta 90.000000
_cell_angle_gamma 90.000000
_cell_volume 2004.580584
_symmetry_space_group_name_H-M "I 2 2 2"
_symmetry_group_IT_number 23
_symmetry_cell_setting 'orthorhombic'
loop_
_space_group_symop_operation_xyz
x,y,z
-x,-y,z
x,-y,-z
-x,y,-z
1/2+x,1/2+y,1/2+z
1/2-x,1/2-y,1/2+z
1/2+x,1/2-y,1/2-z
1/2-x,1/2+y,1/2-z
loop_
_atom_site_type_symbol
_atom_site_label
_atom_site_fract_x
_atom_site_fract_y
_atom_site_fract_z
Si Si1 0.271350 0.649826 0.612547
Si Si2 0.762823 0.997897 0.199663
Si Si3 0.500000 0.747222 0.500000
Si Si4 0.285424 0.410812 0.045679
Si Si5 0.628863 0.339057 0.128488
Si Si6 0.928413 0.611804 0.180342
Si Si7 0.584138 0.682104 0.722646
O O1 0.210460 0.545853 0.629537
O O2 0.424589 0.677976 0.556273
O O3 0.116969 0.731504 0.608023
O O4 0.392103 0.667490 0.679301
O O5 0.651916 0.046721 0.259996
O O6 0.739323 0.886940 0.201648
O O7 0.000000 0.000000 0.208577
O O8 0.676084 0.818207 0.518626
O O9 0.184572 0.424615 0.116636
O O10 0.248732 0.500000 0.000000
O O11 0.490839 0.391551 0.928670
O O12 0.851303 0.371543 0.147484
O O13 0.540629 0.340728 0.201596
O O14 0.871837 0.713025 0.205957
#
# Coordination Sequence:
#
# PCOD9331209 Si02
#       7
#     8   8   4   8   8   8   8
#     4  10  22  44  72 109 159 208 274 338 416 506
#     4  10  21  42  78 121 160 209 277 355 428 497
#     4  12  25  50  75 108 158 228 280 341 419 518
#     4  12  28  50  77 110 168 223 279 333 419 530
#     4  11  24  46  82 115 160 221 266 354 424 496
#     4  11  24  48  78 120 166 212 281 342 431 512
#     4  10  21  42  79 117 159 210 269 360 426 489
#
# _framework density 25.940588000000002
#
# number of rings (size 3 to 8) (size 9 to 14) (size 15 to 20)
#    0.000    1.231    4.615    2.077    2.154    3.077 
#    2.769    7.308    0.000    0.000    0.000    0.000 
#   18.462    0.000    0.000    0.000    0.000    0.000 
#
# Total GULP energy -145132.742356 kJ/mol
# GULP energy per Si atom -5582.028552 kJ/mol
# Density = 2.588155 g / cm^3
# Si number density = 25.940588 Si / 1000 Ang^3
#
#
#
# Elastic Constant Matrix: (Units=GPa)
#
#
# Indices 1 2 3 4 5 6 
#
# 1 130.3280 49.5548 38.4371 0.0000 0.0000 0.0000
# 2 49.5548 190.1305 67.5035 0.0000 0.0000 0.0000
# 3 38.4371 67.5035 162.5795 0.0000 0.0000 0.0000
# 4 0.0000 0.0000 0.0000 37.8086 0.0000 0.0000
# 5 0.0000 0.0000 0.0000 0.0000 39.8489 0.0000
# 6 0.0000 0.0000 0.0000 0.0000 0.0000 33.9216
#
#
#
# Elastic Compliance Matrix: (Units=1/GPa)
#
#
# Indices 1 2 3 4 5 6 
#
# 1 0.008751 -0.001814 -0.001316 0.000000 0.000000 0.000000
# 2 -0.001814 0.006545 -0.002289 0.000000 0.000000 0.000000
# 3 -0.001316 -0.002289 0.007412 0.000000 0.000000 0.000000
# 4 0.000000 0.000000 0.000000 0.026449 0.000000 0.000000
# 5 0.000000 0.000000 0.000000 0.000000 0.025095 0.000000
# 6 0.000000 0.000000 0.000000 0.000000 0.000000 0.029480
#
#
# Mechanical properties :
#
#
# Convention : Reuss Voigt Hill
#
# Bulk Modulus (GPa) = 84.23539 88.22542 86.23040
# Shear Modulus (GPa) = 42.18543 44.15199 43.16871
#
# Velocity S-wave (km/s) = 4.03703 4.13006 4.08381
# Velocity P-wave (km/s) = 7.36703 7.53841 7.45321
#
# Compressibility (1/GPa) = 0.01187149
#
# Stress axis : x y z
#
# Youngs Moduli (GPa) = 114.27804 152.79352 134.91306
#
# Poissons Ratio (x) = 0.27710 0.17752
# Poissons Ratio (y) = 0.20725 0.30877
# Poissons Ratio (z) = 0.15037 0.34969
#
# Static dielectric constant tensor:
#      x y z
#    x 2.194960 0.000000 0.000000 
#    y 0.000000 2.442650 0.000000 
#    z 0.000000 0.000000 2.042570 
# 
# From -- ./inp_files/24381.got.cif
#   From: 2010.05.17/outbox.cif.g08.bks.cpg/sg23_13_cif.got.tgz:24381.got - 2010.06.04 12:02:01.
