data_PCOD9331933
_publ_section_title
;
Structure prediction by ZEFSAII (Michael W. Deem and Ramdas Pophale) SiO2 
 PCOD9331933
Probable space group: I 2 2 2
;
_chemical_formula_sum "Si O2"
_cell_formula_units_Z 44
_cell_length_a 7.608310
_cell_length_b 18.360387
_cell_length_c 14.143959
_cell_angle_alpha 90.000000
_cell_angle_beta 90.000000
_cell_angle_gamma 90.000000
_cell_volume 1975.791075
_symmetry_space_group_name_H-M "I 2 2 2"
_symmetry_group_IT_number 23
_symmetry_cell_setting 'orthorhombic'
loop_
_space_group_symop_operation_xyz
x,y,z
-x,-y,z
x,-y,-z
-x,y,-z
1/2+x,1/2+y,1/2+z
1/2-x,1/2-y,1/2+z
1/2+x,1/2-y,1/2-z
1/2-x,1/2+y,1/2-z
loop_
_atom_site_type_symbol
_atom_site_label
_atom_site_fract_x
_atom_site_fract_y
_atom_site_fract_z
Si Si1 0.179168 0.700101 0.767913
Si Si2 0.721602 0.461958 0.337936
Si Si3 0.500000 0.500000 0.500000
Si Si4 0.894747 0.358836 0.089398
Si Si5 0.500000 0.000000 0.500000
Si Si6 0.074163 0.606975 0.608572
Si Si7 0.926995 0.848859 0.292806
O O1 0.149086 0.679063 0.657429
O O2 0.152378 0.786452 0.776664
O O3 0.368253 0.670861 0.801415
O O4 0.024563 0.661516 0.825857
O O5 0.611749 0.448154 0.432521
O O6 0.783252 0.544986 0.360683
O O7 0.608558 0.428557 0.252456
O O8 0.901067 0.418518 0.336593
O O9 0.695268 0.340884 0.114861
O O10 0.894123 0.444993 0.066136
O O11 0.000000 0.325478 0.000000
O O12 0.000000 0.608354 0.500000
#
# Coordination Sequence:
#
# PCOD9331933 Si02
#       7
#     8   8   2   8   2   8   8
#     4  12  25  47  71 106 146 194 243 294 372 433
#     4  11  22  38  65  95 145 181 232 296 348 429
#     4  12  20  38  54 112 132 184 252 282 366 436
#     4  10  24  49  73 103 142 185 242 305 356 436
#     4   8  24  48  76 104 138 190 238 300 374 412
#     4  11  22  43  66 100 143 190 233 291 362 427
#     4  12  25  46  69 105 146 191 242 294 366 433
#
# _framework density 22.269562000000001
#
# number of rings (size 3 to 8) (size 9 to 14) (size 15 to 20)
#    0.545    0.364    5.455    1.636    2.545    0.727 
#    8.182    0.909    0.000    0.000    0.000    0.000 
#    0.000    0.000    0.000    0.000    0.000    0.000 
#
# Total GULP energy -122476.852308 kJ/mol
# GULP energy per Si atom -5567.129650 kJ/mol
# Density = 2.221888 g / cm^3
# Si number density = 22.269562 Si / 1000 Ang^3
#
#
#
# Elastic Constant Matrix: (Units=GPa)
#
#
# Indices 1 2 3 4 5 6 
#
# 1 102.6770 16.9612 12.0093 0.0000 0.0000 0.0000
# 2 16.9612 102.3101 28.7985 0.0000 0.0000 0.0000
# 3 12.0093 28.7985 77.3688 0.0000 0.0000 0.0000
# 4 0.0000 0.0000 0.0000 21.4489 0.0000 0.0000
# 5 0.0000 0.0000 0.0000 0.0000 19.1208 0.0000
# 6 0.0000 0.0000 0.0000 0.0000 0.0000 29.1002
#
#
#
# Elastic Compliance Matrix: (Units=1/GPa)
#
#
# Indices 1 2 3 4 5 6 
#
# 1 0.010090 -0.001376 -0.001054 0.000000 0.000000 0.000000
# 2 -0.001376 0.011106 -0.003920 0.000000 0.000000 0.000000
# 3 -0.001054 -0.003920 0.014548 0.000000 0.000000 0.000000
# 4 0.000000 0.000000 0.000000 0.046622 0.000000 0.000000
# 5 0.000000 0.000000 0.000000 0.000000 0.052299 0.000000
# 6 0.000000 0.000000 0.000000 0.000000 0.000000 0.034364
#
#
# Mechanical properties :
#
#
# Convention : Reuss Voigt Hill
#
# Bulk Modulus (GPa) = 43.39704 44.21045 43.80374
# Shear Modulus (GPa) = 26.39768 28.90645 27.65207
#
# Velocity S-wave (km/s) = 3.44666 3.60672 3.52760
# Velocity P-wave (km/s) = 5.94716 6.10247 6.02531
#
# Compressibility (1/GPa) = 0.02304305
#
# Stress axis : x y z
#
# Youngs Moduli (GPa) = 99.10936 90.04291 68.73840
#
# Poissons Ratio (x) = 0.12390 0.07245
# Poissons Ratio (y) = 0.13638 0.26947
# Poissons Ratio (z) = 0.10446 0.35299
#
# Static dielectric constant tensor:
#      x y z
#    x 1.861120 0.000000 0.000000 
#    y 0.000000 1.857150 0.000000 
#    z 0.000000 0.000000 1.894970 
# 
# From -- ./inp_files/19971.got.cif
#   From: 2010.05.17/outbox.cif.g08.bks.cpg/sg23_10_cif.got.tgz:19971.got - 2010.06.04 12:02:01.
