data_PCOD9331175
_publ_section_title
;
Structure prediction by ZEFSAII (Michael W. Deem and Ramdas Pophale) SiO2 
 PCOD9331175
Probable space group: I 2 2 2
;
_chemical_formula_sum "Si O2"
_cell_formula_units_Z 48
_cell_length_a 11.652280
_cell_length_b 11.170601
_cell_length_c 17.542550
_cell_angle_alpha 90.000000
_cell_angle_beta 90.000000
_cell_angle_gamma 90.000000
_cell_volume 2283.390420
_symmetry_space_group_name_H-M "I 2 2 2"
_symmetry_group_IT_number 23
_symmetry_cell_setting 'orthorhombic'
loop_
_space_group_symop_operation_xyz
x,y,z
-x,-y,z
x,-y,-z
-x,y,-z
1/2+x,1/2+y,1/2+z
1/2-x,1/2-y,1/2+z
1/2+x,1/2-y,1/2-z
1/2-x,1/2+y,1/2-z
loop_
_atom_site_type_symbol
_atom_site_label
_atom_site_fract_x
_atom_site_fract_y
_atom_site_fract_z
Si Si1 0.878934 0.609586 0.456180
Si Si2 0.936160 0.114119 0.144661
Si Si3 0.844617 0.750440 0.135780
Si Si4 0.692118 0.795443 0.463699
Si Si5 0.286008 0.022512 0.182940
Si Si6 0.863840 0.490216 0.155983
O O1 0.814427 0.500000 0.500000
O O2 0.817860 0.736587 0.464693
O O3 0.870075 0.559990 0.369187
O O4 0.000000 0.617979 0.500000
O O5 0.877486 0.198877 0.084545
O O6 0.040870 0.195413 0.175380
O O7 0.832410 0.054772 0.192179
O O8 0.000000 0.000000 0.108458
O O9 0.751955 0.855499 0.140294
O O10 0.814196 0.622888 0.170159
O O11 0.860739 0.710316 0.047784
O O12 0.686012 0.917901 0.415880
O O13 0.337540 0.068028 0.262492
O O14 0.000000 0.500000 0.143964
#
# Coordination Sequence:
#
# PCOD9331175 Si02
#       6
#     8   8   8   8   8   8
#     4  10  21  41  70  99 122 172 228 277 329 383
#     4   9  20  37  63  93 123 165 222 277 333 378
#     4  11  22  40  66  92 130 176 222 276 340 402
#     4  11  22  40  64  98 132 169 223 281 330 402
#     4  10  24  41  63  96 133 171 227 284 331 396
#     4  12  27  40  62  97 140 182 216 271 348 411
#
# _framework density 21.021373000000001
#
# number of rings (size 3 to 8) (size 9 to 14) (size 15 to 20)
#    0.000    1.500    3.333    1.000    7.000    2.667 
#    0.000    0.000    3.667    2.000    0.000    0.000 
#    0.000    0.000    0.000    0.000    0.000    0.000 
#
# Total GULP energy -133658.381209 kJ/mol
# GULP energy per Si atom -5569.099217 kJ/mol
# Density = 2.097353 g / cm^3
# Si number density = 21.021373 Si / 1000 Ang^3
#
#
#
# Elastic Constant Matrix: (Units=GPa)
#
#
# Indices 1 2 3 4 5 6 
#
# 1 93.8718 42.3635 26.1206 0.0000 0.0000 0.0000
# 2 42.3635 110.8250 22.0588 0.0000 0.0000 0.0000
# 3 26.1206 22.0588 70.0637 0.0000 0.0000 0.0000
# 4 0.0000 0.0000 0.0000 26.5702 0.0000 0.0000
# 5 0.0000 0.0000 0.0000 0.0000 -4.7806 0.0000
# 6 0.0000 0.0000 0.0000 0.0000 0.0000 22.7064
#
#
#
# Elastic Compliance Matrix: (Units=1/GPa)
#
#
# Indices 1 2 3 4 5 6 
#
# 1 0.013715 -0.004507 -0.003694 0.000000 0.000000 0.000000
# 2 -0.004507 0.011108 -0.001817 0.000000 0.000000 0.000000
# 3 -0.003694 -0.001817 0.016222 0.000000 0.000000 0.000000
# 4 0.000000 0.000000 0.000000 0.037636 0.000000 0.000000
# 5 0.000000 0.000000 0.000000 0.000000 -0.209180 0.000000
# 6 0.000000 0.000000 0.000000 0.000000 0.000000 0.044040
#
#
# Mechanical properties :
#
#
# Convention : Reuss Voigt Hill
#
# Bulk Modulus (GPa) = 47.60012 50.64959 49.12485
# Shear Modulus (GPa) = -84.14691 21.18039 -31.48326
#
# Velocity S-wave (km/s) = -6.33373 3.17766 -3.87418
# Velocity P-wave (km/s) = 5.54935 6.13270 1.84590
#
# Compressibility (1/GPa) = 0.02100835
#
# Stress axis : x y z
#
# Youngs Moduli (GPa) = 72.91390 90.02683 61.64508
#
# Poissons Ratio (x) = 0.40578 0.22772
# Poissons Ratio (y) = 0.32865 0.11200
# Poissons Ratio (z) = 0.26934 0.16356
#
# Static dielectric constant tensor:
#      x y z
#    x 1.853780 0.000000 0.000000 
#    y 0.000000 1.858740 0.000000 
#    z 0.000000 0.000000 1.790810 
# 
# From -- ./inp_files/24299.got.cif
#   From: 2010.05.17/outbox.cif.g08.bks.cpg/sg23_13_cif.got.tgz:24299.got - 2010.06.04 12:02:01.
