data_PCOD9331060
_publ_section_title
;
Structure prediction by ZEFSAII (Michael W. Deem and Ramdas Pophale) SiO2 
 PCOD9331060
Probable space group: I 2 2 2
;
_chemical_formula_sum "Si O2"
_cell_formula_units_Z 54
_cell_length_a 6.206459
_cell_length_b 26.862795
_cell_length_c 15.170480
_cell_angle_alpha 90.000000
_cell_angle_beta 90.000000
_cell_angle_gamma 90.000000
_cell_volume 2529.265446
_symmetry_space_group_name_H-M "I 2 2 2"
_symmetry_group_IT_number 23
_symmetry_cell_setting 'orthorhombic'
loop_
_space_group_symop_operation_xyz
x,y,z
-x,-y,z
x,-y,-z
-x,y,-z
1/2+x,1/2+y,1/2+z
1/2-x,1/2-y,1/2+z
1/2+x,1/2-y,1/2-z
1/2-x,1/2+y,1/2-z
loop_
_atom_site_type_symbol
_atom_site_label
_atom_site_fract_x
_atom_site_fract_y
_atom_site_fract_z
Si Si1 0.011299 0.859460 0.294523
Si Si2 0.076986 0.317784 0.217289
Si Si3 0.500000 0.000000 0.500000
Si Si4 0.253880 0.866831 0.859468
Si Si5 0.500000 0.803659 0.000000
Si Si6 0.276705 0.261723 0.856502
Si Si7 0.251601 0.983769 0.897038
Si Si8 0.118004 0.050950 0.408949
O O1 0.974133 0.857565 0.188942
O O2 0.927084 0.809155 0.338839
O O3 0.896544 0.906964 0.336100
O O4 0.262561 0.859749 0.315224
O O5 0.201953 0.275809 0.273857
O O6 0.910328 0.345070 0.282619
O O7 0.957159 0.286481 0.142593
O O8 0.646760 0.965587 0.438630
O O9 0.333685 0.836888 0.944022
O O10 0.261184 0.924661 0.882173
O O11 0.642189 0.768966 0.938077
O O12 0.500000 0.000000 0.864050
O O13 0.000000 0.000000 0.865804
O O14 0.251532 0.000000 0.000000
O O15 0.000000 0.067342 0.500000
O O16 0.000000 0.000000 0.379825
#
# Coordination Sequence:
#
# PCOD9331060 Si02
#       8
#     8   8   2   8   4   8   8   8
#     4  11  23  41  68  96 139 177 233 285 355 425
#     4  10  21  42  66  91 137 178 229 285 352 415
#     4   8  18  44  72  94 136 162 214 280 360 414
#     4  10  24  42  66  98 133 189 228 296 353 426
#     4  10  22  44  69 102 137 178 246 282 364 434
#     4  10  21  39  67  94 132 181 227 291 342 421
#     4  10  22  42  67  96 137 183 235 296 349 420
#     4   9  21  40  67  98 133 172 216 284 345 429
#
# _framework density 21.350073999999999
#
# number of rings (size 3 to 8) (size 9 to 14) (size 15 to 20)
#    0.000    2.222    1.481    0.889    3.111    5.333 
#    4.000    3.704    3.259    0.000    0.000    0.000 
#    0.000    0.000    0.000    0.000    0.000    0.000 
#
# Total GULP energy -150422.748122 kJ/mol
# GULP energy per Si atom -5571.212893 kJ/mol
# Density = 2.130148 g / cm^3
# Si number density = 21.350074 Si / 1000 Ang^3
#
#
#
# Elastic Constant Matrix: (Units=GPa)
#
#
# Indices 1 2 3 4 5 6 
#
# 1 115.9696 42.1049 32.2870 0.0000 0.0000 0.0000
# 2 42.1049 138.9998 53.5384 0.0000 0.0000 0.0000
# 3 32.2870 53.5384 72.7728 0.0000 0.0000 0.0000
# 4 0.0000 0.0000 0.0000 17.4887 0.0000 0.0000
# 5 0.0000 0.0000 0.0000 0.0000 5.3899 0.0000
# 6 0.0000 0.0000 0.0000 0.0000 0.0000 -5.8038
#
#
#
# Elastic Compliance Matrix: (Units=1/GPa)
#
#
# Indices 1 2 3 4 5 6 
#
# 1 0.010177 -0.001875 -0.003136 0.000000 0.000000 0.000000
# 2 -0.001875 0.010384 -0.006808 0.000000 0.000000 0.000000
# 3 -0.003136 -0.006808 0.020141 0.000000 0.000000 0.000000
# 4 0.000000 0.000000 0.000000 0.057180 0.000000 0.000000
# 5 0.000000 0.000000 0.000000 0.000000 0.185531 0.000000
# 6 0.000000 0.000000 0.000000 0.000000 0.000000 -0.172300
#
#
# Mechanical properties :
#
#
# Convention : Reuss Voigt Hill
#
# Bulk Modulus (GPa) = 58.59880 64.84474 61.72177
# Shear Modulus (GPa) = 35.60284 16.73575 26.16930
#
# Velocity S-wave (km/s) = 4.08802 2.80281 3.50483
# Velocity P-wave (km/s) = 7.05612 6.39628 6.73429
#
# Compressibility (1/GPa) = 0.01706520
#
# Stress axis : x y z
#
# Youngs Moduli (GPa) = 98.26393 96.29876 49.64962
#
# Poissons Ratio (x) = 0.18055 0.15569
# Poissons Ratio (y) = 0.18423 0.33801
# Poissons Ratio (z) = 0.30813 0.65559
#
# Static dielectric constant tensor:
#      x y z
#    x 1.930310 0.000000 0.000000 
#    y 0.000000 1.721400 0.000000 
#    z 0.000000 0.000000 1.770120 
# 
# From -- ./inp_files/19357.got.cif
#   From: 2010.05.17/outbox.cif.g08.bks.cpg/sg23_10_cif.got.tgz:19357.got - 2010.06.04 12:02:01.
