data_PCOD9331176
_publ_section_title
;
Structure prediction by ZEFSAII (Michael W. Deem and Ramdas Pophale) SiO2 
 PCOD9331176
Probable space group: I 2 2 2
;
_chemical_formula_sum "Si O2"
_cell_formula_units_Z 48
_cell_length_a 8.931714
_cell_length_b 29.519359
_cell_length_c 8.965786
_cell_angle_alpha 90.000000
_cell_angle_beta 90.000000
_cell_angle_gamma 90.000000
_cell_volume 2363.905437
_symmetry_space_group_name_H-M "I 2 2 2"
_symmetry_group_IT_number 23
_symmetry_cell_setting 'orthorhombic'
loop_
_space_group_symop_operation_xyz
x,y,z
-x,-y,z
x,-y,-z
-x,y,-z
1/2+x,1/2+y,1/2+z
1/2-x,1/2-y,1/2+z
1/2+x,1/2-y,1/2-z
1/2-x,1/2+y,1/2-z
loop_
_atom_site_type_symbol
_atom_site_label
_atom_site_fract_x
_atom_site_fract_y
_atom_site_fract_z
Si Si1 0.081315 0.718380 0.840952
Si Si2 0.427659 0.044070 0.334283
Si Si3 0.567347 0.137809 0.837650
Si Si4 0.351381 0.526572 0.345842
Si Si5 0.914305 0.867284 0.144531
Si Si6 0.063481 0.200536 0.663613
O O1 0.260636 0.712285 0.841350
O O2 0.019110 0.678832 0.736377
O O3 0.025490 0.765605 0.772574
O O4 0.000000 0.712979 0.000000
O O5 0.500000 0.046737 0.500000
O O6 0.453934 0.091894 0.256215
O O7 0.255978 0.031557 0.298103
O O8 0.500000 0.000000 0.258643
O O9 0.743678 0.149549 0.842292
O O10 0.500000 0.129637 0.000000
O O11 0.500000 0.500000 0.304578
O O12 0.297074 0.500000 0.500000
O O13 0.393018 0.578835 0.376879
O O14 0.016664 0.849750 0.280519
O O15 0.000000 0.849345 0.000000
O O16 0.000000 0.207458 0.500000
#
# Coordination Sequence:
#
# PCOD9331176 Si02
#       6
#     8   8   8   8   8   8
#     4  12  25  46  70  98 140 179 230 287 347 417
#     4  10  24  41  63  97 139 178 229 288 350 416
#     4  11  24  40  67  99 133 183 226 283 344 414
#     4  10  21  41  71 100 133 182 235 296 353 419
#     4  11  22  41  66 102 132 173 232 282 347 416
#     4  12  26  44  69  99 137 183 227 284 348 419
#
# _framework density 20.305381000000001
#
# number of rings (size 3 to 8) (size 9 to 14) (size 15 to 20)
#    0.000    1.000    1.667    5.500    4.667    2.667 
#    0.000    5.000    0.000    0.000    0.000    0.000 
#    0.000    0.000    0.000    0.000    0.000    0.000 
#
# Total GULP energy -133848.600412 kJ/mol
# GULP energy per Si atom -5577.025017 kJ/mol
# Density = 2.025917 g / cm^3
# Si number density = 20.305381 Si / 1000 Ang^3
#
#
#
# Elastic Constant Matrix: (Units=GPa)
#
#
# Indices 1 2 3 4 5 6 
#
# 1 164.8250 38.0768 72.0182 -0.0013 -0.0003 0.0000
# 2 38.0768 91.7893 32.8915 -0.0025 0.0002 -0.0004
# 3 72.0182 32.8915 116.5308 -0.0091 0.0006 -0.0019
# 4 -0.0013 -0.0025 -0.0091 -38.1345 -0.0005 0.0035
# 5 -0.0003 0.0002 0.0006 -0.0005 37.0208 -0.0004
# 6 0.0000 -0.0004 -0.0019 0.0035 -0.0004 2.3110
#
#
#
# Elastic Compliance Matrix: (Units=1/GPa)
#
#
# Indices 1 2 3 4 5 6 
#
# 1 0.008584 -0.001847 -0.004784 0.000001 0.000000 -0.000004
# 2 -0.001847 0.012518 -0.002392 0.000000 0.000000 0.000000
# 3 -0.004784 -0.002392 0.012213 -0.000003 0.000000 0.000010
# 4 0.000001 0.000000 -0.000003 -0.026223 0.000000 0.000040
# 5 0.000000 0.000000 0.000000 0.000000 0.027012 0.000004
# 6 -0.000004 0.000000 0.000010 0.000040 0.000004 0.432710
#
#
# Mechanical properties :
#
#
# Convention : Reuss Voigt Hill
#
# Bulk Modulus (GPa) = 65.48837 73.23536 69.36186
# Shear Modulus (GPa) = 10.20517 15.58337 12.89427
#
# Velocity S-wave (km/s) = 2.24427 2.77329 2.52269
# Velocity P-wave (km/s) = 6.24799 6.81177 6.53596
#
# Compressibility (1/GPa) = 0.01526989
#
# Stress axis : x y z
#
# Youngs Moduli (GPa) = 116.49805 79.88704 81.87995
#
# Poissons Ratio (x) = 0.14752 0.39169
# Poissons Ratio (y) = 0.21513 0.19585
# Poissons Ratio (z) = 0.55730 0.19109
#
# Static dielectric constant tensor:
#      x y z
#    x 1.793010 0.000010 0.000000 
#    y 0.000010 1.771900 0.000000 
#    z 0.000000 0.000000 1.750740 
# 
# From -- ./inp_files/7384.got.cif
#   From: 2010.05.17/outbox.cif.g08.bks.cpg/sg23_4_cif.got.tgz:7384.got - 2010.06.04 12:02:01.
