data_PCOD9331491
_publ_section_title
;
Structure prediction by ZEFSAII (Michael W. Deem and Ramdas Pophale) SiO2 
 PCOD9331491
Probable space group: I 2 2 2
;
_chemical_formula_sum "Si O2"
_cell_formula_units_Z 40
_cell_length_a 6.488120
_cell_length_b 16.080824
_cell_length_c 19.604107
_cell_angle_alpha 90.000000
_cell_angle_beta 90.000000
_cell_angle_gamma 90.000000
_cell_volume 2045.381091
_symmetry_space_group_name_H-M "I 2 2 2"
_symmetry_group_IT_number 23
_symmetry_cell_setting 'orthorhombic'
loop_
_space_group_symop_operation_xyz
x,y,z
-x,-y,z
x,-y,-z
-x,y,-z
1/2+x,1/2+y,1/2+z
1/2-x,1/2-y,1/2+z
1/2+x,1/2-y,1/2-z
1/2-x,1/2+y,1/2-z
loop_
_atom_site_type_symbol
_atom_site_label
_atom_site_fract_x
_atom_site_fract_y
_atom_site_fract_z
Si Si1 0.233374 0.149154 0.711552
Si Si2 0.500000 0.000000 0.710927
Si Si3 0.882090 0.921817 0.928804
Si Si4 0.500000 0.000000 0.000000
Si Si5 0.500000 0.500000 0.000000
Si Si6 0.340524 0.399654 0.874670
Si Si7 0.589151 0.256364 0.656741
O O1 0.379204 0.203736 0.662383
O O2 0.146432 0.212728 0.767341
O O3 0.051734 0.105947 0.668590
O O4 0.374216 0.075904 0.745687
O O5 0.330091 0.953164 0.665299
O O6 0.912609 0.839972 0.885914
O O7 0.651049 0.946624 0.951162
O O8 0.000000 0.000000 0.894597
O O9 0.000000 0.909419 0.000000
O O10 0.374850 0.559157 0.051796
O O11 0.255636 0.306094 0.874988
#
# Coordination Sequence:
#
# PCOD9331491 Si02
#       7
#     8   4   8   2   2   8   8
#     4  11  22  43  62  94 134 170 228 271 328 398
#     4  10  22  42  66  92 129 175 220 276 328 402
#     4   9  21  41  61  95 125 160 213 268 329 402
#     4   8  18  40  64  86 126 154 210 266 310 410
#     4  12  24  44  68  96 138 186 226 286 342 416
#     4  11  24  43  64  95 132 175 228 275 335 407
#     4  11  24  40  65  94 132 177 215 281 331 397
#
# _framework density 19.556256999999999
#
# number of rings (size 3 to 8) (size 9 to 14) (size 15 to 20)
#    0.000    1.800    4.000    0.000    0.000    8.400 
#    0.000    0.000    0.000    0.000    0.000    0.000 
#    0.000    0.000    0.000    0.000    0.000    0.000 
#
# Total GULP energy -111541.725145 kJ/mol
# GULP energy per Si atom -5577.086257 kJ/mol
# Density = 1.951175 g / cm^3
# Si number density = 19.556257 Si / 1000 Ang^3
#
#
#
# Elastic Constant Matrix: (Units=GPa)
#
#
# Indices 1 2 3 4 5 6 
#
# 1 123.7928 51.6748 24.1710 0.0000 0.0000 0.0000
# 2 51.6748 142.2897 25.2760 0.0000 0.0000 0.0000
# 3 24.1710 25.2760 46.5347 0.0000 0.0000 0.0000
# 4 0.0000 0.0000 0.0000 50.4294 0.0000 0.0000
# 5 0.0000 0.0000 0.0000 0.0000 6.4531 0.0000
# 6 0.0000 0.0000 0.0000 0.0000 0.0000 38.2475
#
#
#
# Elastic Compliance Matrix: (Units=1/GPa)
#
#
# Indices 1 2 3 4 5 6 
#
# 1 0.010032 -0.003008 -0.003577 0.000000 0.000000 0.000000
# 2 -0.003008 0.008680 -0.003152 0.000000 0.000000 0.000000
# 3 -0.003577 -0.003152 0.025060 0.000000 0.000000 0.000000
# 4 0.000000 0.000000 0.000000 0.019830 0.000000 0.000000
# 5 0.000000 0.000000 0.000000 0.000000 0.154965 0.000000
# 6 0.000000 0.000000 0.000000 0.000000 0.000000 0.026145
#
#
# Mechanical properties :
#
#
# Convention : Reuss Voigt Hill
#
# Bulk Modulus (GPa) = 41.15708 57.20675 49.18192
# Shear Modulus (GPa) = 18.36302 33.12569 25.74436
#
# Velocity S-wave (km/s) = 3.06761 4.12013 3.63219
# Velocity P-wave (km/s) = 5.79984 7.20762 6.54171
#
# Compressibility (1/GPa) = 0.02429716
#
# Stress axis : x y z
#
# Youngs Moduli (GPa) = 99.68077 115.20376 39.90478
#
# Poissons Ratio (x) = 0.34652 0.14274
# Poissons Ratio (y) = 0.29983 0.12580
# Poissons Ratio (z) = 0.35656 0.36318
#
# Static dielectric constant tensor:
#      x y z
#    x 1.700040 0.000000 0.000000 
#    y 0.000000 1.716940 0.000000 
#    z 0.000000 0.000000 1.667610 
# 
# From -- ./inp_files/19143.got.cif
#   From: 2010.05.17/outbox.cif.g08.bks.cpg/sg23_10_cif.got.tgz:19143.got - 2010.06.04 12:02:01.
