data_PCOD9331674
_publ_section_title
;
Structure prediction by ZEFSAII (Michael W. Deem and Ramdas Pophale) SiO2 
 PCOD9331674
Probable space group: I 2 2 2
;
_chemical_formula_sum "Si O2"
_cell_formula_units_Z 48
_cell_length_a 14.277099
_cell_length_b 7.689163
_cell_length_c 17.526234
_cell_angle_alpha 90.000000
_cell_angle_beta 90.000000
_cell_angle_gamma 90.000000
_cell_volume 1924.011415
_symmetry_space_group_name_H-M "I 2 2 2"
_symmetry_group_IT_number 23
_symmetry_cell_setting 'orthorhombic'
loop_
_space_group_symop_operation_xyz
x,y,z
-x,-y,z
x,-y,-z
-x,y,-z
1/2+x,1/2+y,1/2+z
1/2-x,1/2-y,1/2+z
1/2+x,1/2-y,1/2-z
1/2-x,1/2+y,1/2-z
loop_
_atom_site_type_symbol
_atom_site_label
_atom_site_fract_x
_atom_site_fract_y
_atom_site_fract_z
Si Si1 0.454774 0.305895 0.761632
Si Si2 0.721977 0.123818 0.928083
Si Si3 0.106539 0.291656 0.992028
Si Si4 0.267445 0.503395 0.262343
Si Si5 0.376937 0.187399 0.318854
Si Si6 0.531737 0.701459 0.080228
O O1 0.500000 0.500000 0.755950
O O2 0.345654 0.347688 0.754431
O O3 0.512851 0.195749 0.699563
O O4 0.482333 0.227019 0.843908
O O5 0.727686 0.027565 0.847408
O O6 0.642807 0.271359 0.918691
O O7 0.822636 0.203957 0.949566
O O8 0.697827 0.000000 0.000000
O O9 0.137840 0.257246 0.905494
O O10 0.107518 0.500000 0.000000
O O11 0.000000 0.229708 0.000000
O O12 0.327357 0.327402 0.263443
O O13 0.182697 0.517987 0.202486
O O14 0.500000 0.500000 0.079643
O O15 0.500000 0.779979 0.000000
#
# Coordination Sequence:
#
# PCOD9331674 Si02
#       6
#     8   8   8   8   8   8
#     4   9  20  39  66  96 138 182 233 283 350 429
#     4  12  25  46  72 108 148 192 248 307 370 443
#     4  11  27  45  71 106 147 199 248 300 366 438
#     4  11  24  42  70 105 140 190 236 295 367 429
#     4  11  23  45  68 104 141 183 240 294 363 434
#     4  10  23  41  69 103 137 192 241 296 363 435
#
# _framework density 24.947875
#
# number of rings (size 3 to 8) (size 9 to 14) (size 15 to 20)
#    0.000    1.333    3.333    1.000    7.000    0.667 
#    0.000    0.000    0.000    0.000    0.000    0.000 
#    0.000    0.000    0.000    0.000    0.000    0.000 
#
# Total GULP energy -134326.354431 kJ/mol
# GULP energy per Si atom -5596.931435 kJ/mol
# Density = 2.489109 g / cm^3
# Si number density = 24.947875 Si / 1000 Ang^3
#
#
#
# Elastic Constant Matrix: (Units=GPa)
#
#
# Indices 1 2 3 4 5 6 
#
# 1 155.7607 26.4757 3.6459 0.0000 0.0000 0.0000
# 2 26.4757 71.8907 -16.2169 0.0000 0.0000 0.0000
# 3 3.6459 -16.2169 89.5078 0.0000 0.0000 0.0000
# 4 0.0000 0.0000 0.0000 6.6656 0.0000 0.0000
# 5 0.0000 0.0000 0.0000 0.0000 35.6175 0.0000
# 6 0.0000 0.0000 0.0000 0.0000 0.0000 33.3926
#
#
#
# Elastic Compliance Matrix: (Units=1/GPa)
#
#
# Indices 1 2 3 4 5 6 
#
# 1 0.006900 -0.002715 -0.000773 0.000000 0.000000 0.000000
# 2 -0.002715 0.015571 0.002932 0.000000 0.000000 0.000000
# 3 -0.000773 0.002932 0.011735 0.000000 0.000000 0.000000
# 4 0.000000 0.000000 0.000000 0.150025 0.000000 0.000000
# 5 0.000000 0.000000 0.000000 0.000000 0.028076 0.000000
# 6 0.000000 0.000000 0.000000 0.000000 0.000000 0.029947
#
#
# Mechanical properties :
#
#
# Convention : Reuss Voigt Hill
#
# Bulk Modulus (GPa) = 30.21809 38.32987 34.27398
# Shear Modulus (GPa) = 19.65424 35.35210 27.50317
#
# Velocity S-wave (km/s) = 2.80984 3.76844 3.32388
# Velocity P-wave (km/s) = 4.76086 5.85937 5.33844
#
# Compressibility (1/GPa) = 0.03309276
#
# Stress axis : x y z
#
# Youngs Moduli (GPa) = 144.93266 64.22044 85.21605
#
# Poissons Ratio (x) = 0.17438 0.06587
# Poissons Ratio (y) = 0.39355 -0.24984
# Poissons Ratio (z) = 0.11204 -0.18828
#
# Static dielectric constant tensor:
#      x y z
#    x 1.969730 0.000000 0.000000 
#    y 0.000000 2.057280 0.000000 
#    z 0.000000 0.000000 1.955630 
# 
# From -- ./inp_files/24732.got.cif
#   From: 2010.05.17/outbox.cif.g08.bks.cpg/sg23_13_cif.got.tgz:24732.got - 2010.06.04 12:02:01.
