data_PCOD9331290
_publ_section_title
;
Structure prediction by ZEFSAII (Michael W. Deem and Ramdas Pophale) SiO2 
 PCOD9331290
Probable space group: I 2 2 2
;
_chemical_formula_sum "Si O2"
_cell_formula_units_Z 64
_cell_length_a 21.314664
_cell_length_b 8.677139
_cell_length_c 17.643115
_cell_angle_alpha 90.000000
_cell_angle_beta 90.000000
_cell_angle_gamma 90.000000
_cell_volume 3263.099452
_symmetry_space_group_name_H-M "I 2 2 2"
_symmetry_group_IT_number 23
_symmetry_cell_setting 'orthorhombic'
loop_
_space_group_symop_operation_xyz
x,y,z
-x,-y,z
x,-y,-z
-x,y,-z
1/2+x,1/2+y,1/2+z
1/2-x,1/2-y,1/2+z
1/2+x,1/2-y,1/2-z
1/2-x,1/2+y,1/2-z
loop_
_atom_site_type_symbol
_atom_site_label
_atom_site_fract_x
_atom_site_fract_y
_atom_site_fract_z
Si Si1 0.602630 0.403993 0.427909
Si Si2 0.227633 0.153696 0.681039
Si Si3 0.057401 0.409607 0.788789
Si Si4 0.356332 0.833086 0.221345
Si Si5 0.655028 0.686824 0.332166
Si Si6 0.759095 0.832041 0.040293
Si Si7 0.781407 0.822789 0.399909
Si Si8 0.533735 0.338674 0.288179
O O1 0.578795 0.500000 0.500000
O O2 0.630600 0.531983 0.370068
O O3 0.665005 0.310598 0.453573
O O4 0.550601 0.317336 0.377975
O O5 0.293888 0.147270 0.727098
O O6 0.173446 0.169954 0.743912
O O7 0.233107 0.300750 0.624864
O O8 0.218109 0.994784 0.634483
O O9 0.099742 0.518826 0.736420
O O10 0.103624 0.318748 0.842878
O O11 0.000000 0.500000 0.827318
O O12 0.016170 0.276987 0.750119
O O13 0.334737 0.783472 0.138230
O O14 0.399691 0.693020 0.250110
O O15 0.717430 0.743984 0.371602
O O16 0.724476 0.704454 0.989007
O O17 0.749981 0.000000 0.000000
O O18 0.500000 0.500000 0.281619
#
# Coordination Sequence:
#
# PCOD9331290 Si02
#       8
#     8   8   8   8   8   8   8   8
#     4  11  21  37  56  86 125 166 212 260 311 373
#     4  11  23  35  63  88 125 158 210 263 334 377
#     4  10  22  38  56  85 123 160 217 265 308 368
#     4  10  22  37  60  90 121 158 209 272 314 376
#     4  11  21  36  61  91 118 165 216 265 314 387
#     4  11  23  38  58  89 128 165 200 251 336 390
#     4  11  22  37  59  89 126 164 202 262 336 385
#     4  11  21  37  60  84 121 166 221 260 312 372
#
# _framework density 19.613254999999999
#
# number of rings (size 3 to 8) (size 9 to 14) (size 15 to 20)
#    0.000    1.250    6.250    1.125    3.500    0.250 
#    0.000    0.000    0.000    3.750    0.000    6.125 
#    3.750    0.000    0.000    0.000    0.000    0.000 
#
# Total GULP energy -178275.767555 kJ/mol
# GULP energy per Si atom -5571.117736 kJ/mol
# Density = 1.956861 g / cm^3
# Si number density = 19.613255 Si / 1000 Ang^3
#
#
#
# Elastic Constant Matrix: (Units=GPa)
#
#
# Indices 1 2 3 4 5 6 
#
# 1 85.9261 31.0593 34.1369 0.0000 0.0000 0.0000
# 2 31.0593 69.6059 33.3385 0.0000 0.0000 0.0000
# 3 34.1369 33.3385 80.3205 0.0000 0.0000 0.0000
# 4 0.0000 0.0000 0.0000 27.6536 0.0000 0.0000
# 5 0.0000 0.0000 0.0000 0.0000 13.3472 0.0000
# 6 0.0000 0.0000 0.0000 0.0000 0.0000 35.8525
#
#
#
# Elastic Compliance Matrix: (Units=1/GPa)
#
#
# Indices 1 2 3 4 5 6 
#
# 1 0.015082 -0.004568 -0.004514 0.000000 0.000000 0.000000
# 2 -0.004568 0.019315 -0.006076 0.000000 0.000000 0.000000
# 3 -0.004514 -0.006076 0.016890 0.000000 0.000000 0.000000
# 4 0.000000 0.000000 0.000000 0.036162 0.000000 0.000000
# 5 0.000000 0.000000 0.000000 0.000000 0.074922 0.000000
# 6 0.000000 0.000000 0.000000 0.000000 0.000000 0.027892
#
#
# Mechanical properties :
#
#
# Convention : Reuss Voigt Hill
#
# Bulk Modulus (GPa) = 47.68168 48.10244 47.89206
# Shear Modulus (GPa) = 21.97128 24.52518 23.24823
#
# Velocity S-wave (km/s) = 3.35061 3.53999 3.44660
# Velocity P-wave (km/s) = 6.27156 6.42553 6.34901
#
# Compressibility (1/GPa) = 0.02097241
#
# Stress axis : x y z
#
# Youngs Moduli (GPa) = 66.30224 51.77359 59.20493
#
# Poissons Ratio (x) = 0.23650 0.26726
# Poissons Ratio (y) = 0.30286 0.35971
# Poissons Ratio (z) = 0.29930 0.31456
#
# Static dielectric constant tensor:
#      x y z
#    x 1.736490 0.000000 0.000000 
#    y 0.000000 1.790650 0.000000 
#    z 0.000000 0.000000 1.741100 
# 
# From -- ./inp_files/25271.got.cif
#   From: 2010.05.17/outbox.cif.g08.bks.cpg/sg23_13_cif.got.tgz:25271.got - 2010.06.04 12:02:01.
