data_PCOD9331197
_publ_section_title
;
Structure prediction by ZEFSAII (Michael W. Deem and Ramdas Pophale) SiO2 
 PCOD9331197
Probable space group: I 2 2 2
;
_chemical_formula_sum "Si O2"
_cell_formula_units_Z 44
_cell_length_a 31.345128
_cell_length_b 8.096914
_cell_length_c 8.187980
_cell_angle_alpha 90.000000
_cell_angle_beta 90.000000
_cell_angle_gamma 90.000000
_cell_volume 2078.099545
_symmetry_space_group_name_H-M "I 2 2 2"
_symmetry_group_IT_number 23
_symmetry_cell_setting 'orthorhombic'
loop_
_space_group_symop_operation_xyz
x,y,z
-x,-y,z
x,-y,-z
-x,y,-z
1/2+x,1/2+y,1/2+z
1/2-x,1/2-y,1/2+z
1/2+x,1/2-y,1/2-z
1/2-x,1/2+y,1/2-z
loop_
_atom_site_type_symbol
_atom_site_label
_atom_site_fract_x
_atom_site_fract_y
_atom_site_fract_z
Si Si1 0.500000 0.500000 0.000000
Si Si2 0.702589 0.712033 0.843694
Si Si3 0.126513 0.377143 0.848226
Si Si4 0.846664 0.500000 0.500000
Si Si5 0.207800 0.200500 0.974519
Si Si6 0.000000 0.500000 0.500000
Si Si7 0.564264 0.267800 0.849121
Si Si8 0.135913 0.000000 0.500000
O O1 0.530857 0.589867 0.125011
O O2 0.701748 0.768342 0.657431
O O3 0.669985 0.558971 0.862708
O O4 0.751870 0.706101 0.894775
O O5 0.683445 0.845713 0.966130
O O6 0.128877 0.470193 0.671280
O O7 0.083908 0.270407 0.826142
O O8 0.124823 0.500000 0.000000
O O9 0.166546 0.256554 0.873842
O O10 0.213579 0.000000 0.000000
O O11 0.965814 0.384577 0.405435
O O12 0.605029 0.345621 0.952213
#
# Coordination Sequence:
#
# PCOD9331197 Si02
#       8
#     2   8   8   4   8   2   8   4
#     4   8  20  42  72 114 134 178 224 300 372 448
#     4  12  26  42  66  96 147 196 244 298 345 400
#     4  12  25  45  71 104 142 185 244 291 350 433
#     4  12  23  46  66 101 136 192 238 295 346 409
#     4  12  28  43  63  99 144 197 251 296 346 407
#     4  10  22  42  82 106 140 176 224 302 374 448
#     4  10  21  42  71 108 141 175 236 288 368 439
#     4  11  24  39  74 102 142 192 240 289 350 427
#
# _framework density 21.173193999999999
#
# number of rings (size 3 to 8) (size 9 to 14) (size 15 to 20)
#    0.000    0.727    4.545    2.727    3.818    0.000 
#    0.000    0.455    0.000    2.182    0.000    0.000 
#    0.000    0.000    0.000    0.000    0.000    0.000 
#
# Total GULP energy -122527.849479 kJ/mol
# GULP energy per Si atom -5569.447704 kJ/mol
# Density = 2.112500 g / cm^3
# Si number density = 21.173194 Si / 1000 Ang^3
#
#
#
# Elastic Constant Matrix: (Units=GPa)
#
#
# Indices 1 2 3 4 5 6 
#
# 1 185.8285 65.2488 49.3468 0.0000 0.0000 0.0000
# 2 65.2488 81.0301 29.4730 0.0000 0.0000 0.0000
# 3 49.3468 29.4730 117.9622 0.0000 0.0000 0.0000
# 4 0.0000 0.0000 0.0000 -2.5429 0.0000 0.0000
# 5 0.0000 0.0000 0.0000 0.0000 34.2628 0.0000
# 6 0.0000 0.0000 0.0000 0.0000 0.0000 -753.5951
#
#
#
# Elastic Compliance Matrix: (Units=1/GPa)
#
#
# Indices 1 2 3 4 5 6 
#
# 1 0.007864 -0.005649 -0.001878 0.000000 0.000000 0.000000
# 2 -0.005649 0.017633 -0.002042 0.000000 0.000000 0.000000
# 3 -0.001878 -0.002042 0.009773 0.000000 0.000000 0.000000
# 4 0.000000 0.000000 0.000000 -0.393252 0.000000 0.000000
# 5 0.000000 0.000000 0.000000 0.000000 0.029186 0.000000
# 6 0.000000 0.000000 0.000000 0.000000 0.000000 -0.001327
#
#
# Mechanical properties :
#
#
# Convention : Reuss Voigt Hill
#
# Bulk Modulus (GPa) = 61.99429 74.77309 68.38369
# Shear Modulus (GPa) = -16.36088 -128.32489 -72.34288
#
# Velocity S-wave (km/s) = -2.78279 -7.79351 -5.85161
# Velocity P-wave (km/s) = 4.36095 6.75229 3.64524
#
# Compressibility (1/GPa) = 0.01613052
#
# Stress axis : x y z
#
# Youngs Moduli (GPa) = 127.16968 56.71271 102.31977
#
# Poissons Ratio (x) = 0.32036 0.19217
# Poissons Ratio (y) = 0.71837 0.20899
# Poissons Ratio (z) = 0.23884 0.11583
#
# Static dielectric constant tensor:
#      x y z
#    x 1.826000 0.000000 0.000000 
#    y 0.000000 1.912130 0.000000 
#    z 0.000000 0.000000 2.875440 
# 
# From -- ./inp_files/13315.got.cif
#   From: 2010.05.17/outbox.cif.g08.bks.cpg/sg23_7_cif.got.tgz:13315.got - 2010.06.04 12:02:01.
