data_PCOD9331447
_publ_section_title
;
Structure prediction by ZEFSAII (Michael W. Deem and Ramdas Pophale) SiO2 
 PCOD9331447
Probable space group: I 2 2 2
;
_chemical_formula_sum "Si O2"
_cell_formula_units_Z 48
_cell_length_a 5.331219
_cell_length_b 13.911472
_cell_length_c 29.879261
_cell_angle_alpha 90.000000
_cell_angle_beta 90.000000
_cell_angle_gamma 90.000000
_cell_volume 2215.998495
_symmetry_space_group_name_H-M "I 2 2 2"
_symmetry_group_IT_number 23
_symmetry_cell_setting 'orthorhombic'
loop_
_space_group_symop_operation_xyz
x,y,z
-x,-y,z
x,-y,-z
-x,y,-z
1/2+x,1/2+y,1/2+z
1/2-x,1/2-y,1/2+z
1/2+x,1/2-y,1/2-z
1/2-x,1/2+y,1/2-z
loop_
_atom_site_type_symbol
_atom_site_label
_atom_site_fract_x
_atom_site_fract_y
_atom_site_fract_z
Si Si1 0.395948 0.104222 0.656293
Si Si2 0.741000 0.561236 0.250917
Si Si3 0.487700 0.386276 0.586899
Si Si4 0.772234 0.214382 0.173506
Si Si5 0.084420 0.763750 0.397311
Si Si6 0.757338 0.742259 0.972426
O O1 0.214887 0.086943 0.698678
O O2 0.594895 0.182256 0.674975
O O3 0.273985 0.151086 0.612583
O O4 0.500000 0.000000 0.645397
O O5 0.500000 0.500000 0.265245
O O6 0.744793 0.656481 0.280958
O O7 0.000000 0.500000 0.256030
O O8 0.500000 0.500000 0.586715
O O9 0.587999 0.348702 0.635003
O O10 0.225554 0.328176 0.581376
O O11 0.655611 0.345692 0.546302
O O12 0.501872 0.229674 0.151491
O O13 0.845172 0.801009 0.425302
O O14 0.500000 0.740566 0.000000
O O15 0.000000 0.704101 0.000000
#
# Coordination Sequence:
#
# PCOD9331447 Si02
#       6
#     8   8   8   8   8   8
#     4  10  25  43  67  99 139 180 246 293 349 410
#     4  11  27  43  67 103 142 187 236 292 344 408
#     4  10  22  41  63  99 141 183 228 269 332 414
#     4  10  24  39  68  95 140 187 233 279 346 400
#     4  10  23  42  68  97 140 187 228 287 352 410
#     4  11  22  43  66 100 138 178 222 275 344 425
#
# _framework density 21.660663
#
# number of rings (size 3 to 8) (size 9 to 14) (size 15 to 20)
#    0.000    1.667    1.667    0.500   14.000    2.333 
#    3.000    0.000    0.000    0.000    0.000   33.833 
#    0.000    0.000    0.000    0.000    0.000    0.000 
#
# Total GULP energy -133842.958429 kJ/mol
# GULP energy per Si atom -5576.789935 kJ/mol
# Density = 2.161136 g / cm^3
# Si number density = 21.660663 Si / 1000 Ang^3
#
#
#
# Elastic Constant Matrix: (Units=GPa)
#
#
# Indices 1 2 3 4 5 6 
#
# 1 123.2305 50.9433 29.7430 0.0000 0.0000 0.0000
# 2 50.9433 107.1169 31.3029 0.0000 0.0000 0.0000
# 3 29.7430 31.3029 54.2902 0.0000 0.0000 0.0000
# 4 0.0000 0.0000 0.0000 3.0104 0.0000 0.0000
# 5 0.0000 0.0000 0.0000 0.0000 34.6389 0.0000
# 6 0.0000 0.0000 0.0000 0.0000 0.0000 15.7309
#
#
#
# Elastic Compliance Matrix: (Units=1/GPa)
#
#
# Indices 1 2 3 4 5 6 
#
# 1 0.010625 -0.004031 -0.003497 0.000000 0.000000 0.000000
# 2 -0.004031 0.012757 -0.005147 0.000000 0.000000 0.000000
# 3 -0.003497 -0.005147 0.023303 0.000000 0.000000 0.000000
# 4 0.000000 0.000000 0.000000 0.332178 0.000000 0.000000
# 5 0.000000 0.000000 0.000000 0.000000 0.028869 0.000000
# 6 0.000000 0.000000 0.000000 0.000000 0.000000 0.063569
#
#
# Mechanical properties :
#
#
# Convention : Reuss Voigt Hill
#
# Bulk Modulus (GPa) = 46.87083 56.51290 51.69187
# Shear Modulus (GPa) = 9.92530 22.18594 16.05562
#
# Velocity S-wave (km/s) = 2.14292 3.20386 2.72551
# Velocity P-wave (km/s) = 5.27338 6.31134 5.81556
#
# Compressibility (1/GPa) = 0.02133523
#
# Stress axis : x y z
#
# Youngs Moduli (GPa) = 94.11378 78.38849 42.91326
#
# Poissons Ratio (x) = 0.31602 0.15005
# Poissons Ratio (y) = 0.37942 0.22087
# Poissons Ratio (z) = 0.32909 0.40345
#
# Static dielectric constant tensor:
#      x y z
#    x 1.895530 0.000000 0.000000 
#    y 0.000000 1.757740 0.000000 
#    z 0.000000 0.000000 1.871180 
# 
# From -- ./inp_files/29930.got.cif
#   From: 2010.05.17/outbox.cif.g08.bks.cpg/sg23_15_cif.got.tgz:29930.got - 2010.06.04 12:02:01.
