data_PCOD9331269
_publ_section_title
;
Structure prediction by ZEFSAII (Michael W. Deem and Ramdas Pophale) SiO2 
 PCOD9331269
Probable space group: I 2 2 2
;
_chemical_formula_sum "Si O2"
_cell_formula_units_Z 30
_cell_length_a 5.885773
_cell_length_b 20.560248
_cell_length_c 11.277776
_cell_angle_alpha 90.000000
_cell_angle_beta 90.000000
_cell_angle_gamma 90.000000
_cell_volume 1364.756972
_symmetry_space_group_name_H-M "I 2 2 2"
_symmetry_group_IT_number 23
_symmetry_cell_setting 'orthorhombic'
loop_
_space_group_symop_operation_xyz
x,y,z
-x,-y,z
x,-y,-z
-x,y,-z
1/2+x,1/2+y,1/2+z
1/2-x,1/2-y,1/2+z
1/2+x,1/2-y,1/2-z
1/2-x,1/2+y,1/2-z
loop_
_atom_site_type_symbol
_atom_site_label
_atom_site_fract_x
_atom_site_fract_y
_atom_site_fract_z
Si Si1 0.871090 0.773018 0.613909
Si Si2 0.000000 0.819271 0.000000
Si Si3 0.500000 0.500000 0.000000
Si Si4 0.391320 0.071122 0.378867
Si Si5 0.158826 0.651195 0.694246
O O1 0.649256 0.730577 0.579378
O O2 0.829490 0.831796 0.700930
O O3 0.000000 0.798681 0.500000
O O4 0.039454 0.719377 0.666319
O O5 0.817142 0.860958 0.922043
O O6 0.640511 0.451141 0.084774
O O7 0.500000 0.102576 0.500000
O O8 0.465473 0.107522 0.258230
O O9 0.500000 0.000000 0.366943
#
# Coordination Sequence:
#
# PCOD9331269 Si02
#       5
#     8   4   2   8   8
#     4  10  22  36  57  91 129 172 212 254 324 387
#     4  10  22  40  54  93 135 172 220 262 316 396
#     4   8  18  44  56  94 132 162 222 280 338 396
#     4   9  21  39  62  98 127 165 220 276 335 391
#     4  11  21  39  62  91 137 171 214 268 323 395
#
# _framework density 21.981935
#
# number of rings (size 3 to 8) (size 9 to 14) (size 15 to 20)
#    0.000    2.400    2.667    0.000    1.867    4.267 
#    9.600    0.000    0.000    8.800    0.000    0.000 
#    0.000    0.000    0.000    0.000    0.000    0.000 
#
# Total GULP energy -83521.836846 kJ/mol
# GULP energy per Si atom -5568.122456 kJ/mol
# Density = 2.193190 g / cm^3
# Si number density = 21.981935 Si / 1000 Ang^3
#
#
#
# Elastic Constant Matrix: (Units=GPa)
#
#
# Indices 1 2 3 4 5 6 
#
# 1 98.3592 19.5779 41.8614 0.0000 0.0000 0.0000
# 2 19.5779 45.0238 28.4617 0.0000 0.0000 0.0000
# 3 41.8614 28.4617 110.3699 0.0000 0.0000 0.0000
# 4 0.0000 0.0000 0.0000 9.7369 0.0000 0.0000
# 5 0.0000 0.0000 0.0000 0.0000 37.7251 0.0000
# 6 0.0000 0.0000 0.0000 0.0000 0.0000 20.4544
#
#
#
# Elastic Compliance Matrix: (Units=1/GPa)
#
#
# Indices 1 2 3 4 5 6 
#
# 1 0.012432 -0.002898 -0.003968 0.000000 0.000000 0.000000
# 2 -0.002898 0.027212 -0.005918 0.000000 0.000000 0.000000
# 3 -0.003968 -0.005918 0.012092 0.000000 0.000000 0.000000
# 4 0.000000 0.000000 0.000000 0.102702 0.000000 0.000000
# 5 0.000000 0.000000 0.000000 0.000000 0.026508 0.000000
# 6 0.000000 0.000000 0.000000 0.000000 0.000000 0.048889
#
#
# Mechanical properties :
#
#
# Convention : Reuss Voigt Hill
#
# Bulk Modulus (GPa) = 38.21495 48.17275 43.19385
# Shear Modulus (GPa) = 18.93041 24.50673 21.71857
#
# Velocity S-wave (km/s) = 2.93777 3.34257 3.14669
# Velocity P-wave (km/s) = 5.37864 6.07119 5.73538
#
# Compressibility (1/GPa) = 0.02616777
#
# Stress axis : x y z
#
# Youngs Moduli (GPa) = 80.43496 36.74907 82.70162
#
# Poissons Ratio (x) = 0.10648 0.32818
# Poissons Ratio (y) = 0.23306 0.48944
# Poissons Ratio (z) = 0.31918 0.21749
#
# Static dielectric constant tensor:
#      x y z
#    x 2.119910 0.000000 0.000000 
#    y 0.000000 1.762020 0.000000 
#    z 0.000000 0.000000 2.012260 
# 
# From -- ./inp_files/1468.got.cif
#   From: 2010.05.17/outbox.cif.g08.bks.cpg/sg23_1_cif.got.tgz:1468.got - 2010.06.04 12:02:01.
