data_PCOD9331358
_publ_section_title
;
Structure prediction by ZEFSAII (Michael W. Deem and Ramdas Pophale) SiO2 
 PCOD9331358
Probable space group: I 2 2 2
;
_chemical_formula_sum "Si O2"
_cell_formula_units_Z 56
_cell_length_a 10.456446
_cell_length_b 14.517237
_cell_length_c 18.145811
_cell_angle_alpha 90.000000
_cell_angle_beta 90.000000
_cell_angle_gamma 90.000000
_cell_volume 2754.510607
_symmetry_space_group_name_H-M "I 2 2 2"
_symmetry_group_IT_number 23
_symmetry_cell_setting 'orthorhombic'
loop_
_space_group_symop_operation_xyz
x,y,z
-x,-y,z
x,-y,-z
-x,y,-z
1/2+x,1/2+y,1/2+z
1/2-x,1/2-y,1/2+z
1/2+x,1/2-y,1/2-z
1/2-x,1/2+y,1/2-z
loop_
_atom_site_type_symbol
_atom_site_label
_atom_site_fract_x
_atom_site_fract_y
_atom_site_fract_z
Si Si1 0.566002 0.095811 0.783451
Si Si2 0.739330 0.300301 0.891083
Si Si3 0.034441 0.215529 0.356714
Si Si4 0.968912 0.107973 0.083273
Si Si5 0.006677 0.606659 0.109303
Si Si6 0.782118 0.752381 0.949462
Si Si7 0.662819 0.658378 0.709589
O O1 0.509256 0.181848 0.829651
O O2 0.542424 0.113507 0.696287
O O3 0.719480 0.087908 0.793813
O O4 0.500000 0.000000 0.803626
O O5 0.593446 0.332254 0.887783
O O6 0.859372 0.365587 0.900128
O O7 0.765674 0.252742 0.812088
O O8 0.754320 0.235813 0.963463
O O9 0.149056 0.221682 0.414183
O O10 0.091979 0.163242 0.286399
O O11 0.829329 0.153197 0.089907
O O12 0.058410 0.148288 0.146105
O O13 0.000000 0.000000 0.085757
O O14 0.000000 0.139033 0.000000
O O15 0.000000 0.500000 0.087362
O O16 0.107125 0.675216 0.068178
#
# Coordination Sequence:
#
# PCOD9331358 Si02
#       7
#     8   8   8   8   8   8   8
#     4  10  22  39  63  94 128 160 214 266 312 383
#     4  11  23  41  63  91 130 164 210 266 315 382
#     4  11  24  40  67  92 127 171 207 261 334 379
#     4  11  23  39  64  94 127 167 212 262 313 380
#     4  11  22  41  69  93 119 165 216 259 316 382
#     4  12  22  43  65  94 127 170 211 262 321 388
#     4  11  21  42  61  93 124 171 209 264 314 380
#
# _framework density 20.330290000000002
#
# number of rings (size 3 to 8) (size 9 to 14) (size 15 to 20)
#    0.000    1.000    5.714    0.857    4.000    1.143 
#    2.571    0.714    0.000    2.571    0.000    0.000 
#    0.000    0.000    0.000    0.000    0.000    0.000 
#
# Total GULP energy -156072.078788 kJ/mol
# GULP energy per Si atom -5574.002814 kJ/mol
# Density = 2.028402 g / cm^3
# Si number density = 20.330290 Si / 1000 Ang^3
#
#
#
# Elastic Constant Matrix: (Units=GPa)
#
#
# Indices 1 2 3 4 5 6 
#
# 1 162.0333 11.8786 23.2166 0.0000 0.0000 0.0000
# 2 11.8786 36.4821 -15.0453 0.0000 0.0000 0.0000
# 3 23.2166 -15.0453 60.1682 0.0000 0.0000 0.0000
# 4 0.0000 0.0000 0.0000 10.4770 0.0000 0.0000
# 5 0.0000 0.0000 0.0000 0.0000 25.8647 0.0000
# 6 0.0000 0.0000 0.0000 0.0000 0.0000 26.5748
#
#
#
# Elastic Compliance Matrix: (Units=1/GPa)
#
#
# Indices 1 2 3 4 5 6 
#
# 1 0.006968 -0.003766 -0.003630 0.000000 0.000000 0.000000
# 2 -0.003766 0.032598 0.009604 0.000000 0.000000 0.000000
# 3 -0.003630 0.009604 0.020422 0.000000 0.000000 0.000000
# 4 0.000000 0.000000 0.000000 0.095447 0.000000 0.000000
# 5 0.000000 0.000000 0.000000 0.000000 0.038663 0.000000
# 6 0.000000 0.000000 0.000000 0.000000 0.000000 0.037630
#
#
# Mechanical properties :
#
#
# Convention : Reuss Voigt Hill
#
# Bulk Modulus (GPa) = 15.52691 33.19816 24.36253
# Shear Modulus (GPa) = 20.09816 28.49221 24.29519
#
# Velocity S-wave (km/s) = 3.14758 3.74768 3.46066
# Velocity P-wave (km/s) = 4.56767 5.92382 5.28939
#
# Compressibility (1/GPa) = 0.06440433
#
# Stress axis : x y z
#
# Youngs Moduli (GPa) = 143.51725 30.67699 48.96569
#
# Poissons Ratio (x) = 0.11553 0.17776
# Poissons Ratio (y) = 0.54047 -0.47028
# Poissons Ratio (z) = 0.52101 -0.29463
#
# Static dielectric constant tensor:
#      x y z
#    x 1.766650 0.000000 0.000000 
#    y 0.000000 1.783140 0.000000 
#    z 0.000000 0.000000 1.723130 
# 
# From -- ./inp_files/26253.got.cif
#   From: 2010.05.17/outbox.cif.g08.bks.cpg/sg23_14_cif.got.tgz:26253.got - 2010.06.04 12:02:01.
