data_PCOD9331498
_publ_section_title
;
Structure prediction by ZEFSAII (Michael W. Deem and Ramdas Pophale) SiO2 
 PCOD9331498
Probable space group: I 2 2 2
;
_chemical_formula_sum "Si O2"
_cell_formula_units_Z 52
_cell_length_a 15.001038
_cell_length_b 18.735197
_cell_length_c 8.225972
_cell_angle_alpha 90.000000
_cell_angle_beta 90.000000
_cell_angle_gamma 90.000000
_cell_volume 2311.888061
_symmetry_space_group_name_H-M "I 2 2 2"
_symmetry_group_IT_number 23
_symmetry_cell_setting 'orthorhombic'
loop_
_space_group_symop_operation_xyz
x,y,z
-x,-y,z
x,-y,-z
-x,y,-z
1/2+x,1/2+y,1/2+z
1/2-x,1/2-y,1/2+z
1/2+x,1/2-y,1/2-z
1/2-x,1/2+y,1/2-z
loop_
_atom_site_type_symbol
_atom_site_label
_atom_site_fract_x
_atom_site_fract_y
_atom_site_fract_z
Si Si1 0.486073 0.081254 0.696990
Si Si2 0.625752 0.648619 0.113068
Si Si3 0.213132 0.425819 0.279931
Si Si4 0.236728 0.916766 0.843386
Si Si5 0.445160 0.626636 0.246601
Si Si6 0.500000 0.256442 0.500000
Si Si7 0.627376 0.806843 0.256907
O O1 0.500000 0.082151 0.500000
O O2 0.385149 0.100038 0.738352
O O3 0.553995 0.133397 0.790323
O O4 0.500000 0.000000 0.750683
O O5 0.717268 0.611957 0.161413
O O6 0.547399 0.605986 0.210900
O O7 0.628106 0.732297 0.160880
O O8 0.597401 0.643521 0.927333
O O9 0.221596 0.511735 0.266726
O O10 0.237470 0.410125 0.467460
O O11 0.129690 0.921439 0.830557
O O12 0.279123 0.847691 0.754924
O O13 0.459393 0.695373 0.358322
O O14 0.414795 0.215066 0.429907
#
# Coordination Sequence:
#
# PCOD9331498 Si02
#       7
#     8   8   8   8   8   4   8
#     4  11  24  43  71 100 140 182 226 281 342 408
#     4  10  25  43  71 102 138 179 237 284 350 412
#     4  11  26  47  68 102 140 185 230 290 345 423
#     4  11  25  43  70 101 139 185 234 281 353 411
#     4  10  23  44  68 101 138 182 228 292 348 413
#     4  10  22  42  67  99 144 174 232 288 350 404
#     4  11  23  43  67 104 131 188 226 283 344 414
#
# _framework density 22.492436999999999
#
# number of rings (size 3 to 8) (size 9 to 14) (size 15 to 20)
#    0.000    1.385    2.308    1.846    2.154   11.692 
#    0.000    3.077    0.000    0.000    0.000    0.000 
#    0.000    0.000    0.000    0.000    0.000    0.000 
#
# Total GULP energy -145229.798525 kJ/mol
# GULP energy per Si atom -5585.761482 kJ/mol
# Density = 2.244124 g / cm^3
# Si number density = 22.492437 Si / 1000 Ang^3
#
#
#
# Elastic Constant Matrix: (Units=GPa)
#
#
# Indices 1 2 3 4 5 6 
#
# 1 132.7426 11.3812 13.5104 0.0000 0.0000 0.0000
# 2 11.3812 30.7977 15.6254 0.0000 0.0000 0.0000
# 3 13.5104 15.6254 65.9572 0.0000 0.0000 0.0000
# 4 0.0000 0.0000 0.0000 6.7447 0.0000 0.0000
# 5 0.0000 0.0000 0.0000 0.0000 33.8715 0.0000
# 6 0.0000 0.0000 0.0000 0.0000 0.0000 39.0451
#
#
#
# Elastic Compliance Matrix: (Units=1/GPa)
#
#
# Indices 1 2 3 4 5 6 
#
# 1 0.007843 -0.002368 -0.001046 0.000000 0.000000 0.000000
# 2 -0.002368 0.037621 -0.008427 0.000000 0.000000 0.000000
# 3 -0.001046 -0.008427 0.017372 0.000000 0.000000 0.000000
# 4 0.000000 0.000000 0.000000 0.148264 0.000000 0.000000
# 5 0.000000 0.000000 0.000000 0.000000 0.029523 0.000000
# 6 0.000000 0.000000 0.000000 0.000000 0.000000 0.025611
#
#
# Mechanical properties :
#
#
# Convention : Reuss Voigt Hill
#
# Bulk Modulus (GPa) = 25.54022 34.50350 30.02186
# Shear Modulus (GPa) = 16.50346 28.53095 22.51721
#
# Velocity S-wave (km/s) = 2.71169 3.56542 3.16745
# Velocity P-wave (km/s) = 4.60261 5.68533 5.17238
#
# Compressibility (1/GPa) = 0.03915393
#
# Stress axis : x y z
#
# Youngs Moduli (GPa) = 127.50537 26.58114 57.56398
#
# Poissons Ratio (x) = 0.06294 0.06019
# Poissons Ratio (y) = 0.30191 0.48511
# Poissons Ratio (z) = 0.13331 0.22401
#
# Static dielectric constant tensor:
#      x y z
#    x 1.852610 0.000000 0.000000 
#    y 0.000000 1.851740 0.000000 
#    z 0.000000 0.000000 1.817730 
# 
# From -- ./inp_files/10163.got.cif
#   From: 2010.05.17/outbox.cif.g08.bks.cpg/sg23_6_cif.got.tgz:10163.got - 2010.06.04 12:02:01.
