data_PCOD9331252
_publ_section_title
;
Structure prediction by ZEFSAII (Michael W. Deem and Ramdas Pophale) SiO2 
 PCOD9331252
Probable space group: I 2 2 2
;
_chemical_formula_sum "Si O2"
_cell_formula_units_Z 34
_cell_length_a 19.407469
_cell_length_b 5.146241
_cell_length_c 16.695079
_cell_angle_alpha 90.000000
_cell_angle_beta 90.000000
_cell_angle_gamma 90.000000
_cell_volume 1667.429574
_symmetry_space_group_name_H-M "I 2 2 2"
_symmetry_group_IT_number 23
_symmetry_cell_setting 'orthorhombic'
loop_
_space_group_symop_operation_xyz
x,y,z
-x,-y,z
x,-y,-z
-x,y,-z
1/2+x,1/2+y,1/2+z
1/2-x,1/2-y,1/2+z
1/2+x,1/2-y,1/2-z
1/2-x,1/2+y,1/2-z
loop_
_atom_site_type_symbol
_atom_site_label
_atom_site_fract_x
_atom_site_fract_y
_atom_site_fract_z
Si Si1 0.417958 0.518240 0.341905
Si Si2 0.917666 0.520657 0.739871
Si Si3 0.764193 0.000000 0.500000
Si Si4 0.876589 0.694166 0.425687
Si Si5 0.500000 0.500000 0.000000
Si Si6 0.670224 0.500000 0.500000
O O1 0.500000 0.500000 0.357620
O O2 0.401992 0.302983 0.274681
O O3 0.376720 0.458187 0.422167
O O4 0.401804 0.801442 0.306252
O O5 0.880222 0.454279 0.657446
O O6 0.000000 0.500000 0.725215
O O7 0.816662 0.090869 0.569908
O O8 0.716885 0.247830 0.483586
O O9 0.864577 0.500000 0.500000
O O10 0.949713 0.830039 0.444674
#
# Coordination Sequence:
#
# PCOD9331252 Si02
#       6
#     8   8   4   8   2   4
#     4  10  23  41  69 101 125 162 215 283 337 390
#     4  10  22  38  65 102 134 157 206 273 337 383
#     4  11  26  41  69  90 131 184 224 262 307 402
#     4  11  23  41  64  97 136 175 219 260 319 394
#     4  10  22  32  68 102 122 188 210 262 330 382
#     4  12  23  48  68  89 130 178 224 274 332 381
#
# _framework density 20.390664999999998
#
# number of rings (size 3 to 8) (size 9 to 14) (size 15 to 20)
#    0.000    1.412    1.176    3.529   11.529    0.000 
#    0.000    9.412    0.000    0.000    0.000    0.000 
#    0.000    0.000    0.000    0.000    0.000    0.000 
#
# Total GULP energy -95075.501162 kJ/mol
# GULP energy per Si atom -5592.676539 kJ/mol
# Density = 2.034425 g / cm^3
# Si number density = 20.390665 Si / 1000 Ang^3
#
#
#
# Elastic Constant Matrix: (Units=GPa)
#
#
# Indices 1 2 3 4 5 6 
#
# 1 85.4926 45.0759 55.7781 0.0000 0.0000 0.0000
# 2 45.0759 102.3984 14.4824 0.0000 0.0000 0.0000
# 3 55.7781 14.4824 101.7297 0.0000 0.0000 0.0000
# 4 0.0000 0.0000 0.0000 24.3284 0.0000 0.0000
# 5 0.0000 0.0000 0.0000 0.0000 8.0207 0.0000
# 6 0.0000 0.0000 0.0000 0.0000 0.0000 35.4853
#
#
#
# Elastic Compliance Matrix: (Units=1/GPa)
#
#
# Indices 1 2 3 4 5 6 
#
# 1 0.024292 -0.008991 -0.012039 0.000000 0.000000 0.000000
# 2 -0.008991 0.013294 0.003037 0.000000 0.000000 0.000000
# 3 -0.012039 0.003037 0.015999 0.000000 0.000000 0.000000
# 4 0.000000 0.000000 0.000000 0.041104 0.000000 0.000000
# 5 0.000000 0.000000 0.000000 0.000000 0.124677 0.000000
# 6 0.000000 0.000000 0.000000 0.000000 0.000000 0.028181
#
#
# Mechanical properties :
#
#
# Convention : Reuss Voigt Hill
#
# Bulk Modulus (GPa) = 56.82215 57.81041 57.31628
# Shear Modulus (GPa) = 17.27719 25.18583 21.23151
#
# Velocity S-wave (km/s) = 2.91401 3.51830 3.23032
# Velocity P-wave (km/s) = 6.26492 6.70206 6.48717
#
# Compressibility (1/GPa) = 0.01759877
#
# Stress axis : x y z
#
# Youngs Moduli (GPa) = 41.16562 75.22224 62.50476
#
# Poissons Ratio (x) = 0.67630 0.75252
# Poissons Ratio (y) = 0.37011 -0.18983
# Poissons Ratio (z) = 0.49561 -0.22845
#
# Static dielectric constant tensor:
#      x y z
#    x 1.726750 0.000000 0.000000 
#    y 0.000000 1.745670 0.000000 
#    z 0.000000 0.000000 1.682130 
# 
# From -- ./inp_files/2218.got.cif
#   From: 2010.05.17/outbox.cif.g08.bks.cpg/sg23_2_cif.got.tgz:2218.got - 2010.06.04 12:02:01.
