data_PCOD9331046
_publ_section_title
;
Structure prediction by ZEFSAII (Michael W. Deem and Ramdas Pophale) SiO2 
 PCOD9331046
Probable space group: I 2 2 2
;
_chemical_formula_sum "Si O2"
_cell_formula_units_Z 26
_cell_length_a 25.119285
_cell_length_b 5.290848
_cell_length_c 8.439422
_cell_angle_alpha 90.000000
_cell_angle_beta 90.000000
_cell_angle_gamma 90.000000
_cell_volume 1121.618753
_symmetry_space_group_name_H-M "I 2 2 2"
_symmetry_group_IT_number 23
_symmetry_cell_setting 'orthorhombic'
loop_
_space_group_symop_operation_xyz
x,y,z
-x,-y,z
x,-y,-z
-x,y,-z
1/2+x,1/2+y,1/2+z
1/2-x,1/2-y,1/2+z
1/2+x,1/2-y,1/2-z
1/2-x,1/2+y,1/2-z
loop_
_atom_site_type_symbol
_atom_site_label
_atom_site_fract_x
_atom_site_fract_y
_atom_site_fract_z
Si Si1 0.107711 0.756924 0.599767
Si Si2 0.500000 0.000000 0.500000
Si Si3 0.901388 0.742824 0.046197
Si Si4 0.768381 0.880284 0.333202
O O1 0.102284 0.500000 0.500000
O O2 0.081052 0.740526 0.771923
O O3 0.169697 0.803299 0.645054
O O4 0.089813 0.000000 0.500000
O O5 0.545267 0.802659 0.439993
O O6 0.867333 0.500000 0.000000
O O7 0.874837 0.000000 0.000000
O O8 0.739380 0.619743 0.284445
O O9 0.751515 0.000000 0.500000
#
# Coordination Sequence:
#
# PCOD9331046 Si02
#       4
#     8   2   8   8
#     4  11  23  41  61  90 127 160 199 254 305 354
#     4   8  22  40  68  84 130 144 208 256 298 352
#     4  10  21  39  66  88 118 159 201 248 300 361
#     4  11  23  40  60  87 125 162 205 253 300 351
#
# _framework density 23.180781
#
# number of rings (size 3 to 8) (size 9 to 14) (size 15 to 20)
#    0.923    0.615    0.000    6.923    0.000    3.692 
#    0.000    0.769    0.000    0.000    0.000    0.000 
#    0.000    0.000    0.000    0.000    0.000    0.000 
#
# Total GULP energy -72367.747238 kJ/mol
# GULP energy per Si atom -5566.749788 kJ/mol
# Density = 2.312802 g / cm^3
# Si number density = 23.180781 Si / 1000 Ang^3
#
#
#
# Elastic Constant Matrix: (Units=GPa)
#
#
# Indices 1 2 3 4 5 6 
#
# 1 52.4000 0.7046 -4.4837 0.0000 0.0000 0.0000
# 2 0.7046 243.1924 78.6357 0.0000 0.0000 0.0000
# 3 -4.4837 78.6357 126.4562 0.0000 0.0000 0.0000
# 4 0.0000 0.0000 0.0000 54.5589 0.0000 0.0000
# 5 0.0000 0.0000 0.0000 0.0000 3.5290 0.0000
# 6 0.0000 0.0000 0.0000 0.0000 0.0000 9.7950
#
#
#
# Elastic Compliance Matrix: (Units=1/GPa)
#
#
# Indices 1 2 3 4 5 6 
#
# 1 0.019165 -0.000345 0.000894 0.000000 0.000000 0.000000
# 2 -0.000345 0.005153 -0.003217 0.000000 0.000000 0.000000
# 3 0.000894 -0.003217 0.009940 0.000000 0.000000 0.000000
# 4 0.000000 0.000000 0.000000 0.018329 0.000000 0.000000
# 5 0.000000 0.000000 0.000000 0.000000 0.283368 0.000000
# 6 0.000000 0.000000 0.000000 0.000000 0.000000 0.102093
#
#
# Mechanical properties :
#
#
# Convention : Reuss Voigt Hill
#
# Bulk Modulus (GPa) = 34.57429 63.52908 49.05168
# Shear Modulus (GPa) = 11.03697 36.72270 23.87984
#
# Velocity S-wave (km/s) = 2.18440 3.98450 3.21309
# Velocity P-wave (km/s) = 4.61623 6.97379 5.91369
#
# Compressibility (1/GPa) = 0.02892323
#
# Stress axis : x y z
#
# Youngs Moduli (GPa) = 52.17819 194.05987 100.60588
#
# Poissons Ratio (x) = 0.06686 -0.08992
# Poissons Ratio (y) = 0.01798 0.32361
# Poissons Ratio (z) = -0.04664 0.62421
#
# Static dielectric constant tensor:
#      x y z
#    x 1.861250 0.000000 0.000000 
#    y 0.000000 2.008750 0.000000 
#    z 0.000000 0.000000 1.961410 
# 
# From -- ./inp_files/5692.got.cif
#   From: 2010.05.17/outbox.cif.g08.bks.cpg/sg23_3_cif.got.tgz:5692.got - 2010.06.04 12:02:01.
