data_PCOD9331657
_publ_section_title
;
Structure prediction by ZEFSAII (Michael W. Deem and Ramdas Pophale) SiO2 
 PCOD9331657
Probable space group: I 2 2 2
;
_chemical_formula_sum "Si O2"
_cell_formula_units_Z 64
_cell_length_a 8.656856
_cell_length_b 12.488541
_cell_length_c 30.965675
_cell_angle_alpha 90.000000
_cell_angle_beta 90.000000
_cell_angle_gamma 90.000000
_cell_volume 3347.745606
_symmetry_space_group_name_H-M "I 2 2 2"
_symmetry_group_IT_number 23
_symmetry_cell_setting 'orthorhombic'
loop_
_space_group_symop_operation_xyz
x,y,z
-x,-y,z
x,-y,-z
-x,y,-z
1/2+x,1/2+y,1/2+z
1/2-x,1/2-y,1/2+z
1/2+x,1/2-y,1/2-z
1/2-x,1/2+y,1/2-z
loop_
_atom_site_type_symbol
_atom_site_label
_atom_site_fract_x
_atom_site_fract_y
_atom_site_fract_z
Si Si1 0.393855 0.224846 0.388775
Si Si2 0.839421 0.375742 0.831645
Si Si3 0.390462 0.902690 0.231224
Si Si4 0.835034 0.056825 0.161097
Si Si5 0.145167 0.938460 0.621454
Si Si6 0.626725 0.081298 0.904429
Si Si7 0.938081 0.116407 0.951181
Si Si8 0.464467 0.748264 0.836274
O O1 0.514791 0.158925 0.359866
O O2 0.335457 0.325076 0.360060
O O3 0.259043 0.143491 0.403242
O O4 0.484419 0.284932 0.426592
O O5 0.884996 0.395298 0.782386
O O6 0.752523 0.475269 0.854288
O O7 0.714357 0.280722 0.830231
O O8 0.226601 0.927874 0.209506
O O9 0.463241 0.803470 0.205517
O O10 0.500000 0.000000 0.218926
O O11 0.719980 0.983196 0.132900
O O12 0.000000 0.000000 0.161165
O O13 0.059112 0.859591 0.654783
O O14 0.000000 0.000000 0.599111
O O15 0.755842 0.116777 0.939323
O O16 0.538901 0.176209 0.878895
O O17 0.500000 0.000000 0.923230
O O18 0.000000 0.000000 0.935063
O O19 0.000000 0.121800 0.000000
#
# Coordination Sequence:
#
# PCOD9331657 Si02
#       8
#     8   8   8   8   8   8   8   8
#     4  12  20  41  67  88 124 174 215 253 342 399
#     4  11  26  39  58  87 125 175 226 286 315 368
#     4  12  24  37  55  88 133 165 224 279 327 387
#     4  12  21  35  60  95 126 171 211 262 324 402
#     4  10  23  41  60  89 119 166 228 278 316 370
#     4  12  19  40  67  96 130 168 209 254 330 407
#     4  11  24  42  69 106 141 158 201 266 328 423
#     4  11  21  39  60  87 120 171 220 267 324 383
#
# _framework density 19.117341
#
# number of rings (size 3 to 8) (size 9 to 14) (size 15 to 20)
#    0.000    0.625    7.500    1.125    1.750    2.500 
#    0.000    1.250    0.000    1.500    3.250    0.000 
#    0.000    0.000    0.000    0.000    0.000    0.000 
#
# Total GULP energy -178587.000302 kJ/mol
# GULP energy per Si atom -5580.843759 kJ/mol
# Density = 1.907383 g / cm^3
# Si number density = 19.117341 Si / 1000 Ang^3
#
#
#
# Elastic Constant Matrix: (Units=GPa)
#
#
# Indices 1 2 3 4 5 6 
#
# 1 109.5236 44.2197 37.9035 0.0000 0.0000 0.0000
# 2 44.2197 91.0857 25.6874 0.0000 0.0000 0.0000
# 3 37.9035 25.6874 80.9619 0.0000 0.0000 0.0000
# 4 0.0000 0.0000 0.0000 7.4806 0.0000 0.0000
# 5 0.0000 0.0000 0.0000 0.0000 13.9470 0.0000
# 6 0.0000 0.0000 0.0000 0.0000 0.0000 56.9560
#
#
#
# Elastic Compliance Matrix: (Units=1/GPa)
#
#
# Indices 1 2 3 4 5 6 
#
# 1 0.012613 -0.004896 -0.004352 0.000000 0.000000 0.000000
# 2 -0.004896 0.013958 -0.002136 0.000000 0.000000 0.000000
# 3 -0.004352 -0.002136 0.015067 0.000000 0.000000 0.000000
# 4 0.000000 0.000000 0.000000 0.133680 0.000000 0.000000
# 5 0.000000 0.000000 0.000000 0.000000 0.071700 0.000000
# 6 0.000000 0.000000 0.000000 0.000000 0.000000 0.017557
#
#
# Mechanical properties :
#
#
# Convention : Reuss Voigt Hill
#
# Bulk Modulus (GPa) = 52.99536 55.24362 54.11949
# Shear Modulus (GPa) = 17.02806 27.26077 22.14442
#
# Velocity S-wave (km/s) = 2.98772 3.78030 3.40713
# Velocity P-wave (km/s) = 6.29946 6.92922 6.62183
#
# Compressibility (1/GPa) = 0.01886958
#
# Stress axis : x y z
#
# Youngs Moduli (GPa) = 79.28169 71.64289 66.37200
#
# Poissons Ratio (x) = 0.35078 0.28883
# Poissons Ratio (y) = 0.38818 0.14180
# Poissons Ratio (z) = 0.34501 0.15306
#
# Static dielectric constant tensor:
#      x y z
#    x 1.781320 0.000000 0.000000 
#    y 0.000000 1.697010 0.000000 
#    z 0.000000 0.000000 1.634020 
# 
# From -- ./inp_files/30337.got.cif
#   From: 2010.05.17/outbox.cif.g08.bks.cpg/sg23_16_cif.got.tgz:30337.got - 2010.06.04 12:02:01.
