data_PCOD9331327
_publ_section_title
;
Structure prediction by ZEFSAII (Michael W. Deem and Ramdas Pophale) SiO2 
 PCOD9331327
Probable space group: I 2 2 2
;
_chemical_formula_sum "Si O2"
_cell_formula_units_Z 40
_cell_length_a 7.742553
_cell_length_b 26.791740
_cell_length_c 8.862226
_cell_angle_alpha 90.000000
_cell_angle_beta 90.000000
_cell_angle_gamma 90.000000
_cell_volume 1838.348850
_symmetry_space_group_name_H-M "I 2 2 2"
_symmetry_group_IT_number 23
_symmetry_cell_setting 'orthorhombic'
loop_
_space_group_symop_operation_xyz
x,y,z
-x,-y,z
x,-y,-z
-x,y,-z
1/2+x,1/2+y,1/2+z
1/2-x,1/2-y,1/2+z
1/2+x,1/2-y,1/2-z
1/2-x,1/2+y,1/2-z
loop_
_atom_site_type_symbol
_atom_site_label
_atom_site_fract_x
_atom_site_fract_y
_atom_site_fract_z
Si Si1 0.599762 0.701907 0.256525
Si Si2 0.543013 0.412897 0.825603
Si Si3 0.261472 0.211352 0.068555
Si Si4 0.189218 0.598331 0.353913
Si Si5 0.625637 0.048404 0.180011
O O1 0.603791 0.644592 0.201908
O O2 0.633910 0.741524 0.126685
O O3 0.736292 0.710950 0.389956
O O4 0.420426 0.712437 0.341905
O O5 0.366989 0.416237 0.727637
O O6 0.696757 0.449631 0.771864
O O7 0.500000 0.420603 0.000000
O O8 0.324942 0.156383 0.109763
O O9 0.179550 0.567683 0.512304
O O10 0.016927 0.587115 0.259137
O O11 0.500000 0.000000 0.178696
#
# Coordination Sequence:
#
# PCOD9331327 Si02
#       5
#     8   8   8   8   8
#     4  10  23  39  61 100 141 195 239 284 361 425
#     4  11  25  46  70 104 154 191 232 301 375 446
#     4  10  22  38  62  99 144 188 241 294 349 432
#     4  10  22  44  71 104 146 186 241 310 352 429
#     4  11  24  46  77 105 130 185 254 303 372 432
#
# _framework density 21.758656999999999
#
# number of rings (size 3 to 8) (size 9 to 14) (size 15 to 20)
#    0.000    1.600    2.000    1.800    8.400    1.600 
#    0.000    8.000    0.000    0.000    0.000    0.000 
#    0.000    0.000    0.000    0.000    0.000    0.000 
#
# Total GULP energy -111648.548609 kJ/mol
# GULP energy per Si atom -5582.427430 kJ/mol
# Density = 2.170913 g / cm^3
# Si number density = 21.758657 Si / 1000 Ang^3
#
#
#
# Elastic Constant Matrix: (Units=GPa)
#
#
# Indices 1 2 3 4 5 6 
#
# 1 126.1684 40.7609 33.6412 0.0005 0.0000 0.0000
# 2 40.7609 80.0213 28.7437 0.0010 0.0000 0.0000
# 3 33.6412 28.7437 62.5050 -0.0045 0.0002 0.0003
# 4 0.0005 0.0010 -0.0045 540.8105 0.0054 0.0084
# 5 0.0000 0.0000 0.0002 0.0054 33.9935 0.0000
# 6 0.0000 0.0000 0.0003 0.0084 0.0000 36.8305
#
#
#
# Elastic Compliance Matrix: (Units=1/GPa)
#
#
# Indices 1 2 3 4 5 6 
#
# 1 0.010154 -0.003844 -0.003697 0.000000 0.000000 0.000000
# 2 -0.003844 0.016425 -0.005484 0.000000 0.000000 0.000000
# 3 -0.003697 -0.005484 0.020511 0.000000 0.000000 0.000000
# 4 0.000000 0.000000 0.000000 0.001849 0.000000 0.000000
# 5 0.000000 0.000000 0.000000 0.000000 0.029417 0.000000
# 6 0.000000 0.000000 0.000000 0.000000 0.000000 0.027151
#
#
# Mechanical properties :
#
#
# Convention : Reuss Voigt Hill
#
# Bulk Modulus (GPa) = 47.53261 52.77627 50.15444
# Shear Modulus (GPa) = 36.08288 133.36349 84.72318
#
# Velocity S-wave (km/s) = 4.07667 7.83742 6.24678
# Velocity P-wave (km/s) = 6.63715 10.30574 8.66776
#
# Compressibility (1/GPa) = 0.02103819
#
# Stress axis : x y z
#
# Youngs Moduli (GPa) = 98.48749 60.88422 48.75546
#
# Poissons Ratio (x) = 0.23404 0.18025
# Poissons Ratio (y) = 0.37858 0.26738
# Poissons Ratio (z) = 0.36412 0.33390
#
# Static dielectric constant tensor:
#      x y z
#    x 1.431110 0.000010 0.000000 
#    y 0.000010 1.852990 0.000000 
#    z 0.000000 0.000000 1.776160 
# 
# From -- ./inp_files/7098.got.cif
#   From: 2010.05.17/outbox.cif.g08.bks.cpg/sg23_4_cif.got.tgz:7098.got - 2010.06.04 12:02:01.
