data_PCOD9331858
_publ_section_title
;
Structure prediction by ZEFSAII (Michael W. Deem and Ramdas Pophale) SiO2 
 PCOD9331858
Probable space group: I 2 2 2
;
_chemical_formula_sum "Si O2"
_cell_formula_units_Z 58
_cell_length_a 8.743100
_cell_length_b 11.533244
_cell_length_c 27.684645
_cell_angle_alpha 90.000000
_cell_angle_beta 90.000000
_cell_angle_gamma 90.000000
_cell_volume 2791.617324
_symmetry_space_group_name_H-M "I 2 2 2"
_symmetry_group_IT_number 23
_symmetry_cell_setting 'orthorhombic'
loop_
_space_group_symop_operation_xyz
x,y,z
-x,-y,z
x,-y,-z
-x,y,-z
1/2+x,1/2+y,1/2+z
1/2-x,1/2-y,1/2+z
1/2+x,1/2-y,1/2-z
1/2-x,1/2+y,1/2-z
loop_
_atom_site_type_symbol
_atom_site_label
_atom_site_fract_x
_atom_site_fract_y
_atom_site_fract_z
Si Si1 0.543467 0.625227 0.769084
Si Si2 0.691011 0.328806 0.130785
Si Si3 0.834403 0.112544 0.525290
Si Si4 0.201167 0.204910 0.037331
Si Si5 0.500000 0.500000 0.500000
Si Si6 0.965505 0.364345 0.885195
Si Si7 0.554342 0.131273 0.887283
Si Si8 0.252567 0.750681 0.309439
O O1 0.500000 0.500000 0.749771
O O2 0.638492 0.614225 0.819155
O O3 0.637595 0.695471 0.729871
O O4 0.388485 0.689929 0.782956
O O5 0.654668 0.402973 0.082534
O O6 0.589770 0.213496 0.124084
O O7 0.872110 0.309313 0.129953
O O8 0.741238 0.228160 0.512112
O O9 0.000000 0.123259 0.500000
O O10 0.761617 0.000000 0.500000
O O11 0.105619 0.295803 0.069629
O O12 0.358581 0.174411 0.064748
O O13 0.107107 0.087471 0.029946
O O14 0.844136 0.342448 0.842436
O O15 0.000000 0.500000 0.893879
O O16 0.678649 0.154851 0.845148
O O17 0.500000 0.000000 0.890719
#
# Coordination Sequence:
#
# PCOD9331858 Si02
#       8
#     8   8   8   8   2   8   8   8
#     4  11  24  42  69  95 136 173 220 279 343 404
#     4  11  23  41  66  99 129 180 225 272 340 396
#     4  11  23  39  68  98 134 172 227 279 331 392
#     4  11  25  43  61 102 133 180 233 274 338 401
#     4  12  28  40  64  92 144 184 226 290 328 412
#     4  11  23  43  71  99 140 175 224 284 341 400
#     4  10  24  43  66  91 133 176 228 282 334 407
#     4  10  24  43  63 103 128 170 230 273 337 419
#
# _framework density 20.776486999999999
#
# number of rings (size 3 to 8) (size 9 to 14) (size 15 to 20)
#    0.000    1.241    1.379    3.310    5.793    3.310 
#    2.483    2.759    0.000    0.000    0.000    0.000 
#    0.000    0.000    0.000    0.000    0.000    0.000 
#
# Total GULP energy -162180.306279 kJ/mol
# GULP energy per Si atom -5592.424354 kJ/mol
# Density = 2.072920 g / cm^3
# Si number density = 20.776487 Si / 1000 Ang^3
#
#
#
# Elastic Constant Matrix: (Units=GPa)
#
#
# Indices 1 2 3 4 5 6 
#
# 1 108.1394 36.4897 20.1996 0.0000 0.0000 0.0000
# 2 36.4897 122.0568 36.9770 0.0000 0.0000 0.0000
# 3 20.1996 36.9770 78.8838 0.0000 0.0000 0.0000
# 4 0.0000 0.0000 0.0000 10.1161 0.0000 0.0000
# 5 0.0000 0.0000 0.0000 0.0000 30.3883 0.0000
# 6 0.0000 0.0000 0.0000 0.0000 0.0000 35.0258
#
#
#
# Elastic Compliance Matrix: (Units=1/GPa)
#
#
# Indices 1 2 3 4 5 6 
#
# 1 0.010417 -0.002688 -0.001408 0.000000 0.000000 0.000000
# 2 -0.002688 0.010242 -0.004113 0.000000 0.000000 0.000000
# 3 -0.001408 -0.004113 0.014965 0.000000 0.000000 0.000000
# 4 0.000000 0.000000 0.000000 0.098852 0.000000 0.000000
# 5 0.000000 0.000000 0.000000 0.000000 0.032907 0.000000
# 6 0.000000 0.000000 0.000000 0.000000 0.000000 0.028550
#
#
# Mechanical properties :
#
#
# Convention : Reuss Voigt Hill
#
# Bulk Modulus (GPa) = 52.06099 55.15694 53.60896
# Shear Modulus (GPa) = 22.85667 29.46696 26.16182
#
# Velocity S-wave (km/s) = 3.32041 3.77010 3.55237
# Velocity P-wave (km/s) = 6.30969 6.74959 6.53334
#
# Compressibility (1/GPa) = 0.01920824
#
# Stress axis : x y z
#
# Youngs Moduli (GPa) = 95.99492 97.63276 66.82151
#
# Poissons Ratio (x) = 0.26242 0.09406
# Poissons Ratio (y) = 0.25802 0.27483
# Poissons Ratio (z) = 0.13512 0.40155
#
# Static dielectric constant tensor:
#      x y z
#    x 1.763930 0.000000 0.000000 
#    y 0.000000 1.713850 0.000000 
#    z 0.000000 0.000000 1.744800 
# 
# From -- ./inp_files/18630.got.cif
#   From: 2010.05.17/outbox.cif.g08.bks.cpg/sg23_10_cif.got.tgz:18630.got - 2010.06.04 12:02:01.
