data_PCOD9331545
_publ_section_title
;
Structure prediction by ZEFSAII (Michael W. Deem and Ramdas Pophale) SiO2 
 PCOD9331545
Probable space group: I 2 2 2
;
_chemical_formula_sum "Si O2"
_cell_formula_units_Z 60
_cell_length_a 11.266168
_cell_length_b 11.976548
_cell_length_c 22.822020
_cell_angle_alpha 90.000000
_cell_angle_beta 90.000000
_cell_angle_gamma 90.000000
_cell_volume 3079.370636
_symmetry_space_group_name_H-M "I 2 2 2"
_symmetry_group_IT_number 23
_symmetry_cell_setting 'orthorhombic'
loop_
_space_group_symop_operation_xyz
x,y,z
-x,-y,z
x,-y,-z
-x,y,-z
1/2+x,1/2+y,1/2+z
1/2-x,1/2-y,1/2+z
1/2+x,1/2-y,1/2-z
1/2-x,1/2+y,1/2-z
loop_
_atom_site_type_symbol
_atom_site_label
_atom_site_fract_x
_atom_site_fract_y
_atom_site_fract_z
Si Si1 0.628914 0.060233 0.387182
Si Si2 0.865146 0.248706 0.513718
Si Si3 0.789191 0.711489 0.353200
Si Si4 0.764161 0.197164 0.898539
Si Si5 0.037082 0.625079 0.322658
Si Si6 0.284182 0.500000 0.000000
Si Si7 0.200318 0.420534 0.782586
Si Si8 0.861579 0.992921 0.176396
O O1 0.653239 0.193316 0.390118
O O2 0.704064 0.012186 0.441853
O O3 0.500000 0.000000 0.391176
O O4 0.679197 0.025182 0.324136
O O5 0.820145 0.278528 0.578274
O O6 0.779280 0.301417 0.465155
O O7 0.856990 0.114407 0.505833
O O8 0.000000 0.284283 0.500000
O O9 0.730702 0.820928 0.326346
O O10 0.704465 0.607933 0.338578
O O11 0.916444 0.693246 0.322866
O O12 0.640905 0.186028 0.860267
O O13 0.835793 0.090693 0.876953
O O14 0.087785 0.608296 0.257679
O O15 0.000000 0.500000 0.345400
O O16 0.301502 0.444087 0.734986
O O17 0.000000 0.000000 0.185649
#
# Coordination Sequence:
#
# PCOD9331545 Si02
#       8
#     8   8   8   8   8   4   8   8
#     4  11  24  41  68  97 138 183 230 283 345 414
#     4  11  22  42  72 102 137 173 226 297 349 418
#     4  12  25  44  70 103 137 182 232 287 361 413
#     4  10  24  43  71 102 133 179 229 287 353 419
#     4  11  22  44  67  98 138 176 237 292 343 418
#     4  10  22  44  58 102 138 180 230 270 354 424
#     4  11  26  40  68  98 133 183 228 288 341 421
#     4  11  28  47  64  99 143 183 232 290 346 427
#
# _framework density 19.484501999999999
#
# number of rings (size 3 to 8) (size 9 to 14) (size 15 to 20)
#    0.000    1.067    5.333    0.800    7.467    0.533 
#    0.000    2.667    0.000    0.000    0.000    0.000 
#    0.000    0.000    0.000    0.000    0.000    0.000 
#
# Total GULP energy -167503.397458 kJ/mol
# GULP energy per Si atom -5583.446582 kJ/mol
# Density = 1.944015 g / cm^3
# Si number density = 19.484502 Si / 1000 Ang^3
#
#
#
# Elastic Constant Matrix: (Units=GPa)
#
#
# Indices 1 2 3 4 5 6 
#
# 1 93.7364 36.1495 38.2647 0.0000 0.0000 0.0000
# 2 36.1495 59.3630 38.1597 0.0000 0.0000 0.0000
# 3 38.2647 38.1597 136.3885 0.0000 0.0000 0.0000
# 4 0.0000 0.0000 0.0000 20.6517 0.0000 0.0000
# 5 0.0000 0.0000 0.0000 0.0000 59.1054 0.0000
# 6 0.0000 0.0000 0.0000 0.0000 0.0000 30.0050
#
#
#
# Elastic Compliance Matrix: (Units=1/GPa)
#
#
# Indices 1 2 3 4 5 6 
#
# 1 0.014346 -0.007497 -0.001927 0.000000 0.000000 0.000000
# 2 -0.007497 0.024458 -0.004740 0.000000 0.000000 0.000000
# 3 -0.001927 -0.004740 0.009199 0.000000 0.000000 0.000000
# 4 0.000000 0.000000 0.000000 0.048422 0.000000 0.000000
# 5 0.000000 0.000000 0.000000 0.000000 0.016919 0.000000
# 6 0.000000 0.000000 0.000000 0.000000 0.000000 0.033328
#
#
# Mechanical properties :
#
#
# Convention : Reuss Voigt Hill
#
# Bulk Modulus (GPa) = 50.82734 57.18176 54.00455
# Shear Modulus (GPa) = 27.53935 33.74667 30.64301
#
# Velocity S-wave (km/s) = 3.76360 4.16622 3.97001
# Velocity P-wave (km/s) = 6.71036 7.24942 6.98509
#
# Compressibility (1/GPa) = 0.01967445
#
# Stress axis : x y z
#
# Youngs Moduli (GPa) = 69.70415 40.88681 108.71022
#
# Poissons Ratio (x) = 0.30655 0.20952
# Poissons Ratio (y) = 0.52260 0.51523
# Poissons Ratio (z) = 0.13434 0.19378
#
# Static dielectric constant tensor:
#      x y z
#    x 1.701550 0.000000 0.000000 
#    y 0.000000 1.629990 0.000000 
#    z 0.000000 0.000000 1.652140 
# 
# From -- ./inp_files/15981.got.cif
#   From: 2010.05.17/outbox.cif.g08.bks.cpg/sg23_8_cif.got.tgz:15981.got - 2010.06.04 12:02:01.
