data_PCOD9331461
_publ_section_title
;
Structure prediction by ZEFSAII (Michael W. Deem and Ramdas Pophale) SiO2 
 PCOD9331461
Probable space group: I 2 2 2
;
_chemical_formula_sum "Si O2"
_cell_formula_units_Z 24
_cell_length_a 7.069355
_cell_length_b 6.867138
_cell_length_c 19.578478
_cell_angle_alpha 90.000000
_cell_angle_beta 90.000000
_cell_angle_gamma 90.000000
_cell_volume 950.461420
_symmetry_space_group_name_H-M "I 2 2 2"
_symmetry_group_IT_number 23
_symmetry_cell_setting 'orthorhombic'
loop_
_space_group_symop_operation_xyz
x,y,z
-x,-y,z
x,-y,-z
-x,y,-z
1/2+x,1/2+y,1/2+z
1/2-x,1/2-y,1/2+z
1/2+x,1/2-y,1/2-z
1/2-x,1/2+y,1/2-z
loop_
_atom_site_type_symbol
_atom_site_label
_atom_site_fract_x
_atom_site_fract_y
_atom_site_fract_z
Si Si1 0.222194 0.942181 0.846345
Si Si2 0.321771 0.355361 0.804411
Si Si3 0.281160 0.572216 0.927902
O O1 0.197999 0.462066 0.861955
O O2 0.250785 0.835879 0.772770
O O3 0.269435 0.799147 0.908846
O O4 0.000000 0.000000 0.852546
O O5 0.500000 0.500000 0.796646
O O6 0.339638 0.141238 0.836706
O O7 0.500000 0.500000 0.929350
O O8 0.203375 0.500000 0.000000
#
# Coordination Sequence:
#
# PCOD9331461 Si02
#       3
#     8   8   8
#     4  11  23  43  71 105 147 191 239 300 357 424
#     4  10  22  41  67 105 141 189 239 289 353 429
#     4  10  23  45  71 104 141 189 245 296 358 439
#
# _framework density 25.250890999999999
#
# number of rings (size 3 to 8) (size 9 to 14) (size 15 to 20)
#    0.000    1.667    3.333    0.000    0.000    8.000 
#    0.000   11.667    0.000    0.000    0.000    0.000 
#    0.000    0.000    0.000    0.000    0.000    0.000 
#
# Total GULP energy -67005.180823 kJ/mol
# GULP energy per Si atom -5583.765069 kJ/mol
# Density = 2.519342 g / cm^3
# Si number density = 25.250891 Si / 1000 Ang^3
#
#
#
# Elastic Constant Matrix: (Units=GPa)
#
#
# Indices 1 2 3 4 5 6 
#
# 1 137.1754 68.9573 43.8027 0.0000 0.0000 0.0000
# 2 68.9573 227.0812 67.7173 0.0000 0.0000 0.0000
# 3 43.8027 67.7173 167.2119 0.0000 0.0000 0.0000
# 4 0.0000 0.0000 0.0000 19.2969 0.0000 0.0000
# 5 0.0000 0.0000 0.0000 0.0000 -4.5450 0.0000
# 6 0.0000 0.0000 0.0000 0.0000 0.0000 29.1575
#
#
#
# Elastic Compliance Matrix: (Units=1/GPa)
#
#
# Indices 1 2 3 4 5 6 
#
# 1 0.008884 -0.002279 -0.001404 0.000000 0.000000 0.000000
# 2 -0.002279 0.005593 -0.001668 0.000000 0.000000 0.000000
# 3 -0.001404 -0.001668 0.007024 0.000000 0.000000 0.000000
# 4 0.000000 0.000000 0.000000 0.051822 0.000000 0.000000
# 5 0.000000 0.000000 0.000000 0.000000 -0.220021 0.000000
# 6 0.000000 0.000000 0.000000 0.000000 0.000000 0.034296
#
#
# Mechanical properties :
#
#
# Convention : Reuss Voigt Hill
#
# Bulk Modulus (GPa) = 92.60794 99.15812 95.88303
# Shear Modulus (GPa) = -50.96889 32.18129 -9.39380
#
# Velocity S-wave (km/s) = -4.49764 3.57383 -1.93087
# Velocity P-wave (km/s) = 3.12778 7.50894 5.75183
#
# Compressibility (1/GPa) = 0.01079821
#
# Stress axis : x y z
#
# Youngs Moduli (GPa) = 112.56183 178.78776 142.37183
#
# Poissons Ratio (x) = 0.40746 0.19993
# Poissons Ratio (y) = 0.25653 0.23749
# Poissons Ratio (z) = 0.15807 0.29824
#
# Static dielectric constant tensor:
#      x y z
#    x 2.156820 0.000000 0.000000 
#    y 0.000000 2.009100 0.000000 
#    z 0.000000 0.000000 2.110530 
# 
# From -- ./inp_files/6326.got.cif
#   From: 2010.05.17/outbox.cif.g08.bks.cpg/sg23_4_cif.got.tgz:6326.got - 2010.06.04 12:02:01.
