data_PCOD9331337
_publ_section_title
;
Structure prediction by ZEFSAII (Michael W. Deem and Ramdas Pophale) SiO2 
 PCOD9331337
Probable space group: I 2 2 2
;
_chemical_formula_sum "Si O2"
_cell_formula_units_Z 48
_cell_length_a 8.419810
_cell_length_b 15.182532
_cell_length_c 16.846843
_cell_angle_alpha 90.000000
_cell_angle_beta 90.000000
_cell_angle_gamma 90.000000
_cell_volume 2153.599914
_symmetry_space_group_name_H-M "I 2 2 2"
_symmetry_group_IT_number 23
_symmetry_cell_setting 'orthorhombic'
loop_
_space_group_symop_operation_xyz
x,y,z
-x,-y,z
x,-y,-z
-x,y,-z
1/2+x,1/2+y,1/2+z
1/2-x,1/2-y,1/2+z
1/2+x,1/2-y,1/2-z
1/2-x,1/2+y,1/2-z
loop_
_atom_site_type_symbol
_atom_site_label
_atom_site_fract_x
_atom_site_fract_y
_atom_site_fract_z
Si Si1 0.874492 0.570324 0.160854
Si Si2 0.953366 0.857972 0.643257
Si Si3 0.500000 0.772988 0.000000
Si Si4 0.158073 0.830704 0.046997
Si Si5 0.800411 0.070458 0.750316
Si Si6 0.500000 0.500000 0.390332
Si Si7 0.095294 0.269180 0.791312
O O1 0.712071 0.597331 0.117709
O O2 0.812752 0.513693 0.236744
O O3 0.000000 0.500000 0.123161
O O4 0.955813 0.662895 0.183414
O O5 0.933253 0.805030 0.726092
O O6 0.000175 0.789670 0.576423
O O7 0.092611 0.923216 0.670695
O O8 0.670713 0.822847 0.995701
O O9 0.161374 0.777059 0.129697
O O10 0.113634 0.932158 0.064729
O O11 0.000000 0.797039 0.000000
O O12 0.895444 0.058156 0.830502
O O13 0.712378 0.162404 0.750672
#
# Coordination Sequence:
#
# PCOD9331337 Si02
#       7
#     8   8   4   8   8   4   8
#     4  10  22  38  67 107 140 180 249 312 370 447
#     4  12  22  44  71 103 141 199 247 312 373 457
#     4  12  30  46  80 112 156 196 266 320 392 468
#     4  12  27  51  74 113 155 202 252 318 392 463
#     4  11  21  40  73 106 140 185 249 309 366 447
#     4  12  25  46  78 107 156 196 244 323 386 468
#     4  11  23  42  76 104 142 198 255 305 372 459
#
# _framework density 22.288263000000001
#
# number of rings (size 3 to 8) (size 9 to 14) (size 15 to 20)
#    0.000    0.667    5.000    2.250    4.667    0.000 
#    0.000    3.333    7.333    0.000    0.000    0.000 
#    0.000    0.000    0.000    0.000    0.000    0.000 
#
# Total GULP energy -133952.625009 kJ/mol
# GULP energy per Si atom -5581.359375 kJ/mol
# Density = 2.223753 g / cm^3
# Si number density = 22.288263 Si / 1000 Ang^3
#
#
#
# Elastic Constant Matrix: (Units=GPa)
#
#
# Indices 1 2 3 4 5 6 
#
# 1 138.4877 39.4474 20.6551 0.0000 0.0000 0.0000
# 2 39.4474 109.3209 20.2554 0.0000 0.0000 0.0000
# 3 20.6551 20.2554 75.0900 0.0000 0.0000 0.0000
# 4 0.0000 0.0000 0.0000 14.1595 0.0000 0.0000
# 5 0.0000 0.0000 0.0000 0.0000 -175.7092 0.0000
# 6 0.0000 0.0000 0.0000 0.0000 0.0000 26.6785
#
#
#
# Elastic Compliance Matrix: (Units=1/GPa)
#
#
# Indices 1 2 3 4 5 6 
#
# 1 0.008213 -0.002679 -0.001537 0.000000 0.000000 0.000000
# 2 -0.002679 0.010502 -0.002096 0.000000 0.000000 0.000000
# 3 -0.001537 -0.002096 0.014305 0.000000 0.000000 0.000000
# 4 0.000000 0.000000 0.000000 0.070624 0.000000 0.000000
# 5 0.000000 0.000000 0.000000 0.000000 -0.005691 0.000000
# 6 0.000000 0.000000 0.000000 0.000000 0.000000 0.037483
#
#
# Mechanical properties :
#
#
# Convention : Reuss Voigt Hill
#
# Bulk Modulus (GPa) = 49.02494 53.73493 51.37993
# Shear Modulus (GPa) = 32.28731 -10.80488 10.74122
#
# Velocity S-wave (km/s) = 3.81021 -2.20416 2.19765
# Velocity P-wave (km/s) = 6.43432 4.20519 5.43526
#
# Compressibility (1/GPa) = 0.02039778
#
# Stress axis : x y z
#
# Youngs Moduli (GPa) = 121.75656 95.21611 69.90349
#
# Poissons Ratio (x) = 0.25508 0.10741
# Poissons Ratio (y) = 0.32618 0.14653
# Poissons Ratio (z) = 0.18709 0.19958
#
# Static dielectric constant tensor:
#      x y z
#    x 2.131510 0.000000 0.000000 
#    y 0.000000 1.845550 0.000000 
#    z 0.000000 0.000000 1.795170 
# 
# From -- ./inp_files/23768.got.cif
#   From: 2010.05.17/outbox.cif.g08.bks.cpg/sg23_12_cif.got.tgz:23768.got - 2010.06.04 12:02:01.
