data_PCOD9331037
_publ_section_title
;
Structure prediction by ZEFSAII (Michael W. Deem and Ramdas Pophale) SiO2 
 PCOD9331037
Probable space group: I 2 2 2
;
_chemical_formula_sum "Si O2"
_cell_formula_units_Z 48
_cell_length_a 8.098479
_cell_length_b 33.309666
_cell_length_c 8.313639
_cell_angle_alpha 90.000000
_cell_angle_beta 90.000000
_cell_angle_gamma 90.000000
_cell_volume 2242.667558
_symmetry_space_group_name_H-M "I 2 2 2"
_symmetry_group_IT_number 23
_symmetry_cell_setting 'orthorhombic'
loop_
_space_group_symop_operation_xyz
x,y,z
-x,-y,z
x,-y,-z
-x,y,-z
1/2+x,1/2+y,1/2+z
1/2-x,1/2-y,1/2+z
1/2+x,1/2-y,1/2-z
1/2-x,1/2+y,1/2-z
loop_
_atom_site_type_symbol
_atom_site_label
_atom_site_fract_x
_atom_site_fract_y
_atom_site_fract_z
Si Si1 0.304337 0.723440 0.547507
Si Si2 0.381748 0.651842 0.761395
Si Si3 0.500000 0.410714 0.500000
Si Si4 0.268209 0.455716 0.732802
Si Si5 0.000000 0.000000 0.500000
Si Si6 0.762136 0.193789 0.705634
Si Si7 0.329315 0.880857 0.556251
Si Si8 0.500000 0.000000 0.000000
O O1 0.500000 0.727005 0.500000
O O2 0.288332 0.690540 0.688241
O O3 0.236227 0.766219 0.600321
O O4 0.223300 0.706952 0.386045
O O5 0.405039 0.619187 0.621088
O O6 0.563056 0.670099 0.800732
O O7 0.292741 0.630457 0.910135
O O8 0.387795 0.440977 0.595244
O O9 0.232165 0.413381 0.819479
O O10 0.118450 0.476129 0.629962
O O11 0.370585 0.479374 0.872435
O O12 0.633984 0.161402 0.642311
O O13 0.500000 0.898890 0.500000
#
# Coordination Sequence:
#
# PCOD9331037 Si02
#       8
#     8   8   4   8   2   8   8   2
#     4  10  21  39  64  97 143 191 246 317 366 424
#     4  11  22  44  71 102 143 195 260 303 357 436
#     4  12  22  49  80 108 144 200 256 292 370 455
#     4  12  28  50  82 114 153 192 245 307 382 465
#     4  12  28  52  84 120 144 206 252 292 388 484
#     4  11  21  41  64 102 135 198 251 306 365 430
#     4  12  27  43  69 104 147 191 241 304 369 440
#     4  12  32  52  80 124 164 190 236 320 400 468
#
# _framework density 21.403082999999999
#
# number of rings (size 3 to 8) (size 9 to 14) (size 15 to 20)
#    0.000    0.667    4.167    4.000    4.667    2.667 
#    0.000    3.333    0.000    0.000    0.000    0.000 
#    0.000    0.000    0.000    0.000    0.000    0.000 
#
# Total GULP energy -133942.187794 kJ/mol
# GULP energy per Si atom -5580.924491 kJ/mol
# Density = 2.135437 g / cm^3
# Si number density = 21.403083 Si / 1000 Ang^3
#
#
#
# Elastic Constant Matrix: (Units=GPa)
#
#
# Indices 1 2 3 4 5 6 
#
# 1 57.9744 46.6858 62.9971 0.0001 -0.0001 -0.0001
# 2 46.6858 118.7460 80.2947 0.0001 -0.0005 0.0000
# 3 62.9971 80.2947 157.8716 -0.0002 -0.0004 -0.0002
# 4 0.0001 0.0001 -0.0002 58.8840 -0.0005 0.0000
# 5 -0.0001 -0.0005 -0.0004 -0.0005 29.2766 0.0001
# 6 -0.0001 0.0000 -0.0002 0.0000 0.0001 21.0915
#
#
#
# Elastic Compliance Matrix: (Units=1/GPa)
#
#
# Indices 1 2 3 4 5 6 
#
# 1 0.033241 -0.006249 -0.010086 0.000000 0.000000 0.000000
# 2 -0.006249 0.014010 -0.004632 0.000000 0.000000 0.000000
# 3 -0.010086 -0.004632 0.012715 0.000000 0.000000 0.000000
# 4 0.000000 0.000000 0.000000 0.016983 0.000000 0.000000
# 5 0.000000 0.000000 0.000000 0.000000 0.034157 0.000000
# 6 0.000000 0.000000 0.000000 0.000000 0.000000 0.047412
#
#
# Mechanical properties :
#
#
# Convention : Reuss Voigt Hill
#
# Bulk Modulus (GPa) = 55.45723 79.39412 67.42568
# Shear Modulus (GPa) = 24.21728 31.49139 27.85434
#
# Velocity S-wave (km/s) = 3.36741 3.83998 3.61143
# Velocity P-wave (km/s) = 6.40986 7.53895 6.99722
#
# Compressibility (1/GPa) = 0.01803191
#
# Stress axis : x y z
#
# Youngs Moduli (GPa) = 30.08312 71.37586 78.64606
#
# Poissons Ratio (x) = 0.44600 0.79326
# Poissons Ratio (y) = 0.18798 0.36431
# Poissons Ratio (z) = 0.30343 0.33063
#
# Static dielectric constant tensor:
#      x y z
#    x 1.801780 0.000000 0.000000 
#    y 0.000000 1.871810 0.000000 
#    z 0.000000 0.000000 1.782100 
# 
# From -- ./inp_files/7430.got.cif
#   From: 2010.05.17/outbox.cif.g08.bks.cpg/sg23_4_cif.got.tgz:7430.got - 2010.06.04 12:02:01.
