data_PCOD9331788
_publ_section_title
;
Structure prediction by ZEFSAII (Michael W. Deem and Ramdas Pophale) SiO2 
 PCOD9331788
Probable space group: I 2 2 2
;
_chemical_formula_sum "Si O2"
_cell_formula_units_Z 32
_cell_length_a 12.160276
_cell_length_b 6.048996
_cell_length_c 17.989951
_cell_angle_alpha 90.000000
_cell_angle_beta 90.000000
_cell_angle_gamma 90.000000
_cell_volume 1323.295117
_symmetry_space_group_name_H-M "I 2 2 2"
_symmetry_group_IT_number 23
_symmetry_cell_setting 'orthorhombic'
loop_
_space_group_symop_operation_xyz
x,y,z
-x,-y,z
x,-y,-z
-x,y,-z
1/2+x,1/2+y,1/2+z
1/2-x,1/2-y,1/2+z
1/2+x,1/2-y,1/2-z
1/2-x,1/2+y,1/2-z
loop_
_atom_site_type_symbol
_atom_site_label
_atom_site_fract_x
_atom_site_fract_y
_atom_site_fract_z
Si Si1 0.500000 0.500000 0.680406
Si Si2 0.309973 0.500000 0.000000
Si Si3 0.886513 0.392405 0.418170
Si Si4 0.774626 0.881072 0.219884
Si Si5 0.890762 0.779502 0.954541
O O1 0.406864 0.367466 0.721505
O O2 0.434047 0.665703 0.626592
O O3 0.383239 0.636781 0.942815
O O4 0.218812 0.362901 0.953127
O O5 0.872245 0.500000 0.500000
O O6 0.788180 0.414388 0.359246
O O7 0.000000 0.500000 0.389138
O O8 0.742524 0.627425 0.243091
O O9 0.000000 0.707294 0.000000
O O10 0.862207 0.000000 0.000000
#
# Coordination Sequence:
#
# PCOD9331788 Si02
#       5
#     4   4   8   8   8
#     4  10  23  48  74 104 151 206 262 328 418 484
#     4  12  21  41  80 114 156 208 265 347 406 494
#     4  11  28  52  79 119 165 215 287 345 419 498
#     4  12  31  54  82 117 168 222 280 350 423 513
#     4   9  19  38  68 115 154 186 250 336 405 492
#
# _framework density 24.182058999999999
#
# number of rings (size 3 to 8) (size 9 to 14) (size 15 to 20)
#    0.000    1.500    0.000    5.625   10.500    3.000 
#    4.500    0.000    0.000    0.000    0.000    0.000 
#    0.000    0.000    0.000    0.000    0.000    0.000 
#
# Total GULP energy -89117.457782 kJ/mol
# GULP energy per Si atom -5569.841111 kJ/mol
# Density = 2.412702 g / cm^3
# Si number density = 24.182059 Si / 1000 Ang^3
#
#
#
# Elastic Constant Matrix: (Units=GPa)
#
#
# Indices 1 2 3 4 5 6 
#
# 1 152.2740 62.0098 13.8423 0.0000 0.0000 0.0000
# 2 62.0098 148.2532 38.0433 0.0000 0.0000 0.0000
# 3 13.8423 38.0433 62.6401 0.0000 0.0000 0.0000
# 4 0.0000 0.0000 0.0000 -511.3218 0.0000 0.0000
# 5 0.0000 0.0000 0.0000 0.0000 26.2131 0.0000
# 6 0.0000 0.0000 0.0000 0.0000 0.0000 34.0213
#
#
#
# Elastic Compliance Matrix: (Units=1/GPa)
#
#
# Indices 1 2 3 4 5 6 
#
# 1 0.007920 -0.003392 0.000310 0.000000 0.000000 0.000000
# 2 -0.003392 0.009444 -0.004986 0.000000 0.000000 0.000000
# 3 0.000310 -0.004986 0.018924 0.000000 0.000000 0.000000
# 4 0.000000 0.000000 0.000000 -0.001956 0.000000 0.000000
# 5 0.000000 0.000000 0.000000 0.000000 0.038149 0.000000
# 6 0.000000 0.000000 0.000000 0.000000 0.000000 0.029393
#
#
# Mechanical properties :
#
#
# Convention : Reuss Voigt Hill
#
# Bulk Modulus (GPa) = 49.62412 65.66201 57.64306
# Shear Modulus (GPa) = 40.08742 -73.59936 -16.75597
#
# Velocity S-wave (km/s) = 4.07595 -5.52282 -2.63517
# Velocity P-wave (km/s) = 6.53580 3.66833 3.82492
#
# Compressibility (1/GPa) = 0.02015149
#
# Stress axis : x y z
#
# Youngs Moduli (GPa) = 126.25613 105.89238 52.84392
#
# Poissons Ratio (x) = 0.35923 -0.01639
# Poissons Ratio (y) = 0.42832 0.26346
# Poissons Ratio (z) = -0.03915 0.52795
#
# Static dielectric constant tensor:
#      x y z
#    x 2.508660 0.000000 0.000000 
#    y 0.000000 2.117460 0.000000 
#    z 0.000000 0.000000 1.958200 
# 
# From -- ./inp_files/24559.got.cif
#   From: 2010.05.17/outbox.cif.g08.bks.cpg/sg23_13_cif.got.tgz:24559.got - 2010.06.04 12:02:01.
