data_PCOD9331494
_publ_section_title
;
Structure prediction by ZEFSAII (Michael W. Deem and Ramdas Pophale) SiO2 
 PCOD9331494
Probable space group: I 2 2 2
;
_chemical_formula_sum "Si O2"
_cell_formula_units_Z 38
_cell_length_a 30.349429
_cell_length_b 7.123290
_cell_length_c 10.096658
_cell_angle_alpha 90.000000
_cell_angle_beta 90.000000
_cell_angle_gamma 90.000000
_cell_volume 2182.774120
_symmetry_space_group_name_H-M "I 2 2 2"
_symmetry_group_IT_number 23
_symmetry_cell_setting 'orthorhombic'
loop_
_space_group_symop_operation_xyz
x,y,z
-x,-y,z
x,-y,-z
-x,y,-z
1/2+x,1/2+y,1/2+z
1/2-x,1/2-y,1/2+z
1/2+x,1/2-y,1/2-z
1/2-x,1/2+y,1/2-z
loop_
_atom_site_type_symbol
_atom_site_label
_atom_site_fract_x
_atom_site_fract_y
_atom_site_fract_z
Si Si1 0.714387 0.615450 0.126010
Si Si2 0.350498 0.035750 0.154314
Si Si3 0.372704 0.500000 0.500000
Si Si4 0.196599 0.211832 0.179683
Si Si5 0.000000 0.500000 0.000000
Si Si6 0.414313 0.858977 0.615667
O O1 0.681544 0.783700 0.160466
O O2 0.763235 0.694637 0.100521
O O3 0.716614 0.466404 0.243966
O O4 0.697893 0.500000 0.000000
O O5 0.392803 0.075961 0.246869
O O6 0.324138 0.860602 0.217808
O O7 0.360764 0.000000 0.000000
O O8 0.341519 0.369736 0.588528
O O9 0.400933 0.645750 0.585742
O O10 0.033375 0.384157 0.906469
O O11 0.395952 0.000000 0.500000
#
# Coordination Sequence:
#
# PCOD9331494 Si02
#       6
#     8   8   4   8   2   8
#     4  12  26  37  54  83 126 178 226 266 304 358
#     4  12  24  41  59  90 131 170 210 263 324 380
#     4  12  24  37  66  92 124 168 212 261 318 374
#     4  12  25  37  55  86 123 176 223 265 305 353
#     4   8  20  46  74  96 122 148 210 270 328 380
#     4  10  22  42  66  96 123 152 206 264 321 393
#
# _framework density 17.409037999999999
#
# number of rings (size 3 to 8) (size 9 to 14) (size 15 to 20)
#    0.632    0.000    8.421    0.000    7.368    0.421 
#    0.000    0.526    0.000    0.000    0.000    0.000 
#    0.000    0.000    0.000    0.000    0.000    0.000 
#
# Total GULP energy -106006.374089 kJ/mol
# GULP energy per Si atom -5579.282847 kJ/mol
# Density = 1.736941 g / cm^3
# Si number density = 17.409038 Si / 1000 Ang^3
#
#
#
# Elastic Constant Matrix: (Units=GPa)
#
#
# Indices 1 2 3 4 5 6 
#
# 1 115.1884 48.1361 34.3096 0.0000 0.0000 0.0000
# 2 48.1361 111.0349 35.1319 0.0000 0.0000 0.0000
# 3 34.3096 35.1319 71.8278 0.0000 0.0000 0.0000
# 4 0.0000 0.0000 0.0000 38.6431 0.0000 0.0000
# 5 0.0000 0.0000 0.0000 0.0000 20.3076 0.0000
# 6 0.0000 0.0000 0.0000 0.0000 0.0000 -63.0644
#
#
#
# Elastic Compliance Matrix: (Units=1/GPa)
#
#
# Indices 1 2 3 4 5 6 
#
# 1 0.011322 -0.003783 -0.003558 0.000000 0.000000 0.000000
# 2 -0.003783 0.011919 -0.004023 0.000000 0.000000 0.000000
# 3 -0.003558 -0.004023 0.017589 0.000000 0.000000 0.000000
# 4 0.000000 0.000000 0.000000 0.025878 0.000000 0.000000
# 5 0.000000 0.000000 0.000000 0.000000 0.049243 0.000000
# 6 0.000000 0.000000 0.000000 0.000000 0.000000 -0.015857
#
#
# Mechanical properties :
#
#
# Convention : Reuss Voigt Hill
#
# Bulk Modulus (GPa) = 55.23854 59.24515 57.24185
# Shear Modulus (GPa) = 38.80330 11.20882 25.00606
#
# Velocity S-wave (km/s) = 4.72626 2.54017 3.79408
# Velocity P-wave (km/s) = 7.84743 6.53517 7.22117
#
# Compressibility (1/GPa) = 0.01810330
#
# Stress axis : x y z
#
# Youngs Moduli (GPa) = 88.32449 83.90071 56.85253
#
# Poissons Ratio (x) = 0.31736 0.20228
# Poissons Ratio (y) = 0.33409 0.22871
# Poissons Ratio (z) = 0.31426 0.33752
#
# Static dielectric constant tensor:
#      x y z
#    x 1.575130 0.000000 0.000000 
#    y 0.000000 1.607520 0.000000 
#    z 0.000000 0.000000 1.602330 
# 
# From -- ./inp_files/13900.got.cif
#   From: 2010.05.17/outbox.cif.g08.bks.cpg/sg23_7_cif.got.tgz:13900.got - 2010.06.04 12:02:01.
