data_PCOD9331695
_publ_section_title
;
Structure prediction by ZEFSAII (Michael W. Deem and Ramdas Pophale) SiO2 
 PCOD9331695
Probable space group: I 2 2 2
;
_chemical_formula_sum "Si O2"
_cell_formula_units_Z 58
_cell_length_a 9.253709
_cell_length_b 30.244161
_cell_length_c 10.796121
_cell_angle_alpha 90.000000
_cell_angle_beta 90.000000
_cell_angle_gamma 90.000000
_cell_volume 3021.517562
_symmetry_space_group_name_H-M "I 2 2 2"
_symmetry_group_IT_number 23
_symmetry_cell_setting 'orthorhombic'
loop_
_space_group_symop_operation_xyz
x,y,z
-x,-y,z
x,-y,-z
-x,y,-z
1/2+x,1/2+y,1/2+z
1/2-x,1/2-y,1/2+z
1/2+x,1/2-y,1/2-z
1/2-x,1/2+y,1/2-z
loop_
_atom_site_type_symbol
_atom_site_label
_atom_site_fract_x
_atom_site_fract_y
_atom_site_fract_z
Si Si1 0.331477 0.448583 0.361912
Si Si2 0.653547 0.449424 0.341987
Si Si3 0.364586 0.082061 0.358637
Si Si4 0.662809 0.359673 0.966178
Si Si5 0.500000 0.000000 0.500000
Si Si6 0.867179 0.720976 0.340444
Si Si7 0.644770 0.122397 0.246076
Si Si8 0.683299 0.258312 0.906012
O O1 0.490007 0.434089 0.312614
O O2 0.322732 0.498689 0.313705
O O3 0.337824 0.447529 0.510282
O O4 0.192122 0.419791 0.331858
O O5 0.774368 0.423745 0.267213
O O6 0.267212 0.111908 0.447565
O O7 0.404595 0.034317 0.418254
O O8 0.511250 0.108132 0.330366
O O9 0.712715 0.370256 0.828145
O O10 0.681627 0.306829 0.968973
O O11 0.500000 0.370800 0.000000
O O12 0.887149 0.668410 0.321196
O O13 0.786582 0.739364 0.215967
O O14 0.784739 0.728169 0.472366
O O15 0.023788 0.744102 0.357914
#
# Coordination Sequence:
#
# PCOD9331695 Si02
#       8
#     8   8   8   8   2   8   8   8
#     4   9  19  41  58  94 125 166 217 265 313 382
#     4   9  20  37  66  83 128 174 211 260 323 377
#     4  12  24  40  63  94 125 176 208 273 326 387
#     4  11  22  42  64  89 126 168 220 265 321 379
#     4  12  24  44  58  94 144 160 222 264 330 404
#     4  10  23  42  67  94 130 168 213 266 329 387
#     4  11  23  39  63  95 133 159 217 270 322 392
#     4  10  23  44  65  97 128 175 213 273 323 397
#
# _framework density 19.195651999999999
#
# number of rings (size 3 to 8) (size 9 to 14) (size 15 to 20)
#    0.000    1.655    2.759    2.483    1.931    3.310 
#    0.000    4.138    0.000    0.000    0.000    0.000 
#    0.000    0.000    0.000    0.000    0.000    0.000 
#
# Total GULP energy -161561.975100 kJ/mol
# GULP energy per Si atom -5571.102590 kJ/mol
# Density = 1.915196 g / cm^3
# Si number density = 19.195652 Si / 1000 Ang^3
#
#
#
# Elastic Constant Matrix: (Units=GPa)
#
#
# Indices 1 2 3 4 5 6 
#
# 1 79.7024 53.5462 34.7481 0.0007 0.0001 -0.0003
# 2 53.5462 104.8477 42.8814 0.0000 0.0000 0.0000
# 3 34.7481 42.8814 71.1997 0.0030 0.0005 -0.0014
# 4 0.0007 0.0000 0.0030 24.5399 0.0003 -0.0006
# 5 0.0001 0.0000 0.0005 0.0003 36.2738 -0.0001
# 6 -0.0003 0.0000 -0.0014 -0.0006 -0.0001 25.7926
#
#
#
# Elastic Compliance Matrix: (Units=1/GPa)
#
#
# Indices 1 2 3 4 5 6 
#
# 1 0.020292 -0.008376 -0.004859 0.000000 0.000000 0.000000
# 2 -0.008376 0.016112 -0.005616 0.000001 0.000000 0.000000
# 3 -0.004859 -0.005616 0.019799 -0.000002 0.000000 0.000001
# 4 0.000000 0.000001 -0.000002 0.040750 0.000000 0.000001
# 5 0.000000 0.000000 0.000000 0.000000 0.027568 0.000000
# 6 0.000000 0.000000 0.000001 0.000001 0.000000 0.038771
#
#
# Mechanical properties :
#
#
# Convention : Reuss Voigt Hill
#
# Bulk Modulus (GPa) = 54.05016 57.56680 55.80848
# Shear Modulus (GPa) = 24.13582 25.62621 24.88101
#
# Velocity S-wave (km/s) = 3.54977 3.65773 3.60416
# Velocity P-wave (km/s) = 6.70968 6.92050 6.81590
#
# Compressibility (1/GPa) = 0.01850133
#
# Stress axis : x y z
#
# Youngs Moduli (GPa) = 49.27977 62.06434 50.50874
#
# Poissons Ratio (x) = 0.51987 0.24540
# Poissons Ratio (y) = 0.41278 0.28366
# Poissons Ratio (z) = 0.23943 0.34855
#
# Static dielectric constant tensor:
#      x y z
#    x 1.745620 0.000000 0.000000 
#    y 0.000000 1.712350 0.000000 
#    z 0.000000 0.000000 1.713050 
# 
# From -- ./inp_files/14909.got.cif
#   From: 2010.05.17/outbox.cif.g08.bks.cpg/sg23_8_cif.got.tgz:14909.got - 2010.06.04 12:02:01.
