data_PCOD9331921
_publ_section_title
;
Structure prediction by ZEFSAII (Michael W. Deem and Ramdas Pophale) SiO2 
 PCOD9331921
Probable space group: I 2 2 2
;
_chemical_formula_sum "Si O2"
_cell_formula_units_Z 24
_cell_length_a 21.593599
_cell_length_b 5.352744
_cell_length_c 8.754818
_cell_angle_alpha 90.000000
_cell_angle_beta 90.000000
_cell_angle_gamma 90.000000
_cell_volume 1011.925704
_symmetry_space_group_name_H-M "I 2 2 2"
_symmetry_group_IT_number 23
_symmetry_cell_setting 'orthorhombic'
loop_
_space_group_symop_operation_xyz
x,y,z
-x,-y,z
x,-y,-z
-x,y,-z
1/2+x,1/2+y,1/2+z
1/2-x,1/2-y,1/2+z
1/2+x,1/2-y,1/2-z
1/2-x,1/2+y,1/2-z
loop_
_atom_site_type_symbol
_atom_site_label
_atom_site_fract_x
_atom_site_fract_y
_atom_site_fract_z
Si Si1 0.853301 0.441372 0.324737
Si Si2 0.069760 0.747878 0.069477
Si Si3 0.223569 0.252057 0.104138
O O1 0.868029 0.500000 0.500000
O O2 0.911214 0.299481 0.243927
O O3 0.827964 0.688562 0.234721
O O4 0.791729 0.271103 0.320775
O O5 0.098359 0.500000 0.000000
O O6 0.000000 0.746976 0.000000
O O7 0.095418 0.000000 0.000000
O O8 0.225523 0.500000 0.000000
O O9 0.219307 0.000000 0.000000
#
# Coordination Sequence:
#
# PCOD9331921 Si02
#       3
#     8   8   8
#     4  11  24  42  71 108 145 182 237 299 349 422
#     4  10  24  47  72  96 132 190 243 286 350 420
#     4  11  25  43  65 103 153 193 224 277 370 448
#
# _framework density 23.717155000000002
#
# number of rings (size 3 to 8) (size 9 to 14) (size 15 to 20)
#    0.000    1.333    0.000    5.000    0.000   17.333 
#    0.000    3.333    0.000   16.000    0.000    0.000 
#    0.000    0.000    0.000    0.000    0.000    0.000 
#
# Total GULP energy -66864.307000 kJ/mol
# GULP energy per Si atom -5572.025583 kJ/mol
# Density = 2.366317 g / cm^3
# Si number density = 23.717155 Si / 1000 Ang^3
#
#
#
# Elastic Constant Matrix: (Units=GPa)
#
#
# Indices 1 2 3 4 5 6 
#
# 1 148.1237 9.7048 62.5851 0.0000 0.0000 0.0000
# 2 9.7048 205.1248 79.2347 0.0000 0.0000 0.0000
# 3 62.5851 79.2347 214.9804 0.0000 0.0000 0.0000
# 4 0.0000 0.0000 0.0000 45.2145 0.0000 0.0000
# 5 0.0000 0.0000 0.0000 0.0000 73.7539 0.0000
# 6 0.0000 0.0000 0.0000 0.0000 0.0000 0.3868
#
#
#
# Elastic Compliance Matrix: (Units=1/GPa)
#
#
# Indices 1 2 3 4 5 6 
#
# 1 0.007759 0.000589 -0.002476 0.000000 0.000000 0.000000
# 2 0.000589 0.005729 -0.002283 0.000000 0.000000 0.000000
# 3 -0.002476 -0.002283 0.006214 0.000000 0.000000 0.000000
# 4 0.000000 0.000000 0.000000 0.022117 0.000000 0.000000
# 5 0.000000 0.000000 0.000000 0.000000 0.013559 0.000000
# 6 0.000000 0.000000 0.000000 0.000000 0.000000 2.585309
#
#
# Mechanical properties :
#
#
# Convention : Reuss Voigt Hill
#
# Bulk Modulus (GPa) = 88.01135 96.80867 92.41001
# Shear Modulus (GPa) = 1.88479 51.65133 26.76806
#
# Velocity S-wave (km/s) = 0.89242 4.67176 3.36316
# Velocity P-wave (km/s) = 6.18475 8.36702 7.35725
#
# Compressibility (1/GPa) = 0.01136217
#
# Stress axis : x y z
#
# Youngs Moduli (GPa) = 128.88898 174.54709 160.93087
#
# Poissons Ratio (x) = -0.10286 0.39845
# Poissons Ratio (y) = -0.07595 0.36742
# Poissons Ratio (z) = 0.31911 0.39851
#
# Static dielectric constant tensor:
#      x y z
#    x 3.957180 0.000000 0.000000 
#    y 0.000000 1.953300 0.000000 
#    z 0.000000 0.000000 2.029870 
# 
# From -- ./inp_files/12321.got.cif
#   From: 2010.05.17/outbox.cif.g08.bks.cpg/sg23_7_cif.got.tgz:12321.got - 2010.06.04 12:02:01.
