data_PCOD9331066
_publ_section_title
;
Structure prediction by ZEFSAII (Michael W. Deem and Ramdas Pophale) SiO2 
 PCOD9331066
Probable space group: I 2 2 2
;
_chemical_formula_sum "Si O2"
_cell_formula_units_Z 26
_cell_length_a 10.322860
_cell_length_b 12.427161
_cell_length_c 7.640591
_cell_angle_alpha 90.000000
_cell_angle_beta 90.000000
_cell_angle_gamma 90.000000
_cell_volume 980.164378
_symmetry_space_group_name_H-M "I 2 2 2"
_symmetry_group_IT_number 23
_symmetry_cell_setting 'orthorhombic'
loop_
_space_group_symop_operation_xyz
x,y,z
-x,-y,z
x,-y,-z
-x,y,-z
1/2+x,1/2+y,1/2+z
1/2-x,1/2-y,1/2+z
1/2+x,1/2-y,1/2-z
1/2-x,1/2+y,1/2-z
loop_
_atom_site_type_symbol
_atom_site_label
_atom_site_fract_x
_atom_site_fract_y
_atom_site_fract_z
Si Si1 0.853157 0.191639 0.524719
Si Si2 0.500000 0.000000 0.000000
Si Si3 0.877975 0.185040 0.902122
Si Si4 0.656399 0.924104 0.667830
O O1 0.841377 0.136556 0.714451
O O2 0.750477 0.289202 0.513104
O O3 0.804754 0.114044 0.370032
O O4 0.000000 0.226072 0.500000
O O5 0.607262 0.029385 0.151739
O O6 0.917085 0.308617 0.850495
O O7 0.000000 0.135887 0.000000
O O8 0.631024 0.000000 0.500000
#
# Coordination Sequence:
#
# PCOD9331066 Si02
#       4
#     8   2   8   8
#     4  10  23  40  65 102 141 178 228 293 349 409
#     4  12  22  44  76 100 132 192 236 302 344 402
#     4  10  21  39  68  98 137 179 233 286 339 410
#     4  10  25  43  68 104 140 178 240 289 342 417
#
# _framework density 26.526163
#
# number of rings (size 3 to 8) (size 9 to 14) (size 15 to 20)
#    1.846    0.000    0.000    4.154    2.154    3.077 
#    0.000    0.000    0.000    1.846    0.000    0.000 
#    0.000    0.000    0.000    0.000    0.000    0.000 
#
# Total GULP energy -72398.905015 kJ/mol
# GULP energy per Si atom -5569.146540 kJ/mol
# Density = 2.646579 g / cm^3
# Si number density = 26.526163 Si / 1000 Ang^3
#
#
#
# Elastic Constant Matrix: (Units=GPa)
#
#
# Indices 1 2 3 4 5 6 
#
# 1 231.1420 -2.3817 111.6717 0.0000 0.0000 0.0000
# 2 -2.3817 49.7124 52.2828 0.0000 0.0000 0.0000
# 3 111.6717 52.2828 258.3811 0.0000 0.0000 0.0000
# 4 0.0000 0.0000 0.0000 37.6736 0.0000 0.0000
# 5 0.0000 0.0000 0.0000 0.0000 63.4140 0.0000
# 6 0.0000 0.0000 0.0000 0.0000 0.0000 5.8751
#
#
#
# Elastic Compliance Matrix: (Units=1/GPa)
#
#
# Indices 1 2 3 4 5 6 
#
# 1 0.005990 0.003824 -0.003363 0.000000 0.000000 0.000000
# 2 0.003824 0.027994 -0.007317 0.000000 0.000000 0.000000
# 3 -0.003363 -0.007317 0.006804 0.000000 0.000000 0.000000
# 4 0.000000 0.000000 0.000000 0.026544 0.000000 0.000000
# 5 0.000000 0.000000 0.000000 0.000000 0.015769 0.000000
# 6 0.000000 0.000000 0.000000 0.000000 0.000000 0.170209
#
#
# Mechanical properties :
#
#
# Convention : Reuss Voigt Hill
#
# Bulk Modulus (GPa) = 36.93252 95.82014 66.37633
# Shear Modulus (GPa) = 18.11274 46.57005 32.34140
#
# Velocity S-wave (km/s) = 2.61593 4.19457 3.49553
# Velocity P-wave (km/s) = 4.80389 7.72402 6.43187
#
# Compressibility (1/GPa) = 0.02707641
#
# Stress axis : x y z
#
# Youngs Moduli (GPa) = 166.93443 35.72147 146.96764
#
# Poissons Ratio (x) = -0.13658 0.49421
# Poissons Ratio (y) = -0.63829 1.07538
# Poissons Ratio (z) = 0.56135 0.26138
#
# Static dielectric constant tensor:
#      x y z
#    x 2.094490 0.000000 0.000000 
#    y 0.000000 2.168630 0.000000 
#    z 0.000000 0.000000 2.115110 
# 
# From -- ./inp_files/1161.got.cif
#   From: 2010.05.17/outbox.cif.g08.bks.cpg/sg23_1_cif.got.tgz:1161.got - 2010.06.04 12:02:01.
