data_PCOD9331113
_publ_section_title
;
Structure prediction by ZEFSAII (Michael W. Deem and Ramdas Pophale) SiO2 
 PCOD9331113
Probable space group: I 2 2 2
;
_chemical_formula_sum "Si O2"
_cell_formula_units_Z 64
_cell_length_a 8.414858
_cell_length_b 29.152847
_cell_length_c 12.184523
_cell_angle_alpha 90.000000
_cell_angle_beta 90.000000
_cell_angle_gamma 90.000000
_cell_volume 2989.071455
_symmetry_space_group_name_H-M "I 2 2 2"
_symmetry_group_IT_number 23
_symmetry_cell_setting 'orthorhombic'
loop_
_space_group_symop_operation_xyz
x,y,z
-x,-y,z
x,-y,-z
-x,y,-z
1/2+x,1/2+y,1/2+z
1/2-x,1/2-y,1/2+z
1/2+x,1/2-y,1/2-z
1/2-x,1/2+y,1/2-z
loop_
_atom_site_type_symbol
_atom_site_label
_atom_site_fract_x
_atom_site_fract_y
_atom_site_fract_z
Si Si1 0.114262 0.271616 0.266200
Si Si2 0.880046 0.036946 0.701382
Si Si3 0.136628 0.100140 0.808535
Si Si4 0.274516 0.813519 0.815896
Si Si5 0.819534 0.643846 0.113285
Si Si6 0.821357 0.383209 0.124057
Si Si7 0.817659 0.484033 0.618020
Si Si8 0.843632 0.189292 0.050575
O O1 0.135968 0.219977 0.227009
O O2 0.154863 0.306228 0.166239
O O3 0.235741 0.281967 0.365909
O O4 0.937469 0.284995 0.301576
O O5 0.773495 0.069201 0.624756
O O6 0.987242 0.068433 0.781848
O O7 0.764767 0.009072 0.780834
O O8 0.000000 0.000000 0.647772
O O9 0.195348 0.118625 0.691105
O O10 0.275809 0.069359 0.863463
O O11 0.103284 0.143590 0.884991
O O12 0.279674 0.856613 0.735514
O O13 0.255659 0.824653 0.943121
O O14 0.986645 0.616109 0.122493
O O15 0.775138 0.644496 0.985807
O O16 0.751357 0.500000 0.500000
O O17 0.000000 0.500000 0.619465
O O18 0.000000 0.213273 0.000000
#
# Coordination Sequence:
#
# PCOD9331113 Si02
#       8
#     8   8   8   8   8   8   8   8
#     4  10  23  42  61  95 127 164 212 261 320 371
#     4  10  22  39  62  92 125 159 208 264 315 378
#     4  10  22  39  60  90 127 159 205 256 314 372
#     4  11  23  39  65  93 126 163 212 262 315 383
#     4   9  21  42  64  88 126 168 212 258 307 388
#     4  10  21  40  66  90 120 171 212 257 318 374
#     4  10  22  38  59  88 120 163 201 257 314 377
#     4  11  23  39  62  90 125 169 205 257 310 372
#
# _framework density 21.411332000000002
#
# number of rings (size 3 to 8) (size 9 to 14) (size 15 to 20)
#    0.000    1.875    0.000    2.625    5.250    3.250 
#    4.500    4.375    0.000    6.750    0.000    0.000 
#    0.000    0.000    0.000    0.000    0.000    0.000 
#
# Total GULP energy -178813.185072 kJ/mol
# GULP energy per Si atom -5587.912034 kJ/mol
# Density = 2.136260 g / cm^3
# Si number density = 21.411332 Si / 1000 Ang^3
#
#
#
# Elastic Constant Matrix: (Units=GPa)
#
#
# Indices 1 2 3 4 5 6 
#
# 1 54.0333 14.9995 10.4134 -0.0001 0.0000 0.0000
# 2 14.9995 43.8775 3.2777 -0.0001 -0.0001 0.0000
# 3 10.4134 3.2777 115.8360 -0.0005 -0.0003 -0.0002
# 4 -0.0001 -0.0001 -0.0005 17.6905 -0.0002 0.0000
# 5 0.0000 -0.0001 -0.0003 -0.0002 19.5305 -0.0001
# 6 0.0000 0.0000 -0.0002 0.0000 -0.0001 23.5248
#
#
#
# Elastic Compliance Matrix: (Units=1/GPa)
#
#
# Indices 1 2 3 4 5 6 
#
# 1 0.020765 -0.006974 -0.001669 0.000000 0.000000 0.000000
# 2 -0.006974 0.025181 -0.000086 0.000000 0.000000 0.000000
# 3 -0.001669 -0.000086 0.008785 0.000000 0.000000 0.000000
# 4 0.000000 0.000000 0.000000 0.056528 0.000001 0.000000
# 5 0.000000 0.000000 0.000000 0.000001 0.051202 0.000000
# 6 0.000000 0.000000 0.000000 0.000000 0.000000 0.042508
#
#
# Mechanical properties :
#
#
# Convention : Reuss Voigt Hill
#
# Bulk Modulus (GPa) = 26.82848 30.12533 28.47691
# Shear Modulus (GPa) = 21.29008 24.48622 22.88815
#
# Velocity S-wave (km/s) = 3.15673 3.38540 3.27306
# Velocity P-wave (km/s) = 5.08368 5.42048 5.25478
#
# Compressibility (1/GPa) = 0.03727382
#
# Stress axis : x y z
#
# Youngs Moduli (GPa) = 48.15865 39.71242 113.82533
#
# Poissons Ratio (x) = 0.27694 0.19002
# Poissons Ratio (y) = 0.33584 0.00974
# Poissons Ratio (z) = 0.08040 0.00340
#
# Static dielectric constant tensor:
#      x y z
#    x 1.813740 0.000000 0.000000 
#    y 0.000000 1.774260 0.000000 
#    z 0.000000 0.000000 1.748170 
# 
# From -- ./inp_files/14980.got.cif
#   From: 2010.05.17/outbox.cif.g08.bks.cpg/sg23_8_cif.got.tgz:14980.got - 2010.06.04 12:02:01.
