data_PCOD9331802
_publ_section_title
;
Structure prediction by ZEFSAII (Michael W. Deem and Ramdas Pophale) SiO2 
 PCOD9331802
Probable space group: I 2 2 2
;
_chemical_formula_sum "Si O2"
_cell_formula_units_Z 14
_cell_length_a 13.390910
_cell_length_b 8.455497
_cell_length_c 4.671991
_cell_angle_alpha 90.000000
_cell_angle_beta 90.000000
_cell_angle_gamma 90.000000
_cell_volume 528.994587
_symmetry_space_group_name_H-M "I 2 2 2"
_symmetry_group_IT_number 23
_symmetry_cell_setting 'orthorhombic'
loop_
_space_group_symop_operation_xyz
x,y,z
-x,-y,z
x,-y,-z
-x,y,-z
1/2+x,1/2+y,1/2+z
1/2-x,1/2-y,1/2+z
1/2+x,1/2-y,1/2-z
1/2-x,1/2+y,1/2-z
loop_
_atom_site_type_symbol
_atom_site_label
_atom_site_fract_x
_atom_site_fract_y
_atom_site_fract_z
Si Si1 0.500000 0.229498 0.500000
Si Si2 0.211376 0.839805 0.150594
Si Si3 0.500000 0.000000 0.000000
O O1 0.592156 0.326663 0.622873
O O2 0.543402 0.122180 0.237652
O O3 0.242521 0.806801 0.472763
O O4 0.246930 0.000000 0.000000
#
# Coordination Sequence:
#
# PCOD9331802 Si02
#       3
#     4   8   2
#     4  11  25  46  72 100 152 178 244 282 370 406
#     4  12  28  46  73 107 145 188 238 293 358 424
#     4  10  24  38  78 102 132 188 234 294 348 414
#
# _framework density 26.465304
#
# number of rings (size 3 to 8) (size 9 to 14) (size 15 to 20)
#    0.000    0.571    0.000    6.000   24.000    0.000 
#    0.000    8.571    0.000    0.000    0.000    0.000 
#    0.000    0.000    0.000    0.000    0.000    0.000 
#
# Total GULP energy -39149.599904 kJ/mol
# GULP energy per Si atom -5592.799986 kJ/mol
# Density = 2.640507 g / cm^3
# Si number density = 26.465304 Si / 1000 Ang^3
#
#
#
# Elastic Constant Matrix: (Units=GPa)
#
#
# Indices 1 2 3 4 5 6 
#
# 1 102.9391 -10.3106 -0.0629 0.0000 0.0000 0.0000
# 2 -10.3106 100.8463 29.2800 0.0000 0.0000 0.0000
# 3 -0.0629 29.2800 163.4916 0.0000 0.0000 0.0000
# 4 0.0000 0.0000 0.0000 40.2964 0.0000 0.0000
# 5 0.0000 0.0000 0.0000 0.0000 33.6013 0.0000
# 6 0.0000 0.0000 0.0000 0.0000 0.0000 11.1186
#
#
#
# Elastic Compliance Matrix: (Units=1/GPa)
#
#
# Indices 1 2 3 4 5 6 
#
# 1 0.009820 0.001058 -0.000186 0.000000 0.000000 0.000000
# 2 0.001058 0.010574 -0.001893 0.000000 0.000000 0.000000
# 3 -0.000186 -0.001893 0.006456 0.000000 0.000000 0.000000
# 4 0.000000 0.000000 0.000000 0.024816 0.000000 0.000000
# 5 0.000000 0.000000 0.000000 0.000000 0.029761 0.000000
# 6 0.000000 0.000000 0.000000 0.000000 0.000000 0.089939
#
#
# Mechanical properties :
#
#
# Convention : Reuss Voigt Hill
#
# Bulk Modulus (GPa) = 40.31002 45.01000 42.66001
# Shear Modulus (GPa) = 27.52130 40.22795 33.87463
#
# Velocity S-wave (km/s) = 3.22825 3.90298 3.58154
# Velocity P-wave (km/s) = 5.39998 6.11188 5.76693
#
# Compressibility (1/GPa) = 0.02480773
#
# Stress axis : x y z
#
# Youngs Moduli (GPa) = 101.82952 94.57206 154.90609
#
# Poissons Ratio (x) = -0.10005 0.02877
# Poissons Ratio (y) = -0.10773 0.29328
# Poissons Ratio (z) = 0.01891 0.17905
#
# Static dielectric constant tensor:
#      x y z
#    x 2.070590 0.000000 0.000000 
#    y 0.000000 2.065380 0.000000 
#    z 0.000000 0.000000 1.927200 
# 
# From -- ./inp_files/195.got.cif
#   From: 2010.05.17/outbox.cif.g08.bks.cpg/sg23_1_cif.got.tgz:195.got - 2010.06.04 12:02:01.
