data_PCOD9331532
_publ_section_title
;
Structure prediction by ZEFSAII (Michael W. Deem and Ramdas Pophale) SiO2 
 PCOD9331532
Probable space group: I 2 2 2
;
_chemical_formula_sum "Si O2"
_cell_formula_units_Z 40
_cell_length_a 6.444115
_cell_length_b 15.871559
_cell_length_c 19.458654
_cell_angle_alpha 90.000000
_cell_angle_beta 90.000000
_cell_angle_gamma 90.000000
_cell_volume 1990.195160
_symmetry_space_group_name_H-M "I 2 2 2"
_symmetry_group_IT_number 23
_symmetry_cell_setting 'orthorhombic'
loop_
_space_group_symop_operation_xyz
x,y,z
-x,-y,z
x,-y,-z
-x,y,-z
1/2+x,1/2+y,1/2+z
1/2-x,1/2-y,1/2+z
1/2+x,1/2-y,1/2-z
1/2-x,1/2+y,1/2-z
loop_
_atom_site_type_symbol
_atom_site_label
_atom_site_fract_x
_atom_site_fract_y
_atom_site_fract_z
Si Si1 0.204050 0.140845 0.720148
Si Si2 0.500000 0.000000 0.708872
Si Si3 0.118426 0.920611 0.928069
Si Si4 0.500000 0.000000 0.000000
Si Si5 0.500000 0.500000 0.000000
Si Si6 0.314664 0.389073 0.879719
Si Si7 0.533809 0.259000 0.650002
O O1 0.356886 0.194833 0.672944
O O2 0.132042 0.199161 0.782307
O O3 0.012734 0.115046 0.671341
O O4 0.341576 0.062195 0.747470
O O5 0.353783 0.944136 0.660696
O O6 0.078485 0.835030 0.888754
O O7 0.350497 0.945533 0.950335
O O8 0.000000 0.000000 0.892910
O O9 0.000000 0.910362 0.000000
O O10 0.372012 0.561935 0.050590
O O11 0.211307 0.296298 0.888175
#
# Coordination Sequence:
#
# PCOD9331532 Si02
#       7
#     8   4   8   2   2   8   8
#     4  11  22  43  65  99 137 173 233 279 335 413
#     4  10  22  43  69  92 133 179 226 278 336 414
#     4   9  21  42  65  97 128 168 222 274 340 415
#     4   8  18  44  68  90 134 166 222 286 326 438
#     4  12  24  46  74  96 146 190 242 286 358 428
#     4  11  24  44  66  98 135 184 233 287 343 413
#     4  11  24  42  68  99 139 179 224 286 344 409
#
# _framework density 20.098531000000001
#
# number of rings (size 3 to 8) (size 9 to 14) (size 15 to 20)
#    0.000    1.800    4.000    0.000    0.000    6.800 
#    0.000    3.000    0.000    0.000    0.000    0.000 
#    0.000    0.000    0.000    0.000    0.000    0.000 
#
# Total GULP energy -111580.651740 kJ/mol
# GULP energy per Si atom -5579.032587 kJ/mol
# Density = 2.005279 g / cm^3
# Si number density = 20.098531 Si / 1000 Ang^3
#
#
#
# Elastic Constant Matrix: (Units=GPa)
#
#
# Indices 1 2 3 4 5 6 
#
# 1 150.3715 74.8849 41.5526 0.0000 0.0000 0.0000
# 2 74.8849 135.8205 36.5270 0.0000 0.0000 0.0000
# 3 41.5526 36.5270 53.9866 0.0000 0.0000 0.0000
# 4 0.0000 0.0000 0.0000 45.0311 0.0000 0.0000
# 5 0.0000 0.0000 0.0000 0.0000 10.1186 0.0000
# 6 0.0000 0.0000 0.0000 0.0000 0.0000 29.9391
#
#
#
# Elastic Compliance Matrix: (Units=1/GPa)
#
#
# Indices 1 2 3 4 5 6 
#
# 1 0.010132 -0.004265 -0.004913 0.000000 0.000000 0.000000
# 2 -0.004265 0.010796 -0.004022 0.000000 0.000000 0.000000
# 3 -0.004913 -0.004022 0.025025 0.000000 0.000000 0.000000
# 4 0.000000 0.000000 0.000000 0.022207 0.000000 0.000000
# 5 0.000000 0.000000 0.000000 0.000000 0.098828 0.000000
# 6 0.000000 0.000000 0.000000 0.000000 0.000000 0.033401
#
#
# Mechanical properties :
#
#
# Convention : Reuss Voigt Hill
#
# Bulk Modulus (GPa) = 51.13951 71.78971 61.46461
# Shear Modulus (GPa) = 21.43121 29.49870 25.46496
#
# Velocity S-wave (km/s) = 3.26898 3.83522 3.56336
# Velocity P-wave (km/s) = 6.30460 7.44368 6.89769
#
# Compressibility (1/GPa) = 0.01955435
#
# Stress axis : x y z
#
# Youngs Moduli (GPa) = 98.70090 92.62939 39.95969
#
# Poissons Ratio (x) = 0.39506 0.19630
# Poissons Ratio (y) = 0.42095 0.16070
# Poissons Ratio (z) = 0.48487 0.37252
#
# Static dielectric constant tensor:
#      x y z
#    x 1.729450 0.000000 0.000000 
#    y 0.000000 1.805790 0.000000 
#    z 0.000000 0.000000 1.691650 
# 
# From -- ./inp_files/27605.got.cif
#   From: 2010.05.17/outbox.cif.g08.bks.cpg/sg23_14_cif.got.tgz:27605.got - 2010.06.04 12:02:01.
