data_PCOD9331848
_publ_section_title
;
Structure prediction by ZEFSAII (Michael W. Deem and Ramdas Pophale) SiO2 
 PCOD9331848
Probable space group: I 2 2 2
;
_chemical_formula_sum "Si O2"
_cell_formula_units_Z 24
_cell_length_a 8.288750
_cell_length_b 21.975265
_cell_length_c 4.694739
_cell_angle_alpha 90.000000
_cell_angle_beta 90.000000
_cell_angle_gamma 90.000000
_cell_volume 855.134868
_symmetry_space_group_name_H-M "I 2 2 2"
_symmetry_group_IT_number 23
_symmetry_cell_setting 'orthorhombic'
loop_
_space_group_symop_operation_xyz
x,y,z
-x,-y,z
x,-y,-z
-x,y,-z
1/2+x,1/2+y,1/2+z
1/2-x,1/2-y,1/2+z
1/2+x,1/2-y,1/2-z
1/2-x,1/2+y,1/2-z
loop_
_atom_site_type_symbol
_atom_site_label
_atom_site_fract_x
_atom_site_fract_y
_atom_site_fract_z
Si Si1 0.166818 0.223544 0.387135
Si Si2 0.000000 0.000000 0.000000
Si Si3 0.000000 0.500000 0.000000
Si Si4 0.153654 0.882528 0.195848
Si Si5 0.000000 0.588414 0.500000
O O1 0.197361 0.240389 0.063915
O O2 0.165243 0.154639 0.509447
O O3 0.000000 0.249660 0.500000
O O4 0.109764 0.045255 0.807412
O O5 0.064748 0.547891 0.234044
O O6 0.337270 0.877641 0.088201
O O7 0.000000 0.860963 0.000000
#
# Coordination Sequence:
#
# PCOD9331848 Si02
#       5
#     8   2   2   8   4
#     4  12  28  54  85 122 169 219 290 359 428 509
#     4   8  20  46  78 122 172 212 270 348 422 520
#     4  10  24  42  70 108 156 212 272 322 394 500
#     4  10  24  50  81 123 163 221 277 349 429 507
#     4  11  24  48  72 112 164 212 280 339 408 506
#
# _framework density 28.065747999999999
#
# number of rings (size 3 to 8) (size 9 to 14) (size 15 to 20)
#    1.000    0.333    0.000    5.000    2.333    5.333 
#    6.000    1.667    0.000    0.000    0.000    0.000 
#    0.000    0.000    0.000    0.000    0.000    0.000 
#
# Total GULP energy -66988.802568 kJ/mol
# GULP energy per Si atom -5582.400214 kJ/mol
# Density = 2.800187 g / cm^3
# Si number density = 28.065748 Si / 1000 Ang^3
#
#
#
# Elastic Constant Matrix: (Units=GPa)
#
#
# Indices 1 2 3 4 5 6 
#
# 1 182.6707 36.9686 19.0717 0.0030 0.0198 -0.0053
# 2 36.9686 164.0333 28.1041 0.0123 0.0101 -0.0036
# 3 19.0717 28.1041 142.8043 0.0299 0.0319 -0.0148
# 4 0.0030 0.0123 0.0299 40.6359 -0.0032 0.0016
# 5 0.0198 0.0101 0.0319 -0.0032 49.2953 0.0069
# 6 -0.0053 -0.0036 -0.0148 0.0016 0.0069 37.7392
#
#
#
# Elastic Compliance Matrix: (Units=1/GPa)
#
#
# Indices 1 2 3 4 5 6 
#
# 1 0.005775 -0.001210 -0.000533 0.000000 -0.000002 0.000000
# 2 -0.001210 0.006563 -0.001130 -0.000001 0.000000 0.000000
# 3 -0.000533 -0.001130 0.007296 -0.000005 -0.000004 0.000003
# 4 0.000000 -0.000001 -0.000005 0.024609 0.000002 -0.000001
# 5 -0.000002 0.000000 -0.000004 0.000002 0.020286 -0.000004
# 6 0.000000 0.000000 0.000003 -0.000001 -0.000004 0.026498
#
#
# Mechanical properties :
#
#
# Convention : Reuss Voigt Hill
#
# Bulk Modulus (GPa) = 72.00790 73.08857 72.54823
# Shear Modulus (GPa) = 49.30892 52.55834 50.93363
#
# Velocity S-wave (km/s) = 4.19610 4.33215 4.26466
# Velocity P-wave (km/s) = 7.01348 7.14995 7.08204
#
# Compressibility (1/GPa) = 0.01388737
#
# Stress axis : x y z
#
# Youngs Moduli (GPa) = 173.16317 152.37742 137.05847
#
# Poissons Ratio (x) = 0.18440 0.07306
# Poissons Ratio (y) = 0.20956 0.15486
# Poissons Ratio (z) = 0.09231 0.17217
#
# Static dielectric constant tensor:
#      x y z
#    x 2.144640 0.000000 0.000010 
#    y 0.000000 2.289970 0.000000 
#    z 0.000010 0.000000 2.204510 
# 
# From -- ./inp_files/560.got.cif
#   From: 2010.05.17/outbox.cif.g08.bks.cpg/sg23_1_cif.got.tgz:560.got - 2010.06.04 12:02:01.
