data_PCOD9331574
_publ_section_title
;
Structure prediction by ZEFSAII (Michael W. Deem and Ramdas Pophale) SiO2 
 PCOD9331574
Probable space group: I 2 2 2
;
_chemical_formula_sum "Si O2"
_cell_formula_units_Z 40
_cell_length_a 7.237544
_cell_length_b 28.648442
_cell_length_c 9.343585
_cell_angle_alpha 90.000000
_cell_angle_beta 90.000000
_cell_angle_gamma 90.000000
_cell_volume 1937.339647
_symmetry_space_group_name_H-M "I 2 2 2"
_symmetry_group_IT_number 23
_symmetry_cell_setting 'orthorhombic'
loop_
_space_group_symop_operation_xyz
x,y,z
-x,-y,z
x,-y,-z
-x,y,-z
1/2+x,1/2+y,1/2+z
1/2-x,1/2-y,1/2+z
1/2+x,1/2-y,1/2-z
1/2-x,1/2+y,1/2-z
loop_
_atom_site_type_symbol
_atom_site_label
_atom_site_fract_x
_atom_site_fract_y
_atom_site_fract_z
Si Si1 0.760714 0.615417 0.366717
Si Si2 0.148600 0.215619 0.879275
Si Si3 0.530530 0.054792 0.666876
Si Si4 0.115361 0.196856 0.368711
Si Si5 0.827834 0.892164 0.194025
O O1 0.782747 0.671545 0.355014
O O2 0.897533 0.585884 0.268258
O O3 0.762067 0.605182 0.536369
O O4 0.548853 0.605536 0.319394
O O5 0.247579 0.263131 0.921275
O O6 0.031610 0.221892 0.735401
O O7 0.000000 0.201296 0.000000
O O8 0.500000 0.065782 0.500000
O O9 0.737832 0.067877 0.711437
O O10 0.500000 0.000000 0.689751
O O11 0.210642 0.156775 0.274795
O O12 0.000000 0.175755 0.500000
#
# Coordination Sequence:
#
# PCOD9331574 Si02
#       5
#     8   8   8   8   8
#     4  10  22  45  68  93 135 174 220 273 322 395
#     4  11  22  42  59  95 135 175 223 262 323 386
#     4  11  27  45  69 102 129 166 218 277 345 400
#     4  11  24  36  62  97 133 179 220 266 324 385
#     4  10  23  44  66  97 132 176 221 269 328 390
#
# _framework density 20.646868999999999
#
# number of rings (size 3 to 8) (size 9 to 14) (size 15 to 20)
#    0.000    1.400    4.000    1.800    8.400    3.200 
#    0.000    4.000    0.000    0.000    0.000    0.000 
#    0.000    0.000    0.000    0.000    0.000    0.000 
#
# Total GULP energy -111742.480966 kJ/mol
# GULP energy per Si atom -5587.124048 kJ/mol
# Density = 2.059988 g / cm^3
# Si number density = 20.646869 Si / 1000 Ang^3
#
#
#
# Elastic Constant Matrix: (Units=GPa)
#
#
# Indices 1 2 3 4 5 6 
#
# 1 44.3322 39.9743 36.7623 0.0000 0.0000 0.0000
# 2 39.9743 104.0366 52.6505 -0.0001 0.0000 0.0000
# 3 36.7623 52.6505 112.0150 -0.0002 0.0001 0.0001
# 4 0.0000 -0.0001 -0.0002 19.2251 0.0000 0.0000
# 5 0.0000 0.0000 0.0001 0.0000 30.4350 0.0000
# 6 0.0000 0.0000 0.0001 0.0000 0.0000 26.3423
#
#
#
# Elastic Compliance Matrix: (Units=1/GPa)
#
#
# Indices 1 2 3 4 5 6 
#
# 1 0.038803 -0.011107 -0.007514 0.000000 0.000000 0.000000
# 2 -0.011107 0.015791 -0.003777 0.000000 0.000000 0.000000
# 3 -0.007514 -0.003777 0.013169 0.000000 0.000000 0.000000
# 4 0.000000 0.000000 0.000000 0.052015 0.000000 0.000000
# 5 0.000000 0.000000 0.000000 0.000000 0.032857 0.000000
# 6 0.000000 0.000000 0.000000 0.000000 0.000000 0.037962
#
#
# Mechanical properties :
#
#
# Convention : Reuss Voigt Hill
#
# Bulk Modulus (GPa) = 43.54128 57.68423 50.61275
# Shear Modulus (GPa) = 20.57201 23.93360 22.25280
#
# Velocity S-wave (km/s) = 3.15996 3.40838 3.28652
# Velocity P-wave (km/s) = 5.86926 6.59458 6.24246
#
# Compressibility (1/GPa) = 0.02296671
#
# Stress axis : x y z
#
# Youngs Moduli (GPa) = 25.77122 63.32702 75.93620
#
# Poissons Ratio (x) = 0.70334 0.57061
# Poissons Ratio (y) = 0.28623 0.28683
# Poissons Ratio (z) = 0.19366 0.23920
#
# Static dielectric constant tensor:
#      x y z
#    x 1.780200 0.000000 0.000000 
#    y 0.000000 1.707460 0.000000 
#    z 0.000000 0.000000 1.756930 
# 
# From -- ./inp_files/6923.got.cif
#   From: 2010.05.17/outbox.cif.g08.bks.cpg/sg23_4_cif.got.tgz:6923.got - 2010.06.04 12:02:01.
