data_PCOD9331084
_publ_section_title
;
Structure prediction by ZEFSAII (Michael W. Deem and Ramdas Pophale) SiO2 
 PCOD9331084
Probable space group: I 2 2 2
;
_chemical_formula_sum "Si O2"
_cell_formula_units_Z 64
_cell_length_a 21.021306
_cell_length_b 8.076279
_cell_length_c 18.351753
_cell_angle_alpha 90.000000
_cell_angle_beta 90.000000
_cell_angle_gamma 90.000000
_cell_volume 3115.649270
_symmetry_space_group_name_H-M "I 2 2 2"
_symmetry_group_IT_number 23
_symmetry_cell_setting 'orthorhombic'
loop_
_space_group_symop_operation_xyz
x,y,z
-x,-y,z
x,-y,-z
-x,y,-z
1/2+x,1/2+y,1/2+z
1/2-x,1/2-y,1/2+z
1/2+x,1/2-y,1/2-z
1/2-x,1/2+y,1/2-z
loop_
_atom_site_type_symbol
_atom_site_label
_atom_site_fract_x
_atom_site_fract_y
_atom_site_fract_z
Si Si1 0.649717 0.315841 0.276246
Si Si2 0.338834 0.328609 0.455729
Si Si3 0.282770 0.152169 0.585402
Si Si4 0.937763 0.898144 0.842946
Si Si5 0.474765 0.810099 0.927030
Si Si6 0.984897 0.307984 0.727310
Si Si7 0.652130 0.301887 0.988958
Si Si8 0.774905 0.205849 0.626756
O O1 0.686118 0.233827 0.343988
O O2 0.615074 0.484220 0.304035
O O3 0.587898 0.214270 0.249969
O O4 0.698020 0.317898 0.207664
O O5 0.339895 0.500000 0.500000
O O6 0.328983 0.188257 0.517128
O O7 0.402617 0.310698 0.409390
O O8 0.280986 0.331090 0.396782
O O9 0.217327 0.228468 0.554716
O O10 0.259321 0.967130 0.603961
O O11 0.967629 0.776922 0.783731
O O12 0.000000 0.000000 0.868756
O O13 0.499837 0.734476 0.852441
O O14 0.400357 0.792371 0.942084
O O15 0.500000 0.000000 0.927075
O O16 0.500000 0.724781 0.000000
O O17 0.000000 0.500000 0.724989
O O18 0.639819 0.500000 0.000000
O O19 0.666788 0.249760 0.072178
#
# Coordination Sequence:
#
# PCOD9331084 Si02
#       8
#     8   8   8   8   8   8   8   8
#     4  11  23  43  65  97 138 177 224 271 349 406
#     4  11  22  44  67  98 132 169 229 280 342 396
#     4  10  23  43  64  99 134 172 223 287 330 408
#     4  10  24  44  67  95 136 180 226 279 335 409
#     4  10  21  40  61  93 131 175 213 269 337 384
#     4  10  24  44  64 101 134 174 230 283 327 407
#     4   9  20  40  62  89 127 169 226 266 324 403
#     4  10  24  41  66 100 133 174 218 278 345 405
#
# _framework density 20.541463
#
# number of rings (size 3 to 8) (size 9 to 14) (size 15 to 20)
#    0.000    1.875    1.250    1.875    7.000    0.500 
#   22.500    0.000    0.000    0.750    0.000    0.000 
#    0.000    0.000    0.000    0.000    0.000    0.000 
#
# Total GULP energy -178366.662523 kJ/mol
# GULP energy per Si atom -5573.958204 kJ/mol
# Density = 2.049471 g / cm^3
# Si number density = 20.541463 Si / 1000 Ang^3
#
#
#
# Elastic Constant Matrix: (Units=GPa)
#
#
# Indices 1 2 3 4 5 6 
#
# 1 99.8935 30.0140 94.8072 0.0000 0.0000 0.0000
# 2 30.0140 45.7955 36.3348 0.0000 0.0000 0.0000
# 3 94.8072 36.3348 177.1911 0.0000 0.0000 0.0000
# 4 0.0000 0.0000 0.0000 13.6222 0.0000 0.0000
# 5 0.0000 0.0000 0.0000 0.0000 145.1864 0.0000
# 6 0.0000 0.0000 0.0000 0.0000 0.0000 20.4777
#
#
#
# Elastic Compliance Matrix: (Units=1/GPa)
#
#
# Indices 1 2 3 4 5 6 
#
# 1 0.021621 -0.005962 -0.010346 0.000000 0.000000 0.000000
# 2 -0.005962 0.027723 -0.002495 0.000000 0.000000 0.000000
# 3 -0.010346 -0.002495 0.011691 0.000000 0.000000 0.000000
# 4 0.000000 0.000000 0.000000 0.073410 0.000000 0.000000
# 5 0.000000 0.000000 0.000000 0.000000 0.006888 0.000000
# 6 0.000000 0.000000 0.000000 0.000000 0.000000 0.048834
#
#
# Mechanical properties :
#
#
# Convention : Reuss Voigt Hill
#
# Bulk Modulus (GPa) = 42.68089 71.68800 57.18445
# Shear Modulus (GPa) = 21.22407 46.63887 33.93147
#
# Velocity S-wave (km/s) = 3.21788 4.77012 4.06871
# Velocity P-wave (km/s) = 5.88467 8.08169 7.06905
#
# Compressibility (1/GPa) = 0.02342969
#
# Stress axis : x y z
#
# Youngs Moduli (GPa) = 46.25098 36.07105 85.53598
#
# Poissons Ratio (x) = 0.21504 0.88496
# Poissons Ratio (y) = 0.27573 0.21342
# Poissons Ratio (z) = 0.47852 0.09000
#
# Static dielectric constant tensor:
#      x y z
#    x 1.792120 0.000000 0.000000 
#    y 0.000000 1.780890 0.000000 
#    z 0.000000 0.000000 1.754850 
# 
# From -- ./inp_files/25270.got.cif
#   From: 2010.05.17/outbox.cif.g08.bks.cpg/sg23_13_cif.got.tgz:25270.got - 2010.06.04 12:02:01.
