data_PCOD9331338
_publ_section_title
;
Structure prediction by ZEFSAII (Michael W. Deem and Ramdas Pophale) SiO2 
 PCOD9331338
Probable space group: I 2 2 2
;
_chemical_formula_sum "Si O2"
_cell_formula_units_Z 36
_cell_length_a 10.189992
_cell_length_b 18.727466
_cell_length_c 7.762244
_cell_angle_alpha 90.000000
_cell_angle_beta 90.000000
_cell_angle_gamma 90.000000
_cell_volume 1481.290204
_symmetry_space_group_name_H-M "I 2 2 2"
_symmetry_group_IT_number 23
_symmetry_cell_setting 'orthorhombic'
loop_
_space_group_symop_operation_xyz
x,y,z
-x,-y,z
x,-y,-z
-x,y,-z
1/2+x,1/2+y,1/2+z
1/2-x,1/2-y,1/2+z
1/2+x,1/2-y,1/2-z
1/2-x,1/2+y,1/2-z
loop_
_atom_site_type_symbol
_atom_site_label
_atom_site_fract_x
_atom_site_fract_y
_atom_site_fract_z
Si Si1 0.703772 0.340334 0.248696
Si Si2 0.278449 0.401529 0.090257
Si Si3 0.000000 0.671976 0.000000
Si Si4 0.149445 0.521577 0.303071
Si Si5 0.849160 0.209240 0.128859
O O1 0.826300 0.394058 0.290900
O O2 0.726678 0.262439 0.163909
O O3 0.649291 0.325872 0.439578
O O4 0.646221 0.386756 0.089574
O O5 0.129391 0.370595 0.055465
O O6 0.246194 0.477229 0.178158
O O7 0.346313 0.352051 0.232125
O O8 0.041648 0.729208 0.146176
O O9 0.174350 0.500000 0.500000
O O10 0.000000 0.500000 0.260544
#
# Coordination Sequence:
#
# PCOD9331338 Si02
#       5
#     8   8   4   8   8
#     4  11  21  38  61  85 131 167 207 262 312 390
#     4  11  22  40  61  93 131 164 214 261 326 391
#     4  10  22  38  67  91 130 176 210 264 332 387
#     4  11  22  36  61  98 132 168 209 268 346 396
#     4  11  21  39  59  92 124 166 221 260 314 386
#
# _framework density 24.303137
#
# number of rings (size 3 to 8) (size 9 to 14) (size 15 to 20)
#    0.000    1.111    6.667    3.333    0.000    0.889 
#    0.000    5.556    0.000    2.667    0.000    3.111 
#    0.000    0.000    0.000    0.000    0.000    0.000 
#
# Total GULP energy -100222.619205 kJ/mol
# GULP energy per Si atom -5567.923289 kJ/mol
# Density = 2.424782 g / cm^3
# Si number density = 24.303137 Si / 1000 Ang^3
#
#
#
# Elastic Constant Matrix: (Units=GPa)
#
#
# Indices 1 2 3 4 5 6 
#
# 1 42.1751 30.4225 14.0248 0.0001 0.0000 0.0000
# 2 30.4225 142.2545 55.8887 0.0001 0.0000 0.0000
# 3 14.0248 55.8887 195.1299 0.0012 -0.0002 0.0000
# 4 0.0001 0.0001 0.0012 47.8385 -0.0001 0.0000
# 5 0.0000 0.0000 -0.0002 -0.0001 23.3501 0.0000
# 6 0.0000 0.0000 0.0000 0.0000 0.0000 39.5030
#
#
#
# Elastic Compliance Matrix: (Units=1/GPa)
#
#
# Indices 1 2 3 4 5 6 
#
# 1 0.028055 -0.005868 -0.000336 0.000000 0.000000 0.000000
# 2 -0.005868 0.009148 -0.002198 0.000000 0.000000 0.000000
# 3 -0.000336 -0.002198 0.005779 0.000000 0.000000 0.000000
# 4 0.000000 0.000000 0.000000 0.020904 0.000000 0.000000
# 5 0.000000 0.000000 0.000000 0.000000 0.042826 0.000000
# 6 0.000000 0.000000 0.000000 0.000000 0.000000 0.025315
#
#
# Mechanical properties :
#
#
# Convention : Reuss Voigt Hill
#
# Bulk Modulus (GPa) = 38.20055 64.47017 51.33536
# Shear Modulus (GPa) = 31.73459 40.75323 36.24391
#
# Velocity S-wave (km/s) = 3.61748 4.09940 3.86596
# Velocity P-wave (km/s) = 5.76201 6.99942 6.41064
#
# Compressibility (1/GPa) = 0.02617763
#
# Stress axis : x y z
#
# Youngs Moduli (GPa) = 35.64417 109.30986 173.05203
#
# Poissons Ratio (x) = 0.64142 0.05810
# Poissons Ratio (y) = 0.20916 0.38045
# Poissons Ratio (z) = 0.01197 0.24032
#
# Static dielectric constant tensor:
#      x y z
#    x 2.117860 0.000000 0.000000 
#    y 0.000000 1.937660 0.000000 
#    z 0.000000 0.000000 1.984560 
# 
# From -- ./inp_files/8390.got.cif
#   From: 2010.05.17/outbox.cif.g08.bks.cpg/sg23_5_cif.got.tgz:8390.got - 2010.06.04 12:02:01.
