data_PCOD9331705
_publ_section_title
;
Structure prediction by ZEFSAII (Michael W. Deem and Ramdas Pophale) SiO2 
 PCOD9331705
Probable space group: I 2 2 2
;
_chemical_formula_sum "Si O2"
_cell_formula_units_Z 26
_cell_length_a 5.155584
_cell_length_b 26.924863
_cell_length_c 8.995314
_cell_angle_alpha 90.000000
_cell_angle_beta 90.000000
_cell_angle_gamma 90.000000
_cell_volume 1248.670056
_symmetry_space_group_name_H-M "I 2 2 2"
_symmetry_group_IT_number 23
_symmetry_cell_setting 'orthorhombic'
loop_
_space_group_symop_operation_xyz
x,y,z
-x,-y,z
x,-y,-z
-x,y,-z
1/2+x,1/2+y,1/2+z
1/2-x,1/2-y,1/2+z
1/2+x,1/2-y,1/2-z
1/2-x,1/2+y,1/2-z
loop_
_atom_site_type_symbol
_atom_site_label
_atom_site_fract_x
_atom_site_fract_y
_atom_site_fract_z
Si Si1 0.565513 0.169472 0.331046
Si Si2 0.500000 0.000000 0.000000
Si Si3 0.748164 0.278199 0.396201
Si Si4 0.742510 0.095535 0.096423
O O1 0.500000 0.156273 0.500000
O O2 0.712129 0.222457 0.334114
O O3 0.307176 0.183942 0.237425
O O4 0.722935 0.126491 0.247037
O O5 0.672602 0.036834 0.101059
O O6 0.500000 0.289014 0.500000
O O7 0.000000 0.277424 0.500000
O O8 0.500000 0.115353 0.000000
O O9 0.000000 0.100755 0.000000
#
# Coordination Sequence:
#
# PCOD9331705 Si02
#       4
#     8   2   8   8
#     4  11  24  41  65 104 140 181 228 284 334 386
#     4   8  22  48  72  96 126 172 248 268 350 414
#     4  11  25  43  62  91 145 196 232 260 321 412
#     4  10  23  42  71  98 128 173 230 278 340 412
#
# _framework density 20.822153
#
# number of rings (size 3 to 8) (size 9 to 14) (size 15 to 20)
#    0.923    0.615    0.000    5.077    0.000   16.000 
#    0.000    0.769    0.000    0.000    8.000    0.000 
#    0.000    0.000    0.000    0.000    0.000    0.000 
#
# Total GULP energy -72630.865970 kJ/mol
# GULP energy per Si atom -5586.989690 kJ/mol
# Density = 2.077476 g / cm^3
# Si number density = 20.822153 Si / 1000 Ang^3
#
#
#
# Elastic Constant Matrix: (Units=GPa)
#
#
# Indices 1 2 3 4 5 6 
#
# 1 163.2937 43.2990 76.4301 0.0000 0.0000 0.0000
# 2 43.2990 169.1673 75.7597 0.0000 0.0000 0.0000
# 3 76.4301 75.7597 177.3533 -0.0002 0.0000 0.0000
# 4 0.0000 0.0000 -0.0002 48.1027 0.0000 0.0000
# 5 0.0000 0.0000 0.0000 0.0000 27.0931 0.0000
# 6 0.0000 0.0000 0.0000 0.0000 0.0000 -7.8037
#
#
#
# Elastic Compliance Matrix: (Units=1/GPa)
#
#
# Indices 1 2 3 4 5 6 
#
# 1 0.007720 -0.000601 -0.003070 0.000000 0.000000 0.000000
# 2 -0.000601 0.007356 -0.002883 0.000000 0.000000 0.000000
# 3 -0.003070 -0.002883 0.008193 0.000000 0.000000 0.000000
# 4 0.000000 0.000000 0.000000 0.020789 0.000000 0.000000
# 5 0.000000 0.000000 0.000000 0.000000 0.036910 0.000000
# 6 0.000000 0.000000 0.000000 0.000000 0.000000 -0.128144
#
#
# Mechanical properties :
#
#
# Convention : Reuss Voigt Hill
#
# Bulk Modulus (GPa) = 98.41986 100.08801 99.25394
# Shear Modulus (GPa) = -162.98195 34.43345 -64.27425
#
# Velocity S-wave (km/s) = -8.85682 4.07097 -5.56194
# Velocity P-wave (km/s) = 7.56449 8.38269 2.55421
#
# Compressibility (1/GPa) = 0.01016055
#
# Stress axis : x y z
#
# Youngs Moduli (GPa) = 129.52714 135.93501 122.05055
#
# Poissons Ratio (x) = 0.08170 0.37474
# Poissons Ratio (y) = 0.07785 0.35192
# Poissons Ratio (z) = 0.39769 0.39196
#
# Static dielectric constant tensor:
#      x y z
#    x 1.798690 0.000000 0.000000 
#    y 0.000000 1.800410 0.000000 
#    z 0.000000 0.000000 1.800580 
# 
# From -- ./inp_files/589.got.cif
#   From: 2010.05.17/outbox.cif.g08.bks.cpg/sg23_1_cif.got.tgz:589.got - 2010.06.04 12:02:01.
