data_PCOD9331119
_publ_section_title
;
Structure prediction by ZEFSAII (Michael W. Deem and Ramdas Pophale) SiO2 
 PCOD9331119
Probable space group: I 2 2 2
;
_chemical_formula_sum "Si O2"
_cell_formula_units_Z 48
_cell_length_a 16.417764
_cell_length_b 7.738216
_cell_length_c 15.095583
_cell_angle_alpha 90.000000
_cell_angle_beta 90.000000
_cell_angle_gamma 90.000000
_cell_volume 1917.806327
_symmetry_space_group_name_H-M "I 2 2 2"
_symmetry_group_IT_number 23
_symmetry_cell_setting 'orthorhombic'
loop_
_space_group_symop_operation_xyz
x,y,z
-x,-y,z
x,-y,-z
-x,y,-z
1/2+x,1/2+y,1/2+z
1/2-x,1/2-y,1/2+z
1/2+x,1/2-y,1/2-z
1/2-x,1/2+y,1/2-z
loop_
_atom_site_type_symbol
_atom_site_label
_atom_site_fract_x
_atom_site_fract_y
_atom_site_fract_z
Si Si1 0.242037 0.671321 0.465607
Si Si2 0.978633 0.302199 0.095561
Si Si3 0.581418 0.308070 0.043435
Si Si4 0.692856 0.336871 0.797371
Si Si5 0.709423 0.838584 0.373560
Si Si6 0.503842 0.214488 0.784060
O O1 0.284211 0.500000 0.500000
O O2 0.154692 0.688459 0.513796
O O3 0.232310 0.694301 0.362877
O O4 0.284592 0.820057 0.520775
O O5 0.887498 0.330134 0.132192
O O6 0.022268 0.231858 0.184006
O O7 0.000000 0.500000 0.085188
O O8 0.000000 0.218758 0.000000
O O9 0.559704 0.297037 0.146550
O O10 0.593517 0.500000 0.000000
O O11 0.500000 0.236659 0.000000
O O12 0.727187 0.312174 0.698506
O O13 0.730988 0.509455 0.840809
O O14 0.595006 0.295176 0.803760
O O15 0.500000 0.000000 0.791322
#
# Coordination Sequence:
#
# PCOD9331119 Si02
#       6
#     8   8   8   8   8   8
#     4  12  25  42  67  98 138 181 229 291 365 431
#     4   9  21  41  70 103 132 184 241 290 358 432
#     4  11  23  38  62  97 139 177 226 282 354 435
#     4  11  23  42  67 100 141 186 234 300 367 427
#     4  11  25  43  70 105 141 184 244 301 362 449
#     4  10  21  40  67 100 145 183 239 293 357 455
#
# _framework density 25.028596
#
# number of rings (size 3 to 8) (size 9 to 14) (size 15 to 20)
#    0.000    1.333    1.667    3.500    7.000    2.667 
#    0.000    0.000    0.000    0.500    0.000    0.000 
#    0.000    0.000    0.000    0.000    0.000    0.000 
#
# Total GULP energy -133613.402275 kJ/mol
# GULP energy per Si atom -5567.225095 kJ/mol
# Density = 2.497163 g / cm^3
# Si number density = 25.028596 Si / 1000 Ang^3
#
#
#
# Elastic Constant Matrix: (Units=GPa)
#
#
# Indices 1 2 3 4 5 6 
#
# 1 44.2517 9.0887 2.2156 0.0000 0.0000 0.0000
# 2 9.0887 110.6005 30.1679 0.0000 0.0000 0.0000
# 3 2.2156 30.1679 171.0804 0.0000 0.0000 0.0000
# 4 0.0000 0.0000 0.0000 31.8499 0.0000 0.0000
# 5 0.0000 0.0000 0.0000 0.0000-2402.0363 0.0000
# 6 0.0000 0.0000 0.0000 0.0000 0.0000 17.3201
#
#
#
# Elastic Compliance Matrix: (Units=1/GPa)
#
#
# Indices 1 2 3 4 5 6 
#
# 1 0.022986 -0.001899 0.000037 0.000000 0.000000 0.000000
# 2 -0.001899 0.009655 -0.001678 0.000000 0.000000 0.000000
# 3 0.000037 -0.001678 0.006141 0.000000 0.000000 0.000000
# 4 0.000000 0.000000 0.000000 0.031397 0.000000 0.000000
# 5 0.000000 0.000000 0.000000 0.000000 -0.000416 0.000000
# 6 0.000000 0.000000 0.000000 0.000000 0.000000 0.057736
#
#
# Mechanical properties :
#
#
# Convention : Reuss Voigt Hill
#
# Bulk Modulus (GPa) = 31.54336 45.43075 38.48706
# Shear Modulus (GPa) = 34.44795 -451.60922 -208.58063
#
# Velocity S-wave (km/s) = 3.71394 -13.44727 -9.13881
# Velocity P-wave (km/s) = 5.56968 14.93032 9.79523
#
# Compressibility (1/GPa) = 0.03170239
#
# Stress axis : x y z
#
# Youngs Moduli (GPa) = 43.50439 103.57004 162.85006
#
# Poissons Ratio (x) = 0.19669 -0.00606
# Poissons Ratio (y) = 0.08262 0.27326
# Poissons Ratio (z) = -0.00162 0.17379
#
# Static dielectric constant tensor:
#      x y z
#    x 1.887170 0.000000 0.000000 
#    y 0.000000 2.440680 0.000000 
#    z 0.000000 0.000000 1.870350 
# 
# From -- ./inp_files/22033.got.cif
#   From: 2010.05.17/outbox.cif.g08.bks.cpg/sg23_12_cif.got.tgz:22033.got - 2010.06.04 12:02:01.
