data_PCOD9331531
_publ_section_title
;
Structure prediction by ZEFSAII (Michael W. Deem and Ramdas Pophale) SiO2 
 PCOD9331531
Probable space group: I 2 2 2
;
_chemical_formula_sum "Si O2"
_cell_formula_units_Z 36
_cell_length_a 13.203432
_cell_length_b 13.004917
_cell_length_c 9.542356
_cell_angle_alpha 90.000000
_cell_angle_beta 90.000000
_cell_angle_gamma 90.000000
_cell_volume 1638.513533
_symmetry_space_group_name_H-M "I 2 2 2"
_symmetry_group_IT_number 23
_symmetry_cell_setting 'orthorhombic'
loop_
_space_group_symop_operation_xyz
x,y,z
-x,-y,z
x,-y,-z
-x,y,-z
1/2+x,1/2+y,1/2+z
1/2-x,1/2-y,1/2+z
1/2+x,1/2-y,1/2-z
1/2-x,1/2+y,1/2-z
loop_
_atom_site_type_symbol
_atom_site_label
_atom_site_fract_x
_atom_site_fract_y
_atom_site_fract_z
Si Si1 0.391130 0.152892 0.516588
Si Si2 0.343193 0.617218 0.990499
Si Si3 0.872315 0.676806 0.346039
Si Si4 0.000000 0.500000 0.500000
Si Si5 0.500000 0.500000 0.500000
Si Si6 0.639703 0.347043 0.664975
O O1 0.500000 0.099443 0.500000
O O2 0.278837 0.109691 0.481613
O O3 0.382074 0.185038 0.678894
O O4 0.400787 0.244562 0.405846
O O5 0.361071 0.653897 0.831956
O O6 0.382120 0.500000 0.000000
O O7 0.387099 0.708966 0.087694
O O8 0.938077 0.581650 0.404248
O O9 0.756682 0.645826 0.380210
O O10 0.572367 0.435786 0.600902
#
# Coordination Sequence:
#
# PCOD9331531 Si02
#       6
#     8   8   8   2   2   8
#     4  10  22  43  68  99 134 180 232 283 335 416
#     4  10  24  45  69  99 141 181 221 292 350 404
#     4  10  25  46  67 100 138 177 235 288 347 411
#     4  12  26  44  72  94 132 192 228 294 352 410
#     4  12  22  36  70  94 126 184 228 268 352 408
#     4  10  23  42  65  99 138 179 226 286 338 411
#
# _framework density 21.971132000000001
#
# number of rings (size 3 to 8) (size 9 to 14) (size 15 to 20)
#    0.000    1.778    1.111    0.667    6.222    4.000 
#   12.000    0.000    0.000    0.000    0.000    0.000 
#    0.000    0.000    0.000    0.000    0.000    0.000 
#
# Total GULP energy -100442.659639 kJ/mol
# GULP energy per Si atom -5580.147758 kJ/mol
# Density = 2.192113 g / cm^3
# Si number density = 21.971132 Si / 1000 Ang^3
#
#
#
# Elastic Constant Matrix: (Units=GPa)
#
#
# Indices 1 2 3 4 5 6 
#
# 1 123.0098 39.6778 -4.1314 0.0000 0.0000 0.0000
# 2 39.6778 177.5618 41.4801 0.0000 0.0000 0.0000
# 3 -4.1314 41.4801 31.0684 0.0000 0.0000 0.0000
# 4 0.0000 0.0000 0.0000 -3.4494 0.0000 0.0000
# 5 0.0000 0.0000 0.0000 0.0000 -36.7608 0.0000
# 6 0.0000 0.0000 0.0000 0.0000 0.0000 -659.2323
#
#
#
# Elastic Compliance Matrix: (Units=1/GPa)
#
#
# Indices 1 2 3 4 5 6 
#
# 1 0.009457 -0.003498 0.005928 0.000000 0.000000 0.000000
# 2 -0.003498 0.009478 -0.013120 0.000000 0.000000 0.000000
# 3 0.005928 -0.013120 0.050492 0.000000 0.000000 0.000000
# 4 0.000000 0.000000 0.000000 -0.289907 0.000000 0.000000
# 5 0.000000 0.000000 0.000000 0.000000 -0.027203 0.000000
# 6 0.000000 0.000000 0.000000 0.000000 0.000000 -0.001517
#
#
# Mechanical properties :
#
#
# Convention : Reuss Voigt Hill
#
# Bulk Modulus (GPa) = 20.81303 53.96589 37.38946
# Shear Modulus (GPa) = -23.60684 -122.91426 -73.26055
#
# Velocity S-wave (km/s) = -3.28143 -7.48765 -5.78069
# Velocity P-wave (km/s) = 2.20536 7.08080 5.24411
#
# Compressibility (1/GPa) = 0.04804683
#
# Stress axis : x y z
#
# Youngs Moduli (GPa) = 105.74371 105.50246 19.80511
#
# Poissons Ratio (x) = 0.36905 -0.11740
# Poissons Ratio (y) = 0.36989 0.25984
# Poissons Ratio (z) = -0.62682 1.38419
#
# Static dielectric constant tensor:
#      x y z
#    x 1.869090 0.000000 0.000000 
#    y 0.000000 1.885050 0.000000 
#    z 0.000000 0.000000 1.782770 
# 
# From -- ./inp_files/9515.got.cif
#   From: 2010.05.17/outbox.cif.g08.bks.cpg/sg23_5_cif.got.tgz:9515.got - 2010.06.04 12:02:01.
