data_PCOD9331377
_publ_section_title
;
Structure prediction by ZEFSAII (Michael W. Deem and Ramdas Pophale) SiO2 
 PCOD9331377
Probable space group: I 2 2 2
;
_chemical_formula_sum "Si O2"
_cell_formula_units_Z 38
_cell_length_a 9.751036
_cell_length_b 16.787440
_cell_length_c 11.996641
_cell_angle_alpha 90.000000
_cell_angle_beta 90.000000
_cell_angle_gamma 90.000000
_cell_volume 1963.789330
_symmetry_space_group_name_H-M "I 2 2 2"
_symmetry_group_IT_number 23
_symmetry_cell_setting 'orthorhombic'
loop_
_space_group_symop_operation_xyz
x,y,z
-x,-y,z
x,-y,-z
-x,y,-z
1/2+x,1/2+y,1/2+z
1/2-x,1/2-y,1/2+z
1/2+x,1/2-y,1/2-z
1/2-x,1/2+y,1/2-z
loop_
_atom_site_type_symbol
_atom_site_label
_atom_site_fract_x
_atom_site_fract_y
_atom_site_fract_z
Si Si1 0.522532 0.761955 0.683082
Si Si2 0.277101 0.767644 0.524883
Si Si3 0.500000 0.000000 0.000000
Si Si4 0.942845 0.083997 0.255205
Si Si5 0.500000 0.368029 0.000000
Si Si6 0.835213 0.375741 0.644001
O O1 0.378900 0.789524 0.627269
O O2 0.637876 0.773685 0.588702
O O3 0.508213 0.667844 0.711498
O O4 0.565839 0.815480 0.787960
O O5 0.238638 0.676776 0.549560
O O6 0.137011 0.816170 0.519886
O O7 0.587558 0.055033 0.081557
O O8 0.782661 0.091761 0.225529
O O9 0.969614 0.085252 0.387016
O O10 0.000000 0.000000 0.209044
#
# Coordination Sequence:
#
# PCOD9331377 Si02
#       6
#     8   8   2   8   4   8
#     4  10  22  43  68  93 130 176 218 270 331 391
#     4  10  22  39  69  98 124 170 230 263 317 402
#     4  12  30  40  64  98 138 168 228 272 336 400
#     4  11  25  41  65  98 135 171 220 279 332 387
#     4  12  20  40  69  95 130 168 224 274 320 401
#     4  11  24  44  66  96 132 177 220 271 334 392
#
# _framework density 19.350345999999998
#
# number of rings (size 3 to 8) (size 9 to 14) (size 15 to 20)
#    0.000    1.263    4.211    0.947    2.947    1.684 
#    0.000    0.000    0.000    0.000    0.000    0.000 
#    0.000    0.000    0.000    0.000    0.000    0.000 
#
# Total GULP energy -106073.994390 kJ/mol
# GULP energy per Si atom -5582.841810 kJ/mol
# Density = 1.930630 g / cm^3
# Si number density = 19.350346 Si / 1000 Ang^3
#
#
#
# Elastic Constant Matrix: (Units=GPa)
#
#
# Indices 1 2 3 4 5 6 
#
# 1 138.2372 76.2042 45.3770 0.0000 0.0000 0.0000
# 2 76.2042 120.9635 49.5374 -0.0001 0.0000 0.0000
# 3 45.3770 49.5374 78.1520 -0.0001 0.0000 0.0000
# 4 0.0000 -0.0001 -0.0001 31.7677 0.0000 0.0000
# 5 0.0000 0.0000 0.0000 0.0000 13.9343 0.0000
# 6 0.0000 0.0000 0.0000 0.0000 0.0000 25.8015
#
#
#
# Elastic Compliance Matrix: (Units=1/GPa)
#
#
# Indices 1 2 3 4 5 6 
#
# 1 0.011526 -0.006105 -0.002822 0.000000 0.000000 0.000000
# 2 -0.006105 0.014399 -0.005582 0.000000 0.000000 0.000000
# 3 -0.002822 -0.005582 0.017973 0.000000 0.000000 0.000000
# 4 0.000000 0.000000 0.000000 0.031479 0.000000 0.000000
# 5 0.000000 0.000000 0.000000 0.000000 0.071765 0.000000
# 6 0.000000 0.000000 0.000000 0.000000 0.000000 0.038758
#
#
# Mechanical properties :
#
#
# Convention : Reuss Voigt Hill
#
# Bulk Modulus (GPa) = 67.21279 75.50999 71.36139
# Shear Modulus (GPa) = 22.73987 25.38297 24.06142
#
# Velocity S-wave (km/s) = 3.43179 3.62575 3.53010
# Velocity P-wave (km/s) = 7.10725 7.52565 7.31944
#
# Compressibility (1/GPa) = 0.01487812
#
# Stress axis : x y z
#
# Youngs Moduli (GPa) = 86.76067 69.44852 55.64009
#
# Poissons Ratio (x) = 0.42400 0.15704
# Poissons Ratio (y) = 0.52970 0.31059
# Poissons Ratio (z) = 0.24487 0.38767
#
# Static dielectric constant tensor:
#      x y z
#    x 1.687020 0.000000 0.000000 
#    y 0.000000 1.675930 0.000000 
#    z 0.000000 0.000000 1.681880 
# 
# From -- ./inp_files/8227.got.cif
#   From: 2010.05.17/outbox.cif.g08.bks.cpg/sg23_5_cif.got.tgz:8227.got - 2010.06.04 12:02:01.
