data_PCOD9331824
_publ_section_title
;
Structure prediction by ZEFSAII (Michael W. Deem and Ramdas Pophale) SiO2 
 PCOD9331824
Probable space group: I 2 2 2
;
_chemical_formula_sum "Si O2"
_cell_formula_units_Z 56
_cell_length_a 22.842436
_cell_length_b 8.708596
_cell_length_c 14.159466
_cell_angle_alpha 90.000000
_cell_angle_beta 90.000000
_cell_angle_gamma 90.000000
_cell_volume 2816.679516
_symmetry_space_group_name_H-M "I 2 2 2"
_symmetry_group_IT_number 23
_symmetry_cell_setting 'orthorhombic'
loop_
_space_group_symop_operation_xyz
x,y,z
-x,-y,z
x,-y,-z
-x,y,-z
1/2+x,1/2+y,1/2+z
1/2-x,1/2-y,1/2+z
1/2+x,1/2-y,1/2-z
1/2-x,1/2+y,1/2-z
loop_
_atom_site_type_symbol
_atom_site_label
_atom_site_fract_x
_atom_site_fract_y
_atom_site_fract_z
Si Si1 0.313817 0.200061 0.215622
Si Si2 0.294143 0.841910 0.165778
Si Si3 0.000000 0.500000 0.181598
Si Si4 0.346625 0.668952 0.454925
Si Si5 0.274699 0.677819 0.969108
Si Si6 0.087225 0.761439 0.760863
Si Si7 0.584063 0.244572 0.634958
Si Si8 0.500000 0.500000 0.284090
O O1 0.261712 0.271135 0.279466
O O2 0.317624 0.295803 0.118771
O O3 0.373075 0.214703 0.276275
O O4 0.298226 0.024261 0.187137
O O5 0.354519 0.770576 0.203338
O O6 0.288173 0.788572 0.057507
O O7 0.955015 0.612513 0.236038
O O8 0.958998 0.394696 0.120872
O O9 0.333730 0.500000 0.500000
O O10 0.288005 0.761770 0.431470
O O11 0.389191 0.683366 0.364542
O O12 0.377057 0.745466 0.543552
O O13 0.272160 0.500000 0.000000
O O14 0.044845 0.896182 0.725731
O O15 0.541384 0.388400 0.654190
#
# Coordination Sequence:
#
# PCOD9331824 Si02
#       8
#     8   8   4   8   8   8   8   4
#     4  12  25  44  70  99 135 175 218 278 339 392
#     4  12  25  44  70  99 135 175 218 278 339 392
#     4  10  24  45  60  97 128 184 220 277 314 401
#     4  12  24  39  63  99 139 177 218 269 328 404
#     4  12  28  42  67 102 135 173 220 272 342 397
#     4  11  24  42  68  94 136 174 228 266 332 390
#     4  11  24  42  68  94 136 174 228 266 332 390
#     4  10  24  41  66  95 132 184 222 271 314 397
#
# _framework density 19.881565999999999
#
# number of rings (size 3 to 8) (size 9 to 14) (size 15 to 20)
#    0.000    0.571    5.714    2.143    6.000    3.429 
#    0.000    0.000    0.000    5.143    0.000    0.000 
#    0.000    0.000    0.000    0.000    0.000    0.000 
#
# Total GULP energy -156382.542814 kJ/mol
# GULP energy per Si atom -5585.090815 kJ/mol
# Density = 1.983632 g / cm^3
# Si number density = 19.881566 Si / 1000 Ang^3
#
#
#
# Elastic Constant Matrix: (Units=GPa)
#
#
# Indices 1 2 3 4 5 6 
#
# 1 70.0655 55.5989 34.5722 0.0000 0.0000 0.0000
# 2 55.5989 102.4257 23.2924 0.0000 0.0000 0.0000
# 3 34.5722 23.2924 82.9263 0.0000 0.0000 0.0000
# 4 0.0000 0.0000 0.0000 17.3224 0.0000 0.0000
# 5 0.0000 0.0000 0.0000 0.0000 5.0161 0.0000
# 6 0.0000 0.0000 0.0000 0.0000 0.0000 43.5759
#
#
#
# Elastic Compliance Matrix: (Units=1/GPa)
#
#
# Indices 1 2 3 4 5 6 
#
# 1 0.029682 -0.014205 -0.008384 0.000000 0.000000 0.000000
# 2 -0.014205 0.017228 0.001083 0.000000 0.000000 0.000000
# 3 -0.008384 0.001083 0.015250 0.000000 0.000000 0.000000
# 4 0.000000 0.000000 0.000000 0.057729 0.000000 0.000000
# 5 0.000000 0.000000 0.000000 0.000000 0.199358 0.000000
# 6 0.000000 0.000000 0.000000 0.000000 0.000000 0.022948
#
#
# Mechanical properties :
#
#
# Convention : Reuss Voigt Hill
#
# Bulk Modulus (GPa) = 52.22802 53.59386 52.91094
# Shear Modulus (GPa) = 12.76846 22.64648 17.70747
#
# Velocity S-wave (km/s) = 2.53697 3.37867 2.98761
# Velocity P-wave (km/s) = 5.90832 6.49890 6.21063
#
# Compressibility (1/GPa) = 0.01914681
#
# Stress axis : x y z
#
# Youngs Moduli (GPa) = 33.69084 58.04593 65.57327
#
# Poissons Ratio (x) = 0.82455 0.54979
# Poissons Ratio (y) = 0.47858 -0.07103
# Poissons Ratio (z) = 0.28248 -0.06288
#
# Static dielectric constant tensor:
#      x y z
#    x 1.679540 0.000000 0.000000 
#    y 0.000000 1.792400 0.000000 
#    z 0.000000 0.000000 1.658360 
# 
# From -- ./inp_files/22420.got.cif
#   From: 2010.05.17/outbox.cif.g08.bks.cpg/sg23_12_cif.got.tgz:22420.got - 2010.06.04 12:02:01.
