data_PCOD9331661
_publ_section_title
;
Structure prediction by ZEFSAII (Michael W. Deem and Ramdas Pophale) SiO2 
 PCOD9331661
Probable space group: I 2 2 2
;
_chemical_formula_sum "Si O2"
_cell_formula_units_Z 32
_cell_length_a 23.070929
_cell_length_b 7.977920
_cell_length_c 8.443500
_cell_angle_alpha 90.000000
_cell_angle_beta 90.000000
_cell_angle_gamma 90.000000
_cell_volume 1554.093942
_symmetry_space_group_name_H-M "I 2 2 2"
_symmetry_group_IT_number 23
_symmetry_cell_setting 'orthorhombic'
loop_
_space_group_symop_operation_xyz
x,y,z
-x,-y,z
x,-y,-z
-x,y,-z
1/2+x,1/2+y,1/2+z
1/2-x,1/2-y,1/2+z
1/2+x,1/2-y,1/2-z
1/2-x,1/2+y,1/2-z
loop_
_atom_site_type_symbol
_atom_site_label
_atom_site_fract_x
_atom_site_fract_y
_atom_site_fract_z
Si Si1 0.670351 0.627601 0.172193
Si Si2 0.295174 0.971715 0.674449
Si Si3 0.938038 0.938526 0.185200
Si Si4 0.884451 0.659329 0.391815
O O1 0.692719 0.784750 0.272563
O O2 0.727338 0.513037 0.167146
O O3 0.617704 0.536832 0.255134
O O4 0.642204 0.704359 0.012841
O O5 0.319678 0.000000 0.500000
O O6 0.329863 0.086928 0.795966
O O7 0.926149 0.752025 0.262109
O O8 0.000000 0.000000 0.250989
O O9 0.939758 0.000000 0.000000
O O10 0.907193 0.500000 0.500000
#
# Coordination Sequence:
#
# PCOD9331661 Si02
#       4
#     8   8   8   8
#     4  11  22  37  61  92 125 165 211 262 324 390
#     4  11  21  36  60  91 128 165 206 263 325 390
#     4  11  24  43  66  91 123 168 217 267 324 390
#     4  10  23  41  63  95 128 166 216 267 327 389
#
# _framework density 20.590776000000002
#
# number of rings (size 3 to 8) (size 9 to 14) (size 15 to 20)
#    0.000    1.250    0.000    6.750    0.000    5.000 
#    0.000    8.750    0.000   13.500    0.000    0.000 
#    0.000    0.000    0.000    0.000    0.000    0.000 
#
# Total GULP energy -89159.349936 kJ/mol
# GULP energy per Si atom -5572.459371 kJ/mol
# Density = 2.054391 g / cm^3
# Si number density = 20.590776 Si / 1000 Ang^3
#
#
#
# Elastic Constant Matrix: (Units=GPa)
#
#
# Indices 1 2 3 4 5 6 
#
# 1 101.1880 54.2948 24.8068 0.0000 0.0000 0.0000
# 2 54.2948 98.4660 38.6424 0.0000 0.0000 0.0000
# 3 24.8068 38.6424 106.8766 0.0000 0.0000 0.0000
# 4 0.0000 0.0000 0.0000 34.8892 0.0000 0.0000
# 5 0.0000 0.0000 0.0000 0.0000 31.9258 0.0000
# 6 0.0000 0.0000 0.0000 0.0000 0.0000 57.5710
#
#
#
# Elastic Compliance Matrix: (Units=1/GPa)
#
#
# Indices 1 2 3 4 5 6 
#
# 1 0.014062 -0.007543 -0.000536 0.000000 0.000000 0.000000
# 2 -0.007543 0.015881 -0.003991 0.000000 0.000000 0.000000
# 3 -0.000536 -0.003991 0.010924 0.000000 0.000000 0.000000
# 4 0.000000 0.000000 0.000000 0.028662 0.000000 0.000000
# 5 0.000000 0.000000 0.000000 0.000000 0.031323 0.000000
# 6 0.000000 0.000000 0.000000 0.000000 0.000000 0.017370
#
#
# Mechanical properties :
#
#
# Convention : Reuss Voigt Hill
#
# Bulk Modulus (GPa) = 59.78920 60.22429 60.00675
# Shear Modulus (GPa) = 33.79777 37.46298 35.63037
#
# Velocity S-wave (km/s) = 4.05582 4.27008 4.16433
# Velocity P-wave (km/s) = 7.14373 7.32278 7.23381
#
# Compressibility (1/GPa) = 0.01672543
#
# Stress axis : x y z
#
# Youngs Moduli (GPa) = 71.11602 62.96651 91.53975
#
# Poissons Ratio (x) = 0.47496 0.04911
# Poissons Ratio (y) = 0.53643 0.36536
# Poissons Ratio (z) = 0.03815 0.25132
#
# Static dielectric constant tensor:
#      x y z
#    x 1.658280 0.000000 0.000000 
#    y 0.000000 1.672060 0.000000 
#    z 0.000000 0.000000 1.814960 
# 
# From -- ./inp_files/6579.got.cif
#   From: 2010.05.17/outbox.cif.g08.bks.cpg/sg23_4_cif.got.tgz:6579.got - 2010.06.04 12:02:01.
