data_PCOD9331512
_publ_section_title
;
Structure prediction by ZEFSAII (Michael W. Deem and Ramdas Pophale) SiO2 
 PCOD9331512
Probable space group: I 2 2 2
;
_chemical_formula_sum "Si O2"
_cell_formula_units_Z 48
_cell_length_a 10.215301
_cell_length_b 16.105769
_cell_length_c 14.394246
_cell_angle_alpha 90.000000
_cell_angle_beta 90.000000
_cell_angle_gamma 90.000000
_cell_volume 2368.217327
_symmetry_space_group_name_H-M "I 2 2 2"
_symmetry_group_IT_number 23
_symmetry_cell_setting 'orthorhombic'
loop_
_space_group_symop_operation_xyz
x,y,z
-x,-y,z
x,-y,-z
-x,y,-z
1/2+x,1/2+y,1/2+z
1/2-x,1/2-y,1/2+z
1/2+x,1/2-y,1/2-z
1/2-x,1/2+y,1/2-z
loop_
_atom_site_type_symbol
_atom_site_label
_atom_site_fract_x
_atom_site_fract_y
_atom_site_fract_z
Si Si1 0.500000 0.500000 0.152468
Si Si2 0.958284 0.176731 0.258512
Si Si3 0.858075 0.596922 0.477258
Si Si4 0.612178 0.673399 0.566576
Si Si5 0.845270 0.680356 0.281202
Si Si6 0.305671 0.500000 0.000000
Si Si7 0.611963 0.134445 0.426865
O O1 0.449995 0.418137 0.205018
O O2 0.391643 0.536475 0.082883
O O3 0.806648 0.206464 0.243405
O O4 0.044415 0.168468 0.165458
O O5 0.051450 0.245984 0.308449
O O6 0.862101 0.500000 0.500000
O O7 0.747430 0.630666 0.545587
O O8 0.830650 0.619809 0.369772
O O9 0.000000 0.633076 0.500000
O O10 0.500000 0.638848 0.500000
O O11 0.637210 0.770324 0.546078
O O12 0.903513 0.638673 0.185786
O O13 0.226279 0.427454 0.048285
O O14 0.500000 0.107664 0.500000
#
# Coordination Sequence:
#
# PCOD9331512 Si02
#       7
#     4   8   8   8   8   4   8
#     4  11  26  40  65 104 140 176 235 300 362 421
#     4  11  25  44  71 106 139 191 238 298 363 430
#     4  11  27  46  66 102 143 191 237 299 364 425
#     4  10  22  42  71  96 134 179 240 292 351 427
#     4  11  25  48  71 102 142 186 249 291 369 441
#     4  11  23  42  64 100 137 175 224 298 362 421
#     4  10  23  44  67 102 134 184 234 290 366 429
#
# _framework density 20.268409999999999
#
# number of rings (size 3 to 8) (size 9 to 14) (size 15 to 20)
#    0.000    1.333    3.333    0.250    9.333    0.333 
#    6.000    0.000    0.000    0.000    0.000    0.000 
#    0.000    0.000    0.000    0.000    0.000    0.000 
#
# Total GULP energy -133610.077773 kJ/mol
# GULP energy per Si atom -5567.086574 kJ/mol
# Density = 2.022228 g / cm^3
# Si number density = 20.268410 Si / 1000 Ang^3
#
#
#
# Elastic Constant Matrix: (Units=GPa)
#
#
# Indices 1 2 3 4 5 6 
#
# 1 114.9219 24.8873 27.1128 0.0000 0.0000 0.0000
# 2 24.8873 63.1422 18.5096 0.0000 0.0000 0.0000
# 3 27.1128 18.5096 62.6681 0.0000 0.0000 0.0000
# 4 0.0000 0.0000 0.0000 18.6797 0.0000 0.0000
# 5 0.0000 0.0000 0.0000 0.0000 29.7460 0.0000
# 6 0.0000 0.0000 0.0000 0.0000 0.0000 33.0994
#
#
#
# Elastic Compliance Matrix: (Units=1/GPa)
#
#
# Indices 1 2 3 4 5 6 
#
# 1 0.010178 -0.002979 -0.003524 0.000000 0.000000 0.000000
# 2 -0.002979 0.018210 -0.004090 0.000000 0.000000 0.000000
# 3 -0.003524 -0.004090 0.018690 0.000000 0.000000 0.000000
# 4 0.000000 0.000000 0.000000 0.053534 0.000000 0.000000
# 5 0.000000 0.000000 0.000000 0.000000 0.033618 0.000000
# 6 0.000000 0.000000 0.000000 0.000000 0.000000 0.030212
#
#
# Mechanical properties :
#
#
# Convention : Reuss Voigt Hill
#
# Bulk Modulus (GPa) = 38.61994 42.41686 40.51840
# Shear Modulus (GPa) = 25.73906 27.65316 26.69611
#
# Velocity S-wave (km/s) = 3.56745 3.69772 3.63316
# Velocity P-wave (km/s) = 6.00537 6.26129 6.13467
#
# Compressibility (1/GPa) = 0.02589336
#
# Stress axis : x y z
#
# Youngs Moduli (GPa) = 98.25190 54.91419 53.50588
#
# Poissons Ratio (x) = 0.16357 0.18853
# Poissons Ratio (y) = 0.29266 0.21883
# Poissons Ratio (z) = 0.34620 0.22459
#
# Static dielectric constant tensor:
#      x y z
#    x 1.738740 0.000000 0.000000 
#    y 0.000000 1.727410 0.000000 
#    z 0.000000 0.000000 1.771760 
# 
# From -- ./inp_files/20033.got.cif
#   From: 2010.05.17/outbox.cif.g08.bks.cpg/sg23_11_cif.got.tgz:20033.got - 2010.06.04 12:02:01.
