data_PCOD9331970
_publ_section_title
;
Structure prediction by ZEFSAII (Michael W. Deem and Ramdas Pophale) SiO2 
 PCOD9331970
Probable space group: I 2 2 2
;
_chemical_formula_sum "Si O2"
_cell_formula_units_Z 56
_cell_length_a 15.841746
_cell_length_b 11.037545
_cell_length_c 15.085587
_cell_angle_alpha 90.000000
_cell_angle_beta 90.000000
_cell_angle_gamma 90.000000
_cell_volume 2637.774993
_symmetry_space_group_name_H-M "I 2 2 2"
_symmetry_group_IT_number 23
_symmetry_cell_setting 'orthorhombic'
loop_
_space_group_symop_operation_xyz
x,y,z
-x,-y,z
x,-y,-z
-x,y,-z
1/2+x,1/2+y,1/2+z
1/2-x,1/2-y,1/2+z
1/2+x,1/2-y,1/2-z
1/2-x,1/2+y,1/2-z
loop_
_atom_site_type_symbol
_atom_site_label
_atom_site_fract_x
_atom_site_fract_y
_atom_site_fract_z
Si Si1 0.767527 0.520961 0.300745
Si Si2 0.091999 0.487692 0.150788
Si Si3 0.526162 0.330773 0.897761
Si Si4 0.378514 0.111613 0.058137
Si Si5 0.407332 0.800123 0.501925
Si Si6 0.765639 0.253002 0.578659
Si Si7 0.636950 0.547545 0.834314
O O1 0.835339 0.509190 0.222391
O O2 0.804997 0.439735 0.379431
O O3 0.763807 0.658172 0.336805
O O4 0.678947 0.477513 0.260438
O O5 0.090412 0.595815 0.078325
O O6 0.000000 0.500000 0.194768
O O7 0.102631 0.367241 0.091851
O O8 0.553518 0.191487 0.889762
O O9 0.603258 0.420566 0.873732
O O10 0.446116 0.367712 0.837960
O O11 0.500000 0.353195 0.000000
O O12 0.337749 0.202877 0.987640
O O13 0.410641 0.000000 0.000000
O O14 0.500000 0.739667 0.500000
O O15 0.323175 0.730831 0.528757
O O16 0.792569 0.118025 0.607670
#
# Coordination Sequence:
#
# PCOD9331970 Si02
#       7
#     8   8   8   8   8   8   8
#     4  11  25  42  64  99 143 176 223 285 351 411
#     4   9  19  36  61  94 126 164 221 282 329 387
#     4  11  24  43  70 101 136 181 229 285 354 416
#     4  10  25  46  67  97 140 182 229 280 350 433
#     4   9  19  37  64  95 123 165 226 274 324 393
#     4  11  23  41  67  96 133 186 225 276 345 418
#     4  11  24  40  66 102 135 175 234 280 341 421
#
# _framework density 21.230014000000001
#
# number of rings (size 3 to 8) (size 9 to 14) (size 15 to 20)
#    0.000    1.714    2.857    1.714    4.000    1.429 
#    0.000    8.571    0.000    3.000    0.000    0.000 
#    0.000    0.000    0.000    0.000    0.000    0.000 
#
# Total GULP energy -156348.171968 kJ/mol
# GULP energy per Si atom -5583.863285 kJ/mol
# Density = 2.118169 g / cm^3
# Si number density = 21.230014 Si / 1000 Ang^3
#
#
#
# Elastic Constant Matrix: (Units=GPa)
#
#
# Indices 1 2 3 4 5 6 
#
# 1 125.4992 47.0478 43.5805 0.0000 0.0000 0.0000
# 2 47.0478 77.7218 28.2784 0.0000 0.0000 0.0000
# 3 43.5805 28.2784 73.1660 0.0000 0.0000 0.0000
# 4 0.0000 0.0000 0.0000 26.3012 0.0000 0.0000
# 5 0.0000 0.0000 0.0000 0.0000 -11.1272 0.0000
# 6 0.0000 0.0000 0.0000 0.0000 0.0000 7.6293
#
#
#
# Elastic Compliance Matrix: (Units=1/GPa)
#
#
# Indices 1 2 3 4 5 6 
#
# 1 0.011644 -0.005265 -0.004900 0.000000 0.000000 0.000000
# 2 -0.005265 0.017353 -0.003571 0.000000 0.000000 0.000000
# 3 -0.004900 -0.003571 0.017966 0.000000 0.000000 0.000000
# 4 0.000000 0.000000 0.000000 0.038021 0.000000 0.000000
# 5 0.000000 0.000000 0.000000 0.000000 -0.089870 0.000000
# 6 0.000000 0.000000 0.000000 0.000000 0.000000 0.131074
#
#
# Mechanical properties :
#
#
# Convention : Reuss Voigt Hill
#
# Bulk Modulus (GPa) = 51.30750 57.13337 54.22044
# Shear Modulus (GPa) = 31.21918 15.05935 23.13926
#
# Velocity S-wave (km/s) = 3.83890 2.66624 3.30499
# Velocity P-wave (km/s) = 6.62340 6.03726 6.33711
#
# Compressibility (1/GPa) = 0.01949033
#
# Stress axis : x y z
#
# Youngs Moduli (GPa) = 85.88236 57.62732 55.65936
#
# Poissons Ratio (x) = 0.30343 0.27276
# Poissons Ratio (y) = 0.45221 0.19873
# Poissons Ratio (z) = 0.42086 0.20576
#
# Static dielectric constant tensor:
#      x y z
#    x 1.812830 0.000000 0.000000 
#    y 0.000000 1.792810 0.000000 
#    z 0.000000 0.000000 1.742460 
# 
# From -- ./inp_files/21611.got.cif
#   From: 2010.05.17/outbox.cif.g08.bks.cpg/sg23_11_cif.got.tgz:21611.got - 2010.06.04 12:02:01.
