data_PCOD9331437
_publ_section_title
;
Structure prediction by ZEFSAII (Michael W. Deem and Ramdas Pophale) SiO2 
 PCOD9331437
Probable space group: I 2 2 2
;
_chemical_formula_sum "Si O2"
_cell_formula_units_Z 44
_cell_length_a 18.825455
_cell_length_b 5.269409
_cell_length_c 23.687498
_cell_angle_alpha 90.000000
_cell_angle_beta 90.000000
_cell_angle_gamma 90.000000
_cell_volume 2349.776635
_symmetry_space_group_name_H-M "I 2 2 2"
_symmetry_group_IT_number 23
_symmetry_cell_setting 'orthorhombic'
loop_
_space_group_symop_operation_xyz
x,y,z
-x,-y,z
x,-y,-z
-x,y,-z
1/2+x,1/2+y,1/2+z
1/2-x,1/2-y,1/2+z
1/2+x,1/2-y,1/2-z
1/2-x,1/2+y,1/2-z
loop_
_atom_site_type_symbol
_atom_site_label
_atom_site_fract_x
_atom_site_fract_y
_atom_site_fract_z
Si Si1 0.724590 0.056637 0.323035
Si Si2 0.571951 0.657321 0.075777
Si Si3 0.350572 0.000000 0.000000
Si Si4 0.285816 0.390925 0.936132
Si Si5 0.000000 0.000000 0.732809
Si Si6 0.500000 0.000000 0.841268
Si Si7 0.658315 0.559071 0.270899
O O1 0.731918 0.984903 0.388926
O O2 0.678476 0.832220 0.295618
O O3 0.799978 0.043393 0.289210
O O4 0.690174 0.329253 0.308642
O O5 0.500000 0.500000 0.075314
O O6 0.639520 0.488554 0.089357
O O7 0.561355 0.894622 0.117680
O O8 0.595920 0.778553 0.016875
O O9 0.300185 0.094305 0.949384
O O10 0.272649 0.500000 0.000000
O O11 0.015377 0.747416 0.695853
O O12 0.073648 0.042099 0.765207
#
# Coordination Sequence:
#
# PCOD9331437 Si02
#       7
#     8   8   4   8   4   4   8
#     4  10  22  41  61  90 124 161 203 248 321 366
#     4  11  23  37  49  85 116 173 206 252 301 338
#     4  10  24  35  56  78 126 161 228 254 300 355
#     4  10  23  38  58  86 121 165 212 263 300 378
#     4  12  24  42  62  95 117 152 216 252 318 370
#     4  12  24  35  58  84 122 158 199 256 294 360
#     4  10  23  40  65  88 121 162 199 261 307 377
#
# _framework density 18.725183999999999
#
# number of rings (size 3 to 8) (size 9 to 14) (size 15 to 20)
#    0.000    1.455    0.909    3.273    7.636   10.182 
#    0.000    0.000    0.000    0.000    0.000    3.818 
#    0.000    0.000    0.000    0.000    0.000    0.000 
#
# Total GULP energy -122682.086526 kJ/mol
# GULP energy per Si atom -5576.458478 kJ/mol
# Density = 1.868257 g / cm^3
# Si number density = 18.725184 Si / 1000 Ang^3
#
#
#
# Elastic Constant Matrix: (Units=GPa)
#
#
# Indices 1 2 3 4 5 6 
#
# 1 71.6673 -6.0636 9.2078 0.0000 0.0000 0.0000
# 2 -6.0636 75.4534 -5.2936 0.0000 0.0000 0.0000
# 3 9.2078 -5.2936 64.4193 0.0000 0.0000 0.0000
# 4 0.0000 0.0000 0.0000 19.0886 0.0000 0.0000
# 5 0.0000 0.0000 0.0000 0.0000 11.4937 0.0000
# 6 0.0000 0.0000 0.0000 0.0000 0.0000 13.1474
#
#
#
# Elastic Compliance Matrix: (Units=1/GPa)
#
#
# Indices 1 2 3 4 5 6 
#
# 1 0.014291 0.001011 -0.001960 0.000000 0.000000 0.000000
# 2 0.001011 0.013402 0.000957 0.000000 0.000000 0.000000
# 3 -0.001960 0.000957 0.015882 0.000000 0.000000 0.000000
# 4 0.000000 0.000000 0.000000 0.052387 0.000000 0.000000
# 5 0.000000 0.000000 0.000000 0.000000 0.087004 0.000000
# 6 0.000000 0.000000 0.000000 0.000000 0.000000 0.076061
#
#
# Mechanical properties :
#
#
# Convention : Reuss Voigt Hill
#
# Bulk Modulus (GPa) = 22.94073 23.02678 22.98376
# Shear Modulus (GPa) = 18.27886 22.99191 20.63538
#
# Velocity S-wave (km/s) = 3.12775 3.50788 3.32326
# Velocity P-wave (km/s) = 5.03206 5.36012 5.19868
#
# Compressibility (1/GPa) = 0.04359058
#
# Stress axis : x y z
#
# Youngs Moduli (GPa) = 69.97576 74.61804 62.96430
#
# Poissons Ratio (x) = -0.07544 0.12338
# Poissons Ratio (y) = -0.07074 -0.06024
# Poissons Ratio (z) = 0.13712 -0.07139
#
# Static dielectric constant tensor:
#      x y z
#    x 1.626490 0.000000 0.000000 
#    y 0.000000 1.742190 0.000000 
#    z 0.000000 0.000000 1.714390 
# 
# From -- ./inp_files/29561.got.cif
#   From: 2010.05.17/outbox.cif.g08.bks.cpg/sg23_15_cif.got.tgz:29561.got - 2010.06.04 12:02:01.
