data_PCOD9331730
_publ_section_title
;
Structure prediction by ZEFSAII (Michael W. Deem and Ramdas Pophale) SiO2 
 PCOD9331730
Probable space group: I 2 2 2
;
_chemical_formula_sum "Si O2"
_cell_formula_units_Z 26
_cell_length_a 7.373801
_cell_length_b 19.116591
_cell_length_c 9.556319
_cell_angle_alpha 90.000000
_cell_angle_beta 90.000000
_cell_angle_gamma 90.000000
_cell_volume 1347.077245
_symmetry_space_group_name_H-M "I 2 2 2"
_symmetry_group_IT_number 23
_symmetry_cell_setting 'orthorhombic'
loop_
_space_group_symop_operation_xyz
x,y,z
-x,-y,z
x,-y,-z
-x,y,-z
1/2+x,1/2+y,1/2+z
1/2-x,1/2-y,1/2+z
1/2+x,1/2-y,1/2-z
1/2-x,1/2+y,1/2-z
loop_
_atom_site_type_symbol
_atom_site_label
_atom_site_fract_x
_atom_site_fract_y
_atom_site_fract_z
Si Si1 0.828206 0.827156 0.798855
Si Si2 0.996754 0.424997 0.733413
Si Si3 0.000000 0.500000 0.000000
Si Si4 0.734317 0.309732 0.375187
O O1 0.706388 0.893955 0.757025
O O2 0.780893 0.764430 0.693865
O O3 0.044016 0.836443 0.810389
O O4 0.777776 0.804660 0.957512
O O5 0.081274 0.446203 0.885467
O O6 0.113666 0.365734 0.662474
O O7 0.000000 0.500000 0.658559
#
# Coordination Sequence:
#
# PCOD9331730 Si02
#       4
#     8   8   2   8
#     4  11  24  39  63  95 128 165 211 260 311 375
#     4  10  23  44  64  91 128 169 205 263 319 367
#     4   8  24  44  68  88 136 162 204 276 302 392
#     4  11  24  39  63  95 128 165 211 260 311 375
#
# _framework density 19.301047000000001
#
# number of rings (size 3 to 8) (size 9 to 14) (size 15 to 20)
#    0.923    0.615    3.077    0.923    4.308    3.692 
#    0.000    4.615    0.000    0.000    0.000    0.000 
#    0.000    0.000    0.000    0.000    0.000    0.000 
#
# Total GULP energy -72370.013409 kJ/mol
# GULP energy per Si atom -5566.924108 kJ/mol
# Density = 1.925712 g / cm^3
# Si number density = 19.301047 Si / 1000 Ang^3
#
#
#
# Elastic Constant Matrix: (Units=GPa)
#
#
# Indices 1 2 3 4 5 6 
#
# 1 78.5307 21.5372 -1.7432 0.0000 0.0000 0.0000
# 2 21.5372 110.2212 -0.6989 -0.0001 0.0000 0.0000
# 3 -1.7432 -0.6989 61.7192 0.0000 0.0000 0.0000
# 4 0.0000 -0.0001 0.0000 20.3222 0.0000 0.0000
# 5 0.0000 0.0000 0.0000 0.0000 17.5006 0.0000
# 6 0.0000 0.0000 0.0000 0.0000 0.0000 20.4413
#
#
#
# Elastic Compliance Matrix: (Units=1/GPa)
#
#
# Indices 1 2 3 4 5 6 
#
# 1 0.013462 -0.002628 0.000350 0.000000 0.000000 0.000000
# 2 -0.002628 0.009586 0.000034 0.000000 0.000000 0.000000
# 3 0.000350 0.000034 0.016213 0.000000 0.000000 0.000000
# 4 0.000000 0.000000 0.000000 0.049207 0.000000 0.000000
# 5 0.000000 0.000000 0.000000 0.000000 0.057141 0.000000
# 6 0.000000 0.000000 0.000000 0.000000 0.000000 0.048921
#
#
# Mechanical properties :
#
#
# Convention : Reuss Voigt Hill
#
# Bulk Modulus (GPa) = 28.75667 32.07348 30.41508
# Shear Modulus (GPa) = 23.74066 27.07787 25.40927
#
# Velocity S-wave (km/s) = 3.51097 3.74962 3.63226
# Velocity P-wave (km/s) = 5.60065 5.94977 5.77785
#
# Compressibility (1/GPa) = 0.03477454
#
# Stress axis : x y z
#
# Youngs Moduli (GPa) = 74.28051 104.31383 61.68003
#
# Poissons Ratio (x) = 0.27417 -0.02162
# Poissons Ratio (y) = 0.19523 -0.00212
# Poissons Ratio (z) = -0.02603 -0.00358
#
# Static dielectric constant tensor:
#      x y z
#    x 1.684960 0.000000 0.000000 
#    y 0.000000 1.656110 0.000000 
#    z 0.000000 0.000000 1.716860 
# 
# From -- ./inp_files/6440.got.cif
#   From: 2010.05.17/outbox.cif.g08.bks.cpg/sg23_4_cif.got.tgz:6440.got - 2010.06.04 12:02:01.
