data_PCOD9331171
_publ_section_title
;
Structure prediction by ZEFSAII (Michael W. Deem and Ramdas Pophale) SiO2 
 PCOD9331171
Probable space group: I 2 2 2
;
_chemical_formula_sum "Si O2"
_cell_formula_units_Z 34
_cell_length_a 18.592755
_cell_length_b 15.867289
_cell_length_c 4.968526
_cell_angle_alpha 90.000000
_cell_angle_beta 90.000000
_cell_angle_gamma 90.000000
_cell_volume 1465.797731
_symmetry_space_group_name_H-M "I 2 2 2"
_symmetry_group_IT_number 23
_symmetry_cell_setting 'orthorhombic'
loop_
_space_group_symop_operation_xyz
x,y,z
-x,-y,z
x,-y,-z
-x,y,-z
1/2+x,1/2+y,1/2+z
1/2-x,1/2-y,1/2+z
1/2+x,1/2-y,1/2-z
1/2-x,1/2+y,1/2-z
loop_
_atom_site_type_symbol
_atom_site_label
_atom_site_fract_x
_atom_site_fract_y
_atom_site_fract_z
Si Si1 0.167345 0.442979 0.738291
Si Si2 0.804781 0.241933 0.674034
Si Si3 0.169782 0.941686 0.763500
Si Si4 0.500000 0.000000 0.000000
Si Si5 0.568201 0.148670 0.377094
O O1 0.138362 0.500000 0.500000
O O2 0.247364 0.420497 0.650342
O O3 0.113828 0.375762 0.857244
O O4 0.179135 0.500000 0.000000
O O5 0.754422 0.238306 0.408644
O O6 0.850349 0.154663 0.706710
O O7 0.868690 0.310658 0.694938
O O8 0.166436 0.000000 0.500000
O O9 0.138204 0.000000 0.000000
O O10 0.531965 0.069868 0.219677
O O11 0.500000 0.199299 0.500000
#
# Coordination Sequence:
#
# PCOD9331171 Si02
#       5
#     8   8   8   2   8
#     4  10  22  37  64  93 138 188 235 288 349 435
#     4  12  27  47  72 110 150 201 260 324 378 445
#     4  10  21  41  69 102 135 182 245 312 375 428
#     4  12  30  52  70 116 156 224 240 288 402 496
#     4  12  29  46  72 107 163 202 256 302 381 476
#
# _framework density 23.19556
#
# number of rings (size 3 to 8) (size 9 to 14) (size 15 to 20)
#    0.000    0.941    2.353    3.176   16.471    1.882 
#    0.000    0.000    0.000    0.706    0.000    0.000 
#    0.000    0.000    0.000    0.000    0.000    0.000 
#
# Total GULP energy -94662.405755 kJ/mol
# GULP energy per Si atom -5568.376809 kJ/mol
# Density = 2.314277 g / cm^3
# Si number density = 23.195560 Si / 1000 Ang^3
#
#
#
# Elastic Constant Matrix: (Units=GPa)
#
#
# Indices 1 2 3 4 5 6 
#
# 1 68.7495 18.1634 5.3679 0.0000 0.0000 0.0000
# 2 18.1634 130.3163 32.9875 0.0000 0.0000 0.0000
# 3 5.3679 32.9875 142.8451 0.0000 0.0000 0.0000
# 4 0.0000 0.0000 0.0000 23.8209 0.0000 0.0000
# 5 0.0000 0.0000 0.0000 0.0000 11.3390 0.0000
# 6 0.0000 0.0000 0.0000 0.0000 0.0000 46.7612
#
#
#
# Elastic Compliance Matrix: (Units=1/GPa)
#
#
# Indices 1 2 3 4 5 6 
#
# 1 0.015103 -0.002083 -0.000086 0.000000 0.000000 0.000000
# 2 -0.002083 0.008437 -0.001870 0.000000 0.000000 0.000000
# 3 -0.000086 -0.001870 0.007436 0.000000 0.000000 0.000000
# 4 0.000000 0.000000 0.000000 0.041980 0.000000 0.000000
# 5 0.000000 0.000000 0.000000 0.000000 0.088191 0.000000
# 6 0.000000 0.000000 0.000000 0.000000 0.000000 0.021385
#
#
# Mechanical properties :
#
#
# Convention : Reuss Voigt Hill
#
# Bulk Modulus (GPa) = 43.67532 50.54984 47.11258
# Shear Modulus (GPa) = 25.22150 35.41037 30.31594
#
# Velocity S-wave (km/s) = 3.30106 3.91141 3.61913
# Velocity P-wave (km/s) = 5.77922 6.49916 6.14974
#
# Compressibility (1/GPa) = 0.02289623
#
# Stress axis : x y z
#
# Youngs Moduli (GPa) = 66.21352 118.52012 134.48584
#
# Poissons Ratio (x) = 0.24689 0.01163
# Poissons Ratio (y) = 0.13793 0.25151
# Poissons Ratio (z) = 0.00573 0.22165
#
# Static dielectric constant tensor:
#      x y z
#    x 2.296060 0.000000 0.000000 
#    y 0.000000 2.196230 0.000000 
#    z 0.000000 0.000000 1.938590 
# 
# From -- ./inp_files/3729.got.cif
#   From: 2010.05.17/outbox.cif.g08.bks.cpg/sg23_2_cif.got.tgz:3729.got - 2010.06.04 12:02:01.
