data_PCOD9331128
_publ_section_title
;
Structure prediction by ZEFSAII (Michael W. Deem and Ramdas Pophale) SiO2 
 PCOD9331128
Probable space group: I 2 2 2
;
_chemical_formula_sum "Si O2"
_cell_formula_units_Z 52
_cell_length_a 8.167309
_cell_length_b 14.402086
_cell_length_c 19.916469
_cell_angle_alpha 90.000000
_cell_angle_beta 90.000000
_cell_angle_gamma 90.000000
_cell_volume 2342.700291
_symmetry_space_group_name_H-M "I 2 2 2"
_symmetry_group_IT_number 23
_symmetry_cell_setting 'orthorhombic'
loop_
_space_group_symop_operation_xyz
x,y,z
-x,-y,z
x,-y,-z
-x,y,-z
1/2+x,1/2+y,1/2+z
1/2-x,1/2-y,1/2+z
1/2+x,1/2-y,1/2-z
1/2-x,1/2+y,1/2-z
loop_
_atom_site_type_symbol
_atom_site_label
_atom_site_fract_x
_atom_site_fract_y
_atom_site_fract_z
Si Si1 0.183706 0.886951 0.276194
Si Si2 0.822204 0.725030 0.500000
Si Si3 0.808318 0.889105 0.879707
Si Si4 0.691683 0.389106 0.379708
Si Si5 0.500000 0.894743 0.349204
Si Si6 0.183706 0.886950 0.723806
Si Si7 0.000000 0.650646 0.000000
O O1 0.224150 0.868098 0.198345
O O2 0.331586 0.851275 0.322176
O O3 1.000000 0.852018 0.291613
O O4 0.174535 0.000000 0.282796
O O5 0.801163 0.662445 0.433686
O O6 0.801165 0.662443 0.566313
O O7 0.667742 0.792075 0.500001
O O8 0.000000 0.771326 0.500000
O O9 0.000000 0.865520 0.892807
O O10 0.792100 0.999999 0.887921
O O11 0.724150 0.368098 0.301655
O O12 0.668413 0.851274 0.322174
O O13 0.500003 0.899473 0.428822
O O14 0.500000 0.000000 0.321724
#
# Coordination Sequence:
#
# PCOD9331128 Si02
#       7
#     8   8   8   8   8   8   4
#     4   8  16  32  59  93 118 136 178 241 296 342
#     4  12  25  38  56  79 125 167 200 227 275 339
#     4   9  17  34  61  90 122 157 190 234 284 332
#     4   9  17  34  61  90 122 157 190 234 284 332
#     4  10  21  40  68  88 105 141 194 252 301 343
#     4   8  16  32  59  93 118 136 178 241 296 342
#     4  12  27  46  55  78 120 158 196 242 289 346
#
# _framework density 22.196608000000001
#
# number of rings (size 3 to 8) (size 9 to 14) (size 15 to 20)
#    0.000    2.462    1.538    2.538    2.154    3.692 
#    0.000    1.538    0.000    4.615    0.000    0.000 
#    0.000    0.000    0.000    0.000    0.000    0.000 
#
# Total GULP energy -145294.309289 kJ/mol
# GULP energy per Si atom -5588.242665 kJ/mol
# Density = 2.214609 g / cm^3
# Si number density = 22.196608 Si / 1000 Ang^3
#
#
#
# Elastic Constant Matrix: (Units=GPa)
#
#
# Indices 1 2 3 4 5 6 
#
# 1 176.1723 30.5869 87.4239 0.0000 0.0000 0.0000
# 2 30.5869 36.3453 10.4934 0.0000 0.0000 0.0000
# 3 87.4239 10.4934 92.2893 0.0000 0.0000 0.0000
# 4 0.0000 0.0000 0.0000 1070.5176 0.0000 0.0000
# 5 0.0000 0.0000 0.0000 0.0000 21.0802 0.0000
# 6 0.0000 0.0000 0.0000 0.0000 0.0000 -6.8626
#
#
#
# Elastic Compliance Matrix: (Units=1/GPa)
#
#
# Indices 1 2 3 4 5 6 
#
# 1 0.012311 -0.007231 -0.010840 0.000000 0.000000 0.000000
# 2 -0.007231 0.032695 0.003132 0.000000 0.000000 0.000000
# 3 -0.010840 0.003132 0.020747 0.000000 0.000000 0.000000
# 4 0.000000 0.000000 0.000000 0.000934 0.000000 0.000000
# 5 0.000000 0.000000 0.000000 0.000000 0.047438 0.000000
# 6 0.000000 0.000000 0.000000 0.000000 0.000000 -0.145718
#
#
# Mechanical properties :
#
#
# Convention : Reuss Voigt Hill
#
# Bulk Modulus (GPa) = 27.87337 62.42394 45.14866
# Shear Modulus (GPa) = 488.17438 228.70055 358.43747
#
# Velocity S-wave (km/s) = 14.84619 10.16158 12.72138
# Velocity P-wave (km/s) = 17.50611 12.87871 15.36758
#
# Compressibility (1/GPa) = 0.03587653
#
# Stress axis : x y z
#
# Youngs Moduli (GPa) = 81.23032 30.58597 48.19864
#
# Poissons Ratio (x) = 0.22116 0.52245
# Poissons Ratio (y) = 0.58735 -0.15096
# Poissons Ratio (z) = 0.88050 -0.09580
#
# Static dielectric constant tensor:
#      x y z
#    x 1.843070 0.000000 0.000000 
#    y 0.000000 1.844730 0.000000 
#    z 0.000000 0.000000 1.767980 
# 
# From -- ./inp_files/23852.got.cif
#   From: 2010.05.17/outbox.cif.g08.bks.cpg/sg23_12_cif.got.tgz:23852.got - 2010.06.04 12:02:01.
