data_PCOD9331251
_publ_section_title
;
Structure prediction by ZEFSAII (Michael W. Deem and Ramdas Pophale) SiO2 
 PCOD9331251
Probable space group: I 2 2 2
;
_chemical_formula_sum "Si O2"
_cell_formula_units_Z 64
_cell_length_a 26.470624
_cell_length_b 27.463449
_cell_length_c 5.424399
_cell_angle_alpha 90.000000
_cell_angle_beta 90.000000
_cell_angle_gamma 90.000000
_cell_volume 3943.400468
_symmetry_space_group_name_H-M "I 2 2 2"
_symmetry_group_IT_number 23
_symmetry_cell_setting 'orthorhombic'
loop_
_space_group_symop_operation_xyz
x,y,z
-x,-y,z
x,-y,-z
-x,y,-z
1/2+x,1/2+y,1/2+z
1/2-x,1/2-y,1/2+z
1/2+x,1/2-y,1/2-z
1/2-x,1/2+y,1/2-z
loop_
_atom_site_type_symbol
_atom_site_label
_atom_site_fract_x
_atom_site_fract_y
_atom_site_fract_z
Si Si1 0.365631 0.288406 0.428630
Si Si2 0.785509 0.859303 0.644762
Si Si3 0.627075 0.369872 0.187793
Si Si4 0.974097 0.764342 0.752343
Si Si5 0.275634 0.770312 0.373258
Si Si6 0.804123 0.030502 0.249390
Si Si7 0.591228 0.448513 0.525065
Si Si8 0.462625 0.374108 0.185398
O O1 0.324799 0.323035 0.287968
O O2 0.387531 0.326453 0.627664
O O3 0.412679 0.264825 0.280210
O O4 0.331743 0.247666 0.562599
O O5 0.814556 0.864025 0.384587
O O6 0.734665 0.828083 0.635345
O O7 0.781661 0.914364 0.744662
O O8 0.620066 0.423420 0.299219
O O9 0.589816 0.365510 0.958066
O O10 0.985685 0.822289 0.747208
O O11 0.000000 0.745123 0.500000
O O12 0.000000 0.743926 0.000000
O O13 0.258172 0.748595 0.107753
O O14 0.864339 0.041197 0.222664
O O15 0.793649 0.000000 0.500000
O O16 0.790832 0.000000 0.000000
O O17 0.565710 0.500000 0.500000
O O18 0.551825 0.407815 0.593501
O O19 0.500000 0.400771 0.000000
#
# Coordination Sequence:
#
# PCOD9331251 Si02
#       8
#     8   8   8   8   8   8   8   8
#     4  11  20  34  50  75  99 125 160 203 253 302
#     4  11  20  34  50  75  99 125 160 203 253 302
#     4  12  18  36  51  64  90 120 146 208 250 298
#     4  11  22  34  54  71  89 121 161 201 245 297
#     4  10  22  32  52  76 102 128 156 195 258 313
#     4  11  22  34  54  71  89 121 161 201 245 297
#     4  11  23  33  48  61  80 115 152 204 254 305
#     4  11  23  33  48  61  80 115 152 204 254 305
#
# _framework density 16.229647
#
# number of rings (size 3 to 8) (size 9 to 14) (size 15 to 20)
#    0.000    1.000    6.250    3.000    0.000    0.000 
#    0.000    1.875    0.000    0.000    0.000    0.000 
#    0.000    0.000    0.000    0.000    0.000    0.625 
#
# Total GULP energy -178329.136663 kJ/mol
# GULP energy per Si atom -5572.785521 kJ/mol
# Density = 1.619271 g / cm^3
# Si number density = 16.229647 Si / 1000 Ang^3
#
#
#
# Elastic Constant Matrix: (Units=GPa)
#
#
# Indices 1 2 3 4 5 6 
#
# 1 47.8884 30.3304 12.8941 0.0000 0.0000 0.0000
# 2 30.3304 65.9350 17.1556 0.0000 0.0000 0.0000
# 3 12.8941 17.1556 74.0191 0.0000 0.0000 0.0000
# 4 0.0000 0.0000 0.0000 18.4477 0.0000 0.0000
# 5 0.0000 0.0000 0.0000 0.0000 18.4520 0.0000
# 6 0.0000 0.0000 0.0000 0.0000 0.0000 13.6088
#
#
#
# Elastic Compliance Matrix: (Units=1/GPa)
#
#
# Indices 1 2 3 4 5 6 
#
# 1 0.029783 -0.013143 -0.002142 0.000000 0.000000 0.000000
# 2 -0.013143 0.021940 -0.002796 0.000000 0.000000 0.000000
# 3 -0.002142 -0.002796 0.014531 0.000000 0.000000 0.000000
# 4 0.000000 0.000000 0.000000 0.054207 0.000000 0.000000
# 5 0.000000 0.000000 0.000000 0.000000 0.054195 0.000000
# 6 0.000000 0.000000 0.000000 0.000000 0.000000 0.073482
#
#
# Mechanical properties :
#
#
# Convention : Reuss Voigt Hill
#
# Bulk Modulus (GPa) = 33.23067 34.28918 33.75992
# Shear Modulus (GPa) = 16.98782 18.59921 17.79351
#
# Velocity S-wave (km/s) = 3.23881 3.38894 3.31472
# Velocity P-wave (km/s) = 5.87420 6.04041 5.95789
#
# Compressibility (1/GPa) = 0.03009268
#
# Stress axis : x y z
#
# Youngs Moduli (GPa) = 33.57652 45.57966 68.81798
#
# Poissons Ratio (x) = 0.59905 0.14741
# Poissons Ratio (y) = 0.44129 0.19238
# Poissons Ratio (z) = 0.07192 0.12742
#
# Static dielectric constant tensor:
#      x y z
#    x 1.566040 0.000000 0.000000 
#    y 0.000000 1.563770 0.000000 
#    z 0.000000 0.000000 1.684430 
# 
# From -- ./inp_files/5106.got.cif
#   From: 2010.05.17/outbox.cif.g08.bks.cpg/sg23_3_cif.got.tgz:5106.got - 2010.06.04 12:02:01.
