data_PCOD9331492
_publ_section_title
;
Structure prediction by ZEFSAII (Michael W. Deem and Ramdas Pophale) SiO2 
 PCOD9331492
Probable space group: I 2 2 2
;
_chemical_formula_sum "Si O2"
_cell_formula_units_Z 34
_cell_length_a 14.253842
_cell_length_b 18.143294
_cell_length_c 5.480965
_cell_angle_alpha 90.000000
_cell_angle_beta 90.000000
_cell_angle_gamma 90.000000
_cell_volume 1417.441381
_symmetry_space_group_name_H-M "I 2 2 2"
_symmetry_group_IT_number 23
_symmetry_cell_setting 'orthorhombic'
loop_
_space_group_symop_operation_xyz
x,y,z
-x,-y,z
x,-y,-z
-x,y,-z
1/2+x,1/2+y,1/2+z
1/2-x,1/2-y,1/2+z
1/2+x,1/2-y,1/2-z
1/2-x,1/2+y,1/2-z
loop_
_atom_site_type_symbol
_atom_site_label
_atom_site_fract_x
_atom_site_fract_y
_atom_site_fract_z
Si Si1 0.159393 0.568097 0.310641
Si Si2 0.124600 0.956344 0.744841
Si Si3 0.000000 0.500000 0.000000
Si Si4 0.905650 0.792240 0.228931
Si Si5 0.115484 0.735213 0.282159
O O1 0.152870 0.500000 0.500000
O O2 0.264505 0.561482 0.210605
O O3 0.144249 0.653789 0.368677
O O4 0.071214 0.552081 0.140731
O O5 0.073265 0.878780 0.785378
O O6 0.097512 0.000000 0.500000
O O7 0.115206 0.000000 0.000000
O O8 0.854815 0.784854 0.489000
O O9 0.002546 0.746734 0.254288
O O10 0.853652 0.762612 0.987104
#
# Coordination Sequence:
#
# PCOD9331492 Si02
#       5
#     8   8   2   8   8
#     4  11  26  40  67  99 135 172 219 269 330 389
#     4  11  24  45  67  98 133 170 218 276 331 388
#     4  12  22  40  64  94 132 166 220 256 322 388
#     4  10  22  42  66  94 134 173 219 268 329 388
#     4  10  23  41  63  98 131 173 224 263 322 397
#
# _framework density 23.986884
#
# number of rings (size 3 to 8) (size 9 to 14) (size 15 to 20)
#    0.000    1.412    1.176    3.176    9.882    1.882 
#    0.000   14.118    0.000    0.000    0.000    0.000 
#    0.000    0.000    0.000    0.000    0.000    0.000 
#
# Total GULP energy -94882.475944 kJ/mol
# GULP energy per Si atom -5581.322114 kJ/mol
# Density = 2.393229 g / cm^3
# Si number density = 23.986884 Si / 1000 Ang^3
#
#
#
# Elastic Constant Matrix: (Units=GPa)
#
#
# Indices 1 2 3 4 5 6 
#
# 1 129.5067 22.7110 17.5186 0.0000 0.0000 0.0000
# 2 22.7110 189.0166 68.2928 0.0000 0.0000 0.0000
# 3 17.5186 68.2928 193.1029 0.0000 0.0000 0.0000
# 4 0.0000 0.0000 0.0000 49.0659 0.0000 0.0000
# 5 0.0000 0.0000 0.0000 0.0000 305.8615 0.0000
# 6 0.0000 0.0000 0.0000 0.0000 0.0000 62.3539
#
#
#
# Elastic Compliance Matrix: (Units=1/GPa)
#
#
# Indices 1 2 3 4 5 6 
#
# 1 0.007920 -0.000793 -0.000438 0.000000 0.000000 0.000000
# 2 -0.000793 0.006145 -0.002101 0.000000 0.000000 0.000000
# 3 -0.000438 -0.002101 0.005961 0.000000 0.000000 0.000000
# 4 0.000000 0.000000 0.000000 0.020381 0.000000 0.000000
# 5 0.000000 0.000000 0.000000 0.000000 0.003269 0.000000
# 6 0.000000 0.000000 0.000000 0.000000 0.000000 0.016037
#
#
# Mechanical properties :
#
#
# Convention : Reuss Voigt Hill
#
# Bulk Modulus (GPa) = 74.84295 80.96343 77.90319
# Shear Modulus (GPa) = 70.58839 110.32986 90.45913
#
# Velocity S-wave (km/s) = 5.43064 6.78939 6.14766
# Velocity P-wave (km/s) = 8.40189 9.76153 9.10712
#
# Compressibility (1/GPa) = 0.01336131
#
# Stress axis : x y z
#
# Youngs Moduli (GPa) = 126.26293 162.73193 167.74421
#
# Poissons Ratio (x) = 0.12911 0.07346
# Poissons Ratio (y) = 0.10018 0.35248
# Poissons Ratio (z) = 0.05529 0.34195
#
# Static dielectric constant tensor:
#      x y z
#    x 2.070320 0.000000 0.000000 
#    y 0.000000 1.948320 0.000000 
#    z 0.000000 0.000000 1.942020 
# 
# From -- ./inp_files/3001.got.cif
#   From: 2010.05.17/outbox.cif.g08.bks.cpg/sg23_2_cif.got.tgz:3001.got - 2010.06.04 12:02:01.
