data_PCOD9331115
_publ_section_title
;
Structure prediction by ZEFSAII (Michael W. Deem and Ramdas Pophale) SiO2 
 PCOD9331115
Probable space group: I 2 2 2
;
_chemical_formula_sum "Si O2"
_cell_formula_units_Z 48
_cell_length_a 8.163245
_cell_length_b 30.001140
_cell_length_c 9.017710
_cell_angle_alpha 90.000000
_cell_angle_beta 90.000000
_cell_angle_gamma 90.000000
_cell_volume 2208.497202
_symmetry_space_group_name_H-M "I 2 2 2"
_symmetry_group_IT_number 23
_symmetry_cell_setting 'orthorhombic'
loop_
_space_group_symop_operation_xyz
x,y,z
-x,-y,z
x,-y,-z
-x,y,-z
1/2+x,1/2+y,1/2+z
1/2-x,1/2-y,1/2+z
1/2+x,1/2-y,1/2-z
1/2-x,1/2+y,1/2-z
loop_
_atom_site_type_symbol
_atom_site_label
_atom_site_fract_x
_atom_site_fract_y
_atom_site_fract_z
Si Si1 0.306018 0.763987 0.011019
Si Si2 0.299419 0.309510 0.199870
Si Si3 0.891496 0.157778 0.853926
Si Si4 0.825167 0.594610 0.169883
Si Si5 0.217844 0.581984 0.165258
Si Si6 0.300659 0.993803 0.168159
O O1 0.260722 0.714982 0.952858
O O2 0.224441 0.802880 0.912710
O O3 0.500000 0.768009 0.000000
O O4 0.246434 0.773881 0.175215
O O5 0.487076 0.322167 0.229842
O O6 0.204816 0.355444 0.223499
O O7 0.796386 0.117289 0.777959
O O8 0.000000 0.144802 0.000000
O O9 0.759064 0.555282 0.273625
O O10 0.020335 0.587084 0.166456
O O11 0.743383 0.590035 0.007491
O O12 0.260387 0.532563 0.222478
O O13 0.500000 0.000000 0.167102
O O14 0.243789 0.000000 0.000000
#
# Coordination Sequence:
#
# PCOD9331115 Si02
#       6
#     8   8   8   8   8   8
#     4  11  24  43  65  89 125 173 215 268 320 381
#     4  11  25  42  65  95 130 167 217 267 326 386
#     4  10  24  42  64  96 131 172 218 271 328 390
#     4  10  22  39  66 100 127 174 219 267 327 384
#     4  10  21  40  66  94 136 169 218 267 321 393
#     4   9  19  36  65  99 131 165 215 270 320 382
#
# _framework density 21.734237
#
# number of rings (size 3 to 8) (size 9 to 14) (size 15 to 20)
#    0.000    1.833    0.000    2.500    9.333    2.000 
#    6.000    0.833    0.000    2.000    0.000    0.000 
#    0.000    0.000    0.000    0.000    0.000    0.000 
#
# Total GULP energy -134156.475032 kJ/mol
# GULP energy per Si atom -5589.853126 kJ/mol
# Density = 2.168477 g / cm^3
# Si number density = 21.734237 Si / 1000 Ang^3
#
#
#
# Elastic Constant Matrix: (Units=GPa)
#
#
# Indices 1 2 3 4 5 6 
#
# 1 23.6997 21.1889 1.2504 0.0000 0.0000 -0.0004
# 2 21.1889 133.3278 71.4723 0.0002 -0.0001 -0.0023
# 3 1.2504 71.4723 106.8922 0.0007 -0.0003 -0.0049
# 4 0.0000 0.0002 0.0007 79.4531 -0.0002 -0.0029
# 5 0.0000 -0.0001 -0.0003 -0.0002 21.5769 -0.0018
# 6 -0.0004 -0.0023 -0.0049 -0.0029 -0.0018 644.7924
#
#
#
# Elastic Compliance Matrix: (Units=1/GPa)
#
#
# Indices 1 2 3 4 5 6 
#
# 1 0.053072 -0.012628 0.007823 0.000000 0.000000 0.000000
# 2 -0.012628 0.014695 -0.009678 0.000000 0.000000 0.000000
# 3 0.007823 -0.009678 0.015735 0.000000 0.000000 0.000000
# 4 0.000000 0.000000 0.000000 0.012586 0.000000 0.000000
# 5 0.000000 0.000000 0.000000 0.000000 0.046346 0.000000
# 6 0.000000 0.000000 0.000000 0.000000 0.000000 0.001551
#
#
# Mechanical properties :
#
#
# Convention : Reuss Voigt Hill
#
# Bulk Modulus (GPa) = 18.33668 50.19366 34.26517
# Shear Modulus (GPa) = 26.16021 160.49835 93.32928
#
# Velocity S-wave (km/s) = 3.47312 8.60268 6.56006
# Velocity P-wave (km/s) = 4.95363 11.03718 8.55447
#
# Compressibility (1/GPa) = 0.05453550
#
# Stress axis : x y z
#
# Youngs Moduli (GPa) = 18.84235 68.04921 63.55308
#
# Poissons Ratio (x) = 0.85931 -0.49715
# Poissons Ratio (y) = 0.23794 0.61507
# Poissons Ratio (z) = -0.14740 0.65859
#
# Static dielectric constant tensor:
#      x y z
#    x 1.790390 0.000000 0.000000 
#    y 0.000000 1.760880 0.000000 
#    z 0.000000 0.000000 1.720760 
# 
# From -- ./inp_files/7329.got.cif
#   From: 2010.05.17/outbox.cif.g08.bks.cpg/sg23_4_cif.got.tgz:7329.got - 2010.06.04 12:02:01.
