data_PCOD9331215
_publ_section_title
;
Structure prediction by ZEFSAII (Michael W. Deem and Ramdas Pophale) SiO2 
 PCOD9331215
Probable space group: I 2 2 2
;
_chemical_formula_sum "Si O2"
_cell_formula_units_Z 38
_cell_length_a 27.703661
_cell_length_b 13.446594
_cell_length_c 4.915609
_cell_angle_alpha 90.000000
_cell_angle_beta 90.000000
_cell_angle_gamma 90.000000
_cell_volume 1831.162084
_symmetry_space_group_name_H-M "I 2 2 2"
_symmetry_group_IT_number 23
_symmetry_cell_setting 'orthorhombic'
loop_
_space_group_symop_operation_xyz
x,y,z
-x,-y,z
x,-y,-z
-x,y,-z
1/2+x,1/2+y,1/2+z
1/2-x,1/2-y,1/2+z
1/2+x,1/2-y,1/2-z
1/2-x,1/2+y,1/2-z
loop_
_atom_site_type_symbol
_atom_site_label
_atom_site_fract_x
_atom_site_fract_y
_atom_site_fract_z
Si Si1 0.944421 0.386113 0.418410
Si Si2 0.000000 0.000000 0.500000
Si Si3 0.189096 0.791654 0.085923
Si Si4 0.914592 0.272317 0.899849
Si Si5 0.737072 0.614047 0.916081
Si Si6 0.000000 0.872750 0.000000
O O1 0.937127 0.500000 0.500000
O O2 0.909494 0.320680 0.605461
O O3 0.000000 0.362335 0.500000
O O4 0.933735 0.356941 0.109124
O O5 0.977108 0.929339 0.734725
O O6 0.134111 0.775924 0.006781
O O7 0.215907 0.684727 0.058815
O O8 0.216211 0.868066 0.883961
O O9 0.198033 0.835722 0.383051
O O10 0.956670 0.191467 0.884101
O O11 0.745383 0.500000 0.000000
#
# Coordination Sequence:
#
# PCOD9331215 Si02
#       6
#     8   2   8   8   8   4
#     4  11  22  37  59  88 124 165 203 241 290 358
#     4  10  24  42  56  82 114 166 220 242 296 342
#     4  10  23  40  63  95 119 156 205 250 299 376
#     4  12  22  41  63  89 126 164 200 246 305 350
#     4  10  21  43  65  87 124 155 195 256 314 358
#     4  11  22  42  61  82 124 168 191 264 292 353
#
# _framework density 20.751847999999999
#
# number of rings (size 3 to 8) (size 9 to 14) (size 15 to 20)
#    0.000    1.263    2.105    3.789    0.000    3.368 
#   11.368    0.000    0.000    0.000    0.000    0.000 
#    0.000    0.000    0.000    0.000    0.000    0.000 
#
# Total GULP energy -106022.582354 kJ/mol
# GULP energy per Si atom -5580.135913 kJ/mol
# Density = 2.070462 g / cm^3
# Si number density = 20.751848 Si / 1000 Ang^3
#
#
#
# Elastic Constant Matrix: (Units=GPa)
#
#
# Indices 1 2 3 4 5 6 
#
# 1 66.4525 1.7187 -19.7623 0.0000 0.0000 0.0000
# 2 1.7187 95.9923 5.7950 0.0000 0.0000 0.0000
# 3 -19.7623 5.7950 81.7615 -0.0003 0.0000 0.0000
# 4 0.0000 0.0000 -0.0003 12.3526 0.0000 0.0000
# 5 0.0000 0.0000 0.0000 0.0000 19.0682 0.0000
# 6 0.0000 0.0000 0.0000 0.0000 0.0000 8.0570
#
#
#
# Elastic Compliance Matrix: (Units=1/GPa)
#
#
# Indices 1 2 3 4 5 6 
#
# 1 0.016241 -0.000530 0.003963 0.000000 0.000000 0.000000
# 2 -0.000530 0.010480 -0.000871 0.000000 0.000000 0.000000
# 3 0.003963 -0.000871 0.013250 0.000000 0.000000 0.000000
# 4 0.000000 0.000000 0.000000 0.080955 0.000000 0.000000
# 5 0.000000 0.000000 0.000000 0.000000 0.052443 0.000000
# 6 0.000000 0.000000 0.000000 0.000000 0.000000 0.124116
#
#
# Mechanical properties :
#
#
# Convention : Reuss Voigt Hill
#
# Bulk Modulus (GPa) = 22.17552 24.41211 23.29382
# Shear Modulus (GPa) = 16.26590 24.99256 20.62923
#
# Velocity S-wave (km/s) = 2.80273 3.47414 3.15634
# Velocity P-wave (km/s) = 4.60250 5.28037 4.95304
#
# Compressibility (1/GPa) = 0.04509477
#
# Stress axis : x y z
#
# Youngs Moduli (GPa) = 61.57405 95.42380 75.46997
#
# Poissons Ratio (x) = 0.05058 -0.29909
# Poissons Ratio (y) = 0.03264 0.06572
# Poissons Ratio (z) = -0.24402 0.08310
#
# Static dielectric constant tensor:
#      x y z
#    x 1.716830 0.000000 0.000000 
#    y 0.000000 1.789820 0.000000 
#    z 0.000000 0.000000 1.720280 
# 
# From -- ./inp_files/4799.got.cif
#   From: 2010.05.17/outbox.cif.g08.bks.cpg/sg23_3_cif.got.tgz:4799.got - 2010.06.04 12:02:01.
