data_PCOD9331977
_publ_section_title
;
Structure prediction by ZEFSAII (Michael W. Deem and Ramdas Pophale) SiO2 
 PCOD9331977
Probable space group: I 2 2 2
;
_chemical_formula_sum "Si O2"
_cell_formula_units_Z 38
_cell_length_a 29.320815
_cell_length_b 5.107020
_cell_length_c 10.353738
_cell_angle_alpha 90.000000
_cell_angle_beta 90.000000
_cell_angle_gamma 90.000000
_cell_volume 1550.389318
_symmetry_space_group_name_H-M "I 2 2 2"
_symmetry_group_IT_number 23
_symmetry_cell_setting 'orthorhombic'
loop_
_space_group_symop_operation_xyz
x,y,z
-x,-y,z
x,-y,-z
-x,y,-z
1/2+x,1/2+y,1/2+z
1/2-x,1/2-y,1/2+z
1/2+x,1/2-y,1/2-z
1/2-x,1/2+y,1/2-z
loop_
_atom_site_type_symbol
_atom_site_label
_atom_site_fract_x
_atom_site_fract_y
_atom_site_fract_z
Si Si1 0.776216 0.818360 0.123432
Si Si2 0.097768 0.174907 0.819209
Si Si3 0.000000 0.500000 0.500000
Si Si4 0.650938 0.000000 0.500000
Si Si5 0.457729 0.831964 0.251431
Si Si6 0.183700 0.924961 0.360175
O O1 0.812830 0.582674 0.108800
O O2 0.722316 0.786313 0.105942
O O3 0.783550 0.897873 0.271058
O O4 0.789906 0.000000 0.000000
O O5 0.081307 0.452764 0.762654
O O6 0.140823 0.100956 0.732672
O O7 0.059421 0.946847 0.806038
O O8 0.117559 0.266611 0.957200
O O9 0.028102 0.680197 0.600394
O O10 0.500000 0.000000 0.314515
O O11 0.165564 0.000000 0.500000
#
# Coordination Sequence:
#
# PCOD9331977 Si02
#       6
#     8   8   2   4   8   8
#     4  12  24  50  67 102 157 225 271 328 434 471
#     4  12  26  46  77 117 154 214 282 335 403 501
#     4   8  24  46  80 108 176 206 240 322 454 510
#     4  12  26  50  75 104 164 228 273 340 410 502
#     4  10  25  46  77 114 157 209 251 331 435 499
#     4  12  26  41  74 110 151 200 282 343 389 490
#
# _framework density 24.509974
#
# number of rings (size 3 to 8) (size 9 to 14) (size 15 to 20)
#    0.632    0.000    3.158    4.421    2.947    2.526 
#    0.000    0.526    0.000    5.053    0.000    0.000 
#    0.000    0.000    0.000    0.000    0.000    0.000 
#
# Total GULP energy -105863.690013 kJ/mol
# GULP energy per Si atom -5571.773159 kJ/mol
# Density = 2.445419 g / cm^3
# Si number density = 24.509974 Si / 1000 Ang^3
#
#
#
# Elastic Constant Matrix: (Units=GPa)
#
#
# Indices 1 2 3 4 5 6 
#
# 1 95.0715 30.3935 19.4085 0.0000 0.0000 0.0000
# 2 30.3935 120.3926 35.9737 0.0000 0.0000 0.0000
# 3 19.4085 35.9737 95.8684 0.0000 0.0000 0.0000
# 4 0.0000 0.0000 0.0000 28.1649 0.0000 0.0000
# 5 0.0000 0.0000 0.0000 0.0000 42.6339 0.0000
# 6 0.0000 0.0000 0.0000 0.0000 0.0000 43.0366
#
#
#
# Elastic Compliance Matrix: (Units=1/GPa)
#
#
# Indices 1 2 3 4 5 6 
#
# 1 0.011608 -0.002510 -0.001408 0.000000 0.000000 0.000000
# 2 -0.002510 0.009898 -0.003206 0.000000 0.000000 0.000000
# 3 -0.001408 -0.003206 0.011919 0.000000 0.000000 0.000000
# 4 0.000000 0.000000 0.000000 0.035505 0.000000 0.000000
# 5 0.000000 0.000000 0.000000 0.000000 0.023456 0.000000
# 6 0.000000 0.000000 0.000000 0.000000 0.000000 0.023236
#
#
# Mechanical properties :
#
#
# Convention : Reuss Voigt Hill
#
# Bulk Modulus (GPa) = 52.14569 53.65379 52.89974
# Shear Modulus (GPa) = 36.69403 37.80422 37.24912
#
# Velocity S-wave (km/s) = 3.87344 3.93160 3.90263
# Velocity P-wave (km/s) = 6.42855 6.52289 6.47589
#
# Compressibility (1/GPa) = 0.01917704
#
# Stress axis : x y z
#
# Youngs Moduli (GPa) = 86.14570 101.03376 83.89917
#
# Poissons Ratio (x) = 0.25357 0.11816
# Poissons Ratio (y) = 0.21620 0.26897
# Poissons Ratio (z) = 0.12132 0.32391
#
# Static dielectric constant tensor:
#      x y z
#    x 1.959010 0.000000 0.000000 
#    y 0.000000 2.030250 0.000000 
#    z 0.000000 0.000000 2.003230 
# 
# From -- ./inp_files/18726.got.cif
#   From: 2010.05.17/outbox.cif.g08.bks.cpg/sg23_10_cif.got.tgz:18726.got - 2010.06.04 12:02:01.
