data_PCOD9331668
_publ_section_title
;
Structure prediction by ZEFSAII (Michael W. Deem and Ramdas Pophale) SiO2 
 PCOD9331668
Probable space group: I 2 2 2
;
_chemical_formula_sum "Si O2"
_cell_formula_units_Z 38
_cell_length_a 9.620624
_cell_length_b 10.538252
_cell_length_c 19.017271
_cell_angle_alpha 90.000000
_cell_angle_beta 90.000000
_cell_angle_gamma 90.000000
_cell_volume 1928.057655
_symmetry_space_group_name_H-M "I 2 2 2"
_symmetry_group_IT_number 23
_symmetry_cell_setting 'orthorhombic'
loop_
_space_group_symop_operation_xyz
x,y,z
-x,-y,z
x,-y,-z
-x,y,-z
1/2+x,1/2+y,1/2+z
1/2-x,1/2-y,1/2+z
1/2+x,1/2-y,1/2-z
1/2-x,1/2+y,1/2-z
loop_
_atom_site_type_symbol
_atom_site_label
_atom_site_fract_x
_atom_site_fract_y
_atom_site_fract_z
Si Si1 0.000000 0.500000 0.500000
Si Si2 0.100534 0.758432 0.060971
Si Si3 0.724282 0.176661 0.317796
Si Si4 0.500000 0.000000 0.633009
Si Si5 0.962595 0.858113 0.793344
Si Si6 0.362264 0.247285 0.034690
O O1 0.092876 0.400963 0.544328
O O2 0.042942 0.621608 0.086704
O O3 0.100645 0.847300 0.128599
O O4 0.248728 0.744940 0.026004
O O5 0.000000 0.808358 0.000000
O O6 0.603970 0.277009 0.298021
O O7 0.794976 0.200236 0.394095
O O8 0.846783 0.185946 0.261563
O O9 0.634779 0.045860 0.322962
O O10 0.000000 0.000000 0.774404
O O11 0.500000 0.309251 0.000000
#
# Coordination Sequence:
#
# PCOD9331668 Si02
#       6
#     2   8   8   4   8   8
#     4   8  24  40  64  96 144 164 212 300 330 398
#     4  11  22  44  70  98 132 179 230 282 348 406
#     4  11  26  47  66 103 135 190 231 287 354 411
#     4  10  23  44  71  95 144 175 234 290 347 409
#     4  11  28  43  69  99 138 181 236 281 347 421
#     4  10  23  41  67 100 134 177 226 279 349 403
#
# _framework density 19.708955
#
# number of rings (size 3 to 8) (size 9 to 14) (size 15 to 20)
#    0.632    0.842    4.211    0.316   11.789    0.421 
#    0.000    2.105    0.000    0.000    0.000    0.000 
#    0.000    0.000    0.000    0.000    0.000    0.000 
#
# Total GULP energy -105936.338601 kJ/mol
# GULP energy per Si atom -5575.596768 kJ/mol
# Density = 1.966410 g / cm^3
# Si number density = 19.708955 Si / 1000 Ang^3
#
#
#
# Elastic Constant Matrix: (Units=GPa)
#
#
# Indices 1 2 3 4 5 6 
#
# 1 171.9478 11.6622 74.8571 0.0000 0.0000 0.0000
# 2 11.6622 33.7442 10.8846 0.0000 0.0000 0.0000
# 3 74.8571 10.8846 90.6919 0.0000 0.0000 0.0000
# 4 0.0000 0.0000 0.0000 38.6204 0.0000 0.0000
# 5 0.0000 0.0000 0.0000 0.0000 43.5290 0.0000
# 6 0.0000 0.0000 0.0000 0.0000 0.0000 25.3062
#
#
#
# Elastic Compliance Matrix: (Units=1/GPa)
#
#
# Indices 1 2 3 4 5 6 
#
# 1 0.009096 -0.000751 -0.007418 0.000000 0.000000 0.000000
# 2 -0.000751 0.030890 -0.003088 0.000000 0.000000 0.000000
# 3 -0.007418 -0.003088 0.017519 0.000000 0.000000 0.000000
# 4 0.000000 0.000000 0.000000 0.025893 0.000000 0.000000
# 5 0.000000 0.000000 0.000000 0.000000 0.022973 0.000000
# 6 0.000000 0.000000 0.000000 0.000000 0.000000 0.039516
#
#
# Mechanical properties :
#
#
# Convention : Reuss Voigt Hill
#
# Bulk Modulus (GPa) = 28.57689 54.57685 41.57687
# Shear Modulus (GPa) = 27.76784 34.75644 31.26214
#
# Velocity S-wave (km/s) = 3.75760 4.20394 3.98702
# Velocity P-wave (km/s) = 5.77555 7.16350 6.50664
#
# Compressibility (1/GPa) = 0.03499331
#
# Stress axis : x y z
#
# Youngs Moduli (GPa) = 109.93966 32.37272 57.07959
#
# Poissons Ratio (x) = 0.02431 0.42339
# Poissons Ratio (y) = 0.08256 0.17623
# Poissons Ratio (z) = 0.81549 0.09995
#
# Static dielectric constant tensor:
#      x y z
#    x 1.641470 0.000000 0.000000 
#    y 0.000000 1.710790 0.000000 
#    z 0.000000 0.000000 1.676650 
# 
# From -- ./inp_files/23577.got.cif
#   From: 2010.05.17/outbox.cif.g08.bks.cpg/sg23_12_cif.got.tgz:23577.got - 2010.06.04 12:02:01.
