data_PCOD9331396
_publ_section_title
;
Structure prediction by ZEFSAII (Michael W. Deem and Ramdas Pophale) SiO2 
 PCOD9331396
Probable space group: I 2 2 2
;
_chemical_formula_sum "Si O2"
_cell_formula_units_Z 34
_cell_length_a 10.274188
_cell_length_b 9.396361
_cell_length_c 18.165187
_cell_angle_alpha 90.000000
_cell_angle_beta 90.000000
_cell_angle_gamma 90.000000
_cell_volume 1753.666779
_symmetry_space_group_name_H-M "I 2 2 2"
_symmetry_group_IT_number 23
_symmetry_cell_setting 'orthorhombic'
loop_
_space_group_symop_operation_xyz
x,y,z
-x,-y,z
x,-y,-z
-x,y,-z
1/2+x,1/2+y,1/2+z
1/2-x,1/2-y,1/2+z
1/2+x,1/2-y,1/2-z
1/2-x,1/2+y,1/2-z
loop_
_atom_site_type_symbol
_atom_site_label
_atom_site_fract_x
_atom_site_fract_y
_atom_site_fract_z
Si Si1 0.987380 0.327557 0.083867
Si Si2 0.761160 0.871407 0.322590
Si Si3 0.991052 0.767318 0.420000
Si Si4 0.744870 0.210836 0.331431
Si Si5 0.500000 0.000000 0.000000
O O1 0.850377 0.307124 0.124215
O O2 0.000000 0.500000 0.082524
O O3 0.107047 0.263786 0.129225
O O4 0.000000 0.277991 0.000000
O O5 0.897834 0.840473 0.361992
O O6 0.748457 0.798230 0.243686
O O7 0.747791 0.041372 0.315863
O O8 0.000000 0.841631 0.500000
O O9 0.133687 0.753177 0.384591
O O10 0.933464 0.612854 0.444901
#
# Coordination Sequence:
#
# PCOD9331396 Si02
#       5
#     8   8   8   8   2
#     4   9  19  37  57  83 116 152 188 238 298 346
#     4  11  23  37  61  89 122 157 197 246 298 362
#     4  10  22  40  64  85 117 158 208 250 303 356
#     4  11  23  37  61  89 122 157 197 246 298 362
#     4   8  24  40  66  86 120 160 196 266 308 356
#
# _framework density 19.387947
#
# number of rings (size 3 to 8) (size 9 to 14) (size 15 to 20)
#    0.706    1.176    0.000    3.529    3.294    3.765 
#    0.000    0.000    0.000    2.824    0.000    0.000 
#    0.000    0.000    0.000    0.000    0.000    0.000 
#
# Total GULP energy -94743.089289 kJ/mol
# GULP energy per Si atom -5573.122899 kJ/mol
# Density = 1.934382 g / cm^3
# Si number density = 19.387947 Si / 1000 Ang^3
#
#
#
# Elastic Constant Matrix: (Units=GPa)
#
#
# Indices 1 2 3 4 5 6 
#
# 1 88.3226 -3.2730 23.0693 0.0000 0.0000 0.0000
# 2 -3.2730 66.5218 22.9727 0.0000 0.0000 0.0000
# 3 23.0693 22.9727 127.2372 0.0000 0.0000 0.0000
# 4 0.0000 0.0000 0.0000 -0.0671 0.0000 0.0000
# 5 0.0000 0.0000 0.0000 0.0000 45.8838 0.0000
# 6 0.0000 0.0000 0.0000 0.0000 0.0000 12.9418
#
#
#
# Elastic Compliance Matrix: (Units=1/GPa)
#
#
# Indices 1 2 3 4 5 6 
#
# 1 0.012012 0.001432 -0.002436 0.000000 0.000000 0.000000
# 2 0.001432 0.016203 -0.003185 0.000000 0.000000 0.000000
# 3 -0.002436 -0.003185 0.008876 0.000000 0.000000 0.000000
# 4 0.000000 0.000000 0.000000-14.913725 0.000000 0.000000
# 5 0.000000 0.000000 0.000000 0.000000 0.021794 0.000000
# 6 0.000000 0.000000 0.000000 0.000000 0.000000 0.077269
#
#
# Mechanical properties :
#
#
# Convention : Reuss Voigt Hill
#
# Bulk Modulus (GPa) = 34.82814 40.84663 37.83738
# Shear Modulus (GPa) = -0.33876 27.70588 13.68356
#
# Velocity S-wave (km/s) = -0.41846 3.78435 2.65953
# Velocity P-wave (km/s) = 4.21537 6.34104 5.38415
#
# Compressibility (1/GPa) = 0.02871242
#
# Stress axis : x y z
#
# Youngs Moduli (GPa) = 83.25287 61.71660 112.66127
#
# Poissons Ratio (x) = -0.08840 0.27449
# Poissons Ratio (y) = -0.11925 0.35885
# Poissons Ratio (z) = 0.20284 0.19658
#
# Static dielectric constant tensor:
#      x y z
#    x 1.659870 0.000000 0.000000 
#    y 0.000000 1.679870 0.000000 
#    z 0.000000 0.000000 1.655860 
# 
# From -- ./inp_files/20642.got.cif
#   From: 2010.05.17/outbox.cif.g08.bks.cpg/sg23_11_cif.got.tgz:20642.got - 2010.06.04 12:02:01.
