data_PCOD9331239
_publ_section_title
;
Structure prediction by ZEFSAII (Michael W. Deem and Ramdas Pophale) SiO2 
 PCOD9331239
Probable space group: I 2 2 2
;
_chemical_formula_sum "Si O2"
_cell_formula_units_Z 50
_cell_length_a 7.677464
_cell_length_b 16.032975
_cell_length_c 18.515149
_cell_angle_alpha 90.000000
_cell_angle_beta 90.000000
_cell_angle_gamma 90.000000
_cell_volume 2279.077615
_symmetry_space_group_name_H-M "I 2 2 2"
_symmetry_group_IT_number 23
_symmetry_cell_setting 'orthorhombic'
loop_
_space_group_symop_operation_xyz
x,y,z
-x,-y,z
x,-y,-z
-x,y,-z
1/2+x,1/2+y,1/2+z
1/2-x,1/2-y,1/2+z
1/2+x,1/2-y,1/2-z
1/2-x,1/2+y,1/2-z
loop_
_atom_site_type_symbol
_atom_site_label
_atom_site_fract_x
_atom_site_fract_y
_atom_site_fract_z
Si Si1 0.729919 0.340502 0.700029
Si Si2 0.000000 0.500000 0.500000
Si Si3 0.198412 0.516032 0.234244
Si Si4 0.328641 0.113533 0.543209
Si Si5 0.325592 0.446408 0.910574
Si Si6 0.910746 0.383440 0.375042
Si Si7 0.634287 0.747765 0.662090
O O1 0.707230 0.428768 0.744062
O O2 0.551145 0.301317 0.667778
O O3 0.807728 0.274735 0.757611
O O4 0.887903 0.360066 0.643624
O O5 0.897944 0.439311 0.446069
O O6 0.290725 0.572615 0.173172
O O7 0.166923 0.564852 0.308095
O O8 0.000000 0.500000 0.209734
O O9 0.500000 0.130939 0.500000
O O10 0.189497 0.119236 0.475831
O O11 0.352188 0.169558 0.613587
O O12 0.309716 0.019821 0.571356
O O13 0.500000 0.500000 0.913913
O O14 0.784178 0.305804 0.376238
#
# Coordination Sequence:
#
# PCOD9331239 Si02
#       7
#     8   2   8   8   8   8   8
#     4  11  23  46  72 111 141 191 248 297 377 429
#     4  12  24  56  74 104 148 206 252 304 374 444
#     4  10  21  44  75 100 134 187 244 299 349 438
#     4  11  24  43  61  97 148 192 226 287 384 436
#     4  11  23  41  71 105 141 189 245 296 359 461
#     4  11  26  48  78 101 144 195 249 307 363 441
#     4  12  26  44  73 112 152 190 242 317 373 450
#
# _framework density 21.938700000000001
#
# number of rings (size 3 to 8) (size 9 to 14) (size 15 to 20)
#    0.000    0.960    5.600    2.880    4.480    1.280 
#    8.640    0.800    0.000    0.000    0.000    0.000 
#    0.000    0.000    0.000    0.000    0.000    0.000 
#
# Total GULP energy -139338.466752 kJ/mol
# GULP energy per Si atom -5573.538670 kJ/mol
# Density = 2.188877 g / cm^3
# Si number density = 21.938700 Si / 1000 Ang^3
#
#
#
# Elastic Constant Matrix: (Units=GPa)
#
#
# Indices 1 2 3 4 5 6 
#
# 1 72.0569 2.5063 29.9651 0.0000 0.0000 0.0000
# 2 2.5063 50.1512 12.4073 0.0000 0.0000 0.0000
# 3 29.9651 12.4073 129.0575 0.0000 0.0000 0.0000
# 4 0.0000 0.0000 0.0000 88.8516 0.0000 0.0000
# 5 0.0000 0.0000 0.0000 0.0000 6.1737 0.0000
# 6 0.0000 0.0000 0.0000 0.0000 0.0000 -3.4488
#
#
#
# Elastic Compliance Matrix: (Units=1/GPa)
#
#
# Indices 1 2 3 4 5 6 
#
# 1 0.015362 0.000118 -0.003578 0.000000 0.000000 0.000000
# 2 0.000118 0.020426 -0.001991 0.000000 0.000000 0.000000
# 3 -0.003578 -0.001991 0.008771 0.000000 0.000000 0.000000
# 4 0.000000 0.000000 0.000000 0.011255 0.000000 0.000000
# 5 0.000000 0.000000 0.000000 0.000000 0.161976 0.000000
# 6 0.000000 0.000000 0.000000 0.000000 0.000000 -0.289955
#
#
# Mechanical properties :
#
#
# Convention : Reuss Voigt Hill
#
# Bulk Modulus (GPa) = 29.71266 37.89145 33.80206
# Shear Modulus (GPa) = -99.91387 32.07443 -33.91972
#
# Velocity S-wave (km/s) = -6.75582 3.82776 -3.93633
# Velocity P-wave (km/s) = 6.87619 6.06998 2.28444
#
# Compressibility (1/GPa) = 0.03365569
#
# Stress axis : x y z
#
# Youngs Moduli (GPa) = 65.09664 48.95623 114.01644
#
# Poissons Ratio (x) = -0.00575 0.40796
# Poissons Ratio (y) = -0.00765 0.22701
# Poissons Ratio (z) = 0.23292 0.09747
#
# Static dielectric constant tensor:
#      x y z
#    x 1.795850 0.000000 0.000000 
#    y 0.000000 1.908190 0.000000 
#    z 0.000000 0.000000 1.988420 
# 
# From -- ./inp_files/23764.got.cif
#   From: 2010.05.17/outbox.cif.g08.bks.cpg/sg23_12_cif.got.tgz:23764.got - 2010.06.04 12:02:01.
