data_PCOD9331342
_publ_section_title
;
Structure prediction by ZEFSAII (Michael W. Deem and Ramdas Pophale) SiO2 
 PCOD9331342
Probable space group: I 2 2 2
;
_chemical_formula_sum "Si O2"
_cell_formula_units_Z 24
_cell_length_a 8.176419
_cell_length_b 8.522717
_cell_length_c 14.663581
_cell_angle_alpha 90.000000
_cell_angle_beta 90.000000
_cell_angle_gamma 90.000000
_cell_volume 1021.836117
_symmetry_space_group_name_H-M "I 2 2 2"
_symmetry_group_IT_number 23
_symmetry_cell_setting 'orthorhombic'
loop_
_space_group_symop_operation_xyz
x,y,z
-x,-y,z
x,-y,-z
-x,y,-z
1/2+x,1/2+y,1/2+z
1/2-x,1/2-y,1/2+z
1/2+x,1/2-y,1/2-z
1/2-x,1/2+y,1/2-z
loop_
_atom_site_type_symbol
_atom_site_label
_atom_site_fract_x
_atom_site_fract_y
_atom_site_fract_z
Si Si1 0.335816 0.418305 0.631901
Si Si2 0.341870 0.896456 0.274833
Si Si3 0.826004 0.143213 0.450598
O O1 0.500000 0.500000 0.604588
O O2 0.377742 0.287485 0.710836
O O3 0.212369 0.542116 0.676770
O O4 0.258986 0.311578 0.552864
O O5 0.189083 0.910802 0.345122
O O6 0.500000 0.000000 0.301796
O O7 0.000000 0.157276 0.500000
O O8 0.734953 0.000000 0.500000
#
# Coordination Sequence:
#
# PCOD9331342 Si02
#       3
#     8   8   8
#     4  10  22  41  75 115 151 208 271 317 390 478
#     4  10  22  38  73 111 154 198 271 313 392 464
#     4   9  22  40  73 114 158 206 253 329 407 453
#
# _framework density 23.487131999999999
#
# number of rings (size 3 to 8) (size 9 to 14) (size 15 to 20)
#    2.000    0.333    0.000    2.000    4.667    0.667 
#    0.000    0.000    0.000   39.000    0.000    0.000 
#    0.000    0.000    0.000    0.000    0.000    0.000 
#
# Total GULP energy -66824.174959 kJ/mol
# GULP energy per Si atom -5568.681247 kJ/mol
# Density = 2.343367 g / cm^3
# Si number density = 23.487132 Si / 1000 Ang^3
#
#
#
# Elastic Constant Matrix: (Units=GPa)
#
#
# Indices 1 2 3 4 5 6 
#
# 1 142.7960 56.6085 54.3213 0.0000 0.0000 0.0000
# 2 56.6085 108.3143 45.7487 0.0000 0.0000 0.0000
# 3 54.3213 45.7487 79.4616 0.0000 0.0000 0.0000
# 4 0.0000 0.0000 0.0000 -63.5038 0.0000 0.0000
# 5 0.0000 0.0000 0.0000 0.0000 25.4511 0.0000
# 6 0.0000 0.0000 0.0000 0.0000 0.0000 41.7198
#
#
#
# Elastic Compliance Matrix: (Units=1/GPa)
#
#
# Indices 1 2 3 4 5 6 
#
# 1 0.010222 -0.003159 -0.005169 0.000000 0.000000 0.000000
# 2 -0.003159 0.013175 -0.005426 0.000000 0.000000 0.000000
# 3 -0.005169 -0.005426 0.019242 0.000000 0.000000 0.000000
# 4 0.000000 0.000000 0.000000 -0.015747 0.000000 0.000000
# 5 0.000000 0.000000 0.000000 0.000000 0.039291 0.000000
# 6 0.000000 0.000000 0.000000 0.000000 0.000000 0.023969
#
#
# Mechanical properties :
#
#
# Convention : Reuss Voigt Hill
#
# Bulk Modulus (GPa) = 66.08796 71.54765 68.81780
# Shear Modulus (GPa) = 40.74866 12.32631 26.53749
#
# Velocity S-wave (km/s) = 4.16977 2.29336 3.36501
# Velocity P-wave (km/s) = 7.16810 6.12710 6.66795
#
# Compressibility (1/GPa) = 0.01513135
#
# Stress axis : x y z
#
# Youngs Moduli (GPa) = 97.83175 75.90103 51.96933
#
# Poissons Ratio (x) = 0.23977 0.26863
# Poissons Ratio (y) = 0.30904 0.28198
# Poissons Ratio (z) = 0.50569 0.41183
#
# Static dielectric constant tensor:
#      x y z
#    x 1.886570 0.000000 0.000000 
#    y 0.000000 1.929900 0.000000 
#    z 0.000000 0.000000 1.965200 
# 
# From -- ./inp_files/6201.got.cif
#   From: 2010.05.17/outbox.cif.g08.bks.cpg/sg23_4_cif.got.tgz:6201.got - 2010.06.04 12:02:01.
