data_PCOD9331087
_publ_section_title
;
Structure prediction by ZEFSAII (Michael W. Deem and Ramdas Pophale) SiO2 
 PCOD9331087
Probable space group: I 2 2 2
;
_chemical_formula_sum "Si O2"
_cell_formula_units_Z 56
_cell_length_a 11.556707
_cell_length_b 14.279372
_cell_length_c 14.361966
_cell_angle_alpha 90.000000
_cell_angle_beta 90.000000
_cell_angle_gamma 90.000000
_cell_volume 2370.047798
_symmetry_space_group_name_H-M "I 2 2 2"
_symmetry_group_IT_number 23
_symmetry_cell_setting 'orthorhombic'
loop_
_space_group_symop_operation_xyz
x,y,z
-x,-y,z
x,-y,-z
-x,y,-z
1/2+x,1/2+y,1/2+z
1/2-x,1/2-y,1/2+z
1/2+x,1/2-y,1/2-z
1/2-x,1/2+y,1/2-z
loop_
_atom_site_type_symbol
_atom_site_label
_atom_site_fract_x
_atom_site_fract_y
_atom_site_fract_z
Si Si1 0.281431 0.476688 0.205269
Si Si2 0.432635 0.915962 0.749966
Si Si3 0.923978 0.290928 0.418596
Si Si4 0.804569 0.750879 0.961782
Si Si5 0.623865 0.332262 0.177845
Si Si6 0.136210 0.306214 0.151563
Si Si7 0.373593 0.452532 0.408121
O O1 0.163739 0.533922 0.189840
O O2 0.375798 0.554323 0.173649
O O3 0.250359 0.372407 0.169847
O O4 0.302071 0.467614 0.315163
O O5 0.387546 0.850058 0.829992
O O6 0.525111 0.860412 0.690473
O O7 0.500000 0.000000 0.800287
O O8 0.806564 0.270343 0.472115
O O9 0.000000 0.338947 0.500000
O O10 0.011848 0.211154 0.376195
O O11 0.878754 0.701304 0.041208
O O12 0.739794 0.703626 0.874913
O O13 0.872654 0.842041 0.927201
O O14 0.632681 0.287369 0.282312
O O15 0.500000 0.500000 0.396823
O O16 0.320699 0.500000 0.500000
#
# Coordination Sequence:
#
# PCOD9331087 Si02
#       7
#     8   8   8   8   8   8   8
#     4  11  22  42  66  94 140 180 227 296 347 415
#     4   9  19  35  58  91 123 175 232 279 339 400
#     4   9  19  34  59  93 128 174 228 282 339 403
#     4  11  22  43  66  94 140 184 224 289 348 421
#     4  10  21  40  63 100 134 179 238 283 356 417
#     4  10  21  40  66  97 136 187 237 284 350 420
#     4  11  24  42  64 101 139 180 233 278 355 430
#
# _framework density 23.628215999999998
#
# number of rings (size 3 to 8) (size 9 to 14) (size 15 to 20)
#    0.000    1.857    1.429    2.571    2.000    2.000 
#   10.286    0.000    0.000    5.143    0.000    0.000 
#    0.000    0.000    0.000    0.000    0.000    0.000 
#
# Total GULP energy -156138.074202 kJ/mol
# GULP energy per Si atom -5576.359793 kJ/mol
# Density = 2.357444 g / cm^3
# Si number density = 23.628216 Si / 1000 Ang^3
#
#
#
# Elastic Constant Matrix: (Units=GPa)
#
#
# Indices 1 2 3 4 5 6 
#
# 1 73.2021 30.5239 15.6752 0.0000 0.0000 0.0000
# 2 30.5239 72.0654 11.3651 0.0000 0.0000 0.0000
# 3 15.6752 11.3651 48.3814 0.0000 0.0000 0.0000
# 4 0.0000 0.0000 0.0000 17.6022 0.0000 0.0000
# 5 0.0000 0.0000 0.0000 0.0000 14.6068 0.0000
# 6 0.0000 0.0000 0.0000 0.0000 0.0000 29.8220
#
#
#
# Elastic Compliance Matrix: (Units=1/GPa)
#
#
# Indices 1 2 3 4 5 6 
#
# 1 0.017319 -0.006699 -0.004038 0.000000 0.000000 0.000000
# 2 -0.006699 0.017001 -0.001823 0.000000 0.000000 0.000000
# 3 -0.004038 -0.001823 0.022406 0.000000 0.000000 0.000000
# 4 0.000000 0.000000 0.000000 0.056811 0.000000 0.000000
# 5 0.000000 0.000000 0.000000 0.000000 0.068461 0.000000
# 6 0.000000 0.000000 0.000000 0.000000 0.000000 0.033532
#
#
# Mechanical properties :
#
#
# Convention : Reuss Voigt Hill
#
# Bulk Modulus (GPa) = 31.63942 34.30858 32.97400
# Shear Modulus (GPa) = 19.90568 21.47850 20.69209
#
# Velocity S-wave (km/s) = 2.90565 3.01827 2.96250
# Velocity P-wave (km/s) = 4.96756 5.16704 5.06828
#
# Compressibility (1/GPa) = 0.03160615
#
# Stress axis : x y z
#
# Youngs Moduli (GPa) = 57.74129 58.81963 44.63178
#
# Poissons Ratio (x) = 0.39402 0.18020
# Poissons Ratio (y) = 0.38679 0.08138
# Poissons Ratio (z) = 0.23313 0.10725
#
# Static dielectric constant tensor:
#      x y z
#    x 1.984510 0.000000 0.000000 
#    y 0.000000 1.965630 0.000000 
#    z 0.000000 0.000000 1.929440 
# 
# From -- ./inp_files/20890.got.cif
#   From: 2010.05.17/outbox.cif.g08.bks.cpg/sg23_11_cif.got.tgz:20890.got - 2010.06.04 12:02:01.
