data_PCOD9331018
_publ_section_title
;
Structure prediction by ZEFSAII (Michael W. Deem and Ramdas Pophale) SiO2 
 PCOD9331018
Probable space group: I 2 2 2
;
_chemical_formula_sum "Si O2"
_cell_formula_units_Z 56
_cell_length_a 21.370461
_cell_length_b 9.357769
_cell_length_c 12.275950
_cell_angle_alpha 90.000000
_cell_angle_beta 90.000000
_cell_angle_gamma 90.000000
_cell_volume 2454.942486
_symmetry_space_group_name_H-M "I 2 2 2"
_symmetry_group_IT_number 23
_symmetry_cell_setting 'orthorhombic'
loop_
_space_group_symop_operation_xyz
x,y,z
-x,-y,z
x,-y,-z
-x,y,-z
1/2+x,1/2+y,1/2+z
1/2-x,1/2-y,1/2+z
1/2+x,1/2-y,1/2-z
1/2-x,1/2+y,1/2-z
loop_
_atom_site_type_symbol
_atom_site_label
_atom_site_fract_x
_atom_site_fract_y
_atom_site_fract_z
Si Si1 0.749164 0.550081 0.750926
Si Si2 0.219116 0.214853 0.890731
Si Si3 0.987017 0.344322 0.871468
Si Si4 0.070421 0.168832 0.481980
Si Si5 0.330290 0.863443 0.942743
Si Si6 0.614014 0.673197 0.737181
Si Si7 0.418376 0.595743 0.607995
O O1 0.769826 0.617646 0.865789
O O2 0.733399 0.387749 0.715676
O O3 0.806000 0.591612 0.673577
O O4 0.687329 0.643475 0.723727
O O5 0.269099 0.171127 0.983079
O O6 0.148237 0.170843 0.918533
O O7 0.034422 0.215047 0.847249
O O8 0.000000 0.500000 0.822171
O O9 0.918056 0.291620 0.838732
O O10 0.000000 0.355752 0.000000
O O11 0.120940 0.236927 0.561963
O O12 0.095816 0.204127 0.361308
O O13 0.000000 0.221910 0.500000
O O14 0.070399 0.000000 0.500000
O O15 0.361618 0.000000 0.000000
O O16 0.586132 0.521315 0.701952
O O17 0.434185 0.500000 0.500000
#
# Coordination Sequence:
#
# PCOD9331018 Si02
#       7
#     8   8   8   8   8   8   8
#     4  10  22  38  67  93 127 164 214 267 326 397
#     4  10  21  39  63  97 126 166 213 270 324 397
#     4  11  25  42  64 100 138 171 222 284 342 401
#     4  11  27  45  65  94 133 175 228 276 314 395
#     4  10  22  43  65  92 129 165 212 267 332 387
#     4  11  23  44  66  97 133 178 226 270 337 404
#     4  11  22  40  71  97 129 177 222 267 342 408
#
# _framework density 22.811125000000001
#
# number of rings (size 3 to 8) (size 9 to 14) (size 15 to 20)
#    0.000    1.429    2.857    2.571    8.000    1.429 
#    2.571    0.000    0.000    0.000    0.000    0.000 
#    0.000    0.000    0.000    0.000    0.000    0.000 
#
# Total GULP energy -156354.528587 kJ/mol
# GULP energy per Si atom -5584.090307 kJ/mol
# Density = 2.275921 g / cm^3
# Si number density = 22.811125 Si / 1000 Ang^3
#
#
#
# Elastic Constant Matrix: (Units=GPa)
#
#
# Indices 1 2 3 4 5 6 
#
# 1 100.5571 34.2874 -20.9214 0.0000 0.0000 0.0000
# 2 34.2874 71.0941 -5.4136 0.0000 0.0000 0.0000
# 3 -20.9214 -5.4136 21.8938 0.0000 0.0000 0.0000
# 4 0.0000 0.0000 0.0000 26.0627 0.0000 0.0000
# 5 0.0000 0.0000 0.0000 0.0000 13.7676 0.0000
# 6 0.0000 0.0000 0.0000 0.0000 0.0000 7.9210
#
#
#
# Elastic Compliance Matrix: (Units=1/GPa)
#
#
# Indices 1 2 3 4 5 6 
#
# 1 0.014617 -0.006101 0.012459 0.000000 0.000000 0.000000
# 2 -0.006101 0.016882 -0.001655 0.000000 0.000000 0.000000
# 3 0.012459 -0.001655 0.057172 0.000000 0.000000 0.000000
# 4 0.000000 0.000000 0.000000 0.038369 0.000000 0.000000
# 5 0.000000 0.000000 0.000000 0.000000 0.072634 0.000000
# 6 0.000000 0.000000 0.000000 0.000000 0.000000 0.126246
#
#
# Mechanical properties :
#
#
# Convention : Reuss Voigt Hill
#
# Bulk Modulus (GPa) = 10.19605 23.27218 16.73411
# Shear Modulus (GPa) = 14.31817 21.92310 18.12064
#
# Velocity S-wave (km/s) = 2.50808 3.10348 2.82153
# Velocity P-wave (km/s) = 3.58703 4.80275 4.23870
#
# Compressibility (1/GPa) = 0.09807722
#
# Stress axis : x y z
#
# Youngs Moduli (GPa) = 68.41323 59.23430 17.49114
#
# Poissons Ratio (x) = 0.36138 -0.21793
# Poissons Ratio (y) = 0.41738 0.02896
# Poissons Ratio (z) = -0.85239 0.09806
#
# Static dielectric constant tensor:
#      x y z
#    x 1.839820 0.000000 0.000000 
#    y 0.000000 1.900160 0.000000 
#    z 0.000000 0.000000 1.873450 
# 
# From -- ./inp_files/22410.got.cif
#   From: 2010.05.17/outbox.cif.g08.bks.cpg/sg23_12_cif.got.tgz:22410.got - 2010.06.04 12:02:01.
