data_PCOD9331474
_publ_section_title
;
Structure prediction by ZEFSAII (Michael W. Deem and Ramdas Pophale) SiO2 
 PCOD9331474
Probable space group: I 2 2 2
;
_chemical_formula_sum "Si O2"
_cell_formula_units_Z 52
_cell_length_a 8.836829
_cell_length_b 25.253710
_cell_length_c 10.351863
_cell_angle_alpha 90.000000
_cell_angle_beta 90.000000
_cell_angle_gamma 90.000000
_cell_volume 2310.149872
_symmetry_space_group_name_H-M "I 2 2 2"
_symmetry_group_IT_number 23
_symmetry_cell_setting 'orthorhombic'
loop_
_space_group_symop_operation_xyz
x,y,z
-x,-y,z
x,-y,-z
-x,y,-z
1/2+x,1/2+y,1/2+z
1/2-x,1/2-y,1/2+z
1/2+x,1/2-y,1/2-z
1/2-x,1/2+y,1/2-z
loop_
_atom_site_type_symbol
_atom_site_label
_atom_site_fract_x
_atom_site_fract_y
_atom_site_fract_z
Si Si1 0.650871 0.912670 0.950703
Si Si2 0.138203 0.145279 0.158435
Si Si3 0.565689 0.551451 0.355629
Si Si4 0.061603 0.687276 0.722298
Si Si5 0.000000 0.361719 0.000000
Si Si6 0.775660 0.750140 0.625643
Si Si7 0.672999 0.645477 0.960266
O O1 0.755890 0.950527 0.866691
O O2 0.600307 0.863321 0.863156
O O3 0.500000 0.938871 0.000000
O O4 0.748496 0.890271 0.071744
O O5 0.152845 0.203716 0.097547
O O6 0.183628 0.150313 0.306753
O O7 0.983927 0.111564 0.174632
O O8 0.500000 0.500000 0.283489
O O9 0.500000 0.548211 0.500000
O O10 0.212273 0.720924 0.746952
O O11 0.931933 0.720742 0.653633
O O12 0.006613 0.671118 0.866147
O O13 0.828082 0.386631 0.000111
O O14 0.803296 0.796759 0.524215
O O15 0.500000 0.627789 0.000000
#
# Coordination Sequence:
#
# PCOD9331474 Si02
#       7
#     8   8   8   8   4   8   8
#     4  11  22  40  66  96 132 171 221 285 348 421
#     4  11  23  41  61  92 131 171 227 282 332 418
#     4   9  22  45  69  95 126 161 221 295 361 414
#     4  11  24  38  59  92 137 185 231 274 333 398
#     4  10  22  42  54  90 129 180 237 272 314 398
#     4  11  24  36  58  86 137 181 229 263 323 405
#     4  11  24  40  59  89 130 190 224 272 329 403
#
# _framework density 22.509363
#
# number of rings (size 3 to 8) (size 9 to 14) (size 15 to 20)
#    0.000    1.385    3.077    0.923   10.769    0.000 
#   11.077    6.154    0.000    0.462    0.000    1.077 
#    0.000    0.000    0.000    0.000    0.000    0.000 
#
# Total GULP energy -144915.115673 kJ/mol
# GULP energy per Si atom -5573.658295 kJ/mol
# Density = 2.245813 g / cm^3
# Si number density = 22.509363 Si / 1000 Ang^3
#
#
#
# Elastic Constant Matrix: (Units=GPa)
#
#
# Indices 1 2 3 4 5 6 
#
# 1 171.6588 42.8541 23.0692 -0.0004 -0.0004 0.0009
# 2 42.8541 64.2384 7.1423 0.0003 0.0001 -0.0002
# 3 23.0692 7.1423 82.9167 -0.0006 -0.0014 0.0075
# 4 -0.0004 0.0003 -0.0006 -0.8850 -0.0003 0.0022
# 5 -0.0004 0.0001 -0.0014 -0.0003 27.5446 0.0012
# 6 0.0009 -0.0002 0.0075 0.0022 0.0012 -5.4971
#
#
#
# Elastic Compliance Matrix: (Units=1/GPa)
#
#
# Indices 1 2 3 4 5 6 
#
# 1 0.007195 -0.004621 -0.001604 -0.000004 0.000000 -0.000001
# 2 -0.004621 0.018686 -0.000324 0.000008 0.000000 -0.000002
# 3 -0.001604 -0.000324 0.012534 -0.000008 0.000001 0.000017
# 4 -0.000004 0.000008 -0.000008 -1.129904 -0.000010 -0.000452
# 5 0.000000 0.000000 0.000001 -0.000010 0.036305 0.000008
# 6 -0.000001 -0.000002 0.000017 -0.000452 0.000008 -0.181916
#
#
# Mechanical properties :
#
#
# Convention : Reuss Voigt Hill
#
# Bulk Modulus (GPa) = 39.49855 51.66057 45.57956
# Shear Modulus (GPa) = -4.11332 20.61572 8.25120
#
# Velocity S-wave (km/s) = -1.35327 3.02962 1.91667
# Velocity P-wave (km/s) = 3.89152 5.93622 5.01909
#
# Compressibility (1/GPa) = 0.02531739
#
# Stress axis : x y z
#
# Youngs Moduli (GPa) = 138.99045 53.51603 79.78071
#
# Poissons Ratio (x) = 0.24732 0.12794
# Poissons Ratio (y) = 0.64233 0.02583
# Poissons Ratio (z) = 0.22289 0.01733
#
# Static dielectric constant tensor:
#      x y z
#    x 1.999180 0.000000 0.000000 
#    y 0.000000 1.913650 0.000000 
#    z 0.000000 0.000000 1.824300 
# 
# From -- ./inp_files/14934.got.cif
#   From: 2010.05.17/outbox.cif.g08.bks.cpg/sg23_8_cif.got.tgz:14934.got - 2010.06.04 12:02:01.
