data_PCOD9331415
_publ_section_title
;
Structure prediction by ZEFSAII (Michael W. Deem and Ramdas Pophale) SiO2 
 PCOD9331415
Probable space group: I 2 2 2
;
_chemical_formula_sum "Si O2"
_cell_formula_units_Z 38
_cell_length_a 8.012854
_cell_length_b 19.770684
_cell_length_c 10.163016
_cell_angle_alpha 90.000000
_cell_angle_beta 90.000000
_cell_angle_gamma 90.000000
_cell_volume 1610.020974
_symmetry_space_group_name_H-M "I 2 2 2"
_symmetry_group_IT_number 23
_symmetry_cell_setting 'orthorhombic'
loop_
_space_group_symop_operation_xyz
x,y,z
-x,-y,z
x,-y,-z
-x,y,-z
1/2+x,1/2+y,1/2+z
1/2-x,1/2-y,1/2+z
1/2+x,1/2-y,1/2-z
1/2-x,1/2+y,1/2-z
loop_
_atom_site_type_symbol
_atom_site_label
_atom_site_fract_x
_atom_site_fract_y
_atom_site_fract_z
Si Si1 0.000000 0.500000 0.821593
Si Si2 0.000000 0.182061 0.500000
Si Si3 0.788380 0.622916 0.850382
Si Si4 0.500000 0.233496 0.500000
Si Si5 0.167760 0.579684 0.591447
Si Si6 0.209955 0.304901 0.585353
Si Si7 0.500000 0.500000 0.500000
O O1 0.873389 0.552448 0.888240
O O2 0.886478 0.450384 0.730828
O O3 0.896055 0.133745 0.596045
O O4 0.894755 0.235949 0.412516
O O5 0.811186 0.638091 0.695781
O O6 0.881904 0.684753 0.919206
O O7 0.397849 0.280241 0.597107
O O8 0.185979 0.659052 0.556908
O O9 0.355074 0.548735 0.565086
O O10 0.000000 0.564593 0.500000
#
# Coordination Sequence:
#
# PCOD9331415 Si02
#       7
#     4   4   8   4   8   8   2
#     4  12  23  43  70  98 146 185 224 275 360 410
#     4  10  22  40  66 102 134 172 244 282 338 442
#     4  11  23  41  69  94 135 187 221 287 347 408
#     4  10  25  41  62 103 133 170 236 272 338 426
#     4  12  21  39  67 107 147 175 222 294 343 414
#     4  11  20  40  71  99 137 172 222 296 358 396
#     4  12  20  32  56  98 158 178 214 254 352 422
#
# _framework density 23.602179
#
# number of rings (size 3 to 8) (size 9 to 14) (size 15 to 20)
#    0.000    0.842    5.263    1.895    0.000    2.105 
#    0.000    8.421    0.000    7.579    0.000    0.000 
#    0.000    0.000    0.000    0.000    0.000    0.000 
#
# Total GULP energy -105811.755515 kJ/mol
# GULP energy per Si atom -5569.039764 kJ/mol
# Density = 2.354846 g / cm^3
# Si number density = 23.602179 Si / 1000 Ang^3
#
#
#
# Elastic Constant Matrix: (Units=GPa)
#
#
# Indices 1 2 3 4 5 6 
#
# 1 137.8319 47.0239 24.9518 0.0000 0.0000 0.0000
# 2 47.0239 137.3861 24.6836 0.0000 0.0000 0.0000
# 3 24.9518 24.6836 51.6767 0.0001 0.0000 -0.0001
# 4 0.0000 0.0000 0.0001 41.1221 0.0000 -0.0001
# 5 0.0000 0.0000 0.0000 0.0000 19.6736 0.0000
# 6 0.0000 0.0000 -0.0001 -0.0001 0.0000 44.2467
#
#
#
# Elastic Compliance Matrix: (Units=1/GPa)
#
#
# Indices 1 2 3 4 5 6 
#
# 1 0.008623 -0.002410 -0.003012 0.000000 0.000000 0.000000
# 2 -0.002410 0.008636 -0.002961 0.000000 0.000000 0.000000
# 3 -0.003012 -0.002961 0.022220 0.000000 0.000000 0.000000
# 4 0.000000 0.000000 0.000000 0.024318 0.000000 0.000000
# 5 0.000000 0.000000 0.000000 0.000000 0.050830 0.000000
# 6 0.000000 0.000000 0.000000 0.000000 0.000000 0.022601
#
#
# Mechanical properties :
#
#
# Convention : Reuss Voigt Hill
#
# Bulk Modulus (GPa) = 44.03089 57.80147 50.91618
# Shear Modulus (GPa) = 30.94749 36.35750 33.65249
#
# Velocity S-wave (km/s) = 3.62500 3.92909 3.78010
# Velocity P-wave (km/s) = 6.01803 6.71764 6.37744
#
# Compressibility (1/GPa) = 0.02271133
#
# Stress axis : x y z
#
# Youngs Moduli (GPa) = 115.97169 115.79807 45.00462
#
# Poissons Ratio (x) = 0.27909 0.13556
# Poissons Ratio (y) = 0.27951 0.13327
# Poissons Ratio (z) = 0.34933 0.34290
#
# Static dielectric constant tensor:
#      x y z
#    x 1.997570 0.000000 0.000000 
#    y 0.000000 1.866970 0.000000 
#    z 0.000000 0.000000 1.955730 
# 
# From -- ./inp_files/14491.got.cif
#   From: 2010.05.17/outbox.cif.g08.bks.cpg/sg23_8_cif.got.tgz:14491.got - 2010.06.04 12:02:01.
