data_PCOD9331067
_publ_section_title
;
Structure prediction by ZEFSAII (Michael W. Deem and Ramdas Pophale) SiO2 
 PCOD9331067
Probable space group: I 2 2 2
;
_chemical_formula_sum "Si O2"
_cell_formula_units_Z 38
_cell_length_a 21.180165
_cell_length_b 11.156148
_cell_length_c 6.895360
_cell_angle_alpha 90.000000
_cell_angle_beta 90.000000
_cell_angle_gamma 90.000000
_cell_volume 1629.298101
_symmetry_space_group_name_H-M "I 2 2 2"
_symmetry_group_IT_number 23
_symmetry_cell_setting 'orthorhombic'
loop_
_space_group_symop_operation_xyz
x,y,z
-x,-y,z
x,-y,-z
-x,y,-z
1/2+x,1/2+y,1/2+z
1/2-x,1/2-y,1/2+z
1/2+x,1/2-y,1/2-z
1/2-x,1/2+y,1/2-z
loop_
_atom_site_type_symbol
_atom_site_label
_atom_site_fract_x
_atom_site_fract_y
_atom_site_fract_z
Si Si1 0.659579 0.746765 0.600944
Si Si2 0.105739 0.856541 0.267319
Si Si3 0.500000 0.500000 0.000000
Si Si4 0.095228 0.500000 0.000000
Si Si5 0.565556 0.893322 0.111539
Si Si6 0.780767 0.125453 0.524245
O O1 0.614540 0.666633 0.461177
O O2 0.628094 0.880598 0.601846
O O3 0.728149 0.772449 0.505259
O O4 0.677221 0.672678 0.794465
O O5 0.103506 0.726550 0.368514
O O6 0.170926 0.904537 0.350007
O O7 0.046119 0.925780 0.356028
O O8 0.057185 0.437229 0.828861
O O9 0.500000 0.872400 0.000000
O O10 0.600034 0.000000 0.000000
O O11 0.742491 0.000000 0.500000
#
# Coordination Sequence:
#
# PCOD9331067 Si02
#       6
#     8   8   2   4   8   8
#     4  11  24  44  73 109 145 195 253 319 388 454
#     4  11  24  46  71 104 150 197 254 308 379 465
#     4  12  24  50  76 104 160 208 256 306 376 484
#     4  10  22  42  66 102 141 179 246 304 372 446
#     4  10  21  39  68  99 135 182 234 302 371 434
#     4  12  24  44  71 108 149 192 252 316 386 461
#
# _framework density 23.322928999999998
#
# number of rings (size 3 to 8) (size 9 to 14) (size 15 to 20)
#    0.000    1.053    5.263    1.263    0.000    2.526 
#    0.000    4.211    0.000    2.526    0.000    0.000 
#    0.000    0.000    0.000    0.000    0.000    0.000 
#
# Total GULP energy -105784.840484 kJ/mol
# GULP energy per Si atom -5567.623183 kJ/mol
# Density = 2.326984 g / cm^3
# Si number density = 23.322929 Si / 1000 Ang^3
#
#
#
# Elastic Constant Matrix: (Units=GPa)
#
#
# Indices 1 2 3 4 5 6 
#
# 1 58.7374 11.5388 23.8275 0.0000 0.0000 0.0000
# 2 11.5388 94.3702 35.9952 0.0000 0.0000 0.0000
# 3 23.8275 35.9952 121.2046 0.0000 0.0000 0.0000
# 4 0.0000 0.0000 0.0000 31.8916 0.0000 0.0000
# 5 0.0000 0.0000 0.0000 0.0000 26.3005 0.0000
# 6 0.0000 0.0000 0.0000 0.0000 0.0000 11.4254
#
#
#
# Elastic Compliance Matrix: (Units=1/GPa)
#
#
# Indices 1 2 3 4 5 6 
#
# 1 0.018582 -0.000991 -0.003359 0.000000 0.000000 0.000000
# 2 -0.000991 0.012003 -0.003370 0.000000 0.000000 0.000000
# 3 -0.003359 -0.003370 0.009912 0.000000 0.000000 0.000000
# 4 0.000000 0.000000 0.000000 0.031356 0.000000 0.000000
# 5 0.000000 0.000000 0.000000 0.000000 0.038022 0.000000
# 6 0.000000 0.000000 0.000000 0.000000 0.000000 0.087524
#
#
# Mechanical properties :
#
#
# Convention : Reuss Voigt Hill
#
# Bulk Modulus (GPa) = 39.90797 46.33727 43.12262
# Shear Modulus (GPa) = 22.60491 27.45356 25.02923
#
# Velocity S-wave (km/s) = 3.11660 3.43462 3.27947
# Velocity P-wave (km/s) = 5.48626 5.96989 5.73318
#
# Compressibility (1/GPa) = 0.02505765
#
# Stress axis : x y z
#
# Youngs Moduli (GPa) = 53.81520 83.31198 100.89210
#
# Poissons Ratio (x) = 0.08256 0.33887
# Poissons Ratio (y) = 0.05333 0.33999
# Poissons Ratio (z) = 0.18075 0.28075
#
# Static dielectric constant tensor:
#      x y z
#    x 2.055590 0.000000 0.000000 
#    y 0.000000 2.053610 0.000000 
#    z 0.000000 0.000000 1.906170 
# 
# From -- ./inp_files/4776.got.cif
#   From: 2010.05.17/outbox.cif.g08.bks.cpg/sg23_3_cif.got.tgz:4776.got - 2010.06.04 12:02:01.
