data_PCOD9331350
_publ_section_title
;
Structure prediction by ZEFSAII (Michael W. Deem and Ramdas Pophale) SiO2 
 PCOD9331350
Probable space group: I 2 2 2
;
_chemical_formula_sum "Si O2"
_cell_formula_units_Z 28
_cell_length_a 15.539164
_cell_length_b 17.135572
_cell_length_c 4.608445
_cell_angle_alpha 90.000000
_cell_angle_beta 90.000000
_cell_angle_gamma 90.000000
_cell_volume 1227.102003
_symmetry_space_group_name_H-M "I 2 2 2"
_symmetry_group_IT_number 23
_symmetry_cell_setting 'orthorhombic'
loop_
_space_group_symop_operation_xyz
x,y,z
-x,-y,z
x,-y,-z
-x,y,-z
1/2+x,1/2+y,1/2+z
1/2-x,1/2-y,1/2+z
1/2+x,1/2-y,1/2-z
1/2-x,1/2+y,1/2-z
loop_
_atom_site_type_symbol
_atom_site_label
_atom_site_fract_x
_atom_site_fract_y
_atom_site_fract_z
Si Si1 0.374160 0.000000 0.500000
Si Si2 0.339062 0.687701 0.232712
Si Si3 0.000000 0.000000 0.500000
Si Si4 0.226985 0.644285 0.734075
Si Si5 0.500000 0.394724 0.500000
Si Si6 0.000000 0.500000 0.500000
O O1 0.317104 0.933700 0.346565
O O2 0.433980 0.036488 0.239743
O O3 0.313319 0.668483 0.906362
O O4 0.334020 0.780476 0.277569
O O5 0.428519 0.653890 0.335117
O O6 0.260936 0.645581 0.406477
O O7 0.045024 0.054151 0.741850
#
# Coordination Sequence:
#
# PCOD9331350 Si02
#       6
#     4   8   2   8   4   2
#     4  11  22  41  64  88 120 156 190 251 296 335
#     4  10  22  39  60  88 121 157 199 238 293 359
#     4  10  24  36  54  88 116 144 204 236 280 352
#     4  10  22  40  61  89 120 156 198 238 294 363
#     4  11  22  40  60  87 122 158 192 253 292 330
#     4  10  24  38  58  94 116 140 204 240 284 358
#
# _framework density 22.817990000000002
#
# number of rings (size 3 to 8) (size 9 to 14) (size 15 to 20)
#    0.000    1.714    0.000    3.429    0.000    9.143 
#    0.000    2.857    0.000    0.000    0.000    0.000 
#    0.000    0.000    0.000    0.000    0.000    0.000 
#
# Total GULP energy -78008.154832 kJ/mol
# GULP energy per Si atom -5572.011059 kJ/mol
# Density = 2.276606 g / cm^3
# Si number density = 22.817990 Si / 1000 Ang^3
#
#
#
# Elastic Constant Matrix: (Units=GPa)
#
#
# Indices 1 2 3 4 5 6 
#
# 1 46.9385 26.8535 -9.0716 0.0000 0.0000 0.0000
# 2 26.8535 94.4687 5.2697 0.0000 0.0000 0.0000
# 3 -9.0716 5.2697 86.6954 0.0000 0.0000 0.0000
# 4 0.0000 0.0000 0.0000 22.9941 0.0000 0.0000
# 5 0.0000 0.0000 0.0000 0.0000 34.5249 0.0000
# 6 0.0000 0.0000 0.0000 0.0000 0.0000 6.0465
#
#
#
# Elastic Compliance Matrix: (Units=1/GPa)
#
#
# Indices 1 2 3 4 5 6 
#
# 1 0.026307 -0.007658 0.003218 0.000000 0.000000 0.000000
# 2 -0.007658 0.012851 -0.001582 0.000000 0.000000 0.000000
# 3 0.003218 -0.001582 0.011968 0.000000 0.000000 0.000000
# 4 0.000000 0.000000 0.000000 0.043489 0.000000 0.000000
# 5 0.000000 0.000000 0.000000 0.000000 0.028965 0.000000
# 6 0.000000 0.000000 0.000000 0.000000 0.000000 0.165386
#
#
# Mechanical properties :
#
#
# Convention : Reuss Voigt Hill
#
# Bulk Modulus (GPa) = 25.58732 30.46733 28.02733
# Shear Modulus (GPa) = 15.92175 26.38317 21.15246
#
# Velocity S-wave (km/s) = 2.64440 3.40405 3.04798
# Velocity P-wave (km/s) = 4.53452 5.36949 4.96957
#
# Compressibility (1/GPa) = 0.03908185
#
# Stress axis : x y z
#
# Youngs Moduli (GPa) = 38.01219 77.81785 83.55921
#
# Poissons Ratio (x) = 0.59590 -0.26891
# Poissons Ratio (y) = 0.29108 0.13222
# Poissons Ratio (z) = -0.12233 0.12314
#
# Static dielectric constant tensor:
#      x y z
#    x 1.855430 0.000000 0.000000 
#    y 0.000000 1.877860 0.000000 
#    z 0.000000 0.000000 1.842000 
# 
# From -- ./inp_files/2088.got.cif
#   From: 2010.05.17/outbox.cif.g08.bks.cpg/sg23_2_cif.got.tgz:2088.got - 2010.06.04 12:02:01.
