data_PCOD9331232
_publ_section_title
;
Structure prediction by ZEFSAII (Michael W. Deem and Ramdas Pophale) SiO2 
 PCOD9331232
Probable space group: I 2 2 2
;
_chemical_formula_sum "Si O2"
_cell_formula_units_Z 42
_cell_length_a 14.981948
_cell_length_b 14.908362
_cell_length_c 9.170787
_cell_angle_alpha 90.000000
_cell_angle_beta 90.000000
_cell_angle_gamma 90.000000
_cell_volume 2048.353091
_symmetry_space_group_name_H-M "I 2 2 2"
_symmetry_group_IT_number 23
_symmetry_cell_setting 'orthorhombic'
loop_
_space_group_symop_operation_xyz
x,y,z
-x,-y,z
x,-y,-z
-x,y,-z
1/2+x,1/2+y,1/2+z
1/2-x,1/2-y,1/2+z
1/2+x,1/2-y,1/2-z
1/2-x,1/2+y,1/2-z
loop_
_atom_site_type_symbol
_atom_site_label
_atom_site_fract_x
_atom_site_fract_y
_atom_site_fract_z
Si Si1 0.785804 0.402240 0.079631
Si Si2 0.000000 0.000000 0.500000
Si Si3 0.635904 0.362063 0.859312
Si Si4 0.254659 0.979417 0.154862
Si Si5 0.453815 0.777498 0.643083
Si Si6 0.952861 0.591738 0.347020
O O1 0.763057 0.432535 0.244307
O O2 0.874520 0.342747 0.086029
O O3 0.799055 0.500000 0.000000
O O4 0.703839 0.351684 0.997571
O O5 0.062684 0.934478 0.407808
O O6 0.697538 0.408218 0.740297
O O7 0.588485 0.281784 0.773326
O O8 0.351021 0.934502 0.129346
O O9 0.213316 0.000000 0.000000
O O10 0.500000 0.733653 0.500000
O O11 0.529376 0.835341 0.725039
O O12 0.000000 0.500000 0.296880
O O13 0.000000 0.616891 0.500000
#
# Coordination Sequence:
#
# PCOD9331232 Si02
#       6
#     8   2   8   8   8   8
#     4  10  21  44  69  98 138 189 221 277 374 422
#     4  12  24  56  74  76 128 196 250 276 356 416
#     4  11  27  46  68  96 132 191 237 287 350 414
#     4  11  20  41  72 101 135 179 233 278 351 428
#     4  12  26  41  68 109 141 175 236 299 340 424
#     4  11  21  39  68 108 144 182 217 276 361 428
#
# _framework density 20.504276999999998
#
# number of rings (size 3 to 8) (size 9 to 14) (size 15 to 20)
#    0.000    0.952    6.667    2.286    1.333    4.571 
#    3.429    0.000    0.000    0.000    0.000    0.000 
#    0.000    0.000    0.000    0.000    0.000    0.000 
#
# Total GULP energy -117225.326533 kJ/mol
# GULP energy per Si atom -5582.158406 kJ/mol
# Density = 2.045761 g / cm^3
# Si number density = 20.504277 Si / 1000 Ang^3
#
#
#
# Elastic Constant Matrix: (Units=GPa)
#
#
# Indices 1 2 3 4 5 6 
#
# 1 47.6749 16.1351 25.7212 0.0000 0.0000 0.0000
# 2 16.1351 50.7513 29.7959 0.0000 0.0000 0.0000
# 3 25.7212 29.7959 137.4213 0.0000 0.0000 0.0000
# 4 0.0000 0.0000 0.0000 14.6046 0.0000 0.0000
# 5 0.0000 0.0000 0.0000 0.0000 37.0865 0.0000
# 6 0.0000 0.0000 0.0000 0.0000 0.0000 30.4329
#
#
#
# Elastic Compliance Matrix: (Units=1/GPa)
#
#
# Indices 1 2 3 4 5 6 
#
# 1 0.024787 -0.005909 -0.003358 0.000000 0.000000 0.000000
# 2 -0.005909 0.023987 -0.004095 0.000000 0.000000 0.000000
# 3 -0.003358 -0.004095 0.008793 0.000000 0.000000 0.000000
# 4 0.000000 0.000000 0.000000 0.068472 0.000000 0.000000
# 5 0.000000 0.000000 0.000000 0.000000 0.026964 0.000000
# 6 0.000000 0.000000 0.000000 0.000000 0.000000 0.032859
#
#
# Mechanical properties :
#
#
# Convention : Reuss Voigt Hill
#
# Bulk Modulus (GPa) = 32.42216 42.12798 37.27507
# Shear Modulus (GPa) = 22.43496 27.37115 24.90306
#
# Velocity S-wave (km/s) = 3.31140 3.65759 3.48879
# Velocity P-wave (km/s) = 5.51971 6.19902 5.86920
#
# Compressibility (1/GPa) = 0.03084310
#
# Stress axis : x y z
#
# Youngs Moduli (GPa) = 40.34376 41.68997 113.72290
#
# Poissons Ratio (x) = 0.24634 0.38191
# Poissons Ratio (y) = 0.23838 0.46568
# Poissons Ratio (z) = 0.13548 0.17071
#
# Static dielectric constant tensor:
#      x y z
#    x 1.704900 0.000000 0.000000 
#    y 0.000000 1.742900 0.000000 
#    z 0.000000 0.000000 1.781840 
# 
# From -- ./inp_files/9617.got.cif
#   From: 2010.05.17/outbox.cif.g08.bks.cpg/sg23_5_cif.got.tgz:9617.got - 2010.06.04 12:02:01.
