data_PCOD9331205
_publ_section_title
;
Structure prediction by ZEFSAII (Michael W. Deem and Ramdas Pophale) SiO2 
 PCOD9331205
Probable space group: I 2 2 2
;
_chemical_formula_sum "Si O2"
_cell_formula_units_Z 60
_cell_length_a 21.129081
_cell_length_b 5.951169
_cell_length_c 20.891930
_cell_angle_alpha 90.000000
_cell_angle_beta 90.000000
_cell_angle_gamma 90.000000
_cell_volume 2627.008352
_symmetry_space_group_name_H-M "I 2 2 2"
_symmetry_group_IT_number 23
_symmetry_cell_setting 'orthorhombic'
loop_
_space_group_symop_operation_xyz
x,y,z
-x,-y,z
x,-y,-z
-x,y,-z
1/2+x,1/2+y,1/2+z
1/2-x,1/2-y,1/2+z
1/2+x,1/2-y,1/2-z
1/2-x,1/2+y,1/2-z
loop_
_atom_site_type_symbol
_atom_site_label
_atom_site_fract_x
_atom_site_fract_y
_atom_site_fract_z
Si Si1 0.500000 0.000000 0.599581
Si Si2 0.654613 0.452643 0.925017
Si Si3 0.906262 0.160405 0.944043
Si Si4 0.676329 0.077096 0.717266
Si Si5 0.714887 0.723767 0.610460
Si Si6 0.293788 0.818767 0.164985
Si Si7 0.022509 0.251117 0.575362
Si Si8 0.062091 0.115759 0.817246
O O1 0.447496 0.120973 0.558665
O O2 0.533373 0.174389 0.645694
O O3 0.721862 0.347009 0.909777
O O4 0.660618 0.679746 0.882370
O O5 0.597492 0.279374 0.912867
O O6 0.648751 0.500000 0.000000
O O7 0.832348 0.205687 0.948790
O O8 0.915739 0.045283 0.874819
O O9 0.927899 0.000000 0.000000
O O10 0.677587 0.881763 0.662416
O O11 0.666524 0.965113 0.785677
O O12 0.748434 0.164975 0.709810
O O13 0.625197 0.279339 0.713944
O O14 0.741412 0.480553 0.631757
O O15 0.000000 0.500000 0.599528
O O16 0.000000 0.251522 0.500000
O O17 0.000000 0.000000 0.599182
O O18 0.000000 0.000000 0.783753
#
# Coordination Sequence:
#
# PCOD9331205 Si02
#       8
#     4   8   8   8   8   8   8   8
#     4  10  22  43  62  88 132 188 244 289 366 424
#     4  11  26  43  67 115 148 190 244 308 388 468
#     4  11  24  39  63  99 138 189 238 303 367 446
#     4  11  21  44  68 102 136 188 257 296 377 451
#     4  11  24  40  67 104 143 189 235 313 374 449
#     4  11  24  40  72 106 144 192 238 317 376 456
#     4  10  21  42  74 108 141 205 249 295 369 474
#     4  10  22  39  66  99 132 186 244 304 366 441
#
# _framework density 22.839669000000001
#
# number of rings (size 3 to 8) (size 9 to 14) (size 15 to 20)
#    0.000    1.333    5.333    0.000    3.733    3.467 
#    0.000    0.000    0.000    2.400    0.000    0.000 
#    2.000    0.000    0.000    0.000    0.000    0.000 
#
# Total GULP energy -167314.647103 kJ/mol
# GULP energy per Si atom -5577.154903 kJ/mol
# Density = 2.278768 g / cm^3
# Si number density = 22.839669 Si / 1000 Ang^3
#
#
#
# Elastic Constant Matrix: (Units=GPa)
#
#
# Indices 1 2 3 4 5 6 
#
# 1 128.7309 54.6220 32.4545 0.0000 0.0000 0.0000
# 2 54.6220 131.9858 38.3195 0.0000 0.0000 0.0000
# 3 32.4545 38.3195 58.8916 0.0000 0.0000 0.0000
# 4 0.0000 0.0000 0.0000 42.2670 0.0000 0.0000
# 5 0.0000 0.0000 0.0000 0.0000 11.1674 0.0000
# 6 0.0000 0.0000 0.0000 0.0000 0.0000 45.1588
#
#
#
# Elastic Compliance Matrix: (Units=1/GPa)
#
#
# Indices 1 2 3 4 5 6 
#
# 1 0.009964 -0.003119 -0.003462 0.000000 0.000000 0.000000
# 2 -0.003119 0.010317 -0.004995 0.000000 0.000000 0.000000
# 3 -0.003462 -0.004995 0.022138 0.000000 0.000000 0.000000
# 4 0.000000 0.000000 0.000000 0.023659 0.000000 0.000000
# 5 0.000000 0.000000 0.000000 0.000000 0.089546 0.000000
# 6 0.000000 0.000000 0.000000 0.000000 0.000000 0.022144
#
#
# Mechanical properties :
#
#
# Convention : Reuss Voigt Hill
#
# Bulk Modulus (GPa) = 51.89613 63.37778 57.63696
# Shear Modulus (GPa) = 24.11469 32.66612 28.39040
#
# Velocity S-wave (km/s) = 3.25287 3.78595 3.52949
# Velocity P-wave (km/s) = 6.07285 6.84985 6.47302
#
# Compressibility (1/GPa) = 0.01926926
#
# Stress axis : x y z
#
# Youngs Moduli (GPa) = 100.35955 96.92493 45.17097
#
# Poissons Ratio (x) = 0.30226 0.15638
# Poissons Ratio (y) = 0.31297 0.22561
# Poissons Ratio (z) = 0.34744 0.48410
#
# Static dielectric constant tensor:
#      x y z
#    x 1.733600 0.000000 0.000000 
#    y 0.000000 1.951140 0.000000 
#    z 0.000000 0.000000 1.877780 
# 
# From -- ./inp_files/28701.got.cif
#   From: 2010.05.17/outbox.cif.g08.bks.cpg/sg23_15_cif.got.tgz:28701.got - 2010.06.04 12:02:01.
