data_PCOD9331880
_publ_section_title
;
Structure prediction by ZEFSAII (Michael W. Deem and Ramdas Pophale) SiO2 
 PCOD9331880
Probable space group: I 2 2 2
;
_chemical_formula_sum "Si O2"
_cell_formula_units_Z 56
_cell_length_a 12.331443
_cell_length_b 13.568771
_cell_length_c 14.971923
_cell_angle_alpha 90.000000
_cell_angle_beta 90.000000
_cell_angle_gamma 90.000000
_cell_volume 2505.139978
_symmetry_space_group_name_H-M "I 2 2 2"
_symmetry_group_IT_number 23
_symmetry_cell_setting 'orthorhombic'
loop_
_space_group_symop_operation_xyz
x,y,z
-x,-y,z
x,-y,-z
-x,y,-z
1/2+x,1/2+y,1/2+z
1/2-x,1/2-y,1/2+z
1/2+x,1/2-y,1/2-z
1/2-x,1/2+y,1/2-z
loop_
_atom_site_type_symbol
_atom_site_label
_atom_site_fract_x
_atom_site_fract_y
_atom_site_fract_z
Si Si1 0.158372 0.099918 0.193826
Si Si2 0.619819 0.807540 0.263678
Si Si3 0.670472 0.913029 0.441680
Si Si4 0.618203 0.274056 0.470781
Si Si5 0.912795 0.918732 0.385078
Si Si6 0.789331 0.119542 0.133772
Si Si7 0.953329 0.307767 0.596557
O O1 0.271845 0.146547 0.222635
O O2 0.082300 0.091699 0.278610
O O3 0.182398 0.991219 0.158474
O O4 0.111143 0.177835 0.124744
O O5 0.604905 0.872173 0.355202
O O6 0.654560 0.698735 0.299049
O O7 0.531997 0.813755 0.183963
O O8 0.690057 0.821334 0.509172
O O9 0.789004 0.947561 0.407778
O O10 0.621264 0.000000 0.500000
O O11 0.500000 0.241996 0.500000
O O12 0.661389 0.357213 0.537087
O O13 0.931098 0.808294 0.419204
O O14 0.000000 0.000000 0.410950
O O15 0.660695 0.141694 0.124533
O O16 0.000000 0.345765 0.500000
#
# Coordination Sequence:
#
# PCOD9331880 Si02
#       7
#     8   8   8   8   8   8   8
#     4  11  24  43  68 102 141 190 250 304 377 451
#     4  10  24  44  69 102 142 196 241 305 388 445
#     4  10  24  47  69 108 147 185 250 308 381 463
#     4  11  25  42  70 102 145 191 243 308 375 455
#     4  11  25  42  71 107 139 191 249 314 379 436
#     4  11  24  47  65 105 149 185 252 314 368 462
#     4  12  25  45  74 104 147 197 249 312 388 454
#
# _framework density 22.354040000000001
#
# number of rings (size 3 to 8) (size 9 to 14) (size 15 to 20)
#    0.000    1.143    4.286    2.143    8.000    3.714 
#    0.000    5.000    0.000    0.000    0.000    0.000 
#    0.000    0.000    0.000    0.000    0.000    0.000 
#
# Total GULP energy -156466.145951 kJ/mol
# GULP energy per Si atom -5588.076641 kJ/mol
# Density = 2.230316 g / cm^3
# Si number density = 22.354040 Si / 1000 Ang^3
#
#
#
# Elastic Constant Matrix: (Units=GPa)
#
#
# Indices 1 2 3 4 5 6 
#
# 1 93.0299 -6.3992 42.5520 0.0000 0.0000 0.0000
# 2 -6.3992 70.8374 34.1232 0.0000 0.0000 0.0000
# 3 42.5520 34.1232 144.0940 0.0000 0.0000 0.0000
# 4 0.0000 0.0000 0.0000 35.1997 0.0000 0.0000
# 5 0.0000 0.0000 0.0000 0.0000 24.0589 0.0000
# 6 0.0000 0.0000 0.0000 0.0000 0.0000 -14.2537
#
#
#
# Elastic Compliance Matrix: (Units=1/GPa)
#
#
# Indices 1 2 3 4 5 6 
#
# 1 0.013134 0.003448 -0.004695 0.000000 0.000000 0.000000
# 2 0.003448 0.016840 -0.005006 0.000000 0.000000 0.000000
# 3 -0.004695 -0.005006 0.009512 0.000000 0.000000 0.000000
# 4 0.000000 0.000000 0.000000 0.028409 0.000000 0.000000
# 5 0.000000 0.000000 0.000000 0.000000 0.041565 0.000000
# 6 0.000000 0.000000 0.000000 0.000000 0.000000 -0.070157
#
#
# Mechanical properties :
#
#
# Convention : Reuss Voigt Hill
#
# Bulk Modulus (GPa) = 37.06507 49.83478 43.44992
# Shear Modulus (GPa) = 82.23433 24.84668 53.54050
#
# Velocity S-wave (km/s) = 6.07183 3.33754 4.89930
# Velocity P-wave (km/s) = 8.11006 6.09869 7.17520
#
# Compressibility (1/GPa) = 0.02697958
#
# Stress axis : x y z
#
# Youngs Moduli (GPa) = 76.13840 59.38293 105.13111
#
# Poissons Ratio (x) = -0.20476 0.49360
# Poissons Ratio (y) = -0.26254 0.52630
# Poissons Ratio (z) = 0.35748 0.29728
#
# Static dielectric constant tensor:
#      x y z
#    x 1.846520 0.000000 0.000000 
#    y 0.000000 1.972520 0.000000 
#    z 0.000000 0.000000 1.876910 
# 
# From -- ./inp_files/20897.got.cif
#   From: 2010.05.17/outbox.cif.g08.bks.cpg/sg23_11_cif.got.tgz:20897.got - 2010.06.04 12:02:01.
