data_PCOD9331563
_publ_section_title
;
Structure prediction by ZEFSAII (Michael W. Deem and Ramdas Pophale) SiO2 
 PCOD9331563
Probable space group: I 2 2 2
;
_chemical_formula_sum "Si O2"
_cell_formula_units_Z 48
_cell_length_a 8.384054
_cell_length_b 16.272039
_cell_length_c 14.872687
_cell_angle_alpha 90.000000
_cell_angle_beta 90.000000
_cell_angle_gamma 90.000000
_cell_volume 2029.016046
_symmetry_space_group_name_H-M "I 2 2 2"
_symmetry_group_IT_number 23
_symmetry_cell_setting 'orthorhombic'
loop_
_space_group_symop_operation_xyz
x,y,z
-x,-y,z
x,-y,-z
-x,y,-z
1/2+x,1/2+y,1/2+z
1/2-x,1/2-y,1/2+z
1/2+x,1/2-y,1/2-z
1/2-x,1/2+y,1/2-z
loop_
_atom_site_type_symbol
_atom_site_label
_atom_site_fract_x
_atom_site_fract_y
_atom_site_fract_z
Si Si1 0.369012 0.165823 0.575154
Si Si2 0.325650 0.027323 0.693229
Si Si3 0.047789 0.755738 0.235530
Si Si4 0.117851 0.924467 0.814620
Si Si5 0.186697 0.667861 0.468664
Si Si6 0.166175 0.665051 0.662695
O O1 0.500000 0.144753 0.500000
O O2 0.270351 0.089073 0.615077
O O3 0.477282 0.198941 0.657394
O O4 0.252286 0.239740 0.547383
O O5 0.345547 0.080800 0.784262
O O6 0.500000 0.000000 0.664159
O O7 0.216845 0.954086 0.727144
O O8 0.984341 0.847165 0.219181
O O9 0.006177 0.710222 0.328998
O O10 0.234085 0.768131 0.220090
O O11 0.233323 0.893270 0.895614
O O12 0.000000 0.000000 0.839613
O O13 0.255141 0.651109 0.569762
O O14 0.000000 0.656078 0.500000
#
# Coordination Sequence:
#
# PCOD9331563 Si02
#       6
#     8   8   8   8   8   8
#     4  10  22  44  70 101 133 182 241 295 344 417
#     4  11  25  42  66  98 142 185 230 281 361 432
#     4  10  23  40  68  98 133 179 235 284 350 415
#     4  11  24  45  67 101 145 189 231 288 364 439
#     4  11  25  42  72 107 138 180 242 301 353 411
#     4  11  23  42  68 100 135 183 232 290 346 422
#
# _framework density 23.656786
#
# number of rings (size 3 to 8) (size 9 to 14) (size 15 to 20)
#    0.000    1.333    3.333    1.000   11.667    1.000 
#    3.000    1.667    0.000    0.000    0.000    0.000 
#    0.000    0.000    0.000    0.000    0.000    0.000 
#
# Total GULP energy -134000.562535 kJ/mol
# GULP energy per Si atom -5583.356772 kJ/mol
# Density = 2.360294 g / cm^3
# Si number density = 23.656786 Si / 1000 Ang^3
#
#
#
# Elastic Constant Matrix: (Units=GPa)
#
#
# Indices 1 2 3 4 5 6 
#
# 1 85.4694 23.5339 21.6731 0.0000 0.0000 0.0000
# 2 23.5339 91.1737 42.3791 0.0000 0.0000 0.0000
# 3 21.6731 42.3791 96.2912 0.0000 0.0000 0.0000
# 4 0.0000 0.0000 0.0000 35.6737 0.0000 0.0000
# 5 0.0000 0.0000 0.0000 0.0000 36.8405 0.0000
# 6 0.0000 0.0000 0.0000 0.0000 0.0000 43.4853
#
#
#
# Elastic Compliance Matrix: (Units=1/GPa)
#
#
# Indices 1 2 3 4 5 6 
#
# 1 0.012839 -0.002478 -0.001799 0.000000 0.000000 0.000000
# 2 -0.002478 0.014267 -0.005721 0.000000 0.000000 0.000000
# 3 -0.001799 -0.005721 0.013308 0.000000 0.000000 0.000000
# 4 0.000000 0.000000 0.000000 0.028032 0.000000 0.000000
# 5 0.000000 0.000000 0.000000 0.000000 0.027144 0.000000
# 6 0.000000 0.000000 0.000000 0.000000 0.000000 0.022996
#
#
# Mechanical properties :
#
#
# Convention : Reuss Voigt Hill
#
# Bulk Modulus (GPa) = 48.97835 49.78962 49.38398
# Shear Modulus (GPa) = 34.39067 35.55646 34.97356
#
# Velocity S-wave (km/s) = 3.81692 3.88108 3.84913
# Velocity P-wave (km/s) = 6.33829 6.41685 6.37769
#
# Compressibility (1/GPa) = 0.02041719
#
# Stress axis : x y z
#
# Youngs Moduli (GPa) = 77.89045 70.09175 75.14146
#
# Poissons Ratio (x) = 0.17366 0.13520
# Poissons Ratio (y) = 0.19298 0.42992
# Poissons Ratio (z) = 0.14015 0.40103
#
# Static dielectric constant tensor:
#      x y z
#    x 2.067570 0.000000 0.000000 
#    y 0.000000 1.887590 0.000000 
#    z 0.000000 0.000000 2.079220 
# 
# From -- ./inp_files/19988.got.cif
#   From: 2010.05.17/outbox.cif.g08.bks.cpg/sg23_10_cif.got.tgz:19988.got - 2010.06.04 12:02:01.
