data_PCOD9331426
_publ_section_title
;
Structure prediction by ZEFSAII (Michael W. Deem and Ramdas Pophale) SiO2 
 PCOD9331426
Probable space group: I 2 2 2
;
_chemical_formula_sum "Si O2"
_cell_formula_units_Z 46
_cell_length_a 21.366410
_cell_length_b 5.182054
_cell_length_c 17.678328
_cell_angle_alpha 90.000000
_cell_angle_beta 90.000000
_cell_angle_gamma 90.000000
_cell_volume 1957.377895
_symmetry_space_group_name_H-M "I 2 2 2"
_symmetry_group_IT_number 23
_symmetry_cell_setting 'orthorhombic'
loop_
_space_group_symop_operation_xyz
x,y,z
-x,-y,z
x,-y,-z
-x,y,-z
1/2+x,1/2+y,1/2+z
1/2-x,1/2-y,1/2+z
1/2+x,1/2-y,1/2-z
1/2-x,1/2+y,1/2-z
loop_
_atom_site_type_symbol
_atom_site_label
_atom_site_fract_x
_atom_site_fract_y
_atom_site_fract_z
Si Si1 0.801601 0.883869 0.916774
Si Si2 0.116369 0.297445 0.568205
Si Si3 0.000000 0.000000 0.500000
Si Si4 0.434466 0.906410 0.774968
Si Si5 0.225209 0.358882 0.280708
Si Si6 0.232703 0.000000 0.500000
Si Si7 0.609184 0.606196 0.704880
O O1 0.743087 0.951030 0.863746
O O2 0.783402 0.591972 0.936837
O O3 0.861306 0.991186 0.871973
O O4 0.797132 0.000000 0.000000
O O5 0.116822 0.500000 0.500000
O O6 0.111516 0.410690 0.652591
O O7 0.179862 0.139618 0.552536
O O8 0.050420 0.146285 0.553769
O O9 0.430944 0.619747 0.742164
O O10 0.500000 0.000000 0.807352
O O11 0.423003 0.114127 0.707387
O O12 0.222227 0.630942 0.235283
O O13 0.167011 0.178621 0.260058
#
# Coordination Sequence:
#
# PCOD9331426 Si02
#       7
#     8   8   2   8   8   4   8
#     4  11  26  43  71 102 144 190 241 289 367 445
#     4  11  25  43  67 106 147 199 252 303 369 439
#     4  10  22  40  68  98 156 196 262 300 368 432
#     4  12  27  46  76 102 143 190 253 306 368 429
#     4  10  22  41  66 101 144 188 231 279 354 435
#     4  11  26  41  72 106 151 190 243 302 360 462
#     4  11  26  46  71 104 143 191 236 308 366 432
#
# _framework density 23.500827000000001
#
# number of rings (size 3 to 8) (size 9 to 14) (size 15 to 20)
#    0.000    1.043    0.000    5.478   19.478    0.000 
#    0.000    0.000    0.000    3.130    0.000    0.000 
#    0.000    0.000    0.000    0.000    0.000    0.000 
#
# Total GULP energy -128037.340551 kJ/mol
# GULP energy per Si atom -5566.840894 kJ/mol
# Density = 2.344734 g / cm^3
# Si number density = 23.500827 Si / 1000 Ang^3
#
#
#
# Elastic Constant Matrix: (Units=GPa)
#
#
# Indices 1 2 3 4 5 6 
#
# 1 54.0718 33.5582 23.5604 0.0000 0.0000 0.0000
# 2 33.5582 122.5218 30.6390 0.0000 0.0000 0.0000
# 3 23.5604 30.6390 141.2994 0.0000 0.0000 0.0000
# 4 0.0000 0.0000 0.0000 35.2697 0.0000 0.0000
# 5 0.0000 0.0000 0.0000 0.0000 25.1986 0.0000
# 6 0.0000 0.0000 0.0000 0.0000 0.0000 39.2668
#
#
#
# Elastic Compliance Matrix: (Units=1/GPa)
#
#
# Indices 1 2 3 4 5 6 
#
# 1 0.023170 -0.005689 -0.002630 0.000000 0.000000 0.000000
# 2 -0.005689 0.010026 -0.001226 0.000000 0.000000 0.000000
# 3 -0.002630 -0.001226 0.007781 0.000000 0.000000 0.000000
# 4 0.000000 0.000000 0.000000 0.028353 0.000000 0.000000
# 5 0.000000 0.000000 0.000000 0.000000 0.039685 0.000000
# 6 0.000000 0.000000 0.000000 0.000000 0.000000 0.025467
#
#
# Mechanical properties :
#
#
# Convention : Reuss Voigt Hill
#
# Bulk Modulus (GPa) = 45.68311 54.82313 50.25312
# Shear Modulus (GPa) = 31.08148 35.28938 33.18543
#
# Velocity S-wave (km/s) = 3.64066 3.87928 3.76186
# Velocity P-wave (km/s) = 6.09538 6.59120 6.34813
#
# Compressibility (1/GPa) = 0.02188993
#
# Stress axis : x y z
#
# Youngs Moduli (GPa) = 43.15864 99.73692 128.51091
#
# Poissons Ratio (x) = 0.56736 0.33798
# Poissons Ratio (y) = 0.24551 0.15750
# Poissons Ratio (z) = 0.11350 0.12223
#
# Static dielectric constant tensor:
#      x y z
#    x 2.054140 0.000000 0.000000 
#    y 0.000000 2.178930 0.000000 
#    z 0.000000 0.000000 1.950000 
# 
# From -- ./inp_files/25415.got.cif
#   From: 2010.05.17/outbox.cif.g08.bks.cpg/sg23_13_cif.got.tgz:25415.got - 2010.06.04 12:02:01.
