data_PCOD9331750
_publ_section_title
;
Structure prediction by ZEFSAII (Michael W. Deem and Ramdas Pophale) SiO2 
 PCOD9331750
Probable space group: I 2 2 2
;
_chemical_formula_sum "Si O2"
_cell_formula_units_Z 40
_cell_length_a 5.578066
_cell_length_b 15.497154
_cell_length_c 20.074250
_cell_angle_alpha 90.000000
_cell_angle_beta 90.000000
_cell_angle_gamma 90.000000
_cell_volume 1735.301434
_symmetry_space_group_name_H-M "I 2 2 2"
_symmetry_group_IT_number 23
_symmetry_cell_setting 'orthorhombic'
loop_
_space_group_symop_operation_xyz
x,y,z
-x,-y,z
x,-y,-z
-x,y,-z
1/2+x,1/2+y,1/2+z
1/2-x,1/2-y,1/2+z
1/2+x,1/2-y,1/2-z
1/2-x,1/2+y,1/2-z
loop_
_atom_site_type_symbol
_atom_site_label
_atom_site_fract_x
_atom_site_fract_y
_atom_site_fract_z
Si Si1 0.347265 0.082759 0.605393
Si Si2 0.500000 0.500000 0.500000
Si Si3 0.000000 0.704379 0.000000
Si Si4 0.809144 0.643995 0.552172
Si Si5 0.408030 0.643888 0.762834
Si Si6 0.586986 0.844720 0.206300
Si Si7 0.500000 0.500000 0.000000
O O1 0.526450 0.149051 0.567841
O O2 0.179336 0.117901 0.663557
O O3 0.171573 0.055813 0.546083
O O4 0.500000 0.000000 0.627764
O O5 0.617639 0.568115 0.550763
O O6 0.214775 0.768543 0.981908
O O7 0.883724 0.661775 0.627182
O O8 0.000000 0.609000 0.500000
O O9 0.424483 0.748368 0.762283
O O10 0.671628 0.613583 0.738672
O O11 0.175464 0.615641 0.719995
#
# Coordination Sequence:
#
# PCOD9331750 Si02
#       7
#     8   2   4   8   8   8   2
#     4  12  25  44  64 104 147 189 237 290 358 418
#     4  10  26  48  64 102 142 160 228 298 366 410
#     4  11  23  41  69 108 134 178 241 293 355 421
#     4  11  25  44  77 103 134 181 231 304 359 429
#     4  10  24  44  68 100 142 186 234 291 341 435
#     4  10  23  44  72 101 136 183 239 290 353 417
#     4  12  26  40  70  94 152 194 228 304 350 416
#
# _framework density 23.050749
#
# number of rings (size 3 to 8) (size 9 to 14) (size 15 to 20)
#    0.000    1.200    4.000    0.300    9.800    1.600 
#    3.600    0.000    0.000    0.000    0.000    0.000 
#    0.000    0.000    0.000    0.000    0.000    0.000 
#
# Total GULP energy -111650.741440 kJ/mol
# GULP energy per Si atom -5582.537072 kJ/mol
# Density = 2.299828 g / cm^3
# Si number density = 23.050749 Si / 1000 Ang^3
#
#
#
# Elastic Constant Matrix: (Units=GPa)
#
#
# Indices 1 2 3 4 5 6 
#
# 1 73.9288 14.3470 24.7372 0.0000 0.0000 0.0000
# 2 14.3470 57.3409 -10.1423 0.0000 0.0000 0.0000
# 3 24.7372 -10.1423 85.2850 0.0000 0.0000 0.0000
# 4 0.0000 0.0000 0.0000 14.8417 0.0000 0.0000
# 5 0.0000 0.0000 0.0000 0.0000 10.4586 0.0000
# 6 0.0000 0.0000 0.0000 0.0000 0.0000 44.3823
#
#
#
# Elastic Compliance Matrix: (Units=1/GPa)
#
#
# Indices 1 2 3 4 5 6 
#
# 1 0.016279 -0.005014 -0.005318 0.000000 0.000000 0.000000
# 2 -0.005014 0.019358 0.003756 0.000000 0.000000 0.000000
# 3 -0.005318 0.003756 0.013715 0.000000 0.000000 0.000000
# 4 0.000000 0.000000 0.000000 0.067378 0.000000 0.000000
# 5 0.000000 0.000000 0.000000 0.000000 0.095615 0.000000
# 6 0.000000 0.000000 0.000000 0.000000 0.000000 0.022531
#
#
# Mechanical properties :
#
#
# Convention : Reuss Voigt Hill
#
# Bulk Modulus (GPa) = 27.62327 30.49316 29.05822
# Shear Modulus (GPa) = 19.22381 26.44404 22.83392
#
# Velocity S-wave (km/s) = 2.89100 3.39072 3.15078
# Velocity P-wave (km/s) = 4.81181 5.34666 5.08627
#
# Compressibility (1/GPa) = 0.03620136
#
# Stress axis : x y z
#
# Youngs Moduli (GPa) = 61.42890 51.65704 72.91486
#
# Poissons Ratio (x) = 0.25899 0.38776
# Poissons Ratio (y) = 0.30799 -0.27390
# Poissons Ratio (z) = 0.32668 -0.19404
#
# Static dielectric constant tensor:
#      x y z
#    x 1.933430 0.000000 0.000000 
#    y 0.000000 1.930520 0.000000 
#    z 0.000000 0.000000 1.899880 
# 
# From -- ./inp_files/23056.got.cif
#   From: 2010.05.17/outbox.cif.g08.bks.cpg/sg23_12_cif.got.tgz:23056.got - 2010.06.04 12:02:01.
