data_PCOD9331568
_publ_section_title
;
Structure prediction by ZEFSAII (Michael W. Deem and Ramdas Pophale) SiO2 
 PCOD9331568
Probable space group: I 2 2 2
;
_chemical_formula_sum "Si O2"
_cell_formula_units_Z 34
_cell_length_a 11.326234
_cell_length_b 12.400989
_cell_length_c 8.807073
_cell_angle_alpha 90.000000
_cell_angle_beta 90.000000
_cell_angle_gamma 90.000000
_cell_volume 1237.010677
_symmetry_space_group_name_H-M "I 2 2 2"
_symmetry_group_IT_number 23
_symmetry_cell_setting 'orthorhombic'
loop_
_space_group_symop_operation_xyz
x,y,z
-x,-y,z
x,-y,-z
-x,y,-z
1/2+x,1/2+y,1/2+z
1/2-x,1/2-y,1/2+z
1/2+x,1/2-y,1/2-z
1/2-x,1/2+y,1/2-z
loop_
_atom_site_type_symbol
_atom_site_label
_atom_site_fract_x
_atom_site_fract_y
_atom_site_fract_z
Si Si1 0.287073 0.752102 0.481937
Si Si2 0.913909 0.171916 0.280149
Si Si3 0.500000 0.000000 0.000000
Si Si4 0.840969 0.073318 0.760887
Si Si5 0.619996 0.951621 0.701488
O O1 0.153956 0.788580 0.431399
O O2 0.351389 0.741202 0.645509
O O3 0.302806 0.632918 0.412699
O O4 0.354444 0.839766 0.378181
O O5 0.054348 0.152850 0.294848
O O6 0.884497 0.049023 0.231426
O O7 0.412946 0.061961 0.881919
O O8 0.720771 0.041798 0.672312
O O9 0.500000 0.000000 0.646367
#
# Coordination Sequence:
#
# PCOD9331568 Si02
#       5
#     8   8   2   8   8
#     4  11  23  41  73 108 144 201 256 320 389 465
#     4  10  24  44  73 111 145 203 260 321 384 475
#     4   8  20  40  68  98 142 190 252 312 380 452
#     4  10  22  44  73 103 150 200 256 306 390 483
#     4   9  22  41  69 104 147 196 253 319 376 468
#
# _framework density 27.485614999999999
#
# number of rings (size 3 to 8) (size 9 to 14) (size 15 to 20)
#    0.706    1.412    0.000    1.412    9.882    1.882 
#    0.000    4.706    0.000   16.941    0.000    0.000 
#    0.000    0.000    0.000    0.000    0.000    0.000 
#
# Total GULP energy -94725.577590 kJ/mol
# GULP energy per Si atom -5572.092799 kJ/mol
# Density = 2.742306 g / cm^3
# Si number density = 27.485615 Si / 1000 Ang^3
#
#
#
# Elastic Constant Matrix: (Units=GPa)
#
#
# Indices 1 2 3 4 5 6 
#
# 1 225.5535 64.2833 85.0219 0.0000 0.0000 0.0000
# 2 64.2833 151.4885 88.4795 0.0000 0.0000 0.0000
# 3 85.0219 88.4795 207.2658 0.0000 0.0000 0.0000
# 4 0.0000 0.0000 0.0000 9.5447 0.0000 0.0000
# 5 0.0000 0.0000 0.0000 0.0000 -58.1933 0.0000
# 6 0.0000 0.0000 0.0000 0.0000 0.0000 53.7776
#
#
#
# Elastic Compliance Matrix: (Units=1/GPa)
#
#
# Indices 1 2 3 4 5 6 
#
# 1 0.005441 -0.001339 -0.001660 0.000000 0.000000 0.000000
# 2 -0.001339 0.009123 -0.003345 0.000000 0.000000 0.000000
# 3 -0.001660 -0.003345 0.006934 0.000000 0.000000 0.000000
# 4 0.000000 0.000000 0.000000 0.104771 0.000000 0.000000
# 5 0.000000 0.000000 0.000000 0.000000 -0.017184 0.000000
# 6 0.000000 0.000000 0.000000 0.000000 0.000000 0.018595
#
#
# Mechanical properties :
#
#
# Convention : Reuss Voigt Hill
#
# Bulk Modulus (GPa) = 113.52399 117.76413 115.64406
# Shear Modulus (GPa) = 34.89048 24.12733 29.50890
#
# Velocity S-wave (km/s) = 3.56674 2.96601 3.28016
# Velocity P-wave (km/s) = 7.63904 7.39381 7.51742
#
# Compressibility (1/GPa) = 0.00880871
#
# Stress axis : x y z
#
# Youngs Moduli (GPa) = 183.78836 109.60926 144.21981
#
# Poissons Ratio (x) = 0.14678 0.23945
# Poissons Ratio (y) = 0.24612 0.48246
# Poissons Ratio (z) = 0.30514 0.36668
#
# Static dielectric constant tensor:
#      x y z
#    x 2.405980 0.000000 0.000000 
#    y 0.000000 2.110270 0.000000 
#    z 0.000000 0.000000 2.201180 
# 
# From -- ./inp_files/17306.got.cif
#   From: 2010.05.17/outbox.cif.g08.bks.cpg/sg23_9_cif.got.tgz:17306.got - 2010.06.04 12:02:01.
