data_PCOD9331300
_publ_section_title
;
Structure prediction by ZEFSAII (Michael W. Deem and Ramdas Pophale) SiO2 
 PCOD9331300
Probable space group: I 2 2 2
;
_chemical_formula_sum "Si O2"
_cell_formula_units_Z 36
_cell_length_a 5.520747
_cell_length_b 24.257656
_cell_length_c 12.504109
_cell_angle_alpha 90.000000
_cell_angle_beta 90.000000
_cell_angle_gamma 90.000000
_cell_volume 1674.555049
_symmetry_space_group_name_H-M "I 2 2 2"
_symmetry_group_IT_number 23
_symmetry_cell_setting 'orthorhombic'
loop_
_space_group_symop_operation_xyz
x,y,z
-x,-y,z
x,-y,-z
-x,y,-z
1/2+x,1/2+y,1/2+z
1/2-x,1/2-y,1/2+z
1/2+x,1/2-y,1/2-z
1/2-x,1/2+y,1/2-z
loop_
_atom_site_type_symbol
_atom_site_label
_atom_site_fract_x
_atom_site_fract_y
_atom_site_fract_z
Si Si1 0.039353 0.564275 0.262958
Si Si2 0.461285 0.434720 0.383213
Si Si3 0.685221 0.169802 0.316007
Si Si4 0.500000 0.295810 0.000000
Si Si5 0.884583 0.224340 0.115089
O O1 0.308439 0.577678 0.306586
O O2 0.000000 0.500000 0.225917
O O3 0.819203 0.570388 0.348644
O O4 0.976969 0.615312 0.186226
O O5 0.500000 0.500000 0.392454
O O6 0.500000 0.409721 0.500000
O O7 0.842698 0.167054 0.422406
O O8 0.833209 0.178413 0.204665
O O9 0.543524 0.227409 0.331197
O O10 0.641606 0.255172 0.079288
O O11 0.000000 0.208618 0.000000
#
# Coordination Sequence:
#
# PCOD9331300 Si02
#       5
#     8   8   8   4   8
#     4  10  22  37  62  94 131 181 224 277 338 404
#     4   9  18  36  56  85 127 175 224 271 329 395
#     4  11  22  40  68  94 137 172 225 282 344 406
#     4  10  22  42  64  93 127 172 218 278 340 402
#     4  10  22  40  64  95 130 169 220 279 346 404
#
# _framework density 21.498248
#
# number of rings (size 3 to 8) (size 9 to 14) (size 15 to 20)
#    0.000    2.000    2.222    0.667    3.111    3.556 
#    4.000    0.000    0.000    7.333    0.000    0.000 
#    0.000    1.778    0.000    0.000    0.000    0.000 
#
# Total GULP energy -100258.425428 kJ/mol
# GULP energy per Si atom -5569.912524 kJ/mol
# Density = 2.144932 g / cm^3
# Si number density = 21.498248 Si / 1000 Ang^3
#
#
#
# Elastic Constant Matrix: (Units=GPa)
#
#
# Indices 1 2 3 4 5 6 
#
# 1 76.9184 15.3856 22.6860 0.0000 0.0000 0.0000
# 2 15.3856 127.5602 40.1663 0.0000 0.0000 0.0000
# 3 22.6860 40.1663 81.0114 0.0001 0.0000 0.0000
# 4 0.0000 0.0000 0.0001 -9.6018 0.0000 0.0000
# 5 0.0000 0.0000 0.0000 0.0000 6.4305 0.0000
# 6 0.0000 0.0000 0.0000 0.0000 0.0000 17.5474
#
#
#
# Elastic Compliance Matrix: (Units=1/GPa)
#
#
# Indices 1 2 3 4 5 6 
#
# 1 0.014203 -0.000546 -0.003707 0.000000 0.000000 0.000000
# 2 -0.000546 0.009311 -0.004463 0.000000 0.000000 0.000000
# 3 -0.003707 -0.004463 0.015595 0.000000 0.000000 0.000000
# 4 0.000000 0.000000 0.000000 -0.104147 0.000000 0.000000
# 5 0.000000 0.000000 0.000000 0.000000 0.155509 0.000000
# 6 0.000000 0.000000 0.000000 0.000000 0.000000 0.056988
#
#
# Mechanical properties :
#
#
# Convention : Reuss Voigt Hill
#
# Bulk Modulus (GPa) = 46.13248 49.10731 47.61990
# Shear Modulus (GPa) = 29.04997 16.69203 22.87100
#
# Velocity S-wave (km/s) = 3.67995 2.78948 3.26522
# Velocity P-wave (km/s) = 6.28978 5.76776 6.03442
#
# Compressibility (1/GPa) = 0.02167670
#
# Stress axis : x y z
#
# Youngs Moduli (GPa) = 70.40649 107.40273 64.12315
#
# Poissons Ratio (x) = 0.05863 0.23769
# Poissons Ratio (y) = 0.03844 0.28621
# Poissons Ratio (z) = 0.26098 0.47939
#
# Static dielectric constant tensor:
#      x y z
#    x 1.849590 0.000000 0.000000 
#    y 0.000000 1.858500 0.000000 
#    z 0.000000 0.000000 1.961910 
# 
# From -- ./inp_files/1581.got.cif
#   From: 2010.05.17/outbox.cif.g08.bks.cpg/sg23_1_cif.got.tgz:1581.got - 2010.06.04 12:02:01.
