data_PCOD9331928
_publ_section_title
;
Structure prediction by ZEFSAII (Michael W. Deem and Ramdas Pophale) SiO2 
 PCOD9331928
Probable space group: I 2 2 2
;
_chemical_formula_sum "Si O2"
_cell_formula_units_Z 24
_cell_length_a 21.322834
_cell_length_b 4.714052
_cell_length_c 8.883310
_cell_angle_alpha 90.000000
_cell_angle_beta 90.000000
_cell_angle_gamma 90.000000
_cell_volume 892.923212
_symmetry_space_group_name_H-M "I 2 2 2"
_symmetry_group_IT_number 23
_symmetry_cell_setting 'orthorhombic'
loop_
_space_group_symop_operation_xyz
x,y,z
-x,-y,z
x,-y,-z
-x,y,-z
1/2+x,1/2+y,1/2+z
1/2-x,1/2-y,1/2+z
1/2+x,1/2-y,1/2-z
1/2-x,1/2+y,1/2-z
loop_
_atom_site_type_symbol
_atom_site_label
_atom_site_fract_x
_atom_site_fract_y
_atom_site_fract_z
Si Si1 0.666499 0.194926 0.250719
Si Si2 0.500000 0.000000 0.500000
Si Si3 0.581143 0.302095 0.748711
Si Si4 0.248250 0.000000 0.000000
Si Si5 0.500000 0.000000 0.000000
O O1 0.601827 0.373055 0.242133
O O2 0.705688 0.316073 0.388414
O O3 0.646161 0.869664 0.265025
O O4 0.707451 0.201674 0.100491
O O5 0.458304 0.797609 0.605301
O O6 0.543625 0.194031 0.893781
#
# Coordination Sequence:
#
# PCOD9331928 Si02
#       5
#     8   2   8   4   2
#     4  12  28  49  75 110 151 198 251 309 374 447
#     4  10  24  48  76 108 148 196 248 312 376 446
#     4  11  26  46  73 108 147 193 248 307 373 444
#     4  12  29  50  78 114 154 202 253 310 376 450
#     4  10  26  44  72 104 144 192 246 304 372 442
#
# _framework density 26.87801
#
# number of rings (size 3 to 8) (size 9 to 14) (size 15 to 20)
#    0.000    0.667    0.000    5.000    0.000   25.333 
#    0.000    0.000    0.000    0.000    0.000    0.000 
#    0.000    0.000    0.000    0.000    0.000    0.000 
#
# Total GULP energy -67539.304818 kJ/mol
# GULP energy per Si atom -5628.275402 kJ/mol
# Density = 2.681683 g / cm^3
# Si number density = 26.878010 Si / 1000 Ang^3
#
#
#
# Elastic Constant Matrix: (Units=GPa)
#
#
# Indices 1 2 3 4 5 6 
#
# 1 113.8563 15.6484 69.5782 0.0000 0.0000 0.0000
# 2 15.6484 89.7815 28.5138 0.0000 0.0000 0.0000
# 3 69.5782 28.5138 204.2393 0.0000 0.0000 0.0000
# 4 0.0000 0.0000 0.0000 39.9119 0.0000 0.0000
# 5 0.0000 0.0000 0.0000 0.0000 29.8507 0.0000
# 6 0.0000 0.0000 0.0000 0.0000 0.0000 43.6630
#
#
#
# Elastic Compliance Matrix: (Units=1/GPa)
#
#
# Indices 1 2 3 4 5 6 
#
# 1 0.011143 -0.000771 -0.003688 0.000000 0.000000 0.000000
# 2 -0.000771 0.011708 -0.001372 0.000000 0.000000 0.000000
# 3 -0.003688 -0.001372 0.006344 0.000000 0.000000 0.000000
# 4 0.000000 0.000000 0.000000 0.025055 0.000000 0.000000
# 5 0.000000 0.000000 0.000000 0.000000 0.033500 0.000000
# 6 0.000000 0.000000 0.000000 0.000000 0.000000 0.022903
#
#
# Mechanical properties :
#
#
# Convention : Reuss Voigt Hill
#
# Bulk Modulus (GPa) = 57.03506 70.59533 63.81519
# Shear Modulus (GPa) = 39.01366 42.29424 40.65395
#
# Velocity S-wave (km/s) = 3.81400 3.97112 3.89335
# Velocity P-wave (km/s) = 6.37664 6.88102 6.63363
#
# Compressibility (1/GPa) = 0.01753308
#
# Stress axis : x y z
#
# Youngs Moduli (GPa) = 89.74257 85.41006 157.62128
#
# Poissons Ratio (x) = 0.06583 0.58138
# Poissons Ratio (y) = 0.06917 0.21626
# Poissons Ratio (z) = 0.33101 0.11718
#
# Static dielectric constant tensor:
#      x y z
#    x 2.051760 0.000000 0.000000 
#    y 0.000000 2.004340 0.000000 
#    z 0.000000 0.000000 2.022640 
# 
# From -- ./inp_files/12345.got.cif
#   From: 2010.05.17/outbox.cif.g08.bks.cpg/sg23_7_cif.got.tgz:12345.got - 2010.06.04 12:02:01.
