data_PCOD9331552
_publ_section_title
;
Structure prediction by ZEFSAII (Michael W. Deem and Ramdas Pophale) SiO2 
 PCOD9331552
Probable space group: I 2 2 2
;
_chemical_formula_sum "Si O2"
_cell_formula_units_Z 40
_cell_length_a 5.520344
_cell_length_b 28.683147
_cell_length_c 10.291562
_cell_angle_alpha 90.000000
_cell_angle_beta 90.000000
_cell_angle_gamma 90.000000
_cell_volume 1629.574556
_symmetry_space_group_name_H-M "I 2 2 2"
_symmetry_group_IT_number 23
_symmetry_cell_setting 'orthorhombic'
loop_
_space_group_symop_operation_xyz
x,y,z
-x,-y,z
x,-y,-z
-x,y,-z
1/2+x,1/2+y,1/2+z
1/2-x,1/2-y,1/2+z
1/2+x,1/2-y,1/2-z
1/2-x,1/2+y,1/2-z
loop_
_atom_site_type_symbol
_atom_site_label
_atom_site_fract_x
_atom_site_fract_y
_atom_site_fract_z
Si Si1 0.527303 0.583753 0.711845
Si Si2 0.640963 0.855295 0.373329
Si Si3 0.720519 0.746858 0.831688
Si Si4 0.748883 0.503156 0.212879
Si Si5 0.679719 0.152250 0.109500
O O1 0.648167 0.608892 0.834720
O O2 0.710477 0.540133 0.685966
O O3 0.280785 0.553918 0.726233
O O4 0.434529 0.626208 0.626588
O O5 0.500000 0.871392 0.500000
O O6 0.744069 0.803339 0.397443
O O7 0.463368 0.851013 0.247849
O O8 0.458684 0.746623 0.760183
O O9 0.723724 0.793171 0.918627
O O10 0.500000 0.500000 0.135068
O O11 0.000000 0.500000 0.145201
O O12 0.500000 0.132823 0.000000
#
# Coordination Sequence:
#
# PCOD9331552 Si02
#       5
#     8   8   8   8   8
#     4   9  20  40  70 106 142 188 244 299 368 436
#     4  11  24  42  69 100 147 193 245 296 366 433
#     4  10  22  44  66 100 146 198 246 300 358 434
#     4   8  18  36  74 102 144 180 240 300 368 434
#     4  11  24  42  69 100 147 193 245 296 366 433
#
# _framework density 24.546285999999998
#
# number of rings (size 3 to 8) (size 9 to 14) (size 15 to 20)
#    1.200    0.800    2.000    1.200    0.000    8.000 
#    0.000    0.000    0.000   49.200    0.000    0.000 
#    0.000    0.000    0.000    0.000    0.000    0.000 
#
# Total GULP energy -111392.131639 kJ/mol
# GULP energy per Si atom -5569.606582 kJ/mol
# Density = 2.449042 g / cm^3
# Si number density = 24.546286 Si / 1000 Ang^3
#
#
#
# Elastic Constant Matrix: (Units=GPa)
#
#
# Indices 1 2 3 4 5 6 
#
# 1 164.1406 24.4751 35.0882 0.0000 0.0000 0.0000
# 2 24.4751 180.0624 17.6680 0.0000 0.0000 0.0000
# 3 35.0882 17.6680 95.1574 0.0000 0.0000 0.0000
# 4 0.0000 0.0000 0.0000 -30.6400 0.0000 0.0000
# 5 0.0000 0.0000 0.0000 0.0000 27.8268 0.0000
# 6 0.0000 0.0000 0.0000 0.0000 0.0000 0.4518
#
#
#
# Elastic Compliance Matrix: (Units=1/GPa)
#
#
# Indices 1 2 3 4 5 6 
#
# 1 0.006694 -0.000680 -0.002342 0.000000 0.000000 0.000000
# 2 -0.000680 0.005726 -0.000812 0.000000 0.000000 0.000000
# 3 -0.002342 -0.000812 0.011523 0.000000 0.000000 0.000001
# 4 0.000000 0.000000 0.000000 -0.032637 0.000000 -0.000001
# 5 0.000000 0.000000 0.000000 0.000000 0.035937 0.000000
# 6 0.000000 0.000000 0.000001 -0.000001 0.000000 2.213564
#
#
# Mechanical properties :
#
#
# Convention : Reuss Voigt Hill
#
# Bulk Modulus (GPa) = 61.44664 65.98034 63.71349
# Shear Modulus (GPa) = 2.21838 23.66963 12.94400
#
# Velocity S-wave (km/s) = 0.95169 3.10866 2.29886
# Velocity P-wave (km/s) = 5.12786 6.31058 5.74971
#
# Compressibility (1/GPa) = 0.01627428
#
# Stress axis : x y z
#
# Youngs Moduli (GPa) = 149.37756 174.64856 86.78000
#
# Poissons Ratio (x) = 0.11878 0.20326
# Poissons Ratio (y) = 0.10160 0.07049
# Poissons Ratio (z) = 0.34987 0.14187
#
# Static dielectric constant tensor:
#      x y z
#    x 2.007510 0.000000 0.000000 
#    y 0.000000 2.019230 0.000000 
#    z 0.000000 0.000000 1.933220 
# 
# From -- ./inp_files/13896.got.cif
#   From: 2010.05.17/outbox.cif.g08.bks.cpg/sg23_7_cif.got.tgz:13896.got - 2010.06.04 12:02:01.
