data_PCOD9331052
_publ_section_title
;
Structure prediction by ZEFSAII (Michael W. Deem and Ramdas Pophale) SiO2 
 PCOD9331052
Probable space group: I 2 2 2
;
_chemical_formula_sum "Si O2"
_cell_formula_units_Z 58
_cell_length_a 12.765515
_cell_length_b 8.322202
_cell_length_c 26.269549
_cell_angle_alpha 90.000000
_cell_angle_beta 90.000000
_cell_angle_gamma 90.000000
_cell_volume 2790.803186
_symmetry_space_group_name_H-M "I 2 2 2"
_symmetry_group_IT_number 23
_symmetry_cell_setting 'orthorhombic'
loop_
_space_group_symop_operation_xyz
x,y,z
-x,-y,z
x,-y,-z
-x,y,-z
1/2+x,1/2+y,1/2+z
1/2-x,1/2-y,1/2+z
1/2+x,1/2-y,1/2-z
1/2-x,1/2+y,1/2-z
loop_
_atom_site_type_symbol
_atom_site_label
_atom_site_fract_x
_atom_site_fract_y
_atom_site_fract_z
Si Si1 0.895118 0.917012 0.767744
Si Si2 0.657396 0.902929 0.634977
Si Si3 0.286819 0.653185 0.538293
Si Si4 0.000000 0.000000 0.500000
Si Si5 0.190600 0.166651 0.549608
Si Si6 0.935968 0.251243 0.127466
Si Si7 0.219228 0.656426 0.293998
Si Si8 0.875021 0.510586 0.606893
O O1 0.915809 0.873119 0.826905
O O2 0.864342 0.753211 0.739365
O O3 0.800802 0.044506 0.764275
O O4 0.000000 0.000000 0.747012
O O5 0.739674 0.927548 0.589630
O O6 0.557763 0.793734 0.619049
O O7 0.714730 0.797445 0.677834
O O8 0.615106 0.080288 0.646324
O O9 0.302711 0.500000 0.500000
O O10 0.256875 0.797839 0.500928
O O11 0.383081 0.688456 0.575700
O O12 0.187424 0.626598 0.576258
O O13 0.078931 0.097589 0.535058
O O14 0.164719 0.333794 0.576776
O O15 0.164342 0.541552 0.335796
O O16 0.000000 0.500000 0.604488
#
# Coordination Sequence:
#
# PCOD9331052 Si02
#       8
#     8   8   8   2   8   8   8   8
#     4  12  25  45  72  98 134 179 228 284 356 414
#     4  10  23  43  65  96 137 169 223 279 343 410
#     4  10  21  39  66  97 132 175 226 280 328 404
#     4  12  20  36  58  86 132 188 216 270 336 394
#     4  10  22  37  60  95 133 174 226 275 328 402
#     4  11  22  43  70  93 131 183 216 280 349 412
#     4  11  24  45  65  99 131 168 227 283 335 422
#     4  10  21  40  60  90 128 172 220 273 328 397
#
# _framework density 20.782548999999999
#
# number of rings (size 3 to 8) (size 9 to 14) (size 15 to 20)
#    0.000    1.379    2.759    2.483    0.000    3.586 
#    9.931    4.828    0.000    0.000    0.000    0.000 
#    0.000    0.000    0.000    0.000    0.000    0.000 
#
# Total GULP energy -161981.162015 kJ/mol
# GULP energy per Si atom -5585.557311 kJ/mol
# Density = 2.073525 g / cm^3
# Si number density = 20.782549 Si / 1000 Ang^3
#
#
#
# Elastic Constant Matrix: (Units=GPa)
#
#
# Indices 1 2 3 4 5 6 
#
# 1 92.9988 3.2016 23.5655 0.0000 0.0000 0.0000
# 2 3.2016 39.5904 4.7346 0.0000 0.0000 0.0000
# 3 23.5655 4.7346 56.7660 0.0000 0.0000 0.0000
# 4 0.0000 0.0000 0.0000 23.7651 0.0000 0.0000
# 5 0.0000 0.0000 0.0000 0.0000 24.2090 0.0000
# 6 0.0000 0.0000 0.0000 0.0000 0.0000 40.3814
#
#
#
# Elastic Compliance Matrix: (Units=1/GPa)
#
#
# Indices 1 2 3 4 5 6 
#
# 1 0.012023 -0.000379 -0.004959 0.000000 0.000000 0.000000
# 2 -0.000379 0.025525 -0.001972 0.000000 0.000000 0.000000
# 3 -0.004959 -0.001972 0.019839 0.000000 0.000000 0.000000
# 4 0.000000 0.000000 0.000000 0.042079 0.000000 0.000000
# 5 0.000000 0.000000 0.000000 0.000000 0.041307 0.000000
# 6 0.000000 0.000000 0.000000 0.000000 0.000000 0.024764
#
#
# Mechanical properties :
#
#
# Convention : Reuss Voigt Hill
#
# Bulk Modulus (GPa) = 23.38252 28.03983 25.71117
# Shear Modulus (GPa) = 25.71856 28.19467 26.95662
#
# Velocity S-wave (km/s) = 3.52164 3.68727 3.60541
# Velocity P-wave (km/s) = 5.27365 5.62577 5.45255
#
# Compressibility (1/GPa) = 0.04276699
#
# Stress axis : x y z
#
# Youngs Moduli (GPa) = 83.17699 39.17719 50.40475
#
# Poissons Ratio (x) = 0.01485 0.24997
# Poissons Ratio (y) = 0.03154 0.09937
# Poissons Ratio (z) = 0.41250 0.07724
#
# Static dielectric constant tensor:
#      x y z
#    x 1.737690 0.000000 0.000000 
#    y 0.000000 1.775230 0.000000 
#    z 0.000000 0.000000 1.748370 
# 
# From -- ./inp_files/18609.got.cif
#   From: 2010.05.17/outbox.cif.g08.bks.cpg/sg23_10_cif.got.tgz:18609.got - 2010.06.04 12:02:01.
