data_PCOD9331544
_publ_section_title
;
Structure prediction by ZEFSAII (Michael W. Deem and Ramdas Pophale) SiO2 
 PCOD9331544
Probable space group: I 2 2 2
;
_chemical_formula_sum "Si O2"
_cell_formula_units_Z 30
_cell_length_a 15.542592
_cell_length_b 5.475459
_cell_length_c 16.493591
_cell_angle_alpha 90.000000
_cell_angle_beta 90.000000
_cell_angle_gamma 90.000000
_cell_volume 1403.651193
_symmetry_space_group_name_H-M "I 2 2 2"
_symmetry_group_IT_number 23
_symmetry_cell_setting 'orthorhombic'
loop_
_space_group_symop_operation_xyz
x,y,z
-x,-y,z
x,-y,-z
-x,y,-z
1/2+x,1/2+y,1/2+z
1/2-x,1/2-y,1/2+z
1/2+x,1/2-y,1/2-z
1/2-x,1/2+y,1/2-z
loop_
_atom_site_type_symbol
_atom_site_label
_atom_site_fract_x
_atom_site_fract_y
_atom_site_fract_z
Si Si1 0.879019 0.617503 0.624312
Si Si2 0.208199 0.122642 0.917178
Si Si3 0.335263 0.500000 0.000000
Si Si4 0.051987 0.742463 0.198352
Si Si5 0.000000 0.500000 0.500000
O O1 0.777621 0.556400 0.625693
O O2 0.889623 0.847595 0.564745
O O3 0.915240 0.670423 0.711984
O O4 0.930860 0.416365 0.570722
O O5 0.269278 0.337910 0.947714
O O6 0.133184 0.208431 0.859186
O O7 0.173873 0.000000 0.000000
O O8 0.000000 0.500000 0.169837
O O9 0.000000 0.000000 0.201223
#
# Coordination Sequence:
#
# PCOD9331544 Si02
#       5
#     8   8   4   8   2
#     4  11  25  43  73 104 150 190 242 308 376 443
#     4  10  25  50  73 104 140 199 250 303 375 440
#     4  10  22  43  75  98 136 198 240 296 367 445
#     4  12  31  48  73 113 150 194 252 310 364 440
#     4  12  20  46  64 108 148 186 246 308 378 432
#
# _framework density 21.372831000000001
#
# number of rings (size 3 to 8) (size 9 to 14) (size 15 to 20)
#    0.000    1.067    5.333    0.000   18.667    0.533 
#    0.000    0.000    0.000    0.000    0.000    0.000 
#    0.000    0.000    0.000    0.000    0.000    0.000 
#
# Total GULP energy -83575.225399 kJ/mol
# GULP energy per Si atom -5571.681693 kJ/mol
# Density = 2.132419 g / cm^3
# Si number density = 21.372831 Si / 1000 Ang^3
#
#
#
# Elastic Constant Matrix: (Units=GPa)
#
#
# Indices 1 2 3 4 5 6 
#
# 1 147.7488 47.1496 91.4196 0.0000 0.0000 0.0000
# 2 47.1496 101.8426 31.9716 0.0000 0.0000 0.0000
# 3 91.4196 31.9716 120.5348 0.0000 0.0000 0.0000
# 4 0.0000 0.0000 0.0000 26.7039 0.0000 0.0000
# 5 0.0000 0.0000 0.0000 0.0000 44.4040 0.0000
# 6 0.0000 0.0000 0.0000 0.0000 0.0000 17.5393
#
#
#
# Elastic Compliance Matrix: (Units=1/GPa)
#
#
# Indices 1 2 3 4 5 6 
#
# 1 0.013737 -0.003370 -0.009525 0.000000 0.000000 0.000000
# 2 -0.003370 0.011538 -0.000505 0.000000 0.000000 0.000000
# 3 -0.009525 -0.000505 0.015655 0.000000 0.000000 0.000000
# 4 0.000000 0.000000 0.000000 0.037448 0.000000 0.000000
# 5 0.000000 0.000000 0.000000 0.000000 0.022521 0.000000
# 6 0.000000 0.000000 0.000000 0.000000 0.000000 0.057015
#
#
# Mechanical properties :
#
#
# Convention : Reuss Voigt Hill
#
# Bulk Modulus (GPa) = 70.76913 79.02308 74.89610
# Shear Modulus (GPa) = 26.39610 31.03511 28.71561
#
# Velocity S-wave (km/s) = 3.51811 3.81475 3.66943
# Velocity P-wave (km/s) = 7.04886 7.51379 7.28503
#
# Compressibility (1/GPa) = 0.01413045
#
# Stress axis : x y z
#
# Youngs Moduli (GPa) = 72.79431 86.67381 63.87871
#
# Poissons Ratio (x) = 0.29206 0.60846
# Poissons Ratio (y) = 0.24529 0.03223
# Poissons Ratio (z) = 0.69339 0.04374
#
# Static dielectric constant tensor:
#      x y z
#    x 1.800380 0.000000 0.000000 
#    y 0.000000 2.156380 0.000000 
#    z 0.000000 0.000000 1.711990 
# 
# From -- ./inp_files/2140.got.cif
#   From: 2010.05.17/outbox.cif.g08.bks.cpg/sg23_2_cif.got.tgz:2140.got - 2010.06.04 12:02:01.
