data_PCOD9331400
_publ_section_title
;
Structure prediction by ZEFSAII (Michael W. Deem and Ramdas Pophale) SiO2 
 PCOD9331400
Probable space group: I 2 2 2
;
_chemical_formula_sum "Si O2"
_cell_formula_units_Z 64
_cell_length_a 13.793458
_cell_length_b 12.179571
_cell_length_c 19.779603
_cell_angle_alpha 90.000000
_cell_angle_beta 90.000000
_cell_angle_gamma 90.000000
_cell_volume 3322.941677
_symmetry_space_group_name_H-M "I 2 2 2"
_symmetry_group_IT_number 23
_symmetry_cell_setting 'orthorhombic'
loop_
_space_group_symop_operation_xyz
x,y,z
-x,-y,z
x,-y,-z
-x,y,-z
1/2+x,1/2+y,1/2+z
1/2-x,1/2-y,1/2+z
1/2+x,1/2-y,1/2-z
1/2-x,1/2+y,1/2-z
loop_
_atom_site_type_symbol
_atom_site_label
_atom_site_fract_x
_atom_site_fract_y
_atom_site_fract_z
Si Si1 0.116631 0.373350 0.688451
Si Si2 0.883034 0.000000 0.382466
Si Si3 0.883369 0.626650 0.311549
Si Si4 0.882666 0.000000 0.224643
Si Si5 0.216978 0.776147 0.577905
Si Si6 0.384049 0.259270 0.674801
Si Si7 0.615951 0.259270 0.674801
Si Si8 0.216978 0.223853 0.577905
O O1 0.147175 0.500000 0.692871
O O2 0.140437 0.308575 0.757403
O O3 0.160573 0.310981 0.624549
O O4 0.000000 0.370268 0.682623
O O5 0.839332 0.891010 0.415137
O O6 0.853481 0.000000 0.303139
O O7 0.839333 0.108990 0.415137
O O8 0.000000 0.000000 0.386706
O O9 0.839427 0.689019 0.375451
O O10 0.859563 0.691425 0.242597
O O11 0.855907 0.113703 0.188760
O O12 0.855907 0.886297 0.188760
O O13 0.000000 0.000000 0.226012
O O14 0.322505 0.785179 0.612373
O O15 0.222593 0.743233 0.500000
O O16 0.500000 0.252936 0.664520
O O17 0.322505 0.214821 0.612373
#
# Coordination Sequence:
#
# PCOD9331400 Si02
#       8
#     8   8   8   8   8   8   8   8
#     4  10  22  40  64  92 119 156 204 254 308 361
#     4  11  23  42  66  93 122 153 202 260 308 361
#     4  10  22  40  64  92 119 156 204 254 308 361
#     4   9  18  37  67  94 111 149 208 258 301 338
#     4  12  26  39  60  91 125 166 201 242 309 369
#     4  10  22  41  65  91 121 158 208 259 299 353
#     4  10  22  41  65  91 121 158 208 259 299 353
#     4  12  26  39  60  91 125 166 201 242 309 369
#
# _framework density 19.260041999999999
#
# number of rings (size 3 to 8) (size 9 to 14) (size 15 to 20)
#    0.000    1.500    2.500    1.875    3.500    3.500 
#    0.000    1.250    0.000    3.750    0.000    0.000 
#    0.000    0.000    0.000    0.000    0.000    0.000 
#
# Total GULP energy -178956.525539 kJ/mol
# GULP energy per Si atom -5592.391423 kJ/mol
# Density = 1.921621 g / cm^3
# Si number density = 19.260042 Si / 1000 Ang^3
#
#
#
# Elastic Constant Matrix: (Units=GPa)
#
#
# Indices 1 2 3 4 5 6 
#
# 1 92.2162 45.9218 37.1978 0.0000 0.0000 0.0000
# 2 45.9218 139.9877 37.9240 0.0000 0.0000 0.0000
# 3 37.1978 37.9240 83.0194 0.0000 0.0000 0.0000
# 4 0.0000 0.0000 0.0000 -8.3069 0.0000 0.0000
# 5 0.0000 0.0000 0.0000 0.0000 2.6267 0.0000
# 6 0.0000 0.0000 0.0000 0.0000 0.0000 33.6813
#
#
#
# Elastic Compliance Matrix: (Units=1/GPa)
#
#
# Indices 1 2 3 4 5 6 
#
# 1 0.014550 -0.003432 -0.004952 0.000000 0.000000 0.000000
# 2 -0.003432 0.008962 -0.002556 0.000000 0.000000 0.000000
# 3 -0.004952 -0.002556 0.015432 0.000000 0.000000 0.000000
# 4 0.000000 0.000000 0.000000 -0.120382 0.000000 0.000000
# 5 0.000000 0.000000 0.000000 0.000000 0.380709 0.000000
# 6 0.000000 0.000000 0.000000 0.000000 0.000000 0.029690
#
#
# Mechanical properties :
#
#
# Convention : Reuss Voigt Hill
#
# Bulk Modulus (GPa) = 58.60117 61.92341 60.26229
# Shear Modulus (GPa) = 14.02414 18.54554 16.28484
#
# Velocity S-wave (km/s) = 2.70135 3.10643 2.91095
# Velocity P-wave (km/s) = 6.34209 6.71473 6.53107
#
# Compressibility (1/GPa) = 0.01706450
#
# Stress axis : x y z
#
# Youngs Moduli (GPa) = 68.72641 111.58594 64.80117
#
# Poissons Ratio (x) = 0.38292 0.32089
# Poissons Ratio (y) = 0.23584 0.16564
# Poissons Ratio (z) = 0.34033 0.28524
#
# Static dielectric constant tensor:
#      x y z
#    x 1.714220 0.000000 0.000000 
#    y 0.000000 1.664560 0.000000 
#    z 0.000000 0.000000 1.618380 
# 
# From -- ./inp_files/16981.got.cif
#   From: 2010.05.17/outbox.cif.g08.bks.cpg/sg23_9_cif.got.tgz:16981.got - 2010.06.04 12:02:01.
