data_PCOD9331428
_publ_section_title
;
Structure prediction by ZEFSAII (Michael W. Deem and Ramdas Pophale) SiO2 
 PCOD9331428
Probable space group: I 2 2 2
;
_chemical_formula_sum "Si O2"
_cell_formula_units_Z 44
_cell_length_a 10.123740
_cell_length_b 8.057791
_cell_length_c 24.375180
_cell_angle_alpha 90.000000
_cell_angle_beta 90.000000
_cell_angle_gamma 90.000000
_cell_volume 1988.404847
_symmetry_space_group_name_H-M "I 2 2 2"
_symmetry_group_IT_number 23
_symmetry_cell_setting 'orthorhombic'
loop_
_space_group_symop_operation_xyz
x,y,z
-x,-y,z
x,-y,-z
-x,y,-z
1/2+x,1/2+y,1/2+z
1/2-x,1/2-y,1/2+z
1/2+x,1/2-y,1/2-z
1/2-x,1/2+y,1/2-z
loop_
_atom_site_type_symbol
_atom_site_label
_atom_site_fract_x
_atom_site_fract_y
_atom_site_fract_z
Si Si1 0.271664 0.500000 0.000000
Si Si2 0.750273 0.558627 0.323488
Si Si3 0.915186 0.787761 0.245752
Si Si4 0.276968 0.109082 0.388008
Si Si5 0.000000 0.743882 0.500000
Si Si6 0.500000 0.500000 0.842592
Si Si7 0.500000 0.000000 0.680987
Si Si8 0.000000 0.500000 0.398264
O O1 0.189696 0.424316 0.950602
O O2 0.372500 0.352052 0.014508
O O3 0.806254 0.666901 0.272663
O O4 0.650850 0.425314 0.294843
O O5 0.702373 0.703129 0.366195
O O6 0.872886 0.478601 0.358245
O O7 0.012390 0.666240 0.214781
O O8 0.996879 0.853290 0.297978
O O9 0.127845 0.044678 0.377757
O O10 0.368733 0.986968 0.353726
O O11 0.972299 0.644510 0.443358
#
# Coordination Sequence:
#
# PCOD9331428 Si02
#       8
#     4   8   8   8   4   4   4   4
#     4  11  22  43  70 100 136 178 238 292 364 432
#     4  11  24  42  65 101 144 191 228 298 353 431
#     4  11  24  42  64  99 145 186 241 280 357 427
#     4  11  25  43  69 100 138 182 238 290 364 417
#     4  10  22  40  70 110 134 180 226 312 356 434
#     4  10  22  41  70  98 136 183 228 298 346 422
#     4  12  27  43  65 100 135 193 231 290 352 434
#     4  11  23  40  69 108 145 172 239 297 376 408
#
# _framework density 22.128291000000001
#
# number of rings (size 3 to 8) (size 9 to 14) (size 15 to 20)
#    0.000    1.091    1.818    4.909    5.091    6.182 
#    0.000    0.000    0.000    0.000    0.000    0.000 
#    0.000    0.000    0.000    0.000    0.000    0.000 
#
# Total GULP energy -122711.555086 kJ/mol
# GULP energy per Si atom -5577.797958 kJ/mol
# Density = 2.207793 g / cm^3
# Si number density = 22.128291 Si / 1000 Ang^3
#
#
#
# Elastic Constant Matrix: (Units=GPa)
#
#
# Indices 1 2 3 4 5 6 
#
# 1 29.0209 22.4392 25.1304 0.0000 0.0000 0.0000
# 2 22.4392 94.1002 48.7125 0.0000 0.0000 0.0000
# 3 25.1304 48.7125 138.4674 0.0000 0.0000 0.0000
# 4 0.0000 0.0000 0.0000 40.3259 0.0000 0.0000
# 5 0.0000 0.0000 0.0000 0.0000 22.6434 0.0000
# 6 0.0000 0.0000 0.0000 0.0000 0.0000 -381.1928
#
#
#
# Elastic Compliance Matrix: (Units=1/GPa)
#
#
# Indices 1 2 3 4 5 6 
#
# 1 0.045336 -0.008010 -0.005410 0.000000 0.000000 0.000000
# 2 -0.008010 0.014409 -0.003615 0.000000 0.000000 0.000000
# 3 -0.005410 -0.003615 0.009476 0.000000 0.000000 0.000000
# 4 0.000000 0.000000 0.000000 0.024798 0.000000 0.000000
# 5 0.000000 0.000000 0.000000 0.000000 0.044163 0.000000
# 6 0.000000 0.000000 0.000000 0.000000 0.000000 -0.002623
#
#
# Mechanical properties :
#
#
# Convention : Reuss Voigt Hill
#
# Bulk Modulus (GPa) = 28.44989 50.46141 39.45565
# Shear Modulus (GPa) = 27.57164 -52.62428 -12.52632
#
# Velocity S-wave (km/s) = 3.53369 -4.88191 -2.38182
# Velocity P-wave (km/s) = 5.43452 2.98729 3.21015
#
# Compressibility (1/GPa) = 0.03514952
#
# Stress axis : x y z
#
# Youngs Moduli (GPa) = 22.05731 69.40328 105.53457
#
# Poissons Ratio (x) = 0.55594 0.57095
# Poissons Ratio (y) = 0.17669 0.38152
# Poissons Ratio (z) = 0.11933 0.25090
#
# Static dielectric constant tensor:
#      x y z
#    x 1.847670 0.000000 0.000000 
#    y 0.000000 1.876430 0.000000 
#    z 0.000000 0.000000 1.874940 
# 
# From -- ./inp_files/28275.got.cif
#   From: 2010.05.17/outbox.cif.g08.bks.cpg/sg23_15_cif.got.tgz:28275.got - 2010.06.04 12:02:01.
