data_PCOD9331094
_publ_section_title
;
Structure prediction by ZEFSAII (Michael W. Deem and Ramdas Pophale) SiO2 
 PCOD9331094
Probable space group: I 2 2 2
;
_chemical_formula_sum "Si O2"
_cell_formula_units_Z 24
_cell_length_a 4.948016
_cell_length_b 13.760974
_cell_length_c 15.360868
_cell_angle_alpha 90.000000
_cell_angle_beta 90.000000
_cell_angle_gamma 90.000000
_cell_volume 1045.914122
_symmetry_space_group_name_H-M "I 2 2 2"
_symmetry_group_IT_number 23
_symmetry_cell_setting 'orthorhombic'
loop_
_space_group_symop_operation_xyz
x,y,z
-x,-y,z
x,-y,-z
-x,y,-z
1/2+x,1/2+y,1/2+z
1/2-x,1/2-y,1/2+z
1/2+x,1/2-y,1/2-z
1/2-x,1/2+y,1/2-z
loop_
_atom_site_type_symbol
_atom_site_label
_atom_site_fract_x
_atom_site_fract_y
_atom_site_fract_z
Si Si1 0.026048 0.384039 0.265778
Si Si2 0.978891 0.115655 0.657682
Si Si3 0.267017 0.211113 0.941207
O O1 0.217401 0.356216 0.184042
O O2 0.180794 0.341472 0.348866
O O3 0.000000 0.500000 0.275311
O O4 0.719257 0.359125 0.239361
O O5 0.849050 0.177559 0.580806
O O6 0.000000 0.000000 0.642743
O O7 0.500000 0.166040 0.000000
O O8 0.000000 0.204685 0.000000
#
# Coordination Sequence:
#
# PCOD9331094 Si02
#       3
#     8   8   8
#     4  10  21  40  64  87 117 163 213 256 304 373
#     4  10  21  40  64  87 117 163 213 256 304 373
#     4  12  24  38  60  94 130 162 200 262 332 384
#
# _framework density 22.946435999999999
#
# number of rings (size 3 to 8) (size 9 to 14) (size 15 to 20)
#    0.000    1.333    0.000    6.000    0.000    1.333 
#    0.000    3.333    0.000    0.000    0.000    0.000 
#    0.000    0.000    0.000    0.000    0.000    0.000 
#
# Total GULP energy -66894.433158 kJ/mol
# GULP energy per Si atom -5574.536097 kJ/mol
# Density = 2.289421 g / cm^3
# Si number density = 22.946436 Si / 1000 Ang^3
#
#
#
# Elastic Constant Matrix: (Units=GPa)
#
#
# Indices 1 2 3 4 5 6 
#
# 1 170.1565 26.5261 46.7194 0.0000 0.0000 0.0000
# 2 26.5261 77.3000 6.5724 0.0000 0.0000 0.0000
# 3 46.7194 6.5724 83.7479 0.0000 0.0000 0.0000
# 4 0.0000 0.0000 0.0000 -7.0276 0.0000 0.0000
# 5 0.0000 0.0000 0.0000 0.0000 43.6716 0.0000
# 6 0.0000 0.0000 0.0000 0.0000 0.0000 913.7404
#
#
#
# Elastic Compliance Matrix: (Units=1/GPa)
#
#
# Indices 1 2 3 4 5 6 
#
# 1 0.007284 -0.002169 -0.003893 0.000000 0.000000 0.000000
# 2 -0.002169 0.013669 0.000137 0.000000 0.000000 0.000000
# 3 -0.003893 0.000137 0.014102 0.000000 0.000000 0.000000
# 4 0.000000 0.000000 0.000000 -0.142295 0.000000 0.000000
# 5 0.000000 0.000000 0.000000 0.000000 0.022898 0.000000
# 6 0.000000 0.000000 0.000000 0.000000 0.000000 0.001094
#
#
# Mechanical properties :
#
#
# Convention : Reuss Voigt Hill
#
# Bulk Modulus (GPa) = 43.09366 54.53778 48.81572
# Shear Modulus (GPa) = -78.53804 206.83596 64.14896
#
# Velocity S-wave (km/s) = -5.85670 9.50443 5.29308
# Velocity P-wave (km/s) = 5.18785 12.01103 7.65999
#
# Compressibility (1/GPa) = 0.02320527
#
# Stress axis : x y z
#
# Youngs Moduli (GPa) = 137.28815 73.15764 70.91339
#
# Poissons Ratio (x) = 0.15864 0.27608
# Poissons Ratio (y) = 0.29771 -0.00971
# Poissons Ratio (z) = 0.53449 -0.01002
#
# Static dielectric constant tensor:
#      x y z
#    x 1.846080 0.000000 0.000000 
#    y 0.000000 1.911270 0.000000 
#    z 0.000000 0.000000 -2.408740 
# 
# From -- ./inp_files/1965.got.cif
#   From: 2010.05.17/outbox.cif.g08.bks.cpg/sg23_1_cif.got.tgz:1965.got - 2010.06.04 12:02:01.
