data_PCOD9331516
_publ_section_title
;
Structure prediction by ZEFSAII (Michael W. Deem and Ramdas Pophale) SiO2 
 PCOD9331516
Probable space group: I 2 2 2
;
_chemical_formula_sum "Si O2"
_cell_formula_units_Z 48
_cell_length_a 15.537170
_cell_length_b 17.896072
_cell_length_c 7.788590
_cell_angle_alpha 90.000000
_cell_angle_beta 90.000000
_cell_angle_gamma 90.000000
_cell_volume 2165.651042
_symmetry_space_group_name_H-M "I 2 2 2"
_symmetry_group_IT_number 23
_symmetry_cell_setting 'orthorhombic'
loop_
_space_group_symop_operation_xyz
x,y,z
-x,-y,z
x,-y,-z
-x,y,-z
1/2+x,1/2+y,1/2+z
1/2-x,1/2-y,1/2+z
1/2+x,1/2-y,1/2-z
1/2-x,1/2+y,1/2-z
loop_
_atom_site_type_symbol
_atom_site_label
_atom_site_fract_x
_atom_site_fract_y
_atom_site_fract_z
Si Si1 0.000000 0.250157 0.000000
Si Si2 0.500000 0.000000 0.500000
Si Si3 0.704202 0.338035 0.005886
Si Si4 0.395880 0.371853 0.320996
Si Si5 0.876237 0.377298 0.869078
Si Si6 0.256777 0.671298 0.388919
Si Si7 0.602050 0.089587 0.997945
Si Si8 0.000000 0.000000 0.000000
O O1 0.961031 0.196631 0.144432
O O2 0.074568 0.304268 0.066582
O O3 0.440526 0.946712 0.388738
O O4 0.633283 0.369427 0.875970
O O5 0.789096 0.387391 0.971378
O O6 0.729128 0.255785 0.933396
O O7 0.690936 0.332618 0.209404
O O8 0.317302 0.358322 0.456556
O O9 0.441775 0.447167 0.381018
O O10 0.859730 0.373208 0.668719
O O11 0.167342 0.624923 0.360619
O O12 0.500000 0.107619 0.000000
O O13 0.610124 0.000000 0.000000
#
# Coordination Sequence:
#
# PCOD9331516 Si02
#       8
#     4   2   8   8   8   8   8   2
#     4  10  22  42  74 100 136 182 236 296 344 428
#     4  10  24  34  66  94 140 180 218 274 352 420
#     4  12  24  44  72 105 138 180 241 305 359 423
#     4  11  24  50  74 104 143 189 243 295 371 432
#     4  11  22  42  62  98 138 177 225 281 349 415
#     4  12  24  43  72 108 138 185 242 301 362 428
#     4  11  26  41  61  99 144 184 225 281 356 433
#     4  10  28  54  78 102 154 204 240 310 374 462
#
# _framework density 22.164235000000001
#
# number of rings (size 3 to 8) (size 9 to 14) (size 15 to 20)
#    0.000    0.833    5.000    1.000   10.500    0.000 
#    0.000    4.167    0.000    0.000    0.000    0.000 
#    0.000    0.000    0.000    0.000    0.000    0.000 
#
# Total GULP energy -134211.701321 kJ/mol
# GULP energy per Si atom -5592.154222 kJ/mol
# Density = 2.211379 g / cm^3
# Si number density = 22.164235 Si / 1000 Ang^3
#
#
#
# Elastic Constant Matrix: (Units=GPa)
#
#
# Indices 1 2 3 4 5 6 
#
# 1 71.6025 24.1245 -0.6435 0.0000 0.0000 0.0000
# 2 24.1245 92.1535 0.6406 0.0000 0.0000 0.0000
# 3 -0.6435 0.6406 101.9896 0.0000 0.0000 0.0000
# 4 0.0000 0.0000 0.0000 7.6700 0.0000 0.0000
# 5 0.0000 0.0000 0.0000 0.0000 37.5181 0.0000
# 6 0.0000 0.0000 0.0000 0.0000 0.0000 12.7870
#
#
#
# Elastic Compliance Matrix: (Units=1/GPa)
#
#
# Indices 1 2 3 4 5 6 
#
# 1 0.015318 -0.004011 0.000122 0.000000 0.000000 0.000000
# 2 -0.004011 0.011902 -0.000100 0.000000 0.000000 0.000000
# 3 0.000122 -0.000100 0.009806 0.000000 0.000000 0.000000
# 4 0.000000 0.000000 0.000000 0.130377 0.000000 0.000000
# 5 0.000000 0.000000 0.000000 0.000000 0.026654 0.000000
# 6 0.000000 0.000000 0.000000 0.000000 0.000000 0.078204
#
#
# Mechanical properties :
#
#
# Convention : Reuss Voigt Hill
#
# Bulk Modulus (GPa) = 34.42515 34.88764 34.65639
# Shear Modulus (GPa) = 17.24593 27.70331 22.47462
#
# Velocity S-wave (km/s) = 2.79247 3.53924 3.18780
# Velocity P-wave (km/s) = 5.09536 5.69880 5.40551
#
# Compressibility (1/GPa) = 0.02904853
#
# Stress axis : x y z
#
# Youngs Moduli (GPa) = 65.28062 84.01824 101.97503
#
# Poissons Ratio (x) = 0.33700 -0.01242
# Poissons Ratio (y) = 0.26184 0.01020
# Poissons Ratio (z) = -0.00795 0.00841
#
# Static dielectric constant tensor:
#      x y z
#    x 1.874110 0.000000 0.000000 
#    y 0.000000 1.790570 0.000000 
#    z 0.000000 0.000000 1.909740 
# 
# From -- ./inp_files/10022.got.cif
#   From: 2010.05.17/outbox.cif.g08.bks.cpg/sg23_6_cif.got.tgz:10022.got - 2010.06.04 12:02:01.
