data_PCOD9331243
_publ_section_title
;
Structure prediction by ZEFSAII (Michael W. Deem and Ramdas Pophale) SiO2 
 PCOD9331243
Probable space group: I 2 2 2
;
_chemical_formula_sum "Si O2"
_cell_formula_units_Z 34
_cell_length_a 16.869281
_cell_length_b 15.594185
_cell_length_c 6.074629
_cell_angle_alpha 90.000000
_cell_angle_beta 90.000000
_cell_angle_gamma 90.000000
_cell_volume 1598.008238
_symmetry_space_group_name_H-M "I 2 2 2"
_symmetry_group_IT_number 23
_symmetry_cell_setting 'orthorhombic'
loop_
_space_group_symop_operation_xyz
x,y,z
-x,-y,z
x,-y,-z
-x,y,-z
1/2+x,1/2+y,1/2+z
1/2-x,1/2-y,1/2+z
1/2+x,1/2-y,1/2-z
1/2-x,1/2+y,1/2-z
loop_
_atom_site_type_symbol
_atom_site_label
_atom_site_fract_x
_atom_site_fract_y
_atom_site_fract_z
Si Si1 0.432192 0.137874 0.666186
Si Si2 0.500000 0.724269 0.000000
Si Si3 0.500000 0.500000 0.500000
Si Si4 0.889061 0.087906 0.633258
Si Si5 0.709505 0.091803 0.625009
Si Si6 0.378105 0.000000 0.000000
O O1 0.500000 0.112762 0.500000
O O2 0.467720 0.217757 0.801506
O O3 0.349974 0.148003 0.527577
O O4 0.423330 0.059420 0.831499
O O5 0.571562 0.657658 0.028149
O O6 0.443391 0.561098 0.345425
O O7 0.799401 0.119533 0.671735
O O8 0.885076 0.000000 0.500000
O O9 0.712851 0.000000 0.500000
O O10 0.671398 0.068532 0.858254
#
# Coordination Sequence:
#
# PCOD9331243 Si02
#       6
#     8   4   2   8   8   4
#     4  11  25  42  66  97 135 181 221 282 342 404
#     4  12  25  43  62  96 144 172 222 277 341 416
#     4  12  20  40  78 102 124 188 230 294 344 400
#     4  11  23  45  71  99 135 177 232 281 338 418
#     4   9  21  41  68  97 127 175 226 278 332 400
#     4  10  21  45  67  97 128 172 238 284 324 409
#
# _framework density 21.276486999999999
#
# number of rings (size 3 to 8) (size 9 to 14) (size 15 to 20)
#    0.000    1.412    2.353    2.118    1.647   11.294 
#    8.471    0.000    0.000    0.000    0.000    0.000 
#    0.000    0.000    0.000    0.000    0.000    0.000 
#
# Total GULP energy -94786.795531 kJ/mol
# GULP energy per Si atom -5575.693855 kJ/mol
# Density = 2.122806 g / cm^3
# Si number density = 21.276487 Si / 1000 Ang^3
#
#
#
# Elastic Constant Matrix: (Units=GPa)
#
#
# Indices 1 2 3 4 5 6 
#
# 1 179.3878 62.4559 81.8717 0.0000 0.0000 0.0000
# 2 62.4559 79.4495 36.9465 0.0000 0.0000 0.0000
# 3 81.8717 36.9465 105.9312 0.0000 0.0000 0.0000
# 4 0.0000 0.0000 0.0000 30.7833 0.0000 0.0000
# 5 0.0000 0.0000 0.0000 0.0000 22.6739 0.0000
# 6 0.0000 0.0000 0.0000 0.0000 0.0000 -19.7214
#
#
#
# Elastic Compliance Matrix: (Units=1/GPa)
#
#
# Indices 1 2 3 4 5 6 
#
# 1 0.010117 -0.005153 -0.006022 0.000000 0.000000 0.000000
# 2 -0.005153 0.017647 -0.002173 0.000000 0.000000 0.000000
# 3 -0.006022 -0.002173 0.014852 0.000000 0.000000 0.000000
# 4 0.000000 0.000000 0.000000 0.032485 0.000000 0.000000
# 5 0.000000 0.000000 0.000000 0.000000 0.044104 0.000000
# 6 0.000000 0.000000 0.000000 0.000000 0.000000 -0.050706
#
#
# Mechanical properties :
#
#
# Convention : Reuss Voigt Hill
#
# Bulk Modulus (GPa) = 62.80665 80.81297 71.80981
# Shear Modulus (GPa) = 49.75095 18.98012 34.36554
#
# Velocity S-wave (km/s) = 4.84085 2.98999 4.02330
# Velocity P-wave (km/s) = 7.79926 7.07000 7.44356
#
# Compressibility (1/GPa) = 0.01592188
#
# Stress axis : x y z
#
# Youngs Moduli (GPa) = 98.84534 56.66536 67.33035
#
# Poissons Ratio (x) = 0.29197 0.40546
# Poissons Ratio (y) = 0.50930 0.14630
# Poissons Ratio (z) = 0.59524 0.12312
#
# Static dielectric constant tensor:
#      x y z
#    x 1.835650 0.000000 0.000000 
#    y 0.000000 1.887230 0.000000 
#    z 0.000000 0.000000 1.982720 
# 
# From -- ./inp_files/3018.got.cif
#   From: 2010.05.17/outbox.cif.g08.bks.cpg/sg23_2_cif.got.tgz:3018.got - 2010.06.04 12:02:01.
