data_PCOD9331055
_publ_section_title
;
Structure prediction by ZEFSAII (Michael W. Deem and Ramdas Pophale) SiO2 
 PCOD9331055
Probable space group: I 2 2 2
;
_chemical_formula_sum "Si O2"
_cell_formula_units_Z 58
_cell_length_a 17.797424
_cell_length_b 5.279311
_cell_length_c 27.723613
_cell_angle_alpha 90.000000
_cell_angle_beta 90.000000
_cell_angle_gamma 90.000000
_cell_volume 2604.859009
_symmetry_space_group_name_H-M "I 2 2 2"
_symmetry_group_IT_number 23
_symmetry_cell_setting 'orthorhombic'
loop_
_space_group_symop_operation_xyz
x,y,z
-x,-y,z
x,-y,-z
-x,y,-z
1/2+x,1/2+y,1/2+z
1/2-x,1/2-y,1/2+z
1/2+x,1/2-y,1/2-z
1/2-x,1/2+y,1/2-z
loop_
_atom_site_type_symbol
_atom_site_label
_atom_site_fract_x
_atom_site_fract_y
_atom_site_fract_z
Si Si1 0.213808 0.205513 0.960223
Si Si2 0.000000 0.000000 0.500000
Si Si3 0.048672 0.259464 0.712724
Si Si4 0.916403 0.504742 0.082948
Si Si5 0.152600 0.208127 0.623388
Si Si6 0.813836 0.116176 0.871305
Si Si7 0.876947 0.721606 0.437186
Si Si8 0.075611 0.834092 0.180287
O O1 0.147600 0.404458 0.952817
O O2 0.301032 0.265663 0.969148
O O3 0.217830 0.098408 0.906009
O O4 0.191758 0.000000 0.000000
O O5 0.947830 0.190209 0.531330
O O6 0.116180 0.247683 0.675279
O O7 0.073265 0.300035 0.768230
O O8 0.000000 0.500000 0.697855
O O9 0.000000 0.000000 0.710806
O O10 0.885276 0.773719 0.099972
O O11 0.920639 0.345339 0.133296
O O12 0.000000 0.500000 0.062497
O O13 0.243088 0.199949 0.630173
O O14 0.126888 0.438955 0.586864
O O15 0.126868 0.938082 0.603504
O O16 0.850057 0.008855 0.823110
O O17 0.000000 0.000000 0.176984
#
# Coordination Sequence:
#
# PCOD9331055 Si02
#       8
#     8   2   8   8   8   8   8   8
#     4  10  24  44  66  96 140 182 224 290 358 421
#     4  12  32  46  80 114 130 194 248 294 340 442
#     4  11  25  44  69 102 140 187 232 289 363 418
#     4  11  20  39  71  95 131 181 236 293 352 422
#     4  11  25  49  68 102 146 188 224 298 358 425
#     4  10  22  42  65  95 134 181 230 280 353 409
#     4  11  27  47  73 102 145 179 241 290 357 418
#     4  10  21  39  66  99 131 178 234 291 338 428
#
# _framework density 22.266081
#
# number of rings (size 3 to 8) (size 9 to 14) (size 15 to 20)
#    0.000    1.379    2.759    1.241    8.690    1.103 
#    2.483    2.069    0.000    0.000    0.000    0.000 
#    0.000    0.000    0.000    0.000    0.000    0.000 
#
# Total GULP energy -161907.008107 kJ/mol
# GULP energy per Si atom -5583.000280 kJ/mol
# Density = 2.221540 g / cm^3
# Si number density = 22.266081 Si / 1000 Ang^3
#
#
#
# Elastic Constant Matrix: (Units=GPa)
#
#
# Indices 1 2 3 4 5 6 
#
# 1 119.0847 3.9452 24.1457 0.0000 0.0000 0.0000
# 2 3.9452 69.7172 6.8169 0.0000 0.0000 0.0000
# 3 24.1457 6.8169 71.1582 0.0000 0.0000 0.0000
# 4 0.0000 0.0000 0.0000 -206.4812 0.0000 0.0000
# 5 0.0000 0.0000 0.0000 0.0000 31.3473 0.0000
# 6 0.0000 0.0000 0.0000 0.0000 0.0000 31.0570
#
#
#
# Elastic Compliance Matrix: (Units=1/GPa)
#
#
# Indices 1 2 3 4 5 6 
#
# 1 0.009021 -0.000213 -0.003041 0.000000 0.000000 0.000000
# 2 -0.000213 0.014484 -0.001315 0.000000 0.000000 0.000000
# 3 -0.003041 -0.001315 0.015211 0.000000 0.000000 0.000000
# 4 0.000000 0.000000 0.000000 -0.004843 0.000000 0.000000
# 5 0.000000 0.000000 0.000000 0.000000 0.031901 0.000000
# 6 0.000000 0.000000 0.000000 0.000000 0.000000 0.032199
#
#
# Mechanical properties :
#
#
# Convention : Reuss Voigt Hill
#
# Bulk Modulus (GPa) = 33.80873 36.64175 35.22524
# Shear Modulus (GPa) = 42.74596 -13.81189 14.46704
#
# Velocity S-wave (km/s) = 4.38628 -2.49331 2.55175
# Velocity P-wave (km/s) = 6.39293 2.86414 4.95342
#
# Compressibility (1/GPa) = 0.02957816
#
# Stress axis : x y z
#
# Youngs Moduli (GPa) = 110.85297 69.04013 65.74214
#
# Poissons Ratio (x) = 0.01472 0.19990
# Poissons Ratio (y) = 0.02363 0.08647
# Poissons Ratio (z) = 0.33706 0.09081
#
# Static dielectric constant tensor:
#      x y z
#    x 2.342960 0.000000 0.000000 
#    y 0.000000 1.904240 0.000000 
#    z 0.000000 0.000000 1.812740 
# 
# From -- ./inp_files/23270.got.cif
#   From: 2010.05.17/outbox.cif.g08.bks.cpg/sg23_12_cif.got.tgz:23270.got - 2010.06.04 12:02:01.
