data_PCOD9331595
_publ_section_title
;
Structure prediction by ZEFSAII (Michael W. Deem and Ramdas Pophale) SiO2 
 PCOD9331595
Probable space group: I 2 2 2
;
_chemical_formula_sum "Si O2"
_cell_formula_units_Z 34
_cell_length_a 9.355477
_cell_length_b 8.007177
_cell_length_c 18.751285
_cell_angle_alpha 90.000000
_cell_angle_beta 90.000000
_cell_angle_gamma 90.000000
_cell_volume 1404.676765
_symmetry_space_group_name_H-M "I 2 2 2"
_symmetry_group_IT_number 23
_symmetry_cell_setting 'orthorhombic'
loop_
_space_group_symop_operation_xyz
x,y,z
-x,-y,z
x,-y,-z
-x,y,-z
1/2+x,1/2+y,1/2+z
1/2-x,1/2-y,1/2+z
1/2+x,1/2-y,1/2-z
1/2-x,1/2+y,1/2-z
loop_
_atom_site_type_symbol
_atom_site_label
_atom_site_fract_x
_atom_site_fract_y
_atom_site_fract_z
Si Si1 0.157459 0.070436 0.653278
Si Si2 0.118020 0.633653 0.246366
Si Si3 0.000000 0.500000 0.500000
Si Si4 0.754592 0.756742 0.027507
Si Si5 0.539035 0.202300 0.598179
O O1 0.164386 0.251724 0.689616
O O2 0.205748 0.094229 0.571865
O O3 0.256780 0.958102 0.703313
O O4 0.000000 0.000000 0.654918
O O5 0.050958 0.740558 0.181471
O O6 0.000000 0.500000 0.269983
O O7 0.117433 0.375870 0.534689
O O8 0.903487 0.801168 0.067236
O O9 0.817646 0.739670 0.947177
O O10 0.500000 0.000000 0.591437
#
# Coordination Sequence:
#
# PCOD9331595 Si02
#       5
#     8   8   2   8   8
#     4  12  27  43  74 112 148 198 238 317 373 435
#     4  11  24  48  71 108 145 199 252 294 368 448
#     4  12  32  42  62 116 156 194 222 342 372 434
#     4  11  25  46  69 103 146 187 249 295 374 425
#     4  10  22  46  79  99 130 197 253 295 342 460
#
# _framework density 24.204857000000001
#
# number of rings (size 3 to 8) (size 9 to 14) (size 15 to 20)
#    0.000    0.941    4.706    2.824    4.941    3.765 
#    0.000    0.000    0.000    0.000    0.000    0.000 
#    0.000    0.000    0.000    0.000    0.000    0.000 
#
# Total GULP energy -94920.688302 kJ/mol
# GULP energy per Si atom -5583.569900 kJ/mol
# Density = 2.414977 g / cm^3
# Si number density = 24.204857 Si / 1000 Ang^3
#
#
#
# Elastic Constant Matrix: (Units=GPa)
#
#
# Indices 1 2 3 4 5 6 
#
# 1 166.1719 48.1963 14.4680 0.0000 0.0000 0.0000
# 2 48.1963 50.0286 27.2281 0.0000 0.0000 0.0000
# 3 14.4680 27.2281 97.6788 0.0000 0.0000 0.0000
# 4 0.0000 0.0000 0.0000 18.8077 0.0000 0.0000
# 5 0.0000 0.0000 0.0000 0.0000 39.0751 0.0000
# 6 0.0000 0.0000 0.0000 0.0000 0.0000 54.6023
#
#
#
# Elastic Compliance Matrix: (Units=1/GPa)
#
#
# Indices 1 2 3 4 5 6 
#
# 1 0.008469 -0.008814 0.001202 0.000000 0.000000 0.000000
# 2 -0.008814 0.032735 -0.007819 0.000000 0.000000 0.000000
# 3 0.001202 -0.007819 0.012239 0.000000 0.000000 0.000000
# 4 0.000000 0.000000 0.000000 0.053170 0.000000 0.000000
# 5 0.000000 0.000000 0.000000 0.000000 0.025592 0.000000
# 6 0.000000 0.000000 0.000000 0.000000 0.000000 0.018314
#
#
# Mechanical properties :
#
#
# Convention : Reuss Voigt Hill
#
# Bulk Modulus (GPa) = 44.28256 54.85155 49.56705
# Shear Modulus (GPa) = 26.46783 37.42950 31.94867
#
# Velocity S-wave (km/s) = 3.31039 3.93665 3.63702
# Velocity P-wave (km/s) = 5.73988 6.58586 6.17737
#
# Compressibility (1/GPa) = 0.02258225
#
# Stress axis : x y z
#
# Youngs Moduli (GPa) = 118.07096 30.54819 81.70442
#
# Poissons Ratio (x) = 0.26924 -0.09824
# Poissons Ratio (y) = 1.04064 0.63889
# Poissons Ratio (z) = -0.14196 0.23887
#
# Static dielectric constant tensor:
#      x y z
#    x 1.954880 0.000000 0.000000 
#    y 0.000000 2.001920 0.000000 
#    z 0.000000 0.000000 1.922700 
# 
# From -- ./inp_files/25972.got.cif
#   From: 2010.05.17/outbox.cif.g08.bks.cpg/sg23_13_cif.got.tgz:25972.got - 2010.06.04 12:02:01.
