data_PCOD9331605
_publ_section_title
;
Structure prediction by ZEFSAII (Michael W. Deem and Ramdas Pophale) SiO2 
 PCOD9331605
Probable space group: I 2 2 2
;
_chemical_formula_sum "Si O2"
_cell_formula_units_Z 48
_cell_length_a 22.038648
_cell_length_b 6.703338
_cell_length_c 12.314914
_cell_angle_alpha 90.000000
_cell_angle_beta 90.000000
_cell_angle_gamma 90.000000
_cell_volume 1819.313114
_symmetry_space_group_name_H-M "I 2 2 2"
_symmetry_group_IT_number 23
_symmetry_cell_setting 'orthorhombic'
loop_
_space_group_symop_operation_xyz
x,y,z
-x,-y,z
x,-y,-z
-x,y,-z
1/2+x,1/2+y,1/2+z
1/2-x,1/2-y,1/2+z
1/2+x,1/2-y,1/2-z
1/2-x,1/2+y,1/2-z
loop_
_atom_site_type_symbol
_atom_site_label
_atom_site_fract_x
_atom_site_fract_y
_atom_site_fract_z
Si Si1 0.601529 0.174798 0.144490
Si Si2 0.352297 0.336839 0.629228
Si Si3 0.522684 0.705583 0.247077
Si Si4 0.253911 0.932397 0.379725
Si Si5 0.872091 0.211396 0.402736
Si Si6 0.625903 0.195489 0.600862
O O1 0.631407 0.256872 0.253369
O O2 0.530971 0.190674 0.179293
O O3 0.623290 0.948125 0.124922
O O4 0.620571 0.287838 0.033473
O O5 0.281541 0.288972 0.618575
O O6 0.364062 0.567164 0.615794
O O7 0.380770 0.198838 0.531833
O O8 0.500000 0.500000 0.304139
O O9 0.568496 0.627892 0.155114
O O10 0.563486 0.834899 0.331467
O O11 0.185599 0.888994 0.342564
O O12 0.187885 0.581274 0.142951
O O13 0.240379 0.000000 0.500000
#
# Coordination Sequence:
#
# PCOD9331605 Si02
#       6
#     8   8   8   8   8   8
#     4  11  25  49  79 116 162 217 283 346 419 504
#     4  10  22  49  76 119 157 212 274 346 414 492
#     4  12  25  47  75 119 160 217 281 343 419 501
#     4  10  24  47  76 110 159 211 279 335 417 495
#     4  11  27  48  75 116 163 224 273 349 421 496
#     4  10  23  47  79 115 161 209 271 350 411 499
#
# _framework density 26.383583000000002
#
# number of rings (size 3 to 8) (size 9 to 14) (size 15 to 20)
#    0.000    1.333    1.667    2.000    2.333    8.000 
#   18.000    0.000    3.667    5.000    0.000    0.000 
#    0.000    0.000    0.000    0.000    0.000    0.000 
#
# Total GULP energy -133880.691498 kJ/mol
# GULP energy per Si atom -5578.362146 kJ/mol
# Density = 2.632353 g / cm^3
# Si number density = 26.383583 Si / 1000 Ang^3
#
#
#
# Elastic Constant Matrix: (Units=GPa)
#
#
# Indices 1 2 3 4 5 6 
#
# 1 130.3992 44.7381 44.0253 0.0000 0.0000 0.0000
# 2 44.7381 99.4932 25.2962 0.0000 0.0000 0.0000
# 3 44.0253 25.2962 184.5430 0.0000 0.0000 0.0000
# 4 0.0000 0.0000 0.0000 43.3492 0.0000 0.0000
# 5 0.0000 0.0000 0.0000 0.0000 62.6139 0.0000
# 6 0.0000 0.0000 0.0000 0.0000 0.0000-5984.3822
#
#
#
# Elastic Compliance Matrix: (Units=1/GPa)
#
#
# Indices 1 2 3 4 5 6 
#
# 1 0.009588 -0.003864 -0.001758 0.000000 0.000000 0.000000
# 2 -0.003864 0.011971 -0.000719 0.000000 0.000000 0.000000
# 3 -0.001758 -0.000719 0.005937 0.000000 0.000000 0.000000
# 4 0.000000 0.000000 0.000000 0.023068 0.000000 0.000000
# 5 0.000000 0.000000 0.000000 0.000000 0.015971 0.000000
# 6 0.000000 0.000000 0.000000 0.000000 0.000000 -0.000167
#
#
# Mechanical properties :
#
#
# Convention : Reuss Voigt Hill
#
# Bulk Modulus (GPa) = 67.50459 71.39496 69.44977
# Shear Modulus (GPa) = 59.53184 -1155.65877 -548.06347
#
# Velocity S-wave (km/s) = 4.75531 -20.95168 -14.42844
# Velocity P-wave (km/s) = 7.46940 23.62579 15.84907
#
# Compressibility (1/GPa) = 0.01481381
#
# Stress axis : x y z
#
# Youngs Moduli (GPa) = 104.29683 83.53203 168.44478
#
# Poissons Ratio (x) = 0.32281 0.29606
# Poissons Ratio (y) = 0.40305 0.12112
# Poissons Ratio (z) = 0.18332 0.06006
#
# Static dielectric constant tensor:
#      x y z
#    x 2.191340 0.000000 0.000000 
#    y 0.000000 2.130780 0.000000 
#    z 0.000000 0.000000 26.636840 
# 
# From -- ./inp_files/18311.got.cif
#   From: 2010.05.17/outbox.cif.g08.bks.cpg/sg23_10_cif.got.tgz:18311.got - 2010.06.04 12:02:01.
