data_PCOD9331048
_publ_section_title
;
Structure prediction by ZEFSAII (Michael W. Deem and Ramdas Pophale) SiO2 
 PCOD9331048
Probable space group: I 2 2 2
;
_chemical_formula_sum "Si O2"
_cell_formula_units_Z 46
_cell_length_a 21.240811
_cell_length_b 11.069298
_cell_length_c 8.579717
_cell_angle_alpha 90.000000
_cell_angle_beta 90.000000
_cell_angle_gamma 90.000000
_cell_volume 2017.270497
_symmetry_space_group_name_H-M "I 2 2 2"
_symmetry_group_IT_number 23
_symmetry_cell_setting 'orthorhombic'
loop_
_space_group_symop_operation_xyz
x,y,z
-x,-y,z
x,-y,-z
-x,y,-z
1/2+x,1/2+y,1/2+z
1/2-x,1/2-y,1/2+z
1/2+x,1/2-y,1/2-z
1/2-x,1/2+y,1/2-z
loop_
_atom_site_type_symbol
_atom_site_label
_atom_site_fract_x
_atom_site_fract_y
_atom_site_fract_z
Si Si1 0.069659 0.948360 0.184152
Si Si2 0.273628 0.000000 0.000000
Si Si3 0.000000 0.500000 0.500000
Si Si4 0.796864 0.572973 0.843753
Si Si5 0.154045 0.840010 0.670304
Si Si6 0.835925 0.195674 0.007885
Si Si7 0.063960 0.734189 0.421105
O O1 0.104904 0.891187 0.034305
O O2 0.067590 0.823885 0.279697
O O3 0.111006 0.044221 0.283901
O O4 0.000000 0.000000 0.165359
O O5 0.306023 0.020610 0.169043
O O6 0.226729 0.885793 0.022301
O O7 0.045242 0.592391 0.404448
O O8 0.722747 0.606072 0.862664
O O9 0.832147 0.699199 0.866991
O O10 0.814318 0.500000 0.000000
O O11 0.122588 0.761091 0.535141
O O12 0.160627 0.762366 0.829096
O O13 0.000000 0.781719 0.500000
#
# Coordination Sequence:
#
# PCOD9331048 Si02
#       7
#     8   4   2   8   8   8   8
#     4  12  21  41  71 104 135 178 238 310 369 422
#     4  10  24  44  70 102 148 188 248 304 354 442
#     4   8  20  44  56  90 140 174 236 288 346 460
#     4  11  25  46  71 100 151 196 246 298 372 449
#     4  11  23  40  70 100 139 179 241 314 361 429
#     4  11  25  45  64 108 139 184 244 298 379 435
#     4  10  21  39  66  95 133 184 239 289 363 439
#
# _framework density 22.803090000000001
#
# number of rings (size 3 to 8) (size 9 to 14) (size 15 to 20)
#    0.522    0.696    5.217    1.565    4.870    1.391 
#    3.130    0.870    0.000    1.043    0.000    0.000 
#    0.000    0.000    0.000    0.000    0.000    0.000 
#
# Total GULP energy -128299.414337 kJ/mol
# GULP energy per Si atom -5578.235406 kJ/mol
# Density = 2.275119 g / cm^3
# Si number density = 22.803090 Si / 1000 Ang^3
#
#
#
# Elastic Constant Matrix: (Units=GPa)
#
#
# Indices 1 2 3 4 5 6 
#
# 1 83.5980 32.0707 5.8344 0.0000 0.0000 0.0000
# 2 32.0707 123.3688 57.7203 0.0000 0.0000 0.0000
# 3 5.8344 57.7203 123.8178 0.0000 0.0000 0.0000
# 4 0.0000 0.0000 0.0000 28.0722 0.0000 0.0000
# 5 0.0000 0.0000 0.0000 0.0000 24.4644 0.0000
# 6 0.0000 0.0000 0.0000 0.0000 0.0000 2.0527
#
#
#
# Elastic Compliance Matrix: (Units=1/GPa)
#
#
# Indices 1 2 3 4 5 6 
#
# 1 0.013442 -0.004090 0.001273 0.000000 0.000000 0.000000
# 2 -0.004090 0.011611 -0.005220 0.000000 0.000000 0.000000
# 3 0.001273 -0.005220 0.010450 0.000000 0.000000 0.000000
# 4 0.000000 0.000000 0.000000 0.035622 0.000000 0.000000
# 5 0.000000 0.000000 0.000000 0.000000 0.040876 0.000000
# 6 0.000000 0.000000 0.000000 0.000000 0.000000 0.487163
#
#
# Mechanical properties :
#
#
# Convention : Reuss Voigt Hill
#
# Bulk Modulus (GPa) = 51.46818 58.00392 54.73605
# Shear Modulus (GPa) = 8.04227 26.59514 17.31871
#
# Velocity S-wave (km/s) = 1.88002 3.41881 2.75887
# Velocity P-wave (km/s) = 5.22804 6.40909 5.84845
#
# Compressibility (1/GPa) = 0.01942948
#
# Stress axis : x y z
#
# Youngs Moduli (GPa) = 74.39233 86.12233 95.69492
#
# Poissons Ratio (x) = 0.35225 -0.12185
# Poissons Ratio (y) = 0.30428 0.49954
# Poissons Ratio (z) = -0.09472 0.44957
#
# Static dielectric constant tensor:
#      x y z
#    x 1.893730 0.000000 0.000000 
#    y 0.000000 1.877690 0.000000 
#    z 0.000000 0.000000 2.616500 
# 
# From -- ./inp_files/12609.got.cif
#   From: 2010.05.17/outbox.cif.g08.bks.cpg/sg23_7_cif.got.tgz:12609.got - 2010.06.04 12:02:01.
