data_PCOD9331123
_publ_section_title
;
Structure prediction by ZEFSAII (Michael W. Deem and Ramdas Pophale) SiO2 
 PCOD9331123
Probable space group: I 2 2 2
;
_chemical_formula_sum "Si O2"
_cell_formula_units_Z 56
_cell_length_a 22.047943
_cell_length_b 14.132513
_cell_length_c 9.883446
_cell_angle_alpha 90.000000
_cell_angle_beta 90.000000
_cell_angle_gamma 90.000000
_cell_volume 3079.611019
_symmetry_space_group_name_H-M "I 2 2 2"
_symmetry_group_IT_number 23
_symmetry_cell_setting 'orthorhombic'
loop_
_space_group_symop_operation_xyz
x,y,z
-x,-y,z
x,-y,-z
-x,y,-z
1/2+x,1/2+y,1/2+z
1/2-x,1/2-y,1/2+z
1/2+x,1/2-y,1/2-z
1/2-x,1/2+y,1/2-z
loop_
_atom_site_type_symbol
_atom_site_label
_atom_site_fract_x
_atom_site_fract_y
_atom_site_fract_z
Si Si1 0.617829 0.212073 0.255660
Si Si2 0.450050 0.596187 0.586539
Si Si3 0.494066 0.690869 0.839319
Si Si4 0.198212 0.384210 0.479746
Si Si5 0.669493 0.294544 0.527921
Si Si6 0.377971 0.828693 0.767722
Si Si7 0.569664 0.984296 0.656662
O O1 0.562051 0.275656 0.201248
O O2 0.660251 0.161485 0.144171
O O3 0.655635 0.263295 0.373891
O O4 0.584662 0.123064 0.319706
O O5 0.445654 0.500000 0.500000
O O6 0.500000 0.655860 0.500000
O O7 0.473908 0.604645 0.739987
O O8 0.383809 0.636565 0.575376
O O9 0.439822 0.768551 0.805239
O O10 0.500000 0.672424 0.000000
O O11 0.195339 0.500000 0.500000
O O12 0.266804 0.347615 0.463281
O O13 0.168050 0.332546 0.608275
O O14 0.657290 0.210114 0.635272
O O15 0.395359 0.937176 0.740796
O O16 0.500000 0.000000 0.688517
O O17 0.580975 0.000000 0.500000
#
# Coordination Sequence:
#
# PCOD9331123 Si02
#       7
#     8   8   8   8   8   8   8
#     4  12  22  38  63  92 127 163 204 253 310 378
#     4  10  21  40  67  93 115 157 215 259 295 360
#     4  11  22  38  64  97 131 156 195 260 326 367
#     4  12  25  40  60  88 127 170 202 255 315 365
#     4  11  24  41  62  86 121 166 221 249 296 365
#     4  11  22  38  61  92 127 164 206 253 305 381
#     4  11  21  33  60  97 132 159 198 253 315 370
#
# _framework density 18.184114999999998
#
# number of rings (size 3 to 8) (size 9 to 14) (size 15 to 20)
#    0.000    0.857    7.143    1.286    0.000    0.000 
#    0.000    3.571    0.000    0.000    0.000    0.000 
#    0.000    0.000    0.000    0.000    0.000    0.000 
#
# Total GULP energy -155885.933488 kJ/mol
# GULP energy per Si atom -5567.354767 kJ/mol
# Density = 1.814273 g / cm^3
# Si number density = 18.184115 Si / 1000 Ang^3
#
#
#
# Elastic Constant Matrix: (Units=GPa)
#
#
# Indices 1 2 3 4 5 6 
#
# 1 124.2817 24.7329 37.7820 0.0000 0.0000 0.0000
# 2 24.7329 70.7024 28.8753 0.0000 0.0000 0.0000
# 3 37.7820 28.8753 135.2076 0.0000 0.0000 0.0000
# 4 0.0000 0.0000 0.0000 22.1426 0.0000 0.0000
# 5 0.0000 0.0000 0.0000 0.0000 12.0143 0.0000
# 6 0.0000 0.0000 0.0000 0.0000 0.0000 27.7440
#
#
#
# Elastic Compliance Matrix: (Units=1/GPa)
#
#
# Indices 1 2 3 4 5 6 
#
# 1 0.009139 -0.002360 -0.002050 0.000000 0.000000 0.000000
# 2 -0.002360 0.016105 -0.002780 0.000000 0.000000 0.000000
# 3 -0.002050 -0.002780 0.008563 0.000000 0.000000 0.000000
# 4 0.000000 0.000000 0.000000 0.045162 0.000000 0.000000
# 5 0.000000 0.000000 0.000000 0.000000 0.083234 0.000000
# 6 0.000000 0.000000 0.000000 0.000000 0.000000 0.036044
#
#
# Mechanical properties :
#
#
# Convention : Reuss Voigt Hill
#
# Bulk Modulus (GPa) = 51.47467 56.99691 54.23579
# Shear Modulus (GPa) = 22.82057 28.30028 25.56043
#
# Velocity S-wave (km/s) = 3.54640 3.94930 3.75326
# Velocity P-wave (km/s) = 6.71850 7.22554 6.97663
#
# Compressibility (1/GPa) = 0.01942703
#
# Stress axis : x y z
#
# Youngs Moduli (GPa) = 109.42109 62.09390 116.78814
#
# Poissons Ratio (x) = 0.14653 0.23939
# Poissons Ratio (y) = 0.25822 0.32466
# Poissons Ratio (z) = 0.22429 0.17262
#
# Static dielectric constant tensor:
#      x y z
#    x 1.629540 0.000000 0.000000 
#    y 0.000000 2.751740 0.000000 
#    z 0.000000 0.000000 1.646030 
# 
# From -- ./inp_files/12043.got.cif
#   From: 2010.05.17/outbox.cif.g08.bks.cpg/sg23_7_cif.got.tgz:12043.got - 2010.06.04 12:02:01.
