data_PCOD9331041
_publ_section_title
;
Structure prediction by ZEFSAII (Michael W. Deem and Ramdas Pophale) SiO2 
 PCOD9331041
Probable space group: I 2 2 2
;
_chemical_formula_sum "Si O2"
_cell_formula_units_Z 48
_cell_length_a 22.132351
_cell_length_b 10.668231
_cell_length_c 8.850052
_cell_angle_alpha 90.000000
_cell_angle_beta 90.000000
_cell_angle_gamma 90.000000
_cell_volume 2089.612620
_symmetry_space_group_name_H-M "I 2 2 2"
_symmetry_group_IT_number 23
_symmetry_cell_setting 'orthorhombic'
loop_
_space_group_symop_operation_xyz
x,y,z
-x,-y,z
x,-y,-z
-x,y,-z
1/2+x,1/2+y,1/2+z
1/2-x,1/2-y,1/2+z
1/2+x,1/2-y,1/2-z
1/2-x,1/2+y,1/2-z
loop_
_atom_site_type_symbol
_atom_site_label
_atom_site_fract_x
_atom_site_fract_y
_atom_site_fract_z
Si Si1 0.676522 0.777932 0.448752
Si Si2 0.135483 0.058157 0.739735
Si Si3 0.512947 0.670010 0.323477
Si Si4 0.183401 0.173366 0.434450
Si Si5 0.100097 0.689025 0.741279
Si Si6 0.580046 0.064639 0.661059
O O1 0.832638 0.074952 0.702278
O O2 0.746571 0.807233 0.467191
O O3 0.635992 0.793926 0.599347
O O4 0.649122 0.887230 0.341989
O O5 0.150318 0.127970 0.584030
O O6 0.164270 0.141837 0.874344
O O7 0.062979 0.070524 0.766896
O O8 0.500000 0.644600 0.500000
O O9 0.451080 0.703330 0.236647
O O10 0.545036 0.806608 0.319430
O O11 0.150764 0.298415 0.383723
O O12 0.071378 0.551801 0.730078
O O13 0.565390 0.000000 0.500000
#
# Coordination Sequence:
#
# PCOD9331041 Si02
#       6
#     8   8   8   8   8   8
#     4  10  21  39  65  92 129 166 221 273 321 400
#     4  10  24  43  62  91 131 181 216 272 335 394
#     4  11  19  40  65  93 127 162 221 275 320 396
#     4  11  25  40  62  92 136 178 214 269 337 408
#     4  11  22  36  67 100 118 172 214 273 329 389
#     4   9  18  32  65  99 116 154 208 272 327 367
#
# _framework density 22.970766000000001
#
# number of rings (size 3 to 8) (size 9 to 14) (size 15 to 20)
#    0.000    1.667    5.000    1.500    9.333    2.000 
#    0.000    5.833    0.000    4.000    0.000    0.000 
#    0.000    0.000    0.000    0.000    0.000    0.000 
#
# Total GULP energy -133916.798528 kJ/mol
# GULP energy per Si atom -5579.866605 kJ/mol
# Density = 2.291848 g / cm^3
# Si number density = 22.970766 Si / 1000 Ang^3
#
#
#
# Elastic Constant Matrix: (Units=GPa)
#
#
# Indices 1 2 3 4 5 6 
#
# 1 156.9704 13.7717 15.9146 0.0000 0.0000 0.0000
# 2 13.7717 104.1643 4.6884 0.0000 0.0000 0.0000
# 3 15.9146 4.6884 20.1336 0.0000 0.0000 0.0000
# 4 0.0000 0.0000 0.0000 14.9842 0.0000 0.0000
# 5 0.0000 0.0000 0.0000 0.0000 27.5097 0.0000
# 6 0.0000 0.0000 0.0000 0.0000 0.0000 18.9236
#
#
#
# Elastic Compliance Matrix: (Units=1/GPa)
#
#
# Indices 1 2 3 4 5 6 
#
# 1 0.006973 -0.000681 -0.005353 0.000000 0.000000 0.000000
# 2 -0.000681 0.009768 -0.001736 0.000000 0.000000 0.000000
# 3 -0.005353 -0.001736 0.054304 0.000000 0.000000 0.000000
# 4 0.000000 0.000000 0.000000 0.066737 0.000000 0.000000
# 5 0.000000 0.000000 0.000000 0.000000 0.036351 0.000000
# 6 0.000000 0.000000 0.000000 0.000000 0.000000 0.052844
#
#
# Mechanical properties :
#
#
# Convention : Reuss Voigt Hill
#
# Bulk Modulus (GPa) = 18.01671 38.89088 28.45379
# Shear Modulus (GPa) = 19.15560 28.74306 23.94933
#
# Velocity S-wave (km/s) = 2.89089 3.54119 3.23244
# Velocity P-wave (km/s) = 4.35928 5.80409 5.13277
#
# Compressibility (1/GPa) = 0.05550402
#
# Stress axis : x y z
#
# Youngs Moduli (GPa) = 143.40774 102.37082 18.41485
#
# Poissons Ratio (x) = 0.06971 0.09858
# Poissons Ratio (y) = 0.09766 0.03198
# Poissons Ratio (z) = 0.76771 0.17776
#
# Static dielectric constant tensor:
#      x y z
#    x 1.886910 0.000000 0.000000 
#    y 0.000000 1.953570 0.000000 
#    z 0.000000 0.000000 1.961910 
# 
# From -- ./inp_files/11306.got.cif
#   From: 2010.05.17/outbox.cif.g08.bks.cpg/sg23_6_cif.got.tgz:11306.got - 2010.06.04 12:02:01.
