data_PCOD9331472
_publ_section_title
;
Structure prediction by ZEFSAII (Michael W. Deem and Ramdas Pophale) SiO2 
 PCOD9331472
Probable space group: I 2 2 2
;
_chemical_formula_sum "Si O2"
_cell_formula_units_Z 34
_cell_length_a 30.369703
_cell_length_b 5.387866
_cell_length_c 8.631327
_cell_angle_alpha 90.000000
_cell_angle_beta 90.000000
_cell_angle_gamma 90.000000
_cell_volume 1412.325827
_symmetry_space_group_name_H-M "I 2 2 2"
_symmetry_group_IT_number 23
_symmetry_cell_setting 'orthorhombic'
loop_
_space_group_symop_operation_xyz
x,y,z
-x,-y,z
x,-y,-z
-x,y,-z
1/2+x,1/2+y,1/2+z
1/2-x,1/2-y,1/2+z
1/2+x,1/2-y,1/2-z
1/2-x,1/2+y,1/2-z
loop_
_atom_site_type_symbol
_atom_site_label
_atom_site_fract_x
_atom_site_fract_y
_atom_site_fract_z
Si Si1 0.232363 0.090650 0.675617
Si Si2 0.104602 0.500000 0.500000
Si Si3 0.646246 0.344151 0.244441
Si Si4 0.139933 0.500000 0.000000
Si Si5 0.427073 0.707588 0.715109
Si Si6 0.000000 0.000000 0.000000
O O1 0.254051 0.870664 0.780732
O O2 0.180015 0.060803 0.706304
O O3 0.240333 0.000000 0.500000
O O4 0.137454 0.669702 0.599574
O O5 0.074343 0.665584 0.384252
O O6 0.664550 0.197079 0.393490
O O7 0.597276 0.442680 0.278307
O O8 0.107551 0.364542 0.882838
O O9 0.470786 0.668545 0.615840
#
# Coordination Sequence:
#
# PCOD9331472 Si02
#       6
#     8   4   8   4   8   2
#     4  12  30  49  76 114 158 204 260 327 391 464
#     4  10  24  44  77 103 140 198 247 300 392 449
#     4  11  24  47  74 107 147 196 251 307 384 464
#     4  10  22  41  76 104 132 196 240 298 376 453
#     4  11  23  45  72 105 143 190 245 312 370 456
#     4  12  24  46  74 106 154 186 262 310 380 450
#
# _framework density 24.073765000000002
#
# number of rings (size 3 to 8) (size 9 to 14) (size 15 to 20)
#    0.000    0.941    2.353    2.824   11.529    2.353 
#    0.000    3.529    0.000    0.000    0.000    0.000 
#    0.000    0.000    0.000    0.000    0.000    0.000 
#
# Total GULP energy -95125.990546 kJ/mol
# GULP energy per Si atom -5595.646503 kJ/mol
# Density = 2.401897 g / cm^3
# Si number density = 24.073765 Si / 1000 Ang^3
#
#
#
# Elastic Constant Matrix: (Units=GPa)
#
#
# Indices 1 2 3 4 5 6 
#
# 1 91.5583 8.1070 25.1764 0.0000 0.0000 0.0000
# 2 8.1070 69.2388 21.6316 0.0000 0.0000 0.0000
# 3 25.1764 21.6316 136.2473 0.0000 0.0000 0.0000
# 4 0.0000 0.0000 0.0000 57.5242 0.0000 0.0000
# 5 0.0000 0.0000 0.0000 0.0000 15.3895 0.0000
# 6 0.0000 0.0000 0.0000 0.0000 0.0000 -22.2671
#
#
#
# Elastic Compliance Matrix: (Units=1/GPa)
#
#
# Indices 1 2 3 4 5 6 
#
# 1 0.011541 -0.000721 -0.002018 0.000000 0.000000 0.000000
# 2 -0.000721 0.015242 -0.002287 0.000000 0.000000 0.000000
# 3 -0.002018 -0.002287 0.008076 0.000000 0.000000 0.000000
# 4 0.000000 0.000000 0.000000 0.017384 0.000000 0.000000
# 5 0.000000 0.000000 0.000000 0.000000 0.064979 0.000000
# 6 0.000000 0.000000 0.000000 0.000000 0.000000 -0.044909
#
#
# Mechanical properties :
#
#
# Convention : Reuss Voigt Hill
#
# Bulk Modulus (GPa) = 40.31161 45.20826 42.75994
# Shear Modulus (GPa) = 55.16817 26.27129 40.71973
#
# Velocity S-wave (km/s) = 4.79229 3.30704 4.11719
# Velocity P-wave (km/s) = 6.88497 5.77943 6.35628
#
# Compressibility (1/GPa) = 0.02480675
#
# Stress axis : x y z
#
# Youngs Moduli (GPa) = 86.64936 65.61004 123.83048
#
# Poissons Ratio (x) = 0.04729 0.24990
# Poissons Ratio (y) = 0.06246 0.28316
# Poissons Ratio (z) = 0.17487 0.15003
#
# Static dielectric constant tensor:
#      x y z
#    x 1.896700 0.000000 0.000000 
#    y 0.000000 2.502670 0.000000 
#    z 0.000000 0.000000 2.046010 
# 
# From -- ./inp_files/5798.got.cif
#   From: 2010.05.17/outbox.cif.g08.bks.cpg/sg23_3_cif.got.tgz:5798.got - 2010.06.04 12:02:01.
