data_PCOD9331634
_publ_section_title
;
Structure prediction by ZEFSAII (Michael W. Deem and Ramdas Pophale) SiO2 
 PCOD9331634
Probable space group: I 2 2 2
;
_chemical_formula_sum "Si O2"
_cell_formula_units_Z 56
_cell_length_a 16.002655
_cell_length_b 8.621626
_cell_length_c 20.125838
_cell_angle_alpha 90.000000
_cell_angle_beta 90.000000
_cell_angle_gamma 90.000000
_cell_volume 2776.739860
_symmetry_space_group_name_H-M "I 2 2 2"
_symmetry_group_IT_number 23
_symmetry_cell_setting 'orthorhombic'
loop_
_space_group_symop_operation_xyz
x,y,z
-x,-y,z
x,-y,-z
-x,y,-z
1/2+x,1/2+y,1/2+z
1/2-x,1/2-y,1/2+z
1/2+x,1/2-y,1/2-z
1/2-x,1/2+y,1/2-z
loop_
_atom_site_type_symbol
_atom_site_label
_atom_site_fract_x
_atom_site_fract_y
_atom_site_fract_z
Si Si1 0.717201 0.762244 0.409917
Si Si2 0.100803 0.210955 0.175298
Si Si3 0.215839 0.491190 0.205760
Si Si4 0.682038 0.500000 0.000000
Si Si5 0.373432 0.341462 0.130760
Si Si6 0.267384 0.942407 0.860108
Si Si7 0.500000 0.500000 0.777196
Si Si8 0.028317 0.180396 0.930505
O O1 0.703549 0.865296 0.343811
O O2 0.759338 0.868378 0.466312
O O3 0.770980 0.611104 0.392371
O O4 0.626520 0.699418 0.428207
O O5 0.142121 0.365185 0.204450
O O6 0.175204 0.134926 0.130410
O O7 0.066372 0.089184 0.229918
O O8 0.021570 0.253848 0.130335
O O9 0.297709 0.408608 0.175880
O O10 0.228428 0.543749 0.280534
O O11 0.628670 0.569027 0.060763
O O12 0.343062 0.166967 0.117693
O O13 0.454593 0.376268 0.174645
O O14 0.000000 0.000000 0.928112
O O15 0.000000 0.249876 0.000000
#
# Coordination Sequence:
#
# PCOD9331634 Si02
#       8
#     8   8   8   4   8   8   4   8
#     4  11  23  42  65  92 137 169 226 273 320 403
#     4  11  22  40  63  95 136 171 223 268 342 389
#     4  10  23  39  64  97 127 173 213 279 324 402
#     4  10  26  45  65  96 122 178 224 278 336 400
#     4  10  24  41  68  95 128 172 223 266 344 389
#     4  11  21  40  70  98 125 173 223 271 323 409
#     4  12  22  43  69  98 132 172 218 296 340 388
#     4  11  24  37  58  92 131 182 214 266 326 390
#
# _framework density 20.167535000000001
#
# number of rings (size 3 to 8) (size 9 to 14) (size 15 to 20)
#    0.000    1.286    3.571    1.714   10.000    1.429 
#    0.000    0.000    0.000    0.000    3.714    0.000 
#    0.000    0.000    0.000    0.000    0.000    0.000 
#
# Total GULP energy -156399.174541 kJ/mol
# GULP energy per Si atom -5585.684805 kJ/mol
# Density = 2.012163 g / cm^3
# Si number density = 20.167535 Si / 1000 Ang^3
#
#
#
# Elastic Constant Matrix: (Units=GPa)
#
#
# Indices 1 2 3 4 5 6 
#
# 1 44.8437 23.9577 12.3199 0.0000 0.0000 0.0000
# 2 23.9577 97.6537 10.3644 0.0000 0.0000 0.0000
# 3 12.3199 10.3644 68.8481 0.0000 0.0000 0.0000
# 4 0.0000 0.0000 0.0000 1.9061 0.0000 0.0000
# 5 0.0000 0.0000 0.0000 0.0000 20.7990 0.0000
# 6 0.0000 0.0000 0.0000 0.0000 0.0000 16.2163
#
#
#
# Elastic Compliance Matrix: (Units=1/GPa)
#
#
# Indices 1 2 3 4 5 6 
#
# 1 0.026628 -0.006125 -0.003843 0.000000 0.000000 0.000000
# 2 -0.006125 0.011815 -0.000683 0.000000 0.000000 0.000000
# 3 -0.003843 -0.000683 0.015315 0.000000 0.000000 0.000000
# 4 0.000000 0.000000 0.000000 0.524621 0.000000 0.000000
# 5 0.000000 0.000000 0.000000 0.000000 0.048079 0.000000
# 6 0.000000 0.000000 0.000000 0.000000 0.000000 0.061666
#
#
# Mechanical properties :
#
#
# Convention : Reuss Voigt Hill
#
# Bulk Modulus (GPa) = 30.80951 33.84773 32.32862
# Shear Modulus (GPa) = 6.94208 18.76452 12.85330
#
# Velocity S-wave (km/s) = 1.85733 3.05361 2.52727
# Velocity P-wave (km/s) = 4.46201 5.40855 4.95792
#
# Compressibility (1/GPa) = 0.03245751
#
# Stress axis : x y z
#
# Youngs Moduli (GPa) = 37.55508 84.63583 65.29489
#
# Poissons Ratio (x) = 0.51837 0.25091
# Poissons Ratio (y) = 0.23002 0.04458
# Poissons Ratio (z) = 0.14432 0.05778
#
# Static dielectric constant tensor:
#      x y z
#    x 1.705460 0.000000 0.000000 
#    y 0.000000 1.781360 0.000000 
#    z 0.000000 0.000000 1.716590 
# 
# From -- ./inp_files/12098.got.cif
#   From: 2010.05.17/outbox.cif.g08.bks.cpg/sg23_7_cif.got.tgz:12098.got - 2010.06.04 12:02:01.
