data_PCOD9331935
_publ_section_title
;
Structure prediction by ZEFSAII (Michael W. Deem and Ramdas Pophale) SiO2 
 PCOD9331935
Probable space group: I 2 2 2
;
_chemical_formula_sum "Si O2"
_cell_formula_units_Z 32
_cell_length_a 7.916936
_cell_length_b 9.844192
_cell_length_c 17.563980
_cell_angle_alpha 90.000000
_cell_angle_beta 90.000000
_cell_angle_gamma 90.000000
_cell_volume 1368.863501
_symmetry_space_group_name_H-M "I 2 2 2"
_symmetry_group_IT_number 23
_symmetry_cell_setting 'orthorhombic'
loop_
_space_group_symop_operation_xyz
x,y,z
-x,-y,z
x,-y,-z
-x,y,-z
1/2+x,1/2+y,1/2+z
1/2-x,1/2-y,1/2+z
1/2+x,1/2-y,1/2-z
1/2-x,1/2+y,1/2-z
loop_
_atom_site_type_symbol
_atom_site_label
_atom_site_fract_x
_atom_site_fract_y
_atom_site_fract_z
Si Si1 0.156675 0.902022 0.716861
Si Si2 0.500000 0.500000 0.500000
Si Si3 0.033372 0.752323 0.580238
Si Si4 0.500000 0.000000 0.000000
Si Si5 0.855678 0.221121 0.881222
Si Si6 0.000000 0.500000 0.838482
O O1 0.114221 0.828717 0.795178
O O2 0.157457 0.807490 0.642622
O O3 0.337914 0.972876 0.715095
O O4 0.000000 0.000000 0.701142
O O5 0.408771 0.606834 0.442066
O O6 0.098199 0.604561 0.553081
O O7 0.846122 0.739166 0.613366
O O8 0.000000 0.828991 0.500000
O O9 0.948799 0.367031 0.887727
#
# Coordination Sequence:
#
# PCOD9331935 Si02
#       6
#     8   2   8   2   8   4
#     4  12  26  53  77 114 162 206 265 332 407 482
#     4  12  30  50  78 116 168 214 282 330 416 492
#     4  10  24  49  77 112 153 214 258 334 403 482
#     4   8  22  46  82 112 146 214 266 312 414 478
#     4  12  27  52  80 117 163 211 270 345 399 490
#     4  12  30  48  84 122 152 214 274 334 404 488
#
# _framework density 23.377057000000001
#
# number of rings (size 3 to 8) (size 9 to 14) (size 15 to 20)
#    0.750    0.000    3.750    2.250    3.500    5.000 
#    0.000    0.000    0.000    0.000    0.000    0.000 
#    0.000    0.000    0.000    0.000    0.000    0.000 
#
# Total GULP energy -89372.495057 kJ/mol
# GULP energy per Si atom -5585.780941 kJ/mol
# Density = 2.332385 g / cm^3
# Si number density = 23.377057 Si / 1000 Ang^3
#
#
#
# Elastic Constant Matrix: (Units=GPa)
#
#
# Indices 1 2 3 4 5 6 
#
# 1 108.5939 51.1683 11.8287 0.0000 0.0000 0.0000
# 2 51.1683 147.2397 54.4568 0.0000 0.0000 0.0000
# 3 11.8287 54.4568 135.6212 0.0000 0.0000 0.0000
# 4 0.0000 0.0000 0.0000 28.8692 0.0000 0.0000
# 5 0.0000 0.0000 0.0000 0.0000 19.5658 0.0000
# 6 0.0000 0.0000 0.0000 0.0000 0.0000 1.8030
#
#
#
# Elastic Compliance Matrix: (Units=1/GPa)
#
#
# Indices 1 2 3 4 5 6 
#
# 1 0.011065 -0.004097 0.000680 0.000000 0.000000 0.000000
# 2 -0.004097 0.009493 -0.003454 0.000000 0.000000 0.000000
# 3 0.000680 -0.003454 0.008701 0.000000 0.000000 0.000000
# 4 0.000000 0.000000 0.000000 0.034639 0.000000 0.000000
# 5 0.000000 0.000000 0.000000 0.000000 0.051109 0.000000
# 6 0.000000 0.000000 0.000000 0.000000 0.000000 0.554620
#
#
# Mechanical properties :
#
#
# Convention : Reuss Voigt Hill
#
# Bulk Modulus (GPa) = 64.44708 69.59583 67.02145
# Shear Modulus (GPa) = 7.26172 28.31434 17.78803
#
# Velocity S-wave (km/s) = 1.76439 3.48401 2.76147
# Velocity P-wave (km/s) = 5.63730 6.78381 6.23695
#
# Compressibility (1/GPa) = 0.01551661
#
# Stress axis : x y z
#
# Youngs Moduli (GPa) = 90.37606 105.34126 114.92578
#
# Poissons Ratio (x) = 0.43155 -0.07814
# Poissons Ratio (y) = 0.37024 0.39701
# Poissons Ratio (z) = -0.06145 0.36390
#
# Static dielectric constant tensor:
#      x y z
#    x 1.890770 0.000000 0.000000 
#    y 0.000000 1.938630 0.000000 
#    z 0.000000 0.000000 2.918800 
# 
# From -- ./inp_files/23533.got.cif
#   From: 2010.05.17/outbox.cif.g08.bks.cpg/sg23_12_cif.got.tgz:23533.got - 2010.06.04 12:02:01.
