data_PCOD9331420
_publ_section_title
;
Structure prediction by ZEFSAII (Michael W. Deem and Ramdas Pophale) SiO2 
 PCOD9331420
Probable space group: I 2 2 2
;
_chemical_formula_sum "Si O2"
_cell_formula_units_Z 54
_cell_length_a 15.057680
_cell_length_b 12.052862
_cell_length_c 13.950327
_cell_angle_alpha 90.000000
_cell_angle_beta 90.000000
_cell_angle_gamma 90.000000
_cell_volume 2531.818887
_symmetry_space_group_name_H-M "I 2 2 2"
_symmetry_group_IT_number 23
_symmetry_cell_setting 'orthorhombic'
loop_
_space_group_symop_operation_xyz
x,y,z
-x,-y,z
x,-y,-z
-x,y,-z
1/2+x,1/2+y,1/2+z
1/2-x,1/2-y,1/2+z
1/2+x,1/2-y,1/2-z
1/2-x,1/2+y,1/2-z
loop_
_atom_site_type_symbol
_atom_site_label
_atom_site_fract_x
_atom_site_fract_y
_atom_site_fract_z
Si Si1 0.000000 0.000000 0.500000
Si Si2 0.500215 0.125428 0.112823
Si Si3 0.910187 0.164157 0.656472
Si Si4 0.822281 0.350804 0.915933
Si Si5 0.783934 0.598065 0.866638
Si Si6 0.000000 0.743750 0.000000
Si Si7 0.337998 0.257125 0.204087
Si Si8 0.958160 0.116219 0.175118
O O1 0.950217 0.085347 0.572186
O O2 0.584738 0.204815 0.133448
O O3 0.414389 0.201727 0.138409
O O4 0.500000 0.000000 0.155584
O O5 0.500000 0.112201 0.000000
O O6 0.814682 0.113602 0.671298
O O7 0.965627 0.159696 0.753782
O O8 0.818149 0.473049 0.870527
O O9 0.754377 0.276536 0.852226
O O10 0.782769 0.359986 0.023559
O O11 0.924764 0.319085 0.937547
O O12 0.837389 0.673540 0.793622
O O13 0.052390 0.816570 0.077649
O O14 0.373212 0.370950 0.254427
O O15 0.000000 0.000000 0.146634
#
# Coordination Sequence:
#
# PCOD9331420 Si02
#       8
#     2   8   8   8   8   4   8   8
#     4  12  20  36  70 106 128 166 228 294 356 418
#     4  10  22  40  66  98 144 185 229 288 371 445
#     4  11  22  38  69 103 134 178 228 300 361 431
#     4  11  25  44  71  99 142 183 248 300 369 439
#     4  11  24  42  66 103 137 181 236 305 366 429
#     4  12  25  47  66 100 142 200 236 302 364 466
#     4  11  24  44  68 105 137 184 247 303 363 442
#     4  11  23  42  68  98 137 183 237 289 371 436
#
# _framework density 21.328538999999999
#
# number of rings (size 3 to 8) (size 9 to 14) (size 15 to 20)
#    0.000    1.037    2.963    3.778    4.148    4.741 
#    0.000    0.000    3.259    0.000    0.000    0.000 
#    0.000    0.000    0.000    0.000    0.000    0.000 
#
# Total GULP energy -150445.416109 kJ/mol
# GULP energy per Si atom -5572.052448 kJ/mol
# Density = 2.127999 g / cm^3
# Si number density = 21.328539 Si / 1000 Ang^3
#
#
#
# Elastic Constant Matrix: (Units=GPa)
#
#
# Indices 1 2 3 4 5 6 
#
# 1 76.1906 40.1761 16.4970 0.0000 0.0000 0.0000
# 2 40.1761 136.2145 38.5969 0.0000 0.0000 0.0000
# 3 16.4970 38.5969 86.5992 0.0000 0.0000 0.0000
# 4 0.0000 0.0000 0.0000 18.1111 0.0000 0.0000
# 5 0.0000 0.0000 0.0000 0.0000 23.1228 0.0000
# 6 0.0000 0.0000 0.0000 0.0000 0.0000 12.5265
#
#
#
# Elastic Compliance Matrix: (Units=1/GPa)
#
#
# Indices 1 2 3 4 5 6 
#
# 1 0.015626 -0.004310 -0.001056 0.000000 0.000000 0.000000
# 2 -0.004310 0.009591 -0.003454 0.000000 0.000000 0.000000
# 3 -0.001056 -0.003454 0.013288 0.000000 0.000000 0.000000
# 4 0.000000 0.000000 0.000000 0.055215 0.000000 0.000000
# 5 0.000000 0.000000 0.000000 0.000000 0.043247 0.000000
# 6 0.000000 0.000000 0.000000 0.000000 0.000000 0.079831
#
#
# Mechanical properties :
#
#
# Convention : Reuss Voigt Hill
#
# Bulk Modulus (GPa) = 47.92381 54.39382 51.15881
# Shear Modulus (GPa) = 20.71316 24.33436 22.52376
#
# Velocity S-wave (km/s) = 3.11971 3.38143 3.25320
# Velocity P-wave (km/s) = 5.95776 6.38777 6.17651
#
# Compressibility (1/GPa) = 0.02086646
#
# Stress axis : x y z
#
# Youngs Moduli (GPa) = 63.99529 104.26310 75.25632
#
# Poissons Ratio (x) = 0.44934 0.07947
# Poissons Ratio (y) = 0.27580 0.25992
# Poissons Ratio (z) = 0.06758 0.36010
#
# Static dielectric constant tensor:
#      x y z
#    x 1.839370 0.000000 0.000000 
#    y 0.000000 2.005580 0.000000 
#    z 0.000000 0.000000 1.792950 
# 
# From -- ./inp_files/21625.got.cif
#   From: 2010.05.17/outbox.cif.g08.bks.cpg/sg23_11_cif.got.tgz:21625.got - 2010.06.04 12:02:01.
