data_PCOD9331476
_publ_section_title
;
Structure prediction by ZEFSAII (Michael W. Deem and Ramdas Pophale) SiO2 
 PCOD9331476
Probable space group: I 2 2 2
;
_chemical_formula_sum "Si O2"
_cell_formula_units_Z 48
_cell_length_a 7.891567
_cell_length_b 21.860545
_cell_length_c 13.749852
_cell_angle_alpha 90.000000
_cell_angle_beta 90.000000
_cell_angle_gamma 90.000000
_cell_volume 2372.041356
_symmetry_space_group_name_H-M "I 2 2 2"
_symmetry_group_IT_number 23
_symmetry_cell_setting 'orthorhombic'
loop_
_space_group_symop_operation_xyz
x,y,z
-x,-y,z
x,-y,-z
-x,y,-z
1/2+x,1/2+y,1/2+z
1/2-x,1/2-y,1/2+z
1/2+x,1/2-y,1/2-z
1/2-x,1/2+y,1/2-z
loop_
_atom_site_type_symbol
_atom_site_label
_atom_site_fract_x
_atom_site_fract_y
_atom_site_fract_z
Si Si1 0.202562 0.998266 0.388872
Si Si2 0.671021 0.876150 0.716161
Si Si3 0.967039 0.215845 0.277151
Si Si4 0.606244 0.172535 0.086124
Si Si5 0.730528 0.868374 0.320955
Si Si6 0.151402 0.267972 0.932387
O O1 0.241946 0.060403 0.331681
O O2 0.269408 0.000000 0.500000
O O3 0.272088 0.938826 0.333715
O O4 0.000000 0.000000 0.394402
O O5 0.677899 0.873751 0.834040
O O6 0.471898 0.864207 0.696885
O O7 0.805310 0.823258 0.685196
O O8 0.019706 0.271545 0.349739
O O9 0.126888 0.169129 0.259545
O O10 0.907644 0.244082 0.174304
O O11 0.747136 0.210665 0.028114
O O12 0.500000 0.143089 0.000000
O O13 0.757166 0.830160 0.420566
O O14 0.000000 0.283472 0.000000
#
# Coordination Sequence:
#
# PCOD9331476 Si02
#       6
#     8   8   8   8   8   8
#     4  11  25  44  64  92 129 170 215 266 322 382
#     4  11  23  40  65  88 128 169 213 261 319 379
#     4  10  22  42  58  95 133 167 201 262 322 373
#     4  10  23  37  62  96 130 169 211 262 321 376
#     4  11  23  38  65  88 123 170 203 260 314 373
#     4  10  23  36  62  98 128 167 206 259 324 387
#
# _framework density 20.235734999999998
#
# number of rings (size 3 to 8) (size 9 to 14) (size 15 to 20)
#    0.000    1.500    3.333    0.500    7.000    2.000 
#    0.000    0.000    0.000    2.000    0.000    2.333 
#    0.000    0.000    0.000    0.000    0.000    0.000 
#
# Total GULP energy -133609.768599 kJ/mol
# GULP energy per Si atom -5567.073692 kJ/mol
# Density = 2.018968 g / cm^3
# Si number density = 20.235735 Si / 1000 Ang^3
#
#
#
# Elastic Constant Matrix: (Units=GPa)
#
#
# Indices 1 2 3 4 5 6 
#
# 1 85.0604 27.2158 -4.8787 0.0000 0.0000 0.0000
# 2 27.2158 125.5362 34.0099 0.0001 0.0000 0.0000
# 3 -4.8787 34.0099 46.6913 0.0001 0.0000 0.0000
# 4 0.0000 0.0001 0.0001 12.7107 0.0000 0.0000
# 5 0.0000 0.0000 0.0000 0.0000 33.8537 0.0000
# 6 0.0000 0.0000 0.0000 0.0000 0.0000 22.0309
#
#
#
# Elastic Compliance Matrix: (Units=1/GPa)
#
#
# Indices 1 2 3 4 5 6 
#
# 1 0.013306 -0.004063 0.004350 0.000000 0.000000 0.000000
# 2 -0.004063 0.011165 -0.008557 0.000000 0.000000 0.000000
# 3 0.004350 -0.008557 0.028105 0.000000 0.000000 0.000000
# 4 0.000000 0.000000 0.000000 0.078674 0.000000 0.000000
# 5 0.000000 0.000000 0.000000 0.000000 0.029539 0.000000
# 6 0.000000 0.000000 0.000000 0.000000 0.000000 0.045391
#
#
# Mechanical properties :
#
#
# Convention : Reuss Voigt Hill
#
# Bulk Modulus (GPa) = 27.75084 41.10908 34.42996
# Shear Modulus (GPa) = 21.30093 27.11512 24.20802
#
# Velocity S-wave (km/s) = 3.24796 3.66452 3.46251
# Velocity P-wave (km/s) = 5.27344 6.18580 5.74775
#
# Compressibility (1/GPa) = 0.03603495
#
# Stress axis : x y z
#
# Youngs Moduli (GPa) = 75.15482 89.56588 35.58113
#
# Poissons Ratio (x) = 0.36392 -0.15477
# Poissons Ratio (y) = 0.30536 0.30447
# Poissons Ratio (z) = -0.32692 0.76642
#
# Static dielectric constant tensor:
#      x y z
#    x 1.878110 0.000000 0.000000 
#    y 0.000000 1.722890 0.000000 
#    z 0.000000 0.000000 1.745090 
# 
# From -- ./inp_files/20117.got.cif
#   From: 2010.05.17/outbox.cif.g08.bks.cpg/sg23_11_cif.got.tgz:20117.got - 2010.06.04 12:02:01.
