data_PCOD9331883
_publ_section_title
;
Structure prediction by ZEFSAII (Michael W. Deem and Ramdas Pophale) SiO2 
 PCOD9331883
Probable space group: I 2 2 2
;
_chemical_formula_sum "Si O2"
_cell_formula_units_Z 44
_cell_length_a 8.653986
_cell_length_b 14.460831
_cell_length_c 13.723861
_cell_angle_alpha 90.000000
_cell_angle_beta 90.000000
_cell_angle_gamma 90.000000
_cell_volume 1717.456515
_symmetry_space_group_name_H-M "I 2 2 2"
_symmetry_group_IT_number 23
_symmetry_cell_setting 'orthorhombic'
loop_
_space_group_symop_operation_xyz
x,y,z
-x,-y,z
x,-y,-z
-x,y,-z
1/2+x,1/2+y,1/2+z
1/2-x,1/2-y,1/2+z
1/2+x,1/2-y,1/2-z
1/2-x,1/2+y,1/2-z
loop_
_atom_site_type_symbol
_atom_site_label
_atom_site_fract_x
_atom_site_fract_y
_atom_site_fract_z
Si Si1 0.672508 0.321482 0.126635
Si Si2 0.776773 0.087746 0.193255
Si Si3 0.000000 0.000000 0.344787
Si Si4 0.588253 0.295594 0.347620
Si Si5 0.320974 0.868867 0.003058
Si Si6 0.013962 0.602951 0.848588
O O1 0.555279 0.406313 0.102716
O O2 0.633917 0.286499 0.235253
O O3 0.671203 0.234598 0.054536
O O4 0.839414 0.364271 0.144626
O O5 0.744380 0.060364 0.083450
O O6 0.608274 0.097003 0.246128
O O7 0.861223 0.024520 0.271739
O O8 0.915410 0.162741 0.167276
O O9 0.709098 0.355522 0.410185
O O10 0.596346 0.192932 0.395128
O O11 0.500000 0.892244 0.000000
O O12 0.000000 0.500000 0.889531
#
# Coordination Sequence:
#
# PCOD9331883 Si02
#       6
#     8   8   4   8   8   8
#     4  11  24  45  71 100 144 181 234 285 349 418
#     4  11  23  44  71  97 139 182 236 282 348 413
#     4  10  24  44  72 102 140 190 218 296 358 400
#     4  11  24  44  70 103 140 186 231 285 351 412
#     4  12  26  43  75 104 136 188 241 279 341 427
#     4  12  22  40  73 102 136 178 234 285 350 407
#
# _framework density 25.61928
#
# number of rings (size 3 to 8) (size 9 to 14) (size 15 to 20)
#    0.000    0.727    5.455    1.636    5.091    0.000 
#    0.000   11.364    0.000    0.000    0.000    0.000 
#    0.000    0.000    0.000    0.000    0.000    0.000 
#
# Total GULP energy -122553.258200 kJ/mol
# GULP energy per Si atom -5570.602645 kJ/mol
# Density = 2.556097 g / cm^3
# Si number density = 25.619280 Si / 1000 Ang^3
#
#
#
# Elastic Constant Matrix: (Units=GPa)
#
#
# Indices 1 2 3 4 5 6 
#
# 1 104.8479 35.7952 33.5550 0.0000 0.0000 0.0000
# 2 35.7952 161.4216 25.4909 0.0000 0.0000 0.0000
# 3 33.5550 25.4909 103.7250 0.0000 0.0000 0.0000
# 4 0.0000 0.0000 0.0000 23.0940 0.0000 0.0000
# 5 0.0000 0.0000 0.0000 0.0000 33.7137 0.0000
# 6 0.0000 0.0000 0.0000 0.0000 0.0000 17.8598
#
#
#
# Elastic Compliance Matrix: (Units=1/GPa)
#
#
# Indices 1 2 3 4 5 6 
#
# 1 0.011223 -0.001993 -0.003141 0.000000 0.000000 0.000000
# 2 -0.001993 0.006799 -0.001026 0.000000 0.000000 0.000000
# 3 -0.003141 -0.001026 0.010909 0.000000 0.000000 0.000000
# 4 0.000000 0.000000 0.000000 0.043301 0.000000 0.000000
# 5 0.000000 0.000000 0.000000 0.000000 0.029662 0.000000
# 6 0.000000 0.000000 0.000000 0.000000 0.000000 0.055992
#
#
# Mechanical properties :
#
#
# Convention : Reuss Voigt Hill
#
# Bulk Modulus (GPa) = 60.19954 62.18630 61.19292
# Shear Modulus (GPa) = 28.45069 33.27707 30.86388
#
# Velocity S-wave (km/s) = 3.33606 3.60795 3.47466
# Velocity P-wave (km/s) = 6.19579 6.45618 6.32733
#
# Compressibility (1/GPa) = 0.01661142
#
# Stress axis : x y z
#
# Youngs Moduli (GPa) = 89.10147 147.08265 91.66596
#
# Poissons Ratio (x) = 0.29310 0.28792
# Poissons Ratio (y) = 0.17756 0.09407
# Poissons Ratio (z) = 0.27986 0.15094
#
# Static dielectric constant tensor:
#      x y z
#    x 2.065140 0.000000 0.000000 
#    y 0.000000 2.227320 0.000000 
#    z 0.000000 0.000000 2.051160 
# 
# From -- ./inp_files/21957.got.cif
#   From: 2010.05.17/outbox.cif.g08.bks.cpg/sg23_11_cif.got.tgz:21957.got - 2010.06.04 12:02:01.
