data_PCOD9331204
_publ_section_title
;
Structure prediction by ZEFSAII (Michael W. Deem and Ramdas Pophale) SiO2 
 PCOD9331204
Probable space group: I 2 2 2
;
_chemical_formula_sum "Si O2"
_cell_formula_units_Z 56
_cell_length_a 5.582742
_cell_length_b 18.916174
_cell_length_c 23.141631
_cell_angle_alpha 90.000000
_cell_angle_beta 90.000000
_cell_angle_gamma 90.000000
_cell_volume 2443.851556
_symmetry_space_group_name_H-M "I 2 2 2"
_symmetry_group_IT_number 23
_symmetry_cell_setting 'orthorhombic'
loop_
_space_group_symop_operation_xyz
x,y,z
-x,-y,z
x,-y,-z
-x,y,-z
1/2+x,1/2+y,1/2+z
1/2-x,1/2-y,1/2+z
1/2+x,1/2-y,1/2-z
1/2-x,1/2+y,1/2-z
loop_
_atom_site_type_symbol
_atom_site_label
_atom_site_fract_x
_atom_site_fract_y
_atom_site_fract_z
Si Si1 0.539955 0.179994 0.931611
Si Si2 0.066542 0.827195 0.732144
Si Si3 0.247830 0.043707 0.329452
Si Si4 0.750653 0.970977 0.067181
Si Si5 0.768447 0.313282 0.870833
Si Si6 0.326218 0.288132 0.340712
Si Si7 0.478851 0.917248 0.562557
O O1 0.722881 0.113889 0.928513
O O2 0.618062 0.254869 0.904915
O O3 0.311135 0.167127 0.889333
O O4 0.500000 0.187785 0.000000
O O5 0.235799 0.892398 0.716096
O O6 0.167059 0.752635 0.707771
O O7 0.831850 0.832547 0.691717
O O8 0.013133 0.828405 0.799785
O O9 0.261154 0.083763 0.391966
O O10 0.500000 0.000000 0.323246
O O11 0.000000 0.000000 0.324256
O O12 0.500000 0.000000 0.092315
O O13 0.000000 0.000000 0.092019
O O14 0.749791 0.000000 0.000000
O O15 0.797305 0.385657 0.904025
O O16 0.026461 0.275304 0.869835
O O17 0.500000 0.881883 0.500000
O O18 0.500000 0.000000 0.554292
#
# Coordination Sequence:
#
# PCOD9331204 Si02
#       7
#     8   8   8   8   8   8   8
#     4  11  26  43  69 117 149 195 249 320 388 466
#     4  11  22  44  71 101 141 193 261 311 383 455
#     4  11  24  44  75 108 144 203 257 315 387 452
#     4  10  21  42  74 103 140 203 247 290 371 468
#     4  11  24  41  70 104 142 197 248 317 375 454
#     4  11  24  41  72 105 143 191 252 320 387 456
#     4  10  22  42  66 104 147 197 245 303 372 460
#
# _framework density 22.914649000000001
#
# number of rings (size 3 to 8) (size 9 to 14) (size 15 to 20)
#    0.000    1.286    4.286    1.714    4.000    0.000 
#    0.000   11.429    3.143    0.857    0.000    0.000 
#    0.000    0.000    0.000    0.000    0.000    0.000 
#
# Total GULP energy -156014.905123 kJ/mol
# GULP energy per Si atom -5571.960897 kJ/mol
# Density = 2.286249 g / cm^3
# Si number density = 22.914649 Si / 1000 Ang^3
#
#
#
# Elastic Constant Matrix: (Units=GPa)
#
#
# Indices 1 2 3 4 5 6 
#
# 1 114.5093 41.1192 29.6227 0.0000 0.0000 0.0000
# 2 41.1192 101.5809 33.9046 0.0000 0.0000 0.0000
# 3 29.6227 33.9046 112.2196 0.0000 0.0000 0.0000
# 4 0.0000 0.0000 0.0000 21.5016 0.0000 0.0000
# 5 0.0000 0.0000 0.0000 0.0000 25.3638 0.0000
# 6 0.0000 0.0000 0.0000 0.0000 0.0000 44.8194
#
#
#
# Elastic Compliance Matrix: (Units=1/GPa)
#
#
# Indices 1 2 3 4 5 6 
#
# 1 0.010487 -0.003693 -0.001652 0.000000 0.000000 0.000000
# 2 -0.003693 0.012249 -0.002726 0.000000 0.000000 0.000000
# 3 -0.001652 -0.002726 0.010171 0.000000 0.000000 0.000000
# 4 0.000000 0.000000 0.000000 0.046508 0.000000 0.000000
# 5 0.000000 0.000000 0.000000 0.000000 0.039426 0.000000
# 6 0.000000 0.000000 0.000000 0.000000 0.000000 0.022312
#
#
# Mechanical properties :
#
#
# Convention : Reuss Voigt Hill
#
# Bulk Modulus (GPa) = 59.65331 59.73364 59.69347
# Shear Modulus (GPa) = 30.69672 33.24784 31.97228
#
# Velocity S-wave (km/s) = 3.66404 3.81326 3.73939
# Velocity P-wave (km/s) = 6.63247 6.74629 6.68962
#
# Compressibility (1/GPa) = 0.01676353
#
# Stress axis : x y z
#
# Youngs Moduli (GPa) = 95.35961 81.63758 98.32060
#
# Poissons Ratio (x) = 0.30152 0.16245
# Poissons Ratio (y) = 0.35220 0.26801
# Poissons Ratio (z) = 0.15756 0.22253
#
# Static dielectric constant tensor:
#      x y z
#    x 2.025700 0.000000 0.000000 
#    y 0.000000 1.924740 0.000000 
#    z 0.000000 0.000000 1.896930 
# 
# From -- ./inp_files/27706.got.cif
#   From: 2010.05.17/outbox.cif.g08.bks.cpg/sg23_14_cif.got.tgz:27706.got - 2010.06.04 12:02:01.
