data_PCOD9331351
_publ_section_title
;
Structure prediction by ZEFSAII (Michael W. Deem and Ramdas Pophale) SiO2 
 PCOD9331351
Probable space group: I 2 2 2
;
_chemical_formula_sum "Si O2"
_cell_formula_units_Z 36
_cell_length_a 23.105435
_cell_length_b 12.882614
_cell_length_c 6.073410
_cell_angle_alpha 90.000000
_cell_angle_beta 90.000000
_cell_angle_gamma 90.000000
_cell_volume 1807.801506
_symmetry_space_group_name_H-M "I 2 2 2"
_symmetry_group_IT_number 23
_symmetry_cell_setting 'orthorhombic'
loop_
_space_group_symop_operation_xyz
x,y,z
-x,-y,z
x,-y,-z
-x,y,-z
1/2+x,1/2+y,1/2+z
1/2-x,1/2-y,1/2+z
1/2+x,1/2-y,1/2-z
1/2-x,1/2+y,1/2-z
loop_
_atom_site_type_symbol
_atom_site_label
_atom_site_fract_x
_atom_site_fract_y
_atom_site_fract_z
Si Si1 0.806353 0.120370 0.995746
Si Si2 0.000000 0.298845 0.500000
Si Si3 0.184606 0.707065 0.631395
Si Si4 0.103748 0.769297 0.244475
Si Si5 0.082082 0.393891 0.133786
O O1 0.750868 0.176183 0.103629
O O2 0.864565 0.133739 0.138201
O O3 0.817524 0.184724 0.769360
O O4 0.791858 0.000000 0.000000
O O5 0.048482 0.224619 0.602085
O O6 0.033776 0.369862 0.319802
O O7 0.153373 0.717655 0.396151
O O8 0.145569 0.620729 0.756308
O O9 0.082415 0.696229 0.047559
O O10 0.074601 0.500000 0.000000
#
# Coordination Sequence:
#
# PCOD9331351 Si02
#       5
#     8   4   8   8   8
#     4  11  23  39  66  93 134 172 217 273 341 400
#     4  10  22  41  66  87 134 180 220 275 333 388
#     4  10  22  39  60  95 132 171 214 274 332 402
#     4  10  22  41  60  92 129 167 222 271 329 393
#     4  10  23  38  64  96 132 173 220 273 336 405
#
# _framework density 19.913689999999999
#
# number of rings (size 3 to 8) (size 9 to 14) (size 15 to 20)
#    0.000    1.778    2.222    0.667    3.111    6.222 
#    0.000    0.000    0.000   38.667    0.000    0.000 
#    0.000    0.000    0.000    0.000    0.000    0.000 
#
# Total GULP energy -100362.656945 kJ/mol
# GULP energy per Si atom -5575.703164 kJ/mol
# Density = 1.986837 g / cm^3
# Si number density = 19.913690 Si / 1000 Ang^3
#
#
#
# Elastic Constant Matrix: (Units=GPa)
#
#
# Indices 1 2 3 4 5 6 
#
# 1 112.0253 14.6188 46.4494 0.0000 0.0000 0.0000
# 2 14.6188 61.1241 31.0046 0.0000 0.0000 0.0000
# 3 46.4494 31.0046 96.7574 0.0000 0.0000 0.0000
# 4 0.0000 0.0000 0.0000 14.0262 0.0000 0.0000
# 5 0.0000 0.0000 0.0000 0.0000 51.9244 0.0000
# 6 0.0000 0.0000 0.0000 0.0000 0.0000 12.9533
#
#
#
# Elastic Compliance Matrix: (Units=1/GPa)
#
#
# Indices 1 2 3 4 5 6 
#
# 1 0.011145 0.000058 -0.005369 0.000000 0.000000 0.000000
# 2 0.000058 0.019536 -0.006288 0.000000 0.000000 0.000000
# 3 -0.005369 -0.006288 0.014927 0.000000 0.000000 0.000000
# 4 0.000000 0.000000 0.000000 0.071295 0.000000 0.000000
# 5 0.000000 0.000000 0.000000 0.000000 0.019259 0.000000
# 6 0.000000 0.000000 0.000000 0.000000 0.000000 0.077201
#
#
# Mechanical properties :
#
#
# Convention : Reuss Voigt Hill
#
# Bulk Modulus (GPa) = 44.62172 50.45025 47.53599
# Shear Modulus (GPa) = 20.48927 27.63638 24.06282
#
# Velocity S-wave (km/s) = 3.21113 3.72937 3.47991
# Velocity P-wave (km/s) = 6.01703 6.62825 6.33003
#
# Compressibility (1/GPa) = 0.02241061
#
# Stress axis : x y z
#
# Youngs Moduli (GPa) = 89.72544 51.18829 66.99139
#
# Poissons Ratio (x) = -0.00296 0.35967
# Poissons Ratio (y) = -0.00518 0.42122
# Poissons Ratio (z) = 0.48172 0.32186
#
# Static dielectric constant tensor:
#      x y z
#    x 1.718680 0.000000 0.000000 
#    y 0.000000 1.654110 0.000000 
#    z 0.000000 0.000000 1.776310 
# 
# From -- ./inp_files/1586.got.cif
#   From: 2010.05.17/outbox.cif.g08.bks.cpg/sg23_1_cif.got.tgz:1586.got - 2010.06.04 12:02:01.
