data_PCOD9331178
_publ_section_title
;
Structure prediction by ZEFSAII (Michael W. Deem and Ramdas Pophale) SiO2 
 PCOD9331178
Probable space group: I 2 2 2
;
_chemical_formula_sum "Si O2"
_cell_formula_units_Z 32
_cell_length_a 9.400390
_cell_length_b 8.738466
_cell_length_c 19.009335
_cell_angle_alpha 90.000000
_cell_angle_beta 90.000000
_cell_angle_gamma 90.000000
_cell_volume 1561.521603
_symmetry_space_group_name_H-M "I 2 2 2"
_symmetry_group_IT_number 23
_symmetry_cell_setting 'orthorhombic'
loop_
_space_group_symop_operation_xyz
x,y,z
-x,-y,z
x,-y,-z
-x,y,-z
1/2+x,1/2+y,1/2+z
1/2-x,1/2-y,1/2+z
1/2+x,1/2-y,1/2-z
1/2-x,1/2+y,1/2-z
loop_
_atom_site_type_symbol
_atom_site_label
_atom_site_fract_x
_atom_site_fract_y
_atom_site_fract_z
Si Si1 0.895796 0.134165 0.202661
Si Si2 0.072914 0.653210 0.708845
Si Si3 0.919900 0.164562 0.564575
Si Si4 0.148597 0.840027 0.037305
O O1 0.735781 0.128507 0.231952
O O2 0.879609 0.122870 0.118991
O O3 0.975644 0.285261 0.228267
O O4 0.000000 0.000000 0.227367
O O5 0.070613 0.765568 0.642071
O O6 0.000000 0.500000 0.682392
O O7 0.757407 0.196954 0.540168
O O8 0.000000 0.247665 0.500000
O O9 0.000000 0.000000 0.569025
O O10 0.000000 0.801607 0.000000
O O11 0.199844 0.000000 0.000000
#
# Coordination Sequence:
#
# PCOD9331178 Si02
#       4
#     8   8   8   8
#     4  11  22  42  67  99 138 176 232 294 343 418
#     4  11  25  40  66  99 134 191 230 283 351 420
#     4  10  24  42  65 100 142 180 227 291 350 416
#     4  10  21  41  72 105 132 185 239 288 350 416
#
# _framework density 20.492833000000001
#
# number of rings (size 3 to 8) (size 9 to 14) (size 15 to 20)
#    0.000    1.500    2.500    2.250    7.000    4.000 
#    0.000    7.500    0.000    0.000    0.000    0.000 
#    0.000    0.000    0.000    0.000    0.000    0.000 
#
# Total GULP energy -89117.072612 kJ/mol
# GULP energy per Si atom -5569.817038 kJ/mol
# Density = 2.044619 g / cm^3
# Si number density = 20.492833 Si / 1000 Ang^3
#
#
#
# Elastic Constant Matrix: (Units=GPa)
#
#
# Indices 1 2 3 4 5 6 
#
# 1 172.7281 70.7586 17.0787 0.0000 0.0000 0.0000
# 2 70.7586 97.1421 21.7299 0.0000 0.0000 0.0000
# 3 17.0787 21.7299 71.3970 0.0000 0.0000 0.0000
# 4 0.0000 0.0000 0.0000 -528.0714 0.0000 0.0000
# 5 0.0000 0.0000 0.0000 0.0000 -19.8262 0.0000
# 6 0.0000 0.0000 0.0000 0.0000 0.0000 40.9465
#
#
#
# Elastic Compliance Matrix: (Units=1/GPa)
#
#
# Indices 1 2 3 4 5 6 
#
# 1 0.008253 -0.005977 -0.000155 0.000000 0.000000 0.000000
# 2 -0.005977 0.015375 -0.003250 0.000000 0.000000 0.000000
# 3 -0.000155 -0.003250 0.015032 0.000000 0.000000 0.000000
# 4 0.000000 0.000000 0.000000 -0.001894 0.000000 0.000000
# 5 0.000000 0.000000 0.000000 0.000000 -0.050438 0.000000
# 6 0.000000 0.000000 0.000000 0.000000 0.000000 0.024422
#
#
# Mechanical properties :
#
#
# Convention : Reuss Voigt Hill
#
# Bulk Modulus (GPa) = 50.25913 62.26685 56.26299
# Shear Modulus (GPa) = 138.32685 -85.94354 26.19166
#
# Velocity S-wave (km/s) = 8.22476 -6.48301 3.57891
# Velocity P-wave (km/s) = 10.71326 5.05851 6.67778
#
# Compressibility (1/GPa) = 0.01989688
#
# Stress axis : x y z
#
# Youngs Moduli (GPa) = 121.16379 65.04153 66.52334
#
# Poissons Ratio (x) = 0.38875 0.01032
# Poissons Ratio (y) = 0.72420 0.21617
# Poissons Ratio (z) = 0.01880 0.21136
#
# Static dielectric constant tensor:
#      x y z
#    x 1.851690 0.000000 0.000000 
#    y 0.000000 1.874740 0.000000 
#    z 0.000000 0.000000 1.709320 
# 
# From -- ./inp_files/6581.got.cif
#   From: 2010.05.17/outbox.cif.g08.bks.cpg/sg23_4_cif.got.tgz:6581.got - 2010.06.04 12:02:01.
