data_PCOD9331764
_publ_section_title
;
Structure prediction by ZEFSAII (Michael W. Deem and Ramdas Pophale) SiO2 
 PCOD9331764
Probable space group: I 2 2 2
;
_chemical_formula_sum "Si O2"
_cell_formula_units_Z 34
_cell_length_a 8.164396
_cell_length_b 13.113414
_cell_length_c 13.967061
_cell_angle_alpha 90.000000
_cell_angle_beta 90.000000
_cell_angle_gamma 90.000000
_cell_volume 1495.356916
_symmetry_space_group_name_H-M "I 2 2 2"
_symmetry_group_IT_number 23
_symmetry_cell_setting 'orthorhombic'
loop_
_space_group_symop_operation_xyz
x,y,z
-x,-y,z
x,-y,-z
-x,y,-z
1/2+x,1/2+y,1/2+z
1/2-x,1/2-y,1/2+z
1/2+x,1/2-y,1/2-z
1/2-x,1/2+y,1/2-z
loop_
_atom_site_type_symbol
_atom_site_label
_atom_site_fract_x
_atom_site_fract_y
_atom_site_fract_z
Si Si1 0.256486 0.500000 0.000000
Si Si2 0.859032 0.812075 0.104179
Si Si3 0.841990 0.221309 0.555353
Si Si4 0.000000 0.500000 0.837861
Si Si5 0.465550 0.210081 0.230923
Si Si6 0.000000 0.000000 0.000000
O O1 0.344769 0.401320 0.955872
O O2 0.144150 0.532937 0.910381
O O3 0.698405 0.784479 0.167479
O O4 0.005831 0.779052 0.174846
O O5 0.891183 0.927146 0.068388
O O6 0.817393 0.755863 0.003546
O O7 0.882673 0.260107 0.661118
O O8 0.000000 0.263878 0.500000
O O9 0.964882 0.596157 0.772108
#
# Coordination Sequence:
#
# PCOD9331764 Si02
#       6
#     4   8   8   4   8   2
#     4  11  21  42  70 104 141 199 246 314 376 440
#     4  11  27  49  75 105 151 201 252 315 380 455
#     4  10  23  45  72 106 148 192 248 312 370 447
#     4  11  24  36  73 104 140 196 251 306 375 446
#     4  11  25  47  75 109 151 199 258 310 375 460
#     4  12  32  48  78 110 162 200 246 324 400 450
#
# _framework density 22.737045999999999
#
# number of rings (size 3 to 8) (size 9 to 14) (size 15 to 20)
#    0.000    1.176    2.353    1.765    9.882    0.000 
#    8.471    0.000    0.000    0.000    0.000    0.000 
#    0.000    0.000    0.000    0.000    0.000    0.000 
#
# Total GULP energy -94786.108632 kJ/mol
# GULP energy per Si atom -5575.653449 kJ/mol
# Density = 2.268530 g / cm^3
# Si number density = 22.737046 Si / 1000 Ang^3
#
#
#
# Elastic Constant Matrix: (Units=GPa)
#
#
# Indices 1 2 3 4 5 6 
#
# 1 103.0268 9.2141 58.5541 0.0000 0.0000 0.0000
# 2 9.2141 102.4187 46.7804 0.0000 0.0000 0.0000
# 3 58.5541 46.7804 196.3439 0.0000 0.0000 0.0000
# 4 0.0000 0.0000 0.0000 44.1167 0.0000 0.0000
# 5 0.0000 0.0000 0.0000 0.0000 38.1767 0.0000
# 6 0.0000 0.0000 0.0000 0.0000 0.0000 34.8113
#
#
#
# Elastic Compliance Matrix: (Units=1/GPa)
#
#
# Indices 1 2 3 4 5 6 
#
# 1 0.011721 0.000608 -0.003640 0.000000 0.000000 0.000000
# 2 0.000608 0.010988 -0.002799 0.000000 0.000000 0.000000
# 3 -0.003640 -0.002799 0.006846 0.000000 0.000000 0.000000
# 4 0.000000 0.000000 0.000000 0.022667 0.000000 0.000000
# 5 0.000000 0.000000 0.000000 0.000000 0.026194 0.000000
# 6 0.000000 0.000000 0.000000 0.000000 0.000000 0.028726
#
#
# Mechanical properties :
#
#
# Convention : Reuss Voigt Hill
#
# Bulk Modulus (GPa) = 55.89259 70.09852 62.99555
# Shear Modulus (GPa) = 40.07435 42.57032 41.32233
#
# Velocity S-wave (km/s) = 4.20278 4.33169 4.26772
# Velocity P-wave (km/s) = 6.94167 7.47764 7.21463
#
# Compressibility (1/GPa) = 0.01789146
#
# Stress axis : x y z
#
# Youngs Moduli (GPa) = 85.31888 91.01063 146.07748
#
# Poissons Ratio (x) = -0.05536 0.53177
# Poissons Ratio (y) = -0.05190 0.40892
# Poissons Ratio (z) = 0.31059 0.25477
#
# Static dielectric constant tensor:
#      x y z
#    x 2.032350 0.000000 0.000000 
#    y 0.000000 1.805440 0.000000 
#    z 0.000000 0.000000 1.851730 
# 
# From -- ./inp_files/16385.got.cif
#   From: 2010.05.17/outbox.cif.g08.bks.cpg/sg23_9_cif.got.tgz:16385.got - 2010.06.04 12:02:01.
