data_PCOD9331641
_publ_section_title
;
Structure prediction by ZEFSAII (Michael W. Deem and Ramdas Pophale) SiO2 
 PCOD9331641
Probable space group: I 2 2 2
;
_chemical_formula_sum "Si O2"
_cell_formula_units_Z 48
_cell_length_a 8.769120
_cell_length_b 8.676696
_cell_length_c 30.475521
_cell_angle_alpha 90.000000
_cell_angle_beta 90.000000
_cell_angle_gamma 90.000000
_cell_volume 2318.790614
_symmetry_space_group_name_H-M "I 2 2 2"
_symmetry_group_IT_number 23
_symmetry_cell_setting 'orthorhombic'
loop_
_space_group_symop_operation_xyz
x,y,z
-x,-y,z
x,-y,-z
-x,y,-z
1/2+x,1/2+y,1/2+z
1/2-x,1/2-y,1/2+z
1/2+x,1/2-y,1/2-z
1/2-x,1/2+y,1/2-z
loop_
_atom_site_type_symbol
_atom_site_label
_atom_site_fract_x
_atom_site_fract_y
_atom_site_fract_z
Si Si1 0.695230 0.688823 0.093656
Si Si2 0.525566 0.819849 0.262324
Si Si3 0.177080 0.812317 0.502099
Si Si4 0.191904 0.686319 0.691495
Si Si5 0.356067 0.608707 0.332547
Si Si6 0.324960 0.327704 0.902295
O O1 0.776285 0.797075 0.128652
O O2 0.509629 0.692234 0.095398
O O3 0.724098 0.506646 0.101057
O O4 0.746809 0.735626 0.044318
O O5 0.692948 0.768375 0.275346
O O6 0.472099 0.782403 0.212797
O O7 0.422978 0.725398 0.296860
O O8 0.500000 0.000000 0.269412
O O9 0.236031 0.768642 0.550426
O O10 0.000000 0.763243 0.500000
O O11 0.176743 0.000000 0.500000
O O12 0.235160 0.507211 0.689558
O O13 0.218823 0.745834 0.642504
O O14 0.500000 0.500000 0.346421
#
# Coordination Sequence:
#
# PCOD9331641 Si02
#       6
#     8   8   8   8   8   8
#     4   9  17  33  59  88 120 152 190 238 286 355
#     4  11  24  42  60  80 112 157 199 242 288 345
#     4   7  12  27  52  86 118 145 183 232 280 342
#     4  11  24  39  59  87 116 153 190 246 292 350
#     4  10  23  40  57  83 118 155 195 245 296 347
#     4   9  18  32  59  91 117 150 192 238 297 342
#
# _framework density 20.700445999999999
#
# number of rings (size 3 to 8) (size 9 to 14) (size 15 to 20)
#    0.000    2.500    0.000    4.000    4.667    0.000 
#    6.000    0.833    0.000   10.000    0.000   15.167 
#    0.000    0.000    0.000    0.000    0.000    0.000 
#
# Total GULP energy -133825.733939 kJ/mol
# GULP energy per Si atom -5576.072247 kJ/mol
# Density = 2.065333 g / cm^3
# Si number density = 20.700446 Si / 1000 Ang^3
#
#
#
# Elastic Constant Matrix: (Units=GPa)
#
#
# Indices 1 2 3 4 5 6 
#
# 1 41.8834 23.2362 47.4697 0.0000 0.0000 0.0000
# 2 23.2362 73.9641 60.9595 0.0000 0.0000 0.0000
# 3 47.4697 60.9595 128.1578 0.0000 0.0000 0.0000
# 4 0.0000 0.0000 0.0000 9.3167 0.0000 0.0000
# 5 0.0000 0.0000 0.0000 0.0000 26.0443 0.0000
# 6 0.0000 0.0000 0.0000 0.0000 0.0000 29.0344
#
#
#
# Elastic Compliance Matrix: (Units=1/GPa)
#
#
# Indices 1 2 3 4 5 6 
#
# 1 0.041168 -0.000601 -0.014963 0.000000 0.000000 0.000000
# 2 -0.000601 0.022247 -0.010359 0.000000 0.000000 0.000000
# 3 -0.014963 -0.010359 0.018272 0.000000 0.000000 0.000000
# 4 0.000000 0.000000 0.000000 0.107334 0.000000 0.000000
# 5 0.000000 0.000000 0.000000 0.000000 0.038396 0.000000
# 6 0.000000 0.000000 0.000000 0.000000 0.000000 0.034442
#
#
# Mechanical properties :
#
#
# Convention : Reuss Voigt Hill
#
# Bulk Modulus (GPa) = 33.51106 56.37069 44.94088
# Shear Modulus (GPa) = 15.44872 20.36841 17.90857
#
# Velocity S-wave (km/s) = 2.73481 3.14022 2.94450
# Velocity P-wave (km/s) = 5.11820 6.35914 5.77212
#
# Compressibility (1/GPa) = 0.02984090
#
# Stress axis : x y z
#
# Youngs Moduli (GPa) = 24.29097 44.95038 54.72720
#
# Poissons Ratio (x) = 0.02703 0.81886
# Poissons Ratio (y) = 0.01460 0.56693
# Poissons Ratio (z) = 0.36345 0.46565
#
# Static dielectric constant tensor:
#      x y z
#    x 1.781880 0.000000 0.000000 
#    y 0.000000 1.721690 0.000000 
#    z 0.000000 0.000000 1.767850 
# 
# From -- ./inp_files/30239.got.cif
#   From: 2010.05.17/outbox.cif.g08.bks.cpg/sg23_16_cif.got.tgz:30239.got - 2010.06.04 12:02:01.
