data_PCOD9331088
_publ_section_title
;
Structure prediction by ZEFSAII (Michael W. Deem and Ramdas Pophale) SiO2 
 PCOD9331088
Probable space group: I 2 2 2
;
_chemical_formula_sum "Si O2"
_cell_formula_units_Z 52
_cell_length_a 7.714288
_cell_length_b 20.925589
_cell_length_c 15.133829
_cell_angle_alpha 90.000000
_cell_angle_beta 90.000000
_cell_angle_gamma 90.000000
_cell_volume 2442.993785
_symmetry_space_group_name_H-M "I 2 2 2"
_symmetry_group_IT_number 23
_symmetry_cell_setting 'orthorhombic'
loop_
_space_group_symop_operation_xyz
x,y,z
-x,-y,z
x,-y,-z
-x,y,-z
1/2+x,1/2+y,1/2+z
1/2-x,1/2-y,1/2+z
1/2+x,1/2-y,1/2-z
1/2-x,1/2+y,1/2-z
loop_
_atom_site_type_symbol
_atom_site_label
_atom_site_fract_x
_atom_site_fract_y
_atom_site_fract_z
Si Si1 0.236304 0.500000 0.000000
Si Si2 0.500000 0.608905 0.000000
Si Si3 0.652487 0.044603 0.693763
Si Si4 0.035118 0.735630 0.097651
Si Si5 0.500000 0.500000 0.711407
Si Si6 0.582730 0.364343 0.671110
Si Si7 0.575834 0.703516 0.840496
Si Si8 0.458847 0.832238 0.239314
O O1 0.152001 0.465741 0.913318
O O2 0.352203 0.559545 0.967599
O O3 0.466706 0.656686 0.079789
O O4 0.596048 0.113644 0.731832
O O5 0.500000 0.000000 0.728686
O O6 0.836283 0.019388 0.727912
O O7 0.032295 0.812195 0.098523
O O8 0.223859 0.720731 0.139466
O O9 0.908170 0.702977 0.168420
O O10 0.000000 0.710411 0.000000
O O11 0.538382 0.437286 0.654832
O O12 0.475255 0.337442 0.755062
O O13 0.785599 0.361063 0.697024
O O14 0.486024 0.773071 0.824367
#
# Coordination Sequence:
#
# PCOD9331088 Si02
#       8
#     4   4   8   8   4   8   8   8
#     4  11  23  36  60  93 139 172 209 273 340 401
#     4  11  22  38  60  98 133 174 222 270 337 408
#     4  12  24  40  62  93 128 174 221 267 330 407
#     4  10  22  39  61  90 125 165 216 277 331 390
#     4  12  22  41  65  86 122 176 216 270 328 397
#     4  10  21  40  63  89 122 169 222 263 331 404
#     4  10  22  39  62  91 131 174 220 270 330 398
#     4  10  22  41  62  91 131 173 222 270 330 410
#
# _framework density 21.285360000000001
#
# number of rings (size 3 to 8) (size 9 to 14) (size 15 to 20)
#    0.000    1.385    1.538    4.846    2.154    2.462 
#    0.000    0.385    0.000    0.000    0.000    0.538 
#    0.000    0.000    0.000    0.000    0.000    0.000 
#
# Total GULP energy -144935.998778 kJ/mol
# GULP energy per Si atom -5574.461491 kJ/mol
# Density = 2.123691 g / cm^3
# Si number density = 21.285360 Si / 1000 Ang^3
#
#
#
# Elastic Constant Matrix: (Units=GPa)
#
#
# Indices 1 2 3 4 5 6 
#
# 1 77.2911 35.6640 5.6229 0.0000 0.0000 0.0000
# 2 35.6640 179.1784 14.5833 0.0000 0.0000 0.0000
# 3 5.6229 14.5833 50.9682 0.0000 0.0000 0.0000
# 4 0.0000 0.0000 0.0000 26.6754 0.0000 0.0000
# 5 0.0000 0.0000 0.0000 0.0000 9.7555 0.0000
# 6 0.0000 0.0000 0.0000 0.0000 0.0000 41.1418
#
#
#
# Elastic Compliance Matrix: (Units=1/GPa)
#
#
# Indices 1 2 3 4 5 6 
#
# 1 0.014277 -0.002778 -0.000780 0.000000 0.000000 0.000000
# 2 -0.002778 0.006255 -0.001483 0.000000 0.000000 0.000000
# 3 -0.000780 -0.001483 0.020130 0.000000 0.000000 0.000000
# 4 0.000000 0.000000 0.000000 0.037488 0.000000 0.000000
# 5 0.000000 0.000000 0.000000 0.000000 0.102506 0.000000
# 6 0.000000 0.000000 0.000000 0.000000 0.000000 0.024306
#
#
# Mechanical properties :
#
#
# Convention : Reuss Voigt Hill
#
# Bulk Modulus (GPa) = 32.70211 46.57537 39.63874
# Shear Modulus (GPa) = 22.19872 32.28570 27.24221
#
# Velocity S-wave (km/s) = 3.23292 3.89884 3.58139
# Velocity P-wave (km/s) = 5.41596 6.49591 5.98036
#
# Compressibility (1/GPa) = 0.03057907
#
# Stress axis : x y z
#
# Youngs Moduli (GPa) = 70.04380 159.87934 49.67587
#
# Poissons Ratio (x) = 0.44417 0.03875
# Poissons Ratio (y) = 0.19459 0.07368
# Poissons Ratio (z) = 0.05464 0.23712
#
# Static dielectric constant tensor:
#      x y z
#    x 1.873590 0.000000 0.000000 
#    y 0.000000 1.817420 0.000000 
#    z 0.000000 0.000000 1.691850 
# 
# From -- ./inp_files/20170.got.cif
#   From: 2010.05.17/outbox.cif.g08.bks.cpg/sg23_11_cif.got.tgz:20170.got - 2010.06.04 12:02:01.
