data_PCOD9331297
_publ_section_title
;
Structure prediction by ZEFSAII (Michael W. Deem and Ramdas Pophale) SiO2 
 PCOD9331297
Probable space group: I 2 2 2
;
_chemical_formula_sum "Si O2"
_cell_formula_units_Z 26
_cell_length_a 8.777285
_cell_length_b 9.122213
_cell_length_c 16.890231
_cell_angle_alpha 90.000000
_cell_angle_beta 90.000000
_cell_angle_gamma 90.000000
_cell_volume 1352.371463
_symmetry_space_group_name_H-M "I 2 2 2"
_symmetry_group_IT_number 23
_symmetry_cell_setting 'orthorhombic'
loop_
_space_group_symop_operation_xyz
x,y,z
-x,-y,z
x,-y,-z
-x,y,-z
1/2+x,1/2+y,1/2+z
1/2-x,1/2-y,1/2+z
1/2+x,1/2-y,1/2-z
1/2-x,1/2+y,1/2-z
loop_
_atom_site_type_symbol
_atom_site_label
_atom_site_fract_x
_atom_site_fract_y
_atom_site_fract_z
Si Si1 0.365863 0.100177 0.266900
Si Si2 0.211297 0.587466 0.923572
Si Si3 0.000000 0.000000 0.500000
Si Si4 0.570536 0.653532 0.659135
O O1 0.444286 0.252463 0.292807
O O2 0.218750 0.125600 0.213646
O O3 0.500000 0.000000 0.229110
O O4 0.316969 0.009930 0.345569
O O5 0.390898 0.596624 0.944023
O O6 0.129259 0.740397 0.910111
O O7 0.155699 0.500000 0.000000
O O8 0.500000 0.500000 0.633966
#
# Coordination Sequence:
#
# PCOD9331297 Si02
#       4
#     8   8   2   8
#     4  10  22  37  61  94 127 166 202 255 315 377
#     4   9  21  40  64  85 119 169 211 245 318 377
#     4   8  20  40  70  86 112 180 202 260 300 416
#     4  11  22  37  61  96 129 161 208 265 308 367
#
# _framework density 19.225487000000001
#
# number of rings (size 3 to 8) (size 9 to 14) (size 15 to 20)
#    0.923    1.231    0.000    3.692    6.462    5.538 
#    0.000    3.077    0.000    1.846    0.000    0.000 
#    0.000    0.000    0.000    0.000    0.000    0.000 
#
# Total GULP energy -72484.923258 kJ/mol
# GULP energy per Si atom -5575.763328 kJ/mol
# Density = 1.918173 g / cm^3
# Si number density = 19.225487 Si / 1000 Ang^3
#
#
#
# Elastic Constant Matrix: (Units=GPa)
#
#
# Indices 1 2 3 4 5 6 
#
# 1 138.8859 65.8802 44.4240 0.0000 0.0000 0.0000
# 2 65.8802 170.8169 51.4813 0.0000 0.0000 0.0000
# 3 44.4240 51.4813 70.3578 0.0000 0.0000 0.0000
# 4 0.0000 0.0000 0.0000 18.0711 0.0000 0.0000
# 5 0.0000 0.0000 0.0000 0.0000 43.8192 0.0000
# 6 0.0000 0.0000 0.0000 0.0000 0.0000 27.1521
#
#
#
# Elastic Compliance Matrix: (Units=1/GPa)
#
#
# Indices 1 2 3 4 5 6 
#
# 1 0.009759 -0.002446 -0.004372 0.000000 0.000000 0.000000
# 2 -0.002446 0.008124 -0.004400 0.000000 0.000000 0.000000
# 3 -0.004372 -0.004400 0.020193 0.000000 0.000000 0.000000
# 4 0.000000 0.000000 0.000000 0.055337 0.000000 0.000000
# 5 0.000000 0.000000 0.000000 0.000000 0.022821 0.000000
# 6 0.000000 0.000000 0.000000 0.000000 0.000000 0.036830
#
#
# Mechanical properties :
#
#
# Convention : Reuss Voigt Hill
#
# Bulk Modulus (GPa) = 63.93906 78.18128 71.06017
# Shear Modulus (GPa) = 27.66845 32.36016 30.01431
#
# Velocity S-wave (km/s) = 3.79773 4.10712 3.95545
# Velocity P-wave (km/s) = 7.24983 7.95267 7.60937
#
# Compressibility (1/GPa) = 0.01563989
#
# Stress axis : x y z
#
# Youngs Moduli (GPa) = 102.47077 123.09791 49.52282
#
# Poissons Ratio (x) = 0.30112 0.21651
# Poissons Ratio (y) = 0.25066 0.21788
# Poissons Ratio (z) = 0.44799 0.54158
#
# Static dielectric constant tensor:
#      x y z
#    x 1.743470 0.000000 0.000000 
#    y 0.000000 1.296050 0.000000 
#    z 0.000000 0.000000 1.660370 
# 
# From -- ./inp_files/6359.got.cif
#   From: 2010.05.17/outbox.cif.g08.bks.cpg/sg23_4_cif.got.tgz:6359.got - 2010.06.04 12:02:01.
