data_PCOD9331497
_publ_section_title
;
Structure prediction by ZEFSAII (Michael W. Deem and Ramdas Pophale) SiO2 
 PCOD9331497
Probable space group: I 2 2 2
;
_chemical_formula_sum "Si O2"
_cell_formula_units_Z 34
_cell_length_a 18.900222
_cell_length_b 8.457642
_cell_length_c 10.115230
_cell_angle_alpha 90.000000
_cell_angle_beta 90.000000
_cell_angle_gamma 90.000000
_cell_volume 1616.932781
_symmetry_space_group_name_H-M "I 2 2 2"
_symmetry_group_IT_number 23
_symmetry_cell_setting 'orthorhombic'
loop_
_space_group_symop_operation_xyz
x,y,z
-x,-y,z
x,-y,-z
-x,y,-z
1/2+x,1/2+y,1/2+z
1/2-x,1/2-y,1/2+z
1/2+x,1/2-y,1/2-z
1/2-x,1/2+y,1/2-z
loop_
_atom_site_type_symbol
_atom_site_label
_atom_site_fract_x
_atom_site_fract_y
_atom_site_fract_z
Si Si1 0.000000 0.000000 0.000000
Si Si2 0.813494 0.662905 0.298397
Si Si3 0.341059 0.197236 0.280875
Si Si4 0.872325 0.168512 0.954991
Si Si5 0.417081 0.688526 0.980492
O O1 0.050244 0.891891 0.912466
O O2 0.732196 0.712967 0.314407
O O3 0.823330 0.478170 0.268651
O O4 0.864671 0.722598 0.416164
O O5 0.834314 0.752391 0.164587
O O6 0.380302 0.215017 0.420989
O O7 0.387281 0.275147 0.165455
O O8 0.839021 0.000000 0.000000
O O9 0.411651 0.500000 0.000000
O O10 0.500000 0.734123 0.000000
#
# Coordination Sequence:
#
# PCOD9331497 Si02
#       5
#     2   8   8   8   8
#     4   8  24  40  70  90 132 172 216 254 336 372
#     4  12  25  43  67  98 133 173 219 271 327 388
#     4  12  25  43  67  98 133 173 219 271 327 388
#     4  10  22  42  67  93 127 170 218 257 319 388
#     4  11  26  45  69  97 135 175 217 270 334 392
#
# _framework density 21.027464999999999
#
# number of rings (size 3 to 8) (size 9 to 14) (size 15 to 20)
#    0.706    0.235    0.000    7.059    3.294    1.882 
#    0.000    1.176    0.000    0.000    0.000    0.000 
#    0.000    0.000    0.000    0.000    0.000    0.000 
#
# Total GULP energy -94913.335057 kJ/mol
# GULP energy per Si atom -5583.137356 kJ/mol
# Density = 2.097961 g / cm^3
# Si number density = 21.027465 Si / 1000 Ang^3
#
#
#
# Elastic Constant Matrix: (Units=GPa)
#
#
# Indices 1 2 3 4 5 6 
#
# 1 134.9468 35.2352 38.1660 0.0000 0.0000 0.0000
# 2 35.2352 70.9371 -4.8633 0.0000 0.0000 0.0000
# 3 38.1660 -4.8633 104.3358 0.0000 0.0000 0.0000
# 4 0.0000 0.0000 0.0000 39.7310 0.0000 0.0000
# 5 0.0000 0.0000 0.0000 0.0000 77.8911 0.0000
# 6 0.0000 0.0000 0.0000 0.0000 0.0000 43.2142
#
#
#
# Elastic Compliance Matrix: (Units=1/GPa)
#
#
# Indices 1 2 3 4 5 6 
#
# 1 0.009842 -0.005152 -0.003840 0.000000 0.000000 0.000000
# 2 -0.005152 0.016839 0.002669 0.000000 0.000000 0.000000
# 3 -0.003840 0.002669 0.011114 0.000000 0.000000 0.000000
# 4 0.000000 0.000000 0.000000 0.025169 0.000000 0.000000
# 5 0.000000 0.000000 0.000000 0.000000 0.012838 0.000000
# 6 0.000000 0.000000 0.000000 0.000000 0.000000 0.023141
#
#
# Mechanical properties :
#
#
# Convention : Reuss Voigt Hill
#
# Bulk Modulus (GPa) = 39.76286 49.69950 44.73118
# Shear Modulus (GPa) = 41.67702 48.27939 44.97820
#
# Velocity S-wave (km/s) = 4.45683 4.79687 4.62997
# Velocity P-wave (km/s) = 6.74058 7.37339 7.06407
#
# Compressibility (1/GPa) = 0.02514910
#
# Stress axis : x y z
#
# Youngs Moduli (GPa) = 101.61019 59.38634 89.97995
#
# Poissons Ratio (x) = 0.30594 0.34554
# Poissons Ratio (y) = 0.52346 -0.24019
# Poissons Ratio (z) = 0.39020 -0.15852
#
# Static dielectric constant tensor:
#      x y z
#    x 1.794490 0.000000 0.000000 
#    y 0.000000 1.737580 0.000000 
#    z 0.000000 0.000000 1.730780 
# 
# From -- ./inp_files/11673.got.cif
#   From: 2010.05.17/outbox.cif.g08.bks.cpg/sg23_6_cif.got.tgz:11673.got - 2010.06.04 12:02:01.
