data_PCOD9331920
_publ_section_title
;
Structure prediction by ZEFSAII (Michael W. Deem and Ramdas Pophale) SiO2 
 PCOD9331920
Probable space group: I 2 2 2
;
_chemical_formula_sum "Si O2"
_cell_formula_units_Z 30
_cell_length_a 5.400262
_cell_length_b 12.739001
_cell_length_c 19.103838
_cell_angle_alpha 90.000000
_cell_angle_beta 90.000000
_cell_angle_gamma 90.000000
_cell_volume 1314.228343
_symmetry_space_group_name_H-M "I 2 2 2"
_symmetry_group_IT_number 23
_symmetry_cell_setting 'orthorhombic'
loop_
_space_group_symop_operation_xyz
x,y,z
-x,-y,z
x,-y,-z
-x,y,-z
1/2+x,1/2+y,1/2+z
1/2-x,1/2-y,1/2+z
1/2+x,1/2-y,1/2-z
1/2-x,1/2+y,1/2-z
loop_
_atom_site_type_symbol
_atom_site_label
_atom_site_fract_x
_atom_site_fract_y
_atom_site_fract_z
Si Si1 0.000000 0.275129 0.500000
Si Si2 0.000000 0.500000 0.000000
Si Si3 0.249621 0.570245 0.740747
Si Si4 0.246851 0.930454 0.087054
Si Si5 0.844323 0.108793 0.391398
O O1 0.222799 0.350846 0.476889
O O2 0.028272 0.203138 0.568123
O O3 0.136230 0.576486 0.946497
O O4 0.500000 0.500000 0.740239
O O5 0.250473 0.623045 0.664394
O O6 0.262162 0.635386 0.812727
O O7 0.000000 0.500000 0.746052
O O8 0.500000 0.000000 0.086529
O O9 0.000000 0.000000 0.083222
O O10 0.000000 0.000000 0.387801
#
# Coordination Sequence:
#
# PCOD9331920 Si02
#       5
#     4   2   8   8   8
#     4  12  24  42  70 102 136 178 226 280 342 404
#     4  12  18  36  64  94 146 170 210 272 338 412
#     4   9  19  40  68  90 131 182 219 274 337 392
#     4  10  24  47  68  95 132 181 234 281 328 389
#     4  11  22  40  61 104 140 173 219 276 345 413
#
# _framework density 22.827082000000001
#
# number of rings (size 3 to 8) (size 9 to 14) (size 15 to 20)
#    0.000    1.600    4.000    0.400    0.000    4.267 
#    0.000   16.000    0.000    0.000    0.000    0.000 
#    0.000    0.000    0.000    0.000    0.000    0.000 
#
# Total GULP energy -83659.432321 kJ/mol
# GULP energy per Si atom -5577.295488 kJ/mol
# Density = 2.277513 g / cm^3
# Si number density = 22.827082 Si / 1000 Ang^3
#
#
#
# Elastic Constant Matrix: (Units=GPa)
#
#
# Indices 1 2 3 4 5 6 
#
# 1 125.0226 34.9410 25.2211 0.0000 0.0000 0.0000
# 2 34.9410 61.9227 56.4061 0.0000 0.0000 0.0000
# 3 25.2211 56.4061 206.8799 0.0000 0.0000 0.0000
# 4 0.0000 0.0000 0.0000 102.2279 0.0000 0.0000
# 5 0.0000 0.0000 0.0000 0.0000 35.8732 0.0000
# 6 0.0000 0.0000 0.0000 0.0000 0.0000 24.5046
#
#
#
# Elastic Compliance Matrix: (Units=1/GPa)
#
#
# Indices 1 2 3 4 5 6 
#
# 1 0.009521 -0.005741 0.000405 0.000000 0.000000 0.000000
# 2 -0.005741 0.024947 -0.006102 0.000000 0.000000 0.000000
# 3 0.000405 -0.006102 0.006448 0.000000 0.000000 0.000000
# 4 0.000000 0.000000 0.000000 0.009782 0.000000 0.000000
# 5 0.000000 0.000000 0.000000 0.000000 0.027876 0.000000
# 6 0.000000 0.000000 0.000000 0.000000 0.000000 0.040809
#
#
# Mechanical properties :
#
#
# Convention : Reuss Voigt Hill
#
# Bulk Modulus (GPa) = 55.43384 69.66238 62.54811
# Shear Modulus (GPa) = 33.72143 51.00492 42.36318
#
# Velocity S-wave (km/s) = 3.84768 4.73208 4.31261
# Velocity P-wave (km/s) = 6.63901 7.77434 7.22900
#
# Compressibility (1/GPa) = 0.01803952
#
# Stress axis : x y z
#
# Youngs Moduli (GPa) = 105.02578 40.08492 155.08446
#
# Poissons Ratio (x) = 0.23013 -0.06274
# Poissons Ratio (y) = 0.60297 0.94631
# Poissons Ratio (z) = -0.04249 0.24460
#
# Static dielectric constant tensor:
#      x y z
#    x 1.897120 0.000000 0.000000 
#    y 0.000000 1.926630 0.000000 
#    z 0.000000 0.000000 1.900770 
# 
# From -- ./inp_files/1382.got.cif
#   From: 2010.05.17/outbox.cif.g08.bks.cpg/sg23_1_cif.got.tgz:1382.got - 2010.06.04 12:02:01.
