data_PCOD9331429
_publ_section_title
;
Structure prediction by ZEFSAII (Michael W. Deem and Ramdas Pophale) SiO2 
 PCOD9331429
Probable space group: I 2 2 2
;
_chemical_formula_sum "Si O2"
_cell_formula_units_Z 48
_cell_length_a 9.120961
_cell_length_b 29.499491
_cell_length_c 8.922046
_cell_angle_alpha 90.000000
_cell_angle_beta 90.000000
_cell_angle_gamma 90.000000
_cell_volume 2400.598770
_symmetry_space_group_name_H-M "I 2 2 2"
_symmetry_group_IT_number 23
_symmetry_cell_setting 'orthorhombic'
loop_
_space_group_symop_operation_xyz
x,y,z
-x,-y,z
x,-y,-z
-x,y,-z
1/2+x,1/2+y,1/2+z
1/2-x,1/2-y,1/2+z
1/2+x,1/2-y,1/2-z
1/2-x,1/2+y,1/2-z
loop_
_atom_site_type_symbol
_atom_site_label
_atom_site_fract_x
_atom_site_fract_y
_atom_site_fract_z
Si Si1 0.154296 0.089003 0.303356
Si Si2 0.181817 0.920233 0.337309
Si Si3 0.673185 0.994788 0.176820
Si Si4 0.136790 0.334961 0.105356
Si Si5 0.526464 0.767331 0.172692
Si Si6 0.694117 0.307149 0.181950
O O1 0.170583 0.079920 0.481706
O O2 0.258512 0.053154 0.223966
O O3 0.194862 0.140801 0.267400
O O4 0.981655 0.083798 0.271899
O O5 0.283596 0.876328 0.311589
O O6 0.250120 0.965691 0.271858
O O7 0.500000 0.000000 0.203870
O O8 0.699604 0.000000 0.000000
O O9 0.069415 0.300054 0.221993
O O10 0.248774 0.310604 0.989896
O O11 0.000000 0.351261 0.000000
O O12 0.463149 0.716659 0.192814
O O13 0.690713 0.777092 0.225854
O O14 0.500000 0.779156 0.000000
#
# Coordination Sequence:
#
# PCOD9331429 Si02
#       6
#     8   8   8   8   8   8
#     4  10  23  42  65  97 122 165 218 260 309 373
#     4  10  22  40  70  91 124 167 213 260 307 376
#     4  11  26  43  64  94 133 164 201 259 326 385
#     4   9  21  40  62  95 128 168 214 259 309 370
#     4  11  23  38  63  90 127 169 207 263 315 367
#     4  10  23  40  65  91 129 164 214 261 309 372
#
# _framework density 19.995011000000002
#
# number of rings (size 3 to 8) (size 9 to 14) (size 15 to 20)
#    0.000    1.833    0.000    2.000   14.000    4.667 
#    0.000    0.000    3.667    0.000    0.000    0.000 
#    0.000    0.000    0.000    0.000    0.000    0.000 
#
# Total GULP energy -134093.971548 kJ/mol
# GULP energy per Si atom -5587.248814 kJ/mol
# Density = 1.994950 g / cm^3
# Si number density = 19.995011 Si / 1000 Ang^3
#
#
#
# Elastic Constant Matrix: (Units=GPa)
#
#
# Indices 1 2 3 4 5 6 
#
# 1 114.1700 79.1262 32.3664 0.0001 0.0000 0.0000
# 2 79.1262 134.7838 40.8582 0.0000 0.0000 0.0000
# 3 32.3664 40.8582 28.6724 -0.0002 -0.0003 0.0001
# 4 0.0001 0.0000 -0.0002 18.3249 0.0000 0.0001
# 5 0.0000 0.0000 -0.0003 0.0000 18.6708 0.0000
# 6 0.0000 0.0000 0.0001 0.0001 0.0000 42.8736
#
#
#
# Elastic Compliance Matrix: (Units=1/GPa)
#
#
# Indices 1 2 3 4 5 6 
#
# 1 0.015771 -0.006799 -0.008115 0.000000 0.000000 0.000000
# 2 -0.006799 0.015992 -0.015114 0.000000 0.000000 0.000000
# 3 -0.008115 -0.015114 0.065575 0.000001 0.000001 0.000000
# 4 0.000000 0.000000 0.000001 0.054571 0.000000 0.000000
# 5 0.000000 0.000000 0.000001 0.000000 0.053560 0.000000
# 6 0.000000 0.000000 0.000000 0.000000 0.000000 0.023324
#
#
# Mechanical properties :
#
#
# Convention : Reuss Voigt Hill
#
# Bulk Modulus (GPa) = 26.82213 64.70307 45.76260
# Shear Modulus (GPa) = 16.59600 24.32555 20.46077
#
# Velocity S-wave (km/s) = 2.88411 3.49174 3.20237
# Velocity P-wave (km/s) = 4.95321 6.97755 6.05064
#
# Compressibility (1/GPa) = 0.03728264
#
# Stress axis : x y z
#
# Youngs Moduli (GPa) = 63.40612 62.52992 15.24964
#
# Poissons Ratio (x) = 0.42513 0.12375
# Poissons Ratio (y) = 0.43108 0.23049
# Poissons Ratio (z) = 0.51454 0.94510
#
# Static dielectric constant tensor:
#      x y z
#    x 1.729120 0.000000 0.000000 
#    y 0.000000 1.688330 0.000000 
#    z 0.000000 0.000000 1.682730 
# 
# From -- ./inp_files/7373.got.cif
#   From: 2010.05.17/outbox.cif.g08.bks.cpg/sg23_4_cif.got.tgz:7373.got - 2010.06.04 12:02:01.
