data_PCOD9331708
_publ_section_title
;
Structure prediction by ZEFSAII (Michael W. Deem and Ramdas Pophale) SiO2 
 PCOD9331708
Probable space group: I 2 2 2
;
_chemical_formula_sum "Si O2"
_cell_formula_units_Z 30
_cell_length_a 9.777092
_cell_length_b 10.180024
_cell_length_c 11.804752
_cell_angle_alpha 90.000000
_cell_angle_beta 90.000000
_cell_angle_gamma 90.000000
_cell_volume 1174.939140
_symmetry_space_group_name_H-M "I 2 2 2"
_symmetry_group_IT_number 23
_symmetry_cell_setting 'orthorhombic'
loop_
_space_group_symop_operation_xyz
x,y,z
-x,-y,z
x,-y,-z
-x,y,-z
1/2+x,1/2+y,1/2+z
1/2-x,1/2-y,1/2+z
1/2+x,1/2-y,1/2-z
1/2-x,1/2+y,1/2-z
loop_
_atom_site_type_symbol
_atom_site_label
_atom_site_fract_x
_atom_site_fract_y
_atom_site_fract_z
Si Si1 0.000000 0.331744 0.500000
Si Si2 0.718237 0.619906 0.933519
Si Si3 0.000000 0.000000 0.000000
Si Si4 0.383403 0.247727 0.621325
Si Si5 0.631276 0.150527 0.776083
O O1 0.889874 0.238327 0.564342
O O2 0.915631 0.400047 0.398729
O O3 0.776094 0.571977 0.813223
O O4 0.654639 0.500000 0.000000
O O5 0.848576 0.668538 0.007155
O O6 0.084311 0.102523 0.079302
O O7 0.502627 0.198087 0.703130
O O8 0.240352 0.239143 0.688765
#
# Coordination Sequence:
#
# PCOD9331708 Si02
#       5
#     4   8   2   8   8
#     4  10  23  42  74 105 150 189 238 291 376 432
#     4  11  23  44  71 108 143 186 241 300 361 422
#     4  12  24  48  70 100 136 200 228 280 358 440
#     4  11  25  43  74  98 141 187 245 284 360 421
#     4  11  22  46  68 110 140 187 238 303 344 442
#
# _framework density 25.533239999999999
#
# number of rings (size 3 to 8) (size 9 to 14) (size 15 to 20)
#    0.000    1.067    5.333    0.400    0.000    6.400 
#    0.000    5.333    0.000    8.800    0.000    0.000 
#    0.000    0.000    0.000    0.000    0.000    0.000 
#
# Total GULP energy -83714.506373 kJ/mol
# GULP energy per Si atom -5580.967092 kJ/mol
# Density = 2.547512 g / cm^3
# Si number density = 25.533240 Si / 1000 Ang^3
#
#
#
# Elastic Constant Matrix: (Units=GPa)
#
#
# Indices 1 2 3 4 5 6 
#
# 1 127.2473 -11.5514 40.9031 0.0000 0.0000 0.0000
# 2 -11.5514 56.7716 4.7035 0.0000 0.0000 0.0000
# 3 40.9031 4.7035 183.5153 0.0000 0.0000 0.0000
# 4 0.0000 0.0000 0.0000 9.2375 0.0000 0.0000
# 5 0.0000 0.0000 0.0000 0.0000 50.5257 0.0000
# 6 0.0000 0.0000 0.0000 0.0000 0.0000 10.4081
#
#
#
# Elastic Compliance Matrix: (Units=1/GPa)
#
#
# Indices 1 2 3 4 5 6 
#
# 1 0.008671 0.001929 -0.001982 0.000000 0.000000 0.000000
# 2 0.001929 0.018081 -0.000893 0.000000 0.000000 0.000000
# 3 -0.001982 -0.000893 0.005914 0.000000 0.000000 0.000000
# 4 0.000000 0.000000 0.000000 0.108254 0.000000 0.000000
# 5 0.000000 0.000000 0.000000 0.000000 0.019792 0.000000
# 6 0.000000 0.000000 0.000000 0.000000 0.000000 0.096079
#
#
# Mechanical properties :
#
#
# Convention : Reuss Voigt Hill
#
# Bulk Modulus (GPa) = 32.49711 48.40494 40.45103
# Shear Modulus (GPa) = 18.59135 36.26619 27.42877
#
# Velocity S-wave (km/s) = 2.70130 3.77284 3.28111
# Velocity P-wave (km/s) = 4.74177 6.16262 5.49829
#
# Compressibility (1/GPa) = 0.03077196
#
# Stress axis : x y z
#
# Youngs Moduli (GPa) = 115.32825 55.30711 169.09587
#
# Poissons Ratio (x) = -0.10666 0.33516
# Poissons Ratio (y) = -0.22241 0.15104
# Poissons Ratio (z) = 0.22859 0.04940
#
# Static dielectric constant tensor:
#      x y z
#    x 2.016890 0.000000 0.000000 
#    y 0.000000 2.052140 0.000000 
#    z 0.000000 0.000000 2.124680 
# 
# From -- ./inp_files/15227.got.cif
#   From: 2010.05.17/outbox.cif.g08.bks.cpg/sg23_8_cif.got.tgz:15227.got - 2010.06.04 12:02:01.
