data_PCOD9331650
_publ_section_title
;
Structure prediction by ZEFSAII (Michael W. Deem and Ramdas Pophale) SiO2 
 PCOD9331650
Probable space group: I 2 2 2
;
_chemical_formula_sum "Si O2"
_cell_formula_units_Z 32
_cell_length_a 8.983363
_cell_length_b 16.397344
_cell_length_c 10.315130
_cell_angle_alpha 90.000000
_cell_angle_beta 90.000000
_cell_angle_gamma 90.000000
_cell_volume 1519.452621
_symmetry_space_group_name_H-M "I 2 2 2"
_symmetry_group_IT_number 23
_symmetry_cell_setting 'orthorhombic'
loop_
_space_group_symop_operation_xyz
x,y,z
-x,-y,z
x,-y,-z
-x,y,-z
1/2+x,1/2+y,1/2+z
1/2-x,1/2-y,1/2+z
1/2+x,1/2-y,1/2-z
1/2-x,1/2+y,1/2-z
loop_
_atom_site_type_symbol
_atom_site_label
_atom_site_fract_x
_atom_site_fract_y
_atom_site_fract_z
Si Si1 0.330584 0.775030 0.003647
Si Si2 0.824242 0.007891 0.349748
Si Si3 0.904702 0.417134 0.320872
Si Si4 0.820351 0.323386 0.784269
O O1 0.351600 0.866877 0.946656
O O2 0.217560 0.729707 0.909164
O O3 0.500000 0.738832 0.000000
O O4 0.280951 0.776959 0.151713
O O5 0.735556 0.942699 0.264749
O O6 0.777872 0.000000 0.500000
O O7 0.777753 0.095968 0.298327
O O8 0.000000 0.000000 0.341473
O O9 0.000000 0.500000 0.345763
O O10 0.012736 0.356340 0.240429
#
# Coordination Sequence:
#
# PCOD9331650 Si02
#       4
#     8   8   8   8
#     4  10  23  42  66  97 137 174 218 284 332 397
#     4  10  23  40  66  92 131 171 218 277 332 394
#     4   9  21  43  68  96 128 176 230 276 330 405
#     4  10  23  41  66  95 129 176 217 271 338 389
#
# _framework density 21.060216
#
# number of rings (size 3 to 8) (size 9 to 14) (size 15 to 20)
#    0.000    2.250    0.000    0.000    7.000   18.000 
#    4.500    7.500    0.000    0.000    0.000    0.000 
#    0.000    0.000    0.000    0.000    0.000    0.000 
#
# Total GULP energy -89418.452481 kJ/mol
# GULP energy per Si atom -5588.653280 kJ/mol
# Density = 2.101228 g / cm^3
# Si number density = 21.060216 Si / 1000 Ang^3
#
#
#
# Elastic Constant Matrix: (Units=GPa)
#
#
# Indices 1 2 3 4 5 6 
#
# 1 35.5789 18.7864 36.6652 0.0001 0.0000 0.0000
# 2 18.7864 65.6345 26.8226 0.0003 -0.0001 -0.0001
# 3 36.6652 26.8226 107.8424 0.0006 -0.0002 -0.0001
# 4 0.0001 0.0003 0.0006 36.3563 -0.0001 -0.0001
# 5 0.0000 -0.0001 -0.0002 -0.0001 37.3220 0.0000
# 6 0.0000 -0.0001 -0.0001 -0.0001 0.0000 27.9636
#
#
#
# Elastic Compliance Matrix: (Units=1/GPa)
#
#
# Indices 1 2 3 4 5 6 
#
# 1 0.046451 -0.007616 -0.013899 0.000000 0.000000 0.000000
# 2 -0.007616 0.018208 -0.001940 0.000000 0.000000 0.000000
# 3 -0.013899 -0.001940 0.014481 0.000000 0.000000 0.000000
# 4 0.000000 0.000000 0.000000 0.027506 0.000000 0.000000
# 5 0.000000 0.000000 0.000000 0.000000 0.026794 0.000000
# 6 0.000000 0.000000 0.000000 0.000000 0.000000 0.035761
#
#
# Mechanical properties :
#
#
# Convention : Reuss Voigt Hill
#
# Bulk Modulus (GPa) = 31.02493 41.51157 36.26825
# Shear Modulus (GPa) = 22.04089 28.78049 25.41069
#
# Velocity S-wave (km/s) = 3.23858 3.70074 3.47734
# Velocity P-wave (km/s) = 5.36172 6.16558 5.77764
#
# Compressibility (1/GPa) = 0.03223214
#
# Stress axis : x y z
#
# Youngs Moduli (GPa) = 21.52822 54.92001 69.05810
#
# Poissons Ratio (x) = 0.41825 0.95981
# Poissons Ratio (y) = 0.16395 0.13394
# Poissons Ratio (z) = 0.29921 0.10652
#
# Static dielectric constant tensor:
#      x y z
#    x 1.746240 0.000000 0.000000 
#    y 0.000000 1.786320 0.000000 
#    z 0.000000 0.000000 1.756600 
# 
# From -- ./inp_files/6598.got.cif
#   From: 2010.05.17/outbox.cif.g08.bks.cpg/sg23_4_cif.got.tgz:6598.got - 2010.06.04 12:02:01.
