data_PCOD9331114
_publ_section_title
;
Structure prediction by ZEFSAII (Michael W. Deem and Ramdas Pophale) SiO2 
 PCOD9331114
Probable space group: I 2 2 2
;
_chemical_formula_sum "Si O2"
_cell_formula_units_Z 58
_cell_length_a 8.876413
_cell_length_b 12.552872
_cell_length_c 24.951974
_cell_angle_alpha 90.000000
_cell_angle_beta 90.000000
_cell_angle_gamma 90.000000
_cell_volume 2780.260633
_symmetry_space_group_name_H-M "I 2 2 2"
_symmetry_group_IT_number 23
_symmetry_cell_setting 'orthorhombic'
loop_
_space_group_symop_operation_xyz
x,y,z
-x,-y,z
x,-y,-z
-x,y,-z
1/2+x,1/2+y,1/2+z
1/2-x,1/2-y,1/2+z
1/2+x,1/2-y,1/2-z
1/2-x,1/2+y,1/2-z
loop_
_atom_site_type_symbol
_atom_site_label
_atom_site_fract_x
_atom_site_fract_y
_atom_site_fract_z
Si Si1 0.483150 0.875415 0.105672
Si Si2 0.789860 0.734381 0.912107
Si Si3 0.669571 0.111632 0.287316
Si Si4 0.364013 0.726549 0.975057
Si Si5 0.857847 0.074159 0.671262
Si Si6 0.890248 0.653200 0.091537
Si Si7 0.000000 0.500000 0.000000
Si Si8 0.448244 0.767567 0.787274
O O1 0.311197 0.831312 0.110363
O O2 0.549697 0.827115 0.050939
O O3 0.569150 0.828966 0.156840
O O4 0.500000 0.000000 0.105055
O O5 0.731033 0.629242 0.879062
O O6 0.969946 0.735296 0.908661
O O7 0.749311 0.735413 0.975263
O O8 0.615489 0.111442 0.348770
O O9 0.525241 0.146925 0.252569
O O10 0.795144 0.203067 0.274853
O O11 0.757385 0.998158 0.288370
O O12 0.275367 0.690294 0.923209
O O13 0.500000 0.657302 0.000000
O O14 0.931875 0.172717 0.702414
O O15 0.000000 0.000000 0.652917
O O16 0.915033 0.572835 0.042468
#
# Coordination Sequence:
#
# PCOD9331114 Si02
#       8
#     8   8   8   8   8   8   2   8
#     4  10  22  43  67  97 131 179 239 281 338 414
#     4  10  21  40  67  95 136 175 220 285 345 402
#     4  11  24  41  69  93 136 178 228 283 344 418
#     4  10  21  40  66  92 132 179 216 282 342 405
#     4   9  21  42  65  97 134 174 229 282 349 417
#     4  12  23  42  62 101 140 175 220 279 346 415
#     4  12  24  40  70 104 142 176 222 276 358 428
#     4  10  23  43  65  95 134 176 227 289 341 405
#
# _framework density 20.861353999999999
#
# number of rings (size 3 to 8) (size 9 to 14) (size 15 to 20)
#    0.000    1.655    2.759    0.828    5.793    3.586 
#    1.241    1.034    0.000    3.310    0.000    0.000 
#    0.000    0.000    0.000    0.000    0.000    0.000 
#
# Total GULP energy -161457.478835 kJ/mol
# GULP energy per Si atom -5567.499270 kJ/mol
# Density = 2.081387 g / cm^3
# Si number density = 20.861354 Si / 1000 Ang^3
#
#
#
# Elastic Constant Matrix: (Units=GPa)
#
#
# Indices 1 2 3 4 5 6 
#
# 1 70.1134 31.8911 31.5147 0.0000 0.0000 0.0000
# 2 31.8911 98.7451 39.6325 0.0000 0.0000 0.0000
# 3 31.5147 39.6325 93.4980 0.0000 0.0000 0.0000
# 4 0.0000 0.0000 0.0000 22.7046 0.0000 0.0000
# 5 0.0000 0.0000 0.0000 0.0000 44.6458 0.0000
# 6 0.0000 0.0000 0.0000 0.0000 0.0000 32.7530
#
#
#
# Elastic Compliance Matrix: (Units=1/GPa)
#
#
# Indices 1 2 3 4 5 6 
#
# 1 0.018083 -0.004090 -0.004362 0.000000 0.000000 0.000000
# 2 -0.004090 0.013128 -0.004186 0.000000 0.000000 0.000000
# 3 -0.004362 -0.004186 0.013940 0.000000 0.000000 0.000000
# 4 0.000000 0.000000 0.000000 0.044044 0.000000 0.000000
# 5 0.000000 0.000000 0.000000 0.000000 0.022399 0.000000
# 6 0.000000 0.000000 0.000000 0.000000 0.000000 0.030532
#
#
# Mechanical properties :
#
#
# Convention : Reuss Voigt Hill
#
# Bulk Modulus (GPa) = 50.31147 52.04813 51.17980
# Shear Modulus (GPa) = 28.73129 30.64189 29.68659
#
# Velocity S-wave (km/s) = 3.71516 3.83670 3.77642
# Velocity P-wave (km/s) = 6.52477 6.68062 6.60315
#
# Compressibility (1/GPa) = 0.01987618
#
# Stress axis : x y z
#
# Youngs Moduli (GPa) = 55.29971 76.17220 71.73546
#
# Poissons Ratio (x) = 0.31152 0.31289
# Poissons Ratio (y) = 0.22616 0.30031
# Poissons Ratio (z) = 0.24120 0.31889
#
# Static dielectric constant tensor:
#      x y z
#    x -3.674240 0.000000 0.000000 
#    y 0.000000 1.790140 0.000000 
#    z 0.000000 0.000000 1.763440 
# 
# From -- ./inp_files/29294.got.cif
#   From: 2010.05.17/outbox.cif.g08.bks.cpg/sg23_15_cif.got.tgz:29294.got - 2010.06.04 12:02:01.
