data_PCOD9331818
_publ_section_title
;
Structure prediction by ZEFSAII (Michael W. Deem and Ramdas Pophale) SiO2 
 PCOD9331818
Probable space group: I 2 2 2
;
_chemical_formula_sum "Si O2"
_cell_formula_units_Z 64
_cell_length_a 12.900760
_cell_length_b 18.472662
_cell_length_c 14.461090
_cell_angle_alpha 90.000000
_cell_angle_beta 90.000000
_cell_angle_gamma 90.000000
_cell_volume 3446.242300
_symmetry_space_group_name_H-M "I 2 2 2"
_symmetry_group_IT_number 23
_symmetry_cell_setting 'orthorhombic'
loop_
_space_group_symop_operation_xyz
x,y,z
-x,-y,z
x,-y,-z
-x,y,-z
1/2+x,1/2+y,1/2+z
1/2-x,1/2-y,1/2+z
1/2+x,1/2-y,1/2-z
1/2-x,1/2+y,1/2-z
loop_
_atom_site_type_symbol
_atom_site_label
_atom_site_fract_x
_atom_site_fract_y
_atom_site_fract_z
Si Si1 0.300003 0.434283 0.116054
Si Si2 0.226428 0.411594 0.919064
Si Si3 0.164055 0.369101 0.270407
Si Si4 0.687650 0.167564 0.861026
Si Si5 0.953993 0.806782 0.602736
Si Si6 0.881956 0.416263 0.524744
Si Si7 0.543840 0.079690 0.718968
Si Si8 0.833672 0.795997 0.294952
O O1 0.301894 0.521071 0.108368
O O2 0.247932 0.412239 0.211979
O O3 0.402498 0.386298 0.104053
O O4 0.227453 0.410483 0.029468
O O5 0.115870 0.425488 0.871351
O O6 0.272195 0.339454 0.874139
O O7 0.138175 0.405025 0.368001
O O8 0.196300 0.287800 0.291827
O O9 0.057380 0.370392 0.211866
O O10 0.630941 0.245203 0.873130
O O11 0.614380 0.114546 0.799413
O O12 0.793528 0.173778 0.803238
O O13 0.692988 0.131639 0.961312
O O14 0.000000 0.793072 0.500000
O O15 0.046598 0.801820 0.676799
O O16 0.871679 0.500000 0.500000
O O17 0.000000 0.393515 0.500000
O O18 0.500000 0.000000 0.741345
#
# Coordination Sequence:
#
# PCOD9331818 Si02
#       8
#     8   8   8   8   8   8   8   8
#     4  11  24  41  62  91 124 166 209 257 312 376
#     4  10  24  41  60  90 131 164 209 258 314 375
#     4  12  22  37  63  95 126 159 207 254 315 380
#     4  11  22  37  61  94 125 161 201 257 313 370
#     4  12  22  41  65  90 124 164 211 261 309 368
#     4  11  22  35  61  93 124 157 197 253 314 370
#     4  11  20  36  63  89 129 161 203 254 320 381
#     4  11  23  39  63  90 126 162 202 256 310 369
#
# _framework density 18.570951000000001
#
# number of rings (size 3 to 8) (size 9 to 14) (size 15 to 20)
#    0.000    0.875    6.250    1.875    1.750    1.000 
#    0.000    0.000    0.000    0.750    0.000    0.875 
#    0.000    0.000    0.000    0.000    0.000    0.000 
#
# Total GULP energy -178686.494773 kJ/mol
# GULP energy per Si atom -5583.952962 kJ/mol
# Density = 1.852868 g / cm^3
# Si number density = 18.570951 Si / 1000 Ang^3
#
#
#
# Elastic Constant Matrix: (Units=GPa)
#
#
# Indices 1 2 3 4 5 6 
#
# 1 45.5793 14.7000 34.1184 0.0000 0.0000 0.0000
# 2 14.7000 86.4295 23.3510 0.0000 0.0000 0.0000
# 3 34.1184 23.3510 101.7518 -0.0001 0.0000 0.0000
# 4 0.0000 0.0000 -0.0001 24.0974 0.0000 0.0000
# 5 0.0000 0.0000 0.0000 0.0000 29.3837 0.0000
# 6 0.0000 0.0000 0.0000 0.0000 0.0000 6.4794
#
#
#
# Elastic Compliance Matrix: (Units=1/GPa)
#
#
# Indices 1 2 3 4 5 6 
#
# 1 0.029800 -0.002525 -0.009413 0.000000 0.000000 0.000000
# 2 -0.002525 0.012549 -0.002033 0.000000 0.000000 0.000000
# 3 -0.009413 -0.002033 0.013451 0.000000 0.000000 0.000000
# 4 0.000000 0.000000 0.000000 0.041498 0.000000 0.000000
# 5 0.000000 0.000000 0.000000 0.000000 0.034032 0.000000
# 6 0.000000 0.000000 0.000000 0.000000 0.000000 0.154335
#
#
# Mechanical properties :
#
#
# Convention : Reuss Voigt Hill
#
# Bulk Modulus (GPa) = 35.89723 42.01105 38.95414
# Shear Modulus (GPa) = 15.48500 22.76487 19.12494
#
# Velocity S-wave (km/s) = 2.89074 3.50499 3.21258
# Velocity P-wave (km/s) = 5.52391 6.24907 5.89765
#
# Compressibility (1/GPa) = 0.02785730
#
# Stress axis : x y z
#
# Youngs Moduli (GPa) = 33.55690 79.68814 74.34628
#
# Poissons Ratio (x) = 0.20124 0.69980
# Poissons Ratio (y) = 0.08474 0.15115
# Poissons Ratio (z) = 0.31586 0.16201
#
# Static dielectric constant tensor:
#      x y z
#    x 1.647580 0.000000 0.000000 
#    y 0.000000 1.665700 0.000000 
#    z 0.000000 0.000000 1.652630 
# 
# From -- ./inp_files/17566.got.cif
#   From: 2010.05.17/outbox.cif.g08.bks.cpg/sg23_9_cif.got.tgz:17566.got - 2010.06.04 12:02:01.
