data_PCOD9331614
_publ_section_title
;
Structure prediction by ZEFSAII (Michael W. Deem and Ramdas Pophale) SiO2 
 PCOD9331614
Probable space group: I 2 2 2
;
_chemical_formula_sum "Si O2"
_cell_formula_units_Z 36
_cell_length_a 5.199525
_cell_length_b 24.670769
_cell_length_c 14.849668
_cell_angle_alpha 90.000000
_cell_angle_beta 90.000000
_cell_angle_gamma 90.000000
_cell_volume 1904.860173
_symmetry_space_group_name_H-M "I 2 2 2"
_symmetry_group_IT_number 23
_symmetry_cell_setting 'orthorhombic'
loop_
_space_group_symop_operation_xyz
x,y,z
-x,-y,z
x,-y,-z
-x,y,-z
1/2+x,1/2+y,1/2+z
1/2-x,1/2-y,1/2+z
1/2+x,1/2-y,1/2-z
1/2-x,1/2+y,1/2-z
loop_
_atom_site_type_symbol
_atom_site_label
_atom_site_fract_x
_atom_site_fract_y
_atom_site_fract_z
Si Si1 0.756459 0.964449 0.833444
Si Si2 0.749111 0.197970 0.442313
Si Si3 0.291773 0.681810 0.369776
Si Si4 0.710838 0.153869 0.241970
Si Si5 0.000000 0.092932 0.000000
O O1 0.727662 0.910522 0.774013
O O2 0.830426 0.942654 0.932762
O O3 0.500000 0.000000 0.834151
O O4 0.000000 0.000000 0.802954
O O5 0.500000 0.183674 0.500000
O O6 0.744060 0.262459 0.422602
O O7 0.738129 0.169728 0.345401
O O8 0.000000 0.184521 0.500000
O O9 0.556822 0.681426 0.313728
O O10 0.321032 0.631955 0.439265
O O11 0.055877 0.673193 0.302091
#
# Coordination Sequence:
#
# PCOD9331614 Si02
#       5
#     8   8   8   8   4
#     4  11  24  40  60  88 122 163 206 249 296 358
#     4  12  24  40  64  91 123 159 209 254 304 366
#     4  11  22  39  60  92 129 164 198 238 310 382
#     4  11  24  41  62  87 124 167 203 255 306 359
#     4  10  23  36  62  94 128 162 199 240 304 376
#
# _framework density 18.899025999999999
#
# number of rings (size 3 to 8) (size 9 to 14) (size 15 to 20)
#    0.000    0.889    1.111    7.000    3.111    7.111 
#    0.000    0.000    0.000    4.000    0.000    0.000 
#    0.000    0.000    0.000    0.000    0.000    0.000 
#
# Total GULP energy -100785.669236 kJ/mol
# GULP energy per Si atom -5599.203846 kJ/mol
# Density = 1.885601 g / cm^3
# Si number density = 18.899026 Si / 1000 Ang^3
#
#
#
# Elastic Constant Matrix: (Units=GPa)
#
#
# Indices 1 2 3 4 5 6 
#
# 1 146.8856 26.7284 41.2941 0.0000 0.0000 0.0000
# 2 26.7284 51.9396 12.4210 0.0000 0.0000 0.0000
# 3 41.2941 12.4210 67.1925 0.0000 0.0000 0.0000
# 4 0.0000 0.0000 0.0000 -17.9028 0.0000 0.0000
# 5 0.0000 0.0000 0.0000 0.0000 34.6283 0.0000
# 6 0.0000 0.0000 0.0000 0.0000 0.0000 69.8128
#
#
#
# Elastic Compliance Matrix: (Units=1/GPa)
#
#
# Indices 1 2 3 4 5 6 
#
# 1 0.008759 -0.003369 -0.004760 0.000000 0.000000 0.000000
# 2 -0.003369 0.021440 -0.001893 0.000000 0.000000 0.000000
# 3 -0.004760 -0.001893 0.018158 0.000000 0.000000 0.000000
# 4 0.000000 0.000000 0.000000 -0.055857 0.000000 0.000000
# 5 0.000000 0.000000 0.000000 0.000000 0.028878 0.000000
# 6 0.000000 0.000000 0.000000 0.000000 0.000000 0.014324
#
#
# Mechanical properties :
#
#
# Convention : Reuss Voigt Hill
#
# Bulk Modulus (GPa) = 35.32008 47.43386 41.37697
# Shear Modulus (GPa) = 76.70600 29.67928 53.19264
#
# Velocity S-wave (km/s) = 6.37773 3.96714 5.31101
# Velocity P-wave (km/s) = 8.54185 6.79245 7.71688
#
# Compressibility (1/GPa) = 0.02831251
#
# Stress axis : x y z
#
# Youngs Moduli (GPa) = 114.16297 46.64271 55.07204
#
# Poissons Ratio (x) = 0.15715 0.26216
# Poissons Ratio (y) = 0.38464 0.10423
# Poissons Ratio (z) = 0.54346 0.08828
#
# Static dielectric constant tensor:
#      x y z
#    x 1.714360 0.000000 0.000000 
#    y 0.000000 1.655750 0.000000 
#    z 0.000000 0.000000 1.616150 
# 
# From -- ./inp_files/2381.got.cif
#   From: 2010.05.17/outbox.cif.g08.bks.cpg/sg23_2_cif.got.tgz:2381.got - 2010.06.04 12:02:01.
