data_PCOD9331107
_publ_section_title
;
Structure prediction by ZEFSAII (Michael W. Deem and Ramdas Pophale) SiO2 
 PCOD9331107
Probable space group: I 2 2 2
;
_chemical_formula_sum "Si O2"
_cell_formula_units_Z 48
_cell_length_a 18.253578
_cell_length_b 9.013813
_cell_length_c 14.262922
_cell_angle_alpha 90.000000
_cell_angle_beta 90.000000
_cell_angle_gamma 90.000000
_cell_volume 2346.740439
_symmetry_space_group_name_H-M "I 2 2 2"
_symmetry_group_IT_number 23
_symmetry_cell_setting 'orthorhombic'
loop_
_space_group_symop_operation_xyz
x,y,z
-x,-y,z
x,-y,-z
-x,y,-z
1/2+x,1/2+y,1/2+z
1/2-x,1/2-y,1/2+z
1/2+x,1/2-y,1/2-z
1/2-x,1/2+y,1/2-z
loop_
_atom_site_type_symbol
_atom_site_label
_atom_site_fract_x
_atom_site_fract_y
_atom_site_fract_z
Si Si1 0.045077 0.369989 0.596422
Si Si2 0.700381 0.285861 0.676644
Si Si3 0.341268 0.334919 0.530649
Si Si4 0.553113 0.636347 0.246935
Si Si5 0.205195 0.556364 0.345300
Si Si6 0.025031 0.328904 0.099870
O O1 0.048415 0.213100 0.646755
O O2 0.128538 0.425725 0.600647
O O3 0.000000 0.500000 0.649532
O O4 0.000000 0.353672 0.500000
O O5 0.677642 0.255797 0.568709
O O6 0.636273 0.389508 0.721361
O O7 0.773059 0.385830 0.673150
O O8 0.702681 0.146618 0.746914
O O9 0.372140 0.500000 0.500000
O O10 0.268404 0.375427 0.588690
O O11 0.391242 0.227968 0.595396
O O12 0.500000 0.500000 0.252516
O O13 0.520261 0.754749 0.318612
O O14 0.000000 0.500000 0.100383
O O15 0.000000 0.265128 0.000000
#
# Coordination Sequence:
#
# PCOD9331107 Si02
#       6
#     8   8   8   8   8   8
#     4  10  24  42  65  94 127 170 220 270 328 382
#     4  10  22  40  62  88 123 164 211 260 316 383
#     4  10  21  40  65  89 126 170 209 255 322 390
#     4  11  22  40  64  93 126 164 212 263 324 394
#     4  10  23  42  62  92 124 167 221 262 322 391
#     4  11  23  38  61  95 130 158 205 263 323 385
#
# _framework density 20.453901999999999
#
# number of rings (size 3 to 8) (size 9 to 14) (size 15 to 20)
#    0.000    1.667    1.667    2.500    7.000    5.667 
#    0.000    0.000    0.000    0.000    0.000    0.000 
#    0.000    0.000    0.000    0.000    0.000    0.000 
#
# Total GULP energy -133812.894538 kJ/mol
# GULP energy per Si atom -5575.537272 kJ/mol
# Density = 2.040735 g / cm^3
# Si number density = 20.453902 Si / 1000 Ang^3
#
#
#
# Elastic Constant Matrix: (Units=GPa)
#
#
# Indices 1 2 3 4 5 6 
#
# 1 103.4951 33.2280 13.4749 0.0000 0.0000 0.0000
# 2 33.2280 62.2543 14.5868 0.0000 0.0000 0.0000
# 3 13.4749 14.5868 81.5039 0.0000 0.0000 0.0000
# 4 0.0000 0.0000 0.0000 14.7622 0.0000 0.0000
# 5 0.0000 0.0000 0.0000 0.0000 16.3835 0.0000
# 6 0.0000 0.0000 0.0000 0.0000 0.0000 10.6044
#
#
#
# Elastic Compliance Matrix: (Units=1/GPa)
#
#
# Indices 1 2 3 4 5 6 
#
# 1 0.011717 -0.006054 -0.000854 0.000000 0.000000 0.000000
# 2 -0.006054 0.019894 -0.002560 0.000000 0.000000 0.000000
# 3 -0.000854 -0.002560 0.012869 0.000000 0.000000 0.000000
# 4 0.000000 0.000000 0.000000 0.067740 0.000000 0.000000
# 5 0.000000 0.000000 0.000000 0.000000 0.061037 0.000000
# 6 0.000000 0.000000 0.000000 0.000000 0.000000 0.094300
#
#
# Mechanical properties :
#
#
# Convention : Reuss Voigt Hill
#
# Bulk Modulus (GPa) = 39.14596 41.09252 40.11924
# Shear Modulus (GPa) = 16.94877 20.74762 18.84819
#
# Velocity S-wave (km/s) = 2.88172 3.18836 3.03891
# Velocity P-wave (km/s) = 5.50024 5.80414 5.65423
#
# Compressibility (1/GPa) = 0.02554542
#
# Stress axis : x y z
#
# Youngs Moduli (GPa) = 85.34528 50.26607 77.70859
#
# Poissons Ratio (x) = 0.30431 0.06634
# Poissons Ratio (y) = 0.51667 0.19890
# Poissons Ratio (z) = 0.07286 0.12866
#
# Static dielectric constant tensor:
#      x y z
#    x 1.847980 0.000000 0.000000 
#    y 0.000000 1.688690 0.000000 
#    z 0.000000 0.000000 1.751350 
# 
# From -- ./inp_files/22034.got.cif
#   From: 2010.05.17/outbox.cif.g08.bks.cpg/sg23_12_cif.got.tgz:22034.got - 2010.06.04 12:02:01.
