data_PCOD9331845
_publ_section_title
;
Structure prediction by ZEFSAII (Michael W. Deem and Ramdas Pophale) SiO2 
 PCOD9331845
Probable space group: I 2 2 2
;
_chemical_formula_sum "Si O2"
_cell_formula_units_Z 40
_cell_length_a 13.038628
_cell_length_b 9.614359
_cell_length_c 17.082080
_cell_angle_alpha 90.000000
_cell_angle_beta 90.000000
_cell_angle_gamma 90.000000
_cell_volume 2141.376247
_symmetry_space_group_name_H-M "I 2 2 2"
_symmetry_group_IT_number 23
_symmetry_cell_setting 'orthorhombic'
loop_
_space_group_symop_operation_xyz
x,y,z
-x,-y,z
x,-y,-z
-x,y,-z
1/2+x,1/2+y,1/2+z
1/2-x,1/2-y,1/2+z
1/2+x,1/2-y,1/2-z
1/2-x,1/2+y,1/2-z
loop_
_atom_site_type_symbol
_atom_site_label
_atom_site_fract_x
_atom_site_fract_y
_atom_site_fract_z
Si Si1 0.764195 0.000000 0.500000
Si Si2 0.000000 0.500000 0.743881
Si Si3 0.324230 0.968742 0.873301
Si Si4 0.394853 0.432349 0.586208
Si Si5 0.119601 0.280833 0.481140
Si Si6 0.587065 0.890999 0.605416
O O1 0.831305 0.130584 0.526021
O O2 0.692103 0.046194 0.427668
O O3 0.909551 0.565734 0.691490
O O4 0.937795 0.395898 0.801672
O O5 0.202482 0.964390 0.858245
O O6 0.357058 0.118773 0.908014
O O7 0.333534 0.859295 0.943960
O O8 0.500000 0.500000 0.615589
O O9 0.374520 0.500000 0.500000
O O10 0.414762 0.267738 0.577555
O O11 0.000000 0.273201 0.500000
O O12 0.500000 0.000000 0.578263
#
# Coordination Sequence:
#
# PCOD9331845 Si02
#       6
#     4   4   8   8   8   8
#     4  12  22  40  62  96 130 158 214 276 320 360
#     4  10  24  42  68  86 134 182 202 254 328 400
#     4  11  19  42  66  92 127 171 218 254 315 386
#     4  11  23  39  67 101 121 157 222 273 312 368
#     4  11  21  37  68  98 122 167 218 273 306 369
#     4  10  25  42  60  95 125 170 205 261 325 376
#
# _framework density 18.679575
#
# number of rings (size 3 to 8) (size 9 to 14) (size 15 to 20)
#    0.600    0.600    6.000    1.200    8.400    0.000 
#    7.200    0.000    0.000    0.000    0.000    0.000 
#    0.000    0.000    0.000    0.000    0.000    0.000 
#
# Total GULP energy -111403.351578 kJ/mol
# GULP energy per Si atom -5570.167579 kJ/mol
# Density = 1.863706 g / cm^3
# Si number density = 18.679575 Si / 1000 Ang^3
#
#
#
# Elastic Constant Matrix: (Units=GPa)
#
#
# Indices 1 2 3 4 5 6 
#
# 1 154.1547 45.7735 12.2508 0.0000 0.0000 0.0000
# 2 45.7735 155.5587 11.3584 0.0000 0.0000 0.0000
# 3 12.2508 11.3584 57.6097 0.0000 0.0000 0.0000
# 4 0.0000 0.0000 0.0000 14.4569 0.0000 0.0000
# 5 0.0000 0.0000 0.0000 0.0000 133.4861 0.0000
# 6 0.0000 0.0000 0.0000 0.0000 0.0000 33.6778
#
#
#
# Elastic Compliance Matrix: (Units=1/GPa)
#
#
# Indices 1 2 3 4 5 6 
#
# 1 0.007179 -0.002030 -0.001126 0.000000 0.000000 0.000000
# 2 -0.002030 0.007096 -0.000967 0.000000 0.000000 0.000000
# 3 -0.001126 -0.000967 0.017788 0.000000 0.000000 0.000000
# 4 0.000000 0.000000 0.000000 0.069171 0.000000 0.000000
# 5 0.000000 0.000000 0.000000 0.000000 0.007491 0.000000
# 6 0.000000 0.000000 0.000000 0.000000 0.000000 0.029693
#
#
# Mechanical properties :
#
#
# Convention : Reuss Voigt Hill
#
# Bulk Modulus (GPa) = 41.98841 56.23205 49.11023
# Shear Modulus (GPa) = 32.34009 56.18684 44.26347
#
# Velocity S-wave (km/s) = 4.16541 5.49041 4.87315
# Velocity P-wave (km/s) = 6.75731 8.38818 7.61652
#
# Compressibility (1/GPa) = 0.02381609
#
# Stress axis : x y z
#
# Youngs Moduli (GPa) = 139.28801 140.91454 56.21619
#
# Poissons Ratio (x) = 0.28610 0.06332
# Poissons Ratio (y) = 0.28280 0.05438
# Poissons Ratio (z) = 0.15690 0.13632
#
# Static dielectric constant tensor:
#      x y z
#    x 1.562060 0.000000 0.000000 
#    y 0.000000 1.604680 0.000000 
#    z 0.000000 0.000000 1.689310 
# 
# From -- ./inp_files/26596.got.cif
#   From: 2010.05.17/outbox.cif.g08.bks.cpg/sg23_14_cif.got.tgz:26596.got - 2010.06.04 12:02:01.
