data_PCOD9331784
_publ_section_title
;
Structure prediction by ZEFSAII (Michael W. Deem and Ramdas Pophale) SiO2 
 PCOD9331784
Probable space group: I 2 2 2
;
_chemical_formula_sum "Si O2"
_cell_formula_units_Z 46
_cell_length_a 9.696430
_cell_length_b 9.045966
_cell_length_c 26.337772
_cell_angle_alpha 90.000000
_cell_angle_beta 90.000000
_cell_angle_gamma 90.000000
_cell_volume 2310.180169
_symmetry_space_group_name_H-M "I 2 2 2"
_symmetry_group_IT_number 23
_symmetry_cell_setting 'orthorhombic'
loop_
_space_group_symop_operation_xyz
x,y,z
-x,-y,z
x,-y,-z
-x,y,-z
1/2+x,1/2+y,1/2+z
1/2-x,1/2-y,1/2+z
1/2+x,1/2-y,1/2-z
1/2-x,1/2+y,1/2-z
loop_
_atom_site_type_symbol
_atom_site_label
_atom_site_fract_x
_atom_site_fract_y
_atom_site_fract_z
Si Si1 0.309369 0.116145 0.638703
Si Si2 0.500000 0.000000 0.272547
Si Si3 0.151528 0.714561 0.288483
Si Si4 0.546392 0.663910 0.405415
Si Si5 0.500000 0.500000 0.000000
Si Si6 0.349091 0.436688 0.299017
Si Si7 0.229333 0.400096 0.954318
O O1 0.379559 0.038256 0.687455
O O2 0.170364 0.191534 0.660405
O O3 0.416585 0.235925 0.614240
O O4 0.283158 0.994224 0.596767
O O5 0.516826 0.861460 0.234807
O O6 0.250360 0.575993 0.297594
O O7 0.194731 0.816415 0.241565
O O8 0.500000 0.500000 0.422718
O O9 0.635367 0.633791 0.354478
O O10 0.640540 0.753297 0.445108
O O11 0.392349 0.603098 0.031206
O O12 0.500000 0.500000 0.285167
O O13 0.169280 0.500000 0.000000
#
# Coordination Sequence:
#
# PCOD9331784 Si02
#       7
#     8   4   8   8   2   8   8
#     4  12  21  40  65  95 133 181 234 286 352 415
#     4  12  22  38  59  92 140 185 226 278 340 420
#     4  12  22  37  60  90 136 186 224 276 339 415
#     4  11  21  40  70 102 138 170 232 302 352 410
#     4   8  24  52  70  94 132 176 238 286 368 452
#     4  11  22  39  58  91 139 178 223 277 337 407
#     4  10  23  47  73  96 135 177 238 299 366 443
#
# _framework density 19.911867000000001
#
# number of rings (size 3 to 8) (size 9 to 14) (size 15 to 20)
#    0.522    0.348    8.696    0.000    0.000    1.391 
#    4.696    1.739    0.000    1.043    0.000    0.000 
#    0.000    0.000    0.000    0.000    0.000    0.000 
#
# Total GULP energy -128160.324822 kJ/mol
# GULP energy per Si atom -5572.188036 kJ/mol
# Density = 1.986655 g / cm^3
# Si number density = 19.911867 Si / 1000 Ang^3
#
#
#
# Elastic Constant Matrix: (Units=GPa)
#
#
# Indices 1 2 3 4 5 6 
#
# 1 69.5265 28.1019 48.9685 0.0000 0.0000 0.0000
# 2 28.1019 105.7034 43.7282 0.0000 0.0000 0.0000
# 3 48.9685 43.7282 73.4838 0.0000 0.0000 0.0000
# 4 0.0000 0.0000 0.0000 10.8315 0.0000 0.0000
# 5 0.0000 0.0000 0.0000 0.0000 42.9537 0.0000
# 6 0.0000 0.0000 0.0000 0.0000 0.0000 31.0318
#
#
#
# Elastic Compliance Matrix: (Units=1/GPa)
#
#
# Indices 1 2 3 4 5 6 
#
# 1 0.027114 0.000353 -0.018279 0.000000 0.000000 0.000000
# 2 0.000353 0.012554 -0.007706 0.000000 0.000000 0.000000
# 3 -0.018279 -0.007706 0.030375 0.000000 0.000000 0.000000
# 4 0.000000 0.000000 0.000000 0.092323 0.000000 0.000000
# 5 0.000000 0.000000 0.000000 0.000000 0.023281 0.000000
# 6 0.000000 0.000000 0.000000 0.000000 0.000000 0.032225
#
#
# Mechanical properties :
#
#
# Convention : Reuss Voigt Hill
#
# Bulk Modulus (GPa) = 53.24770 54.47900 53.86335
# Shear Modulus (GPa) = 18.15569 25.49108 21.82339
#
# Velocity S-wave (km/s) = 3.02288 3.58186 3.31418
# Velocity P-wave (km/s) = 6.24368 6.67276 6.46178
#
# Compressibility (1/GPa) = 0.01878015
#
# Stress axis : x y z
#
# Youngs Moduli (GPa) = 36.88109 79.65271 32.92207
#
# Poissons Ratio (x) = -0.02813 0.60177
# Poissons Ratio (y) = -0.01303 0.25370
# Poissons Ratio (z) = 0.67414 0.61382
#
# Static dielectric constant tensor:
#      x y z
#    x 1.773540 0.000000 0.000000 
#    y 0.000000 1.751720 0.000000 
#    z 0.000000 0.000000 1.689300 
# 
# From -- ./inp_files/28301.got.cif
#   From: 2010.05.17/outbox.cif.g08.bks.cpg/sg23_15_cif.got.tgz:28301.got - 2010.06.04 12:02:01.
