data_PCOD9331483
_publ_section_title
;
Structure prediction by ZEFSAII (Michael W. Deem and Ramdas Pophale) SiO2 
 PCOD9331483
Probable space group: I 2 2 2
;
_chemical_formula_sum "Si O2"
_cell_formula_units_Z 38
_cell_length_a 27.012597
_cell_length_b 5.336892
_cell_length_c 11.409314
_cell_angle_alpha 90.000000
_cell_angle_beta 90.000000
_cell_angle_gamma 90.000000
_cell_volume 1644.804503
_symmetry_space_group_name_H-M "I 2 2 2"
_symmetry_group_IT_number 23
_symmetry_cell_setting 'orthorhombic'
loop_
_space_group_symop_operation_xyz
x,y,z
-x,-y,z
x,-y,-z
-x,y,-z
1/2+x,1/2+y,1/2+z
1/2-x,1/2-y,1/2+z
1/2+x,1/2-y,1/2-z
1/2-x,1/2+y,1/2-z
loop_
_atom_site_type_symbol
_atom_site_label
_atom_site_fract_x
_atom_site_fract_y
_atom_site_fract_z
Si Si1 0.500000 0.500000 0.000000
Si Si2 0.676592 0.353720 0.818701
Si Si3 0.275967 0.875955 0.620256
Si Si4 0.557862 0.930601 0.367411
Si Si5 0.075596 0.910942 0.715473
Si Si6 0.294058 0.000000 0.000000
O O1 0.539690 0.601327 0.899717
O O2 0.678681 0.185212 0.702990
O O3 0.732962 0.451297 0.826543
O O4 0.632724 0.544897 0.816376
O O5 0.671897 0.192875 0.934286
O O6 0.243770 0.633946 0.586988
O O7 0.292979 0.000000 0.500000
O O8 0.575808 0.145675 0.279706
O O9 0.500000 0.000000 0.374851
O O10 0.577354 0.000000 0.500000
O O11 0.562898 0.651044 0.305183
#
# Coordination Sequence:
#
# PCOD9331483 Si02
#       6
#     2   8   8   8   8   4
#     4  12  28  50  70 118 156 194 260 312 364 488
#     4  11  24  42  71 101 144 193 247 298 388 443
#     4  10  22  42  66  98 138 186 242 309 362 445
#     4  11  24  51  76 104 142 189 250 316 382 441
#     4  12  28  45  77 111 150 202 246 315 381 450
#     4  10  22  42  64  95 138 191 228 308 360 440
#
# _framework density 23.10305
#
# number of rings (size 3 to 8) (size 9 to 14) (size 15 to 20)
#    0.000    1.053    4.211    0.632    7.368    4.211 
#    3.789    0.000    0.000    0.000    0.000    0.000 
#    0.000    0.000    0.000    0.000    0.000    0.000 
#
# Total GULP energy -105878.094703 kJ/mol
# GULP energy per Si atom -5572.531300 kJ/mol
# Density = 2.305047 g / cm^3
# Si number density = 23.103050 Si / 1000 Ang^3
#
#
#
# Elastic Constant Matrix: (Units=GPa)
#
#
# Indices 1 2 3 4 5 6 
#
# 1 58.8643 1.8360 43.6067 0.0000 0.0000 0.0000
# 2 1.8360 85.9184 28.2341 0.0000 0.0000 0.0000
# 3 43.6067 28.2341 139.6251 0.0000 0.0000 0.0000
# 4 0.0000 0.0000 0.0000 -1.5984 0.0000 0.0000
# 5 0.0000 0.0000 0.0000 0.0000 15.8406 0.0000
# 6 0.0000 0.0000 0.0000 0.0000 0.0000 29.3327
#
#
#
# Elastic Compliance Matrix: (Units=1/GPa)
#
#
# Indices 1 2 3 4 5 6 
#
# 1 0.022403 0.001950 -0.007391 0.000000 0.000000 0.000000
# 2 0.001950 0.012637 -0.003164 0.000000 0.000000 0.000000
# 3 -0.007391 -0.003164 0.010110 0.000000 0.000000 0.000000
# 4 0.000000 0.000000 0.000000 -0.625610 0.000000 0.000000
# 5 0.000000 0.000000 0.000000 0.000000 0.063129 0.000000
# 6 0.000000 0.000000 0.000000 0.000000 0.000000 0.034092
#
#
# Mechanical properties :
#
#
# Convention : Reuss Voigt Hill
#
# Bulk Modulus (GPa) = 35.79182 47.97350 41.88266
# Shear Modulus (GPa) = -10.94774 22.76371 5.90799
#
# Velocity S-wave (km/s) = -2.17921 3.14237 1.60087
# Velocity P-wave (km/s) = 3.03215 5.82890 4.64597
#
# Compressibility (1/GPa) = 0.02793934
#
# Stress axis : x y z
#
# Youngs Moduli (GPa) = 44.63761 79.13174 98.90987
#
# Poissons Ratio (x) = -0.15431 0.73104
# Poissons Ratio (y) = -0.08705 0.31299
# Poissons Ratio (z) = 0.32991 0.25041
#
# Static dielectric constant tensor:
#      x y z
#    x 1.922330 0.000000 0.000000 
#    y 0.000000 1.948100 0.000000 
#    z 0.000000 0.000000 1.995580 
# 
# From -- ./inp_files/18503.got.cif
#   From: 2010.05.17/outbox.cif.g08.bks.cpg/sg23_10_cif.got.tgz:18503.got - 2010.06.04 12:02:01.
