data_PCOD9331846
_publ_section_title
;
Structure prediction by ZEFSAII (Michael W. Deem and Ramdas Pophale) SiO2 
 PCOD9331846
Probable space group: I 2 2 2
;
_chemical_formula_sum "Si O2"
_cell_formula_units_Z 56
_cell_length_a 8.743426
_cell_length_b 13.441562
_cell_length_c 22.564719
_cell_angle_alpha 90.000000
_cell_angle_beta 90.000000
_cell_angle_gamma 90.000000
_cell_volume 2651.925430
_symmetry_space_group_name_H-M "I 2 2 2"
_symmetry_group_IT_number 23
_symmetry_cell_setting 'orthorhombic'
loop_
_space_group_symop_operation_xyz
x,y,z
-x,-y,z
x,-y,-z
-x,y,-z
1/2+x,1/2+y,1/2+z
1/2-x,1/2-y,1/2+z
1/2+x,1/2-y,1/2-z
1/2-x,1/2+y,1/2-z
loop_
_atom_site_type_symbol
_atom_site_label
_atom_site_fract_x
_atom_site_fract_y
_atom_site_fract_z
Si Si1 0.334585 0.115580 0.278942
Si Si2 0.910100 0.400603 0.091564
Si Si3 0.678776 0.529815 0.564188
Si Si4 0.815793 0.258034 0.892275
Si Si5 0.668002 0.618924 0.006782
Si Si6 0.320642 0.532636 0.690941
Si Si7 0.829774 0.708416 0.243564
O O1 0.347587 0.067717 0.343981
O O2 0.193645 0.192434 0.281284
O O3 0.499410 0.164046 0.262273
O O4 0.286133 0.040923 0.228021
O O5 0.787980 0.360198 0.044998
O O6 0.000000 0.500000 0.069226
O O7 0.015646 0.305031 0.103219
O O8 0.500000 0.500000 0.560784
O O9 0.746060 0.500000 0.500000
O O10 0.693374 0.647124 0.580668
O O11 0.732457 0.470103 0.622543
O O12 0.776760 0.262872 0.822975
O O13 0.723937 0.337521 0.931302
O O14 0.658271 0.500000 0.000000
O O15 0.500000 0.661828 0.000000
O O16 0.500000 0.500000 0.693047
O O17 0.288433 0.634759 0.724371
#
# Coordination Sequence:
#
# PCOD9331846 Si02
#       7
#     8   8   8   8   8   8   8
#     4  11  23  42  65 100 131 174 220 278 340 403
#     4  11  23  41  68 100 132 178 230 272 339 418
#     4  10  24  42  69  98 128 176 232 280 324 398
#     4  11  23  44  67  97 137 177 234 277 333 416
#     4  11  25  41  64 101 142 176 220 283 353 407
#     4  11  23  42  67  97 135 170 226 280 339 403
#     4  11  24  41  69  97 134 173 221 278 340 409
#
# _framework density 21.116733
#
# number of rings (size 3 to 8) (size 9 to 14) (size 15 to 20)
#    0.000    1.143    2.857    3.429   10.000    2.286 
#    0.000    0.000    0.000    0.000    0.000    0.000 
#    0.000    0.000    0.000    0.000    0.000    0.000 
#
# Total GULP energy -156191.873498 kJ/mol
# GULP energy per Si atom -5578.281196 kJ/mol
# Density = 2.106867 g / cm^3
# Si number density = 21.116733 Si / 1000 Ang^3
#
#
#
# Elastic Constant Matrix: (Units=GPa)
#
#
# Indices 1 2 3 4 5 6 
#
# 1 42.8586 -3.5255 32.8012 0.0000 0.0000 0.0000
# 2 -3.5255 84.5439 41.2187 0.0000 0.0000 0.0000
# 3 32.8012 41.2187 136.3808 0.0000 0.0000 0.0000
# 4 0.0000 0.0000 0.0000 42.4824 0.0000 0.0000
# 5 0.0000 0.0000 0.0000 0.0000 28.0901 0.0000
# 6 0.0000 0.0000 0.0000 0.0000 0.0000 18.5761
#
#
#
# Elastic Compliance Matrix: (Units=1/GPa)
#
#
# Indices 1 2 3 4 5 6 
#
# 1 0.030803 0.005743 -0.009144 0.000000 0.000000 0.000000
# 2 0.005743 0.014943 -0.005897 0.000000 0.000000 0.000000
# 3 -0.009144 -0.005897 0.011314 0.000000 0.000000 0.000000
# 4 0.000000 0.000000 0.000000 0.023539 0.000000 0.000000
# 5 0.000000 0.000000 0.000000 0.000000 0.035600 0.000000
# 6 0.000000 0.000000 0.000000 0.000000 0.000000 0.053833
#
#
# Mechanical properties :
#
#
# Convention : Reuss Voigt Hill
#
# Bulk Modulus (GPa) = 25.99938 44.97467 35.48702
# Shear Modulus (GPa) = 24.81999 30.71563 27.76781
#
# Velocity S-wave (km/s) = 3.43209 3.81801 3.63018
# Velocity P-wave (km/s) = 5.29571 6.38597 5.86623
#
# Compressibility (1/GPa) = 0.03846246
#
# Stress axis : x y z
#
# Youngs Moduli (GPa) = 32.46402 66.92147 88.38535
#
# Poissons Ratio (x) = -0.38431 0.80821
# Poissons Ratio (y) = -0.18643 0.52124
# Poissons Ratio (z) = 0.29686 0.39466
#
# Static dielectric constant tensor:
#      x y z
#    x 1.796970 0.000000 0.000000 
#    y 0.000000 1.827800 0.000000 
#    z 0.000000 0.000000 1.792120 
# 
# From -- ./inp_files/26270.got.cif
#   From: 2010.05.17/outbox.cif.g08.bks.cpg/sg23_14_cif.got.tgz:26270.got - 2010.06.04 12:02:01.
