data_PCOD9331572
_publ_section_title
;
Structure prediction by ZEFSAII (Michael W. Deem and Ramdas Pophale) SiO2 
 PCOD9331572
Probable space group: I 2 2 2
;
_chemical_formula_sum "Si O2"
_cell_formula_units_Z 58
_cell_length_a 27.686528
_cell_length_b 12.292590
_cell_length_c 7.445072
_cell_angle_alpha 90.000000
_cell_angle_beta 90.000000
_cell_angle_gamma 90.000000
_cell_volume 2533.849381
_symmetry_space_group_name_H-M "I 2 2 2"
_symmetry_group_IT_number 23
_symmetry_cell_setting 'orthorhombic'
loop_
_space_group_symop_operation_xyz
x,y,z
-x,-y,z
x,-y,-z
-x,y,-z
1/2+x,1/2+y,1/2+z
1/2-x,1/2-y,1/2+z
1/2+x,1/2-y,1/2-z
1/2-x,1/2+y,1/2-z
loop_
_atom_site_type_symbol
_atom_site_label
_atom_site_fract_x
_atom_site_fract_y
_atom_site_fract_z
Si Si1 0.116771 0.464432 0.178838
Si Si2 0.437230 0.239045 0.669595
Si Si3 0.639648 0.815333 0.113475
Si Si4 0.340714 0.624782 0.310551
Si Si5 0.799105 0.655965 0.268695
Si Si6 0.959537 0.699027 0.740093
Si Si7 0.500000 0.000000 0.000000
Si Si8 0.311204 0.394042 0.276240
O O1 0.082157 0.372917 0.259572
O O2 0.131048 0.574848 0.274375
O O3 0.165594 0.398880 0.123119
O O4 0.089916 0.500000 0.000000
O O5 0.394472 0.325263 0.704193
O O6 0.443462 0.214871 0.453087
O O7 0.489327 0.261681 0.754219
O O8 0.586055 0.762294 0.122833
O O9 0.672329 0.716124 0.181370
O O10 0.668665 0.862232 0.944677
O O11 0.301345 0.714338 0.249939
O O12 0.332017 0.510248 0.214236
O O13 0.330061 0.614229 0.520820
O O14 0.746799 0.605737 0.273790
O O15 0.972426 0.582632 0.641422
#
# Coordination Sequence:
#
# PCOD9331572 Si02
#       8
#     8   8   8   8   8   8   2   8
#     4  11  22  39  63  94 134 174 221 271 330 418
#     4  10  22  45  65  92 132 183 224 274 334 411
#     4  12  24  40  65 101 134 170 225 275 348 402
#     4  10  23  46  66  94 131 180 235 274 331 410
#     4  11  26  40  66  99 139 174 215 282 351 406
#     4  11  24  40  66  97 134 178 219 277 344 404
#     4  12  28  34  64 108 142 166 216 272 368 416
#     4  11  24  45  70  93 131 180 233 280 329 409
#
# _framework density 22.890076000000001
#
# number of rings (size 3 to 8) (size 9 to 14) (size 15 to 20)
#    0.000    1.103    2.759    2.897   11.586    1.103 
#    0.000    0.690    0.000    0.000    0.000    0.000 
#    0.000    0.000    0.000    0.000    0.000    0.000 
#
# Total GULP energy -161612.710722 kJ/mol
# GULP energy per Si atom -5572.852094 kJ/mol
# Density = 2.283798 g / cm^3
# Si number density = 22.890076 Si / 1000 Ang^3
#
#
#
# Elastic Constant Matrix: (Units=GPa)
#
#
# Indices 1 2 3 4 5 6 
#
# 1 177.5083 38.1021 14.0888 0.0000 0.0000 0.0000
# 2 38.1021 100.8109 26.5944 0.0000 0.0000 0.0000
# 3 14.0888 26.5944 70.3626 0.0000 0.0000 0.0000
# 4 0.0000 0.0000 0.0000 22.3377 0.0000 0.0000
# 5 0.0000 0.0000 0.0000 0.0000 43.2568 0.0000
# 6 0.0000 0.0000 0.0000 0.0000 0.0000 16.1758
#
#
#
# Elastic Compliance Matrix: (Units=1/GPa)
#
#
# Indices 1 2 3 4 5 6 
#
# 1 0.006141 -0.002218 -0.000391 0.000000 0.000000 0.000000
# 2 -0.002218 0.011819 -0.004023 0.000000 0.000000 0.000000
# 3 -0.000391 -0.004023 0.015811 0.000000 0.000000 0.000000
# 4 0.000000 0.000000 0.000000 0.044767 0.000000 0.000000
# 5 0.000000 0.000000 0.000000 0.000000 0.023118 0.000000
# 6 0.000000 0.000000 0.000000 0.000000 0.000000 0.061821
#
#
# Mechanical properties :
#
#
# Convention : Reuss Voigt Hill
#
# Bulk Modulus (GPa) = 48.76507 56.25027 52.50767
# Shear Modulus (GPa) = 27.23666 34.34717 30.79191
#
# Velocity S-wave (km/s) = 3.45322 3.87787 3.67169
# Velocity P-wave (km/s) = 6.10327 6.68415 6.40030
#
# Compressibility (1/GPa) = 0.02050648
#
# Stress axis : x y z
#
# Youngs Moduli (GPa) = 162.85006 84.60914 63.24698
#
# Poissons Ratio (x) = 0.18763 0.02475
# Poissons Ratio (y) = 0.36114 0.25445
# Poissons Ratio (z) = 0.06373 0.34039
#
# Static dielectric constant tensor:
#      x y z
#    x 1.865750 0.000000 0.000000 
#    y 0.000000 1.873110 0.000000 
#    z 0.000000 0.000000 2.019730 
# 
# From -- ./inp_files/13081.got.cif
#   From: 2010.05.17/outbox.cif.g08.bks.cpg/sg23_7_cif.got.tgz:13081.got - 2010.06.04 12:02:01.
