data_PCOD9331445
_publ_section_title
;
Structure prediction by ZEFSAII (Michael W. Deem and Ramdas Pophale) SiO2 
 PCOD9331445
Probable space group: I 2 2 2
;
_chemical_formula_sum "Si O2"
_cell_formula_units_Z 48
_cell_length_a 30.176569
_cell_length_b 8.948795
_cell_length_c 8.322263
_cell_angle_alpha 90.000000
_cell_angle_beta 90.000000
_cell_angle_gamma 90.000000
_cell_volume 2247.376605
_symmetry_space_group_name_H-M "I 2 2 2"
_symmetry_group_IT_number 23
_symmetry_cell_setting 'orthorhombic'
loop_
_space_group_symop_operation_xyz
x,y,z
-x,-y,z
x,-y,-z
-x,y,-z
1/2+x,1/2+y,1/2+z
1/2-x,1/2-y,1/2+z
1/2+x,1/2-y,1/2-z
1/2-x,1/2+y,1/2-z
loop_
_atom_site_type_symbol
_atom_site_label
_atom_site_fract_x
_atom_site_fract_y
_atom_site_fract_z
Si Si1 0.342693 0.562536 0.179197
Si Si2 0.810074 0.658331 0.917254
Si Si3 0.604111 0.702461 0.242614
Si Si4 0.449981 0.035732 0.313123
Si Si5 0.741378 0.391623 0.366215
Si Si6 0.878627 0.360308 0.591989
O O1 0.385772 0.473595 0.243088
O O2 0.299661 0.523958 0.281516
O O3 0.349025 0.740958 0.185670
O O4 0.334440 0.500000 0.000000
O O5 0.855555 0.728948 0.848869
O O6 0.777981 0.644065 0.764113
O O7 0.820206 0.500000 0.000000
O O8 0.781278 0.752808 0.044127
O O9 0.560659 0.787677 0.300352
O O10 0.605523 0.756229 0.056292
O O11 0.500000 0.000000 0.262819
O O12 0.444340 0.000000 0.500000
O O13 0.415890 0.938029 0.203926
O O14 0.760167 0.500000 0.500000
O O15 0.856950 0.500000 0.500000
#
# Coordination Sequence:
#
# PCOD9331445 Si02
#       6
#     8   8   8   8   8   8
#     4  10  22  42  64  90 132 170 221 281 340 405
#     4  12  27  42  64  96 132 178 235 286 344 420
#     4  10  22  41  63  94 128 174 222 273 347 404
#     4  10  22  41  66  98 134 168 218 281 340 416
#     4  12  26  43  63  91 131 181 222 292 343 401
#     4   9  21  37  66  93 124 167 216 272 333 406
#
# _framework density 21.358236000000002
#
# number of rings (size 3 to 8) (size 9 to 14) (size 15 to 20)
#    0.000    1.500    1.667    2.000   11.667    5.000 
#    0.000    0.833    0.000    7.000    0.000    0.000 
#    0.000    0.000    0.000    0.000    0.000    0.000 
#
# Total GULP energy -134000.916586 kJ/mol
# GULP energy per Si atom -5583.371524 kJ/mol
# Density = 2.130962 g / cm^3
# Si number density = 21.358236 Si / 1000 Ang^3
#
#
#
# Elastic Constant Matrix: (Units=GPa)
#
#
# Indices 1 2 3 4 5 6 
#
# 1 100.2387 36.6981 34.8272 0.0000 0.0000 0.0000
# 2 36.6981 108.8543 33.4974 0.0000 0.0000 0.0000
# 3 34.8272 33.4974 89.4443 0.0000 0.0000 0.0000
# 4 0.0000 0.0000 0.0000 35.4102 0.0000 0.0000
# 5 0.0000 0.0000 0.0000 0.0000 17.5129 0.0000
# 6 0.0000 0.0000 0.0000 0.0000 0.0000 1.8460
#
#
#
# Elastic Compliance Matrix: (Units=1/GPa)
#
#
# Indices 1 2 3 4 5 6 
#
# 1 0.012366 -0.003037 -0.003677 0.000000 0.000000 0.000000
# 2 -0.003037 0.011129 -0.002985 0.000000 0.000000 0.000000
# 3 -0.003677 -0.002985 0.013730 0.000000 0.000000 0.000000
# 4 0.000000 0.000000 0.000000 0.028240 0.000000 0.000000
# 5 0.000000 0.000000 0.000000 0.000000 0.057101 0.000000
# 6 0.000000 0.000000 0.000000 0.000000 0.000000 0.541726
#
#
# Mechanical properties :
#
#
# Convention : Reuss Voigt Hill
#
# Bulk Modulus (GPa) = 56.10083 56.50919 56.30501
# Shear Modulus (GPa) = 7.25022 23.85477 15.55250
#
# Velocity S-wave (km/s) = 1.84444 3.34561 2.70140
# Velocity P-wave (km/s) = 5.55514 6.43735 6.01244
#
# Compressibility (1/GPa) = 0.01782505
#
# Stress axis : x y z
#
# Youngs Moduli (GPa) = 80.86786 89.85365 72.83289
#
# Poissons Ratio (x) = 0.27291 0.26784
# Poissons Ratio (y) = 0.24562 0.21743
# Poissons Ratio (z) = 0.29739 0.26824
#
# Static dielectric constant tensor:
#      x y z
#    x 1.739780 0.000000 0.000000 
#    y 0.000000 1.884380 0.000000 
#    z 0.000000 0.000000 1.800370 
# 
# From -- ./inp_files/13348.got.cif
#   From: 2010.05.17/outbox.cif.g08.bks.cpg/sg23_7_cif.got.tgz:13348.got - 2010.06.04 12:02:01.
