data_PCOD9331157
_publ_section_title
;
Structure prediction by ZEFSAII (Michael W. Deem and Ramdas Pophale) SiO2 
 PCOD9331157
Probable space group: I 2 2 2
;
_chemical_formula_sum "Si O2"
_cell_formula_units_Z 36
_cell_length_a 8.188931
_cell_length_b 23.214496
_cell_length_c 9.287348
_cell_angle_alpha 90.000000
_cell_angle_beta 90.000000
_cell_angle_gamma 90.000000
_cell_volume 1765.542556
_symmetry_space_group_name_H-M "I 2 2 2"
_symmetry_group_IT_number 23
_symmetry_cell_setting 'orthorhombic'
loop_
_space_group_symop_operation_xyz
x,y,z
-x,-y,z
x,-y,-z
-x,y,-z
1/2+x,1/2+y,1/2+z
1/2-x,1/2-y,1/2+z
1/2+x,1/2-y,1/2-z
1/2-x,1/2+y,1/2-z
loop_
_atom_site_type_symbol
_atom_site_label
_atom_site_fract_x
_atom_site_fract_y
_atom_site_fract_z
Si Si1 0.899417 0.928936 0.762903
Si Si2 0.735341 0.420030 0.424257
Si Si3 0.500000 0.000000 0.000000
Si Si4 0.344955 0.712373 0.393395
Si Si5 0.421342 0.690655 0.857204
Si Si6 0.000000 0.000000 0.500000
O O1 0.852484 0.862829 0.731811
O O2 0.890705 0.962900 0.612698
O O3 0.089532 0.933353 0.813012
O O4 0.810702 0.941499 0.913938
O O5 0.898855 0.455549 0.398891
O O6 0.736749 0.350343 0.420260
O O7 0.500000 0.718643 0.500000
O O8 0.430475 0.715239 0.237587
O O9 0.210442 0.761802 0.399126
O O10 0.500000 0.665165 0.000000
#
# Coordination Sequence:
#
# PCOD9331157 Si02
#       6
#     8   8   2   8   8   2
#     4  10  21  41  64  86 123 166 210 253 321 388
#     4  10  22  43  61  90 123 165 213 258 316 376
#     4  12  24  34  66  94 112 158 224 284 292 346
#     4  11  22  41  64  91 133 169 209 262 319 388
#     4  11  22  37  63  98 124 166 212 257 321 382
#     4  12  20  34  66  86 108 158 212 256 292 374
#
# _framework density 20.390332000000001
#
# number of rings (size 3 to 8) (size 9 to 14) (size 15 to 20)
#    0.000    1.333    5.556    2.667    1.556    1.778 
#    0.000    0.000    0.000    6.000    0.000    0.000 
#    0.000    0.000    0.000    0.000    0.000    0.000 
#
# Total GULP energy -100319.994055 kJ/mol
# GULP energy per Si atom -5573.333003 kJ/mol
# Density = 2.034392 g / cm^3
# Si number density = 20.390332 Si / 1000 Ang^3
#
#
#
# Elastic Constant Matrix: (Units=GPa)
#
#
# Indices 1 2 3 4 5 6 
#
# 1 61.3492 55.6393 9.1869 0.0004 0.0001 0.0000
# 2 55.6393 128.1938 30.9674 0.0008 0.0005 -0.0001
# 3 9.1869 30.9674 109.8555 -0.0005 0.0012 0.0001
# 4 0.0004 0.0008 -0.0005 33.7488 0.0000 0.0002
# 5 0.0001 0.0005 0.0012 0.0000 15.7814 0.0004
# 6 0.0000 -0.0001 0.0001 0.0002 0.0004 42.7089
#
#
#
# Elastic Compliance Matrix: (Units=1/GPa)
#
#
# Indices 1 2 3 4 5 6 
#
# 1 0.027010 -0.011994 0.001122 0.000000 0.000000 0.000000
# 2 -0.011994 0.013697 -0.002858 0.000000 0.000000 0.000000
# 3 0.001122 -0.002858 0.009815 0.000000 -0.000001 0.000000
# 4 0.000000 0.000000 0.000000 0.029631 0.000000 0.000000
# 5 0.000000 0.000000 -0.000001 0.000000 0.063366 -0.000001
# 6 0.000000 0.000000 0.000000 0.000000 -0.000001 0.023414
#
#
# Mechanical properties :
#
#
# Convention : Reuss Voigt Hill
#
# Bulk Modulus (GPa) = 43.36186 54.55398 48.95792
# Shear Modulus (GPa) = 24.74283 32.02147 28.38215
#
# Velocity S-wave (km/s) = 3.48725 3.96716 3.73492
# Velocity P-wave (km/s) = 6.12590 6.91356 6.53162
#
# Compressibility (1/GPa) = 0.02306174
#
# Stress axis : x y z
#
# Youngs Moduli (GPa) = 37.02358 73.00970 101.88843
#
# Poissons Ratio (x) = 0.87568 -0.11435
# Poissons Ratio (y) = 0.44406 0.29120
# Poissons Ratio (z) = -0.04155 0.20866
#
# Static dielectric constant tensor:
#      x y z
#    x 1.744510 0.000000 0.000000 
#    y 0.000000 1.799240 0.000000 
#    z 0.000000 0.000000 1.774280 
# 
# From -- ./inp_files/7059.got.cif
#   From: 2010.05.17/outbox.cif.g08.bks.cpg/sg23_4_cif.got.tgz:7059.got - 2010.06.04 12:02:01.
