data_PCOD9331937
_publ_section_title
;
Structure prediction by ZEFSAII (Michael W. Deem and Ramdas Pophale) SiO2 
 PCOD9331937
Probable space group: I 2 2 2
;
_chemical_formula_sum "Si O2"
_cell_formula_units_Z 40
_cell_length_a 13.599120
_cell_length_b 8.681827
_cell_length_c 13.846629
_cell_angle_alpha 90.000000
_cell_angle_beta 90.000000
_cell_angle_gamma 90.000000
_cell_volume 1634.805122
_symmetry_space_group_name_H-M "I 2 2 2"
_symmetry_group_IT_number 23
_symmetry_cell_setting 'orthorhombic'
loop_
_space_group_symop_operation_xyz
x,y,z
-x,-y,z
x,-y,-z
-x,y,-z
1/2+x,1/2+y,1/2+z
1/2-x,1/2-y,1/2+z
1/2+x,1/2-y,1/2-z
1/2-x,1/2+y,1/2-z
loop_
_atom_site_type_symbol
_atom_site_label
_atom_site_fract_x
_atom_site_fract_y
_atom_site_fract_z
Si Si1 0.186363 0.549537 0.869697
Si Si2 0.100026 0.072765 0.354299
Si Si3 0.378284 0.253442 0.452033
Si Si4 0.102658 0.576265 0.669882
Si Si5 0.500000 0.500000 0.661479
Si Si6 0.783987 0.500000 0.500000
O O1 0.301719 0.515048 0.887564
O O2 0.137734 0.381088 0.875424
O O3 0.170965 0.604405 0.761834
O O4 0.129610 0.656625 0.947129
O O5 0.095295 0.254011 0.376248
O O6 0.085669 0.050472 0.236773
O O7 0.000000 0.000000 0.392880
O O8 0.462329 0.362705 0.406847
O O9 0.286552 0.365691 0.464394
O O10 0.149679 0.461898 0.591711
O O11 0.000000 0.500000 0.699539
#
# Coordination Sequence:
#
# PCOD9331937 Si02
#       6
#     8   8   8   8   4   4
#     4  11  26  51  76 114 164 209 261 336 415 480
#     4  10  25  46  82 112 156 212 266 331 411 491
#     4  11  26  48  77 116 157 207 264 328 403 490
#     4  12  27  48  75 113 153 207 265 333 402 493
#     4  10  24  49  82 119 154 210 275 330 404 493
#     4  12  27  45  78 106 150 198 265 320 395 486
#
# _framework density 24.467748
#
# number of rings (size 3 to 8) (size 9 to 14) (size 15 to 20)
#    0.600    0.400    2.000    2.700    8.400    0.400 
#    5.400    3.000    0.000    0.000    0.000    0.000 
#    0.000    0.000    0.000    0.000    0.000    0.000 
#
# Total GULP energy -111766.314764 kJ/mol
# GULP energy per Si atom -5588.315738 kJ/mol
# Density = 2.441206 g / cm^3
# Si number density = 24.467748 Si / 1000 Ang^3
#
#
#
# Elastic Constant Matrix: (Units=GPa)
#
#
# Indices 1 2 3 4 5 6 
#
# 1 113.7752 72.3027 27.4680 0.0000 0.0000 0.0000
# 2 72.3027 103.5391 21.7663 0.0000 0.0000 0.0000
# 3 27.4680 21.7663 110.7730 0.0000 0.0000 0.0000
# 4 0.0000 0.0000 0.0000 14.9952 0.0000 0.0000
# 5 0.0000 0.0000 0.0000 0.0000 25.0482 0.0000
# 6 0.0000 0.0000 0.0000 0.0000 0.0000 42.4579
#
#
#
# Elastic Compliance Matrix: (Units=1/GPa)
#
#
# Indices 1 2 3 4 5 6 
#
# 1 0.016163 -0.010895 -0.001867 0.000000 0.000000 0.000000
# 2 -0.010895 0.017418 -0.000721 0.000000 0.000000 0.000000
# 3 -0.001867 -0.000721 0.009632 0.000000 0.000000 0.000000
# 4 0.000000 0.000000 0.000000 0.066688 0.000000 0.000000
# 5 0.000000 0.000000 0.000000 0.000000 0.039923 0.000000
# 6 0.000000 0.000000 0.000000 0.000000 0.000000 0.023553
#
#
# Mechanical properties :
#
#
# Convention : Reuss Voigt Hill
#
# Bulk Modulus (GPa) = 61.54781 63.46237 62.50509
# Shear Modulus (GPa) = 24.30034 30.27029 27.28531
#
# Velocity S-wave (km/s) = 3.15486 3.52113 3.34302
# Velocity P-wave (km/s) = 6.20324 6.52109 6.36415
#
# Compressibility (1/GPa) = 0.01624753
#
# Stress axis : x y z
#
# Youngs Moduli (GPa) = 61.86795 57.41316 103.81889
#
# Poissons Ratio (x) = 0.62549 0.19386
# Poissons Ratio (y) = 0.67403 0.07485
# Poissons Ratio (z) = 0.11552 0.04139
#
# Static dielectric constant tensor:
#      x y z
#    x 1.975070 0.000000 0.000000 
#    y 0.000000 1.905680 0.000000 
#    z 0.000000 0.000000 1.985380 
# 
# From -- ./inp_files/21375.got.cif
#   From: 2010.05.17/outbox.cif.g08.bks.cpg/sg23_11_cif.got.tgz:21375.got - 2010.06.04 12:02:01.
