data_PCOD9331443
_publ_section_title
;
Structure prediction by ZEFSAII (Michael W. Deem and Ramdas Pophale) SiO2 
 PCOD9331443
Probable space group: I 2 2 2
;
_chemical_formula_sum "Si O2"
_cell_formula_units_Z 36
_cell_length_a 9.900388
_cell_length_b 8.507896
_cell_length_c 20.193251
_cell_angle_alpha 90.000000
_cell_angle_beta 90.000000
_cell_angle_gamma 90.000000
_cell_volume 1700.907245
_symmetry_space_group_name_H-M "I 2 2 2"
_symmetry_group_IT_number 23
_symmetry_cell_setting 'orthorhombic'
loop_
_space_group_symop_operation_xyz
x,y,z
-x,-y,z
x,-y,-z
-x,y,-z
1/2+x,1/2+y,1/2+z
1/2-x,1/2-y,1/2+z
1/2+x,1/2-y,1/2-z
1/2-x,1/2+y,1/2-z
loop_
_atom_site_type_symbol
_atom_site_label
_atom_site_fract_x
_atom_site_fract_y
_atom_site_fract_z
Si Si1 0.367064 0.091274 0.602396
Si Si2 0.452114 0.326843 0.700250
Si Si3 0.500000 0.000000 0.854444
Si Si4 0.322791 0.088716 0.258955
Si Si5 0.437087 0.662649 0.927026
O O1 0.421367 0.256283 0.628618
O O2 0.224158 0.125569 0.567723
O O3 0.500000 0.000000 0.574672
O O4 0.330028 0.003735 0.672030
O O5 0.500000 0.500000 0.692343
O O6 0.566730 0.224476 0.734274
O O7 0.319096 0.336007 0.744093
O O8 0.628728 0.989654 0.804857
O O9 0.527139 0.167269 0.892855
O O10 0.500000 0.500000 0.895674
O O11 0.500000 0.673414 0.000000
#
# Coordination Sequence:
#
# PCOD9331443 Si02
#       5
#     8   8   4   8   8
#     4  10  22  41  63 100 145 179 235 298 362 437
#     4  11  22  34  58  97 148 182 223 275 371 447
#     4  12  23  40  72 104 152 177 238 302 354 446
#     4  11  23  36  60 106 147 186 221 295 378 431
#     4  11  27  48  72 101 135 201 253 290 348 418
#
# _framework density 21.165175000000001
#
# number of rings (size 3 to 8) (size 9 to 14) (size 15 to 20)
#    0.000    1.111    5.556    1.667    3.111    1.778 
#    0.000    2.222    0.000    0.000    0.000    0.000 
#    0.000    0.000    0.000    0.000    0.000    0.000 
#
# Total GULP energy -100389.988990 kJ/mol
# GULP energy per Si atom -5577.221611 kJ/mol
# Density = 2.111700 g / cm^3
# Si number density = 21.165175 Si / 1000 Ang^3
#
#
#
# Elastic Constant Matrix: (Units=GPa)
#
#
# Indices 1 2 3 4 5 6 
#
# 1 194.1474 72.6029 51.4929 0.0000 0.0000 0.0000
# 2 72.6029 141.1836 55.4056 0.0000 0.0000 0.0000
# 3 51.4929 55.4056 91.5896 0.0000 0.0000 0.0000
# 4 0.0000 0.0000 0.0000 19.4460 0.0000 0.0000
# 5 0.0000 0.0000 0.0000 0.0000 38.7837 0.0000
# 6 0.0000 0.0000 0.0000 0.0000 0.0000 -1.0591
#
#
#
# Elastic Compliance Matrix: (Units=1/GPa)
#
#
# Indices 1 2 3 4 5 6 
#
# 1 0.006701 -0.002580 -0.002207 0.000000 0.000000 0.000000
# 2 -0.002580 0.010281 -0.004769 0.000000 0.000000 0.000000
# 3 -0.002207 -0.004769 0.015044 0.000000 0.000000 0.000000
# 4 0.000000 0.000000 0.000000 0.051425 0.000000 0.000000
# 5 0.000000 0.000000 0.000000 0.000000 0.025784 0.000000
# 6 0.000000 0.000000 0.000000 0.000000 0.000000 -0.944238
#
#
# Mechanical properties :
#
#
# Convention : Reuss Voigt Hill
#
# Bulk Modulus (GPa) = 77.43066 87.32480 82.37773
# Shear Modulus (GPa) = -6.16076 27.92874 10.88399
#
# Velocity S-wave (km/s) = -1.70796 3.63652 2.27015
# Velocity P-wave (km/s) = 5.72485 7.67988 6.77328
#
# Compressibility (1/GPa) = 0.01291478
#
# Stress axis : x y z
#
# Youngs Moduli (GPa) = 149.23748 97.26510 66.47271
#
# Poissons Ratio (x) = 0.25093 0.14668
# Poissons Ratio (y) = 0.38501 0.31701
# Poissons Ratio (z) = 0.32931 0.46386
#
# Static dielectric constant tensor:
#      x y z
#    x 1.783650 0.000000 0.000000 
#    y 0.000000 1.831500 0.000000 
#    z 0.000000 0.000000 1.776440 
# 
# From -- ./inp_files/25969.got.cif
#   From: 2010.05.17/outbox.cif.g08.bks.cpg/sg23_13_cif.got.tgz:25969.got - 2010.06.04 12:02:01.
