data_PCOD9331932
_publ_section_title
;
Structure prediction by ZEFSAII (Michael W. Deem and Ramdas Pophale) SiO2 
 PCOD9331932
Probable space group: I 2 2 2
;
_chemical_formula_sum "Si O2"
_cell_formula_units_Z 26
_cell_length_a 4.891572
_cell_length_b 7.524341
_cell_length_c 31.188167
_cell_angle_alpha 90.000000
_cell_angle_beta 90.000000
_cell_angle_gamma 90.000000
_cell_volume 1147.907176
_symmetry_space_group_name_H-M "I 2 2 2"
_symmetry_group_IT_number 23
_symmetry_cell_setting 'orthorhombic'
loop_
_space_group_symop_operation_xyz
x,y,z
-x,-y,z
x,-y,-z
-x,y,-z
1/2+x,1/2+y,1/2+z
1/2-x,1/2-y,1/2+z
1/2+x,1/2-y,1/2-z
1/2-x,1/2+y,1/2-z
loop_
_atom_site_type_symbol
_atom_site_label
_atom_site_fract_x
_atom_site_fract_y
_atom_site_fract_z
Si Si1 0.872124 0.203159 0.313081
Si Si2 0.500000 0.000000 0.000000
Si Si3 0.000000 0.000000 0.059484
Si Si4 0.110103 0.700149 0.127345
Si Si5 0.500000 0.000000 0.744926
O O1 0.600606 0.275358 0.337116
O O2 0.093529 0.190618 0.350805
O O3 0.967161 0.335308 0.276196
O O4 0.746564 0.034999 0.287519
O O5 0.735345 0.926163 0.032791
O O6 0.104911 0.835362 0.087956
O O7 0.000000 0.500000 0.117171
#
# Coordination Sequence:
#
# PCOD9331932 Si02
#       5
#     8   2   4   8   4
#     4  12  27  44  65  96 140 192 254 303 365 399
#     4  10  24  48  82 110 144 172 216 282 358 456
#     4  11  24  50  76 110 142 178 222 284 362 444
#     4  12  26  45  71 103 140 191 234 298 353 439
#     4  12  28  45  66  94 140 200 254 330 350 405
#
# _framework density 22.649916000000001
#
# number of rings (size 3 to 8) (size 9 to 14) (size 15 to 20)
#    0.000    0.308    1.538    6.462    4.308    4.923 
#    0.000    4.615    0.000    0.000    0.000    0.000 
#    0.000    0.000    0.000    0.000    0.000    0.000 
#
# Total GULP energy -72558.440814 kJ/mol
# GULP energy per Si atom -5581.418524 kJ/mol
# Density = 2.259836 g / cm^3
# Si number density = 22.649916 Si / 1000 Ang^3
#
#
#
# Elastic Constant Matrix: (Units=GPa)
#
#
# Indices 1 2 3 4 5 6 
#
# 1 201.0962 32.5076 53.1258 0.0000 0.0000 0.0000
# 2 32.5076 107.3672 50.8075 0.0000 0.0000 0.0000
# 3 53.1258 50.8075 110.4239 0.0000 0.0000 0.0000
# 4 0.0000 0.0000 0.0000 -13.9841 0.0000 0.0000
# 5 0.0000 0.0000 0.0000 0.0000 28.3763 0.0000
# 6 0.0000 0.0000 0.0000 0.0000 0.0000 21.3918
#
#
#
# Elastic Compliance Matrix: (Units=1/GPa)
#
#
# Indices 1 2 3 4 5 6 
#
# 1 0.005722 -0.000549 -0.002500 0.000000 0.000000 0.000000
# 2 -0.000549 0.011959 -0.005238 0.000000 0.000000 0.000000
# 3 -0.002500 -0.005238 0.012669 0.000000 0.000000 0.000000
# 4 0.000000 0.000000 0.000000 -0.071510 0.000000 0.000000
# 5 0.000000 0.000000 0.000000 0.000000 0.035241 0.000000
# 6 0.000000 0.000000 0.000000 0.000000 0.000000 0.046747
#
#
# Mechanical properties :
#
#
# Convention : Reuss Voigt Hill
#
# Bulk Modulus (GPa) = 72.59726 76.86323 74.73025
# Shear Modulus (GPa) = 80.65185 25.98654 53.31920
#
# Velocity S-wave (km/s) = 5.97372 3.39088 4.85713
# Velocity P-wave (km/s) = 8.92759 7.02422 8.03248
#
# Compressibility (1/GPa) = 0.01377462
#
# Stress axis : x y z
#
# Youngs Moduli (GPa) = 174.76273 83.61965 78.93290
#
# Poissons Ratio (x) = 0.04594 0.19734
# Poissons Ratio (y) = 0.09601 0.41346
# Poissons Ratio (z) = 0.43693 0.43801
#
# Static dielectric constant tensor:
#      x y z
#    x 1.943660 0.000000 0.000000 
#    y 0.000000 2.022450 0.000000 
#    z 0.000000 0.000000 1.813710 
# 
# From -- ./inp_files/29780.got.cif
#   From: 2010.05.17/outbox.cif.g08.bks.cpg/sg23_15_cif.got.tgz:29780.got - 2010.06.04 12:02:01.
