data_PCOD9331871
_publ_section_title
;
Structure prediction by ZEFSAII (Michael W. Deem and Ramdas Pophale) SiO2 
 PCOD9331871
Probable space group: I 2 2 2
;
_chemical_formula_sum "Si O2"
_cell_formula_units_Z 54
_cell_length_a 20.266475
_cell_length_b 6.620197
_cell_length_c 22.956742
_cell_angle_alpha 90.000000
_cell_angle_beta 90.000000
_cell_angle_gamma 90.000000
_cell_volume 3080.061469
_symmetry_space_group_name_H-M "I 2 2 2"
_symmetry_group_IT_number 23
_symmetry_cell_setting 'orthorhombic'
loop_
_space_group_symop_operation_xyz
x,y,z
-x,-y,z
x,-y,-z
-x,y,-z
1/2+x,1/2+y,1/2+z
1/2-x,1/2-y,1/2+z
1/2+x,1/2-y,1/2-z
1/2-x,1/2+y,1/2-z
loop_
_atom_site_type_symbol
_atom_site_label
_atom_site_fract_x
_atom_site_fract_y
_atom_site_fract_z
Si Si1 0.110609 0.708908 0.073698
Si Si2 0.756270 0.261703 0.191573
Si Si3 0.167367 0.413699 0.704426
Si Si4 0.000000 0.500000 0.000000
Si Si5 0.725736 0.000000 0.500000
Si Si6 0.269719 0.343360 0.115611
Si Si7 0.645535 0.431058 0.355935
Si Si8 0.922185 0.459341 0.810404
O O1 0.105376 0.572077 0.132130
O O2 0.109749 0.942545 0.093185
O O3 0.175602 0.647817 0.036085
O O4 0.047337 0.641685 0.037569
O O5 0.770789 0.333432 0.256752
O O6 0.748532 0.455591 0.151362
O O7 0.689930 0.134558 0.184922
O O8 0.816854 0.111215 0.177873
O O9 0.169410 0.266066 0.648863
O O10 0.109864 0.446728 0.751615
O O11 0.772134 0.895520 0.547830
O O12 0.206036 0.198783 0.119708
O O13 0.599678 0.275655 0.319913
O O14 0.000000 0.500000 0.809089
#
# Coordination Sequence:
#
# PCOD9331871 Si02
#       8
#     8   8   8   2   4   8   8   8
#     4  11  22  40  57  77 114 160 206 245 282 333
#     4  11  18  34  59  83 109 142 189 239 300 358
#     4  11  20  34  57  83 112 150 188 240 307 355
#     4  10  24  44  50  72 122 164 218 246 256 344
#     4  11  20  41  54  82 126 145 189 252 284 366
#     4  11  22  35  58  86 115 151 186 246 305 358
#     4  11  20  37  58  83 105 154 200 236 302 337
#     4  12  24  41  54  81 120 157 207 249 285 351
#
# _framework density 17.532118000000001
#
# number of rings (size 3 to 8) (size 9 to 14) (size 15 to 20)
#    0.000    0.889    8.148    0.889    0.000    1.185 
#    0.000    0.741    0.000    0.000    0.000    0.000 
#    0.000    3.556    0.000    0.000    0.000    0.000 
#
# Total GULP energy -150447.091047 kJ/mol
# GULP energy per Si atom -5572.114483 kJ/mol
# Density = 1.749221 g / cm^3
# Si number density = 17.532118 Si / 1000 Ang^3
#
#
#
# Elastic Constant Matrix: (Units=GPa)
#
#
# Indices 1 2 3 4 5 6 
#
# 1 42.8608 29.0189 39.3748 0.0000 0.0000 0.0000
# 2 29.0189 109.9631 48.8710 0.0000 0.0000 0.0000
# 3 39.3748 48.8710 115.9284 0.0000 0.0000 0.0000
# 4 0.0000 0.0000 0.0000 32.2953 0.0000 0.0000
# 5 0.0000 0.0000 0.0000 0.0000 29.7609 0.0000
# 6 0.0000 0.0000 0.0000 0.0000 0.0000 13.2295
#
#
#
# Elastic Compliance Matrix: (Units=1/GPa)
#
#
# Indices 1 2 3 4 5 6 
#
# 1 0.036022 -0.005007 -0.010124 0.000000 0.000000 0.000000
# 2 -0.005007 0.011886 -0.003310 0.000000 0.000000 0.000000
# 3 -0.010124 -0.003310 0.013460 0.000000 0.000000 0.000000
# 4 0.000000 0.000000 0.000000 0.030964 0.000000 0.000000
# 5 0.000000 0.000000 0.000000 0.000000 0.033601 0.000000
# 6 0.000000 0.000000 0.000000 0.000000 0.000000 0.075588
#
#
# Mechanical properties :
#
#
# Convention : Reuss Voigt Hill
#
# Bulk Modulus (GPa) = 40.83936 55.92017 48.37977
# Shear Modulus (GPa) = 20.27853 25.15633 22.71743
#
# Velocity S-wave (km/s) = 3.40465 3.79208 3.60357
# Velocity P-wave (km/s) = 6.22897 7.15110 6.70590
#
# Compressibility (1/GPa) = 0.02448618
#
# Stress axis : x y z
#
# Youngs Moduli (GPa) = 27.76106 84.12963 74.29321
#
# Poissons Ratio (x) = 0.42120 0.75215
# Poissons Ratio (y) = 0.13899 0.24594
# Poissons Ratio (z) = 0.28106 0.27850
#
# Static dielectric constant tensor:
#      x y z
#    x 1.608240 0.000000 0.000000 
#    y 0.000000 1.666760 0.000000 
#    z 0.000000 0.000000 1.672650 
# 
# From -- ./inp_files/27379.got.cif
#   From: 2010.05.17/outbox.cif.g08.bks.cpg/sg23_14_cif.got.tgz:27379.got - 2010.06.04 12:02:01.
