data_PCOD9331560
_publ_section_title
;
Structure prediction by ZEFSAII (Michael W. Deem and Ramdas Pophale) SiO2 
 PCOD9331560
Probable space group: I 2 2 2
;
_chemical_formula_sum "Si O2"
_cell_formula_units_Z 48
_cell_length_a 8.258345
_cell_length_b 9.638897
_cell_length_c 29.140409
_cell_angle_alpha 90.000000
_cell_angle_beta 90.000000
_cell_angle_gamma 90.000000
_cell_volume 2319.615513
_symmetry_space_group_name_H-M "I 2 2 2"
_symmetry_group_IT_number 23
_symmetry_cell_setting 'orthorhombic'
loop_
_space_group_symop_operation_xyz
x,y,z
-x,-y,z
x,-y,-z
-x,y,-z
1/2+x,1/2+y,1/2+z
1/2-x,1/2-y,1/2+z
1/2+x,1/2-y,1/2-z
1/2-x,1/2+y,1/2-z
loop_
_atom_site_type_symbol
_atom_site_label
_atom_site_fract_x
_atom_site_fract_y
_atom_site_fract_z
Si Si1 0.189090 0.160050 0.988092
Si Si2 0.168684 0.288298 0.392303
Si Si3 0.103353 0.371942 0.297411
Si Si4 0.387318 0.639377 0.944294
Si Si5 0.808707 0.504484 0.135924
Si Si6 0.625267 0.381061 0.775831
O O1 0.214726 0.171896 0.933753
O O2 0.301827 0.275796 0.013997
O O3 0.000000 0.182854 0.000000
O O4 0.232935 0.000000 0.000000
O O5 0.150164 0.394202 0.350561
O O6 0.000550 0.247192 0.416845
O O7 0.236512 0.148797 0.369321
O O8 0.259203 0.345257 0.266357
O O9 0.000000 0.500000 0.278970
O O10 0.982528 0.244051 0.293763
O O11 0.500000 0.500000 0.952886
O O12 0.250442 0.586818 0.909193
O O13 0.732645 0.569136 0.181464
O O14 0.000000 0.500000 0.138510
O O15 0.500000 0.500000 0.761602
#
# Coordination Sequence:
#
# PCOD9331560 Si02
#       6
#     8   8   8   8   8   8
#     4  11  26  46  69 103 147 186 232 293 367 431
#     4  11  24  44  68 101 136 184 238 285 350 422
#     4  12  27  44  71 105 139 184 237 291 360 427
#     4  10  22  44  69 101 136 179 237 287 345 424
#     4  11  22  41  74 102 139 183 232 294 348 412
#     4  12  24  49  68 101 142 180 235 292 351 427
#
# _framework density 20.693082
#
# number of rings (size 3 to 8) (size 9 to 14) (size 15 to 20)
#    0.000    0.833    3.333    3.500    4.667    5.333 
#    3.000    4.167    0.000    0.000    0.000    0.000 
#    0.000    0.000    0.000    0.000    0.000    0.000 
#
# Total GULP energy -134189.553452 kJ/mol
# GULP energy per Si atom -5591.231394 kJ/mol
# Density = 2.064598 g / cm^3
# Si number density = 20.693082 Si / 1000 Ang^3
#
#
#
# Elastic Constant Matrix: (Units=GPa)
#
#
# Indices 1 2 3 4 5 6 
#
# 1 142.6071 29.2590 67.4533 0.0000 0.0000 0.0000
# 2 29.2590 57.1284 31.1976 0.0000 0.0000 0.0000
# 3 67.4533 31.1976 150.6711 0.0000 0.0000 0.0000
# 4 0.0000 0.0000 0.0000 35.1079 0.0000 0.0000
# 5 0.0000 0.0000 0.0000 0.0000 37.1274 0.0000
# 6 0.0000 0.0000 0.0000 0.0000 0.0000 20.9883
#
#
#
# Elastic Compliance Matrix: (Units=1/GPa)
#
#
# Indices 1 2 3 4 5 6 
#
# 1 0.009277 -0.002800 -0.003573 0.000000 0.000000 0.000000
# 2 -0.002800 0.020581 -0.003008 0.000000 0.000000 0.000000
# 3 -0.003573 -0.003008 0.008860 0.000000 0.000000 0.000000
# 4 0.000000 0.000000 0.000000 0.028484 0.000000 0.000000
# 5 0.000000 0.000000 0.000000 0.000000 0.026934 0.000000
# 6 0.000000 0.000000 0.000000 0.000000 0.000000 0.047646
#
#
# Mechanical properties :
#
#
# Convention : Reuss Voigt Hill
#
# Bulk Modulus (GPa) = 50.11274 67.35850 58.73562
# Shear Modulus (GPa) = 29.90510 33.47782 31.69146
#
# Velocity S-wave (km/s) = 3.80567 4.02659 3.91768
# Velocity P-wave (km/s) = 6.60156 7.36476 6.99358
#
# Compressibility (1/GPa) = 0.01995501
#
# Stress axis : x y z
#
# Youngs Moduli (GPa) = 107.79379 48.58829 112.87224
#
# Poissons Ratio (x) = 0.13604 0.40334
# Poissons Ratio (y) = 0.30181 0.33952
# Poissons Ratio (z) = 0.38519 0.14615
#
# Static dielectric constant tensor:
#      x y z
#    x 1.718280 0.000000 0.000000 
#    y 0.000000 1.740280 0.000000 
#    z 0.000000 0.000000 1.743000 
# 
# From -- ./inp_files/7376.got.cif
#   From: 2010.05.17/outbox.cif.g08.bks.cpg/sg23_4_cif.got.tgz:7376.got - 2010.06.04 12:02:01.
