data_PCOD9331247
_publ_section_title
;
Structure prediction by ZEFSAII (Michael W. Deem and Ramdas Pophale) SiO2 
 PCOD9331247
Probable space group: I 2 2 2
;
_chemical_formula_sum "Si O2"
_cell_formula_units_Z 44
_cell_length_a 12.907675
_cell_length_b 17.071319
_cell_length_c 8.694284
_cell_angle_alpha 90.000000
_cell_angle_beta 90.000000
_cell_angle_gamma 90.000000
_cell_volume 1915.794499
_symmetry_space_group_name_H-M "I 2 2 2"
_symmetry_group_IT_number 23
_symmetry_cell_setting 'orthorhombic'
loop_
_space_group_symop_operation_xyz
x,y,z
-x,-y,z
x,-y,-z
-x,y,-z
1/2+x,1/2+y,1/2+z
1/2-x,1/2-y,1/2+z
1/2+x,1/2-y,1/2-z
1/2-x,1/2+y,1/2-z
loop_
_atom_site_type_symbol
_atom_site_label
_atom_site_fract_x
_atom_site_fract_y
_atom_site_fract_z
Si Si1 0.142229 0.000000 0.000000
Si Si2 0.500000 0.500000 0.000000
Si Si3 0.324960 0.922795 0.805738
Si Si4 0.487075 0.616539 0.724416
Si Si5 0.500000 0.000000 0.000000
Si Si6 0.778728 0.500000 0.000000
Si Si7 0.695124 0.665770 0.087671
Si Si8 0.817650 0.214581 0.758412
O O1 0.074660 0.938987 0.103210
O O2 0.222143 0.038555 0.119430
O O3 0.532056 0.436021 0.133768
O O4 0.424070 0.944209 0.903895
O O5 0.287801 0.833786 0.794489
O O6 0.339968 0.961415 0.639179
O O7 0.401020 0.671842 0.798788
O O8 0.582586 0.670473 0.671563
O O9 0.710433 0.572323 0.062313
O O10 0.796589 0.701090 0.169491
O O11 0.674996 0.708577 0.925986
#
# Coordination Sequence:
#
# PCOD9331247 Si02
#       8
#     4   2   8   8   2   4   8   8
#     4  11  24  39  76 118 152 180 254 324 378 468
#     4  12  22  42  74 106 140 192 264 296 392 466
#     4  10  23  45  70 106 145 195 253 316 379 452
#     4  12  24  45  74 115 149 199 246 324 401 451
#     4  10  24  44  70 102 148 206 260 298 372 454
#     4  10  21  47  83  99 148 204 255 320 366 465
#     4  11  24  48  71 108 153 197 252 310 390 462
#     4  11  26  44  70 104 151 194 248 322 387 452
#
# _framework density 22.966971999999998
#
# number of rings (size 3 to 8) (size 9 to 14) (size 15 to 20)
#    0.000    1.091    3.636    1.636    2.545    4.364 
#    6.545    0.000    0.000    0.000    0.000    0.000 
#    0.000    0.000    0.000    0.000    0.000    0.000 
#
# Total GULP energy -122779.188208 kJ/mol
# GULP energy per Si atom -5580.872191 kJ/mol
# Density = 2.291470 g / cm^3
# Si number density = 22.966972 Si / 1000 Ang^3
#
#
#
# Elastic Constant Matrix: (Units=GPa)
#
#
# Indices 1 2 3 4 5 6 
#
# 1 143.7356 53.3108 54.4219 0.0000 0.0000 0.0000
# 2 53.3108 95.7548 35.1948 0.0000 0.0000 0.0000
# 3 54.4219 35.1948 102.3956 0.0000 0.0000 0.0000
# 4 0.0000 0.0000 0.0000 33.1797 0.0000 0.0000
# 5 0.0000 0.0000 0.0000 0.0000 40.0261 0.0000
# 6 0.0000 0.0000 0.0000 0.0000 0.0000 20.1209
#
#
#
# Elastic Compliance Matrix: (Units=1/GPa)
#
#
# Indices 1 2 3 4 5 6 
#
# 1 0.009951 -0.004116 -0.003874 0.000000 0.000000 0.000000
# 2 -0.004116 0.013656 -0.002506 0.000000 0.000000 0.000000
# 3 -0.003874 -0.002506 0.012686 0.000000 0.000000 0.000000
# 4 0.000000 0.000000 0.000000 0.030139 0.000000 0.000000
# 5 0.000000 0.000000 0.000000 0.000000 0.024984 0.000000
# 6 0.000000 0.000000 0.000000 0.000000 0.000000 0.049700
#
#
# Mechanical properties :
#
#
# Convention : Reuss Voigt Hill
#
# Bulk Modulus (GPa) = 65.35579 69.74898 67.55238
# Shear Modulus (GPa) = 29.90293 31.92923 30.91608
#
# Velocity S-wave (km/s) = 3.61223 3.73262 3.67292
# Velocity P-wave (km/s) = 6.77612 7.00084 6.88940
#
# Compressibility (1/GPa) = 0.01530086
#
# Stress axis : x y z
#
# Youngs Moduli (GPa) = 100.49657 73.22745 78.82501
#
# Poissons Ratio (x) = 0.30141 0.30536
# Poissons Ratio (y) = 0.41365 0.19755
# Poissons Ratio (z) = 0.38931 0.18352
#
# Static dielectric constant tensor:
#      x y z
#    x 1.893240 0.000000 0.000000 
#    y 0.000000 1.911260 0.000000 
#    z 0.000000 0.000000 1.906410 
# 
# From -- ./inp_files/9901.got.cif
#   From: 2010.05.17/outbox.cif.g08.bks.cpg/sg23_5_cif.got.tgz:9901.got - 2010.06.04 12:02:01.
