data_PCOD9331887
_publ_section_title
;
Structure prediction by ZEFSAII (Michael W. Deem and Ramdas Pophale) SiO2 
 PCOD9331887
Probable space group: I 2 2 2
;
_chemical_formula_sum "Si O2"
_cell_formula_units_Z 40
_cell_length_a 18.380598
_cell_length_b 5.012399
_cell_length_c 18.010610
_cell_angle_alpha 90.000000
_cell_angle_beta 90.000000
_cell_angle_gamma 90.000000
_cell_volume 1659.333547
_symmetry_space_group_name_H-M "I 2 2 2"
_symmetry_group_IT_number 23
_symmetry_cell_setting 'orthorhombic'
loop_
_space_group_symop_operation_xyz
x,y,z
-x,-y,z
x,-y,-z
-x,y,-z
1/2+x,1/2+y,1/2+z
1/2-x,1/2-y,1/2+z
1/2+x,1/2-y,1/2-z
1/2-x,1/2+y,1/2-z
loop_
_atom_site_type_symbol
_atom_site_label
_atom_site_fract_x
_atom_site_fract_y
_atom_site_fract_z
Si Si1 0.815940 0.432571 0.417643
Si Si2 0.659124 0.757944 0.551804
Si Si3 0.583547 0.523882 0.328104
Si Si4 0.045753 0.225695 0.666935
Si Si5 0.234555 0.730172 0.197284
O O1 0.840798 0.500000 0.500000
O O2 0.744479 0.249976 0.428883
O O3 0.881663 0.305775 0.374175
O O4 0.787666 0.684405 0.369579
O O5 0.644575 0.500000 0.500000
O O6 0.617667 0.726065 0.629216
O O7 0.638279 0.000000 0.500000
O O8 0.500000 0.500000 0.357525
O O9 0.570418 0.566636 0.240960
O O10 0.652777 0.728317 0.335288
O O11 0.000000 0.500000 0.682491
O O12 0.000000 0.000000 0.624046
O O13 0.248894 0.955482 0.261050
#
# Coordination Sequence:
#
# PCOD9331887 Si02
#       5
#     8   8   8   8   8
#     4  10  24  46  74 106 151 195 250 309 377 448
#     4  10  24  46  70 106 141 189 249 307 380 450
#     4  10  24  44  73 106 145 190 244 311 371 449
#     4  11  26  45  71 110 152 197 255 309 380 457
#     4  11  24  43  72 105 140 192 246 301 363 440
#
# _framework density 24.106061
#
# number of rings (size 3 to 8) (size 9 to 14) (size 15 to 20)
#    0.000    1.600    2.000    0.000    5.600   16.800 
#    0.000    2.000    0.000    0.000    0.000    0.000 
#    0.000    0.000    0.000    0.000    0.000    0.000 
#
# Total GULP energy -111661.711341 kJ/mol
# GULP energy per Si atom -5583.085567 kJ/mol
# Density = 2.405119 g / cm^3
# Si number density = 24.106061 Si / 1000 Ang^3
#
#
#
# Elastic Constant Matrix: (Units=GPa)
#
#
# Indices 1 2 3 4 5 6 
#
# 1 128.0980 54.2810 37.6657 0.0000 0.0000 0.0000
# 2 54.2810 142.6045 62.5713 0.0000 0.0000 0.0000
# 3 37.6657 62.5713 141.7087 0.0000 0.0000 0.0000
# 4 0.0000 0.0000 0.0000 39.2095 0.0000 0.0000
# 5 0.0000 0.0000 0.0000 0.0000 -17.9024 0.0000
# 6 0.0000 0.0000 0.0000 0.0000 0.0000 -11.2499
#
#
#
# Elastic Compliance Matrix: (Units=1/GPa)
#
#
# Indices 1 2 3 4 5 6 
#
# 1 0.009456 -0.003096 -0.001146 0.000000 0.000000 0.000000
# 2 -0.003096 0.009711 -0.003465 0.000000 0.000000 0.000000
# 3 -0.001146 -0.003465 0.008891 0.000000 0.000000 0.000000
# 4 0.000000 0.000000 0.000000 0.025504 0.000000 0.000000
# 5 0.000000 0.000000 0.000000 0.000000 -0.055858 0.000000
# 6 0.000000 0.000000 0.000000 0.000000 0.000000 -0.088890
#
#
# Mechanical properties :
#
#
# Convention : Reuss Voigt Hill
#
# Bulk Modulus (GPa) = 79.09275 80.16083 79.62679
# Shear Modulus (GPa) = -69.87464 19.20431 -25.33517
#
# Velocity S-wave (km/s) = -5.38974 2.82558 -3.24541
# Velocity P-wave (km/s) = 2.41884 6.63105 4.36577
#
# Compressibility (1/GPa) = 0.01264338
#
# Stress axis : x y z
#
# Youngs Moduli (GPa) = 105.75791 102.97227 112.46883
#
# Poissons Ratio (x) = 0.31883 0.12890
# Poissons Ratio (y) = 0.32746 0.38971
# Poissons Ratio (z) = 0.12121 0.35680
#
# Static dielectric constant tensor:
#      x y z
#    x 1.972340 0.000000 0.000000 
#    y 0.000000 2.001480 0.000000 
#    z 0.000000 0.000000 1.940070 
# 
# From -- ./inp_files/3250.got.cif
#   From: 2010.05.17/outbox.cif.g08.bks.cpg/sg23_2_cif.got.tgz:3250.got - 2010.06.04 12:02:01.
