data_PCOD9331997
_publ_section_title
;
Structure prediction by ZEFSAII (Michael W. Deem and Ramdas Pophale) SiO2 
 PCOD9331997
Probable space group: I 2 2 2
;
_chemical_formula_sum "Si O2"
_cell_formula_units_Z 54
_cell_length_a 29.905503
_cell_length_b 15.994112
_cell_length_c 4.948893
_cell_angle_alpha 90.000000
_cell_angle_beta 90.000000
_cell_angle_gamma 90.000000
_cell_volume 2367.114732
_symmetry_space_group_name_H-M "I 2 2 2"
_symmetry_group_IT_number 23
_symmetry_cell_setting 'orthorhombic'
loop_
_space_group_symop_operation_xyz
x,y,z
-x,-y,z
x,-y,-z
-x,y,-z
1/2+x,1/2+y,1/2+z
1/2-x,1/2-y,1/2+z
1/2+x,1/2-y,1/2-z
1/2-x,1/2+y,1/2-z
loop_
_atom_site_type_symbol
_atom_site_label
_atom_site_fract_x
_atom_site_fract_y
_atom_site_fract_z
Si Si1 0.584464 0.593753 0.094477
Si Si2 0.640884 0.351195 0.418049
Si Si3 0.130147 0.661991 0.111323
Si Si4 0.742131 0.690243 0.573667
Si Si5 0.000000 0.500000 0.500000
Si Si6 0.500000 0.706639 0.000000
Si Si7 0.460642 0.861532 0.314610
Si Si8 0.172441 0.407487 0.392250
O O1 0.615184 0.592645 0.361388
O O2 0.572793 0.500000 0.000000
O O3 0.615357 0.634930 0.862227
O O4 0.539196 0.648836 0.126023
O O5 0.635492 0.257892 0.531875
O O6 0.694568 0.355656 0.388372
O O7 0.138820 0.648970 0.426699
O O8 0.081987 0.638744 0.001420
O O9 0.163360 0.607716 0.922620
O O10 0.758353 0.736917 0.845403
O O11 0.778830 0.625205 0.471380
O O12 0.962449 0.430070 0.585161
O O13 0.525114 0.770252 0.794972
O O14 0.500000 0.895281 0.500000
O O15 0.165707 0.500000 0.500000
#
# Coordination Sequence:
#
# PCOD9331997 Si02
#       8
#     8   8   8   8   2   4   8   8
#     4  12  27  46  71 109 144 183 234 298 361 416
#     4  12  24  46  76 103 137 187 241 284 350 435
#     4  12  25  45  73  98 139 185 236 285 343 435
#     4  12  23  45  73 102 139 187 235 286 349 429
#     4  10  26  40  62  98 142 172 240 288 358 406
#     4  11  25  45  71 100 140 188 235 291 347 437
#     4  11  25  43  67  99 133 188 235 288 350 418
#     4  12  27  44  68 108 140 181 232 297 356 411
#
# _framework density 22.812583
#
# number of rings (size 3 to 8) (size 9 to 14) (size 15 to 20)
#    0.000    0.296    4.444    4.000    5.185    2.370 
#    0.000    1.481    0.000    0.000    0.000    0.000 
#    0.000    0.000    0.000    0.000    0.000    0.000 
#
# Total GULP energy -150980.391898 kJ/mol
# GULP energy per Si atom -5591.866367 kJ/mol
# Density = 2.276066 g / cm^3
# Si number density = 22.812583 Si / 1000 Ang^3
#
#
#
# Elastic Constant Matrix: (Units=GPa)
#
#
# Indices 1 2 3 4 5 6 
#
# 1 148.3034 11.5885 8.7994 0.0000 0.0001 0.0000
# 2 11.5885 102.4069 -5.0201 0.0000 0.0000 0.0000
# 3 8.7994 -5.0201 80.3805 -0.0001 0.0002 -0.0002
# 4 0.0000 0.0000 -0.0001 42.9482 0.0000 0.0000
# 5 0.0001 0.0000 0.0002 0.0000 22.6998 0.0000
# 6 0.0000 0.0000 -0.0002 0.0000 0.0000 16.7892
#
#
#
# Elastic Compliance Matrix: (Units=1/GPa)
#
#
# Indices 1 2 3 4 5 6 
#
# 1 0.006854 -0.000815 -0.000801 0.000000 0.000000 0.000000
# 2 -0.000815 0.009892 0.000707 0.000000 0.000000 0.000000
# 3 -0.000801 0.000707 0.012573 0.000000 0.000000 0.000000
# 4 0.000000 0.000000 0.000000 0.023284 0.000000 0.000000
# 5 0.000000 0.000000 0.000000 0.000000 0.044053 0.000000
# 6 0.000000 0.000000 0.000000 0.000000 0.000000 0.059562
#
#
# Mechanical properties :
#
#
# Convention : Reuss Voigt Hill
#
# Bulk Modulus (GPa) = 36.36309 40.20293 38.28301
# Shear Modulus (GPa) = 29.90381 37.53565 33.71973
#
# Velocity S-wave (km/s) = 3.62449 4.06074 3.84880
# Velocity P-wave (km/s) = 5.78709 6.29663 6.04723
#
# Compressibility (1/GPa) = 0.02750042
#
# Stress axis : x y z
#
# Youngs Moduli (GPa) = 145.89703 101.09344 79.53745
#
# Poissons Ratio (x) = 0.08238 0.06373
# Poissons Ratio (y) = 0.11889 -0.05623
# Poissons Ratio (z) = 0.11690 -0.07147
#
# Static dielectric constant tensor:
#      x y z
#    x 1.945220 0.000000 0.000000 
#    y 0.000000 1.849380 0.000000 
#    z 0.000000 0.000000 1.875930 
# 
# From -- ./inp_files/5398.got.cif
#   From: 2010.05.17/outbox.cif.g08.bks.cpg/sg23_3_cif.got.tgz:5398.got - 2010.06.04 12:02:01.
