data_PCOD9331010
_publ_section_title
;
Structure prediction by ZEFSAII (Michael W. Deem and Ramdas Pophale) SiO2 
 PCOD9331010
Probable space group: I 2 2 2
;
_chemical_formula_sum "Si O2"
_cell_formula_units_Z 48
_cell_length_a 24.310982
_cell_length_b 14.217060
_cell_length_c 6.467016
_cell_angle_alpha 90.000000
_cell_angle_beta 90.000000
_cell_angle_gamma 90.000000
_cell_volume 2235.199201
_symmetry_space_group_name_H-M "I 2 2 2"
_symmetry_group_IT_number 23
_symmetry_cell_setting 'orthorhombic'
loop_
_space_group_symop_operation_xyz
x,y,z
-x,-y,z
x,-y,-z
-x,y,-z
1/2+x,1/2+y,1/2+z
1/2-x,1/2-y,1/2+z
1/2+x,1/2-y,1/2-z
1/2-x,1/2+y,1/2-z
loop_
_atom_site_type_symbol
_atom_site_label
_atom_site_fract_x
_atom_site_fract_y
_atom_site_fract_z
Si Si1 0.000000 0.257373 0.500000
Si Si2 0.198189 0.666204 0.268881
Si Si3 0.126583 0.730673 0.887664
Si Si4 0.595766 0.106544 0.028841
Si Si5 0.803122 0.159806 0.545244
Si Si6 0.453660 0.385213 0.661320
Si Si7 0.111955 0.000000 0.500000
O O1 0.949014 0.322638 0.430045
O O2 0.979215 0.188172 0.676460
O O3 0.156462 0.615095 0.425850
O O4 0.216679 0.764309 0.376630
O O5 0.252112 0.616523 0.173811
O O6 0.161104 0.691933 0.074247
O O7 0.098221 0.644220 0.765055
O O8 0.162883 0.779655 0.710454
O O9 0.089413 0.818338 0.958103
O O10 0.577507 0.000000 0.000000
O O11 0.846419 0.085919 0.452552
O O12 0.500000 0.411120 0.500000
O O13 0.424700 0.465422 0.803860
#
# Coordination Sequence:
#
# PCOD9331010 Si02
#       7
#     4   8   8   8   8   8   4
#     4  10  21  43  66  90 128 172 208 271 333 394
#     4  11  20  39  64  86 126 176 213 255 325 398
#     4   9  20  38  61  90 121 165 215 257 319 392
#     4  10  22  37  61  96 127 161 216 270 326 389
#     4  10  21  39  62  88 127 173 211 266 326 384
#     4  10  21  42  67  90 125 171 214 266 335 396
#     4  10  24  43  62 104 134 160 227 294 322 382
#
# _framework density 21.474596999999999
#
# number of rings (size 3 to 8) (size 9 to 14) (size 15 to 20)
#    0.000    2.000    1.667    2.250    0.000    2.333 
#    0.000   11.667    0.000    3.000    0.000    0.000 
#    0.000    0.000    0.000    0.000    0.000    0.000 
#
# Total GULP energy -133886.020641 kJ/mol
# GULP energy per Si atom -5578.584193 kJ/mol
# Density = 2.142572 g / cm^3
# Si number density = 21.474597 Si / 1000 Ang^3
#
#
#
# Elastic Constant Matrix: (Units=GPa)
#
#
# Indices 1 2 3 4 5 6 
#
# 1 104.8628 45.0770 22.1316 0.0000 0.0000 0.0000
# 2 45.0770 103.7146 35.7797 0.0000 0.0000 0.0000
# 3 22.1316 35.7797 35.9739 0.0000 0.0000 0.0000
# 4 0.0000 0.0000 0.0000 10.0245 0.0000 0.0000
# 5 0.0000 0.0000 0.0000 0.0000 40.5799 0.0000
# 6 0.0000 0.0000 0.0000 0.0000 0.0000 14.2881
#
#
#
# Elastic Compliance Matrix: (Units=1/GPa)
#
#
# Indices 1 2 3 4 5 6 
#
# 1 0.011985 -0.004058 -0.003338 0.000000 0.000000 0.000000
# 2 -0.004058 0.016052 -0.013469 0.000000 0.000000 0.000000
# 3 -0.003338 -0.013469 0.043248 0.000000 0.000000 0.000000
# 4 0.000000 0.000000 0.000000 0.099756 0.000000 0.000000
# 5 0.000000 0.000000 0.000000 0.000000 0.024643 0.000000
# 6 0.000000 0.000000 0.000000 0.000000 0.000000 0.069988
#
#
# Mechanical properties :
#
#
# Convention : Reuss Voigt Hill
#
# Bulk Modulus (GPa) = 33.83405 50.05866 41.94635
# Shear Modulus (GPa) = 15.76036 22.41603 19.08820
#
# Velocity S-wave (km/s) = 2.71201 3.23436 2.98463
# Velocity P-wave (km/s) = 5.05927 6.10814 5.60828
#
# Compressibility (1/GPa) = 0.02955602
#
# Stress axis : x y z
#
# Youngs Moduli (GPa) = 83.43843 62.29797 23.12269
#
# Poissons Ratio (x) = 0.25277 0.07718
# Poissons Ratio (y) = 0.33855 0.31144
# Poissons Ratio (z) = 0.27849 0.83909
#
# Static dielectric constant tensor:
#      x y z
#    x 1.879460 0.000000 0.000000 
#    y 0.000000 1.841350 0.000000 
#    z 0.000000 0.000000 1.756300 
# 
# From -- ./inp_files/4928.got.cif
#   From: 2010.05.17/outbox.cif.g08.bks.cpg/sg23_3_cif.got.tgz:4928.got - 2010.06.04 12:02:01.
