data_PCOD9331208
_publ_section_title
;
Structure prediction by ZEFSAII (Michael W. Deem and Ramdas Pophale) SiO2 
 PCOD9331208
Probable space group: I 2 2 2
;
_chemical_formula_sum "Si O2"
_cell_formula_units_Z 40
_cell_length_a 10.638625
_cell_length_b 5.627539
_cell_length_c 30.920364
_cell_angle_alpha 90.000000
_cell_angle_beta 90.000000
_cell_angle_gamma 90.000000
_cell_volume 1851.179840
_symmetry_space_group_name_H-M "I 2 2 2"
_symmetry_group_IT_number 23
_symmetry_cell_setting 'orthorhombic'
loop_
_space_group_symop_operation_xyz
x,y,z
-x,-y,z
x,-y,-z
-x,y,-z
1/2+x,1/2+y,1/2+z
1/2-x,1/2-y,1/2+z
1/2+x,1/2-y,1/2-z
1/2-x,1/2+y,1/2-z
loop_
_atom_site_type_symbol
_atom_site_label
_atom_site_fract_x
_atom_site_fract_y
_atom_site_fract_z
Si Si1 0.118461 0.679865 0.381572
Si Si2 0.610454 0.188689 0.264016
Si Si3 0.142881 0.247554 0.517209
Si Si4 0.132469 0.046184 0.844385
Si Si5 0.808842 0.061032 0.687027
O O1 0.128877 0.757943 0.431187
O O2 0.248991 0.551727 0.370335
O O3 0.000000 0.500000 0.376647
O O4 0.125062 0.901717 0.348690
O O5 0.610479 0.390396 0.300888
O O6 0.602478 0.263553 0.213934
O O7 0.500000 0.000000 0.271238
O O8 0.748805 0.085076 0.273192
O O9 0.198392 0.500000 0.500000
O O10 0.000000 0.248618 0.500000
O O11 0.201774 0.000000 0.500000
O O12 0.186338 0.306030 0.832694
O O13 0.000000 0.000000 0.868032
#
# Coordination Sequence:
#
# PCOD9331208 Si02
#       5
#     8   8   8   8   8
#     4  11  26  46  67 114 143 182 247 308 381 449
#     4  11  22  43  64  91 135 198 256 301 372 423
#     4  10  21  42  77 104 144 192 229 296 381 466
#     4  11  24  44  68  96 141 195 250 303 368 443
#     4  11  24  42  68  97 144 189 255 318 358 444
#
# _framework density 21.607841000000001
#
# number of rings (size 3 to 8) (size 9 to 14) (size 15 to 20)
#    0.000    1.200    6.000    0.000    2.800    1.600 
#    7.200    0.000    0.000    0.600    0.000    0.000 
#    0.000    0.000    0.000    0.000    0.000    0.000 
#
# Total GULP energy -111589.325418 kJ/mol
# GULP energy per Si atom -5579.466271 kJ/mol
# Density = 2.155866 g / cm^3
# Si number density = 21.607841 Si / 1000 Ang^3
#
#
#
# Elastic Constant Matrix: (Units=GPa)
#
#
# Indices 1 2 3 4 5 6 
#
# 1 134.3897 49.2366 60.2613 0.0000 0.0000 0.0000
# 2 49.2366 136.8003 69.6434 0.0000 0.0000 0.0000
# 3 60.2613 69.6434 173.5389 0.0000 0.0000 0.0000
# 4 0.0000 0.0000 0.0000 11.3769 0.0000 0.0000
# 5 0.0000 0.0000 0.0000 0.0000 19.0619 0.0000
# 6 0.0000 0.0000 0.0000 0.0000 0.0000 34.9173
#
#
#
# Elastic Compliance Matrix: (Units=1/GPa)
#
#
# Indices 1 2 3 4 5 6 
#
# 1 0.009285 -0.002137 -0.002367 0.000000 0.000000 0.000000
# 2 -0.002137 0.009679 -0.003142 0.000000 0.000000 0.000000
# 3 -0.002367 -0.003142 0.007845 0.000000 0.000000 0.000000
# 4 0.000000 0.000000 0.000000 0.087898 0.000000 0.000000
# 5 0.000000 0.000000 0.000000 0.000000 0.052461 0.000000
# 6 0.000000 0.000000 0.000000 0.000000 0.000000 0.028639
#
#
# Mechanical properties :
#
#
# Convention : Reuss Voigt Hill
#
# Bulk Modulus (GPa) = 86.82459 89.22351 88.02405
# Shear Modulus (GPa) = 23.26261 30.77706 27.01984
#
# Velocity S-wave (km/s) = 3.28469 3.77815 3.54003
# Velocity P-wave (km/s) = 7.39289 7.77267 7.58516
#
# Compressibility (1/GPa) = 0.01151747
#
# Stress axis : x y z
#
# Youngs Moduli (GPa) = 107.69787 103.31976 127.46679
#
# Poissons Ratio (x) = 0.22080 0.30167
# Poissons Ratio (y) = 0.23016 0.40051
# Poissons Ratio (z) = 0.25488 0.32464
#
# Static dielectric constant tensor:
#      x y z
#    x 1.892310 0.000000 0.000000 
#    y 0.000000 2.019740 0.000000 
#    z 0.000000 0.000000 1.763380 
# 
# From -- ./inp_files/30410.got.cif
#   From: 2010.05.17/outbox.cif.g08.bks.cpg/sg23_16_cif.got.tgz:30410.got - 2010.06.04 12:02:01.
