data_PCOD9331570
_publ_section_title
;
Structure prediction by ZEFSAII (Michael W. Deem and Ramdas Pophale) SiO2 
 PCOD9331570
Probable space group: I 2 2 2
;
_chemical_formula_sum "Si O2"
_cell_formula_units_Z 64
_cell_length_a 10.979879
_cell_length_b 9.449401
_cell_length_c 30.967522
_cell_angle_alpha 90.000000
_cell_angle_beta 90.000000
_cell_angle_gamma 90.000000
_cell_volume 3212.981969
_symmetry_space_group_name_H-M "I 2 2 2"
_symmetry_group_IT_number 23
_symmetry_cell_setting 'orthorhombic'
loop_
_space_group_symop_operation_xyz
x,y,z
-x,-y,z
x,-y,-z
-x,y,-z
1/2+x,1/2+y,1/2+z
1/2-x,1/2-y,1/2+z
1/2+x,1/2-y,1/2-z
1/2-x,1/2+y,1/2-z
loop_
_atom_site_type_symbol
_atom_site_label
_atom_site_fract_x
_atom_site_fract_y
_atom_site_fract_z
Si Si1 0.821081 0.922754 0.309878
Si Si2 0.145403 0.030703 0.450371
Si Si3 0.507648 0.666065 0.261105
Si Si4 0.366966 0.072596 0.237370
Si Si5 0.984947 0.669993 0.148529
Si Si6 0.793853 0.162750 0.374021
Si Si7 0.143123 0.470304 0.641350
Si Si8 0.732280 0.741910 0.390819
O O1 0.911152 0.838395 0.278258
O O2 0.714435 0.971797 0.277655
O O3 0.778517 0.816538 0.346737
O O4 0.856972 0.060390 0.338139
O O5 0.199510 0.177484 0.430404
O O6 0.175998 0.000000 0.500000
O O7 0.204290 0.917187 0.418915
O O8 0.000000 0.000000 0.445691
O O9 0.500000 0.500000 0.272684
O O10 0.618776 0.756713 0.240713
O O11 0.494545 0.751984 0.305392
O O12 0.310872 0.032581 0.191200
O O13 0.500000 0.000000 0.239988
O O14 0.846124 0.690849 0.136050
O O15 0.000000 0.500000 0.151775
O O16 0.086878 0.730954 0.115118
O O17 0.854617 0.313004 0.376586
O O18 0.221574 0.581548 0.614034
O O19 0.000000 0.500000 0.643432
#
# Coordination Sequence:
#
# PCOD9331570 Si02
#       8
#     8   8   8   8   8   8   8   8
#     4  11  22  37  57  81 120 173 224 267 309 381
#     4  10  22  44  74 102 127 161 217 275 335 419
#     4  12  25  34  54  86 120 171 231 270 313 365
#     4  11  22  37  52  76 121 169 219 270 315 357
#     4  12  23  44  60  89 130 178 222 278 324 398
#     4  11  23  40  66  89 131 172 212 269 345 385
#     4  11  24  39  60  92 131 170 218 276 327 386
#     4  11  24  41  66  94 129 171 223 272 338 397
#
# _framework density 19.91919
#
# number of rings (size 3 to 8) (size 9 to 14) (size 15 to 20)
#    0.000    0.875    3.750    4.875    3.500    5.000 
#    0.000    1.875    0.000    2.250    0.000    1.750 
#    0.000    0.000    0.000    0.000    0.000    0.000 
#
# Total GULP energy -178565.362732 kJ/mol
# GULP energy per Si atom -5580.167585 kJ/mol
# Density = 1.987385 g / cm^3
# Si number density = 19.919190 Si / 1000 Ang^3
#
#
#
# Elastic Constant Matrix: (Units=GPa)
#
#
# Indices 1 2 3 4 5 6 
#
# 1 52.4750 0.8348 10.6364 0.0000 0.0000 0.0000
# 2 0.8348 110.1536 4.5380 0.0000 0.0000 0.0000
# 3 10.6364 4.5380 80.7952 0.0000 0.0000 0.0000
# 4 0.0000 0.0000 0.0000 12.8451 0.0000 0.0000
# 5 0.0000 0.0000 0.0000 0.0000 48.6119 0.0000
# 6 0.0000 0.0000 0.0000 0.0000 0.0000 24.2926
#
#
#
# Elastic Compliance Matrix: (Units=1/GPa)
#
#
# Indices 1 2 3 4 5 6 
#
# 1 0.019579 -0.000042 -0.002575 0.000000 0.000000 0.000000
# 2 -0.000042 0.009099 -0.000506 0.000000 0.000000 0.000000
# 3 -0.002575 -0.000506 0.012744 0.000000 0.000000 0.000000
# 4 0.000000 0.000000 0.000000 0.077850 0.000000 0.000000
# 5 0.000000 0.000000 0.000000 0.000000 0.020571 0.000000
# 6 0.000000 0.000000 0.000000 0.000000 0.000000 0.041165
#
#
# Mechanical properties :
#
#
# Convention : Reuss Voigt Hill
#
# Bulk Modulus (GPa) = 28.42757 30.60470 29.51614
# Shear Modulus (GPa) = 25.12803 32.31092 28.71947
#
# Velocity S-wave (km/s) = 3.55561 4.03190 3.80122
# Velocity P-wave (km/s) = 5.58202 6.08874 5.84088
#
# Compressibility (1/GPa) = 0.03517711
#
# Stress axis : x y z
#
# Youngs Moduli (GPa) = 51.07427 109.89764 78.46597
#
# Poissons Ratio (x) = 0.00465 0.20206
# Poissons Ratio (y) = 0.00216 0.03967
# Poissons Ratio (z) = 0.13153 0.05555
#
# Static dielectric constant tensor:
#      x y z
#    x 1.815300 0.000000 0.000000 
#    y 0.000000 1.771760 0.000000 
#    z 0.000000 0.000000 1.674340 
# 
# From -- ./inp_files/30477.got.cif
#   From: 2010.05.17/outbox.cif.g08.bks.cpg/sg23_16_cif.got.tgz:30477.got - 2010.06.04 12:02:01.
