data_PCOD9331798
_publ_section_title
;
Structure prediction by ZEFSAII (Michael W. Deem and Ramdas Pophale) SiO2 
 PCOD9331798
Probable space group: I 2 2 2
;
_chemical_formula_sum "Si O2"
_cell_formula_units_Z 44
_cell_length_a 8.283672
_cell_length_b 23.797261
_cell_length_c 12.477665
_cell_angle_alpha 90.000000
_cell_angle_beta 90.000000
_cell_angle_gamma 90.000000
_cell_volume 2459.705938
_symmetry_space_group_name_H-M "I 2 2 2"
_symmetry_group_IT_number 23
_symmetry_cell_setting 'orthorhombic'
loop_
_space_group_symop_operation_xyz
x,y,z
-x,-y,z
x,-y,-z
-x,y,-z
1/2+x,1/2+y,1/2+z
1/2-x,1/2-y,1/2+z
1/2+x,1/2-y,1/2-z
1/2-x,1/2+y,1/2-z
loop_
_atom_site_type_symbol
_atom_site_label
_atom_site_fract_x
_atom_site_fract_y
_atom_site_fract_z
Si Si1 0.000000 0.000000 0.000000
Si Si2 0.808839 0.673093 0.771134
Si Si3 0.682141 0.795487 0.731246
Si Si4 0.819202 0.184894 0.046617
Si Si5 0.251679 0.918268 0.901638
Si Si6 0.688983 0.694005 0.001154
Si Si7 0.500000 0.000000 0.000000
O O1 0.899482 0.958554 0.076408
O O2 0.705207 0.727679 0.733898
O O3 0.759045 0.617785 0.706350
O O4 0.777947 0.667882 0.898177
O O5 0.996107 0.688377 0.748533
O O6 0.799732 0.817478 0.825368
O O7 0.734263 0.818705 0.616033
O O8 0.714578 0.238992 0.014181
O O9 0.751297 0.129004 0.993940
O O10 0.000000 0.193083 0.000000
O O11 0.398840 0.959521 0.923230
O O12 0.500000 0.680754 0.000000
#
# Coordination Sequence:
#
# PCOD9331798 Si02
#       7
#     2   8   8   8   8   8   2
#     4  10  24  38  60  82 114 150 216 258 302 328
#     4  11  23  35  59  82 126 160 198 235 299 355
#     4  11  21  36  54  89 126 165 188 230 284 385
#     4  11  22  34  60  83 127 160 192 237 302 352
#     4  11  22  40  57  88 113 157 197 258 295 343
#     4  11  23  34  54  89 126 166 197 223 283 386
#     4  10  24  38  60  82 114 146 220 250 308 334
#
# _framework density 17.888317000000001
#
# number of rings (size 3 to 8) (size 9 to 14) (size 15 to 20)
#    0.000    1.091    2.727    6.000    3.818    0.000 
#    0.000    0.000    0.000    0.000    0.000   31.182 
#    0.000    0.000    0.000    0.000    0.000    0.000 
#
# Total GULP energy -122859.505311 kJ/mol
# GULP energy per Si atom -5584.522969 kJ/mol
# Density = 1.784760 g / cm^3
# Si number density = 17.888317 Si / 1000 Ang^3
#
#
#
# Elastic Constant Matrix: (Units=GPa)
#
#
# Indices 1 2 3 4 5 6 
#
# 1 105.7149 35.8454 39.5885 0.0000 0.0000 0.0000
# 2 35.8454 96.0628 49.3381 0.0000 0.0000 0.0000
# 3 39.5885 49.3381 154.3502 0.0000 0.0000 0.0000
# 4 0.0000 0.0000 0.0000 20.0940 0.0000 0.0000
# 5 0.0000 0.0000 0.0000 0.0000 20.6869 0.0000
# 6 0.0000 0.0000 0.0000 0.0000 0.0000 17.8841
#
#
#
# Elastic Compliance Matrix: (Units=1/GPa)
#
#
# Indices 1 2 3 4 5 6 
#
# 1 0.011253 -0.003250 -0.001847 0.000000 0.000000 0.000000
# 2 -0.003250 0.013393 -0.003448 0.000000 0.000000 0.000000
# 3 -0.001847 -0.003448 0.008055 0.000000 0.000000 0.000000
# 4 0.000000 0.000000 0.000000 0.049766 0.000000 0.000000
# 5 0.000000 0.000000 0.000000 0.000000 0.048340 0.000000
# 6 0.000000 0.000000 0.000000 0.000000 0.000000 0.055916
#
#
# Mechanical properties :
#
#
# Convention : Reuss Voigt Hill
#
# Bulk Modulus (GPa) = 64.05793 67.29691 65.67742
# Shear Modulus (GPa) = 23.92151 27.15672 25.53911
#
# Velocity S-wave (km/s) = 3.66084 3.90054 3.78259
# Velocity P-wave (km/s) = 7.33189 7.61498 7.47478
#
# Compressibility (1/GPa) = 0.01561087
#
# Stress axis : x y z
#
# Youngs Moduli (GPa) = 88.86278 74.66384 124.15274
#
# Poissons Ratio (x) = 0.24268 0.22935
# Poissons Ratio (y) = 0.28883 0.42802
# Poissons Ratio (z) = 0.16416 0.25741
#
# Static dielectric constant tensor:
#      x y z
#    x 1.653330 0.000000 0.000000 
#    y 0.000000 1.571520 0.000000 
#    z 0.000000 0.000000 1.648380 
# 
# From -- ./inp_files/14732.got.cif
#   From: 2010.05.17/outbox.cif.g08.bks.cpg/sg23_8_cif.got.tgz:14732.got - 2010.06.04 12:02:01.
