data_PCOD9331406
_publ_section_title
;
Structure prediction by ZEFSAII (Michael W. Deem and Ramdas Pophale) SiO2 
 PCOD9331406
Probable space group: I 2 2 2
;
_chemical_formula_sum "Si O2"
_cell_formula_units_Z 34
_cell_length_a 8.562419
_cell_length_b 21.355050
_cell_length_c 9.079986
_cell_angle_alpha 90.000000
_cell_angle_beta 90.000000
_cell_angle_gamma 90.000000
_cell_volume 1660.283484
_symmetry_space_group_name_H-M "I 2 2 2"
_symmetry_group_IT_number 23
_symmetry_cell_setting 'orthorhombic'
loop_
_space_group_symop_operation_xyz
x,y,z
-x,-y,z
x,-y,-z
-x,y,-z
1/2+x,1/2+y,1/2+z
1/2-x,1/2-y,1/2+z
1/2+x,1/2-y,1/2-z
1/2-x,1/2+y,1/2-z
loop_
_atom_site_type_symbol
_atom_site_label
_atom_site_fract_x
_atom_site_fract_y
_atom_site_fract_z
Si Si1 0.852493 0.109967 0.802150
Si Si2 0.660996 0.327413 0.830597
Si Si3 0.000000 0.000000 0.000000
Si Si4 0.314577 0.275199 0.484737
Si Si5 0.816293 0.430983 0.016723
O O1 0.799803 0.161715 0.919741
O O2 0.728103 0.094070 0.677485
O O3 0.994193 0.143655 0.713563
O O4 0.905913 0.048054 0.892723
O O5 0.718130 0.293175 0.682930
O O6 0.694182 0.276157 0.956409
O O7 0.755347 0.386765 0.888008
O O8 0.500000 0.255052 0.500000
O O9 0.745229 0.500000 0.000000
O O10 0.000000 0.434269 0.000000
#
# Coordination Sequence:
#
# PCOD9331406 Si02
#       5
#     8   8   2   8   8
#     4  11  23  42  71 102 136 186 235 298 347 423
#     4  11  21  41  66 100 132 184 231 285 353 418
#     4  12  20  44  78 106 144 184 260 290 352 420
#     4  10  22  40  64  99 139 175 228 286 354 421
#     4  11  25  43  64  94 137 181 231 288 356 421
#
# _framework density 20.478428999999998
#
# number of rings (size 3 to 8) (size 9 to 14) (size 15 to 20)
#    0.000    1.176    3.529    4.235    0.000    4.706 
#    0.000    5.882    0.000    0.000    0.000    0.000 
#    0.000    0.000    0.000    0.000    0.000    0.000 
#
# Total GULP energy -94959.345659 kJ/mol
# GULP energy per Si atom -5585.843862 kJ/mol
# Density = 2.043182 g / cm^3
# Si number density = 20.478429 Si / 1000 Ang^3
#
#
#
# Elastic Constant Matrix: (Units=GPa)
#
#
# Indices 1 2 3 4 5 6 
#
# 1 45.0472 43.6841 59.7334 -0.0005 -0.0001 0.0002
# 2 43.6841 138.6142 46.1086 -0.0002 -0.0005 0.0003
# 3 59.7334 46.1086 125.2330 0.0027 0.0006 -0.0021
# 4 -0.0005 -0.0002 0.0027 36.8085 -0.0001 -0.0003
# 5 -0.0001 -0.0005 0.0006 -0.0001 34.3070 -0.0001
# 6 0.0002 0.0003 -0.0021 -0.0003 -0.0001 13.6633
#
#
#
# Elastic Compliance Matrix: (Units=1/GPa)
#
#
# Indices 1 2 3 4 5 6 
#
# 1 0.078818 -0.014055 -0.032420 0.000003 0.000001 -0.000006
# 2 -0.014055 0.010728 0.002754 0.000000 0.000000 0.000000
# 3 -0.032420 0.002754 0.022434 -0.000002 0.000000 0.000004
# 4 0.000003 0.000000 -0.000002 0.027168 0.000000 0.000001
# 5 0.000001 0.000000 0.000000 0.000000 0.029149 0.000000
# 6 -0.000006 0.000000 0.000004 0.000001 0.000000 0.073189
#
#
# Mechanical properties :
#
#
# Convention : Reuss Voigt Hill
#
# Bulk Modulus (GPa) = 40.75154 67.54962 54.15058
# Shear Modulus (GPa) = 14.83215 27.58031 21.20623
#
# Velocity S-wave (km/s) = 2.69417 3.67386 3.22147
# Velocity P-wave (km/s) = 5.44252 7.14518 6.35117
#
# Compressibility (1/GPa) = 0.02453895
#
# Stress axis : x y z
#
# Youngs Moduli (GPa) = 12.68746 93.21760 44.57437
#
# Poissons Ratio (x) = 1.31021 1.44508
# Poissons Ratio (y) = 0.17833 -0.12278
# Poissons Ratio (z) = 0.41132 -0.25676
#
# Static dielectric constant tensor:
#      x y z
#    x 1.732680 0.000000 0.000000 
#    y 0.000000 1.752800 0.000000 
#    z 0.000000 0.000000 1.815330 
# 
# From -- ./inp_files/6695.got.cif
#   From: 2010.05.17/outbox.cif.g08.bks.cpg/sg23_4_cif.got.tgz:6695.got - 2010.06.04 12:02:01.
