data_PCOD9331602
_publ_section_title
;
Structure prediction by ZEFSAII (Michael W. Deem and Ramdas Pophale) SiO2 
 PCOD9331602
Probable space group: I 2 2 2
;
_chemical_formula_sum "Si O2"
_cell_formula_units_Z 26
_cell_length_a 5.425086
_cell_length_b 25.604042
_cell_length_c 7.228084
_cell_angle_alpha 90.000000
_cell_angle_beta 90.000000
_cell_angle_gamma 90.000000
_cell_volume 1004.010718
_symmetry_space_group_name_H-M "I 2 2 2"
_symmetry_group_IT_number 23
_symmetry_cell_setting 'orthorhombic'
loop_
_space_group_symop_operation_xyz
x,y,z
-x,-y,z
x,-y,-z
-x,y,-z
1/2+x,1/2+y,1/2+z
1/2-x,1/2-y,1/2+z
1/2+x,1/2-y,1/2-z
1/2-x,1/2+y,1/2-z
loop_
_atom_site_type_symbol
_atom_site_label
_atom_site_fract_x
_atom_site_fract_y
_atom_site_fract_z
Si Si1 0.249087 0.621624 0.666264
Si Si2 0.154744 0.259914 0.340927
Si Si3 0.000000 0.000000 0.500000
Si Si4 0.245703 0.082874 0.242837
O O1 0.219510 0.680926 0.600571
O O2 0.504739 0.618287 0.773210
O O3 0.252257 0.583906 0.484575
O O4 0.014787 0.604664 0.784726
O O5 0.421855 0.235659 0.300006
O O6 0.000000 0.231035 0.500000
O O7 0.824516 0.967725 0.359987
#
# Coordination Sequence:
#
# PCOD9331602 Si02
#       4
#     8   8   2   8
#     4  10  22  48  72  97 145 216 215 282 382 455
#     4  12  25  45  74 112 149 192 254 295 347 437
#     4  12  28  48  72 130 128 180 256 338 344 420
#     4  10  23  44  77  96 150 182 248 291 374 435
#
# _framework density 25.896139000000002
#
# number of rings (size 3 to 8) (size 9 to 14) (size 15 to 20)
#    0.000    1.231    3.077    2.769    4.308    6.154 
#   16.615    6.154    0.000    0.000    0.000    0.000 
#    0.000    0.000    0.000    0.000    0.000    0.000 
#
# Total GULP energy -72461.129398 kJ/mol
# GULP energy per Si atom -5573.933031 kJ/mol
# Density = 2.583720 g / cm^3
# Si number density = 25.896139 Si / 1000 Ang^3
#
#
#
# Elastic Constant Matrix: (Units=GPa)
#
#
# Indices 1 2 3 4 5 6 
#
# 1 236.7129 29.0246 29.5938 0.0001 -0.0002 0.0001
# 2 29.0246 92.0412 42.2578 0.0021 0.0000 -0.0005
# 3 29.5938 42.2578 123.4415 0.0063 0.0001 -0.0023
# 4 0.0001 0.0021 0.0063 16.3846 0.0001 -0.0019
# 5 -0.0002 0.0000 0.0001 0.0001 21.1202 0.0001
# 6 0.0001 -0.0005 -0.0023 -0.0019 0.0001 16.5169
#
#
#
# Elastic Compliance Matrix: (Units=1/GPa)
#
#
# Indices 1 2 3 4 5 6 
#
# 1 0.004444 -0.001082 -0.000695 0.000000 0.000000 0.000000
# 2 -0.001082 0.013154 -0.004244 0.000000 0.000000 0.000000
# 3 -0.000695 -0.004244 0.009720 -0.000003 0.000000 0.000001
# 4 0.000000 0.000000 -0.000003 0.061033 0.000000 0.000007
# 5 0.000000 0.000000 0.000000 0.000000 0.047348 0.000000
# 6 0.000000 0.000000 0.000001 0.000007 0.000000 0.060544
#
#
# Mechanical properties :
#
#
# Convention : Reuss Voigt Hill
#
# Bulk Modulus (GPa) = 65.45812 72.66089 69.05950
# Shear Modulus (GPa) = 23.43260 34.22564 28.82912
#
# Velocity S-wave (km/s) = 3.01137 3.63939 3.34017
# Velocity P-wave (km/s) = 6.11745 6.76607 6.44992
#
# Compressibility (1/GPa) = 0.01527694
#
# Stress axis : x y z
#
# Youngs Moduli (GPa) = 225.01648 76.02042 102.87710
#
# Poissons Ratio (x) = 0.08228 0.07149
# Poissons Ratio (y) = 0.24355 0.43658
# Poissons Ratio (z) = 0.15636 0.32260
#
# Static dielectric constant tensor:
#      x y z
#    x 2.221840 0.000000 0.000000 
#    y 0.000000 1.992550 0.000000 
#    z 0.000000 0.000000 2.352940 
# 
# From -- ./inp_files/5694.got.cif
#   From: 2010.05.17/outbox.cif.g08.bks.cpg/sg23_3_cif.got.tgz:5694.got - 2010.06.04 12:02:01.
