data_PCOD9331725
_publ_section_title
;
Structure prediction by ZEFSAII (Michael W. Deem and Ramdas Pophale) SiO2 
 PCOD9331725
Probable space group: I 2 2 2
;
_chemical_formula_sum "Si O2"
_cell_formula_units_Z 32
_cell_length_a 10.334385
_cell_length_b 15.693615
_cell_length_c 8.781120
_cell_angle_alpha 90.000000
_cell_angle_beta 90.000000
_cell_angle_gamma 90.000000
_cell_volume 1424.155932
_symmetry_space_group_name_H-M "I 2 2 2"
_symmetry_group_IT_number 23
_symmetry_cell_setting 'orthorhombic'
loop_
_space_group_symop_operation_xyz
x,y,z
-x,-y,z
x,-y,-z
-x,y,-z
1/2+x,1/2+y,1/2+z
1/2-x,1/2-y,1/2+z
1/2+x,1/2-y,1/2-z
1/2-x,1/2+y,1/2-z
loop_
_atom_site_type_symbol
_atom_site_label
_atom_site_fract_x
_atom_site_fract_y
_atom_site_fract_z
Si Si1 0.846172 0.509943 0.824583
Si Si2 0.833604 0.915857 0.899446
Si Si3 0.746076 0.812106 0.181411
Si Si4 0.008518 0.181283 0.672542
O O1 0.778776 0.439750 0.719308
O O2 0.872340 0.219831 0.727661
O O3 0.000000 0.500000 0.813637
O O4 0.806981 0.500000 0.000000
O O5 0.872780 0.752595 0.676043
O O6 0.955431 0.889679 0.797287
O O7 0.852852 0.000000 0.000000
O O8 0.792071 0.840568 0.013263
O O9 0.697805 0.898068 0.264325
O O10 0.000000 0.148286 0.500000
#
# Coordination Sequence:
#
# PCOD9331725 Si02
#       4
#     8   8   8   8
#     4  10  23  43  71 102 139 182 234 286 343 411
#     4  10  24  46  72 100 139 184 236 287 344 414
#     4  11  26  44  71 105 139 186 229 287 350 411
#     4  12  26  45  70 106 143 184 230 291 346 413
#
# _framework density 22.469449999999998
#
# number of rings (size 3 to 8) (size 9 to 14) (size 15 to 20)
#    0.000    1.250    0.000    3.750    7.000   10.500 
#    4.500    6.250    0.000    0.000    0.000    0.000 
#    0.000    0.000    0.000    0.000    0.000    0.000 
#
# Total GULP energy -89626.346713 kJ/mol
# GULP energy per Si atom -5601.646670 kJ/mol
# Density = 2.241831 g / cm^3
# Si number density = 22.469450 Si / 1000 Ang^3
#
#
#
# Elastic Constant Matrix: (Units=GPa)
#
#
# Indices 1 2 3 4 5 6 
#
# 1 137.0268 35.1954 67.9734 0.0000 0.0000 0.0000
# 2 35.1954 54.2352 38.2171 0.0000 0.0000 0.0000
# 3 67.9734 38.2171 180.9264 0.0000 0.0000 0.0000
# 4 0.0000 0.0000 0.0000 31.1797 0.0000 0.0000
# 5 0.0000 0.0000 0.0000 0.0000 43.2260 0.0000
# 6 0.0000 0.0000 0.0000 0.0000 0.0000 43.5877
#
#
#
# Elastic Compliance Matrix: (Units=1/GPa)
#
#
# Indices 1 2 3 4 5 6 
#
# 1 0.009796 -0.004422 -0.002746 0.000000 0.000000 0.000000
# 2 -0.004422 0.023659 -0.003336 0.000000 0.000000 0.000000
# 3 -0.002746 -0.003336 0.007264 0.000000 0.000000 0.000000
# 4 0.000000 0.000000 0.000000 0.032072 0.000000 0.000000
# 5 0.000000 0.000000 0.000000 0.000000 0.023134 0.000000
# 6 0.000000 0.000000 0.000000 0.000000 0.000000 0.022942
#
#
# Mechanical properties :
#
#
# Convention : Reuss Voigt Hill
#
# Bulk Modulus (GPa) = 50.73673 72.77336 61.75505
# Shear Modulus (GPa) = 34.14254 38.98551 36.56402
#
# Velocity S-wave (km/s) = 3.90232 4.16991 4.03833
# Velocity P-wave (km/s) = 6.55236 7.45937 7.02053
#
# Compressibility (1/GPa) = 0.01970959
#
# Stress axis : x y z
#
# Youngs Moduli (GPa) = 102.08367 42.26808 137.67350
#
# Poissons Ratio (x) = 0.18690 0.37809
# Poissons Ratio (y) = 0.45139 0.45930
# Poissons Ratio (z) = 0.28035 0.14101
#
# Static dielectric constant tensor:
#      x y z
#    x 1.836990 0.000000 0.000000 
#    y 0.000000 1.817390 0.000000 
#    z 0.000000 0.000000 1.821710 
# 
# From -- ./inp_files/7834.got.cif
#   From: 2010.05.17/outbox.cif.g08.bks.cpg/sg23_4_cif.got.tgz:7834.got - 2010.06.04 12:02:01.
