data_PCOD9331609
_publ_section_title
;
Structure prediction by ZEFSAII (Michael W. Deem and Ramdas Pophale) SiO2 
 PCOD9331609
Probable space group: I 2 2 2
;
_chemical_formula_sum "Si O2"
_cell_formula_units_Z 44
_cell_length_a 18.187984
_cell_length_b 5.137467
_cell_length_c 28.291680
_cell_angle_alpha 90.000000
_cell_angle_beta 90.000000
_cell_angle_gamma 90.000000
_cell_volume 2643.579321
_symmetry_space_group_name_H-M "I 2 2 2"
_symmetry_group_IT_number 23
_symmetry_cell_setting 'orthorhombic'
loop_
_space_group_symop_operation_xyz
x,y,z
-x,-y,z
x,-y,-z
-x,y,-z
1/2+x,1/2+y,1/2+z
1/2-x,1/2-y,1/2+z
1/2+x,1/2-y,1/2-z
1/2-x,1/2+y,1/2-z
loop_
_atom_site_type_symbol
_atom_site_label
_atom_site_fract_x
_atom_site_fract_y
_atom_site_fract_z
Si Si1 0.282449 0.704502 0.223271
Si Si2 0.454512 0.252542 0.758511
Si Si3 0.000000 0.000000 0.926549
Si Si4 0.684468 0.722109 0.363739
Si Si5 0.910155 0.719779 0.151863
Si Si6 0.146697 0.761859 0.030726
O O1 0.257398 0.433449 0.246938
O O2 0.369770 0.741967 0.225937
O O3 0.252963 0.720244 0.169778
O O4 0.500000 0.500000 0.775235
O O5 0.450275 0.258574 0.701333
O O6 0.500000 0.000000 0.772906
O O7 0.936014 0.852946 0.954875
O O8 0.039057 0.790190 0.892474
O O9 0.655067 0.432637 0.352635
O O10 0.690417 0.760836 0.419970
O O11 0.622038 0.930896 0.349200
O O12 0.145110 0.500000 0.000000
O O13 0.177357 0.000000 0.000000
#
# Coordination Sequence:
#
# PCOD9331609 Si02
#       6
#     8   8   4   8   8   8
#     4  12  22  38  59  80 109 147 190 226 275 338
#     4  12  23  35  53  82 117 142 182 230 277 326
#     4  10  23  32  52  74 106 146 184 222 273 306
#     4  11  22  38  54  76  99 142 189 227 264 317
#     4  11  21  33  52  76 105 144 185 223 255 316
#     4  11  24  38  51  72 104 140 186 231 269 307
#
# _framework density 16.644102
#
# number of rings (size 3 to 8) (size 9 to 14) (size 15 to 20)
#    0.000    0.727    4.545    4.636    2.545    5.818 
#    0.000    0.000    0.000    0.000    0.000    0.000 
#    0.000    4.364    0.000    0.000    0.000    0.000 
#
# Total GULP energy -123011.900112 kJ/mol
# GULP energy per Si atom -5591.450005 kJ/mol
# Density = 1.660622 g / cm^3
# Si number density = 16.644102 Si / 1000 Ang^3
#
#
#
# Elastic Constant Matrix: (Units=GPa)
#
#
# Indices 1 2 3 4 5 6 
#
# 1 93.8028 27.8838 38.5318 0.0000 0.0000 0.0000
# 2 27.8838 82.5623 31.0202 0.0000 0.0000 0.0000
# 3 38.5318 31.0202 99.7210 0.0000 0.0000 0.0000
# 4 0.0000 0.0000 0.0000 -6.4618 0.0000 0.0000
# 5 0.0000 0.0000 0.0000 0.0000 18.0499 0.0000
# 6 0.0000 0.0000 0.0000 0.0000 0.0000 21.2607
#
#
#
# Elastic Compliance Matrix: (Units=1/GPa)
#
#
# Indices 1 2 3 4 5 6 
#
# 1 0.013254 -0.002890 -0.004222 0.000000 0.000000 0.000000
# 2 -0.002890 0.014345 -0.003346 0.000000 0.000000 0.000000
# 3 -0.004222 -0.003346 0.012700 0.000000 0.000000 0.000000
# 4 0.000000 0.000000 0.000000 -0.154756 0.000000 0.000000
# 5 0.000000 0.000000 0.000000 0.000000 0.055402 0.000000
# 6 0.000000 0.000000 0.000000 0.000000 0.000000 0.047035
#
#
# Mechanical properties :
#
#
# Convention : Reuss Voigt Hill
#
# Bulk Modulus (GPa) = 51.59013 52.32862 51.95938
# Shear Modulus (GPa) = 325.57215 18.47978 172.02597
#
# Velocity S-wave (km/s) = 14.00117 3.33572 10.17742
# Velocity P-wave (km/s) = 17.10089 6.80764 13.01507
#
# Compressibility (1/GPa) = 0.01938355
#
# Stress axis : x y z
#
# Youngs Moduli (GPa) = 75.44797 69.71017 78.73870
#
# Poissons Ratio (x) = 0.20146 0.33247
# Poissons Ratio (y) = 0.21804 0.26344
# Poissons Ratio (z) = 0.31857 0.23323
#
# Static dielectric constant tensor:
#      x y z
#    x 1.549190 0.000000 0.000000 
#    y 0.000000 1.532410 0.000000 
#    z 0.000000 0.000000 1.582220 
# 
# From -- ./inp_files/30523.got.cif
#   From: 2010.05.17/outbox.cif.g08.bks.cpg/sg23_16_cif.got.tgz:30523.got - 2010.06.04 12:02:01.
