data_PCOD9331945
_publ_section_title
;
Structure prediction by ZEFSAII (Michael W. Deem and Ramdas Pophale) SiO2 
 PCOD9331945
Probable space group: I 2 2 2
;
_chemical_formula_sum "Si O2"
_cell_formula_units_Z 34
_cell_length_a 11.643355
_cell_length_b 7.261037
_cell_length_c 18.804276
_cell_angle_alpha 90.000000
_cell_angle_beta 90.000000
_cell_angle_gamma 90.000000
_cell_volume 1589.766737
_symmetry_space_group_name_H-M "I 2 2 2"
_symmetry_group_IT_number 23
_symmetry_cell_setting 'orthorhombic'
loop_
_space_group_symop_operation_xyz
x,y,z
-x,-y,z
x,-y,-z
-x,y,-z
1/2+x,1/2+y,1/2+z
1/2-x,1/2-y,1/2+z
1/2+x,1/2-y,1/2-z
1/2-x,1/2+y,1/2-z
loop_
_atom_site_type_symbol
_atom_site_label
_atom_site_fract_x
_atom_site_fract_y
_atom_site_fract_z
Si Si1 0.466386 0.294851 0.604344
Si Si2 0.727694 0.126082 0.834627
Si Si3 0.708677 0.788426 0.328026
Si Si4 0.500000 0.000000 0.500000
Si Si5 0.367419 0.445270 0.081845
O O1 0.500000 0.500000 0.578379
O O2 0.361968 0.318615 0.658019
O O3 0.582935 0.216653 0.637259
O O4 0.428090 0.145822 0.546026
O O5 0.690881 0.181042 0.755649
O O6 0.657555 0.234201 0.895316
O O7 0.729037 0.906515 0.841639
O O8 0.786567 0.941985 0.364375
O O9 0.500000 0.500000 0.094174
O O10 0.341861 0.500000 0.000000
#
# Coordination Sequence:
#
# PCOD9331945 Si02
#       5
#     8   8   8   2   8
#     4  10  25  41  65 104 139 170 223 279 344 402
#     4  11  24  43  71 102 137 179 226 284 339 405
#     4  11  24  43  71 102 137 179 226 284 339 405
#     4  12  22  40  68  98 142 176 212 276 348 416
#     4  11  27  48  69  99 140 184 231 281 340 409
#
# _framework density 21.386785
#
# number of rings (size 3 to 8) (size 9 to 14) (size 15 to 20)
#    0.000    1.176    2.353    1.765    9.882    1.882 
#    0.000    2.353    0.000    0.000    0.000    0.000 
#    0.000    0.000    0.000    0.000    0.000    0.000 
#
# Total GULP energy -95027.198459 kJ/mol
# GULP energy per Si atom -5589.835203 kJ/mol
# Density = 2.133811 g / cm^3
# Si number density = 21.386785 Si / 1000 Ang^3
#
#
#
# Elastic Constant Matrix: (Units=GPa)
#
#
# Indices 1 2 3 4 5 6 
#
# 1 68.3254 5.4262 11.9428 0.0000 0.0000 0.0000
# 2 5.4262 99.2975 9.9799 0.0000 0.0000 0.0000
# 3 11.9428 9.9799 88.5774 0.0000 0.0000 0.0000
# 4 0.0000 0.0000 0.0000 31.1033 0.0000 0.0000
# 5 0.0000 0.0000 0.0000 0.0000 10.6122 0.0000
# 6 0.0000 0.0000 0.0000 0.0000 0.0000 12.4723
#
#
#
# Elastic Compliance Matrix: (Units=1/GPa)
#
#
# Indices 1 2 3 4 5 6 
#
# 1 0.015027 -0.000625 -0.001956 0.000000 0.000000 0.000000
# 2 -0.000625 0.010212 -0.001066 0.000000 0.000000 0.000000
# 3 -0.001956 -0.001066 0.011673 0.000000 0.000000 0.000000
# 4 0.000000 0.000000 0.000000 0.032151 0.000000 0.000000
# 5 0.000000 0.000000 0.000000 0.000000 0.094231 0.000000
# 6 0.000000 0.000000 0.000000 0.000000 0.000000 0.080178
#
#
# Mechanical properties :
#
#
# Convention : Reuss Voigt Hill
#
# Bulk Modulus (GPa) = 33.76176 34.54423 34.15300
# Shear Modulus (GPa) = 19.18363 26.09432 22.63897
#
# Velocity S-wave (km/s) = 2.99822 3.49680 3.25707
# Velocity P-wave (km/s) = 5.27317 5.70006 5.49077
#
# Compressibility (1/GPa) = 0.02961931
#
# Stress axis : x y z
#
# Youngs Moduli (GPa) = 66.54553 97.92349 85.66480
#
# Poissons Ratio (x) = 0.06116 0.16754
# Poissons Ratio (y) = 0.04157 0.09135
# Poissons Ratio (z) = 0.13015 0.10442
#
# Static dielectric constant tensor:
#      x y z
#    x 1.779620 0.000000 0.000000 
#    y 0.000000 1.796250 0.000000 
#    z 0.000000 0.000000 1.769070 
# 
# From -- ./inp_files/24135.got.cif
#   From: 2010.05.17/outbox.cif.g08.bks.cpg/sg23_13_cif.got.tgz:24135.got - 2010.06.04 12:02:01.
