data_PCOD9331901
_publ_section_title
;
Structure prediction by ZEFSAII (Michael W. Deem and Ramdas Pophale) SiO2 
 PCOD9331901
Probable space group: I 2 2 2
;
_chemical_formula_sum "Si O2"
_cell_formula_units_Z 56
_cell_length_a 11.463894
_cell_length_b 11.439052
_cell_length_c 21.275864
_cell_angle_alpha 90.000000
_cell_angle_beta 90.000000
_cell_angle_gamma 90.000000
_cell_volume 2790.033395
_symmetry_space_group_name_H-M "I 2 2 2"
_symmetry_group_IT_number 23
_symmetry_cell_setting 'orthorhombic'
loop_
_space_group_symop_operation_xyz
x,y,z
-x,-y,z
x,-y,-z
-x,y,-z
1/2+x,1/2+y,1/2+z
1/2-x,1/2-y,1/2+z
1/2+x,1/2-y,1/2-z
1/2-x,1/2+y,1/2-z
loop_
_atom_site_type_symbol
_atom_site_label
_atom_site_fract_x
_atom_site_fract_y
_atom_site_fract_z
Si Si1 0.660604 0.597746 0.148784
Si Si2 0.873290 0.216911 0.475509
Si Si3 0.374063 0.946691 0.889019
Si Si4 0.399125 0.342101 0.811794
Si Si5 0.500277 0.359225 0.425867
Si Si6 0.687491 0.302868 0.323704
Si Si7 0.742639 0.186943 0.095688
O O1 0.671975 0.624377 0.074902
O O2 0.533804 0.649697 0.167964
O O3 0.659066 0.462876 0.165470
O O4 0.759228 0.673887 0.182193
O O5 0.888500 0.340802 0.438625
O O6 0.791294 0.238730 0.534544
O O7 0.000000 0.180538 0.500000
O O8 0.297244 0.890294 0.833363
O O9 0.500000 0.000000 0.872342
O O10 0.299424 0.054218 0.916187
O O11 0.386323 0.334139 0.737193
O O12 0.331417 0.238046 0.846559
O O13 0.500000 0.500000 0.421443
O O14 0.500000 0.329287 0.500000
O O15 0.610480 0.313885 0.386718
O O16 0.380656 0.313458 0.395322
#
# Coordination Sequence:
#
# PCOD9331901 Si02
#       7
#     8   8   8   8   8   8   8
#     4  10  24  46  64  94 129 169 223 260 329 391
#     4  11  20  38  64  99 133 164 210 283 327 379
#     4  11  21  36  63 100 129 163 211 276 333 379
#     4  11  26  42  68  96 127 176 218 267 323 403
#     4  11  24  41  65  96 131 174 218 269 333 398
#     4  11  25  43  67  92 133 174 210 279 324 394
#     4  12  23  38  64  98 132 170 220 267 337 392
#
# _framework density 20.071445000000001
#
# number of rings (size 3 to 8) (size 9 to 14) (size 15 to 20)
#    0.000    1.000    4.286    3.000    8.000    0.571 
#    0.000    0.714    0.000    0.857    0.000    0.000 
#    0.000    0.000    0.000    0.000    0.000    0.000 
#
# Total GULP energy -156550.315933 kJ/mol
# GULP energy per Si atom -5591.082712 kJ/mol
# Density = 2.002576 g / cm^3
# Si number density = 20.071445 Si / 1000 Ang^3
#
#
#
# Elastic Constant Matrix: (Units=GPa)
#
#
# Indices 1 2 3 4 5 6 
#
# 1 69.5182 8.1774 -1.7655 0.0000 0.0000 0.0000
# 2 8.1774 56.0743 12.8441 0.0000 0.0000 0.0000
# 3 -1.7655 12.8441 86.9734 0.0000 0.0000 0.0000
# 4 0.0000 0.0000 0.0000 7.2755 0.0000 0.0000
# 5 0.0000 0.0000 0.0000 0.0000 19.4126 0.0000
# 6 0.0000 0.0000 0.0000 0.0000 0.0000 19.5002
#
#
#
# Elastic Compliance Matrix: (Units=1/GPa)
#
#
# Indices 1 2 3 4 5 6 
#
# 1 0.014670 -0.002285 0.000635 0.000000 0.000000 0.000000
# 2 -0.002285 0.018814 -0.002825 0.000000 0.000000 0.000000
# 3 0.000635 -0.002825 0.011928 0.000000 0.000000 0.000000
# 4 0.000000 0.000000 0.000000 0.137448 0.000000 0.000000
# 5 0.000000 0.000000 0.000000 0.000000 0.051513 0.000000
# 6 0.000000 0.000000 0.000000 0.000000 0.000000 0.051281
#
#
# Mechanical properties :
#
#
# Convention : Reuss Voigt Hill
#
# Bulk Modulus (GPa) = 27.42550 27.89756 27.66153
# Shear Modulus (GPa) = 16.29959 22.12499 19.21229
#
# Velocity S-wave (km/s) = 2.85279 3.32371 3.09721
# Velocity P-wave (km/s) = 4.95427 5.35338 5.15769
#
# Compressibility (1/GPa) = 0.03646242
#
# Stress axis : x y z
#
# Youngs Moduli (GPa) = 68.16813 53.15274 83.83766
#
# Poissons Ratio (x) = 0.12144 -0.05325
# Poissons Ratio (y) = 0.15575 0.23682
# Poissons Ratio (z) = -0.04330 0.15014
#
# Static dielectric constant tensor:
#      x y z
#    x 1.713480 0.000000 0.000000 
#    y 0.000000 1.705320 0.000000 
#    z 0.000000 0.000000 1.710920 
# 
# From -- ./inp_files/15910.got.cif
#   From: 2010.05.17/outbox.cif.g08.bks.cpg/sg23_8_cif.got.tgz:15910.got - 2010.06.04 12:02:01.
