data_PCOD9331105
_publ_section_title
;
Structure prediction by ZEFSAII (Michael W. Deem and Ramdas Pophale) SiO2 
 PCOD9331105
Probable space group: I 2 2 2
;
_chemical_formula_sum "Si O2"
_cell_formula_units_Z 22
_cell_length_a 4.976296
_cell_length_b 22.761982
_cell_length_c 8.456867
_cell_angle_alpha 90.000000
_cell_angle_beta 90.000000
_cell_angle_gamma 90.000000
_cell_volume 957.912369
_symmetry_space_group_name_H-M "I 2 2 2"
_symmetry_group_IT_number 23
_symmetry_cell_setting 'orthorhombic'
loop_
_space_group_symop_operation_xyz
x,y,z
-x,-y,z
x,-y,-z
-x,y,-z
1/2+x,1/2+y,1/2+z
1/2-x,1/2-y,1/2+z
1/2+x,1/2-y,1/2-z
1/2-x,1/2+y,1/2-z
loop_
_atom_site_type_symbol
_atom_site_label
_atom_site_fract_x
_atom_site_fract_y
_atom_site_fract_z
Si Si1 0.500000 0.258320 0.000000
Si Si2 0.000000 0.000000 0.000000
Si Si3 0.422250 0.610829 0.669911
Si Si4 0.900531 0.671362 0.788210
O O1 0.252225 0.295713 0.930202
O O2 0.602516 0.218426 0.855270
O O3 0.843132 0.954449 0.886922
O O4 0.500000 0.640158 0.500000
O O5 0.703060 0.615907 0.758961
O O6 0.197287 0.644374 0.768004
#
# Coordination Sequence:
#
# PCOD9331105 Si02
#       4
#     4   2   8   8
#     4  12  26  42  66 100 148 206 224 290 346 430
#     4   8  20  38  72 100 132 182 232 308 360 404
#     4  10  21  40  65 102 134 179 240 302 337 420
#     4  12  25  41  65 100 148 190 240 280 354 434
#
# _framework density 22.966608000000001
#
# number of rings (size 3 to 8) (size 9 to 14) (size 15 to 20)
#    1.091    0.000    3.636    2.182    0.000   10.182 
#    0.000    0.000    0.000    1.091    0.000   15.273 
#    0.000    0.000    0.000    0.000    0.000    0.000 
#
# Total GULP energy -61260.042821 kJ/mol
# GULP energy per Si atom -5569.094802 kJ/mol
# Density = 2.291433 g / cm^3
# Si number density = 22.966608 Si / 1000 Ang^3
#
#
#
# Elastic Constant Matrix: (Units=GPa)
#
#
# Indices 1 2 3 4 5 6 
#
# 1 158.0080 39.7885 54.0508 0.0000 0.0000 0.0000
# 2 39.7885 113.5564 58.5719 0.0000 0.0000 0.0000
# 3 54.0508 58.5719 109.5864 0.0000 0.0000 0.0000
# 4 0.0000 0.0000 0.0000 4.8451 0.0000 0.0000
# 5 0.0000 0.0000 0.0000 0.0000 44.7716 0.0000
# 6 0.0000 0.0000 0.0000 0.0000 0.0000 17.8553
#
#
#
# Elastic Compliance Matrix: (Units=1/GPa)
#
#
# Indices 1 2 3 4 5 6 
#
# 1 0.007698 -0.001020 -0.003252 0.000000 0.000000 0.000000
# 2 -0.001020 0.012293 -0.006067 0.000000 0.000000 0.000000
# 3 -0.003252 -0.006067 0.013972 0.000000 0.000000 0.000000
# 4 0.000000 0.000000 0.000000 0.206394 0.000000 0.000000
# 5 0.000000 0.000000 0.000000 0.000000 0.022336 0.000000
# 6 0.000000 0.000000 0.000000 0.000000 0.000000 0.056006
#
#
# Mechanical properties :
#
#
# Convention : Reuss Voigt Hill
#
# Bulk Modulus (GPa) = 75.27332 76.21925 75.74629
# Shear Modulus (GPa) = 14.54312 28.74370 21.64341
#
# Velocity S-wave (km/s) = 2.51913 3.54155 3.07316
# Velocity P-wave (km/s) = 6.42710 7.06983 6.75611
#
# Compressibility (1/GPa) = 0.01328492
#
# Stress axis : x y z
#
# Youngs Moduli (GPa) = 129.90451 81.34631 71.57242
#
# Poissons Ratio (x) = 0.08298 0.23273
# Poissons Ratio (y) = 0.13251 0.43425
# Poissons Ratio (z) = 0.42240 0.49355
#
# Static dielectric constant tensor:
#      x y z
#    x 1.901540 0.000000 0.000000 
#    y 0.000000 1.855600 0.000000 
#    z 0.000000 0.000000 2.043270 
# 
# From -- ./inp_files/5641.got.cif
#   From: 2010.05.17/outbox.cif.g08.bks.cpg/sg23_3_cif.got.tgz:5641.got - 2010.06.04 12:02:01.
