data_PCOD9331704
_publ_section_title
;
Structure prediction by ZEFSAII (Michael W. Deem and Ramdas Pophale) SiO2 
 PCOD9331704
Probable space group: I 2 2 2
;
_chemical_formula_sum "Si O2"
_cell_formula_units_Z 32
_cell_length_a 10.235979
_cell_length_b 8.996715
_cell_length_c 14.368213
_cell_angle_alpha 90.000000
_cell_angle_beta 90.000000
_cell_angle_gamma 90.000000
_cell_volume 1323.171405
_symmetry_space_group_name_H-M "I 2 2 2"
_symmetry_group_IT_number 23
_symmetry_cell_setting 'orthorhombic'
loop_
_space_group_symop_operation_xyz
x,y,z
-x,-y,z
x,-y,-z
-x,y,-z
1/2+x,1/2+y,1/2+z
1/2-x,1/2-y,1/2+z
1/2+x,1/2-y,1/2-z
1/2-x,1/2+y,1/2-z
loop_
_atom_site_type_symbol
_atom_site_label
_atom_site_fract_x
_atom_site_fract_y
_atom_site_fract_z
Si Si1 0.794640 0.831666 0.528360
Si Si2 0.196276 0.907801 0.094681
Si Si3 0.477025 0.171326 0.637915
Si Si4 0.590173 0.116484 0.841686
O O1 0.785230 0.732582 0.435606
O O2 0.663017 0.806972 0.590473
O O3 0.897907 0.763263 0.598305
O O4 0.810822 0.000000 0.500000
O O5 0.062813 0.818765 0.115430
O O6 0.272307 0.020393 0.165383
O O7 0.182182 0.000000 0.000000
O O8 0.515816 0.153702 0.746322
O O9 0.500000 0.000000 0.603674
O O10 0.500000 0.000000 0.894369
#
# Coordination Sequence:
#
# PCOD9331704 Si02
#       4
#     8   8   8   8
#     4  11  23  44  79 107 139 195 252 302 359 436
#     4  10  23  42  71 108 145 192 242 299 372 433
#     4  11  23  41  74 107 151 185 245 310 358 428
#     4  10  26  46  72 104 157 194 237 304 375 440
#
# _framework density 24.184318999999999
#
# number of rings (size 3 to 8) (size 9 to 14) (size 15 to 20)
#    0.000    1.500    2.500    0.750    7.000   11.500 
#    0.000    2.500   22.000    0.000    0.000    0.000 
#    0.000    0.000    0.000    0.000    0.000    0.000 
#
# Total GULP energy -89103.928158 kJ/mol
# GULP energy per Si atom -5568.995510 kJ/mol
# Density = 2.412927 g / cm^3
# Si number density = 24.184319 Si / 1000 Ang^3
#
#
#
# Elastic Constant Matrix: (Units=GPa)
#
#
# Indices 1 2 3 4 5 6 
#
# 1 84.3628 35.6524 20.8117 0.0000 0.0000 0.0000
# 2 35.6524 187.2163 33.2123 0.0000 0.0000 0.0000
# 3 20.8117 33.2123 96.7458 0.0000 0.0000 0.0000
# 4 0.0000 0.0000 0.0000 27.3994 0.0000 0.0000
# 5 0.0000 0.0000 0.0000 0.0000 28.3057 0.0000
# 6 0.0000 0.0000 0.0000 0.0000 0.0000 34.8862
#
#
#
# Elastic Compliance Matrix: (Units=1/GPa)
#
#
# Indices 1 2 3 4 5 6 
#
# 1 0.013287 -0.002154 -0.002119 0.000000 0.000000 0.000000
# 2 -0.002154 0.006037 -0.001609 0.000000 0.000000 0.000000
# 3 -0.002119 -0.001609 0.011344 0.000000 0.000000 0.000000
# 4 0.000000 0.000000 0.000000 0.036497 0.000000 0.000000
# 5 0.000000 0.000000 0.000000 0.000000 0.035329 0.000000
# 6 0.000000 0.000000 0.000000 0.000000 0.000000 0.028665
#
#
# Mechanical properties :
#
#
# Convention : Reuss Voigt Hill
#
# Bulk Modulus (GPa) = 52.89837 60.85309 56.87573
# Shear Modulus (GPa) = 33.50665 36.69483 35.10074
#
# Velocity S-wave (km/s) = 3.72623 3.89948 3.81384
# Velocity P-wave (km/s) = 6.35874 6.74473 6.55458
#
# Compressibility (1/GPa) = 0.01890417
#
# Stress axis : x y z
#
# Youngs Moduli (GPa) = 75.26334 165.64144 88.14844
#
# Poissons Ratio (x) = 0.35686 0.18675
# Poissons Ratio (y) = 0.16215 0.14184
# Poissons Ratio (z) = 0.15945 0.26653
#
# Static dielectric constant tensor:
#      x y z
#    x 2.220980 0.000000 0.000000 
#    y 0.000000 2.003100 0.000000 
#    z 0.000000 0.000000 1.944830 
# 
# From -- ./inp_files/20495.got.cif
#   From: 2010.05.17/outbox.cif.g08.bks.cpg/sg23_11_cif.got.tgz:20495.got - 2010.06.04 12:02:01.
