data_PCOD9331034
_publ_section_title
;
Structure prediction by ZEFSAII (Michael W. Deem and Ramdas Pophale) SiO2 
 PCOD9331034
Probable space group: I 2 2 2
;
_chemical_formula_sum "Si O2"
_cell_formula_units_Z 58
_cell_length_a 12.049347
_cell_length_b 27.720972
_cell_length_c 8.719710
_cell_angle_alpha 90.000000
_cell_angle_beta 90.000000
_cell_angle_gamma 90.000000
_cell_volume 2912.554141
_symmetry_space_group_name_H-M "I 2 2 2"
_symmetry_group_IT_number 23
_symmetry_cell_setting 'orthorhombic'
loop_
_space_group_symop_operation_xyz
x,y,z
-x,-y,z
x,-y,-z
-x,y,-z
1/2+x,1/2+y,1/2+z
1/2-x,1/2-y,1/2+z
1/2+x,1/2-y,1/2-z
1/2-x,1/2+y,1/2-z
loop_
_atom_site_type_symbol
_atom_site_label
_atom_site_fract_x
_atom_site_fract_y
_atom_site_fract_z
Si Si1 0.054145 0.619490 0.249194
Si Si2 0.500000 0.500000 0.500000
Si Si3 0.339042 0.868965 0.077876
Si Si4 0.185591 0.690975 0.075886
Si Si5 0.814594 0.053498 0.195055
Si Si6 0.761318 0.214856 0.257207
Si Si7 0.621876 0.364091 0.931646
Si Si8 0.122151 0.514241 0.178675
O O1 0.105227 0.632599 0.413766
O O2 0.080345 0.661630 0.131852
O O3 0.115227 0.571578 0.192832
O O4 0.924316 0.613947 0.287654
O O5 0.420397 0.530957 0.611418
O O6 0.243458 0.908696 0.080299
O O7 0.297079 0.816627 0.126322
O O8 0.210760 0.732840 0.196736
O O9 0.183239 0.714674 0.907506
O O10 0.286644 0.652211 0.057579
O O11 0.844891 0.086893 0.342649
O O12 0.724180 0.012428 0.238712
O O13 0.864460 0.181183 0.313083
O O14 0.500000 0.367517 0.000000
O O15 0.000000 0.500000 0.242953
O O16 0.126157 0.500000 0.000000
#
# Coordination Sequence:
#
# PCOD9331034 Si02
#       8
#     8   2   8   8   8   8   8   8
#     4  11  22  37  64  96 129 178 209 275 345 405
#     4  12  28  40  72  92 136 188 240 276 340 400
#     4  10  22  40  62  94 134 170 217 272 343 393
#     4  10  21  39  64  94 130 169 222 277 336 404
#     4  11  23  46  60  99 134 175 233 283 325 418
#     4   9  21  39  63  93 131 166 219 279 324 414
#     4   9  22  41  67  89 133 181 223 275 337 409
#     4  11  23  38  67  98 138 176 222 283 353 413
#
# _framework density 19.913792999999998
#
# number of rings (size 3 to 8) (size 9 to 14) (size 15 to 20)
#    0.828    0.966    1.379    2.483    0.000    4.966 
#    0.000    0.000    0.000    0.000    0.000    0.000 
#    0.000    0.000    0.000    0.000    0.000    0.000 
#
# Total GULP energy -161715.423460 kJ/mol
# GULP energy per Si atom -5576.393912 kJ/mol
# Density = 1.986847 g / cm^3
# Si number density = 19.913793 Si / 1000 Ang^3
#
#
#
# Elastic Constant Matrix: (Units=GPa)
#
#
# Indices 1 2 3 4 5 6 
#
# 1 109.3941 51.4453 37.4215 0.0001 0.0001 -0.0017
# 2 51.4453 133.4698 54.7951 0.0003 0.0003 -0.0014
# 3 37.4215 54.7951 69.5805 0.0011 0.0007 -0.0114
# 4 0.0001 0.0003 0.0011 17.2945 -0.0002 -0.0021
# 5 0.0001 0.0003 0.0007 -0.0002 33.1977 0.0020
# 6 -0.0017 -0.0014 -0.0114 -0.0021 0.0020 -9.5774
#
#
#
# Elastic Compliance Matrix: (Units=1/GPa)
#
#
# Indices 1 2 3 4 5 6 
#
# 1 0.011916 -0.002899 -0.004125 0.000000 0.000000 0.000003
# 2 -0.002899 0.011777 -0.007715 0.000000 0.000000 0.000008
# 3 -0.004125 -0.007715 0.022666 -0.000001 0.000000 -0.000025
# 4 0.000000 0.000000 -0.000001 0.057822 0.000000 -0.000013
# 5 0.000000 0.000000 0.000000 0.000000 0.030123 0.000006
# 6 0.000003 0.000008 -0.000025 -0.000013 0.000006 -0.104413
#
#
# Mechanical properties :
#
#
# Convention : Reuss Voigt Hill
#
# Bulk Modulus (GPa) = 59.24325 66.64090 62.94208
# Shear Modulus (GPa) = 76.92541 19.43514 48.18027
#
# Velocity S-wave (km/s) = 6.22198 3.12743 4.92412
# Velocity P-wave (km/s) = 9.02396 6.82484 8.00032
#
# Compressibility (1/GPa) = 0.01687956
#
# Stress axis : x y z
#
# Youngs Moduli (GPa) = 83.92132 84.90850 44.11799
#
# Poissons Ratio (x) = 0.24618 0.18200
# Poissons Ratio (y) = 0.24331 0.34039
# Poissons Ratio (z) = 0.34620 0.65511
#
# Static dielectric constant tensor:
#      x y z
#    x 1.706700 0.000000 0.000000 
#    y 0.000000 1.692120 0.000000 
#    z 0.000000 0.000000 1.707690 
# 
# From -- ./inp_files/8870.got.cif
#   From: 2010.05.17/outbox.cif.g08.bks.cpg/sg23_5_cif.got.tgz:8870.got - 2010.06.04 12:02:01.
