data_PCOD9331608
_publ_section_title
;
Structure prediction by ZEFSAII (Michael W. Deem and Ramdas Pophale) SiO2 
 PCOD9331608
Probable space group: I 2 2 2
;
_chemical_formula_sum "Si O2"
_cell_formula_units_Z 22
_cell_length_a 13.434026
_cell_length_b 7.657421
_cell_length_c 9.160760
_cell_angle_alpha 90.000000
_cell_angle_beta 90.000000
_cell_angle_gamma 90.000000
_cell_volume 942.367315
_symmetry_space_group_name_H-M "I 2 2 2"
_symmetry_group_IT_number 23
_symmetry_cell_setting 'orthorhombic'
loop_
_space_group_symop_operation_xyz
x,y,z
-x,-y,z
x,-y,-z
-x,y,-z
1/2+x,1/2+y,1/2+z
1/2-x,1/2-y,1/2+z
1/2+x,1/2-y,1/2-z
1/2-x,1/2+y,1/2-z
loop_
_atom_site_type_symbol
_atom_site_label
_atom_site_fract_x
_atom_site_fract_y
_atom_site_fract_z
Si Si1 0.000000 0.500000 0.000000
Si Si2 0.354426 0.293742 0.009800
Si Si3 0.500000 0.500000 0.500000
Si Si4 0.500000 0.000000 0.000000
Si Si5 0.143974 0.747185 0.831825
O O1 0.925857 0.597069 0.107384
O O2 0.428684 0.146193 0.076288
O O3 0.343137 0.242729 0.840530
O O4 0.383665 0.500000 0.000000
O O5 0.250919 0.272160 0.093327
O O6 0.578569 0.409147 0.389990
#
# Coordination Sequence:
#
# PCOD9331608 Si02
#       5
#     2   8   2   2   8
#     4  10  22  50  80 110 154 198 250 326 392 458
#     4  12  29  49  79 112 157 204 262 321 384 468
#     4  10  26  42  78 104 156 194 244 314 386 458
#     4  12  30  48  76 110 150 208 260 322 378 452
#     4  11  26  47  75 111 150 199 255 315 387 453
#
# _framework density 23.345461
#
# number of rings (size 3 to 8) (size 9 to 14) (size 15 to 20)
#    0.000    0.727    1.818    2.727   15.273    2.909 
#    0.000    0.000    0.000    0.000    0.000    0.000 
#    0.000    0.000    0.000    0.000    0.000    0.000 
#
# Total GULP energy -61396.946247 kJ/mol
# GULP energy per Si atom -5581.540568 kJ/mol
# Density = 2.329233 g / cm^3
# Si number density = 23.345461 Si / 1000 Ang^3
#
#
#
# Elastic Constant Matrix: (Units=GPa)
#
#
# Indices 1 2 3 4 5 6 
#
# 1 191.0157 66.4021 29.0713 0.0000 0.0000 0.0000
# 2 66.4021 139.3543 17.8846 0.0000 0.0000 0.0000
# 3 29.0713 17.8846 160.6830 0.0000 0.0000 0.0000
# 4 0.0000 0.0000 0.0000 4.1115 0.0000 0.0000
# 5 0.0000 0.0000 0.0000 0.0000 18.3094 0.0000
# 6 0.0000 0.0000 0.0000 0.0000 0.0000 82.5468
#
#
#
# Elastic Compliance Matrix: (Units=1/GPa)
#
#
# Indices 1 2 3 4 5 6 
#
# 1 0.006381 -0.002934 -0.000828 0.000000 0.000000 0.000000
# 2 -0.002934 0.008629 -0.000430 0.000000 0.000000 0.000000
# 3 -0.000828 -0.000430 0.006421 0.000000 0.000000 0.000000
# 4 0.000000 0.000000 0.000000 0.243220 0.000000 0.000000
# 5 0.000000 0.000000 0.000000 0.000000 0.054617 0.000000
# 6 0.000000 0.000000 0.000000 0.000000 0.000000 0.012114
#
#
# Mechanical properties :
#
#
# Convention : Reuss Voigt Hill
#
# Bulk Modulus (GPa) = 76.64103 79.75211 78.19657
# Shear Modulus (GPa) = 14.53002 46.17322 30.35162
#
# Velocity S-wave (km/s) = 2.49748 4.45210 3.60961
# Velocity P-wave (km/s) = 6.42004 7.78872 7.13726
#
# Compressibility (1/GPa) = 0.01304784
#
# Stress axis : x y z
#
# Youngs Moduli (GPa) = 156.70909 115.88398 155.73818
#
# Poissons Ratio (x) = 0.34005 0.12894
# Poissons Ratio (y) = 0.45985 0.06690
# Poissons Ratio (z) = 0.12974 0.04978
#
# Static dielectric constant tensor:
#      x y z
#    x 1.948640 0.000000 0.000000 
#    y 0.000000 2.124350 0.000000 
#    z 0.000000 0.000000 1.648940 
# 
# From -- ./inp_files/6027.got.cif
#   From: 2010.05.17/outbox.cif.g08.bks.cpg/sg23_4_cif.got.tgz:6027.got - 2010.06.04 12:02:01.
