data_PCOD9331001
_publ_section_title
;
Structure prediction by ZEFSAII (Michael W. Deem and Ramdas Pophale) SiO2 
 PCOD9331001
Probable space group: I 2 2 2
;
_chemical_formula_sum "Si O2"
_cell_formula_units_Z 58
_cell_length_a 32.674919
_cell_length_b 5.106922
_cell_length_c 14.069311
_cell_angle_alpha 90.000000
_cell_angle_beta 90.000000
_cell_angle_gamma 90.000000
_cell_volume 2347.721484
_symmetry_space_group_name_H-M "I 2 2 2"
_symmetry_group_IT_number 23
_symmetry_cell_setting 'orthorhombic'
loop_
_space_group_symop_operation_xyz
x,y,z
-x,-y,z
x,-y,-z
-x,y,-z
1/2+x,1/2+y,1/2+z
1/2-x,1/2-y,1/2+z
1/2+x,1/2-y,1/2-z
1/2-x,1/2+y,1/2-z
loop_
_atom_site_type_symbol
_atom_site_label
_atom_site_fract_x
_atom_site_fract_y
_atom_site_fract_z
Si Si1 0.707022 0.485794 0.115502
Si Si2 0.000000 0.500000 0.500000
Si Si3 0.886508 0.429485 0.102784
Si Si4 0.067343 0.517599 0.665597
Si Si5 0.745007 0.518123 0.615732
Si Si6 0.152177 0.939277 0.885012
Si Si7 0.027614 0.266924 0.856103
Si Si8 0.885988 0.981866 0.614981
O O1 0.722739 0.766260 0.147781
O O2 0.660047 0.437371 0.140281
O O3 0.738766 0.264024 0.146937
O O4 0.707826 0.500000 0.000000
O O5 0.964923 0.486456 0.581661
O O6 0.880264 0.717115 0.146209
O O7 0.929720 0.281453 0.086157
O O8 0.860175 0.218403 0.157701
O O9 0.868428 0.500000 0.000000
O O10 0.044871 0.387855 0.756644
O O11 0.082939 0.816461 0.665635
O O12 0.103562 0.316342 0.640825
O O13 0.745049 0.500000 0.500000
O O14 0.699152 0.609483 0.640016
O O15 0.149910 0.000000 0.000000
O O16 0.000000 0.500000 0.895116
O O17 0.000000 0.000000 0.851678
O O18 0.891215 0.000000 0.500000
#
# Coordination Sequence:
#
# PCOD9331001 Si02
#       8
#     8   2   8   8   8   8   8   8
#     4   9  17  27  46  75 118 153 192 241 299 357
#     4  12  24  42  64  90 118 154 216 258 312 358
#     4  10  21  39  61  89 121 157 197 252 304 366
#     4  12  25  39  62  86 118 159 201 257 312 362
#     4   9  15  26  46  80 116 152 187 245 299 346
#     4   9  17  31  56  87 120 152 198 247 303 358
#     4  12  26  44  64  91 123 159 208 255 312 380
#     4  11  21  37  55  85 118 161 203 250 308 372
#
# _framework density 24.704802999999998
#
# number of rings (size 3 to 8) (size 9 to 14) (size 15 to 20)
#    0.000    1.655    2.069    3.310    0.000    6.345 
#    0.000    0.690    0.000    0.000    0.000   19.310 
#    0.000    0.000    0.000    0.000    0.000    0.000 
#
# Total GULP energy -161677.737424 kJ/mol
# GULP energy per Si atom -5575.094394 kJ/mol
# Density = 2.464857 g / cm^3
# Si number density = 24.704803 Si / 1000 Ang^3
#
#
#
# Elastic Constant Matrix: (Units=GPa)
#
#
# Indices 1 2 3 4 5 6 
#
# 1 114.0954 43.1596 -9.8645 0.0000 0.0000 0.0000
# 2 43.1596 157.3027 -1.1822 0.0000 0.0000 0.0000
# 3 -9.8645 -1.1822 78.0619 0.0000 0.0000 0.0000
# 4 0.0000 0.0000 0.0000 -10.6050 0.0000 0.0000
# 5 0.0000 0.0000 0.0000 0.0000 26.3591 0.0000
# 6 0.0000 0.0000 0.0000 0.0000 0.0000 39.4646
#
#
#
# Elastic Compliance Matrix: (Units=1/GPa)
#
#
# Indices 1 2 3 4 5 6 
#
# 1 0.009892 -0.002705 0.001209 0.000000 0.000000 0.000000
# 2 -0.002705 0.007098 -0.000234 0.000000 0.000000 0.000000
# 3 0.001209 -0.000234 0.012960 0.000000 0.000000 0.000000
# 4 0.000000 0.000000 0.000000 -0.094295 0.000000 0.000000
# 5 0.000000 0.000000 0.000000 0.000000 0.037938 0.000000
# 6 0.000000 0.000000 0.000000 0.000000 0.000000 0.025339
#
#
# Mechanical properties :
#
#
# Convention : Reuss Voigt Hill
#
# Bulk Modulus (GPa) = 37.75163 45.96507 41.85835
# Shear Modulus (GPa) = 445.56770 32.20021 238.88396
#
# Velocity S-wave (km/s) = 13.44426 3.61418 9.84405
# Velocity P-wave (km/s) = 16.00974 6.00521 12.09079
#
# Compressibility (1/GPa) = 0.02648892
#
# Stress axis : x y z
#
# Youngs Moduli (GPa) = 101.08751 140.89230 77.16292
#
# Poissons Ratio (x) = 0.38113 -0.09330
# Poissons Ratio (y) = 0.27345 0.01808
# Poissons Ratio (z) = -0.12223 0.03302
#
# Static dielectric constant tensor:
#      x y z
#    x 1.953260 0.000000 0.000000 
#    y 0.000000 1.928030 0.000000 
#    z 0.000000 0.000000 2.075850 
# 
# From -- ./inp_files/25452.got.cif
#   From: 2010.05.17/outbox.cif.g08.bks.cpg/sg23_13_cif.got.tgz:25452.got - 2010.06.04 12:02:01.
