data_PCOD9331064
_publ_section_title
;
Structure prediction by ZEFSAII (Michael W. Deem and Ramdas Pophale) SiO2 
 PCOD9331064
Probable space group: I 2 2 2
;
_chemical_formula_sum "Si O2"
_cell_formula_units_Z 30
_cell_length_a 5.314043
_cell_length_b 18.728663
_cell_length_c 13.079202
_cell_angle_alpha 90.000000
_cell_angle_beta 90.000000
_cell_angle_gamma 90.000000
_cell_volume 1301.706539
_symmetry_space_group_name_H-M "I 2 2 2"
_symmetry_group_IT_number 23
_symmetry_cell_setting 'orthorhombic'
loop_
_space_group_symop_operation_xyz
x,y,z
-x,-y,z
x,-y,-z
-x,y,-z
1/2+x,1/2+y,1/2+z
1/2-x,1/2-y,1/2+z
1/2+x,1/2-y,1/2-z
1/2-x,1/2+y,1/2-z
loop_
_atom_site_type_symbol
_atom_site_label
_atom_site_fract_x
_atom_site_fract_y
_atom_site_fract_z
Si Si1 0.402887 0.706671 0.730784
Si Si2 0.738159 0.953970 0.119048
Si Si3 0.653425 0.573532 0.835313
Si Si4 0.500000 0.658837 0.500000
Si Si5 0.000000 0.500000 0.000000
O O1 0.128261 0.737311 0.752208
O O2 0.469559 0.640924 0.810009
O O3 0.415574 0.692493 0.607919
O O4 0.686324 0.923272 0.231764
O O5 0.500000 0.000000 0.098814
O O6 0.777876 0.891497 0.039726
O O7 0.000000 0.000000 0.119003
O O8 0.500000 0.500000 0.830889
O O9 0.829709 0.555073 0.932198
#
# Coordination Sequence:
#
# PCOD9331064 Si02
#       5
#     8   8   8   4   2
#     4  11  28  51  75 107 153 199 256 315 374 458
#     4  10  21  39  68 104 141 174 229 306 367 438
#     4  10  24  44  72 111 152 193 256 310 374 450
#     4  10  25  45  72 104 142 196 244 302 386 437
#     4  12  22  42  76 114 152 208 248 316 378 448
#
# _framework density 23.046668
#
# number of rings (size 3 to 8) (size 9 to 14) (size 15 to 20)
#    0.000    1.600    1.333    0.800    3.733   13.867 
#    4.800    0.000    0.000    0.000    0.000    0.000 
#    0.000    0.000    0.000    0.000    0.000    0.000 
#
# Total GULP energy -83573.053569 kJ/mol
# GULP energy per Si atom -5571.536905 kJ/mol
# Density = 2.299421 g / cm^3
# Si number density = 23.046668 Si / 1000 Ang^3
#
#
#
# Elastic Constant Matrix: (Units=GPa)
#
#
# Indices 1 2 3 4 5 6 
#
# 1 83.4238 23.0273 40.5331 0.0000 0.0000 0.0000
# 2 23.0273 83.9217 36.0830 0.0000 0.0000 0.0000
# 3 40.5331 36.0830 178.6391 0.0000 0.0000 0.0000
# 4 0.0000 0.0000 0.0000 39.3322 0.0000 0.0000
# 5 0.0000 0.0000 0.0000 0.0000 4.9499 0.0000
# 6 0.0000 0.0000 0.0000 0.0000 0.0000 37.6528
#
#
#
# Elastic Compliance Matrix: (Units=1/GPa)
#
#
# Indices 1 2 3 4 5 6 
#
# 1 0.014015 -0.002714 -0.002632 0.000000 0.000000 0.000000
# 2 -0.002714 0.013575 -0.002126 0.000000 0.000000 0.000000
# 3 -0.002632 -0.002126 0.006624 0.000000 0.000000 0.000000
# 4 0.000000 0.000000 0.000000 0.025424 0.000000 0.000000
# 5 0.000000 0.000000 0.000000 0.000000 0.202024 0.000000
# 6 0.000000 0.000000 0.000000 0.000000 0.000000 0.026558
#
#
# Mechanical properties :
#
#
# Convention : Reuss Voigt Hill
#
# Bulk Modulus (GPa) = 51.89345 60.58573 56.23959
# Shear Modulus (GPa) = 16.15049 32.80973 24.48011
#
# Velocity S-wave (km/s) = 2.65008 3.77718 3.26267
# Velocity P-wave (km/s) = 5.65062 6.73559 6.21682
#
# Compressibility (1/GPa) = 0.01927025
#
# Stress axis : x y z
#
# Youngs Moduli (GPa) = 71.35302 73.66641 150.95531
#
# Poissons Ratio (x) = 0.19993 0.39728
# Poissons Ratio (y) = 0.19365 0.32095
# Poissons Ratio (z) = 0.18778 0.15662
#
# Static dielectric constant tensor:
#      x y z
#    x 1.858200 0.000000 0.000000 
#    y 0.000000 1.922300 0.000000 
#    z 0.000000 0.000000 1.959140 
# 
# From -- ./inp_files/18989.got.cif
#   From: 2010.05.17/outbox.cif.g08.bks.cpg/sg23_10_cif.got.tgz:18989.got - 2010.06.04 12:02:01.
