data_PCOD9331521
_publ_section_title
;
Structure prediction by ZEFSAII (Michael W. Deem and Ramdas Pophale) SiO2 
 PCOD9331521
Probable space group: I 2 2 2
;
_chemical_formula_sum "Si O2"
_cell_formula_units_Z 30
_cell_length_a 7.352074
_cell_length_b 7.352083
_cell_length_c 30.715737
_cell_angle_alpha 90.000000
_cell_angle_beta 90.000000
_cell_angle_gamma 90.000000
_cell_volume 1660.279522
_symmetry_space_group_name_H-M "I 2 2 2"
_symmetry_group_IT_number 23
_symmetry_cell_setting 'orthorhombic'
loop_
_space_group_symop_operation_xyz
x,y,z
-x,-y,z
x,-y,-z
-x,y,-z
1/2+x,1/2+y,1/2+z
1/2-x,1/2-y,1/2+z
1/2+x,1/2-y,1/2-z
1/2-x,1/2+y,1/2-z
loop_
_atom_site_type_symbol
_atom_site_label
_atom_site_fract_x
_atom_site_fract_y
_atom_site_fract_z
Si Si1 0.233194 0.766806 0.809698
Si Si2 0.353188 0.353188 0.915294
Si Si3 0.500000 0.500000 0.758130
Si Si4 0.000000 0.000000 0.500000
Si Si5 0.000000 0.500000 0.369183
Si Si6 0.000000 0.500000 0.130817
O O1 0.372966 0.627035 0.787504
O O2 0.125098 0.874903 0.772551
O O3 0.347669 0.906596 0.839052
O O4 0.093404 0.652331 0.839052
O O5 0.500000 0.500000 0.896762
O O6 0.156742 0.410185 0.898414
O O7 0.410185 0.156742 0.898415
O O8 0.379430 0.379430 0.967120
#
# Coordination Sequence:
#
# PCOD9331521 Si02
#       6
#     8   8   4   2   4   4
#     4  12  23  39  60  91 125 173 215 271 310 382
#     4  10  22  43  64 100 126 165 202 263 314 377
#     4  12  24  39  56  90 130 164 218 270 326 349
#     4   8  20  46  64  96 140 160 192 272 316 370
#     4  12  22  42  68  92 130 170 218 256 320 378
#     4  12  22  42  68  92 130 170 218 256 320 378
#
# _framework density 18.069247000000001
#
# number of rings (size 3 to 8) (size 9 to 14) (size 15 to 20)
#    0.800    0.000    2.667    6.400    0.000    1.067 
#    0.000    0.000    0.000    3.200    0.000    0.000 
#    0.000    0.000    0.000    0.000    0.000    0.000 
#
# Total GULP energy -83813.735562 kJ/mol
# GULP energy per Si atom -5587.582371 kJ/mol
# Density = 1.802812 g / cm^3
# Si number density = 18.069247 Si / 1000 Ang^3
#
#
#
# Elastic Constant Matrix: (Units=GPa)
#
#
# Indices 1 2 3 4 5 6 
#
# 1 143.0565 90.7477 84.3685 0.0000 0.0000 0.0000
# 2 90.7477 143.0603 84.3700 0.0000 0.0000 0.0000
# 3 84.3685 84.3700 146.6116 0.0000 0.0000 0.0000
# 4 0.0000 0.0000 0.0000 5.3229 0.0000 0.0000
# 5 0.0000 0.0000 0.0000 0.0000 5.3242 0.0000
# 6 0.0000 0.0000 0.0000 0.0000 0.0000 56.0404
#
#
#
# Elastic Compliance Matrix: (Units=1/GPa)
#
#
# Indices 1 2 3 4 5 6 
#
# 1 0.013216 -0.005901 -0.004210 0.000000 0.000000 0.000000
# 2 -0.005901 0.013216 -0.004210 0.000000 0.000000 0.000000
# 3 -0.004210 -0.004210 0.011666 0.000000 0.000000 0.000000
# 4 0.000000 0.000000 0.000000 0.187867 0.000000 0.000000
# 5 0.000000 0.000000 0.000000 0.000000 0.187822 0.000000
# 6 0.000000 0.000000 0.000000 0.000000 0.000000 0.017844
#
#
# Mechanical properties :
#
#
# Convention : Reuss Voigt Hill
#
# Bulk Modulus (GPa) = 105.73515 105.74451 105.73983
# Shear Modulus (GPa) = 10.78929 24.88698 17.83813
#
# Velocity S-wave (km/s) = 2.44623 3.71524 3.14540
# Velocity P-wave (km/s) = 8.16225 8.77798 8.47571
#
# Compressibility (1/GPa) = 0.00945759
#
# Stress axis : x y z
#
# Youngs Moduli (GPa) = 75.66605 75.66767 85.72210
#
# Poissons Ratio (x) = 0.44649 0.36085
# Poissons Ratio (y) = 0.44649 0.36085
# Poissons Ratio (z) = 0.31852 0.31853
#
# Static dielectric constant tensor:
#      x y z
#    x 1.595840 0.000000 0.000000 
#    y 0.000000 1.595840 0.000000 
#    z 0.000000 0.000000 1.609400 
# 
# From -- ./inp_files/29816.got.cif
#   From: 2010.05.17/outbox.cif.g08.bks.cpg/sg23_15_cif.got.tgz:29816.got - 2010.06.04 12:02:01.
