data_PCOD9331266
_publ_section_title
;
Structure prediction by ZEFSAII (Michael W. Deem and Ramdas Pophale) SiO2 
 PCOD9331266
Probable space group: I 2 2 2
;
_chemical_formula_sum "Si O2"
_cell_formula_units_Z 64
_cell_length_a 25.775679
_cell_length_b 8.959417
_cell_length_c 15.224800
_cell_angle_alpha 90.000000
_cell_angle_beta 90.000000
_cell_angle_gamma 90.000000
_cell_volume 3515.940050
_symmetry_space_group_name_H-M "I 2 2 2"
_symmetry_group_IT_number 23
_symmetry_cell_setting 'orthorhombic'
loop_
_space_group_symop_operation_xyz
x,y,z
-x,-y,z
x,-y,-z
-x,y,-z
1/2+x,1/2+y,1/2+z
1/2-x,1/2-y,1/2+z
1/2+x,1/2-y,1/2-z
1/2-x,1/2+y,1/2-z
loop_
_atom_site_type_symbol
_atom_site_label
_atom_site_fract_x
_atom_site_fract_y
_atom_site_fract_z
Si Si1 0.856987 0.649552 0.742439
Si Si2 0.233269 0.834517 0.174421
Si Si3 0.709487 0.090186 0.910841
Si Si4 0.947752 0.191106 0.189231
Si Si5 0.726453 0.826268 0.515602
Si Si6 0.331359 0.827499 0.305837
Si Si7 0.937756 0.331079 0.003979
Si Si8 0.432239 0.661843 0.324687
O O1 0.816918 0.780364 0.771915
O O2 0.840790 0.590893 0.647710
O O3 0.913946 0.716208 0.742970
O O4 0.846904 0.503059 0.801913
O O5 0.283423 0.800442 0.237392
O O6 0.245161 0.005560 0.145341
O O7 0.225365 0.752235 0.079963
O O8 0.723566 0.257071 0.937094
O O9 0.703898 0.000000 0.000000
O O10 0.009405 0.215356 0.199633
O O11 0.935191 0.015646 0.186887
O O12 0.927072 0.256021 0.096695
O O13 0.684298 0.795342 0.592483
O O14 0.728608 0.000000 0.500000
O O15 0.382144 0.733407 0.278731
O O16 0.925395 0.219492 0.924802
O O17 0.915938 0.500000 0.000000
O O18 0.000000 0.345811 0.000000
#
# Coordination Sequence:
#
# PCOD9331266 Si02
#       8
#     8   8   8   8   8   8   8   8
#     4  11  21  36  59  85 116 150 194 239 286 345
#     4  10  22  38  56  84 116 150 191 238 290 342
#     4   9  21  39  57  82 120 157 184 237 291 350
#     4  10  22  36  53  80 111 153 196 243 284 340
#     4  11  21  36  56  82 117 150 194 232 285 344
#     4  11  23  36  57  84 117 153 194 241 281 351
#     4   9  17  32  51  71 105 150 194 234 274 329
#     4  10  22  37  53  77 114 154 197 236 292 341
#
# _framework density 18.202812999999999
#
# number of rings (size 3 to 8) (size 9 to 14) (size 15 to 20)
#    0.000    1.875    2.500    1.125    3.500    4.500 
#    0.000    0.000    0.000    0.000    0.000   14.875 
#    0.000   19.000    0.000    0.000    0.000    0.125 
#
# Total GULP energy -178168.205344 kJ/mol
# GULP energy per Si atom -5567.756417 kJ/mol
# Density = 1.816138 g / cm^3
# Si number density = 18.202813 Si / 1000 Ang^3
#
#
#
# Elastic Constant Matrix: (Units=GPa)
#
#
# Indices 1 2 3 4 5 6 
#
# 1 95.7395 45.9371 30.9509 0.0000 0.0000 0.0000
# 2 45.9371 67.4373 22.7591 0.0000 0.0000 0.0000
# 3 30.9509 22.7591 55.0764 0.0000 0.0000 0.0000
# 4 0.0000 0.0000 0.0000 20.3218 0.0000 0.0000
# 5 0.0000 0.0000 0.0000 0.0000 17.2874 0.0000
# 6 0.0000 0.0000 0.0000 0.0000 0.0000 24.0320
#
#
#
# Elastic Compliance Matrix: (Units=1/GPa)
#
#
# Indices 1 2 3 4 5 6 
#
# 1 0.016831 -0.009614 -0.005486 0.000000 0.000000 0.000000
# 2 -0.009614 0.022723 -0.003987 0.000000 0.000000 0.000000
# 3 -0.005486 -0.003987 0.022887 0.000000 0.000000 0.000000
# 4 0.000000 0.000000 0.000000 0.049208 0.000000 0.000000
# 5 0.000000 0.000000 0.000000 0.000000 0.057845 0.000000
# 6 0.000000 0.000000 0.000000 0.000000 0.000000 0.041611
#
#
# Mechanical properties :
#
#
# Convention : Reuss Voigt Hill
#
# Bulk Modulus (GPa) = 41.20712 46.39416 43.80064
# Shear Modulus (GPa) = 19.42735 20.23532 19.83133
#
# Velocity S-wave (km/s) = 3.27046 3.33777 3.30429
# Velocity P-wave (km/s) = 6.07849 6.35586 6.21873
#
# Compressibility (1/GPa) = 0.02426765
#
# Stress axis : x y z
#
# Youngs Moduli (GPa) = 59.41295 44.00834 43.69284
#
# Poissons Ratio (x) = 0.42309 0.23969
# Poissons Ratio (y) = 0.57119 0.17421
# Poissons Ratio (z) = 0.32593 0.17547
#
# Static dielectric constant tensor:
#      x y z
#    x 1.654850 0.000000 0.000000 
#    y 0.000000 1.641320 0.000000 
#    z 0.000000 0.000000 1.645860 
# 
# From -- ./inp_files/22595.got.cif
#   From: 2010.05.17/outbox.cif.g08.bks.cpg/sg23_12_cif.got.tgz:22595.got - 2010.06.04 12:02:01.
