data_PCOD9331466
_publ_section_title
;
Structure prediction by ZEFSAII (Michael W. Deem and Ramdas Pophale) SiO2 
 PCOD9331466
Probable space group: I 2 2 2
;
_chemical_formula_sum "Si O2"
_cell_formula_units_Z 18
_cell_length_a 8.869403
_cell_length_b 16.835336
_cell_length_c 5.045787
_cell_angle_alpha 90.000000
_cell_angle_beta 90.000000
_cell_angle_gamma 90.000000
_cell_volume 753.433785
_symmetry_space_group_name_H-M "I 2 2 2"
_symmetry_group_IT_number 23
_symmetry_cell_setting 'orthorhombic'
loop_
_space_group_symop_operation_xyz
x,y,z
-x,-y,z
x,-y,-z
-x,y,-z
1/2+x,1/2+y,1/2+z
1/2-x,1/2-y,1/2+z
1/2+x,1/2-y,1/2-z
1/2-x,1/2+y,1/2-z
loop_
_atom_site_type_symbol
_atom_site_label
_atom_site_fract_x
_atom_site_fract_y
_atom_site_fract_z
Si Si1 0.209280 0.551816 0.743177
Si Si2 0.839559 0.727240 0.390868
Si Si3 0.500000 0.500000 0.500000
O O1 0.153018 0.500000 0.500000
O O2 0.144848 0.639551 0.734120
O O3 0.389754 0.552889 0.681633
O O4 0.181874 0.500000 0.000000
O O5 0.767850 0.777296 0.150386
O O6 0.000000 0.756326 0.500000
#
# Coordination Sequence:
#
# PCOD9331466 Si02
#       3
#     8   8   2
#     4  10  22  41  70 101 143 191 247 293 365 441
#     4  12  28  47  75 112 153 202 247 312 379 447
#     4   8  22  36  72 100 134 196 222 312 350 444
#
# _framework density 23.890619999999998
#
# number of rings (size 3 to 8) (size 9 to 14) (size 15 to 20)
#    1.333    0.000    0.000    4.667    6.222    0.889 
#    0.000    2.222    0.000    0.000    0.000    0.000 
#    0.000    0.000    0.000    0.000    0.000    0.000 
#
# Total GULP energy -50316.092908 kJ/mol
# GULP energy per Si atom -5590.676990 kJ/mol
# Density = 2.383624 g / cm^3
# Si number density = 23.890620 Si / 1000 Ang^3
#
#
#
# Elastic Constant Matrix: (Units=GPa)
#
#
# Indices 1 2 3 4 5 6 
#
# 1 112.4394 10.8489 44.1793 -0.0018 -0.0007 -0.0002
# 2 10.8489 71.5685 40.3554 0.0022 -0.0013 -0.0002
# 3 44.1793 40.3554 213.2856 0.0064 -0.0050 -0.0014
# 4 -0.0018 0.0022 0.0064 41.9183 -0.0029 -0.0009
# 5 -0.0007 -0.0013 -0.0050 -0.0029 28.4627 0.0006
# 6 -0.0002 -0.0002 -0.0014 -0.0009 0.0006 24.2075
#
#
#
# Elastic Compliance Matrix: (Units=1/GPa)
#
#
# Indices 1 2 3 4 5 6 
#
# 1 0.009691 -0.000377 -0.001936 0.000001 0.000000 0.000000
# 2 -0.000377 0.015656 -0.002884 0.000000 0.000000 0.000000
# 3 -0.001936 -0.002884 0.005635 -0.000001 0.000001 0.000000
# 4 0.000001 0.000000 -0.000001 0.023856 0.000002 0.000001
# 5 0.000000 0.000000 0.000001 0.000002 0.035134 -0.000001
# 6 0.000000 0.000000 0.000000 0.000001 -0.000001 0.041310
#
#
# Mechanical properties :
#
#
# Convention : Reuss Voigt Hill
#
# Bulk Modulus (GPa) = 48.57365 65.34008 56.95687
# Shear Modulus (GPa) = 33.66132 39.04502 36.35317
#
# Velocity S-wave (km/s) = 3.75771 4.04706 3.90507
# Velocity P-wave (km/s) = 6.26123 7.01765 6.65020
#
# Compressibility (1/GPa) = 0.02058729
#
# Stress axis : x y z
#
# Youngs Moduli (GPa) = 103.19123 63.87288 177.45471
#
# Poissons Ratio (x) = 0.02411 0.34354
# Poissons Ratio (y) = 0.03894 0.51179
# Poissons Ratio (z) = 0.19977 0.18421
#
# Static dielectric constant tensor:
#      x y z
#    x 2.033260 0.000000 0.000000 
#    y 0.000000 1.793440 0.000000 
#    z 0.000000 0.000000 1.861640 
# 
# From -- ./inp_files/316.got.cif
#   From: 2010.05.17/outbox.cif.g08.bks.cpg/sg23_1_cif.got.tgz:316.got - 2010.06.04 12:02:01.
