data_PCOD9331581
_publ_section_title
;
Structure prediction by ZEFSAII (Michael W. Deem and Ramdas Pophale) SiO2 
 PCOD9331581
Probable space group: I 2 2 2
;
_chemical_formula_sum "Si O2"
_cell_formula_units_Z 40
_cell_length_a 5.220761
_cell_length_b 17.685720
_cell_length_c 17.341980
_cell_angle_alpha 90.000000
_cell_angle_beta 90.000000
_cell_angle_gamma 90.000000
_cell_volume 1601.235604
_symmetry_space_group_name_H-M "I 2 2 2"
_symmetry_group_IT_number 23
_symmetry_cell_setting 'orthorhombic'
loop_
_space_group_symop_operation_xyz
x,y,z
-x,-y,z
x,-y,-z
-x,y,-z
1/2+x,1/2+y,1/2+z
1/2-x,1/2-y,1/2+z
1/2+x,1/2-y,1/2-z
1/2-x,1/2+y,1/2-z
loop_
_atom_site_type_symbol
_atom_site_label
_atom_site_fract_x
_atom_site_fract_y
_atom_site_fract_z
Si Si1 0.500000 0.000000 0.234424
Si Si2 0.000000 0.500000 0.000000
Si Si3 0.787855 0.872455 0.592733
Si Si4 0.663480 0.117121 0.118254
Si Si5 0.500000 0.244133 0.000000
Si Si6 0.135227 0.203154 0.751181
Si Si7 0.500000 0.000000 0.000000
Si Si8 0.000000 0.000000 0.660152
O O1 0.518315 0.926062 0.179506
O O2 0.246471 0.993706 0.285198
O O3 0.867361 0.441022 0.942477
O O4 0.741020 0.836661 0.676142
O O5 0.796392 0.803356 0.533870
O O6 0.042277 0.923187 0.610626
O O7 0.884155 0.148236 0.174573
O O8 0.572384 0.189781 0.070364
O O9 0.681650 0.053085 0.052471
O O10 0.356395 0.264784 0.769725
#
# Coordination Sequence:
#
# PCOD9331581 Si02
#       8
#     4   2   8   8   4   8   2   4
#     4  11  25  45  78 114 149 190 252 309 369 435
#     4  12  30  48  68 112 152 206 240 322 378 456
#     4  12  27  46  76 106 155 196 255 308 380 447
#     4  10  22  45  76 110 153 196 250 305 374 448
#     4  11  24  46  74 107 154 200 248 309 380 444
#     4  12  28  47  79 112 149 194 255 311 370 443
#     4   8  20  42  76 108 158 194 244 306 380 440
#     4  12  26  45  78 109 144 194 252 316 364 441
#
# _framework density 24.980709000000001
#
# number of rings (size 3 to 8) (size 9 to 14) (size 15 to 20)
#    0.000    0.800    4.000    1.800    5.600    0.000 
#    0.000    0.000    4.400    7.800    0.000    0.000 
#    0.000    0.000    0.000    0.000    0.000    0.000 
#
# Total GULP energy -111564.232860 kJ/mol
# GULP energy per Si atom -5578.211643 kJ/mol
# Density = 2.492385 g / cm^3
# Si number density = 24.980709 Si / 1000 Ang^3
#
#
#
# Elastic Constant Matrix: (Units=GPa)
#
#
# Indices 1 2 3 4 5 6 
#
# 1 84.4136 34.2377 28.1593 0.0000 0.0000 0.0000
# 2 34.2377 172.1104 51.1688 0.0000 0.0000 0.0000
# 3 28.1593 51.1688 92.8980 0.0000 0.0000 0.0000
# 4 0.0000 0.0000 0.0000 58.8313 0.0000 0.0000
# 5 0.0000 0.0000 0.0000 0.0000 18.6455 0.0000
# 6 0.0000 0.0000 0.0000 0.0000 0.0000 12.8646
#
#
#
# Elastic Compliance Matrix: (Units=1/GPa)
#
#
# Indices 1 2 3 4 5 6 
#
# 1 0.013616 -0.001772 -0.003152 0.000000 0.000000 0.000000
# 2 -0.001772 0.007179 -0.003417 0.000000 0.000000 0.000000
# 3 -0.003152 -0.003417 0.013602 0.000000 0.000000 0.000000
# 4 0.000000 0.000000 0.000000 0.016998 0.000000 0.000000
# 5 0.000000 0.000000 0.000000 0.000000 0.053632 0.000000
# 6 0.000000 0.000000 0.000000 0.000000 0.000000 0.077733
#
#
# Mechanical properties :
#
#
# Convention : Reuss Voigt Hill
#
# Bulk Modulus (GPa) = 56.44496 64.06151 60.25323
# Shear Modulus (GPa) = 24.34922 33.79201 29.07062
#
# Velocity S-wave (km/s) = 3.12544 3.68193 3.41504
# Velocity P-wave (km/s) = 5.97235 6.61631 6.30256
#
# Compressibility (1/GPa) = 0.01771637
#
# Stress axis : x y z
#
# Youngs Moduli (GPa) = 73.44117 139.30430 73.51938
#
# Poissons Ratio (x) = 0.24681 0.23170
# Poissons Ratio (y) = 0.13012 0.25121
# Poissons Ratio (z) = 0.23145 0.47599
#
# Static dielectric constant tensor:
#      x y z
#    x 2.020390 0.000000 0.000000 
#    y 0.000000 2.057520 0.000000 
#    z 0.000000 0.000000 2.078700 
# 
# From -- ./inp_files/23072.got.cif
#   From: 2010.05.17/outbox.cif.g08.bks.cpg/sg23_12_cif.got.tgz:23072.got - 2010.06.04 12:02:01.
