data_PCOD9331958
_publ_section_title
;
Structure prediction by ZEFSAII (Michael W. Deem and Ramdas Pophale) SiO2 
 PCOD9331958
Probable space group: I 2 2 2
;
_chemical_formula_sum "Si O2"
_cell_formula_units_Z 30
_cell_length_a 4.832066
_cell_length_b 11.472453
_cell_length_c 22.592288
_cell_angle_alpha 90.000000
_cell_angle_beta 90.000000
_cell_angle_gamma 90.000000
_cell_volume 1252.418172
_symmetry_space_group_name_H-M "I 2 2 2"
_symmetry_group_IT_number 23
_symmetry_cell_setting 'orthorhombic'
loop_
_space_group_symop_operation_xyz
x,y,z
-x,-y,z
x,-y,-z
-x,y,-z
1/2+x,1/2+y,1/2+z
1/2-x,1/2-y,1/2+z
1/2+x,1/2-y,1/2-z
1/2-x,1/2+y,1/2-z
loop_
_atom_site_type_symbol
_atom_site_label
_atom_site_fract_x
_atom_site_fract_y
_atom_site_fract_z
Si Si1 0.000000 0.500000 0.500000
Si Si2 0.500000 0.000000 0.653292
Si Si3 0.290293 0.276227 0.210779
Si Si4 0.223058 0.693642 0.416381
Si Si5 0.711009 0.839685 0.445384
O O1 0.170078 0.582133 0.455924
O O2 0.659797 0.899972 0.689869
O O3 0.302254 0.933480 0.606867
O O4 0.571651 0.287659 0.246828
O O5 0.342359 0.197647 0.152729
O O6 0.543153 0.726872 0.422464
O O7 0.028518 0.796253 0.444081
O O8 0.500000 0.874094 0.500000
#
# Coordination Sequence:
#
# PCOD9331958 Si02
#       5
#     2   4   8   8   8
#     4  12  24  48  68 104 150 190 228 288 388 428
#     4  10  25  43  76  98 141 183 230 304 364 400
#     4  11  25  48  71 104 143 187 252 300 354 436
#     4  11  25  42  71 101 144 184 238 295 353 438
#     4  11  21  43  66 109 134 173 230 290 356 429
#
# _framework density 23.953661
#
# number of rings (size 3 to 8) (size 9 to 14) (size 15 to 20)
#    0.000    1.067    2.667    3.600    0.000   12.800 
#    0.000   10.667    0.000    0.000    0.000    0.000 
#    0.000    0.000    0.000    0.000    0.000    0.000 
#
# Total GULP energy -83751.758878 kJ/mol
# GULP energy per Si atom -5583.450592 kJ/mol
# Density = 2.389914 g / cm^3
# Si number density = 23.953661 Si / 1000 Ang^3
#
#
#
# Elastic Constant Matrix: (Units=GPa)
#
#
# Indices 1 2 3 4 5 6 
#
# 1 116.9650 16.5403 14.7473 0.0000 0.0000 0.0000
# 2 16.5403 107.4390 26.7762 0.0000 0.0000 0.0000
# 3 14.7473 26.7762 166.5830 0.0000 0.0000 0.0000
# 4 0.0000 0.0000 0.0000 -13.9430 0.0000 0.0000
# 5 0.0000 0.0000 0.0000 0.0000 21.0251 0.0000
# 6 0.0000 0.0000 0.0000 0.0000 0.0000 9.3222
#
#
#
# Elastic Compliance Matrix: (Units=1/GPa)
#
#
# Indices 1 2 3 4 5 6 
#
# 1 0.008794 -0.001208 -0.000584 0.000000 0.000000 0.000000
# 2 -0.001208 0.009862 -0.001478 0.000000 0.000000 0.000000
# 3 -0.000584 -0.001478 0.006292 0.000000 0.000000 0.000000
# 4 0.000000 0.000000 0.000000 -0.071721 0.000000 0.000000
# 5 0.000000 0.000000 0.000000 0.000000 0.047562 0.000000
# 6 0.000000 0.000000 0.000000 0.000000 0.000000 0.107271
#
#
# Mechanical properties :
#
#
# Convention : Reuss Voigt Hill
#
# Bulk Modulus (GPa) = 54.32745 56.34606 55.33676
# Shear Modulus (GPa) = 41.41181 25.47573 33.44377
#
# Velocity S-wave (km/s) = 4.16243 3.26474 3.74061
# Velocity P-wave (km/s) = 6.76983 6.14698 6.46591
#
# Compressibility (1/GPa) = 0.01840690
#
# Stress axis : x y z
#
# Youngs Moduli (GPa) = 113.71266 101.39903 158.92314
#
# Poissons Ratio (x) = 0.12251 0.09286
# Poissons Ratio (y) = 0.13739 0.23493
# Poissons Ratio (z) = 0.06644 0.14989
#
# Static dielectric constant tensor:
#      x y z
#    x 1.933670 0.000000 0.000000 
#    y 0.000000 1.929120 0.000000 
#    z 0.000000 0.000000 1.982200 
# 
# From -- ./inp_files/25544.got.cif
#   From: 2010.05.17/outbox.cif.g08.bks.cpg/sg23_13_cif.got.tgz:25544.got - 2010.06.04 12:02:01.
