data_PCOD9331587
_publ_section_title
;
Structure prediction by ZEFSAII (Michael W. Deem and Ramdas Pophale) SiO2 
 PCOD9331587
Probable space group: I 2 2 2
;
_chemical_formula_sum "Si O2"
_cell_formula_units_Z 42
_cell_length_a 19.254013
_cell_length_b 8.812900
_cell_length_c 11.223956
_cell_angle_alpha 90.000000
_cell_angle_beta 90.000000
_cell_angle_gamma 90.000000
_cell_volume 1904.522284
_symmetry_space_group_name_H-M "I 2 2 2"
_symmetry_group_IT_number 23
_symmetry_cell_setting 'orthorhombic'
loop_
_space_group_symop_operation_xyz
x,y,z
-x,-y,z
x,-y,-z
-x,y,-z
1/2+x,1/2+y,1/2+z
1/2-x,1/2-y,1/2+z
1/2+x,1/2-y,1/2-z
1/2-x,1/2+y,1/2-z
loop_
_atom_site_type_symbol
_atom_site_label
_atom_site_fract_x
_atom_site_fract_y
_atom_site_fract_z
Si Si1 0.536799 0.251962 0.171867
Si Si2 0.824967 0.789358 0.205372
Si Si3 0.500000 0.000000 0.000000
Si Si4 0.000000 0.000000 0.500000
Si Si5 0.588577 0.231282 0.658052
Si Si6 0.000000 0.500000 0.000000
Si Si7 0.275498 0.964281 0.640257
Si Si8 0.359301 0.500000 0.500000
O O1 0.593347 0.258502 0.275161
O O2 0.459344 0.253963 0.226386
O O3 0.544138 0.105546 0.088132
O O4 0.544608 0.393742 0.085160
O O5 0.794474 0.888577 0.312339
O O6 0.788879 0.626682 0.200360
O O7 0.816434 0.886158 0.084611
O O8 0.547481 0.108516 0.579252
O O9 0.663370 0.153685 0.675887
O O10 0.597340 0.389212 0.587064
O O11 0.277081 0.000000 0.500000
#
# Coordination Sequence:
#
# PCOD9331587 Si02
#       8
#     8   8   2   2   8   2   8   4
#     4  11  24  44  69 103 139 187 238 303 357 446
#     4  12  27  47  73 106 143 195 248 304 386 453
#     4  10  22  46  70 100 142 186 250 280 374 438
#     4  10  24  42  62 100 144 182 228 284 370 414
#     4  12  23  44  73 106 144 184 248 314 379 438
#     4  12  22  38  70 102 144 182 230 318 376 436
#     4  12  26  50  71 108 148 197 245 309 376 460
#     4  12  24  45  73 110 141 193 250 314 384 451
#
# _framework density 22.052773999999999
#
# number of rings (size 3 to 8) (size 9 to 14) (size 15 to 20)
#    0.000    0.381    2.857    6.286    1.333    2.667 
#    6.857    0.952    0.000    0.000    0.000    0.000 
#    0.000    0.000    0.000    0.000    0.000    0.000 
#
# Total GULP energy -117531.961497 kJ/mol
# GULP energy per Si atom -5596.760071 kJ/mol
# Density = 2.200258 g / cm^3
# Si number density = 22.052774 Si / 1000 Ang^3
#
#
#
# Elastic Constant Matrix: (Units=GPa)
#
#
# Indices 1 2 3 4 5 6 
#
# 1 71.9143 20.0188 24.6590 0.0000 0.0000 0.0000
# 2 20.0188 156.1862 36.9245 0.0000 0.0000 0.0000
# 3 24.6590 36.9245 77.0373 0.0000 0.0000 0.0000
# 4 0.0000 0.0000 0.0000 33.4334 0.0000 0.0000
# 5 0.0000 0.0000 0.0000 0.0000 11.8863 0.0000
# 6 0.0000 0.0000 0.0000 0.0000 0.0000 19.0831
#
#
#
# Elastic Compliance Matrix: (Units=1/GPa)
#
#
# Indices 1 2 3 4 5 6 
#
# 1 0.015739 -0.000932 -0.004591 0.000000 0.000000 0.000000
# 2 -0.000932 0.007276 -0.003189 0.000000 0.000000 0.000000
# 3 -0.004591 -0.003189 0.015979 0.000000 0.000000 0.000000
# 4 0.000000 0.000000 0.000000 0.029910 0.000000 0.000000
# 5 0.000000 0.000000 0.000000 0.000000 0.084130 0.000000
# 6 0.000000 0.000000 0.000000 0.000000 0.000000 0.052402
#
#
# Mechanical properties :
#
#
# Convention : Reuss Voigt Hill
#
# Bulk Modulus (GPa) = 46.36191 52.03803 49.19997
# Shear Modulus (GPa) = 21.73426 27.78293 24.75860
#
# Velocity S-wave (km/s) = 3.14276 3.55327 3.35430
# Velocity P-wave (km/s) = 5.85133 6.36259 6.11231
#
# Compressibility (1/GPa) = 0.02156943
#
# Stress axis : x y z
#
# Youngs Moduli (GPa) = 63.53567 137.43786 62.58232
#
# Poissons Ratio (x) = 0.12808 0.28734
# Poissons Ratio (y) = 0.05921 0.19958
# Poissons Ratio (z) = 0.29171 0.43831
#
# Static dielectric constant tensor:
#      x y z
#    x 1.769130 0.000000 0.000000 
#    y 0.000000 1.805320 0.000000 
#    z 0.000000 0.000000 1.786650 
# 
# From -- ./inp_files/17919.got.cif
#   From: 2010.05.17/outbox.cif.g08.bks.cpg/sg23_9_cif.got.tgz:17919.got - 2010.06.04 12:02:01.
