data_PCOD9331164
_publ_section_title
;
Structure prediction by ZEFSAII (Michael W. Deem and Ramdas Pophale) SiO2 
 PCOD9331164
Probable space group: I 2 2 2
;
_chemical_formula_sum "Si O2"
_cell_formula_units_Z 40
_cell_length_a 14.396242
_cell_length_b 15.547086
_cell_length_c 7.437795
_cell_angle_alpha 90.000000
_cell_angle_beta 90.000000
_cell_angle_gamma 90.000000
_cell_volume 1664.724394
_symmetry_space_group_name_H-M "I 2 2 2"
_symmetry_group_IT_number 23
_symmetry_cell_setting 'orthorhombic'
loop_
_space_group_symop_operation_xyz
x,y,z
-x,-y,z
x,-y,-z
-x,y,-z
1/2+x,1/2+y,1/2+z
1/2-x,1/2-y,1/2+z
1/2+x,1/2-y,1/2-z
1/2-x,1/2+y,1/2-z
loop_
_atom_site_type_symbol
_atom_site_label
_atom_site_fract_x
_atom_site_fract_y
_atom_site_fract_z
Si Si1 0.640199 0.320253 0.643741
Si Si2 0.165726 0.720270 0.773734
Si Si3 0.451103 0.355826 0.826428
Si Si4 0.102098 0.477612 0.211000
Si Si5 0.697496 0.493319 0.221763
O O1 0.724324 0.275829 0.750475
O O2 0.642082 0.271279 0.454992
O O3 0.535646 0.318826 0.712848
O O4 0.669133 0.420021 0.674957
O O5 0.114254 0.775909 0.621374
O O6 0.127758 0.623285 0.773721
O O7 0.382762 0.425013 0.739619
O O8 0.500000 0.395796 0.000000
O O9 0.195681 0.527002 0.276815
O O10 0.000000 0.500000 0.286938
O O11 0.096888 0.500000 0.000000
O O12 0.698750 0.500000 0.000000
#
# Coordination Sequence:
#
# PCOD9331164 Si02
#       5
#     8   8   8   8   8
#     4  11  24  42  66  96 142 176 238 291 351 431
#     4  11  26  43  67 106 133 181 237 294 356 424
#     4  12  24  40  71  99 140 182 229 294 360 434
#     4   9  21  39  69  91 128 178 238 277 337 432
#     4  10  21  41  66  99 134 189 230 278 362 431
#
# _framework density 24.027999999999999
#
# number of rings (size 3 to 8) (size 9 to 14) (size 15 to 20)
#    0.000    1.400    2.000    2.400   11.200    0.800 
#    0.000    2.000    0.000    3.000    0.000    0.000 
#    0.000    0.000    0.000    0.000    0.000    0.000 
#
# Total GULP energy -111702.899276 kJ/mol
# GULP energy per Si atom -5585.144964 kJ/mol
# Density = 2.397331 g / cm^3
# Si number density = 24.028000 Si / 1000 Ang^3
#
#
#
# Elastic Constant Matrix: (Units=GPa)
#
#
# Indices 1 2 3 4 5 6 
#
# 1 272.5122 70.1580 49.1540 0.0000 0.0000 0.0000
# 2 70.1580 95.8150 16.4041 0.0000 0.0000 0.0000
# 3 49.1540 16.4041 66.7373 0.0000 0.0000 0.0000
# 4 0.0000 0.0000 0.0000 8.7789 0.0000 0.0000
# 5 0.0000 0.0000 0.0000 0.0000 28.6889 0.0000
# 6 0.0000 0.0000 0.0000 0.0000 0.0000 44.2864
#
#
#
# Elastic Compliance Matrix: (Units=1/GPa)
#
#
# Indices 1 2 3 4 5 6 
#
# 1 0.005011 -0.003171 -0.002911 0.000000 0.000000 0.000000
# 2 -0.003171 0.012902 -0.000836 0.000000 0.000000 0.000000
# 3 -0.002911 -0.000836 0.017334 0.000000 0.000000 0.000000
# 4 0.000000 0.000000 0.000000 0.113909 0.000000 0.000000
# 5 0.000000 0.000000 0.000000 0.000000 0.034857 0.000000
# 6 0.000000 0.000000 0.000000 0.000000 0.000000 0.022580
#
#
# Mechanical properties :
#
#
# Convention : Reuss Voigt Hill
#
# Bulk Modulus (GPa) = 46.70608 78.49964 62.60286
# Shear Modulus (GPa) = 21.97173 36.30742 29.13958
#
# Velocity S-wave (km/s) = 3.02722 3.89144 3.48621
# Velocity P-wave (km/s) = 5.63020 7.27544 6.50504
#
# Compressibility (1/GPa) = 0.02141049
#
# Stress axis : x y z
#
# Youngs Moduli (GPa) = 199.56108 77.50998 57.69044
#
# Poissons Ratio (x) = 0.24576 0.16796
# Poissons Ratio (y) = 0.63275 0.04822
# Poissons Ratio (z) = 0.58100 0.06479
#
# Static dielectric constant tensor:
#      x y z
#    x 1.944380 0.000000 0.000000 
#    y 0.000000 1.919530 0.000000 
#    z 0.000000 0.000000 1.956300 
# 
# From -- ./inp_files/9594.got.cif
#   From: 2010.05.17/outbox.cif.g08.bks.cpg/sg23_5_cif.got.tgz:9594.got - 2010.06.04 12:02:01.
