data_PCOD9331640
_publ_section_title
;
Structure prediction by ZEFSAII (Michael W. Deem and Ramdas Pophale) SiO2 
 PCOD9331640
Probable space group: I 2 2 2
;
_chemical_formula_sum "Si O2"
_cell_formula_units_Z 40
_cell_length_a 7.061556
_cell_length_b 17.440598
_cell_length_c 14.382822
_cell_angle_alpha 90.000000
_cell_angle_beta 90.000000
_cell_angle_gamma 90.000000
_cell_volume 1771.356132
_symmetry_space_group_name_H-M "I 2 2 2"
_symmetry_group_IT_number 23
_symmetry_cell_setting 'orthorhombic'
loop_
_space_group_symop_operation_xyz
x,y,z
-x,-y,z
x,-y,-z
-x,y,-z
1/2+x,1/2+y,1/2+z
1/2-x,1/2-y,1/2+z
1/2+x,1/2-y,1/2-z
1/2-x,1/2+y,1/2-z
loop_
_atom_site_type_symbol
_atom_site_label
_atom_site_fract_x
_atom_site_fract_y
_atom_site_fract_z
Si Si1 0.675923 0.290322 0.627304
Si Si2 0.795642 0.812724 0.200448
Si Si3 0.467794 0.913235 0.110182
Si Si4 0.989612 0.910219 0.355206
Si Si5 0.223208 0.656012 0.994619
O O1 0.732951 0.250383 0.724612
O O2 0.448146 0.284957 0.624740
O O3 0.760831 0.238858 0.543511
O O4 0.762848 0.374921 0.624789
O O5 0.616997 0.855190 0.156794
O O6 0.917893 0.871382 0.261850
O O7 0.500000 0.000000 0.145799
O O8 0.500000 0.915054 0.000000
O O9 0.172926 0.865645 0.398071
O O10 0.827498 0.899385 0.432571
O O11 0.000000 0.000000 0.340376
O O12 0.000000 0.642133 0.000000
#
# Coordination Sequence:
#
# PCOD9331640 Si02
#       5
#     8   8   8   8   8
#     4  11  25  41  72 104 138 182 243 291 355 416
#     4  11  25  44  71 104 140 185 238 299 349 419
#     4  11  28  49  71 102 144 190 238 297 359 428
#     4  10  24  42  65 101 146 182 226 294 357 435
#     4  10  23  39  67 103 134 187 228 286 357 421
#
# _framework density 22.581568000000001
#
# number of rings (size 3 to 8) (size 9 to 14) (size 15 to 20)
#    0.000    1.400    2.000    1.200   14.000    1.600 
#    0.000    2.000    0.000    0.000    0.000    0.000 
#    0.000    0.000    0.000    0.000    0.000    0.000 
#
# Total GULP energy -111838.799524 kJ/mol
# GULP energy per Si atom -5591.939976 kJ/mol
# Density = 2.253017 g / cm^3
# Si number density = 22.581568 Si / 1000 Ang^3
#
#
#
# Elastic Constant Matrix: (Units=GPa)
#
#
# Indices 1 2 3 4 5 6 
#
# 1 113.5697 5.3589 10.8121 0.0000 0.0000 0.0000
# 2 5.3589 92.9400 19.3049 0.0000 0.0000 0.0000
# 3 10.8121 19.3049 81.8413 0.0000 0.0000 0.0000
# 4 0.0000 0.0000 0.0000 27.2043 0.0000 0.0000
# 5 0.0000 0.0000 0.0000 0.0000 25.2637 0.0000
# 6 0.0000 0.0000 0.0000 0.0000 0.0000 5.2444
#
#
#
# Elastic Compliance Matrix: (Units=1/GPa)
#
#
# Indices 1 2 3 4 5 6 
#
# 1 0.008924 -0.000284 -0.001112 0.000000 0.000000 0.000000
# 2 -0.000284 0.011323 -0.002633 0.000000 0.000000 0.000000
# 3 -0.001112 -0.002633 0.012987 0.000000 0.000000 0.000000
# 4 0.000000 0.000000 0.000000 0.036759 0.000000 0.000000
# 5 0.000000 0.000000 0.000000 0.000000 0.039582 0.000000
# 6 0.000000 0.000000 0.000000 0.000000 0.000000 0.190680
#
#
# Mechanical properties :
#
#
# Convention : Reuss Voigt Hill
#
# Bulk Modulus (GPa) = 39.72032 39.92253 39.82142
# Shear Modulus (GPa) = 15.78754 28.40082 22.09418
#
# Velocity S-wave (km/s) = 2.64698 3.55025 3.13136
# Velocity P-wave (km/s) = 5.19326 5.87566 5.54497
#
# Compressibility (1/GPa) = 0.02517603
#
# Stress axis : x y z
#
# Youngs Moduli (GPa) = 112.05209 88.31602 77.00084
#
# Poissons Ratio (x) = 0.02504 0.08563
# Poissons Ratio (y) = 0.03178 0.20278
# Poissons Ratio (z) = 0.12462 0.23257
#
# Static dielectric constant tensor:
#      x y z
#    x 1.852300 0.000000 0.000000 
#    y 0.000000 1.838510 0.000000 
#    z 0.000000 0.000000 1.856300 
# 
# From -- ./inp_files/23015.got.cif
#   From: 2010.05.17/outbox.cif.g08.bks.cpg/sg23_12_cif.got.tgz:23015.got - 2010.06.04 12:02:01.
