data_PCOD9331265
_publ_section_title
;
Structure prediction by ZEFSAII (Michael W. Deem and Ramdas Pophale) SiO2 
 PCOD9331265
Probable space group: I 2 2 2
;
_chemical_formula_sum "Si O2"
_cell_formula_units_Z 36
_cell_length_a 5.523734
_cell_length_b 19.772504
_cell_length_c 18.036741
_cell_angle_alpha 90.000000
_cell_angle_beta 90.000000
_cell_angle_gamma 90.000000
_cell_volume 1969.937727
_symmetry_space_group_name_H-M "I 2 2 2"
_symmetry_group_IT_number 23
_symmetry_cell_setting 'orthorhombic'
loop_
_space_group_symop_operation_xyz
x,y,z
-x,-y,z
x,-y,-z
-x,y,-z
1/2+x,1/2+y,1/2+z
1/2-x,1/2-y,1/2+z
1/2+x,1/2-y,1/2-z
1/2-x,1/2+y,1/2-z
loop_
_atom_site_type_symbol
_atom_site_label
_atom_site_fract_x
_atom_site_fract_y
_atom_site_fract_z
Si Si1 0.400137 0.570954 0.212763
Si Si2 0.752542 0.232367 0.957868
Si Si3 0.283485 0.714284 0.281579
Si Si4 0.823214 0.889276 0.564790
Si Si5 0.500000 0.000000 0.615164
O O1 0.500000 0.500000 0.248441
O O2 0.322189 0.635537 0.260155
O O3 0.568677 0.603274 0.147934
O O4 0.179607 0.540588 0.167491
O O5 0.756649 0.214732 0.870719
O O6 0.751599 0.313873 0.954832
O O7 0.500000 0.212509 0.000000
O O8 0.000000 0.210254 0.000000
O O9 0.532139 0.754571 0.254814
O O10 0.000000 0.911439 0.500000
O O11 0.616628 0.942730 0.567515
#
# Coordination Sequence:
#
# PCOD9331265 Si02
#       5
#     8   8   8   8   4
#     4  10  23  40  58  93 122 166 212 262 318 379
#     4  11  24  42  62  93 127 165 210 268 320 375
#     4  12  24  42  70  96 127 172 218 269 317 379
#     4  10  22  36  51  83 128 164 210 245 307 381
#     4  10  22  37  54  80 123 170 204 248 309 380
#
# _framework density 18.27469
#
# number of rings (size 3 to 8) (size 9 to 14) (size 15 to 20)
#    0.000    1.333    2.222    2.667   12.444    4.889 
#    0.000    0.000    0.000    0.667    0.000    0.000 
#    0.000    0.000    0.000    0.000    0.000    0.000 
#
# Total GULP energy -100256.752077 kJ/mol
# GULP energy per Si atom -5569.819560 kJ/mol
# Density = 1.823310 g / cm^3
# Si number density = 18.274690 Si / 1000 Ang^3
#
#
#
# Elastic Constant Matrix: (Units=GPa)
#
#
# Indices 1 2 3 4 5 6 
#
# 1 102.3949 27.0061 54.6265 0.0000 0.0000 0.0000
# 2 27.0061 66.2479 11.4471 0.0000 0.0000 0.0000
# 3 54.6265 11.4471 114.0493 0.0000 0.0000 0.0000
# 4 0.0000 0.0000 0.0000 7.2020 0.0000 0.0000
# 5 0.0000 0.0000 0.0000 0.0000 31.3685 0.0000
# 6 0.0000 0.0000 0.0000 0.0000 0.0000 15.5640
#
#
#
# Elastic Compliance Matrix: (Units=1/GPa)
#
#
# Indices 1 2 3 4 5 6 
#
# 1 0.014469 -0.004784 -0.006450 0.000000 0.000000 0.000000
# 2 -0.004784 0.016943 0.000591 0.000000 0.000000 0.000000
# 3 -0.006450 0.000591 0.011798 0.000000 0.000000 0.000000
# 4 0.000000 0.000000 0.000000 0.138849 0.000000 0.000000
# 5 0.000000 0.000000 0.000000 0.000000 0.031879 0.000000
# 6 0.000000 0.000000 0.000000 0.000000 0.000000 0.064251
#
#
# Mechanical properties :
#
#
# Convention : Reuss Voigt Hill
#
# Bulk Modulus (GPa) = 45.61245 52.09460 48.85353
# Shear Modulus (GPa) = 16.29814 23.46772 19.88293
#
# Velocity S-wave (km/s) = 2.98961 3.58741 3.30207
# Velocity P-wave (km/s) = 6.07705 6.76222 6.42877
#
# Compressibility (1/GPa) = 0.02192384
#
# Stress axis : x y z
#
# Youngs Moduli (GPa) = 69.11418 59.02191 84.75847
#
# Poissons Ratio (x) = 0.28235 0.54669
# Poissons Ratio (y) = 0.33062 -0.05007
# Poissons Ratio (z) = 0.44579 -0.03487
#
# Static dielectric constant tensor:
#      x y z
#    x 1.736230 0.000000 0.000000 
#    y 0.000000 1.611780 0.000000 
#    z 0.000000 0.000000 1.638870 
# 
# From -- ./inp_files/3743.got.cif
#   From: 2010.05.17/outbox.cif.g08.bks.cpg/sg23_2_cif.got.tgz:3743.got - 2010.06.04 12:02:01.
