data_PCOD9331737
_publ_section_title
;
Structure prediction by ZEFSAII (Michael W. Deem and Ramdas Pophale) SiO2 
 PCOD9331737
Probable space group: I 2 2 2
;
_chemical_formula_sum "Si O2"
_cell_formula_units_Z 58
_cell_length_a 11.202853
_cell_length_b 8.887890
_cell_length_c 28.026799
_cell_angle_alpha 90.000000
_cell_angle_beta 90.000000
_cell_angle_gamma 90.000000
_cell_volume 2790.620673
_symmetry_space_group_name_H-M "I 2 2 2"
_symmetry_group_IT_number 23
_symmetry_cell_setting 'orthorhombic'
loop_
_space_group_symop_operation_xyz
x,y,z
-x,-y,z
x,-y,-z
-x,y,-z
1/2+x,1/2+y,1/2+z
1/2-x,1/2-y,1/2+z
1/2+x,1/2-y,1/2-z
1/2-x,1/2+y,1/2-z
loop_
_atom_site_type_symbol
_atom_site_label
_atom_site_fract_x
_atom_site_fract_y
_atom_site_fract_z
Si Si1 0.284850 0.287318 0.787343
Si Si2 0.754967 0.638461 0.186806
Si Si3 0.135548 0.321357 0.007554
Si Si4 0.498761 0.675840 0.851337
Si Si5 0.000000 0.500000 0.500000
Si Si6 0.406177 0.727927 0.387502
Si Si7 0.845022 0.285225 0.563753
Si Si8 0.653398 0.612517 0.364638
O O1 0.263352 0.465137 0.796964
O O2 0.282451 0.240064 0.732658
O O3 0.411689 0.250547 0.812818
O O4 0.184308 0.187841 0.814240
O O5 0.639925 0.710202 0.158934
O O6 0.862996 0.647843 0.149610
O O7 0.155431 0.266205 0.062005
O O8 0.126066 0.500000 0.000000
O O9 0.244654 0.281152 0.972201
O O10 0.000000 0.258777 0.000000
O O11 0.500000 0.500000 0.840902
O O12 0.559299 0.692930 0.903745
O O13 0.920011 0.396937 0.532580
O O14 0.549040 0.711024 0.389592
O O15 0.374815 0.563786 0.365798
O O16 0.769109 0.369989 0.603286
#
# Coordination Sequence:
#
# PCOD9331737 Si02
#       8
#     8   8   8   8   2   8   8   8
#     4  10  23  44  67  99 133 177 221 280 338 421
#     4  11  24  42  70  99 134 172 232 275 346 416
#     4  11  25  42  70 102 137 176 237 292 357 417
#     4   9  23  43  67  91 132 176 217 275 342 410
#     4  12  28  40  68  96 136 180 248 272 336 424
#     4  11  24  41  69  97 131 182 219 287 337 414
#     4  11  24  44  63  96 135 178 221 292 332 414
#     4  10  23  44  66  95 136 172 227 273 356 398
#
# _framework density 20.783906999999999
#
# number of rings (size 3 to 8) (size 9 to 14) (size 15 to 20)
#    0.000    1.517    1.379    1.655   11.586    0.552 
#    0.000    0.000    0.000    0.000    0.000    0.000 
#    0.000    0.000    0.000    0.000    0.000    0.000 
#
# Total GULP energy -161587.141508 kJ/mol
# GULP energy per Si atom -5571.970397 kJ/mol
# Density = 2.073660 g / cm^3
# Si number density = 20.783907 Si / 1000 Ang^3
#
#
#
# Elastic Constant Matrix: (Units=GPa)
#
#
# Indices 1 2 3 4 5 6 
#
# 1 88.9627 26.1405 36.0703 0.0000 0.0000 0.0000
# 2 26.1405 52.6106 25.4786 0.0000 0.0000 0.0000
# 3 36.0703 25.4786 123.5167 0.0000 0.0000 0.0000
# 4 0.0000 0.0000 0.0000 36.6072 0.0000 0.0000
# 5 0.0000 0.0000 0.0000 0.0000 26.5977 0.0000
# 6 0.0000 0.0000 0.0000 0.0000 0.0000 26.7459
#
#
#
# Elastic Compliance Matrix: (Units=1/GPa)
#
#
# Indices 1 2 3 4 5 6 
#
# 1 0.014076 -0.005558 -0.002964 0.000000 0.000000 0.000000
# 2 -0.005558 0.023312 -0.003186 0.000000 0.000000 0.000000
# 3 -0.002964 -0.003186 0.009619 0.000000 0.000000 0.000000
# 4 0.000000 0.000000 0.000000 0.027317 0.000000 0.000000
# 5 0.000000 0.000000 0.000000 0.000000 0.037597 0.000000
# 6 0.000000 0.000000 0.000000 0.000000 0.000000 0.037389
#
#
# Mechanical properties :
#
#
# Convention : Reuss Voigt Hill
#
# Bulk Modulus (GPa) = 42.38938 48.94097 45.66517
# Shear Modulus (GPa) = 27.68720 29.81686 28.75203
#
# Velocity S-wave (km/s) = 3.65382 3.79174 3.72342
# Velocity P-wave (km/s) = 6.18386 6.53975 6.36429
#
# Compressibility (1/GPa) = 0.02359082
#
# Stress axis : x y z
#
# Youngs Moduli (GPa) = 71.04469 42.89622 103.96387
#
# Poissons Ratio (x) = 0.23843 0.30814
# Poissons Ratio (y) = 0.39489 0.33118
# Poissons Ratio (z) = 0.21057 0.13665
#
# Static dielectric constant tensor:
#      x y z
#    x 1.800180 0.000000 0.000000 
#    y 0.000000 1.734550 0.000000 
#    z 0.000000 0.000000 1.771440 
# 
# From -- ./inp_files/29491.got.cif
#   From: 2010.05.17/outbox.cif.g08.bks.cpg/sg23_15_cif.got.tgz:29491.got - 2010.06.04 12:02:01.
