data_PCOD9331950
_publ_section_title
;
Structure prediction by ZEFSAII (Michael W. Deem and Ramdas Pophale) SiO2 
 PCOD9331950
Probable space group: I 2 2 2
;
_chemical_formula_sum "Si O2"
_cell_formula_units_Z 52
_cell_length_a 15.992034
_cell_length_b 17.186881
_cell_length_c 8.221553
_cell_angle_alpha 90.000000
_cell_angle_beta 90.000000
_cell_angle_gamma 90.000000
_cell_volume 2259.720030
_symmetry_space_group_name_H-M "I 2 2 2"
_symmetry_group_IT_number 23
_symmetry_cell_setting 'orthorhombic'
loop_
_space_group_symop_operation_xyz
x,y,z
-x,-y,z
x,-y,-z
-x,y,-z
1/2+x,1/2+y,1/2+z
1/2-x,1/2-y,1/2+z
1/2+x,1/2-y,1/2-z
1/2-x,1/2+y,1/2-z
loop_
_atom_site_type_symbol
_atom_site_label
_atom_site_fract_x
_atom_site_fract_y
_atom_site_fract_z
Si Si1 0.712432 0.593798 0.299751
Si Si2 0.500000 0.180693 0.500000
Si Si3 0.445948 0.873912 0.836056
Si Si4 0.847285 0.000000 0.500000
Si Si5 0.920855 0.839362 0.394891
Si Si6 0.619544 0.320356 0.461264
Si Si7 0.700225 0.247004 0.895793
Si Si8 0.345798 0.000000 0.000000
O O1 0.702636 0.530040 0.157753
O O2 0.629427 0.609764 0.409617
O O3 0.721645 0.678000 0.214872
O O4 0.787251 0.563379 0.411974
O O5 0.501524 0.133619 0.669454
O O6 0.577684 0.239881 0.513537
O O7 0.371040 0.810806 0.830866
O O8 0.402498 0.956908 0.866950
O O9 0.500000 0.860780 0.000000
O O10 0.900718 0.073975 0.550094
O O11 0.930184 0.840046 0.202462
O O12 0.842396 0.785429 0.444603
O O13 0.000000 0.812709 0.500000
O O14 0.715587 0.300121 0.422642
#
# Coordination Sequence:
#
# PCOD9331950 Si02
#       8
#     8   4   8   4   8   8   8   4
#     4  11  24  45  74 112 152 202 263 321 390 483
#     4  12  28  46  81 119 150 198 276 332 400 465
#     4  12  27  51  77 118 157 210 262 330 400 475
#     4  10  25  42  68 106 153 204 244 311 408 476
#     4  11  24  43  68 103 148 194 251 321 390 463
#     4  12  24  43  76 109 141 195 261 336 379 464
#     4  11  23  45  76 106 144 198 271 321 381 462
#     4  12  27  50  78 113 168 210 254 325 414 488
#
# _framework density 23.011700000000001
#
# number of rings (size 3 to 8) (size 9 to 14) (size 15 to 20)
#    0.000    0.615    3.077    4.615    4.308    1.231 
#    0.000    0.769    0.000    0.000    0.000    0.000 
#    0.000    0.000    0.000    0.000    0.000    0.000 
#
# Total GULP energy -145371.010223 kJ/mol
# GULP energy per Si atom -5591.192701 kJ/mol
# Density = 2.295932 g / cm^3
# Si number density = 23.011700 Si / 1000 Ang^3
#
#
#
# Elastic Constant Matrix: (Units=GPa)
#
#
# Indices 1 2 3 4 5 6 
#
# 1 103.3434 35.6720 44.8344 0.0000 0.0000 0.0000
# 2 35.6720 80.3221 26.5354 0.0000 0.0000 0.0000
# 3 44.8344 26.5354 157.6551 0.0000 0.0000 0.0000
# 4 0.0000 0.0000 0.0000 43.4877 0.0000 0.0000
# 5 0.0000 0.0000 0.0000 0.0000 16.0171 0.0000
# 6 0.0000 0.0000 0.0000 0.0000 0.0000 50.6815
#
#
#
# Elastic Compliance Matrix: (Units=1/GPa)
#
#
# Indices 1 2 3 4 5 6 
#
# 1 0.012474 -0.004625 -0.002769 0.000000 0.000000 0.000000
# 2 -0.004625 0.014898 -0.001192 0.000000 0.000000 0.000000
# 3 -0.002769 -0.001192 0.007331 0.000000 0.000000 0.000000
# 4 0.000000 0.000000 0.000000 0.022995 0.000000 0.000000
# 5 0.000000 0.000000 0.000000 0.000000 0.062433 0.000000
# 6 0.000000 0.000000 0.000000 0.000000 0.000000 0.019731
#
#
# Mechanical properties :
#
#
# Convention : Reuss Voigt Hill
#
# Bulk Modulus (GPa) = 57.04360 61.71159 59.37760
# Shear Modulus (GPa) = 30.69771 37.65587 34.17679
#
# Velocity S-wave (km/s) = 3.65636 4.04961 3.85800
# Velocity P-wave (km/s) = 6.53208 6.98151 6.76053
#
# Compressibility (1/GPa) = 0.01753045
#
# Stress axis : x y z
#
# Youngs Moduli (GPa) = 80.16487 67.12388 136.40578
#
# Poissons Ratio (x) = 0.31046 0.37771
# Poissons Ratio (y) = 0.37078 0.16262
# Poissons Ratio (z) = 0.22198 0.08002
#
# Static dielectric constant tensor:
#      x y z
#    x 1.867810 0.000000 0.000000 
#    y 0.000000 1.841270 0.000000 
#    z 0.000000 0.000000 1.885350 
# 
# From -- ./inp_files/11261.got.cif
#   From: 2010.05.17/outbox.cif.g08.bks.cpg/sg23_6_cif.got.tgz:11261.got - 2010.06.04 12:02:01.
