data_PCOD9331408
_publ_section_title
;
Structure prediction by ZEFSAII (Michael W. Deem and Ramdas Pophale) SiO2 
 PCOD9331408
Probable space group: I 2 2 2
;
_chemical_formula_sum "Si O2"
_cell_formula_units_Z 60
_cell_length_a 5.517189
_cell_length_b 24.314999
_cell_length_c 19.716520
_cell_angle_alpha 90.000000
_cell_angle_beta 90.000000
_cell_angle_gamma 90.000000
_cell_volume 2644.979932
_symmetry_space_group_name_H-M "I 2 2 2"
_symmetry_group_IT_number 23
_symmetry_cell_setting 'orthorhombic'
loop_
_space_group_symop_operation_xyz
x,y,z
-x,-y,z
x,-y,-z
-x,y,-z
1/2+x,1/2+y,1/2+z
1/2-x,1/2-y,1/2+z
1/2+x,1/2-y,1/2-z
1/2-x,1/2+y,1/2-z
loop_
_atom_site_type_symbol
_atom_site_label
_atom_site_fract_x
_atom_site_fract_y
_atom_site_fract_z
Si Si1 0.656599 0.179750 0.380552
Si Si2 0.916104 0.654647 0.574169
Si Si3 0.616134 0.355653 0.747292
Si Si4 0.324453 0.450679 0.803052
Si Si5 0.000000 0.162014 0.500000
Si Si6 0.019645 0.438249 0.322320
Si Si7 0.925335 0.790745 0.884106
Si Si8 0.380462 0.079041 0.433500
O O1 0.730484 0.178887 0.301780
O O2 0.852756 0.192618 0.440070
O O3 0.449756 0.225355 0.389145
O O4 0.572626 0.117612 0.394949
O O5 0.654032 0.684411 0.573570
O O6 0.000000 0.635588 0.500000
O O7 0.894214 0.603791 0.626009
O O8 0.151460 0.690366 0.598415
O O9 0.442479 0.390540 0.796422
O O10 0.741526 0.404193 0.701488
O O11 0.518615 0.313296 0.691771
O O12 0.500000 0.500000 0.783380
O O13 0.234465 0.460839 0.878833
O O14 0.114987 0.446254 0.748616
O O15 0.815827 0.122069 0.538875
O O16 0.000000 0.500000 0.352486
O O17 0.500000 0.055316 0.500000
#
# Coordination Sequence:
#
# PCOD9331408 Si02
#       8
#     8   8   8   8   4   8   8   8
#     4  11  24  41  69  97 139 183 238 285 354 423
#     4  11  26  47  71 105 149 185 236 297 359 430
#     4  11  23  42  67 101 137 177 231 299 348 418
#     4  12  22  40  74  97 128 185 234 291 362 422
#     4  10  22  40  65  90 132 180 229 280 346 422
#     4  11  23  43  71 101 135 177 235 291 357 427
#     4  11  27  44  71 106 144 189 235 293 353 430
#     4  10  23  41  65  95 135 179 232 293 350 422
#
# _framework density 22.684480000000001
#
# number of rings (size 3 to 8) (size 9 to 14) (size 15 to 20)
#    0.000    1.067    5.333    0.400    2.800    5.600 
#    0.000    0.333    2.933    1.600    0.000    0.000 
#    0.000    0.000    0.000    0.000    0.000    0.000 
#
# Total GULP energy -167456.495431 kJ/mol
# GULP energy per Si atom -5581.883181 kJ/mol
# Density = 2.263285 g / cm^3
# Si number density = 22.684480 Si / 1000 Ang^3
#
#
#
# Elastic Constant Matrix: (Units=GPa)
#
#
# Indices 1 2 3 4 5 6 
#
# 1 59.7937 17.1593 2.8811 0.0000 0.0000 0.0000
# 2 17.1593 94.9886 5.7503 0.0000 0.0000 0.0000
# 3 2.8811 5.7503 94.6424 0.0000 0.0000 0.0000
# 4 0.0000 0.0000 0.0000 -51.8669 0.0000 0.0000
# 5 0.0000 0.0000 0.0000 0.0000 35.0567 0.0000
# 6 0.0000 0.0000 0.0000 0.0000 0.0000 5.8146
#
#
#
# Elastic Compliance Matrix: (Units=1/GPa)
#
#
# Indices 1 2 3 4 5 6 
#
# 1 0.017650 -0.003167 -0.000345 0.000000 0.000000 0.000000
# 2 -0.003167 0.011135 -0.000580 0.000000 0.000000 0.000000
# 3 -0.000345 -0.000580 0.010612 0.000000 0.000000 0.000000
# 4 0.000000 0.000000 0.000000 -0.019280 0.000000 0.000000
# 5 0.000000 0.000000 0.000000 0.000000 0.028525 0.000000
# 6 0.000000 0.000000 0.000000 0.000000 0.000000 0.171981
#
#
# Mechanical properties :
#
#
# Convention : Reuss Voigt Hill
#
# Bulk Modulus (GPa) = 32.03938 33.44516 32.74227
# Shear Modulus (GPa) = 20.90205 12.70981 16.80593
#
# Velocity S-wave (km/s) = 3.03879 2.36961 2.72482
# Velocity P-wave (km/s) = 5.14460 4.71830 4.93605
#
# Compressibility (1/GPa) = 0.03121159
#
# Stress axis : x y z
#
# Youngs Moduli (GPa) = 56.65793 89.80779 94.23447
#
# Poissons Ratio (x) = 0.28447 0.03250
# Poissons Ratio (y) = 0.17946 0.05467
# Poissons Ratio (z) = 0.01954 0.05210
#
# Static dielectric constant tensor:
#      x y z
#    x 1.968410 0.000000 0.000000 
#    y 0.000000 1.928470 0.000000 
#    z 0.000000 0.000000 1.830310 
# 
# From -- ./inp_files/25815.got.cif
#   From: 2010.05.17/outbox.cif.g08.bks.cpg/sg23_13_cif.got.tgz:25815.got - 2010.06.04 12:02:01.
