data_PCOD9331619
_publ_section_title
;
Structure prediction by ZEFSAII (Michael W. Deem and Ramdas Pophale) SiO2 
 PCOD9331619
Probable space group: I 2 2 2
;
_chemical_formula_sum "Si O2"
_cell_formula_units_Z 60
_cell_length_a 21.429654
_cell_length_b 11.124262
_cell_length_c 11.120711
_cell_angle_alpha 90.000000
_cell_angle_beta 90.000000
_cell_angle_gamma 90.000000
_cell_volume 2651.056127
_symmetry_space_group_name_H-M "I 2 2 2"
_symmetry_group_IT_number 23
_symmetry_cell_setting 'orthorhombic'
loop_
_space_group_symop_operation_xyz
x,y,z
-x,-y,z
x,-y,-z
-x,y,-z
1/2+x,1/2+y,1/2+z
1/2-x,1/2-y,1/2+z
1/2+x,1/2-y,1/2-z
1/2-x,1/2+y,1/2-z
loop_
_atom_site_type_symbol
_atom_site_label
_atom_site_fract_x
_atom_site_fract_y
_atom_site_fract_z
Si Si1 0.500000 0.251097 0.000000
Si Si2 0.939600 0.435206 0.221608
Si Si3 0.830383 0.420551 0.887303
Si Si4 0.871094 0.365714 0.453147
Si Si5 0.402473 0.517698 0.357969
Si Si6 0.003074 0.811773 0.219529
Si Si7 0.273741 0.465445 0.308799
Si Si8 0.760382 0.803415 0.023614
O O1 0.435630 0.176971 0.987405
O O2 0.495040 0.312235 0.133134
O O3 0.899746 0.533435 0.147581
O O4 0.889911 0.382098 0.315004
O O5 0.000000 0.500000 0.279834
O O6 0.971853 0.315503 0.168519
O O7 0.781586 0.449642 0.782869
O O8 0.812221 0.286650 0.927522
O O9 0.811711 0.500000 0.000000
O O10 0.855884 0.500000 0.500000
O O11 0.813832 0.274295 0.474354
O O12 0.385453 0.500000 0.500000
O O13 0.435857 0.643940 0.328352
O O14 0.450663 0.412642 0.329120
O O15 0.343997 0.493629 0.270672
O O16 0.276033 0.345920 0.389909
O O17 0.260279 0.580745 0.390905
#
# Coordination Sequence:
#
# PCOD9331619 Si02
#       8
#     4   8   8   8   8   8   8   8
#     4  10  23  37  68 104 144 190 224 306 360 432
#     4  11  25  44  67 100 143 186 228 298 352 425
#     4  12  30  46  71 109 145 190 243 302 374 441
#     4  11  19  41  69 100 137 185 242 283 359 430
#     4  11  24  45  73 101 133 191 242 292 353 442
#     4  10  24  43  70 100 144 180 238 290 359 431
#     4  11  25  47  74 106 140 192 243 304 371 439
#     4  11  24  45  77 100 142 192 238 309 364 447
#
# _framework density 22.632489
#
# number of rings (size 3 to 8) (size 9 to 14) (size 15 to 20)
#    0.000    1.067    4.000    2.600    9.333    2.400 
#    2.400    0.000    0.000    0.000    0.000    0.000 
#    0.000    0.000    0.000    0.000    0.000    0.000 
#
# Total GULP energy -167318.166357 kJ/mol
# GULP energy per Si atom -5577.272212 kJ/mol
# Density = 2.258098 g / cm^3
# Si number density = 22.632489 Si / 1000 Ang^3
#
#
#
# Elastic Constant Matrix: (Units=GPa)
#
#
# Indices 1 2 3 4 5 6 
#
# 1 152.2369 58.0496 22.1514 0.0000 0.0000 0.0000
# 2 58.0496 85.5035 27.2055 0.0000 0.0000 0.0000
# 3 22.1514 27.2055 78.8911 0.0000 0.0000 0.0000
# 4 0.0000 0.0000 0.0000 31.1624 0.0000 0.0000
# 5 0.0000 0.0000 0.0000 0.0000 38.5618 0.0000
# 6 0.0000 0.0000 0.0000 0.0000 0.0000 8.4072
#
#
#
# Elastic Compliance Matrix: (Units=1/GPa)
#
#
# Indices 1 2 3 4 5 6 
#
# 1 0.008878 -0.005880 -0.000465 0.000000 0.000000 0.000000
# 2 -0.005880 0.017031 -0.004222 0.000000 0.000000 0.000000
# 3 -0.000465 -0.004222 0.014262 0.000000 0.000000 0.000000
# 4 0.000000 0.000000 0.000000 0.032090 0.000000 0.000000
# 5 0.000000 0.000000 0.000000 0.000000 0.025932 0.000000
# 6 0.000000 0.000000 0.000000 0.000000 0.000000 0.118946
#
#
# Mechanical properties :
#
#
# Convention : Reuss Voigt Hill
#
# Bulk Modulus (GPa) = 52.52857 59.04939 55.78898
# Shear Modulus (GPa) = 20.43989 29.57460 25.00725
#
# Velocity S-wave (km/s) = 3.00846 3.61880 3.32765
# Velocity P-wave (km/s) = 5.94370 6.60364 6.28234
#
# Compressibility (1/GPa) = 0.01903726
#
# Stress axis : x y z
#
# Youngs Moduli (GPa) = 112.63315 58.71795 70.11472
#
# Poissons Ratio (x) = 0.34524 0.03263
# Poissons Ratio (y) = 0.66224 0.29603
# Poissons Ratio (z) = 0.05241 0.24791
#
# Static dielectric constant tensor:
#      x y z
#    x 1.991830 0.000000 0.000000 
#    y 0.000000 1.781680 0.000000 
#    z 0.000000 0.000000 1.893080 
# 
# From -- ./inp_files/18038.got.cif
#   From: 2010.05.17/outbox.cif.g08.bks.cpg/sg23_10_cif.got.tgz:18038.got - 2010.06.04 12:02:01.
