data_PCOD9331360
_publ_section_title
;
Structure prediction by ZEFSAII (Michael W. Deem and Ramdas Pophale) SiO2 
 PCOD9331360
Probable space group: I 2 2 2
;
_chemical_formula_sum "Si O2"
_cell_formula_units_Z 34
_cell_length_a 5.087852
_cell_length_b 18.563649
_cell_length_c 16.021023
_cell_angle_alpha 90.000000
_cell_angle_beta 90.000000
_cell_angle_gamma 90.000000
_cell_volume 1513.171182
_symmetry_space_group_name_H-M "I 2 2 2"
_symmetry_group_IT_number 23
_symmetry_cell_setting 'orthorhombic'
loop_
_space_group_symop_operation_xyz
x,y,z
-x,-y,z
x,-y,-z
-x,y,-z
1/2+x,1/2+y,1/2+z
1/2-x,1/2-y,1/2+z
1/2+x,1/2-y,1/2-z
1/2-x,1/2+y,1/2-z
loop_
_atom_site_type_symbol
_atom_site_label
_atom_site_fract_x
_atom_site_fract_y
_atom_site_fract_z
Si Si1 0.000000 0.000000 0.000000
Si Si2 0.305648 0.931847 0.147364
Si Si3 0.495187 0.777663 0.898588
Si Si4 0.505149 0.192453 0.399830
Si Si5 0.237832 0.952243 0.329120
O O1 0.150174 0.052693 0.937184
O O2 0.439407 0.854796 0.139142
O O3 0.150806 0.932709 0.234590
O O4 0.500000 0.000000 0.150819
O O5 0.204174 0.755099 0.873095
O O6 0.712273 0.716931 0.873809
O O7 0.500000 0.782811 0.000000
O O8 0.500000 0.189018 0.500000
O O9 0.650845 0.120010 0.370973
O O10 0.500000 0.000000 0.326308
O O11 0.000000 0.000000 0.367442
#
# Coordination Sequence:
#
# PCOD9331360 Si02
#       5
#     2   8   8   8   8
#     4  12  22  40  64  94 128 174 232 248 342 404
#     4  11  25  39  64  97 135 179 223 272 332 409
#     4  10  22  39  64  94 133 170 221 270 327 401
#     4  10  23  42  65  95 127 171 221 275 338 400
#     4  11  24  44  66  96 135 171 223 286 337 400
#
# _framework density 22.469367999999999
#
# number of rings (size 3 to 8) (size 9 to 14) (size 15 to 20)
#    0.000    1.412    1.176    3.176    8.235    2.353 
#    0.000    1.176    0.000    0.000    0.000    0.000 
#    0.000    0.000    0.000    0.000    0.000    0.000 
#
# Total GULP energy -94930.339650 kJ/mol
# GULP energy per Si atom -5584.137626 kJ/mol
# Density = 2.241823 g / cm^3
# Si number density = 22.469368 Si / 1000 Ang^3
#
#
#
# Elastic Constant Matrix: (Units=GPa)
#
#
# Indices 1 2 3 4 5 6 
#
# 1 89.0471 29.4176 28.9786 0.0000 0.0000 0.0000
# 2 29.4176 136.3605 36.7839 0.0000 0.0000 0.0000
# 3 28.9786 36.7839 34.4189 0.0000 0.0000 0.0000
# 4 0.0000 0.0000 0.0000 25.2665 0.0000 0.0000
# 5 0.0000 0.0000 0.0000 0.0000 18.8859 0.0000
# 6 0.0000 0.0000 0.0000 0.0000 0.0000 45.0104
#
#
#
# Elastic Compliance Matrix: (Units=1/GPa)
#
#
# Indices 1 2 3 4 5 6 
#
# 1 0.015474 0.000247 -0.013293 0.000000 0.000000 0.000000
# 2 0.000247 0.010308 -0.011225 0.000000 0.000000 0.000000
# 3 -0.013293 -0.011225 0.052241 0.000000 0.000000 0.000000
# 4 0.000000 0.000000 0.000000 0.039578 0.000000 0.000000
# 5 0.000000 0.000000 0.000000 0.000000 0.052950 0.000000
# 6 0.000000 0.000000 0.000000 0.000000 0.000000 0.022217
#
#
# Mechanical properties :
#
#
# Convention : Reuss Voigt Hill
#
# Bulk Modulus (GPa) = 33.91705 50.02073 41.96889
# Shear Modulus (GPa) = 19.90952 28.80899 24.35926
#
# Velocity S-wave (km/s) = 2.97993 3.58459 3.29615
# Velocity P-wave (km/s) = 5.19303 6.28032 5.76238
#
# Compressibility (1/GPa) = 0.02948370
#
# Stress axis : x y z
#
# Youngs Moduli (GPa) = 64.62402 97.01179 19.14189
#
# Poissons Ratio (x) = -0.02401 0.25445
# Poissons Ratio (y) = -0.01599 0.21486
# Poissons Ratio (z) = 0.85903 1.08893
#
# Static dielectric constant tensor:
#      x y z
#    x 1.852910 0.000000 0.000000 
#    y 0.000000 1.804790 0.000000 
#    z 0.000000 0.000000 1.853460 
# 
# From -- ./inp_files/19016.got.cif
#   From: 2010.05.17/outbox.cif.g08.bks.cpg/sg23_10_cif.got.tgz:19016.got - 2010.06.04 12:02:01.
