data_PCOD9331130
_publ_section_title
;
Structure prediction by ZEFSAII (Michael W. Deem and Ramdas Pophale) SiO2 
 PCOD9331130
Probable space group: I 2 2 2
;
_chemical_formula_sum "Si O2"
_cell_formula_units_Z 28
_cell_length_a 8.883076
_cell_length_b 12.469788
_cell_length_c 8.979544
_cell_angle_alpha 90.000000
_cell_angle_beta 90.000000
_cell_angle_gamma 90.000000
_cell_volume 994.664758
_symmetry_space_group_name_H-M "I 2 2 2"
_symmetry_group_IT_number 23
_symmetry_cell_setting 'orthorhombic'
loop_
_space_group_symop_operation_xyz
x,y,z
-x,-y,z
x,-y,-z
-x,y,-z
1/2+x,1/2+y,1/2+z
1/2-x,1/2-y,1/2+z
1/2+x,1/2-y,1/2-z
1/2-x,1/2+y,1/2-z
loop_
_atom_site_type_symbol
_atom_site_label
_atom_site_fract_x
_atom_site_fract_y
_atom_site_fract_z
Si Si1 0.291101 0.432587 0.704389
Si Si2 0.184540 0.830698 0.094359
Si Si3 0.776827 0.500000 0.000000
Si Si4 0.475522 0.854251 0.271320
O O1 0.355310 0.184794 0.849593
O O2 0.348733 0.549083 0.653371
O O3 0.318980 0.432707 0.881064
O O4 0.108490 0.426329 0.699100
O O5 0.081398 0.740365 0.165067
O O6 0.168006 0.155973 0.082715
O O7 0.877536 0.415973 0.901287
#
# Coordination Sequence:
#
# PCOD9331130 Si02
#       4
#     8   8   4   8
#     4  10  21  41  67  98 136 186 233 282 351 441
#     4  10  23  42  70 101 137 182 239 291 353 429
#     4  10  21  40  70 100 136 182 236 286 352 440
#     4  11  22  41  69 103 135 179 234 295 353 426
#
# _framework density 28.150191
#
# number of rings (size 3 to 8) (size 9 to 14) (size 15 to 20)
#    0.000    1.714    0.000    6.000    0.000   13.714 
#    0.000    7.143    0.000   30.857    0.000    0.000 
#    0.000    0.000    0.000    0.000    0.000    0.000 
#
# Total GULP energy -78318.895837 kJ/mol
# GULP energy per Si atom -5594.206845 kJ/mol
# Density = 2.808612 g / cm^3
# Si number density = 28.150191 Si / 1000 Ang^3
#
#
#
# Elastic Constant Matrix: (Units=GPa)
#
#
# Indices 1 2 3 4 5 6 
#
# 1 82.2078 49.0544 30.5312 0.0001 0.0001 0.0000
# 2 49.0544 140.8371 39.2247 0.0003 -0.0001 0.0000
# 3 30.5312 39.2247 133.1023 0.0009 -0.0003 -0.0002
# 4 0.0001 0.0003 0.0009 65.2614 -0.0002 -0.0001
# 5 0.0001 -0.0001 -0.0003 -0.0002 53.2835 0.0000
# 6 0.0000 0.0000 -0.0002 -0.0001 0.0000 73.8512
#
#
#
# Elastic Compliance Matrix: (Units=1/GPa)
#
#
# Indices 1 2 3 4 5 6 
#
# 1 0.015925 -0.004935 -0.002199 0.000000 0.000000 0.000000
# 2 -0.004935 0.009264 -0.001598 0.000000 0.000000 0.000000
# 3 -0.002199 -0.001598 0.008488 0.000000 0.000000 0.000000
# 4 0.000000 0.000000 0.000000 0.015323 0.000000 0.000000
# 5 0.000000 0.000000 0.000000 0.000000 0.018768 0.000000
# 6 0.000000 0.000000 0.000000 0.000000 0.000000 0.013541
#
#
# Mechanical properties :
#
#
# Convention : Reuss Voigt Hill
#
# Bulk Modulus (GPa) = 61.67174 65.97420 63.82297
# Shear Modulus (GPa) = 47.99505 54.30167 51.14836
#
# Velocity S-wave (km/s) = 4.13360 4.39680 4.26723
# Velocity P-wave (km/s) = 6.68864 7.01877 6.85569
#
# Compressibility (1/GPa) = 0.01621488
#
# Stress axis : x y z
#
# Youngs Moduli (GPa) = 62.79281 107.94183 117.80802
#
# Poissons Ratio (x) = 0.53264 0.25904
# Poissons Ratio (y) = 0.30985 0.18829
# Poissons Ratio (z) = 0.13807 0.17252
#
# Static dielectric constant tensor:
#      x y z
#    x 2.247390 0.000000 0.000000 
#    y 0.000000 2.435240 0.000000 
#    z 0.000000 0.000000 2.266710 
# 
# From -- ./inp_files/21214.got.cif
#   From: 2010.05.17/outbox.cif.g08.bks.cpg/sg23_11_cif.got.tgz:21214.got - 2010.06.04 12:02:01.
