data_PCOD9331410
_publ_section_title
;
Structure prediction by ZEFSAII (Michael W. Deem and Ramdas Pophale) SiO2 
 PCOD9331410
Probable space group: I 2 2 2
;
_chemical_formula_sum "Si O2"
_cell_formula_units_Z 58
_cell_length_a 28.788238
_cell_length_b 11.367952
_cell_length_c 9.130109
_cell_angle_alpha 90.000000
_cell_angle_beta 90.000000
_cell_angle_gamma 90.000000
_cell_volume 2987.949671
_symmetry_space_group_name_H-M "I 2 2 2"
_symmetry_group_IT_number 23
_symmetry_cell_setting 'orthorhombic'
loop_
_space_group_symop_operation_xyz
x,y,z
-x,-y,z
x,-y,-z
-x,y,-z
1/2+x,1/2+y,1/2+z
1/2-x,1/2-y,1/2+z
1/2+x,1/2-y,1/2-z
1/2-x,1/2+y,1/2-z
loop_
_atom_site_type_symbol
_atom_site_label
_atom_site_fract_x
_atom_site_fract_y
_atom_site_fract_z
Si Si1 0.433139 0.686306 0.370699
Si Si2 0.197925 0.771461 0.598822
Si Si3 0.646440 0.968521 0.828729
Si Si4 0.206187 0.696101 0.260405
Si Si5 0.645714 0.391192 0.596127
Si Si6 0.451429 0.947847 0.338960
Si Si7 0.384303 0.443858 0.858151
Si Si8 0.000000 0.000000 0.000000
O O1 0.391921 0.671891 0.490639
O O2 0.457362 0.810193 0.368219
O O3 0.412558 0.661798 0.211979
O O4 0.468355 0.582940 0.403750
O O5 0.172850 0.657723 0.673730
O O6 0.208671 0.735573 0.430829
O O7 0.242981 0.808322 0.690323
O O8 0.163971 0.883367 0.597424
O O9 0.595663 0.965347 0.754122
O O10 0.678224 0.072373 0.759141
O O11 0.640755 0.000000 0.000000
O O12 0.179484 0.794881 0.164611
O O13 0.666858 0.500000 0.500000
O O14 0.622118 0.458463 0.732560
O O15 0.500000 0.000000 0.278564
O O16 0.443588 0.000000 0.500000
O O17 0.406630 0.500000 0.000000
#
# Coordination Sequence:
#
# PCOD9331410 Si02
#       8
#     8   8   8   8   8   8   8   2
#     4  11  23  41  68  94 133 173 213 278 328 401
#     4  11  25  40  63  96 135 173 221 272 324 396
#     4  10  24  45  65  92 133 173 218 271 328 392
#     4  11  25  40  65  97 132 178 219 274 329 397
#     4  10  22  40  65  93 125 176 215 266 329 386
#     4  11  23  42  68 100 128 168 223 273 326 396
#     4  11  21  42  66  93 127 173 219 270 331 390
#     4  12  20  40  64 100 128 164 226 262 344 384
#
# _framework density 19.411303
#
# number of rings (size 3 to 8) (size 9 to 14) (size 15 to 20)
#    0.000    1.241    4.828    1.655    5.793    1.931 
#    0.000    0.345    3.034    0.000    0.000    0.000 
#    0.000    0.000    0.000    0.000    0.000    0.000 
#
# Total GULP energy -161903.028861 kJ/mol
# GULP energy per Si atom -5582.863064 kJ/mol
# Density = 1.936712 g / cm^3
# Si number density = 19.411303 Si / 1000 Ang^3
#
#
#
# Elastic Constant Matrix: (Units=GPa)
#
#
# Indices 1 2 3 4 5 6 
#
# 1 106.7927 44.1267 36.3023 0.0000 0.0000 0.0000
# 2 44.1267 124.2604 33.8419 0.0000 0.0000 0.0000
# 3 36.3023 33.8419 88.8522 0.0000 0.0000 0.0000
# 4 0.0000 0.0000 0.0000 86.4642 0.0000 0.0000
# 5 0.0000 0.0000 0.0000 0.0000 66.3488 0.0000
# 6 0.0000 0.0000 0.0000 0.0000 0.0000 41.2927
#
#
#
# Elastic Compliance Matrix: (Units=1/GPa)
#
#
# Indices 1 2 3 4 5 6 
#
# 1 0.011945 -0.003250 -0.003643 0.000000 0.000000 0.000000
# 2 -0.003250 0.009863 -0.002429 0.000000 0.000000 0.000000
# 3 -0.003643 -0.002429 0.013668 0.000000 0.000000 0.000000
# 4 0.000000 0.000000 0.000000 0.011565 0.000000 0.000000
# 5 0.000000 0.000000 0.000000 0.000000 0.015072 0.000000
# 6 0.000000 0.000000 0.000000 0.000000 0.000000 0.024217
#
#
# Mechanical properties :
#
#
# Convention : Reuss Voigt Hill
#
# Bulk Modulus (GPa) = 59.40498 60.93857 60.17178
# Shear Modulus (GPa) = 45.21425 52.53011 48.87218
#
# Velocity S-wave (km/s) = 4.83149 5.20772 5.02313
# Velocity P-wave (km/s) = 7.86093 8.22326 8.04413
#
# Compressibility (1/GPa) = 0.01683360
#
# Stress axis : x y z
#
# Youngs Moduli (GPa) = 83.71717 101.38729 73.16358
#
# Poissons Ratio (x) = 0.32949 0.26650
# Poissons Ratio (y) = 0.27206 0.17771
# Poissons Ratio (z) = 0.30495 0.24626
#
# Static dielectric constant tensor:
#      x y z
#    x 1.561990 0.000000 0.000000 
#    y 0.000000 1.702400 0.000000 
#    z 0.000000 0.000000 1.677610 
# 
# From -- ./inp_files/13061.got.cif
#   From: 2010.05.17/outbox.cif.g08.bks.cpg/sg23_7_cif.got.tgz:13061.got - 2010.06.04 12:02:01.
