data_PCOD9331839
_publ_section_title
;
Structure prediction by ZEFSAII (Michael W. Deem and Ramdas Pophale) SiO2 
 PCOD9331839
Probable space group: I 2 2 2
;
_chemical_formula_sum "Si O2"
_cell_formula_units_Z 58
_cell_length_a 17.477341
_cell_length_b 25.496044
_cell_length_c 5.319282
_cell_angle_alpha 90.000000
_cell_angle_beta 90.000000
_cell_angle_gamma 90.000000
_cell_volume 2370.288310
_symmetry_space_group_name_H-M "I 2 2 2"
_symmetry_group_IT_number 23
_symmetry_cell_setting 'orthorhombic'
loop_
_space_group_symop_operation_xyz
x,y,z
-x,-y,z
x,-y,-z
-x,y,-z
1/2+x,1/2+y,1/2+z
1/2-x,1/2-y,1/2+z
1/2+x,1/2-y,1/2-z
1/2-x,1/2+y,1/2-z
loop_
_atom_site_type_symbol
_atom_site_label
_atom_site_fract_x
_atom_site_fract_y
_atom_site_fract_z
Si Si1 0.923670 0.559053 0.390727
Si Si2 0.798847 0.127546 0.670055
Si Si3 0.500000 0.000000 0.500000
Si Si4 0.380535 0.443542 0.467614
Si Si5 0.570709 0.656946 0.187262
Si Si6 0.276306 0.053178 0.661143
Si Si7 0.275835 0.780201 0.894732
Si Si8 0.950904 0.726435 0.759728
O O1 0.926273 0.500000 0.500000
O O2 0.835385 0.571358 0.380044
O O3 0.000000 0.586865 0.500000
O O4 0.942337 0.543693 0.107329
O O5 0.851928 0.158661 0.476035
O O6 0.728342 0.101735 0.527792
O O7 0.771341 0.165599 0.887783
O O8 0.849390 0.079847 0.772672
O O9 0.417326 0.500000 0.500000
O O10 0.426671 0.395799 0.347458
O O11 0.305733 0.452793 0.293671
O O12 0.563592 0.712140 0.326892
O O13 0.500000 0.653783 0.000000
O O14 0.290714 0.000000 0.500000
O O15 0.238015 0.746120 0.666282
O O16 0.364419 0.791691 0.814394
O O17 0.000000 0.723124 0.500000
O O18 0.000000 0.704300 0.000000
#
# Coordination Sequence:
#
# PCOD9331839 Si02
#       8
#     8   8   2   8   8   8   8   8
#     4   9  18  29  53  84 111 160 217 275 330 397
#     4  11  25  42  69 102 132 185 235 292 348 426
#     4   8  14  28  48  74 108 132 220 256 320 378
#     4  11  23  41  66  95 136 187 240 285 344 415
#     4  10  24  42  67 102 137 184 232 289 355 435
#     4  11  21  38  62  90 131 178 231 288 344 410
#     4  12  25  46  77 112 142 183 245 310 366 435
#     4  11  24  45  77 109 147 189 234 300 381 452
#
# _framework density 24.469595000000002
#
# number of rings (size 3 to 8) (size 9 to 14) (size 15 to 20)
#    0.000    1.517    3.448    2.069    7.724    0.000 
#    0.000    2.069    4.552    0.828    0.000    0.000 
#    0.000    0.000    0.000    0.000    0.000    0.000 
#
# Total GULP energy -161759.544039 kJ/mol
# GULP energy per Si atom -5577.915312 kJ/mol
# Density = 2.441390 g / cm^3
# Si number density = 24.469595 Si / 1000 Ang^3
#
#
#
# Elastic Constant Matrix: (Units=GPa)
#
#
# Indices 1 2 3 4 5 6 
#
# 1 115.6420 8.2122 18.4975 0.0000 0.0000 0.0000
# 2 8.2122 47.3086 -7.7756 0.0000 0.0000 0.0000
# 3 18.4975 -7.7756 54.0774 0.0000 0.0000 0.0000
# 4 0.0000 0.0000 0.0000 -122.3628 0.0000 -0.0001
# 5 0.0000 0.0000 0.0000 0.0000 46.3818 0.0000
# 6 0.0000 0.0000 0.0000 -0.0001 0.0000 211.0521
#
#
#
# Elastic Compliance Matrix: (Units=1/GPa)
#
#
# Indices 1 2 3 4 5 6 
#
# 1 0.009367 -0.002205 -0.003521 0.000000 0.000000 0.000000
# 2 -0.002205 0.022168 0.003942 0.000000 0.000000 0.000000
# 3 -0.003521 0.003942 0.020263 0.000000 0.000000 0.000000
# 4 0.000000 0.000000 0.000000 -0.008172 0.000000 0.000000
# 5 0.000000 0.000000 0.000000 0.000000 0.021560 0.000000
# 6 0.000000 0.000000 0.000000 0.000000 0.000000 0.004738
#
#
# Mechanical properties :
#
#
# Convention : Reuss Voigt Hill
#
# Bulk Modulus (GPa) = 20.73384 28.32181 24.52782
# Shear Modulus (GPa) = 55.82237 40.22048 48.02142
#
# Velocity S-wave (km/s) = 4.78147 4.05865 4.43481
# Velocity P-wave (km/s) = 6.24300 5.79335 6.02237
#
# Compressibility (1/GPa) = 0.04823034
#
# Stress axis : x y z
#
# Youngs Moduli (GPa) = 106.75592 45.10927 49.35058
#
# Poissons Ratio (x) = 0.09945 0.17377
# Poissons Ratio (y) = 0.23537 -0.19452
# Poissons Ratio (z) = 0.37590 -0.17781
#
# Static dielectric constant tensor:
#      x y z
#    x 2.144020 0.000000 0.000000 
#    y 0.000000 1.968710 0.000000 
#    z 0.000000 0.000000 0.133890 
# 
# From -- ./inp_files/3502.got.cif
#   From: 2010.05.17/outbox.cif.g08.bks.cpg/sg23_2_cif.got.tgz:3502.got - 2010.06.04 12:02:01.
