data_PCOD9331684
_publ_section_title
;
Structure prediction by ZEFSAII (Michael W. Deem and Ramdas Pophale) SiO2 
 PCOD9331684
Probable space group: I 2 2 2
;
_chemical_formula_sum "Si O2"
_cell_formula_units_Z 40
_cell_length_a 8.150270
_cell_length_b 11.669498
_cell_length_c 19.130555
_cell_angle_alpha 90.000000
_cell_angle_beta 90.000000
_cell_angle_gamma 90.000000
_cell_volume 1819.498658
_symmetry_space_group_name_H-M "I 2 2 2"
_symmetry_group_IT_number 23
_symmetry_cell_setting 'orthorhombic'
loop_
_space_group_symop_operation_xyz
x,y,z
-x,-y,z
x,-y,-z
-x,y,-z
1/2+x,1/2+y,1/2+z
1/2-x,1/2-y,1/2+z
1/2+x,1/2-y,1/2-z
1/2-x,1/2+y,1/2-z
loop_
_atom_site_type_symbol
_atom_site_label
_atom_site_fract_x
_atom_site_fract_y
_atom_site_fract_z
Si Si1 0.687387 0.280012 0.919032
Si Si2 0.812609 0.219987 0.580968
Si Si3 0.308435 0.623478 0.773734
Si Si4 0.999998 0.873558 0.083855
Si Si5 0.191566 0.876523 0.726266
O O1 0.499998 0.233590 0.914322
O O2 0.702556 0.373010 0.858330
O O3 0.830932 0.190915 0.900720
O O4 0.710257 0.317485 1.000000
O O5 0.669062 0.309081 0.599281
O O6 0.797443 0.126988 0.641670
O O7 0.250001 0.750001 0.750000
O O8 0.500000 0.622115 0.755239
O O9 0.234831 0.500001 0.750018
O O10 0.000000 0.000000 0.113318
O O11 0.000000 0.881155 0.000000
#
# Coordination Sequence:
#
# PCOD9331684 Si02
#       5
#     8   8   8   8   8
#     4   9  19  37  60  87 120 156 201 259 315 364
#     4   9  19  37  60  87 120 156 201 259 315 364
#     4  10  23  42  63  90 124 163 207 255 312 373
#     4   9  18  32  53  85 123 161 200 245 302 369
#     4  10  23  42  63  90 124 163 207 255 312 373
#
# _framework density 21.984079000000001
#
# number of rings (size 3 to 8) (size 9 to 14) (size 15 to 20)
#    0.000    2.600    0.000    0.000    2.800    4.000 
#    0.000   12.000    0.000    3.600    0.000    0.000 
#    0.000    0.000    0.000    0.000    0.000    0.000 
#
# Total GULP energy -111347.595117 kJ/mol
# GULP energy per Si atom -5567.379756 kJ/mol
# Density = 2.193404 g / cm^3
# Si number density = 21.984079 Si / 1000 Ang^3
#
#
#
# Elastic Constant Matrix: (Units=GPa)
#
#
# Indices 1 2 3 4 5 6 
#
# 1 98.0107 75.0949 23.2850 0.0000 0.0000 0.0000
# 2 75.0949 197.1160 53.2922 0.0000 0.0000 0.0000
# 3 23.2850 53.2922 108.0752 0.0000 0.0000 0.0000
# 4 0.0000 0.0000 0.0000 18.8929 0.0000 0.0000
# 5 0.0000 0.0000 0.0000 0.0000 26.0598 0.0000
# 6 0.0000 0.0000 0.0000 0.0000 0.0000 10.0790
#
#
#
# Elastic Compliance Matrix: (Units=1/GPa)
#
#
# Indices 1 2 3 4 5 6 
#
# 1 0.014429 -0.005373 -0.000459 0.000000 0.000000 0.000000
# 2 -0.005373 0.007854 -0.002715 0.000000 0.000000 0.000000
# 3 -0.000459 -0.002715 0.010691 0.000000 0.000000 0.000000
# 4 0.000000 0.000000 0.000000 0.052930 0.000000 0.000000
# 5 0.000000 0.000000 0.000000 0.000000 0.038373 0.000000
# 6 0.000000 0.000000 0.000000 0.000000 0.000000 0.099216
#
#
# Mechanical properties :
#
#
# Convention : Reuss Voigt Hill
#
# Bulk Modulus (GPa) = 62.97758 78.50514 70.74136
# Shear Modulus (GPa) = 20.33513 27.77501 24.05507
#
# Velocity S-wave (km/s) = 3.04467 3.55831 3.31146
# Velocity P-wave (km/s) = 6.40852 7.25738 6.84612
#
# Compressibility (1/GPa) = 0.01587867
#
# Stress axis : x y z
#
# Youngs Moduli (GPa) = 69.30692 127.32259 93.53893
#
# Poissons Ratio (x) = 0.68406 0.04297
# Poissons Ratio (y) = 0.37236 0.25399
# Poissons Ratio (z) = 0.03184 0.34572
#
# Static dielectric constant tensor:
#      x y z
#    x 1.824420 0.000000 0.000000 
#    y 0.000000 1.852120 0.000000 
#    z 0.000000 0.000000 1.882530 
# 
# From -- ./inp_files/23556.got.cif
#   From: 2010.05.17/outbox.cif.g08.bks.cpg/sg23_12_cif.got.tgz:23556.got - 2010.06.04 12:02:01.
