data_PCOD9331855
_publ_section_title
;
Structure prediction by ZEFSAII (Michael W. Deem and Ramdas Pophale) SiO2 
 PCOD9331855
Probable space group: I 2 2 2
;
_chemical_formula_sum "Si O2"
_cell_formula_units_Z 36
_cell_length_a 9.552097
_cell_length_b 8.299424
_cell_length_c 21.207029
_cell_angle_alpha 90.000000
_cell_angle_beta 90.000000
_cell_angle_gamma 90.000000
_cell_volume 1681.227583
_symmetry_space_group_name_H-M "I 2 2 2"
_symmetry_group_IT_number 23
_symmetry_cell_setting 'orthorhombic'
loop_
_space_group_symop_operation_xyz
x,y,z
-x,-y,z
x,-y,-z
-x,y,-z
1/2+x,1/2+y,1/2+z
1/2-x,1/2-y,1/2+z
1/2+x,1/2-y,1/2-z
1/2-x,1/2+y,1/2-z
loop_
_atom_site_type_symbol
_atom_site_label
_atom_site_fract_x
_atom_site_fract_y
_atom_site_fract_z
Si Si1 0.500000 0.500000 0.500000
Si Si2 0.655305 0.249401 0.585969
Si Si3 0.879421 0.878691 0.786653
Si Si4 0.500000 0.000000 0.500000
Si Si5 0.980921 0.191179 0.574769
Si Si6 0.629852 0.114693 0.818307
O O1 0.601003 0.397812 0.544652
O O2 0.583125 0.265760 0.654005
O O3 0.822050 0.237407 0.592551
O O4 0.599753 0.100489 0.545703
O O5 0.841634 0.760707 0.729946
O O6 0.760700 0.995635 0.814815
O O7 0.000000 0.000000 0.765515
O O8 0.000000 0.216988 0.500000
O O9 0.086216 0.301241 0.615742
O O10 0.000000 0.000000 0.587569
O O11 0.500000 0.000000 0.798942
#
# Coordination Sequence:
#
# PCOD9331855 Si02
#       6
#     2   8   8   2   8   8
#     4  10  24  46  70 106 152 178 248 294 368 450
#     4  11  24  45  69 106 140 191 238 297 369 432
#     4  12  27  46  71 103 141 192 244 300 364 440
#     4  10  24  42  74 102 152 186 234 304 360 450
#     4  11  26  46  76 107 146 190 243 306 374 445
#     4  12  27  48  72 104 143 192 245 309 368 438
#
# _framework density 21.412925999999999
#
# number of rings (size 3 to 8) (size 9 to 14) (size 15 to 20)
#    0.000    0.667    3.333    3.333    7.778    2.222 
#    0.000    0.000    0.000    0.000    0.000    0.000 
#    0.000    0.000    0.000    0.000    0.000    0.000 
#
# Total GULP energy -100647.150946 kJ/mol
# GULP energy per Si atom -5591.508386 kJ/mol
# Density = 2.136419 g / cm^3
# Si number density = 21.412926 Si / 1000 Ang^3
#
#
#
# Elastic Constant Matrix: (Units=GPa)
#
#
# Indices 1 2 3 4 5 6 
#
# 1 62.2304 42.7610 5.4495 0.0000 0.0000 0.0000
# 2 42.7610 126.3611 63.0897 0.0000 0.0000 0.0000
# 3 5.4495 63.0897 125.8211 0.0000 0.0000 0.0000
# 4 0.0000 0.0000 0.0000 -924.9317 0.0000 0.0000
# 5 0.0000 0.0000 0.0000 0.0000 16.2439 0.0000
# 6 0.0000 0.0000 0.0000 0.0000 0.0000 34.9714
#
#
#
# Elastic Compliance Matrix: (Units=1/GPa)
#
#
# Indices 1 2 3 4 5 6 
#
# 1 0.022183 -0.009374 0.003739 0.000000 0.000000 0.000000
# 2 -0.009374 0.014518 -0.006874 0.000000 0.000000 0.000000
# 3 0.003739 -0.006874 0.011232 0.000000 0.000000 0.000000
# 4 0.000000 0.000000 0.000000 -0.001081 0.000000 0.000000
# 5 0.000000 0.000000 0.000000 0.000000 0.061561 0.000000
# 6 0.000000 0.000000 0.000000 0.000000 0.000000 0.028595
#
#
# Mechanical properties :
#
#
# Convention : Reuss Voigt Hill
#
# Bulk Modulus (GPa) = 43.63510 59.66811 51.65160
# Shear Modulus (GPa) = 29.47015 -161.20243 -65.86614
#
# Velocity S-wave (km/s) = 3.71385 -8.68598 -5.55219
# Velocity P-wave (km/s) = 6.22996 8.52461 4.11440
#
# Compressibility (1/GPa) = 0.02291733
#
# Stress axis : x y z
#
# Youngs Moduli (GPa) = 45.07962 68.88087 89.02809
#
# Poissons Ratio (x) = 0.64568 -0.33292
# Poissons Ratio (y) = 0.42257 0.61194
# Poissons Ratio (z) = -0.16858 0.47346
#
# Static dielectric constant tensor:
#      x y z
#    x 1.784370 0.000000 0.000000 
#    y 0.000000 1.833060 0.000000 
#    z 0.000000 0.000000 1.759390 
# 
# From -- ./inp_files/6757.got.cif
#   From: 2010.05.17/outbox.cif.g08.bks.cpg/sg23_4_cif.got.tgz:6757.got - 2010.06.04 12:02:01.
