data_PCOD9331617
_publ_section_title
;
Structure prediction by ZEFSAII (Michael W. Deem and Ramdas Pophale) SiO2 
 PCOD9331617
Probable space group: I 2 2 2
;
_chemical_formula_sum "Si O2"
_cell_formula_units_Z 58
_cell_length_a 18.195260
_cell_length_b 8.830206
_cell_length_c 18.802762
_cell_angle_alpha 90.000000
_cell_angle_beta 90.000000
_cell_angle_gamma 90.000000
_cell_volume 3021.000172
_symmetry_space_group_name_H-M "I 2 2 2"
_symmetry_group_IT_number 23
_symmetry_cell_setting 'orthorhombic'
loop_
_space_group_symop_operation_xyz
x,y,z
-x,-y,z
x,-y,-z
-x,y,-z
1/2+x,1/2+y,1/2+z
1/2-x,1/2-y,1/2+z
1/2+x,1/2-y,1/2-z
1/2-x,1/2+y,1/2-z
loop_
_atom_site_type_symbol
_atom_site_label
_atom_site_fract_x
_atom_site_fract_y
_atom_site_fract_z
Si Si1 0.000000 0.000000 0.500000
Si Si2 0.467491 0.654646 0.360995
Si Si3 0.789301 0.813611 0.552483
Si Si4 0.344174 0.598725 0.239552
Si Si5 0.619940 0.101346 0.434868
Si Si6 0.631642 0.363761 0.079662
Si Si7 0.192761 0.257207 0.707436
Si Si8 0.071023 0.406497 0.800163
O O1 0.050867 0.894919 0.549147
O O2 0.500000 0.500000 0.388253
O O3 0.408982 0.620922 0.297294
O O4 0.427409 0.750844 0.421012
O O5 0.534347 0.756058 0.332131
O O6 0.703075 0.848292 0.549698
O O7 0.823434 0.762241 0.477191
O O8 0.806183 0.718452 0.622551
O O9 0.827693 0.973949 0.571224
O O10 0.367385 0.667852 0.162974
O O11 0.272004 0.689232 0.264479
O O12 0.324079 0.419721 0.227829
O O13 0.593552 0.000000 0.500000
O O14 0.610260 0.003315 0.362630
O O15 0.130335 0.359474 0.742759
O O16 0.000000 0.500000 0.773642
#
# Coordination Sequence:
#
# PCOD9331617 Si02
#       8
#     2   8   8   8   8   8   8   8
#     4   8  16  28  48  84 116 154 186 242 308 354
#     4  11  23  41  58  94 129 161 204 267 329 368
#     4   9  17  33  57  89 116 153 208 260 291 369
#     4  11  23  36  64  92 126 162 210 267 310 383
#     4  11  21  41  66  87 118 171 217 257 312 386
#     4   9  18  31  55  87 121 149 202 245 308 364
#     4  11  21  37  61  92 124 166 213 262 316 371
#     4  10  23  37  60  89 126 164 213 256 317 393
#
# _framework density 19.19894
#
# number of rings (size 3 to 8) (size 9 to 14) (size 15 to 20)
#    0.000    1.931    4.138    1.655    2.897    3.586 
#    0.000    1.379    0.000    2.483    0.000    2.897 
#    0.000    0.000    0.000    0.000    0.000    0.000 
#
# Total GULP energy -161763.945214 kJ/mol
# GULP energy per Si atom -5578.067076 kJ/mol
# Density = 1.915524 g / cm^3
# Si number density = 19.198940 Si / 1000 Ang^3
#
#
#
# Elastic Constant Matrix: (Units=GPa)
#
#
# Indices 1 2 3 4 5 6 
#
# 1 109.8743 31.1892 66.9645 0.0000 0.0000 0.0000
# 2 31.1892 79.5811 41.2727 0.0000 0.0000 0.0000
# 3 66.9645 41.2727 129.0210 0.0000 0.0000 0.0000
# 4 0.0000 0.0000 0.0000 28.4540 0.0000 0.0000
# 5 0.0000 0.0000 0.0000 0.0000 -19.3652 0.0000
# 6 0.0000 0.0000 0.0000 0.0000 0.0000-7039.5872
#
#
#
# Elastic Compliance Matrix: (Units=1/GPa)
#
#
# Indices 1 2 3 4 5 6 
#
# 1 0.013572 -0.001997 -0.006405 0.000000 0.000000 0.000000
# 2 -0.001997 0.015359 -0.003877 0.000000 0.000000 0.000000
# 3 -0.006405 -0.003877 0.012315 0.000000 0.000000 0.000000
# 4 0.000000 0.000000 0.000000 0.035145 0.000000 0.000000
# 5 0.000000 0.000000 0.000000 0.000000 -0.051639 0.000000
# 6 0.000000 0.000000 0.000000 0.000000 0.000000 -0.000142
#
#
# Mechanical properties :
#
#
# Convention : Reuss Voigt Hill
#
# Bulk Modulus (GPa) = 59.92290 66.36991 63.14640
# Shear Modulus (GPa) = 91.35667 -1394.16302 -651.40317
#
# Velocity S-wave (km/s) = 6.90562 -26.97671 -18.43984
# Velocity P-wave (km/s) = 9.73975 30.58888 20.50386
#
# Compressibility (1/GPa) = 0.01668811
#
# Stress axis : x y z
#
# Youngs Moduli (GPa) = 73.68100 65.10821 81.20019
#
# Poissons Ratio (x) = 0.13003 0.52011
# Poissons Ratio (y) = 0.14715 0.31478
# Poissons Ratio (z) = 0.47195 0.25240
#
# Static dielectric constant tensor:
#      x y z
#    x 1.672530 0.000000 0.000000 
#    y 0.000000 1.678610 0.000000 
#    z 0.000000 0.000000 2.053670 
# 
# From -- ./inp_files/25090.got.cif
#   From: 2010.05.17/outbox.cif.g08.bks.cpg/sg23_13_cif.got.tgz:25090.got - 2010.06.04 12:02:01.
