data_PCOD9331486
_publ_section_title
;
Structure prediction by ZEFSAII (Michael W. Deem and Ramdas Pophale) SiO2 
 PCOD9331486
Probable space group: I 2 2 2
;
_chemical_formula_sum "Si O2"
_cell_formula_units_Z 40
_cell_length_a 9.457868
_cell_length_b 12.971833
_cell_length_c 13.775186
_cell_angle_alpha 90.000000
_cell_angle_beta 90.000000
_cell_angle_gamma 90.000000
_cell_volume 1690.020875
_symmetry_space_group_name_H-M "I 2 2 2"
_symmetry_group_IT_number 23
_symmetry_cell_setting 'orthorhombic'
loop_
_space_group_symop_operation_xyz
x,y,z
-x,-y,z
x,-y,-z
-x,y,-z
1/2+x,1/2+y,1/2+z
1/2-x,1/2-y,1/2+z
1/2+x,1/2-y,1/2-z
1/2-x,1/2+y,1/2-z
loop_
_atom_site_type_symbol
_atom_site_label
_atom_site_fract_x
_atom_site_fract_y
_atom_site_fract_z
Si Si1 0.429084 0.810772 0.625629
Si Si2 0.593894 0.102981 0.837770
Si Si3 0.210693 0.390164 0.046816
Si Si4 0.513665 0.676603 0.112061
Si Si5 0.915020 0.895855 0.183165
O O1 0.388108 0.857065 0.727722
O O2 0.556713 0.884965 0.592909
O O3 0.306053 0.813108 0.545335
O O4 0.499850 0.699648 0.637148
O O5 0.513535 0.199637 0.886181
O O6 0.759460 0.093014 0.864017
O O7 0.500000 0.000000 0.845908
O O8 0.322473 0.357149 0.127795
O O9 0.240722 0.500000 0.000000
O O10 0.423346 0.629142 0.199712
O O11 0.500000 0.640349 0.000000
O O12 0.000000 0.000000 0.168381
#
# Coordination Sequence:
#
# PCOD9331486 Si02
#       5
#     8   8   8   8   8
#     4  10  22  42  65  99 136 174 232 280 337 420
#     4  11  24  44  69  94 137 187 229 273 351 420
#     4  11  22  40  69 102 134 175 222 285 350 404
#     4  11  26  42  67 101 138 170 231 294 338 403
#     4  11  26  43  67  99 138 184 229 288 345 411
#
# _framework density 23.668346
#
# number of rings (size 3 to 8) (size 9 to 14) (size 15 to 20)
#    0.000    1.200    2.000    3.600    8.400    3.600 
#    0.000    2.000    0.000    0.000    0.000    0.000 
#    0.000    0.000    0.000    0.000    0.000    0.000 
#
# Total GULP energy -111741.423282 kJ/mol
# GULP energy per Si atom -5587.071164 kJ/mol
# Density = 2.361448 g / cm^3
# Si number density = 23.668346 Si / 1000 Ang^3
#
#
#
# Elastic Constant Matrix: (Units=GPa)
#
#
# Indices 1 2 3 4 5 6 
#
# 1 78.0790 50.1336 -7.2585 0.0000 0.0000 0.0000
# 2 50.1336 179.1839 -7.0674 0.0000 0.0000 0.0000
# 3 -7.2585 -7.0674 46.3395 0.0000 0.0000 0.0000
# 4 0.0000 0.0000 0.0000 15.7954 0.0000 0.0000
# 5 0.0000 0.0000 0.0000 0.0000 28.8943 0.0000
# 6 0.0000 0.0000 0.0000 0.0000 0.0000 -15.7136
#
#
#
# Elastic Compliance Matrix: (Units=1/GPa)
#
#
# Indices 1 2 3 4 5 6 
#
# 1 0.015761 -0.004339 0.001807 0.000000 0.000000 0.000000
# 2 -0.004339 0.006809 0.000359 0.000000 0.000000 0.000000
# 3 0.001807 0.000359 0.021918 0.000000 0.000000 0.000000
# 4 0.000000 0.000000 0.000000 0.063310 0.000000 0.000000
# 5 0.000000 0.000000 0.000000 0.000000 0.034609 0.000000
# 6 0.000000 0.000000 0.000000 0.000000 0.000000 -0.063639
#
#
# Mechanical properties :
#
#
# Convention : Reuss Voigt Hill
#
# Bulk Modulus (GPa) = 24.91111 41.69086 33.30098
# Shear Modulus (GPa) = 51.81719 23.64822 37.73270
#
# Velocity S-wave (km/s) = 4.68408 3.16436 3.99711
# Velocity P-wave (km/s) = 6.30888 5.56810 5.95003
#
# Compressibility (1/GPa) = 0.04014273
#
# Stress axis : x y z
#
# Youngs Moduli (GPa) = 63.44669 146.86687 45.62529
#
# Poissons Ratio (x) = 0.63719 -0.08245
# Poissons Ratio (y) = 0.27527 -0.01637
# Poissons Ratio (z) = -0.11466 -0.05271
#
# Static dielectric constant tensor:
#      x y z
#    x 1.974990 0.000000 0.000000 
#    y 0.000000 1.873050 0.000000 
#    z 0.000000 0.000000 2.026340 
# 
# From -- ./inp_files/23567.got.cif
#   From: 2010.05.17/outbox.cif.g08.bks.cpg/sg23_12_cif.got.tgz:23567.got - 2010.06.04 12:02:01.
