data_PCOD9331385
_publ_section_title
;
Structure prediction by ZEFSAII (Michael W. Deem and Ramdas Pophale) SiO2 
 PCOD9331385
Probable space group: I 2 2 2
;
_chemical_formula_sum "Si O2"
_cell_formula_units_Z 36
_cell_length_a 17.801433
_cell_length_b 11.464820
_cell_length_c 9.299116
_cell_angle_alpha 90.000000
_cell_angle_beta 90.000000
_cell_angle_gamma 90.000000
_cell_volume 1897.858678
_symmetry_space_group_name_H-M "I 2 2 2"
_symmetry_group_IT_number 23
_symmetry_cell_setting 'orthorhombic'
loop_
_space_group_symop_operation_xyz
x,y,z
-x,-y,z
x,-y,-z
-x,y,-z
1/2+x,1/2+y,1/2+z
1/2-x,1/2-y,1/2+z
1/2+x,1/2-y,1/2-z
1/2-x,1/2+y,1/2-z
loop_
_atom_site_type_symbol
_atom_site_label
_atom_site_fract_x
_atom_site_fract_y
_atom_site_fract_z
Si Si1 0.682742 0.792641 0.709617
Si Si2 0.158876 0.698040 0.221345
Si Si3 0.084899 0.638331 0.517104
Si Si4 0.176617 0.500000 0.000000
Si Si5 0.911356 0.136961 0.011635
O O1 0.752625 0.725383 0.780035
O O2 0.625905 0.833752 0.833710
O O3 0.710748 0.902579 0.610577
O O4 0.636493 0.706021 0.607063
O O5 0.134980 0.678628 0.383888
O O6 0.138349 0.588520 0.116460
O O7 0.116827 0.810476 0.160790
O O8 0.080031 0.500000 0.500000
O O9 0.000000 0.686021 0.500000
O O10 0.000000 0.159325 0.000000
O O11 0.897716 0.000000 0.000000
#
# Coordination Sequence:
#
# PCOD9331385 Si02
#       5
#     8   8   8   4   8
#     4  11  23  40  65  91 126 163 210 257 307 369
#     4  11  23  40  65  91 126 163 210 257 307 369
#     4  11  22  39  62  93 128 157 199 262 314 361
#     4  10  22  40  59  92 119 160 208 250 312 360
#     4  10  23  43  63  90 126 168 207 247 308 379
#
# _framework density 18.968745999999999
#
# number of rings (size 3 to 8) (size 9 to 14) (size 15 to 20)
#    0.000    1.333    2.222    4.000    3.111    1.778 
#    0.000    3.333    0.000    4.000    0.000    0.000 
#    0.000    0.000    0.000    0.000    0.000    0.000 
#
# Total GULP energy -100316.168948 kJ/mol
# GULP energy per Si atom -5573.120497 kJ/mol
# Density = 1.892557 g / cm^3
# Si number density = 18.968746 Si / 1000 Ang^3
#
#
#
# Elastic Constant Matrix: (Units=GPa)
#
#
# Indices 1 2 3 4 5 6 
#
# 1 84.1635 49.1834 24.1309 0.0000 0.0000 0.0000
# 2 49.1834 83.3504 23.7497 0.0000 0.0000 0.0000
# 3 24.1309 23.7497 95.6515 0.0000 0.0000 0.0000
# 4 0.0000 0.0000 0.0000 37.2929 0.0000 0.0000
# 5 0.0000 0.0000 0.0000 0.0000 43.7506 0.0000
# 6 0.0000 0.0000 0.0000 0.0000 0.0000 -52.1613
#
#
#
# Elastic Compliance Matrix: (Units=1/GPa)
#
#
# Indices 1 2 3 4 5 6 
#
# 1 0.018522 -0.010329 -0.002108 0.000000 0.000000 0.000000
# 2 -0.010329 0.018671 -0.002030 0.000000 0.000000 0.000000
# 3 -0.002108 -0.002030 0.011491 0.000000 0.000000 0.000000
# 4 0.000000 0.000000 0.000000 0.026815 0.000000 0.000000
# 5 0.000000 0.000000 0.000000 0.000000 0.022857 0.000000
# 6 0.000000 0.000000 0.000000 0.000000 0.000000 -0.019171
#
#
# Mechanical properties :
#
#
# Convention : Reuss Voigt Hill
#
# Bulk Modulus (GPa) = 50.63480 50.81038 50.72259
# Shear Modulus (GPa) = 43.59171 16.84985 30.22078
#
# Velocity S-wave (km/s) = 4.79903 2.98366 3.99581
# Velocity P-wave (km/s) = 7.58019 6.22207 6.93446
#
# Compressibility (1/GPa) = 0.01974926
#
# Stress axis : x y z
#
# Youngs Moduli (GPa) = 53.98994 53.55966 87.02816
#
# Poissons Ratio (x) = 0.55320 0.18347
# Poissons Ratio (y) = 0.55765 0.17668
# Poissons Ratio (z) = 0.11382 0.10873
#
# Static dielectric constant tensor:
#      x y z
#    x 1.658440 0.000000 0.000000 
#    y 0.000000 1.643880 0.000000 
#    z 0.000000 0.000000 1.835480 
# 
# From -- ./inp_files/11668.got.cif
#   From: 2010.05.17/outbox.cif.g08.bks.cpg/sg23_6_cif.got.tgz:11668.got - 2010.06.04 12:02:01.
