data_PCOD9331702
_publ_section_title
;
Structure prediction by ZEFSAII (Michael W. Deem and Ramdas Pophale) SiO2 
 PCOD9331702
Probable space group: I 2 2 2
;
_chemical_formula_sum "Si O2"
_cell_formula_units_Z 64
_cell_length_a 14.996051
_cell_length_b 17.989120
_cell_length_c 12.012769
_cell_angle_alpha 90.000000
_cell_angle_beta 90.000000
_cell_angle_gamma 90.000000
_cell_volume 3240.633771
_symmetry_space_group_name_H-M "I 2 2 2"
_symmetry_group_IT_number 23
_symmetry_cell_setting 'orthorhombic'
loop_
_space_group_symop_operation_xyz
x,y,z
-x,-y,z
x,-y,-z
-x,y,-z
1/2+x,1/2+y,1/2+z
1/2-x,1/2-y,1/2+z
1/2+x,1/2-y,1/2-z
1/2-x,1/2+y,1/2-z
loop_
_atom_site_type_symbol
_atom_site_label
_atom_site_fract_x
_atom_site_fract_y
_atom_site_fract_z
Si Si1 0.594992 0.244411 0.534459
Si Si2 0.351270 0.917695 0.492828
Si Si3 0.981847 0.086808 0.630869
Si Si4 0.268737 0.196705 0.095403
Si Si5 0.367163 0.312785 0.236431
Si Si6 0.783399 0.572393 0.256862
Si Si7 0.898060 0.585297 0.463947
Si Si8 0.720935 0.410811 0.204827
O O1 0.500000 0.278429 0.500000
O O2 0.593955 0.157274 0.505675
O O3 0.679293 0.279722 0.469679
O O4 0.607010 0.256754 0.665591
O O5 0.306281 0.915949 0.372129
O O6 0.280129 0.912357 0.593165
O O7 0.394192 0.000000 0.500000
O O8 0.880221 0.098780 0.665751
O O9 0.000000 0.099433 0.500000
O O10 0.049052 0.138865 0.697967
O O11 0.000000 0.000000 0.653070
O O12 0.324880 0.268642 0.132872
O O13 0.244167 0.153918 0.209110
O O14 0.331324 0.141960 0.024304
O O15 0.292412 0.368159 0.285070
O O16 0.869991 0.585195 0.333935
O O17 0.742881 0.489429 0.265142
O O18 0.882265 0.500000 0.500000
O O19 0.000000 0.602891 0.500000
#
# Coordination Sequence:
#
# PCOD9331702 Si02
#       8
#     8   8   8   8   8   8   8   8
#     4  12  26  44  67  99 139 180 226 286 349 413
#     4  10  23  42  70  97 131 181 229 278 348 408
#     4  11  24  39  68 103 137 177 239 285 336 417
#     4  12  25  44  70 100 139 181 224 289 351 405
#     4  12  24  43  66 101 139 182 225 284 348 411
#     4  11  21  42  73  95 135 179 228 278 338 412
#     4  11  25  46  72 101 133 181 237 282 338 417
#     4  11  22  43  69  99 137 183 224 284 348 406
#
# _framework density 19.749224000000002
#
# number of rings (size 3 to 8) (size 9 to 14) (size 15 to 20)
#    0.000    0.750    6.250    1.500    3.500    1.750 
#    2.250    0.000    0.000    0.000    0.000    0.000 
#    0.000    0.000    0.000    0.000    0.000    0.000 
#
# Total GULP energy -178754.330493 kJ/mol
# GULP energy per Si atom -5586.072828 kJ/mol
# Density = 1.970427 g / cm^3
# Si number density = 19.749224 Si / 1000 Ang^3
#
#
#
# Elastic Constant Matrix: (Units=GPa)
#
#
# Indices 1 2 3 4 5 6 
#
# 1 144.4441 57.1076 44.8396 0.0000 0.0000 0.0000
# 2 57.1076 97.9051 32.2409 0.0000 0.0000 0.0000
# 3 44.8396 32.2409 85.4639 0.0000 0.0000 0.0000
# 4 0.0000 0.0000 0.0000 13.3403 0.0000 0.0000
# 5 0.0000 0.0000 0.0000 0.0000 7.4554 0.0000
# 6 0.0000 0.0000 0.0000 0.0000 0.0000 9.4093
#
#
#
# Elastic Compliance Matrix: (Units=1/GPa)
#
#
# Indices 1 2 3 4 5 6 
#
# 1 0.009796 -0.004592 -0.003407 0.000000 0.000000 0.000000
# 2 -0.004592 0.013815 -0.002803 0.000000 0.000000 0.000000
# 3 -0.003407 -0.002803 0.014546 0.000000 0.000000 0.000000
# 4 0.000000 0.000000 0.000000 0.074961 0.000000 0.000000
# 5 0.000000 0.000000 0.000000 0.000000 0.134131 0.000000
# 6 0.000000 0.000000 0.000000 0.000000 0.000000 0.106278
#
#
# Mechanical properties :
#
#
# Convention : Reuss Voigt Hill
#
# Bulk Modulus (GPa) = 60.41002 66.24325 63.32664
# Shear Modulus (GPa) = 13.13546 18.94934 16.04240
#
# Velocity S-wave (km/s) = 2.58178 3.10094 2.85319
# Velocity P-wave (km/s) = 6.28827 6.81440 6.55662
#
# Compressibility (1/GPa) = 0.01655355
#
# Stress axis : x y z
#
# Youngs Moduli (GPa) = 102.07839 72.38294 68.74825
#
# Poissons Ratio (x) = 0.33239 0.23426
# Poissons Ratio (y) = 0.46875 0.19267
# Poissons Ratio (z) = 0.34783 0.20285
#
# Static dielectric constant tensor:
#      x y z
#    x 1.676440 0.000000 0.000000 
#    y 0.000000 1.704060 0.000000 
#    z 0.000000 0.000000 1.673920 
# 
# From -- ./inp_files/16964.got.cif
#   From: 2010.05.17/outbox.cif.g08.bks.cpg/sg23_9_cif.got.tgz:16964.got - 2010.06.04 12:02:01.
