data_PCOD9331185
_publ_section_title
;
Structure prediction by ZEFSAII (Michael W. Deem and Ramdas Pophale) SiO2 
 PCOD9331185
Probable space group: I 2 2 2
;
_chemical_formula_sum "Si O2"
_cell_formula_units_Z 56
_cell_length_a 5.889721
_cell_length_b 14.977840
_cell_length_c 28.004323
_cell_angle_alpha 90.000000
_cell_angle_beta 90.000000
_cell_angle_gamma 90.000000
_cell_volume 2470.409721
_symmetry_space_group_name_H-M "I 2 2 2"
_symmetry_group_IT_number 23
_symmetry_cell_setting 'orthorhombic'
loop_
_space_group_symop_operation_xyz
x,y,z
-x,-y,z
x,-y,-z
-x,y,-z
1/2+x,1/2+y,1/2+z
1/2-x,1/2-y,1/2+z
1/2+x,1/2-y,1/2-z
1/2-x,1/2+y,1/2-z
loop_
_atom_site_type_symbol
_atom_site_label
_atom_site_fract_x
_atom_site_fract_y
_atom_site_fract_z
Si Si1 0.988186 0.902487 0.640867
Si Si2 0.749107 0.215288 0.006697
Si Si3 0.753220 0.047081 0.934732
Si Si4 0.284619 0.782452 0.115300
Si Si5 0.892403 0.706161 0.176168
Si Si6 0.853147 0.617872 0.668149
Si Si7 0.331235 0.921680 0.728789
O O1 0.079398 0.812731 0.615243
O O2 0.124772 0.912635 0.691465
O O3 0.732103 0.876843 0.652372
O O4 0.000000 0.000000 0.617155
O O5 0.742922 0.185282 0.061729
O O6 0.500000 0.261898 0.000000
O O7 0.747126 0.132511 0.970019
O O8 0.000000 0.260350 0.000000
O O9 0.759926 0.079312 0.879500
O O10 0.500000 0.000000 0.940829
O O11 0.000000 0.000000 0.943736
O O12 0.394974 0.859184 0.148327
O O13 0.053407 0.752119 0.138256
O O14 0.718041 0.783763 0.185704
O O15 0.028893 0.669732 0.220892
O O16 0.792487 0.561975 0.715144
O O17 0.500000 0.000000 0.713806
#
# Coordination Sequence:
#
# PCOD9331185 Si02
#       7
#     8   8   8   8   8   8   8
#     4  10  21  42  68 101 133 177 235 291 355 423
#     4  12  25  47  74 102 138 185 237 293 357 424
#     4  12  28  49  71 106 144 192 240 296 357 428
#     4  10  24  43  69 100 133 184 239 295 355 432
#     4  10  23  41  67  95 137 179 240 289 350 425
#     4  11  25  42  65  99 143 189 237 294 351 421
#     4  11  23  40  63  98 140 190 231 287 352 418
#
# _framework density 22.668306999999999
#
# number of rings (size 3 to 8) (size 9 to 14) (size 15 to 20)
#    0.000    1.143    2.857    2.143   10.000    2.286 
#    0.000    0.000    0.000    0.429    0.000    0.000 
#    0.000    0.000    0.000    0.000    0.000    0.000 
#
# Total GULP energy -156058.028070 kJ/mol
# GULP energy per Si atom -5573.501002 kJ/mol
# Density = 2.261671 g / cm^3
# Si number density = 22.668307 Si / 1000 Ang^3
#
#
#
# Elastic Constant Matrix: (Units=GPa)
#
#
# Indices 1 2 3 4 5 6 
#
# 1 110.8679 11.2259 25.5242 0.0000 0.0000 0.0000
# 2 11.2259 61.0708 8.4320 0.0000 0.0000 0.0000
# 3 25.5242 8.4320 123.4225 0.0000 0.0000 0.0000
# 4 0.0000 0.0000 0.0000 18.2478 0.0000 0.0000
# 5 0.0000 0.0000 0.0000 0.0000 -13.1793 0.0000
# 6 0.0000 0.0000 0.0000 0.0000 0.0000 37.6650
#
#
#
# Elastic Compliance Matrix: (Units=1/GPa)
#
#
# Indices 1 2 3 4 5 6 
#
# 1 0.009606 -0.001506 -0.001884 0.000000 0.000000 0.000000
# 2 -0.001506 0.016766 -0.000834 0.000000 0.000000 0.000000
# 3 -0.001884 -0.000834 0.008549 0.000000 0.000000 0.000000
# 4 0.000000 0.000000 0.000000 0.054801 0.000000 0.000000
# 5 0.000000 0.000000 0.000000 0.000000 -0.075876 0.000000
# 6 0.000000 0.000000 0.000000 0.000000 0.000000 0.026550
#
#
# Mechanical properties :
#
#
# Convention : Reuss Voigt Hill
#
# Bulk Modulus (GPa) = 37.77258 42.85838 40.31548
# Shear Modulus (GPa) = 86.70443 25.22529 55.96486
#
# Velocity S-wave (km/s) = 6.19130 3.33948 4.97415
# Velocity P-wave (km/s) = 8.23462 5.81527 7.12833
#
# Compressibility (1/GPa) = 0.02647423
#
# Stress axis : x y z
#
# Youngs Moduli (GPa) = 104.10314 59.64322 116.97572
#
# Poissons Ratio (x) = 0.08980 0.22034
# Poissons Ratio (y) = 0.15674 0.09757
# Poissons Ratio (z) = 0.19610 0.04975
#
# Static dielectric constant tensor:
#      x y z
#    x 1.994170 0.000000 0.000000 
#    y 0.000000 1.905260 0.000000 
#    z 0.000000 0.000000 1.838390 
# 
# From -- ./inp_files/29965.got.cif
#   From: 2010.05.17/outbox.cif.g08.bks.cpg/sg23_15_cif.got.tgz:29965.got - 2010.06.04 12:02:01.
