data_PCOD9331258
_publ_section_title
;
Structure prediction by ZEFSAII (Michael W. Deem and Ramdas Pophale) SiO2 
 PCOD9331258
Probable space group: I 2 2 2
;
_chemical_formula_sum "Si O2"
_cell_formula_units_Z 44
_cell_length_a 8.480971
_cell_length_b 27.900943
_cell_length_c 9.214170
_cell_angle_alpha 90.000000
_cell_angle_beta 90.000000
_cell_angle_gamma 90.000000
_cell_volume 2180.322220
_symmetry_space_group_name_H-M "I 2 2 2"
_symmetry_group_IT_number 23
_symmetry_cell_setting 'orthorhombic'
loop_
_space_group_symop_operation_xyz
x,y,z
-x,-y,z
x,-y,-z
-x,y,-z
1/2+x,1/2+y,1/2+z
1/2-x,1/2-y,1/2+z
1/2+x,1/2-y,1/2-z
1/2-x,1/2+y,1/2-z
loop_
_atom_site_type_symbol
_atom_site_label
_atom_site_fract_x
_atom_site_fract_y
_atom_site_fract_z
Si Si1 0.990690 0.736365 0.324908
Si Si2 0.000000 0.581141 0.500000
Si Si3 0.757384 0.500000 0.500000
Si Si4 0.685867 0.318483 0.324910
Si Si5 0.233881 0.651293 0.648148
Si Si6 0.014552 0.894233 0.665437
Si Si7 0.000000 0.000000 0.760861
O O1 0.952978 0.783177 0.230423
O O2 0.848644 0.699212 0.293212
O O3 0.000000 0.746319 0.500000
O O4 0.152600 0.709165 0.289869
O O5 0.864116 0.544529 0.549462
O O6 0.912120 0.615666 0.387302
O O7 0.645155 0.512821 0.366730
O O8 0.691059 0.333239 0.493351
O O9 0.661879 0.367447 0.237812
O O10 0.361730 0.624583 0.746051
O O11 0.000000 0.879114 0.500000
O O12 0.032614 0.951376 0.675410
#
# Coordination Sequence:
#
# PCOD9331258 Si02
#       7
#     8   4   4   8   8   8   4
#     4  10  22  40  65  96 132 170 220 279 343 401
#     4  11  18  40  66 104 130 168 218 289 330 394
#     4  10  22  34  72 104 128 160 228 280 336 400
#     4  11  22  40  66  95 128 173 225 277 333 404
#     4  11  22  43  69  96 132 174 225 282 336 405
#     4  12  26  43  63  94 136 175 221 274 336 406
#     4  11  23  40  66  98 128 174 216 272 340 412
#
# _framework density 20.180503000000002
#
# number of rings (size 3 to 8) (size 9 to 14) (size 15 to 20)
#    0.000    1.091    4.545    3.545    2.545    2.909 
#    0.000    4.545    0.000    0.000    0.000    0.000 
#    0.000    0.000    0.000    0.000    0.000    0.000 
#
# Total GULP energy -122887.735515 kJ/mol
# GULP energy per Si atom -5585.806160 kJ/mol
# Density = 2.013457 g / cm^3
# Si number density = 20.180503 Si / 1000 Ang^3
#
#
#
# Elastic Constant Matrix: (Units=GPa)
#
#
# Indices 1 2 3 4 5 6 
#
# 1 97.4334 39.8318 40.7291 -0.0005 0.0005 0.0000
# 2 39.8318 141.8697 42.1208 -0.0001 -0.0001 0.0001
# 3 40.7291 42.1208 77.8118 -0.0040 -0.0017 0.0011
# 4 -0.0005 -0.0001 -0.0040 31.1218 -0.0002 0.0002
# 5 0.0005 -0.0001 -0.0017 -0.0002 24.3131 -0.0002
# 6 0.0000 0.0001 0.0011 0.0002 -0.0002 45.3878
#
#
#
# Elastic Compliance Matrix: (Units=1/GPa)
#
#
# Indices 1 2 3 4 5 6 
#
# 1 0.013613 -0.002033 -0.006025 -0.000001 -0.000001 0.000000
# 2 -0.002033 0.008702 -0.003646 0.000000 0.000000 0.000000
# 3 -0.006025 -0.003646 0.017979 0.000002 0.000001 0.000000
# 4 -0.000001 0.000000 0.000002 0.032132 0.000000 0.000000
# 5 -0.000001 0.000000 0.000001 0.000000 0.041130 0.000000
# 6 0.000000 0.000000 0.000000 0.000000 0.000000 0.022032
#
#
# Mechanical properties :
#
#
# Convention : Reuss Voigt Hill
#
# Bulk Modulus (GPa) = 59.22331 62.49759 60.86045
# Shear Modulus (GPa) = 30.37183 33.12674 31.74929
#
# Velocity S-wave (km/s) = 3.88365 4.05597 3.97074
# Velocity P-wave (km/s) = 7.03711 7.27812 7.15863
#
# Compressibility (1/GPa) = 0.01688524
#
# Stress axis : x y z
#
# Youngs Moduli (GPa) = 73.45812 114.91356 55.62049
#
# Poissons Ratio (x) = 0.23365 0.33511
# Poissons Ratio (y) = 0.14936 0.20281
# Poissons Ratio (z) = 0.44258 0.41901
#
# Static dielectric constant tensor:
#      x y z
#    x 1.748870 0.000000 0.000000 
#    y 0.000000 1.752820 0.000000 
#    z 0.000000 0.000000 1.694390 
# 
# From -- ./inp_files/7286.got.cif
#   From: 2010.05.17/outbox.cif.g08.bks.cpg/sg23_4_cif.got.tgz:7286.got - 2010.06.04 12:02:01.
