data_PCOD9331142
_publ_section_title
;
Structure prediction by ZEFSAII (Michael W. Deem and Ramdas Pophale) SiO2 
 PCOD9331142
Probable space group: I 2 2 2
;
_chemical_formula_sum "Si O2"
_cell_formula_units_Z 40
_cell_length_a 9.254671
_cell_length_b 7.956899
_cell_length_c 22.666305
_cell_angle_alpha 90.000000
_cell_angle_beta 90.000000
_cell_angle_gamma 90.000000
_cell_volume 1669.112302
_symmetry_space_group_name_H-M "I 2 2 2"
_symmetry_group_IT_number 23
_symmetry_cell_setting 'orthorhombic'
loop_
_space_group_symop_operation_xyz
x,y,z
-x,-y,z
x,-y,-z
-x,y,-z
1/2+x,1/2+y,1/2+z
1/2-x,1/2-y,1/2+z
1/2+x,1/2-y,1/2-z
1/2-x,1/2+y,1/2-z
loop_
_atom_site_type_symbol
_atom_site_label
_atom_site_fract_x
_atom_site_fract_y
_atom_site_fract_z
Si Si1 0.139746 0.679239 0.530920
Si Si2 0.000000 0.500000 0.642193
Si Si3 0.888585 0.652185 0.930119
Si Si4 0.670647 0.532917 0.829157
Si Si5 0.762607 0.166239 0.795897
Si Si6 0.000000 0.000000 0.878170
O O1 0.168920 0.500000 0.500000
O O2 0.277140 0.795804 0.518764
O O3 0.000000 0.756492 0.500000
O O4 0.087518 0.622892 0.596892
O O5 0.892263 0.595411 0.685233
O O6 0.771675 0.603894 0.880319
O O7 0.959711 0.832230 0.914213
O O8 0.000000 0.500000 0.936435
O O9 0.500000 0.500000 0.842594
O O10 0.749791 0.359814 0.812031
O O11 0.687469 0.647191 0.771215
O O12 0.871747 0.060499 0.835999
#
# Coordination Sequence:
#
# PCOD9331142 Si02
#       6
#     8   4   8   8   8   4
#     4   9  21  45  82 114 139 198 264 321 390 454
#     4  10  21  40  78 100 146 208 254 315 382 448
#     4  12  25  48  78 114 155 197 253 320 393 457
#     4  12  28  42  66 110 156 214 261 304 374 467
#     4  12  25  41  67 106 160 210 255 313 367 452
#     4  12  24  46  71 108 162 196 251 316 376 444
#
# _framework density 23.964834
#
# number of rings (size 3 to 8) (size 9 to 14) (size 15 to 20)
#    0.000    1.000    5.000    2.400    4.200    0.000 
#    0.000    0.500    0.000   37.800    0.000    0.000 
#    0.000    0.000    0.000    0.000    0.000    0.000 
#
# Total GULP energy -111882.770884 kJ/mol
# GULP energy per Si atom -5594.138544 kJ/mol
# Density = 2.391029 g / cm^3
# Si number density = 23.964834 Si / 1000 Ang^3
#
#
#
# Elastic Constant Matrix: (Units=GPa)
#
#
# Indices 1 2 3 4 5 6 
#
# 1 142.2211 79.7064 48.5523 0.0000 0.0000 0.0000
# 2 79.7064 140.4421 11.1921 0.0000 0.0000 0.0000
# 3 48.5523 11.1921 52.9356 0.0000 0.0000 0.0000
# 4 0.0000 0.0000 0.0000 20.5845 0.0000 0.0000
# 5 0.0000 0.0000 0.0000 0.0000 25.2793 0.0000
# 6 0.0000 0.0000 0.0000 0.0000 0.0000 63.0567
#
#
#
# Elastic Compliance Matrix: (Units=1/GPa)
#
#
# Indices 1 2 3 4 5 6 
#
# 1 0.015932 -0.008013 -0.012919 0.000000 0.000000 0.000000
# 2 -0.008013 0.011272 0.004966 0.000000 0.000000 0.000000
# 3 -0.012919 0.004966 0.029690 0.000000 0.000000 0.000000
# 4 0.000000 0.000000 0.000000 0.048580 0.000000 0.000000
# 5 0.000000 0.000000 0.000000 0.000000 0.039558 0.000000
# 6 0.000000 0.000000 0.000000 0.000000 0.000000 0.015859
#
#
# Mechanical properties :
#
#
# Convention : Reuss Voigt Hill
#
# Bulk Modulus (GPa) = 40.05890 68.27781 54.16836
# Shear Modulus (GPa) = 24.85783 34.86064 29.85924
#
# Velocity S-wave (km/s) = 3.22415 3.81814 3.53365
# Velocity P-wave (km/s) = 5.53283 6.92750 6.26907
#
# Compressibility (1/GPa) = 0.02496324
#
# Stress axis : x y z
#
# Youngs Moduli (GPa) = 62.76575 88.71443 33.68125
#
# Poissons Ratio (x) = 0.71084 0.43512
# Poissons Ratio (y) = 0.50292 -0.16726
# Poissons Ratio (z) = 0.81086 -0.44055
#
# Static dielectric constant tensor:
#      x y z
#    x 1.973030 0.000000 0.000000 
#    y 0.000000 2.142260 0.000000 
#    z 0.000000 0.000000 1.778860 
# 
# From -- ./inp_files/29175.got.cif
#   From: 2010.05.17/outbox.cif.g08.bks.cpg/sg23_15_cif.got.tgz:29175.got - 2010.06.04 12:02:01.
