data_PCOD9331620
_publ_section_title
;
Structure prediction by ZEFSAII (Michael W. Deem and Ramdas Pophale) SiO2 
 PCOD9331620
Probable space group: I 2 2 2
;
_chemical_formula_sum "Si O2"
_cell_formula_units_Z 28
_cell_length_a 5.306757
_cell_length_b 28.587834
_cell_length_c 7.416521
_cell_angle_alpha 90.000000
_cell_angle_beta 90.000000
_cell_angle_gamma 90.000000
_cell_volume 1125.150672
_symmetry_space_group_name_H-M "I 2 2 2"
_symmetry_group_IT_number 23
_symmetry_cell_setting 'orthorhombic'
loop_
_space_group_symop_operation_xyz
x,y,z
-x,-y,z
x,-y,-z
-x,y,-z
1/2+x,1/2+y,1/2+z
1/2-x,1/2-y,1/2+z
1/2+x,1/2-y,1/2-z
1/2-x,1/2+y,1/2-z
loop_
_atom_site_type_symbol
_atom_site_label
_atom_site_fract_x
_atom_site_fract_y
_atom_site_fract_z
Si Si1 0.489887 0.890191 0.782324
Si Si2 0.295294 0.311714 0.137599
Si Si3 0.500000 0.725412 0.500000
Si Si4 0.991025 0.946576 0.781260
O O1 0.546798 0.841495 0.684466
O O2 0.233854 0.916112 0.729879
O O3 0.729290 0.922313 0.732253
O O4 0.500000 0.883688 0.000000
O O5 0.424815 0.305664 0.331527
O O6 0.500000 0.331871 0.000000
O O7 0.218064 0.260750 0.064362
O O8 0.000000 0.000000 0.717284
O O9 0.000000 0.948098 0.000000
#
# Coordination Sequence:
#
# PCOD9331620 Si02
#       4
#     8   8   4   8
#     4  10  23  37  69 106 147 191 245 309 370 446
#     4  12  28  46  72 104 150 199 259 317 384 449
#     4  12  28  48  70 102 144 204 256 314 382 456
#     4   9  18  37  64 104 149 189 238 300 371 450
#
# _framework density 24.885556000000001
#
# number of rings (size 3 to 8) (size 9 to 14) (size 15 to 20)
#    0.000    1.429    2.857    0.857   14.000    3.429 
#    0.000    0.000    0.000    0.857    0.000    0.000 
#    0.000    0.000    0.000    0.000    0.000    0.000 
#
# Total GULP energy -78523.536676 kJ/mol
# GULP energy per Si atom -5608.824048 kJ/mol
# Density = 2.482892 g / cm^3
# Si number density = 24.885556 Si / 1000 Ang^3
#
#
#
# Elastic Constant Matrix: (Units=GPa)
#
#
# Indices 1 2 3 4 5 6 
#
# 1 182.2988 63.3269 49.3080 0.0001 0.0000 0.0000
# 2 63.3269 109.2795 42.9218 0.0007 0.0001 0.0000
# 3 49.3080 42.9218 150.2706 0.0009 0.0002 0.0000
# 4 0.0001 0.0007 0.0009 -4.6953 0.0002 0.0001
# 5 0.0000 0.0001 0.0002 0.0002 26.8864 0.0000
# 6 0.0000 0.0000 0.0000 0.0001 0.0000 44.4521
#
#
#
# Elastic Compliance Matrix: (Units=1/GPa)
#
#
# Indices 1 2 3 4 5 6 
#
# 1 0.007086 -0.003596 -0.001298 -0.000001 0.000000 0.000000
# 2 -0.003596 0.012133 -0.002285 0.000001 0.000000 0.000000
# 3 -0.001298 -0.002285 0.007733 0.000001 0.000000 0.000000
# 4 -0.000001 0.000001 0.000001 -0.212977 0.000002 0.000000
# 5 0.000000 0.000000 0.000000 0.000002 0.037193 0.000000
# 6 0.000000 0.000000 0.000000 0.000000 0.000000 0.022496
#
#
# Mechanical properties :
#
#
# Convention : Reuss Voigt Hill
#
# Bulk Modulus (GPa) = 79.41236 83.66248 81.53742
# Shear Modulus (GPa) = -46.39139 32.41479 -6.98830
#
# Velocity S-wave (km/s) = -4.32231 3.61301 -1.67758
# Velocity P-wave (km/s) = 2.65904 7.14821 5.39293
#
# Compressibility (1/GPa) = 0.01259250
#
# Stress axis : x y z
#
# Youngs Moduli (GPa) = 141.12578 82.42251 129.31148
#
# Poissons Ratio (x) = 0.29643 0.16782
# Poissons Ratio (y) = 0.50756 0.29552
# Poissons Ratio (z) = 0.18315 0.18836
#
# Static dielectric constant tensor:
#      x y z
#    x 1.966820 0.000000 0.000000 
#    y 0.000000 1.952980 0.000000 
#    z 0.000000 0.000000 1.963360 
# 
# From -- ./inp_files/5697.got.cif
#   From: 2010.05.17/outbox.cif.g08.bks.cpg/sg23_3_cif.got.tgz:5697.got - 2010.06.04 12:02:01.
