data_PCOD9331059
_publ_section_title
;
Structure prediction by ZEFSAII (Michael W. Deem and Ramdas Pophale) SiO2 
 PCOD9331059
Probable space group: I 2 2 2
;
_chemical_formula_sum "Si O2"
_cell_formula_units_Z 64
_cell_length_a 9.534578
_cell_length_b 11.875080
_cell_length_c 28.488247
_cell_angle_alpha 90.000000
_cell_angle_beta 90.000000
_cell_angle_gamma 90.000000
_cell_volume 3225.549760
_symmetry_space_group_name_H-M "I 2 2 2"
_symmetry_group_IT_number 23
_symmetry_cell_setting 'orthorhombic'
loop_
_space_group_symop_operation_xyz
x,y,z
-x,-y,z
x,-y,-z
-x,y,-z
1/2+x,1/2+y,1/2+z
1/2-x,1/2-y,1/2+z
1/2+x,1/2-y,1/2-z
1/2-x,1/2+y,1/2-z
loop_
_atom_site_type_symbol
_atom_site_label
_atom_site_fract_x
_atom_site_fract_y
_atom_site_fract_z
Si Si1 0.638916 0.561682 0.213955
Si Si2 0.070117 0.186888 0.806882
Si Si3 0.876565 0.585873 0.752894
Si Si4 0.831193 0.507099 0.945938
Si Si5 0.825946 0.745192 0.071381
Si Si6 0.834633 0.632822 0.489523
Si Si7 0.244160 0.296923 0.669356
Si Si8 0.838836 0.756284 0.909685
O O1 0.500000 0.500000 0.195630
O O2 0.617592 0.594549 0.269142
O O3 0.754716 0.466462 0.215991
O O4 0.691575 0.673340 0.186912
O O5 0.082956 0.299612 0.777210
O O6 0.153787 0.203549 0.855494
O O7 0.906156 0.180034 0.818065
O O8 0.839737 0.613340 0.699445
O O9 0.000000 0.500000 0.754565
O O10 0.793614 0.387968 0.922664
O O11 0.798105 0.624572 0.919740
O O12 0.000000 0.500000 0.948331
O O13 0.779020 0.500000 0.000000
O O14 0.744574 0.805169 0.113714
O O15 0.995532 0.763532 0.073832
O O16 0.762581 0.792817 0.023857
O O17 0.814456 0.500000 0.500000
O O18 0.770611 0.667696 0.438930
O O19 0.000000 0.657303 0.500000
#
# Coordination Sequence:
#
# PCOD9331059 Si02
#       8
#     8   8   8   8   8   8   8   8
#     4  11  22  40  61  85 130 168 205 260 320 376
#     4  10  22  38  62  94 122 158 219 263 305 387
#     4  11  22  39  63  87 126 171 206 254 323 378
#     4   9  16  31  61  91 119 144 189 257 315 362
#     4  10  21  40  66  93 120 157 214 259 309 380
#     4  11  25  46  61  86 129 169 204 258 318 383
#     4  10  22  39  60  96 121 160 216 264 312 379
#     4  10  21  39  67  94 117 160 213 260 316 371
#
# _framework density 19.841578999999999
#
# number of rings (size 3 to 8) (size 9 to 14) (size 15 to 20)
#    0.000    1.750    3.750    0.375    1.750    2.500 
#    6.750    1.250    0.000    0.000    0.000    0.000 
#    0.000    0.000    0.000    0.000    0.000    0.000 
#
# Total GULP energy -178388.917981 kJ/mol
# GULP energy per Si atom -5574.653687 kJ/mol
# Density = 1.979642 g / cm^3
# Si number density = 19.841579 Si / 1000 Ang^3
#
#
#
# Elastic Constant Matrix: (Units=GPa)
#
#
# Indices 1 2 3 4 5 6 
#
# 1 121.5787 37.5106 -23.9647 0.0000 0.0000 0.0000
# 2 37.5106 64.6786 -27.5238 0.0000 0.0000 0.0000
# 3 -23.9647 -27.5238 94.1050 0.0000 0.0000 0.0000
# 4 0.0000 0.0000 0.0000 20.9171 0.0000 0.0000
# 5 0.0000 0.0000 0.0000 0.0000 24.1799 0.0000
# 6 0.0000 0.0000 0.0000 0.0000 0.0000 259.3659
#
#
#
# Elastic Compliance Matrix: (Units=1/GPa)
#
#
# Indices 1 2 3 4 5 6 
#
# 1 0.010096 -0.005438 0.000981 0.000000 0.000000 0.000000
# 2 -0.005438 0.020588 0.004637 0.000000 0.000000 0.000000
# 3 0.000981 0.004637 0.012232 0.000000 0.000000 0.000000
# 4 0.000000 0.000000 0.000000 0.047808 0.000000 0.000000
# 5 0.000000 0.000000 0.000000 0.000000 0.041357 0.000000
# 6 0.000000 0.000000 0.000000 0.000000 0.000000 0.003856
#
#
# Mechanical properties :
#
#
# Convention : Reuss Voigt Hill
#
# Bulk Modulus (GPa) = 23.10804 28.04519 25.57662
# Shear Modulus (GPa) = 33.33264 80.51525 56.92394
#
# Velocity S-wave (km/s) = 4.10315 6.37708 5.36204
# Velocity P-wave (km/s) = 5.84118 8.26971 7.15917
#
# Compressibility (1/GPa) = 0.04327498
#
# Stress axis : x y z
#
# Youngs Moduli (GPa) = 99.04713 48.57194 81.75087
#
# Poissons Ratio (x) = 0.26414 -0.08016
# Poissons Ratio (y) = 0.53862 -0.37906
# Poissons Ratio (z) = -0.09712 -0.22521
#
# Static dielectric constant tensor:
#      x y z
#    x 1.675110 0.000000 0.000000 
#    y 0.000000 1.691920 0.000000 
#    z 0.000000 0.000000 1.571800 
# 
# From -- ./inp_files/14977.got.cif
#   From: 2010.05.17/outbox.cif.g08.bks.cpg/sg23_8_cif.got.tgz:14977.got - 2010.06.04 12:02:01.
