data_PCOD9331069
_publ_section_title
;
Structure prediction by ZEFSAII (Michael W. Deem and Ramdas Pophale) SiO2 
 PCOD9331069
Probable space group: I 2 2 2
;
_chemical_formula_sum "Si O2"
_cell_formula_units_Z 58
_cell_length_a 20.018490
_cell_length_b 7.913976
_cell_length_c 17.356767
_cell_angle_alpha 90.000000
_cell_angle_beta 90.000000
_cell_angle_gamma 90.000000
_cell_volume 2749.760555
_symmetry_space_group_name_H-M "I 2 2 2"
_symmetry_group_IT_number 23
_symmetry_cell_setting 'orthorhombic'
loop_
_space_group_symop_operation_xyz
x,y,z
-x,-y,z
x,-y,-z
-x,y,-z
1/2+x,1/2+y,1/2+z
1/2-x,1/2-y,1/2+z
1/2+x,1/2-y,1/2-z
1/2-x,1/2+y,1/2-z
loop_
_atom_site_type_symbol
_atom_site_label
_atom_site_fract_x
_atom_site_fract_y
_atom_site_fract_z
Si Si1 0.671900 0.119110 0.740253
Si Si2 0.813913 0.996927 0.204939
Si Si3 0.955271 0.832773 0.228188
Si Si4 0.500000 0.000000 0.000000
Si Si5 0.477186 0.695990 0.580073
Si Si6 0.153703 0.374344 0.933081
Si Si7 0.768573 0.364305 0.564725
Si Si8 0.404033 0.886400 0.137899
O O1 0.665349 0.321602 0.739901
O O2 0.656362 0.052247 0.653755
O O3 0.750846 0.082763 0.750901
O O4 0.625931 0.037010 0.806969
O O5 0.779809 0.035569 0.123159
O O6 0.880209 0.885088 0.203352
O O7 0.990725 0.734217 0.157979
O O8 0.947490 0.726091 0.304830
O O9 0.000000 0.000000 0.241820
O O10 0.551561 0.080717 0.062300
O O11 0.500000 0.500000 0.580295
O O12 0.500000 0.773916 0.500000
O O13 0.398754 0.721835 0.577253
O O14 0.224144 0.294885 0.959034
O O15 0.131974 0.500000 0.000000
O O16 0.787315 0.500000 0.500000
O O17 0.835028 0.304566 0.608068
#
# Coordination Sequence:
#
# PCOD9331069 Si02
#       8
#     8   8   8   2   8   8   8   8
#     4  10  22  43  68  98 125 174 213 281 319 397
#     4  10  21  39  69  98 129 164 224 259 331 387
#     4  11  23  42  69  98 130 179 215 271 327 403
#     4  12  28  48  66  96 126 176 216 284 336 412
#     4  10  23  40  61  94 137 181 214 248 316 409
#     4  11  25  39  62 100 138 165 217 269 322 374
#     4  10  21  41  66  96 126 175 215 266 322 396
#     4  11  26  45  71  91 129 168 230 270 340 393
#
# _framework density 21.092746999999999
#
# number of rings (size 3 to 8) (size 9 to 14) (size 15 to 20)
#    0.000    1.517    0.690    5.793    9.655    2.483 
#    0.000    1.724    0.000    0.000    0.000    0.000 
#    0.000    0.000    0.000    0.000    0.000    0.000 
#
# Total GULP energy -161765.561119 kJ/mol
# GULP energy per Si atom -5578.122797 kJ/mol
# Density = 2.104474 g / cm^3
# Si number density = 21.092747 Si / 1000 Ang^3
#
#
#
# Elastic Constant Matrix: (Units=GPa)
#
#
# Indices 1 2 3 4 5 6 
#
# 1 116.7052 16.8617 56.4322 0.0000 0.0000 0.0000
# 2 16.8617 41.6169 27.0547 0.0000 0.0000 0.0000
# 3 56.4322 27.0547 117.0568 0.0000 0.0000 0.0000
# 4 0.0000 0.0000 0.0000 25.1012 0.0000 0.0000
# 5 0.0000 0.0000 0.0000 0.0000 43.0367 0.0000
# 6 0.0000 0.0000 0.0000 0.0000 0.0000 9.3171
#
#
#
# Elastic Compliance Matrix: (Units=1/GPa)
#
#
# Indices 1 2 3 4 5 6 
#
# 1 0.011225 -0.001212 -0.005131 0.000000 0.000000 0.000000
# 2 -0.001212 0.028408 -0.005982 0.000000 0.000000 0.000000
# 3 -0.005131 -0.005982 0.012399 0.000000 0.000000 0.000000
# 4 0.000000 0.000000 0.000000 0.039839 0.000000 0.000000
# 5 0.000000 0.000000 0.000000 0.000000 0.023236 0.000000
# 6 0.000000 0.000000 0.000000 0.000000 0.000000 0.107330
#
#
# Mechanical properties :
#
#
# Convention : Reuss Voigt Hill
#
# Bulk Modulus (GPa) = 36.51970 52.89735 44.70852
# Shear Modulus (GPa) = 19.51491 27.15968 23.33729
#
# Velocity S-wave (km/s) = 3.04500 3.59225 3.32989
# Velocity P-wave (km/s) = 5.45107 6.50681 6.00220
#
# Compressibility (1/GPa) = 0.02738248
#
# Stress axis : x y z
#
# Youngs Moduli (GPa) = 89.08726 35.20092 80.65092
#
# Poissons Ratio (x) = 0.04267 0.41385
# Poissons Ratio (y) = 0.10799 0.48241
# Poissons Ratio (z) = 0.45713 0.21055
#
# Static dielectric constant tensor:
#      x y z
#    x 1.795960 0.000000 0.000000 
#    y 0.000000 1.801510 0.000000 
#    z 0.000000 0.000000 1.802600 
# 
# From -- ./inp_files/25089.got.cif
#   From: 2010.05.17/outbox.cif.g08.bks.cpg/sg23_13_cif.got.tgz:25089.got - 2010.06.04 12:02:01.
