data_PCOD9331384
_publ_section_title
;
Structure prediction by ZEFSAII (Michael W. Deem and Ramdas Pophale) SiO2 
 PCOD9331384
Probable space group: I 2 2 2
;
_chemical_formula_sum "Si O2"
_cell_formula_units_Z 48
_cell_length_a 11.807978
_cell_length_b 17.188938
_cell_length_c 9.075220
_cell_angle_alpha 90.000000
_cell_angle_beta 90.000000
_cell_angle_gamma 90.000000
_cell_volume 1841.966564
_symmetry_space_group_name_H-M "I 2 2 2"
_symmetry_group_IT_number 23
_symmetry_cell_setting 'orthorhombic'
loop_
_space_group_symop_operation_xyz
x,y,z
-x,-y,z
x,-y,-z
-x,y,-z
1/2+x,1/2+y,1/2+z
1/2-x,1/2-y,1/2+z
1/2+x,1/2-y,1/2-z
1/2-x,1/2+y,1/2-z
loop_
_atom_site_type_symbol
_atom_site_label
_atom_site_fract_x
_atom_site_fract_y
_atom_site_fract_z
Si Si1 0.372111 0.699539 0.541309
Si Si2 0.902135 0.095953 0.298058
Si Si3 0.601977 0.863512 0.404395
Si Si4 0.275698 0.073238 0.918847
Si Si5 0.557869 0.793253 0.841507
Si Si6 0.348803 0.379680 0.858101
O O1 0.500000 0.682856 0.500000
O O2 0.369907 0.676856 0.714768
O O3 0.349477 0.788598 0.503787
O O4 0.290851 0.634071 0.474076
O O5 0.818932 0.044195 0.197604
O O6 0.870015 0.102207 0.467503
O O7 0.036720 0.083159 0.288243
O O8 0.500000 0.902091 0.500000
O O9 0.535531 0.819508 0.275368
O O10 0.715936 0.902829 0.345685
O O11 0.364109 0.130371 0.845440
O O12 0.326711 0.000000 0.000000
O O13 0.500000 0.783312 0.000000
O O14 0.628295 0.712789 0.821345
#
# Coordination Sequence:
#
# PCOD9331384 Si02
#       6
#     8   8   8   8   8   8
#     4   9  18  33  54  89 126 169 215 279 346 408
#     4   9  19  36  58  93 127 175 221 291 356 409
#     4  11  22  34  59  98 143 173 220 282 368 440
#     4  10  22  40  59  88 135 183 233 287 336 425
#     4  12  22  36  59  95 136 184 226 290 366 422
#     4  11  18  36  62  93 142 174 221 301 359 433
#
# _framework density 26.059104999999999
#
# number of rings (size 3 to 8) (size 9 to 14) (size 15 to 20)
#    1.000    0.667    5.000    1.000    0.000    3.333 
#    0.000    0.000    0.000    1.000    0.000   31.500 
#    0.000    0.000    0.000    0.000    0.000    0.000 
#
# Total GULP energy -133839.065029 kJ/mol
# GULP energy per Si atom -5576.627710 kJ/mol
# Density = 2.599979 g / cm^3
# Si number density = 26.059105 Si / 1000 Ang^3
#
#
#
# Elastic Constant Matrix: (Units=GPa)
#
#
# Indices 1 2 3 4 5 6 
#
# 1 181.5542 43.8125 25.9523 0.0000 0.0000 0.0000
# 2 43.8125 100.8478 5.8910 0.0000 0.0000 0.0000
# 3 25.9523 5.8910 67.1631 0.0000 0.0000 0.0000
# 4 0.0000 0.0000 0.0000 41.7302 0.0000 0.0000
# 5 0.0000 0.0000 0.0000 0.0000 42.9111 0.0000
# 6 0.0000 0.0000 0.0000 0.0000 0.0000 41.6985
#
#
#
# Elastic Compliance Matrix: (Units=1/GPa)
#
#
# Indices 1 2 3 4 5 6 
#
# 1 0.006480 -0.002683 -0.002268 0.000000 0.000000 0.000000
# 2 -0.002683 0.011078 0.000065 0.000000 0.000000 0.000000
# 3 -0.002268 0.000065 0.015760 0.000000 0.000000 0.000000
# 4 0.000000 0.000000 0.000000 0.023963 0.000000 0.000000
# 5 0.000000 0.000000 0.000000 0.000000 0.023304 0.000000
# 6 0.000000 0.000000 0.000000 0.000000 0.000000 0.023982
#
#
# Mechanical properties :
#
#
# Convention : Reuss Voigt Hill
#
# Bulk Modulus (GPa) = 42.47191 55.65298 49.06244
# Shear Modulus (GPa) = 40.92099 43.52860 42.22480
#
# Velocity S-wave (km/s) = 3.96702 4.09146 4.02972
# Velocity P-wave (km/s) = 6.10874 6.61233 6.36551
#
# Compressibility (1/GPa) = 0.02354498
#
# Stress axis : x y z
#
# Youngs Moduli (GPa) = 154.33048 90.27277 63.45185
#
# Poissons Ratio (x) = 0.24216 0.14394
# Poissons Ratio (y) = 0.41399 -0.00412
# Poissons Ratio (z) = 0.35009 -0.00586
#
# Static dielectric constant tensor:
#      x y z
#    x 1.950470 0.000000 0.000000 
#    y 0.000000 2.109390 0.000000 
#    z 0.000000 0.000000 2.202520 
# 
# From -- ./inp_files/15741.got.cif
#   From: 2010.05.17/outbox.cif.g08.bks.cpg/sg23_8_cif.got.tgz:15741.got - 2010.06.04 12:02:01.
