data_PCOD9331973
_publ_section_title
;
Structure prediction by ZEFSAII (Michael W. Deem and Ramdas Pophale) SiO2 
 PCOD9331973
Probable space group: I 2 2 2
;
_chemical_formula_sum "Si O2"
_cell_formula_units_Z 58
_cell_length_a 23.036684
_cell_length_b 13.300623
_cell_length_c 9.023425
_cell_angle_alpha 90.000000
_cell_angle_beta 90.000000
_cell_angle_gamma 90.000000
_cell_volume 2764.797714
_symmetry_space_group_name_H-M "I 2 2 2"
_symmetry_group_IT_number 23
_symmetry_cell_setting 'orthorhombic'
loop_
_space_group_symop_operation_xyz
x,y,z
-x,-y,z
x,-y,-z
-x,y,-z
1/2+x,1/2+y,1/2+z
1/2-x,1/2-y,1/2+z
1/2+x,1/2-y,1/2-z
1/2-x,1/2+y,1/2-z
loop_
_atom_site_type_symbol
_atom_site_label
_atom_site_fract_x
_atom_site_fract_y
_atom_site_fract_z
Si Si1 0.498304 0.377927 0.820637
Si Si2 0.785822 0.355980 0.746606
Si Si3 0.685979 0.464350 0.833901
Si Si4 0.105157 0.913040 0.885964
Si Si5 0.114233 0.761689 0.298356
Si Si6 0.500000 0.000000 0.000000
Si Si7 0.309806 0.254376 0.455000
Si Si8 0.391884 0.104227 0.937919
O O1 0.500000 0.500000 0.812804
O O2 0.444075 0.355833 0.710805
O O3 0.554056 0.317752 0.761013
O O4 0.500000 0.355983 0.000000
O O5 0.749137 0.458439 0.759694
O O6 0.747412 0.291892 0.631301
O O7 0.788039 0.310810 0.909649
O O8 0.851157 0.361570 0.692276
O O9 0.643624 0.532061 0.738059
O O10 0.657893 0.353133 0.835815
O O11 0.689538 0.500000 0.000000
O O12 0.149717 0.843567 0.978115
O O13 0.082512 0.000000 0.000000
O O14 0.106165 0.687549 0.435086
O O15 0.146367 0.705137 0.163865
O O16 0.457526 0.069841 0.904256
O O17 0.365050 0.000000 0.000000
#
# Coordination Sequence:
#
# PCOD9331973 Si02
#       8
#     8   8   8   8   8   2   8   8
#     4  11  23  38  65 101 141 187 218 264 338 423
#     4  11  24  43  68  97 135 181 225 280 344 396
#     4  11  24  41  64 104 145 178 218 282 342 426
#     4  12  23  42  66  97 150 178 224 274 345 415
#     4  11  23  44  67 100 143 177 229 281 339 408
#     4   8  24  48  68  94 114 172 232 288 336 380
#     4  11  26  41  64 106 137 183 225 279 343 420
#     4  10  25  46  73  95 127 174 240 291 334 395
#
# _framework density 20.978027000000001
#
# number of rings (size 3 to 8) (size 9 to 14) (size 15 to 20)
#    0.414    0.690    4.138    2.483    8.690    3.034 
#    0.000    0.000    0.000    0.828    0.000    0.000 
#    0.000    0.000    0.000    0.000    0.000    0.000 
#
# Total GULP energy -161810.896465 kJ/mol
# GULP energy per Si atom -5579.686085 kJ/mol
# Density = 2.093028 g / cm^3
# Si number density = 20.978027 Si / 1000 Ang^3
#
#
#
# Elastic Constant Matrix: (Units=GPa)
#
#
# Indices 1 2 3 4 5 6 
#
# 1 154.6575 22.5804 64.1451 0.0000 0.0000 0.0000
# 2 22.5804 21.4879 -3.6759 0.0000 0.0000 0.0000
# 3 64.1451 -3.6759 94.0925 0.0000 0.0000 0.0000
# 4 0.0000 0.0000 0.0000 18.1317 0.0000 0.0000
# 5 0.0000 0.0000 0.0000 0.0000 16.5697 0.0000
# 6 0.0000 0.0000 0.0000 0.0000 0.0000 12.5242
#
#
#
# Elastic Compliance Matrix: (Units=1/GPa)
#
#
# Indices 1 2 3 4 5 6 
#
# 1 0.012278 -0.014431 -0.008934 0.000000 0.000000 0.000000
# 2 -0.014431 0.063812 0.012331 0.000000 0.000000 0.000000
# 3 -0.008934 0.012331 0.017200 0.000000 0.000000 0.000000
# 4 0.000000 0.000000 0.000000 0.055152 0.000000 0.000000
# 5 0.000000 0.000000 0.000000 0.000000 0.060351 0.000000
# 6 0.000000 0.000000 0.000000 0.000000 0.000000 0.079845
#
#
# Mechanical properties :
#
#
# Convention : Reuss Voigt Hill
#
# Bulk Modulus (GPa) = 14.04060 48.48191 31.26126
# Shear Modulus (GPa) = 14.94999 21.92436 18.43717
#
# Velocity S-wave (km/s) = 2.67245 3.23632 2.96781
# Velocity P-wave (km/s) = 4.02867 6.09311 5.16508
#
# Compressibility (1/GPa) = 0.07122201
#
# Stress axis : x y z
#
# Youngs Moduli (GPa) = 81.44374 15.67099 58.13870
#
# Poissons Ratio (x) = 0.22615 0.51943
# Poissons Ratio (y) = 1.17532 -0.71690
# Poissons Ratio (z) = 0.72764 -0.19324
#
# Static dielectric constant tensor:
#      x y z
#    x 1.805050 0.000000 0.000000 
#    y 0.000000 1.793020 0.000000 
#    z 0.000000 0.000000 1.767300 
# 
# From -- ./inp_files/12703.got.cif
#   From: 2010.05.17/outbox.cif.g08.bks.cpg/sg23_7_cif.got.tgz:12703.got - 2010.06.04 12:02:01.
