data_PCOD9331843
_publ_section_title
;
Structure prediction by ZEFSAII (Michael W. Deem and Ramdas Pophale) SiO2 
 PCOD9331843
Probable space group: I 2 2 2
;
_chemical_formula_sum "Si O2"
_cell_formula_units_Z 48
_cell_length_a 8.519381
_cell_length_b 9.339330
_cell_length_c 30.275334
_cell_angle_alpha 90.000000
_cell_angle_beta 90.000000
_cell_angle_gamma 90.000000
_cell_volume 2408.866352
_symmetry_space_group_name_H-M "I 2 2 2"
_symmetry_group_IT_number 23
_symmetry_cell_setting 'orthorhombic'
loop_
_space_group_symop_operation_xyz
x,y,z
-x,-y,z
x,-y,-z
-x,y,-z
1/2+x,1/2+y,1/2+z
1/2-x,1/2-y,1/2+z
1/2+x,1/2-y,1/2-z
1/2-x,1/2+y,1/2-z
loop_
_atom_site_type_symbol
_atom_site_label
_atom_site_fract_x
_atom_site_fract_y
_atom_site_fract_z
Si Si1 0.500000 0.000000 0.577905
Si Si2 0.000000 0.500000 0.570627
Si Si3 0.812023 0.983900 0.128755
Si Si4 0.324473 0.307358 0.288818
Si Si5 0.597112 0.817325 0.655871
Si Si6 0.749025 0.000000 0.500000
Si Si7 0.500000 0.250113 0.000000
Si Si8 0.169180 0.012537 0.296125
O O1 0.508224 0.864884 0.611197
O O2 0.354181 0.000724 0.544516
O O3 0.833771 0.490062 0.596401
O O4 0.991498 0.643186 0.541255
O O5 0.788075 0.090520 0.169825
O O6 0.799360 0.820371 0.144824
O O7 0.000000 0.000000 0.115018
O O8 0.485331 0.231352 0.304186
O O9 0.335370 0.408103 0.246338
O O10 0.206021 0.175434 0.283197
O O11 0.699066 0.950958 0.671669
O O12 0.853024 0.142862 0.500951
O O13 0.000000 0.000000 0.318223
#
# Coordination Sequence:
#
# PCOD9331843 Si02
#       8
#     4   4   8   8   8   4   4   8
#     4  11  22  44  73 102 126 184 229 270 360 417
#     4  11  24  44  69 100 140 172 225 280 348 417
#     4  10  24  42  67  97 134 183 226 289 337 410
#     4  11  23  44  62  94 137 180 234 284 343 406
#     4  11  23  44  65  96 138 173 233 285 332 422
#     4  10  24  44  76  96 138 172 218 286 352 426
#     4  10  24  46  64 104 134 168 212 286 342 422
#     4  12  24  39  65  95 131 185 225 287 346 405
#
# _framework density 19.926385
#
# number of rings (size 3 to 8) (size 9 to 14) (size 15 to 20)
#    0.000    1.167    1.667    4.500    7.000    0.000 
#    6.000    0.833    0.000    0.000    0.000    0.000 
#    0.000    0.000    0.000    0.000    0.000    0.000 
#
# Total GULP energy -133981.809627 kJ/mol
# GULP energy per Si atom -5582.575401 kJ/mol
# Density = 1.988103 g / cm^3
# Si number density = 19.926385 Si / 1000 Ang^3
#
#
#
# Elastic Constant Matrix: (Units=GPa)
#
#
# Indices 1 2 3 4 5 6 
#
# 1 93.4168 36.2453 66.0181 0.0000 0.0000 0.0000
# 2 36.2453 136.6022 33.8209 0.0000 0.0000 0.0000
# 3 66.0181 33.8209 87.6661 0.0000 0.0000 0.0000
# 4 0.0000 0.0000 0.0000 17.7943 0.0000 0.0000
# 5 0.0000 0.0000 0.0000 0.0000 9.7941 0.0000
# 6 0.0000 0.0000 0.0000 0.0000 0.0000 21.4954
#
#
#
# Elastic Compliance Matrix: (Units=1/GPa)
#
#
# Indices 1 2 3 4 5 6 
#
# 1 0.023386 -0.002040 -0.016824 0.000000 0.000000 0.000000
# 2 -0.002040 0.008271 -0.001655 0.000000 0.000000 0.000000
# 3 -0.016824 -0.001655 0.024715 0.000000 0.000000 0.000000
# 4 0.000000 0.000000 0.000000 0.056198 0.000000 0.000000
# 5 0.000000 0.000000 0.000000 0.000000 0.102102 0.000000
# 6 0.000000 0.000000 0.000000 0.000000 0.000000 0.046522
#
#
# Mechanical properties :
#
#
# Convention : Reuss Voigt Hill
#
# Bulk Modulus (GPa) = 65.21178 65.53931 65.37554
# Shear Modulus (GPa) = 16.26848 21.92348 19.09598
#
# Velocity S-wave (km/s) = 2.86042 3.32056 3.09904
# Velocity P-wave (km/s) = 6.61111 6.90388 6.75908
#
# Compressibility (1/GPa) = 0.01533465
#
# Stress axis : x y z
#
# Youngs Moduli (GPa) = 42.76117 120.89717 40.46123
#
# Poissons Ratio (x) = 0.24658 0.68072
# Poissons Ratio (y) = 0.08722 0.06697
# Poissons Ratio (z) = 0.71942 0.20010
#
# Static dielectric constant tensor:
#      x y z
#    x 1.762220 0.000000 0.000000 
#    y 0.000000 1.699660 0.000000 
#    z 0.000000 0.000000 1.672900 
# 
# From -- ./inp_files/13423.got.cif
#   From: 2010.05.17/outbox.cif.g08.bks.cpg/sg23_7_cif.got.tgz:13423.got - 2010.06.04 12:02:01.
