data_PCOD9331538
_publ_section_title
;
Structure prediction by ZEFSAII (Michael W. Deem and Ramdas Pophale) SiO2 
 PCOD9331538
Probable space group: I 2 2 2
;
_chemical_formula_sum "Si O2"
_cell_formula_units_Z 42
_cell_length_a 11.303163
_cell_length_b 8.417962
_cell_length_c 18.781391
_cell_angle_alpha 90.000000
_cell_angle_beta 90.000000
_cell_angle_gamma 90.000000
_cell_volume 1787.041777
_symmetry_space_group_name_H-M "I 2 2 2"
_symmetry_group_IT_number 23
_symmetry_cell_setting 'orthorhombic'
loop_
_space_group_symop_operation_xyz
x,y,z
-x,-y,z
x,-y,-z
-x,y,-z
1/2+x,1/2+y,1/2+z
1/2-x,1/2-y,1/2+z
1/2+x,1/2-y,1/2-z
1/2-x,1/2+y,1/2-z
loop_
_atom_site_type_symbol
_atom_site_label
_atom_site_fract_x
_atom_site_fract_y
_atom_site_fract_z
Si Si1 0.803942 0.141148 0.890320
Si Si2 0.324954 0.688009 0.008600
Si Si3 0.941278 0.172112 0.647597
Si Si4 0.500000 0.500000 0.500000
Si Si5 0.476269 0.181971 0.708863
Si Si6 0.705407 0.290423 0.637811
O O1 0.700196 0.227189 0.934625
O O2 0.857927 0.252892 0.829068
O O3 0.756362 0.973735 0.860638
O O4 0.910878 0.092666 0.945362
O O5 0.334017 0.500000 0.000000
O O6 0.427994 0.731104 0.065812
O O7 0.209404 0.732548 0.056170
O O8 0.990947 0.286911 0.707220
O O9 0.802117 0.170807 0.670281
O O10 0.000000 0.000000 0.649660
O O11 0.580698 0.281478 0.673361
O O12 0.500000 0.000000 0.691651
#
# Coordination Sequence:
#
# PCOD9331538 Si02
#       6
#     8   8   8   2   8   8
#     4  12  20  40  72 107 152 190 246 310 368 446
#     4  10  22  43  71 105 139 195 246 301 371 439
#     4  10  25  48  70 100 147 193 245 304 368 448
#     4  12  16  32  66 104 140 182 228 308 376 428
#     4  12  25  42  71 113 148 194 249 310 382 443
#     4  10  22  43  71 107 137 197 245 298 385 429
#
# _framework density 23.502528999999999
#
# number of rings (size 3 to 8) (size 9 to 14) (size 15 to 20)
#    1.143    0.000    3.810    2.286    0.000    3.429 
#    3.429    1.905    0.000    0.000    0.000    0.000 
#    0.000    0.000    0.000    0.000    0.000    0.000 
#
# Total GULP energy -117107.099706 kJ/mol
# GULP energy per Si atom -5576.528557 kJ/mol
# Density = 2.344904 g / cm^3
# Si number density = 23.502529 Si / 1000 Ang^3
#
#
#
# Elastic Constant Matrix: (Units=GPa)
#
#
# Indices 1 2 3 4 5 6 
#
# 1 74.9242 30.9417 33.7195 0.0000 0.0000 0.0000
# 2 30.9417 129.9609 55.5252 0.0000 0.0000 0.0000
# 3 33.7195 55.5252 132.8968 0.0000 0.0000 0.0000
# 4 0.0000 0.0000 0.0000 0.8715 0.0000 0.0000
# 5 0.0000 0.0000 0.0000 0.0000 22.3785 0.0000
# 6 0.0000 0.0000 0.0000 0.0000 0.0000 32.9312
#
#
#
# Elastic Compliance Matrix: (Units=1/GPa)
#
#
# Indices 1 2 3 4 5 6 
#
# 1 0.015697 -0.002478 -0.002947 0.000000 0.000000 0.000000
# 2 -0.002478 0.009758 -0.003448 0.000000 0.000000 0.000000
# 3 -0.002947 -0.003448 0.009713 0.000000 0.000000 0.000000
# 4 0.000000 0.000000 0.000000 1.147460 0.000000 0.000000
# 5 0.000000 0.000000 0.000000 0.000000 0.044686 0.000000
# 6 0.000000 0.000000 0.000000 0.000000 0.000000 0.030366
#
#
# Mechanical properties :
#
#
# Convention : Reuss Voigt Hill
#
# Bulk Modulus (GPa) = 57.40303 64.23939 60.82121
# Shear Modulus (GPa) = 3.90249 25.74261 14.82255
#
# Velocity S-wave (km/s) = 1.28998 3.31314 2.51406
# Velocity P-wave (km/s) = 5.16681 6.48291 5.86192
#
# Compressibility (1/GPa) = 0.01742068
#
# Stress axis : x y z
#
# Youngs Moduli (GPa) = 63.70817 102.48243 102.95342
#
# Poissons Ratio (x) = 0.25394 0.30344
# Poissons Ratio (y) = 0.15786 0.35500
# Poissons Ratio (z) = 0.18777 0.35338
#
# Static dielectric constant tensor:
#      x y z
#    x 2.056350 0.000000 0.000000 
#    y 0.000000 1.821590 0.000000 
#    z 0.000000 0.000000 1.964260 
# 
# From -- ./inp_files/26602.got.cif
#   From: 2010.05.17/outbox.cif.g08.bks.cpg/sg23_14_cif.got.tgz:26602.got - 2010.06.04 12:02:01.
