data_PCOD9331288
_publ_section_title
;
Structure prediction by ZEFSAII (Michael W. Deem and Ramdas Pophale) SiO2 
 PCOD9331288
Probable space group: I 2 2 2
;
_chemical_formula_sum "Si O2"
_cell_formula_units_Z 52
_cell_length_a 7.399828
_cell_length_b 30.114463
_cell_length_c 12.018665
_cell_angle_alpha 90.000000
_cell_angle_beta 90.000000
_cell_angle_gamma 90.000000
_cell_volume 2678.261501
_symmetry_space_group_name_H-M "I 2 2 2"
_symmetry_group_IT_number 23
_symmetry_cell_setting 'orthorhombic'
loop_
_space_group_symop_operation_xyz
x,y,z
-x,-y,z
x,-y,-z
-x,y,-z
1/2+x,1/2+y,1/2+z
1/2-x,1/2-y,1/2+z
1/2+x,1/2-y,1/2-z
1/2-x,1/2+y,1/2-z
loop_
_atom_site_type_symbol
_atom_site_label
_atom_site_fract_x
_atom_site_fract_y
_atom_site_fract_z
Si Si1 0.285563 0.698466 0.230616
Si Si2 0.000000 0.422218 0.000000
Si Si3 0.782587 0.114301 0.868967
Si Si4 0.782588 0.885699 0.868967
Si Si5 0.285561 0.698466 0.769384
Si Si6 0.500000 0.051046 0.248368
Si Si7 0.219051 0.844471 0.500000
O O1 0.224314 0.662803 0.322546
O O2 0.500001 0.694146 0.229299
O O3 0.250001 0.750000 0.250000
O O4 0.223107 0.682052 0.110032
O O5 0.176789 0.390749 1.000000
O O6 1.000000 0.447212 0.882514
O O7 0.672396 0.077728 0.799997
O O8 1.000000 0.109447 0.854052
O O9 0.743819 0.110718 0.000000
O O10 0.724313 0.837197 0.822545
O O11 0.672398 0.922272 0.799997
O O12 0.223106 0.682052 0.889968
O O13 0.500000 0.000000 0.211431
O O14 0.000000 0.849753 0.500000
#
# Coordination Sequence:
#
# PCOD9331288 Si02
#       7
#     8   4   8   8   8   8   8
#     4  10  22  37  59  91 127 166 214 260 310 374
#     4  12  23  42  72  88 130 172 210 268 331 370
#     4  10  23  44  65  92 130 169 209 263 320 385
#     4  10  23  44  65  92 130 169 209 263 320 385
#     4  10  22  37  59  91 127 166 214 260 310 374
#     4  12  26  44  69  99 124 162 218 273 329 386
#     4  10  22  41  61  89 126 174 212 261 319 379
#
# _framework density 19.415579000000001
#
# number of rings (size 3 to 8) (size 9 to 14) (size 15 to 20)
#    0.000    1.538    3.077    0.692    6.462    1.846 
#    0.000    1.538    0.000    2.769    0.000    0.000 
#    0.000    0.000    0.000    0.000    0.000    0.000 
#
# Total GULP energy -145163.781741 kJ/mol
# GULP energy per Si atom -5583.222375 kJ/mol
# Density = 1.937139 g / cm^3
# Si number density = 19.415579 Si / 1000 Ang^3
#
#
#
# Elastic Constant Matrix: (Units=GPa)
#
#
# Indices 1 2 3 4 5 6 
#
# 1 80.3091 33.0373 39.1606 0.0000 0.0000 0.0000
# 2 33.0373 156.1381 61.3860 -0.0002 0.0000 0.0000
# 3 39.1606 61.3860 146.7070 -0.0001 0.0000 0.0000
# 4 0.0000 -0.0002 -0.0001 12.9632 0.0001 0.0000
# 5 0.0000 0.0000 0.0000 0.0001 12.2647 0.0000
# 6 0.0000 0.0000 0.0000 0.0000 0.0000 19.5222
#
#
#
# Elastic Compliance Matrix: (Units=1/GPa)
#
#
# Indices 1 2 3 4 5 6 
#
# 1 0.014764 -0.001885 -0.003153 0.000000 0.000000 0.000000
# 2 -0.001885 0.007906 -0.002805 0.000000 0.000000 0.000000
# 3 -0.003153 -0.002805 0.008832 0.000000 0.000000 0.000000
# 4 0.000000 0.000000 0.000000 0.077141 -0.000001 0.000000
# 5 0.000000 0.000000 0.000000 -0.000001 0.081535 0.000000
# 6 0.000000 0.000000 0.000000 0.000000 0.000000 0.051224
#
#
# Mechanical properties :
#
#
# Convention : Reuss Voigt Hill
#
# Bulk Modulus (GPa) = 63.22019 72.25798 67.73909
# Shear Modulus (GPa) = 19.05786 25.58804 22.32295
#
# Velocity S-wave (km/s) = 3.13641 3.63425 3.39447
# Velocity P-wave (km/s) = 6.76375 7.40997 7.09422
#
# Compressibility (1/GPa) = 0.01581773
#
# Stress axis : x y z
#
# Youngs Moduli (GPa) = 67.73045 126.48346 113.23062
#
# Poissons Ratio (x) = 0.23837 0.35696
# Poissons Ratio (y) = 0.12764 0.31762
# Poissons Ratio (z) = 0.21352 0.35480
#
# Static dielectric constant tensor:
#      x y z
#    x 1.696120 0.000000 0.000000 
#    y 0.000000 1.674330 0.000000 
#    z 0.000000 0.000000 1.689770 
# 
# From -- ./inp_files/14851.got.cif
#   From: 2010.05.17/outbox.cif.g08.bks.cpg/sg23_8_cif.got.tgz:14851.got - 2010.06.04 12:02:01.
