data_PCOD9331149
_publ_section_title
;
Structure prediction by ZEFSAII (Michael W. Deem and Ramdas Pophale) SiO2 
 PCOD9331149
Probable space group: I 2 2 2
;
_chemical_formula_sum "Si O2"
_cell_formula_units_Z 58
_cell_length_a 14.712852
_cell_length_b 7.505181
_cell_length_c 23.647322
_cell_angle_alpha 90.000000
_cell_angle_beta 90.000000
_cell_angle_gamma 90.000000
_cell_volume 2611.199187
_symmetry_space_group_name_H-M "I 2 2 2"
_symmetry_group_IT_number 23
_symmetry_cell_setting 'orthorhombic'
loop_
_space_group_symop_operation_xyz
x,y,z
-x,-y,z
x,-y,-z
-x,y,-z
1/2+x,1/2+y,1/2+z
1/2-x,1/2-y,1/2+z
1/2+x,1/2-y,1/2-z
1/2-x,1/2+y,1/2-z
loop_
_atom_site_type_symbol
_atom_site_label
_atom_site_fract_x
_atom_site_fract_y
_atom_site_fract_z
Si Si1 0.281543 0.450206 0.399050
Si Si2 0.872574 0.296461 0.522538
Si Si3 0.752486 0.163587 0.424310
Si Si4 0.640817 0.685705 0.280276
Si Si5 0.536424 0.797229 0.673421
Si Si6 0.724684 0.053267 0.307679
Si Si7 0.925555 0.180643 0.951337
Si Si8 0.000000 0.000000 0.500000
O O1 0.206362 0.334876 0.431710
O O2 0.238770 0.646751 0.391490
O O3 0.319191 0.385167 0.339770
O O4 0.366151 0.499357 0.440770
O O5 0.896595 0.500000 0.500000
O O6 0.828247 0.183758 0.471069
O O7 0.949285 0.152094 0.539384
O O8 0.747228 0.024048 0.373943
O O9 0.655071 0.173727 0.455717
O O10 0.532652 0.694782 0.286201
O O11 0.685160 0.593970 0.226714
O O12 0.678676 0.885400 0.278640
O O13 0.641238 0.804017 0.692538
O O14 0.532026 0.718127 0.610409
O O15 0.500000 0.000000 0.669356
O O16 0.000000 0.190667 0.000000
#
# Coordination Sequence:
#
# PCOD9331149 Si02
#       8
#     8   8   8   8   8   8   8   2
#     4   9  21  38  62  96 133 175 208 270 338 411
#     4  10  22  44  64  97 132 170 220 277 355 395
#     4   8  19  39  61  91 135 167 213 268 328 410
#     4  11  22  38  64  89 125 171 222 281 335 396
#     4   9  21  39  58  93 136 169 222 275 331 408
#     4  10  21  41  61  89 124 175 222 276 342 394
#     4   9  19  36  63  99 140 178 216 253 338 436
#     4  12  26  40  76  86 126 172 238 284 324 400
#
# _framework density 22.212015999999998
#
# number of rings (size 3 to 8) (size 9 to 14) (size 15 to 20)
#    0.828    1.655    0.000    1.034    3.862    0.828 
#    4.966    1.379    0.000    4.138    0.000    0.000 
#    0.000    0.000    0.000    0.000    0.000    0.000 
#
# Total GULP energy -161511.618271 kJ/mol
# GULP energy per Si atom -5569.366147 kJ/mol
# Density = 2.216146 g / cm^3
# Si number density = 22.212016 Si / 1000 Ang^3
#
#
#
# Elastic Constant Matrix: (Units=GPa)
#
#
# Indices 1 2 3 4 5 6 
#
# 1 82.2198 37.2417 39.6571 0.0000 0.0000 0.0000
# 2 37.2417 90.1197 16.5777 0.0000 0.0000 0.0000
# 3 39.6571 16.5777 51.5279 0.0000 0.0000 0.0000
# 4 0.0000 0.0000 0.0000 26.7456 0.0000 0.0000
# 5 0.0000 0.0000 0.0000 0.0000 29.8885 0.0000
# 6 0.0000 0.0000 0.0000 0.0000 0.0000 28.5356
#
#
#
# Elastic Compliance Matrix: (Units=1/GPa)
#
#
# Indices 1 2 3 4 5 6 
#
# 1 0.022407 -0.006470 -0.015163 0.000000 0.000000 0.000000
# 2 -0.006470 0.013663 0.000584 0.000000 0.000000 0.000000
# 3 -0.015163 0.000584 0.030889 0.000000 0.000000 0.000000
# 4 0.000000 0.000000 0.000000 0.037389 0.000000 0.000000
# 5 0.000000 0.000000 0.000000 0.000000 0.033458 0.000000
# 6 0.000000 0.000000 0.000000 0.000000 0.000000 0.035044
#
#
# Mechanical properties :
#
#
# Convention : Reuss Voigt Hill
#
# Bulk Modulus (GPa) = 40.22564 45.64671 42.93617
# Shear Modulus (GPa) = 22.39789 25.72668 24.06228
#
# Velocity S-wave (km/s) = 3.17893 3.40697 3.29492
# Velocity P-wave (km/s) = 5.62346 6.00597 5.81786
#
# Compressibility (1/GPa) = 0.02485977
#
# Stress axis : x y z
#
# Youngs Moduli (GPa) = 44.62893 73.19176 32.37391
#
# Poissons Ratio (x) = 0.47357 0.49090
# Poissons Ratio (y) = 0.28876 -0.01891
# Poissons Ratio (z) = 0.67672 -0.04275
#
# Static dielectric constant tensor:
#      x y z
#    x 1.916120 0.000000 0.000000 
#    y 0.000000 1.961530 0.000000 
#    z 0.000000 0.000000 1.796880 
# 
# From -- ./inp_files/28525.got.cif
#   From: 2010.05.17/outbox.cif.g08.bks.cpg/sg23_15_cif.got.tgz:28525.got - 2010.06.04 12:02:01.
