data_PCOD9331886
_publ_section_title
;
Structure prediction by ZEFSAII (Michael W. Deem and Ramdas Pophale) SiO2 
 PCOD9331886
Probable space group: I 2 2 2
;
_chemical_formula_sum "Si O2"
_cell_formula_units_Z 34
_cell_length_a 22.357183
_cell_length_b 11.777032
_cell_length_c 5.360805
_cell_angle_alpha 90.000000
_cell_angle_beta 90.000000
_cell_angle_gamma 90.000000
_cell_volume 1411.506709
_symmetry_space_group_name_H-M "I 2 2 2"
_symmetry_group_IT_number 23
_symmetry_cell_setting 'orthorhombic'
loop_
_space_group_symop_operation_xyz
x,y,z
-x,-y,z
x,-y,-z
-x,y,-z
1/2+x,1/2+y,1/2+z
1/2-x,1/2-y,1/2+z
1/2+x,1/2-y,1/2-z
1/2-x,1/2+y,1/2-z
loop_
_atom_site_type_symbol
_atom_site_label
_atom_site_fract_x
_atom_site_fract_y
_atom_site_fract_z
Si Si1 0.802613 0.832460 0.681381
Si Si2 0.672948 0.870469 0.509148
Si Si3 0.898957 0.195342 0.697366
Si Si4 0.500000 0.000000 0.500000
Si Si5 0.000000 0.665291 0.500000
Si Si6 0.885525 0.000000 0.000000
O O1 0.733965 0.868488 0.669991
O O2 0.808089 0.700846 0.764993
O O3 0.835738 0.843404 0.419450
O O4 0.841608 0.912734 0.858072
O O5 0.619937 0.797042 0.621987
O O6 0.652521 0.000000 0.500000
O O7 0.942485 0.252438 0.501537
O O8 0.923577 0.082799 0.825599
O O9 0.502589 0.903447 0.264618
#
# Coordination Sequence:
#
# PCOD9331886 Si02
#       6
#     8   8   8   2   4   4
#     4  11  23  43  64 106 147 193 237 311 371 448
#     4  11  24  38  68 105 145 191 247 295 378 450
#     4  11  25  46  72 107 146 196 247 307 377 455
#     4  10  28  54  76 108 156 198 252 342 366 440
#     4  11  28  50  83 106 154 205 260 317 392 446
#     4  10  24  44  73 100 152 187 244 316 372 444
#
# _framework density 24.087734999999999
#
# number of rings (size 3 to 8) (size 9 to 14) (size 15 to 20)
#    0.000    1.176    2.353    2.118   11.529    2.824 
#    0.000    3.529    0.000    0.000    0.000    0.000 
#    0.000    0.000    0.000    0.000    0.000    0.000 
#
# Total GULP energy -94709.557915 kJ/mol
# GULP energy per Si atom -5571.150466 kJ/mol
# Density = 2.403291 g / cm^3
# Si number density = 24.087735 Si / 1000 Ang^3
#
#
#
# Elastic Constant Matrix: (Units=GPa)
#
#
# Indices 1 2 3 4 5 6 
#
# 1 53.9771 12.2114 5.7688 0.0000 0.0000 0.0000
# 2 12.2114 181.9979 54.9182 0.0000 0.0000 0.0000
# 3 5.7688 54.9182 112.2011 0.0000 0.0000 0.0000
# 4 0.0000 0.0000 0.0000 23.3912 0.0000 0.0000
# 5 0.0000 0.0000 0.0000 0.0000 18.8437 0.0000
# 6 0.0000 0.0000 0.0000 0.0000 0.0000 -14.9666
#
#
#
# Elastic Compliance Matrix: (Units=1/GPa)
#
#
# Indices 1 2 3 4 5 6 
#
# 1 0.018828 -0.001139 -0.000410 0.000000 0.000000 0.000000
# 2 -0.001139 0.006516 -0.003131 0.000000 0.000000 0.000000
# 3 -0.000410 -0.003131 0.010466 0.000000 0.000000 0.000000
# 4 0.000000 0.000000 0.000000 0.042751 0.000000 0.000000
# 5 0.000000 0.000000 0.000000 0.000000 0.053068 0.000000
# 6 0.000000 0.000000 0.000000 0.000000 0.000000 -0.066816
#
#
# Mechanical properties :
#
#
# Convention : Reuss Voigt Hill
#
# Bulk Modulus (GPa) = 37.80876 54.88590 46.34733
# Shear Modulus (GPa) = 60.24786 23.80550 42.02668
#
# Velocity S-wave (km/s) = 5.00661 3.14711 4.18153
# Velocity P-wave (km/s) = 7.01084 6.00342 6.52659
#
# Compressibility (1/GPa) = 0.02644890
#
# Stress axis : x y z
#
# Youngs Moduli (GPa) = 53.11234 153.47570 95.54771
#
# Poissons Ratio (x) = 0.17488 0.03920
# Poissons Ratio (y) = 0.06052 0.29912
# Poissons Ratio (z) = 0.02179 0.48047
#
# Static dielectric constant tensor:
#      x y z
#    x 1.950700 0.000000 0.000000 
#    y 0.000000 1.937690 0.000000 
#    z 0.000000 0.000000 2.039950 
# 
# From -- ./inp_files/4324.got.cif
#   From: 2010.05.17/outbox.cif.g08.bks.cpg/sg23_3_cif.got.tgz:4324.got - 2010.06.04 12:02:01.
