data_PCOD9331378
_publ_section_title
;
Structure prediction by ZEFSAII (Michael W. Deem and Ramdas Pophale) SiO2 
 PCOD9331378
Probable space group: I 2 2 2
;
_chemical_formula_sum "Si O2"
_cell_formula_units_Z 40
_cell_length_a 8.153797
_cell_length_b 13.347986
_cell_length_c 15.909727
_cell_angle_alpha 90.000000
_cell_angle_beta 90.000000
_cell_angle_gamma 90.000000
_cell_volume 1731.563270
_symmetry_space_group_name_H-M "I 2 2 2"
_symmetry_group_IT_number 23
_symmetry_cell_setting 'orthorhombic'
loop_
_space_group_symop_operation_xyz
x,y,z
-x,-y,z
x,-y,-z
-x,y,-z
1/2+x,1/2+y,1/2+z
1/2-x,1/2-y,1/2+z
1/2+x,1/2-y,1/2-z
1/2-x,1/2+y,1/2-z
loop_
_atom_site_type_symbol
_atom_site_label
_atom_site_fract_x
_atom_site_fract_y
_atom_site_fract_z
Si Si1 0.174389 0.857623 0.838652
Si Si2 0.678448 0.894478 0.459157
Si Si3 0.311808 0.818759 0.015384
Si Si4 0.172104 0.443610 0.322417
Si Si5 0.953196 0.681184 0.787471
O O1 0.332916 0.808527 0.791976
O O2 0.021964 0.788105 0.816116
O O3 0.191589 0.972018 0.808861
O O4 0.203273 0.857464 0.938372
O O5 0.500000 0.876227 0.500000
O O6 0.790645 0.800614 0.481432
O O7 0.641321 0.881282 0.359768
O O8 0.733745 0.000000 0.500000
O O9 0.273560 0.870599 0.103467
O O10 0.500000 0.843604 0.000000
O O11 0.000000 0.500000 0.347729
O O12 0.111608 0.382188 0.241919
#
# Coordination Sequence:
#
# PCOD9331378 Si02
#       5
#     8   8   8   8   8
#     4  11  24  39  69  94 137 170 225 270 333 386
#     4  11  26  44  68  90 133 177 222 262 330 399
#     4  12  22  43  68 101 130 171 224 278 324 396
#     4  10  22  39  71  95 132 173 220 269 338 393
#     4  11  23  44  66 101 127 181 222 271 326 402
#
# _framework density 23.100511999999998
#
# number of rings (size 3 to 8) (size 9 to 14) (size 15 to 20)
#    0.000    1.000    6.000    1.800    8.400    0.400 
#    0.000    4.000    4.400    0.000    0.000    0.000 
#    0.000    0.000    0.000    0.000    0.000    0.000 
#
# Total GULP energy -111798.067451 kJ/mol
# GULP energy per Si atom -5589.903373 kJ/mol
# Density = 2.304793 g / cm^3
# Si number density = 23.100512 Si / 1000 Ang^3
#
#
#
# Elastic Constant Matrix: (Units=GPa)
#
#
# Indices 1 2 3 4 5 6 
#
# 1 48.2330 32.7151 2.7047 0.0000 0.0000 0.0000
# 2 32.7151 126.2977 0.8838 0.0000 0.0000 0.0000
# 3 2.7047 0.8838 53.3935 0.0000 0.0000 0.0000
# 4 0.0000 0.0000 0.0000 33.3271 0.0000 0.0000
# 5 0.0000 0.0000 0.0000 0.0000 12.6084 0.0000
# 6 0.0000 0.0000 0.0000 0.0000 0.0000 22.9283
#
#
#
# Elastic Compliance Matrix: (Units=1/GPa)
#
#
# Indices 1 2 3 4 5 6 
#
# 1 0.025225 -0.006526 -0.001170 0.000000 0.000000 0.000000
# 2 -0.006526 0.009607 0.000172 0.000000 0.000000 0.000000
# 3 -0.001170 0.000172 0.018785 0.000000 0.000000 0.000000
# 4 0.000000 0.000000 0.000000 0.030006 0.000000 0.000000
# 5 0.000000 0.000000 0.000000 0.000000 0.079312 0.000000
# 6 0.000000 0.000000 0.000000 0.000000 0.000000 0.043614
#
#
# Mechanical properties :
#
#
# Convention : Reuss Voigt Hill
#
# Bulk Modulus (GPa) = 25.92764 33.39236 29.66000
# Shear Modulus (GPa) = 21.32622 26.54747 23.93685
#
# Velocity S-wave (km/s) = 3.04170 3.39369 3.22250
# Velocity P-wave (km/s) = 4.85635 5.46285 5.16851
#
# Compressibility (1/GPa) = 0.03856888
#
# Stress axis : x y z
#
# Youngs Moduli (GPa) = 39.64394 104.09104 53.23318
#
# Poissons Ratio (x) = 0.67927 0.06227
# Poissons Ratio (y) = 0.25871 -0.00913
# Poissons Ratio (z) = 0.04637 -0.01786
#
# Static dielectric constant tensor:
#      x y z
#    x 1.881590 0.000000 0.000000 
#    y 0.000000 1.895630 0.000000 
#    z 0.000000 0.000000 1.897880 
# 
# From -- ./inp_files/8223.got.cif
#   From: 2010.05.17/outbox.cif.g08.bks.cpg/sg23_5_cif.got.tgz:8223.got - 2010.06.04 12:02:01.
