data_PCOD9331633
_publ_section_title
;
Structure prediction by ZEFSAII (Michael W. Deem and Ramdas Pophale) SiO2 
 PCOD9331633
Probable space group: I 2 2 2
;
_chemical_formula_sum "Si O2"
_cell_formula_units_Z 40
_cell_length_a 9.072933
_cell_length_b 7.760942
_cell_length_c 25.908610
_cell_angle_alpha 90.000000
_cell_angle_beta 90.000000
_cell_angle_gamma 90.000000
_cell_volume 1824.341995
_symmetry_space_group_name_H-M "I 2 2 2"
_symmetry_group_IT_number 23
_symmetry_cell_setting 'orthorhombic'
loop_
_space_group_symop_operation_xyz
x,y,z
-x,-y,z
x,-y,-z
-x,y,-z
1/2+x,1/2+y,1/2+z
1/2-x,1/2-y,1/2+z
1/2+x,1/2-y,1/2-z
1/2-x,1/2+y,1/2-z
loop_
_atom_site_type_symbol
_atom_site_label
_atom_site_fract_x
_atom_site_fract_y
_atom_site_fract_z
Si Si1 0.664524 0.560782 0.305100
Si Si2 0.682278 0.118145 0.094344
Si Si3 0.327962 0.986794 0.587062
Si Si4 0.603727 0.227343 0.949583
Si Si5 0.836055 0.535643 0.794802
O O1 0.500000 0.500000 0.315724
O O2 0.770446 0.523364 0.352997
O O3 0.719261 0.504035 0.249157
O O4 0.667802 0.764132 0.304278
O O5 0.783058 0.284925 0.081996
O O6 0.520094 0.204900 0.095318
O O7 0.681388 0.959901 0.053985
O O8 0.316615 0.042912 0.647996
O O9 0.500000 0.000000 0.572331
O O10 0.216862 0.115843 0.557608
O O11 0.500000 0.248689 0.000000
O O12 0.000000 0.500000 0.774761
#
# Coordination Sequence:
#
# PCOD9331633 Si02
#       5
#     8   8   8   8   8
#     4  11  24  39  64  98 142 194 237 302 361 437
#     4  10  24  42  69 101 140 190 242 304 366 439
#     4  10  24  44  72 108 145 187 238 314 377 441
#     4  11  25  46  75 100 139 192 250 304 374 446
#     4  10  23  39  62  99 140 187 239 287 369 447
#
# _framework density 21.925712999999998
#
# number of rings (size 3 to 8) (size 9 to 14) (size 15 to 20)
#    0.000    1.600    0.000    3.000   14.000    5.600 
#    0.000    2.000    4.400    0.000    0.000    0.000 
#    0.000    0.000    0.000    0.000    0.000    0.000 
#
# Total GULP energy -111597.527128 kJ/mol
# GULP energy per Si atom -5579.876356 kJ/mol
# Density = 2.187581 g / cm^3
# Si number density = 21.925713 Si / 1000 Ang^3
#
#
#
# Elastic Constant Matrix: (Units=GPa)
#
#
# Indices 1 2 3 4 5 6 
#
# 1 132.6530 52.3818 66.7700 0.0000 0.0000 0.0000
# 2 52.3818 109.1983 35.0031 0.0000 0.0000 0.0000
# 3 66.7700 35.0031 105.2735 0.0000 0.0000 0.0000
# 4 0.0000 0.0000 0.0000 30.0212 0.0000 0.0000
# 5 0.0000 0.0000 0.0000 0.0000 43.2531 0.0000
# 6 0.0000 0.0000 0.0000 0.0000 0.0000 28.7508
#
#
#
# Elastic Compliance Matrix: (Units=1/GPa)
#
#
# Indices 1 2 3 4 5 6 
#
# 1 0.012351 -0.003821 -0.006563 0.000000 0.000000 0.000000
# 2 -0.003821 0.011432 -0.001378 0.000000 0.000000 0.000000
# 3 -0.006563 -0.001378 0.014120 0.000000 0.000000 0.000000
# 4 0.000000 0.000000 0.000000 0.033310 0.000000 0.000000
# 5 0.000000 0.000000 0.000000 0.000000 0.023120 0.000000
# 6 0.000000 0.000000 0.000000 0.000000 0.000000 0.034782
#
#
# Mechanical properties :
#
#
# Convention : Reuss Voigt Hill
#
# Bulk Modulus (GPa) = 69.54427 72.82608 71.18517
# Shear Modulus (GPa) = 31.76012 33.26967 32.51490
#
# Velocity S-wave (km/s) = 3.81009 3.89958 3.85510
# Velocity P-wave (km/s) = 7.15141 7.31865 7.23552
#
# Compressibility (1/GPa) = 0.01437933
#
# Stress axis : x y z
#
# Youngs Moduli (GPa) = 80.96726 87.47290 70.82250
#
# Poissons Ratio (x) = 0.33422 0.46481
# Poissons Ratio (y) = 0.30936 0.09758
# Poissons Ratio (z) = 0.53139 0.12052
#
# Static dielectric constant tensor:
#      x y z
#    x 1.821300 0.000000 0.000000 
#    y 0.000000 1.771850 0.000000 
#    z 0.000000 0.000000 2.140610 
# 
# From -- ./inp_files/27866.got.cif
#   From: 2010.05.17/outbox.cif.g08.bks.cpg/sg23_14_cif.got.tgz:27866.got - 2010.06.04 12:02:01.
