data_PCOD9331692
_publ_section_title
;
Structure prediction by ZEFSAII (Michael W. Deem and Ramdas Pophale) SiO2 
 PCOD9331692
Probable space group: I 2 2 2
;
_chemical_formula_sum "Si O2"
_cell_formula_units_Z 34
_cell_length_a 15.887001
_cell_length_b 12.622788
_cell_length_c 8.478091
_cell_angle_alpha 90.000000
_cell_angle_beta 90.000000
_cell_angle_gamma 90.000000
_cell_volume 1700.181495
_symmetry_space_group_name_H-M "I 2 2 2"
_symmetry_group_IT_number 23
_symmetry_cell_setting 'orthorhombic'
loop_
_space_group_symop_operation_xyz
x,y,z
-x,-y,z
x,-y,-z
-x,y,-z
1/2+x,1/2+y,1/2+z
1/2-x,1/2-y,1/2+z
1/2+x,1/2-y,1/2-z
1/2-x,1/2+y,1/2-z
loop_
_atom_site_type_symbol
_atom_site_label
_atom_site_fract_x
_atom_site_fract_y
_atom_site_fract_z
Si Si1 0.621499 0.196483 0.419718
Si Si2 0.445094 0.321858 0.860495
Si Si3 0.500000 0.000000 0.500000
Si Si4 0.795250 0.100596 0.425114
Si Si5 0.911505 0.903927 0.870018
O O1 0.599547 0.237992 0.247492
O O2 0.722373 0.186926 0.429815
O O3 0.595230 0.290537 0.540799
O O4 0.567449 0.088545 0.435714
O O5 0.506985 0.389128 0.745935
O O6 0.500000 0.272267 0.000000
O O7 0.373120 0.383429 0.955157
O O8 0.833729 0.085198 0.251265
O O9 0.749981 0.000000 0.500000
O O10 0.911320 0.000000 0.000000
#
# Coordination Sequence:
#
# PCOD9331692 Si02
#       5
#     8   8   2   8   8
#     4  12  23  45  67  93 133 176 224 263 328 395
#     4  10  23  42  66  97 131 169 218 277 327 387
#     4  12  24  44  72  88 122 184 218 258 316 396
#     4  11  24  40  65 100 137 169 216 277 328 385
#     4  11  24  42  70 100 130 176 219 272 335 390
#
# _framework density 19.997865000000001
#
# number of rings (size 3 to 8) (size 9 to 14) (size 15 to 20)
#    0.000    0.941    3.529    2.824    0.000   11.765 
#    0.000    2.941    0.000    0.000    0.000    0.000 
#    0.000    0.000    0.000    0.000    0.000    0.000 
#
# Total GULP energy -94649.671814 kJ/mol
# GULP energy per Si atom -5567.627754 kJ/mol
# Density = 1.995235 g / cm^3
# Si number density = 19.997865 Si / 1000 Ang^3
#
#
#
# Elastic Constant Matrix: (Units=GPa)
#
#
# Indices 1 2 3 4 5 6 
#
# 1 129.2756 28.3826 62.6596 0.0000 0.0000 0.0000
# 2 28.3826 110.8789 71.2076 0.0000 0.0000 0.0000
# 3 62.6596 71.2076 151.8891 0.0000 0.0000 0.0000
# 4 0.0000 0.0000 0.0000 25.7501 0.0000 0.0000
# 5 0.0000 0.0000 0.0000 0.0000 18.5935 0.0000
# 6 0.0000 0.0000 0.0000 0.0000 0.0000 25.8078
#
#
#
# Elastic Compliance Matrix: (Units=1/GPa)
#
#
# Indices 1 2 3 4 5 6 
#
# 1 0.009670 0.000124 -0.004047 0.000000 0.000000 0.000000
# 2 0.000124 0.012906 -0.006101 0.000000 0.000000 0.000000
# 3 -0.004047 -0.006101 0.011114 0.000000 0.000000 0.000000
# 4 0.000000 0.000000 0.000000 0.038835 0.000000 0.000000
# 5 0.000000 0.000000 0.000000 0.000000 0.053782 0.000000
# 6 0.000000 0.000000 0.000000 0.000000 0.000000 0.038748
#
#
# Mechanical properties :
#
#
# Convention : Reuss Voigt Hill
#
# Bulk Modulus (GPa) = 73.31525 79.61591 76.46558
# Shear Modulus (GPa) = 26.36433 29.34988 27.85711
#
# Velocity S-wave (km/s) = 3.63486 3.83515 3.73635
# Velocity P-wave (km/s) = 7.37275 7.71426 7.54543
#
# Compressibility (1/GPa) = 0.01363973
#
# Stress axis : x y z
#
# Youngs Moduli (GPa) = 103.41363 77.48627 89.97824
#
# Poissons Ratio (x) = -0.00960 0.36417
# Poissons Ratio (y) = -0.01281 0.54899
# Poissons Ratio (z) = 0.41854 0.47277
#
# Static dielectric constant tensor:
#      x y z
#    x 1.758070 0.000000 0.000000 
#    y 0.000000 1.767680 0.000000 
#    z 0.000000 0.000000 1.702880 
# 
# From -- ./inp_files/9299.got.cif
#   From: 2010.05.17/outbox.cif.g08.bks.cpg/sg23_5_cif.got.tgz:9299.got - 2010.06.04 12:02:01.
