data_PCOD9331849
_publ_section_title
;
Structure prediction by ZEFSAII (Michael W. Deem and Ramdas Pophale) SiO2 
 PCOD9331849
Probable space group: I 2 2 2
;
_chemical_formula_sum "Si O2"
_cell_formula_units_Z 32
_cell_length_a 9.666286
_cell_length_b 6.336971
_cell_length_c 21.568311
_cell_angle_alpha 90.000000
_cell_angle_beta 90.000000
_cell_angle_gamma 90.000000
_cell_volume 1321.166331
_symmetry_space_group_name_H-M "I 2 2 2"
_symmetry_group_IT_number 23
_symmetry_cell_setting 'orthorhombic'
loop_
_space_group_symop_operation_xyz
x,y,z
-x,-y,z
x,-y,-z
-x,y,-z
1/2+x,1/2+y,1/2+z
1/2-x,1/2-y,1/2+z
1/2+x,1/2-y,1/2-z
1/2-x,1/2+y,1/2-z
loop_
_atom_site_type_symbol
_atom_site_label
_atom_site_fract_x
_atom_site_fract_y
_atom_site_fract_z
Si Si1 0.351161 0.759861 0.389119
Si Si2 0.648721 0.119249 0.085314
Si Si3 0.349466 0.446091 0.815336
Si Si4 0.500000 0.500000 0.306163
Si Si5 0.755878 0.500000 0.000000
O O1 0.269113 0.555472 0.415190
O O2 0.257342 0.885529 0.340068
O O3 0.488728 0.695725 0.352697
O O4 0.353235 0.906102 0.447762
O O5 0.669974 0.220155 0.153824
O O6 0.669496 0.310690 0.035134
O O7 0.500000 0.000000 0.079350
O O8 0.500000 0.500000 0.843397
O O9 0.374275 0.471415 0.742134
#
# Coordination Sequence:
#
# PCOD9331849 Si02
#       5
#     8   8   8   4   4
#     4  11  23  44  67 102 144 187 235 297 366 427
#     4  11  21  42  69  99 138 185 233 308 357 418
#     4   9  21  41  64 106 138 170 240 289 362 441
#     4  10  24  42  71 103 138 192 226 292 374 430
#     4  10  26  43  65 104 140 188 251 293 344 438
#
# _framework density 24.221022999999999
#
# number of rings (size 3 to 8) (size 9 to 14) (size 15 to 20)
#    0.750    1.000    2.500    0.750    3.500    3.000 
#    0.000   11.250    0.000    0.000    0.000    0.000 
#    0.000    0.000    0.000    0.000    0.000    0.000 
#
# Total GULP energy -89245.534706 kJ/mol
# GULP energy per Si atom -5577.845919 kJ/mol
# Density = 2.416590 g / cm^3
# Si number density = 24.221023 Si / 1000 Ang^3
#
#
#
# Elastic Constant Matrix: (Units=GPa)
#
#
# Indices 1 2 3 4 5 6 
#
# 1 83.3954 54.5673 56.7084 0.0000 0.0000 0.0000
# 2 54.5673 135.0452 85.3359 0.0000 0.0000 0.0000
# 3 56.7084 85.3359 197.1768 0.0000 0.0000 0.0000
# 4 0.0000 0.0000 0.0000 38.7658 0.0000 0.0000
# 5 0.0000 0.0000 0.0000 0.0000 18.2207 0.0000
# 6 0.0000 0.0000 0.0000 0.0000 0.0000 35.9490
#
#
#
# Elastic Compliance Matrix: (Units=1/GPa)
#
#
# Indices 1 2 3 4 5 6 
#
# 1 0.017272 -0.005286 -0.002680 0.000000 0.000000 0.000000
# 2 -0.005286 0.011810 -0.003591 0.000000 0.000000 0.000000
# 3 -0.002680 -0.003591 0.007396 0.000000 0.000000 0.000000
# 4 0.000000 0.000000 0.000000 0.025796 0.000000 0.000000
# 5 0.000000 0.000000 0.000000 0.000000 0.054882 0.000000
# 6 0.000000 0.000000 0.000000 0.000000 0.000000 0.027817
#
#
# Mechanical properties :
#
#
# Convention : Reuss Voigt Hill
#
# Bulk Modulus (GPa) = 74.82099 89.87116 82.34607
# Shear Modulus (GPa) = 28.97850 33.18750 31.08300
#
# Velocity S-wave (km/s) = 3.46268 3.70563 3.58621
# Velocity P-wave (km/s) = 6.85163 7.44943 7.15678
#
# Compressibility (1/GPa) = 0.01336523
#
# Stress axis : x y z
#
# Youngs Moduli (GPa) = 57.89781 84.67522 135.19929
#
# Poissons Ratio (x) = 0.44755 0.36232
# Poissons Ratio (y) = 0.30602 0.48551
# Poissons Ratio (z) = 0.15516 0.30407
#
# Static dielectric constant tensor:
#      x y z
#    x 1.926440 0.000000 0.000000 
#    y 0.000000 1.910840 0.000000 
#    z 0.000000 0.000000 1.942360 
# 
# From -- ./inp_files/28173.got.cif
#   From: 2010.05.17/outbox.cif.g08.bks.cpg/sg23_15_cif.got.tgz:28173.got - 2010.06.04 12:02:01.
