data_PCOD9331393
_publ_section_title
;
Structure prediction by ZEFSAII (Michael W. Deem and Ramdas Pophale) SiO2 
 PCOD9331393
Probable space group: I 2 2 2
;
_chemical_formula_sum "Si O2"
_cell_formula_units_Z 64
_cell_length_a 15.383489
_cell_length_b 12.357559
_cell_length_c 17.063912
_cell_angle_alpha 90.000000
_cell_angle_beta 90.000000
_cell_angle_gamma 90.000000
_cell_volume 3243.890163
_symmetry_space_group_name_H-M "I 2 2 2"
_symmetry_group_IT_number 23
_symmetry_cell_setting 'orthorhombic'
loop_
_space_group_symop_operation_xyz
x,y,z
-x,-y,z
x,-y,-z
-x,y,-z
1/2+x,1/2+y,1/2+z
1/2-x,1/2-y,1/2+z
1/2+x,1/2-y,1/2-z
1/2-x,1/2+y,1/2-z
loop_
_atom_site_type_symbol
_atom_site_label
_atom_site_fract_x
_atom_site_fract_y
_atom_site_fract_z
Si Si1 0.685247 0.258801 0.842287
Si Si2 0.811473 0.110713 0.086613
Si Si3 0.960690 0.645422 0.586530
Si Si4 0.538223 0.828036 0.587444
Si Si5 0.810292 0.548953 0.165879
Si Si6 0.131020 0.322148 0.826455
Si Si7 0.376183 0.926263 0.156400
Si Si8 0.848361 0.124706 0.902702
O O1 0.611063 0.238768 0.906752
O O2 0.723491 0.379299 0.836832
O O3 0.643328 0.217668 0.761655
O O4 0.768829 0.182362 0.858242
O O5 0.851502 0.218718 0.120662
O O6 0.710998 0.105043 0.111115
O O7 0.856242 0.001140 0.119687
O O8 0.821686 0.117942 0.993731
O O9 0.910359 0.538277 0.617771
O O10 0.000000 0.632330 0.500000
O O11 0.044776 0.656249 0.642267
O O12 0.500000 0.839376 0.500000
O O13 0.623141 0.900598 0.602666
O O14 0.465076 0.860624 0.650155
O O15 0.569344 0.704140 0.602231
O O16 0.804054 0.420779 0.155227
O O17 0.852304 0.562626 0.252605
#
# Coordination Sequence:
#
# PCOD9331393 Si02
#       8
#     8   8   8   8   8   8   8   8
#     4  11  22  42  62  93 135 165 216 273 335 394
#     4  11  21  38  67  93 134 165 210 264 330 404
#     4  11  22  35  64  97 132 165 214 283 339 387
#     4  11  24  43  60  94 127 171 218 267 318 390
#     4  11  24  39  65  88 132 176 218 271 319 400
#     4  12  23  40  63  93 126 176 216 263 330 392
#     4  11  20  36  60 101 126 166 209 279 326 388
#     4  10  22  40  63  94 131 165 206 271 331 393
#
# _framework density 19.729398
#
# number of rings (size 3 to 8) (size 9 to 14) (size 15 to 20)
#    0.000    1.000    5.000    2.625    3.500    1.500 
#    0.000    0.000    0.000    0.750    0.000    1.750 
#    0.000    0.000    0.000    0.000    0.000    0.000 
#
# Total GULP energy -178758.005580 kJ/mol
# GULP energy per Si atom -5586.187674 kJ/mol
# Density = 1.968449 g / cm^3
# Si number density = 19.729398 Si / 1000 Ang^3
#
#
#
# Elastic Constant Matrix: (Units=GPa)
#
#
# Indices 1 2 3 4 5 6 
#
# 1 66.9465 21.7138 26.7792 0.0000 0.0000 0.0000
# 2 21.7138 91.0846 14.6941 0.0000 0.0000 0.0000
# 3 26.7792 14.6941 68.7169 0.0000 0.0000 0.0000
# 4 0.0000 0.0000 0.0000 14.4714 0.0000 0.0000
# 5 0.0000 0.0000 0.0000 0.0000 30.1139 0.0000
# 6 0.0000 0.0000 0.0000 0.0000 0.0000 6.6638
#
#
#
# Elastic Compliance Matrix: (Units=1/GPa)
#
#
# Indices 1 2 3 4 5 6 
#
# 1 0.018655 -0.003391 -0.006545 0.000000 0.000000 0.000000
# 2 -0.003391 0.011988 -0.001242 0.000000 0.000000 0.000000
# 3 -0.006545 -0.001242 0.017369 0.000000 0.000000 0.000000
# 4 0.000000 0.000000 0.000000 0.069102 0.000000 0.000000
# 5 0.000000 0.000000 0.000000 0.000000 0.033207 0.000000
# 6 0.000000 0.000000 0.000000 0.000000 0.000000 0.150064
#
#
# Mechanical properties :
#
#
# Convention : Reuss Voigt Hill
#
# Bulk Modulus (GPa) = 38.97805 39.23582 39.10693
# Shear Modulus (GPa) = 15.09242 21.15388 18.12315
#
# Velocity S-wave (km/s) = 2.76881 3.27800 3.03411
# Velocity P-wave (km/s) = 5.47914 5.85297 5.66913
#
# Compressibility (1/GPa) = 0.02565547
#
# Stress axis : x y z
#
# Youngs Moduli (GPa) = 53.60408 83.41941 57.57541
#
# Poissons Ratio (x) = 0.28291 0.37682
# Poissons Ratio (y) = 0.18180 0.07149
# Poissons Ratio (z) = 0.35083 0.10358
#
# Static dielectric constant tensor:
#      x y z
#    x 1.717930 0.000000 0.000000 
#    y 0.000000 1.754740 0.000000 
#    z 0.000000 0.000000 1.926120 
# 
# From -- ./inp_files/24866.got.cif
#   From: 2010.05.17/outbox.cif.g08.bks.cpg/sg23_13_cif.got.tgz:24866.got - 2010.06.04 12:02:01.
