data_PCOD9331911
_publ_section_title
;
Structure prediction by ZEFSAII (Michael W. Deem and Ramdas Pophale) SiO2 
 PCOD9331911
Probable space group: I 2 2 2
;
_chemical_formula_sum "Si O2"
_cell_formula_units_Z 48
_cell_length_a 13.783795
_cell_length_b 17.092089
_cell_length_c 9.029934
_cell_angle_alpha 90.000000
_cell_angle_beta 90.000000
_cell_angle_gamma 90.000000
_cell_volume 2127.396924
_symmetry_space_group_name_H-M "I 2 2 2"
_symmetry_group_IT_number 23
_symmetry_cell_setting 'orthorhombic'
loop_
_space_group_symop_operation_xyz
x,y,z
-x,-y,z
x,-y,-z
-x,y,-z
1/2+x,1/2+y,1/2+z
1/2-x,1/2-y,1/2+z
1/2+x,1/2-y,1/2-z
1/2-x,1/2+y,1/2-z
loop_
_atom_site_type_symbol
_atom_site_label
_atom_site_fract_x
_atom_site_fract_y
_atom_site_fract_z
Si Si1 0.742676 0.320500 0.425796
Si Si2 0.313178 0.590611 0.960209
Si Si3 0.904396 0.623907 0.402804
Si Si4 0.402708 0.087011 0.564499
Si Si5 0.138301 0.802714 0.227404
Si Si6 0.083784 0.194119 0.310406
O O1 0.812170 0.387998 0.490639
O O2 0.813072 0.259755 0.339687
O O3 0.682856 0.289520 0.567097
O O4 0.660424 0.338550 0.307287
O O5 0.201923 0.618428 0.987375
O O6 0.329797 0.612293 0.789228
O O7 0.320700 0.500000 0.000000
O O8 0.393384 0.639581 0.049386
O O9 0.906661 0.583719 0.242686
O O10 0.896461 0.716230 0.358265
O O11 0.000000 0.610141 0.500000
O O12 0.500000 0.127496 0.500000
O O13 0.403337 0.000000 0.500000
O O14 0.022975 0.802147 0.241921
#
# Coordination Sequence:
#
# PCOD9331911 Si02
#       6
#     8   8   8   8   8   8
#     4  12  23  41  65  98 139 174 220 297 344 408
#     4  11  23  43  70  95 136 187 232 282 344 428
#     4  12  23  40  70 107 137 175 232 296 352 414
#     4  10  24  46  71 100 136 185 235 285 358 439
#     4  12  23  42  64 100 136 179 233 284 354 411
#     4  12  25  41  65 103 139 178 232 290 345 415
#
# _framework density 22.562785000000002
#
# number of rings (size 3 to 8) (size 9 to 14) (size 15 to 20)
#    0.000    0.500    6.667    1.000    2.333    4.000 
#    0.000    2.500    0.000    2.000    0.000    0.000 
#    0.000    0.000    0.000    0.000    0.000    0.000 
#
# Total GULP energy -134096.178242 kJ/mol
# GULP energy per Si atom -5587.340760 kJ/mol
# Density = 2.251143 g / cm^3
# Si number density = 22.562785 Si / 1000 Ang^3
#
#
#
# Elastic Constant Matrix: (Units=GPa)
#
#
# Indices 1 2 3 4 5 6 
#
# 1 181.4417 -9.5300 32.8036 0.0000 0.0000 0.0000
# 2 -9.5300 54.9461 14.2445 0.0000 0.0000 0.0000
# 3 32.8036 14.2445 130.3892 0.0000 0.0000 0.0000
# 4 0.0000 0.0000 0.0000 28.2708 0.0000 0.0000
# 5 0.0000 0.0000 0.0000 0.0000 42.5213 0.0000
# 6 0.0000 0.0000 0.0000 0.0000 0.0000 13.8267
#
#
#
# Elastic Compliance Matrix: (Units=1/GPa)
#
#
# Indices 1 2 3 4 5 6 
#
# 1 0.005883 0.001445 -0.001638 0.000000 0.000000 0.000000
# 2 0.001445 0.019085 -0.002449 0.000000 0.000000 0.000000
# 3 -0.001638 -0.002449 0.008349 0.000000 0.000000 0.000000
# 4 0.000000 0.000000 0.000000 0.035372 0.000000 0.000000
# 5 0.000000 0.000000 0.000000 0.000000 0.023518 0.000000
# 6 0.000000 0.000000 0.000000 0.000000 0.000000 0.072324
#
#
# Mechanical properties :
#
#
# Convention : Reuss Voigt Hill
#
# Bulk Modulus (GPa) = 35.67029 49.09035 42.38032
# Shear Modulus (GPa) = 27.90815 38.87434 33.39124
#
# Velocity S-wave (km/s) = 3.52079 4.15533 3.85115
# Velocity P-wave (km/s) = 5.68961 6.69529 6.21283
#
# Compressibility (1/GPa) = 0.02803453
#
# Stress axis : x y z
#
# Youngs Moduli (GPa) = 169.96787 52.39695 119.77566
#
# Poissons Ratio (x) = -0.07572 0.19620
# Poissons Ratio (y) = -0.24562 0.29327
# Poissons Ratio (z) = 0.27842 0.12830
#
# Static dielectric constant tensor:
#      x y z
#    x 1.929000 0.000000 0.000000 
#    y 0.000000 1.848170 0.000000 
#    z 0.000000 0.000000 1.878790 
# 
# From -- ./inp_files/9935.got.cif
#   From: 2010.05.17/outbox.cif.g08.bks.cpg/sg23_5_cif.got.tgz:9935.got - 2010.06.04 12:02:01.
