data_PCOD9331156
_publ_section_title
;
Structure prediction by ZEFSAII (Michael W. Deem and Ramdas Pophale) SiO2 
 PCOD9331156
Probable space group: I 2 2 2
;
_chemical_formula_sum "Si O2"
_cell_formula_units_Z 64
_cell_length_a 29.992692
_cell_length_b 11.235233
_cell_length_c 9.544252
_cell_angle_alpha 90.000000
_cell_angle_beta 90.000000
_cell_angle_gamma 90.000000
_cell_volume 3216.173200
_symmetry_space_group_name_H-M "I 2 2 2"
_symmetry_group_IT_number 23
_symmetry_cell_setting 'orthorhombic'
loop_
_space_group_symop_operation_xyz
x,y,z
-x,-y,z
x,-y,-z
-x,y,-z
1/2+x,1/2+y,1/2+z
1/2-x,1/2-y,1/2+z
1/2+x,1/2-y,1/2-z
1/2-x,1/2+y,1/2-z
loop_
_atom_site_type_symbol
_atom_site_label
_atom_site_fract_x
_atom_site_fract_y
_atom_site_fract_z
Si Si1 0.360714 0.915319 0.120511
Si Si2 0.927835 0.793971 0.435615
Si Si3 0.272061 0.128513 0.444267
Si Si4 0.083638 0.164781 0.916537
Si Si5 0.015084 0.136117 0.696926
Si Si6 0.796227 0.231482 0.779611
Si Si7 0.374483 0.081616 0.368719
Si Si8 0.380661 0.427682 0.699503
O O1 0.397332 0.822975 0.062034
O O2 0.324409 0.836393 0.203215
O O3 0.382713 0.004889 0.231203
O O4 0.341260 0.000000 0.000000
O O5 0.945676 0.833082 0.586842
O O6 0.899274 0.893010 0.351721
O O7 0.973062 0.782690 0.343628
O O8 0.240400 0.182264 0.326490
O O9 0.276488 0.215180 0.577771
O O10 0.321608 0.107941 0.382892
O O11 0.255798 0.000000 0.500000
O O12 0.034923 0.147686 0.851249
O O13 0.100353 0.294839 0.879056
O O14 0.114304 0.065092 0.839760
O O15 0.089329 0.138582 0.080998
O O16 0.000000 0.000000 0.673960
O O17 0.831685 0.127445 0.813603
O O18 0.386805 0.000000 0.500000
#
# Coordination Sequence:
#
# PCOD9331156 Si02
#       8
#     8   8   8   8   8   8   8   8
#     4  11  23  42  66  97 125 182 228 265 324 410
#     4  10  21  41  63  91 135 166 212 266 329 382
#     4  11  24  45  67  98 134 179 218 282 348 396
#     4  11  22  39  68  96 125 174 217 264 331 391
#     4  11  22  40  65  99 133 171 206 273 341 386
#     4  11  24  45  67  97 136 172 221 283 335 404
#     4  11  21  45  68  85 133 179 217 270 337 391
#     4  10  22  41  60  98 132 161 216 273 319 396
#
# _framework density 19.899426999999999
#
# number of rings (size 3 to 8) (size 9 to 14) (size 15 to 20)
#    0.000    1.250    5.000    2.250    1.750    1.500 
#    4.500    4.375    0.000    0.750    0.000    0.000 
#    0.000    0.000    0.000    0.000    0.000    0.000 
#
# Total GULP energy -178816.863025 kJ/mol
# GULP energy per Si atom -5588.026970 kJ/mol
# Density = 1.985413 g / cm^3
# Si number density = 19.899427 Si / 1000 Ang^3
#
#
#
# Elastic Constant Matrix: (Units=GPa)
#
#
# Indices 1 2 3 4 5 6 
#
# 1 53.2647 22.1207 30.0013 0.0000 0.0000 0.0000
# 2 22.1207 98.5704 12.9555 0.0000 0.0000 0.0000
# 3 30.0013 12.9555 66.0307 0.0000 0.0000 0.0000
# 4 0.0000 0.0000 0.0000 30.5156 0.0000 0.0000
# 5 0.0000 0.0000 0.0000 0.0000 26.8282 0.0000
# 6 0.0000 0.0000 0.0000 0.0000 0.0000 1.0369
#
#
#
# Elastic Compliance Matrix: (Units=1/GPa)
#
#
# Indices 1 2 3 4 5 6 
#
# 1 0.027108 -0.004583 -0.011418 0.000000 0.000000 0.000000
# 2 -0.004583 0.011188 -0.000113 0.000000 0.000000 0.000000
# 3 -0.011418 -0.000113 0.020354 0.000000 0.000000 0.000000
# 4 0.000000 0.000000 0.000000 0.032770 0.000000 0.000000
# 5 0.000000 0.000000 0.000000 0.000000 0.037274 0.000000
# 6 0.000000 0.000000 0.000000 0.000000 0.000000 0.964416
#
#
# Mechanical properties :
#
#
# Convention : Reuss Voigt Hill
#
# Bulk Modulus (GPa) = 37.84421 38.66896 38.25658
# Shear Modulus (GPa) = 4.40860 21.86202 13.13531
#
# Velocity S-wave (km/s) = 1.49005 3.31815 2.57200
# Velocity P-wave (km/s) = 4.69248 5.84419 5.29971
#
# Compressibility (1/GPa) = 0.02642412
#
# Stress axis : x y z
#
# Youngs Moduli (GPa) = 36.88897 89.37877 49.12981
#
# Poissons Ratio (x) = 0.40961 0.56094
# Poissons Ratio (y) = 0.16906 0.00555
# Poissons Ratio (z) = 0.42118 0.01010
#
# Static dielectric constant tensor:
#      x y z
#    x 1.694970 0.000000 0.000000 
#    y 0.000000 1.685850 0.000000 
#    z 0.000000 0.000000 1.722800 
# 
# From -- ./inp_files/13508.got.cif
#   From: 2010.05.17/outbox.cif.g08.bks.cpg/sg23_7_cif.got.tgz:13508.got - 2010.06.04 12:02:01.
