data_PCOD9331479
_publ_section_title
;
Structure prediction by ZEFSAII (Michael W. Deem and Ramdas Pophale) SiO2 
 PCOD9331479
Probable space group: I 2 2 2
;
_chemical_formula_sum "Si O2"
_cell_formula_units_Z 60
_cell_length_a 24.896085
_cell_length_b 8.500007
_cell_length_c 12.078761
_cell_angle_alpha 90.000000
_cell_angle_beta 90.000000
_cell_angle_gamma 90.000000
_cell_volume 2556.069920
_symmetry_space_group_name_H-M "I 2 2 2"
_symmetry_group_IT_number 23
_symmetry_cell_setting 'orthorhombic'
loop_
_space_group_symop_operation_xyz
x,y,z
-x,-y,z
x,-y,-z
-x,y,-z
1/2+x,1/2+y,1/2+z
1/2-x,1/2-y,1/2+z
1/2+x,1/2-y,1/2-z
1/2-x,1/2+y,1/2-z
loop_
_atom_site_type_symbol
_atom_site_label
_atom_site_fract_x
_atom_site_fract_y
_atom_site_fract_z
Si Si1 0.860589 0.332804 0.430941
Si Si2 0.598624 0.564505 0.387091
Si Si3 0.094485 0.566150 0.114306
Si Si4 0.360321 0.500000 0.000000
Si Si5 0.200873 0.409227 0.794072
Si Si6 0.050101 0.079516 0.326577
Si Si7 0.472623 0.857496 0.829019
Si Si8 0.721208 0.567066 0.377979
O O1 0.858376 0.500000 0.500000
O O2 0.833490 0.169195 0.473200
O O3 0.833853 0.353064 0.311652
O O4 0.923424 0.294124 0.404040
O O5 0.575425 0.500000 0.500000
O O6 0.603757 0.749166 0.401030
O O7 0.563078 0.514501 0.284750
O O8 0.659728 0.507165 0.369913
O O9 0.154413 0.496654 0.138640
O O10 0.055622 0.568443 0.219859
O O11 0.072257 0.500000 0.000000
O O12 0.397428 0.439674 0.899031
O O13 0.247090 0.504299 0.730092
O O14 0.221328 0.257645 0.863520
O O15 0.022893 0.245600 0.300944
O O16 0.000000 0.000000 0.385669
O O17 0.500000 0.000000 0.889604
O O18 0.739954 0.500000 0.500000
#
# Coordination Sequence:
#
# PCOD9331479 Si02
#       8
#     8   8   8   4   8   8   8   8
#     4  11  24  45  67 103 145 182 230 289 346 420
#     4  10  23  43  65  91 129 176 226 282 345 412
#     4  10  22  42  63  91 132 173 221 278 341 410
#     4  12  23  40  72 100 136 194 234 278 356 421
#     4  10  23  46  69 100 139 176 229 289 353 430
#     4  12  22  41  65  96 135 179 232 285 337 412
#     4  11  24  40  60  96 135 180 232 283 340 405
#     4  10  22  45  70 100 137 176 231 290 359 429
#
# _framework density 23.473535999999999
#
# number of rings (size 3 to 8) (size 9 to 14) (size 15 to 20)
#    0.000    1.333    2.667    3.000    1.867    5.067 
#   12.000    0.000    1.467    0.000    0.000    0.000 
#    0.000    0.000    0.000    0.000    0.000    0.000 
#
# Total GULP energy -167218.967100 kJ/mol
# GULP energy per Si atom -5573.965570 kJ/mol
# Density = 2.342011 g / cm^3
# Si number density = 23.473536 Si / 1000 Ang^3
#
#
#
# Elastic Constant Matrix: (Units=GPa)
#
#
# Indices 1 2 3 4 5 6 
#
# 1 51.7325 18.7143 16.3097 0.0000 0.0000 0.0000
# 2 18.7143 87.9265 22.7444 0.0000 0.0000 0.0000
# 3 16.3097 22.7444 132.3806 0.0000 0.0000 0.0000
# 4 0.0000 0.0000 0.0000 53.6674 0.0000 0.0000
# 5 0.0000 0.0000 0.0000 0.0000 56.7618 0.0000
# 6 0.0000 0.0000 0.0000 0.0000 0.0000 3.6175
#
#
#
# Elastic Compliance Matrix: (Units=1/GPa)
#
#
# Indices 1 2 3 4 5 6 
#
# 1 0.021409 -0.004055 -0.001941 0.000000 0.000000 0.000000
# 2 -0.004055 0.012670 -0.001677 0.000000 0.000000 0.000000
# 3 -0.001941 -0.001677 0.008081 0.000000 0.000000 0.000000
# 4 0.000000 0.000000 0.000000 0.018633 0.000000 0.000000
# 5 0.000000 0.000000 0.000000 0.000000 0.017617 0.000000
# 6 0.000000 0.000000 0.000000 0.000000 0.000000 0.276432
#
#
# Mechanical properties :
#
#
# Convention : Reuss Voigt Hill
#
# Bulk Modulus (GPa) = 37.29343 43.06404 40.17874
# Shear Modulus (GPa) = 13.18819 37.09409 25.14114
#
# Velocity S-wave (km/s) = 2.37287 3.97955 3.27623
# Velocity P-wave (km/s) = 4.84038 6.28501 5.60940
#
# Compressibility (1/GPa) = 0.02681437
#
# Stress axis : x y z
#
# Youngs Moduli (GPa) = 46.70947 78.92660 123.74249
#
# Poissons Ratio (x) = 0.32002 0.24019
# Poissons Ratio (y) = 0.18939 0.20755
# Poissons Ratio (z) = 0.09066 0.13238
#
# Static dielectric constant tensor:
#      x y z
#    x 1.879850 0.000000 0.000000 
#    y 0.000000 1.980650 0.000000 
#    z 0.000000 0.000000 1.902260 
# 
# From -- ./inp_files/18617.got.cif
#   From: 2010.05.17/outbox.cif.g08.bks.cpg/sg23_10_cif.got.tgz:18617.got - 2010.06.04 12:02:01.
