data_PCOD9331093
_publ_section_title
;
Structure prediction by ZEFSAII (Michael W. Deem and Ramdas Pophale) SiO2 
 PCOD9331093
Probable space group: I 2 2 2
;
_chemical_formula_sum "Si O2"
_cell_formula_units_Z 40
_cell_length_a 13.559903
_cell_length_b 23.102023
_cell_length_c 5.847100
_cell_angle_alpha 90.000000
_cell_angle_beta 90.000000
_cell_angle_gamma 90.000000
_cell_volume 1831.669510
_symmetry_space_group_name_H-M "I 2 2 2"
_symmetry_group_IT_number 23
_symmetry_cell_setting 'orthorhombic'
loop_
_space_group_symop_operation_xyz
x,y,z
-x,-y,z
x,-y,-z
-x,y,-z
1/2+x,1/2+y,1/2+z
1/2-x,1/2-y,1/2+z
1/2+x,1/2-y,1/2-z
1/2-x,1/2+y,1/2-z
loop_
_atom_site_type_symbol
_atom_site_label
_atom_site_fract_x
_atom_site_fract_y
_atom_site_fract_z
Si Si1 0.230971 0.657822 0.698964
Si Si2 0.762135 0.064904 0.579786
Si Si3 0.098594 0.137776 0.118321
Si Si4 0.612608 0.937603 0.075082
Si Si5 0.551812 0.759307 0.755241
O O1 0.328616 0.671183 0.557013
O O2 0.163502 0.615439 0.547739
O O3 0.158881 0.710053 0.759657
O O4 0.267357 0.616363 0.899898
O O5 0.838118 0.086126 0.773445
O O6 0.647780 0.066094 0.664511
O O7 0.784424 0.000000 0.500000
O O8 0.065357 0.190298 0.279475
O O9 0.000000 0.115009 0.000000
O O10 0.500000 0.937170 0.000000
O O11 0.654702 0.000000 0.000000
O O12 0.500000 0.769749 0.500000
O O13 0.500000 0.778570 0.000000
#
# Coordination Sequence:
#
# PCOD9331093 Si02
#       5
#     8   8   8   8   8
#     4  11  25  42  73 102 145 186 241 297 372 437
#     4  11  24  44  72 102 142 191 245 301 369 445
#     4  10  27  47  73  99 146 188 250 312 370 434
#     4  10  21  40  63  98 145 184 231 286 362 440
#     4  11  28  48  77 113 152 190 249 306 377 450
#
# _framework density 21.838001999999999
#
# number of rings (size 3 to 8) (size 9 to 14) (size 15 to 20)
#    0.000    1.400    2.000    0.600   16.800    0.000 
#    0.000    3.000    0.000    0.000    0.000    0.000 
#    0.000    0.000    0.000    0.000    0.000    0.000 
#
# Total GULP energy -111463.418646 kJ/mol
# GULP energy per Si atom -5573.170932 kJ/mol
# Density = 2.178830 g / cm^3
# Si number density = 21.838002 Si / 1000 Ang^3
#
#
#
# Elastic Constant Matrix: (Units=GPa)
#
#
# Indices 1 2 3 4 5 6 
#
# 1 137.1973 44.7313 56.7038 -0.0002 -0.0010 0.0002
# 2 44.7313 71.1283 34.2568 -0.0004 0.0032 0.0019
# 3 56.7038 34.2568 90.8558 -0.0039 0.0143 0.0237
# 4 -0.0002 -0.0004 -0.0039 28.2424 0.0025 0.0024
# 5 -0.0010 0.0032 0.0143 0.0025 -28.3686 -0.0033
# 6 0.0002 0.0019 0.0237 0.0024 -0.0033 7.9670
#
#
#
# Elastic Compliance Matrix: (Units=1/GPa)
#
#
# Indices 1 2 3 4 5 6 
#
# 1 0.010818 -0.004339 -0.005115 -0.000001 -0.000003 0.000016
# 2 -0.004339 0.018919 -0.004425 0.000000 0.000000 0.000009
# 3 -0.005115 -0.004425 0.015867 0.000002 0.000008 -0.000046
# 4 -0.000001 0.000000 0.000002 0.035408 0.000003 -0.000011
# 5 -0.000003 0.000000 0.000008 0.000003 -0.035250 -0.000015
# 6 0.000016 0.000009 -0.000046 -0.000011 -0.000015 0.125518
#
#
# Mechanical properties :
#
#
# Convention : Reuss Voigt Hill
#
# Bulk Modulus (GPa) = 56.03898 63.39615 59.71756
# Shear Modulus (GPa) = 24.39171 12.46747 18.42959
#
# Velocity S-wave (km/s) = 3.34569 2.39196 2.90819
# Velocity P-wave (km/s) = 6.37509 6.05985 6.21947
#
# Compressibility (1/GPa) = 0.01784472
#
# Stress axis : x y z
#
# Youngs Moduli (GPa) = 92.44078 52.85589 63.02225
#
# Poissons Ratio (x) = 0.22937 0.32237
# Poissons Ratio (y) = 0.40114 0.27888
# Poissons Ratio (z) = 0.47286 0.23390
#
# Static dielectric constant tensor:
#      x y z
#    x 1.811250 0.000000 0.000010 
#    y 0.000000 1.757370 -0.000010 
#    z 0.000010 -0.000010 1.990580 
# 
# From -- ./inp_files/1698.got.cif
#   From: 2010.05.17/outbox.cif.g08.bks.cpg/sg23_1_cif.got.tgz:1698.got - 2010.06.04 12:02:01.
