data_PCOD9331780
_publ_section_title
;
Structure prediction by ZEFSAII (Michael W. Deem and Ramdas Pophale) SiO2 
 PCOD9331780
Probable space group: I 2 2 2
;
_chemical_formula_sum "Si O2"
_cell_formula_units_Z 44
_cell_length_a 5.117641
_cell_length_b 21.644374
_cell_length_c 18.544596
_cell_angle_alpha 90.000000
_cell_angle_beta 90.000000
_cell_angle_gamma 90.000000
_cell_volume 2054.150328
_symmetry_space_group_name_H-M "I 2 2 2"
_symmetry_group_IT_number 23
_symmetry_cell_setting 'orthorhombic'
loop_
_space_group_symop_operation_xyz
x,y,z
-x,-y,z
x,-y,-z
-x,y,-z
1/2+x,1/2+y,1/2+z
1/2-x,1/2-y,1/2+z
1/2+x,1/2-y,1/2-z
1/2-x,1/2+y,1/2-z
loop_
_atom_site_type_symbol
_atom_site_label
_atom_site_fract_x
_atom_site_fract_y
_atom_site_fract_z
Si Si1 0.000000 0.000000 0.660271
Si Si2 0.146694 0.896455 0.429248
Si Si3 0.500000 0.000000 0.000000
Si Si4 0.565732 0.673961 0.709989
Si Si5 0.428154 0.182420 0.690561
Si Si6 0.804927 0.942040 0.127306
Si Si7 0.000000 0.500000 0.000000
Si Si8 0.500000 0.000000 0.756379
O O1 0.941165 0.064037 0.618465
O O2 0.747795 0.985282 0.708056
O O3 0.328488 0.851736 0.381981
O O4 0.321607 0.954154 0.454693
O O5 0.000000 0.869913 0.500000
O O6 0.323517 0.043480 0.050645
O O7 0.582999 0.743565 0.679968
O O8 0.293169 0.667012 0.750907
O O9 0.576201 0.623902 0.645957
O O10 0.792916 0.667996 0.771753
O O11 0.582042 0.947106 0.188237
O O12 0.000000 0.000000 0.139750
#
# Coordination Sequence:
#
# PCOD9331780 Si02
#       8
#     4   8   2   8   8   8   2   4
#     4  12  21  38  58  93 132 172 218 272 322 375
#     4  12  25  40  60  94 137 188 218 271 327 397
#     4  10  26  40  66  94 146 174 210 284 334 414
#     4  10  23  46  72 100 130 170 223 287 332 391
#     4  10  24  45  71  97 134 174 225 277 330 395
#     4  11  23  43  66 104 134 171 219 280 345 403
#     4  12  24  44  58  90 150 182 222 276 320 392
#     4  11  23  35  63  98 126 162 216 272 327 395
#
# _framework density 21.420048999999999
#
# number of rings (size 3 to 8) (size 9 to 14) (size 15 to 20)
#    0.000    1.091    2.727    3.000    7.636    0.000 
#    1.636    0.000    4.000    0.000    0.000    0.000 
#    0.000    0.000    0.000    0.000    0.000    0.000 
#
# Total GULP energy -122896.597069 kJ/mol
# GULP energy per Si atom -5586.208958 kJ/mol
# Density = 2.137130 g / cm^3
# Si number density = 21.420049 Si / 1000 Ang^3
#
#
#
# Elastic Constant Matrix: (Units=GPa)
#
#
# Indices 1 2 3 4 5 6 
#
# 1 96.7465 23.6372 20.7443 0.0000 0.0000 0.0000
# 2 23.6372 134.3708 53.9267 0.0000 0.0000 0.0000
# 3 20.7443 53.9267 100.1811 0.0000 0.0000 0.0000
# 4 0.0000 0.0000 0.0000 47.6347 0.0000 0.0000
# 5 0.0000 0.0000 0.0000 0.0000 25.9018 0.0000
# 6 0.0000 0.0000 0.0000 0.0000 0.0000 26.5444
#
#
#
# Elastic Compliance Matrix: (Units=1/GPa)
#
#
# Indices 1 2 3 4 5 6 
#
# 1 0.010992 -0.001301 -0.001576 0.000000 0.000000 0.000000
# 2 -0.001301 0.009647 -0.004923 0.000000 0.000000 0.000000
# 3 -0.001576 -0.004923 0.012958 0.000000 0.000000 0.000000
# 4 0.000000 0.000000 0.000000 0.020993 0.000000 0.000000
# 5 0.000000 0.000000 0.000000 0.000000 0.038607 0.000000
# 6 0.000000 0.000000 0.000000 0.000000 0.000000 0.037673
#
#
# Mechanical properties :
#
#
# Convention : Reuss Voigt Hill
#
# Bulk Modulus (GPa) = 55.56555 58.65718 57.11137
# Shear Modulus (GPa) = 32.79334 35.54888 34.17111
#
# Velocity S-wave (km/s) = 3.91700 4.07825 3.99844
# Velocity P-wave (km/s) = 6.81575 7.04413 6.93088
#
# Compressibility (1/GPa) = 0.01799676
#
# Stress axis : x y z
#
# Youngs Moduli (GPa) = 90.97474 103.66033 77.16993
#
# Poissons Ratio (x) = 0.13489 0.12159
# Poissons Ratio (y) = 0.11838 0.37994
# Poissons Ratio (z) = 0.14334 0.51036
#
# Static dielectric constant tensor:
#      x y z
#    x 1.836880 0.000000 0.000000 
#    y 0.000000 1.850390 0.000000 
#    z 0.000000 0.000000 1.908730 
# 
# From -- ./inp_files/25697.got.cif
#   From: 2010.05.17/outbox.cif.g08.bks.cpg/sg23_13_cif.got.tgz:25697.got - 2010.06.04 12:02:01.
