data_PCOD9331586
_publ_section_title
;
Structure prediction by ZEFSAII (Michael W. Deem and Ramdas Pophale) SiO2 
 PCOD9331586
Probable space group: I 2 2 2
;
_chemical_formula_sum "Si O2"
_cell_formula_units_Z 32
_cell_length_a 26.219708
_cell_length_b 10.654149
_cell_length_c 4.868052
_cell_angle_alpha 90.000000
_cell_angle_beta 90.000000
_cell_angle_gamma 90.000000
_cell_volume 1359.883880
_symmetry_space_group_name_H-M "I 2 2 2"
_symmetry_group_IT_number 23
_symmetry_cell_setting 'orthorhombic'
loop_
_space_group_symop_operation_xyz
x,y,z
-x,-y,z
x,-y,-z
-x,y,-z
1/2+x,1/2+y,1/2+z
1/2-x,1/2-y,1/2+z
1/2+x,1/2-y,1/2-z
1/2-x,1/2+y,1/2-z
loop_
_atom_site_type_symbol
_atom_site_label
_atom_site_fract_x
_atom_site_fract_y
_atom_site_fract_z
Si Si1 0.581733 0.629725 0.364073
Si Si2 0.289984 0.120476 0.669250
Si Si3 0.500000 0.000000 0.000000
Si Si4 0.500000 0.187558 0.500000
Si Si5 0.000000 0.000000 0.500000
Si Si6 0.682154 0.270765 0.822395
O O1 0.601656 0.500000 0.500000
O O2 0.552395 0.731900 0.554632
O O3 0.534732 0.584718 0.185729
O O4 0.625379 0.680453 0.162425
O O5 0.313072 0.235134 0.497272
O O6 0.228928 0.134021 0.633068
O O7 0.307674 0.000000 0.500000
O O8 0.305687 0.151671 0.980336
O O9 0.516416 0.896982 0.235847
#
# Coordination Sequence:
#
# PCOD9331586 Si02
#       6
#     8   8   2   4   2   8
#     4  12  26  44  76 113 147 190 244 316 372 433
#     4  10  22  46  68 103 145 189 239 302 355 452
#     4  10  26  46  74  94 140 204 240 288 356 434
#     4  11  23  50  70 106 147 193 246 304 358 439
#     4  12  24  44  72 112 156 180 240 314 366 432
#     4  10  25  41  72 106 144 186 242 294 376 433
#
# _framework density 23.531420000000001
#
# number of rings (size 3 to 8) (size 9 to 14) (size 15 to 20)
#    0.000    1.250    2.500    1.500    5.250    4.000 
#    9.000    0.000    0.000    0.000    0.000    0.000 
#    0.000    0.000    0.000    0.000    0.000    0.000 
#
# Total GULP energy -89080.058301 kJ/mol
# GULP energy per Si atom -5567.503644 kJ/mol
# Density = 2.347786 g / cm^3
# Si number density = 23.531420 Si / 1000 Ang^3
#
#
#
# Elastic Constant Matrix: (Units=GPa)
#
#
# Indices 1 2 3 4 5 6 
#
# 1 127.1328 31.4257 15.3225 0.0000 -0.0001 0.0000
# 2 31.4257 79.7672 10.9934 0.0000 0.0002 0.0000
# 3 15.3225 10.9934 97.1229 0.0005 0.0020 -0.0001
# 4 0.0000 0.0000 0.0005 33.5040 0.0006 0.0000
# 5 -0.0001 0.0002 0.0020 0.0006 123.1441 -0.0001
# 6 0.0000 0.0000 -0.0001 0.0000 -0.0001 5.9526
#
#
#
# Elastic Compliance Matrix: (Units=1/GPa)
#
#
# Indices 1 2 3 4 5 6 
#
# 1 0.008811 -0.003332 -0.001013 0.000000 0.000000 0.000000
# 2 -0.003332 0.013995 -0.001058 0.000000 0.000000 0.000000
# 3 -0.001013 -0.001058 0.010576 0.000000 0.000000 0.000000
# 4 0.000000 0.000000 0.000000 0.029847 0.000000 0.000000
# 5 0.000000 0.000000 0.000000 0.000000 0.008121 0.000000
# 6 0.000000 0.000000 0.000000 0.000000 0.000000 0.167993
#
#
# Mechanical properties :
#
#
# Convention : Reuss Voigt Hill
#
# Bulk Modulus (GPa) = 44.29534 46.61179 45.45356
# Shear Modulus (GPa) = 19.40432 48.93891 34.17161
#
# Velocity S-wave (km/s) = 2.87472 4.56535 3.81487
# Velocity P-wave (km/s) = 5.46658 6.90226 6.22594
#
# Compressibility (1/GPa) = 0.02257574
#
# Stress axis : x y z
#
# Youngs Moduli (GPa) = 113.48849 71.45419 94.55500
#
# Poissons Ratio (x) = 0.23807 0.09578
# Poissons Ratio (y) = 0.37812 0.10008
# Poissons Ratio (z) = 0.11496 0.07563
#
# Static dielectric constant tensor:
#      x y z
#    x 1.883650 0.000000 0.000000 
#    y 0.000000 1.980920 0.000000 
#    z 0.000000 0.000000 1.889330 
# 
# From -- ./inp_files/3683.got.cif
#   From: 2010.05.17/outbox.cif.g08.bks.cpg/sg23_2_cif.got.tgz:3683.got - 2010.06.04 12:02:01.
