data_PCOD9331741
_publ_section_title
;
Structure prediction by ZEFSAII (Michael W. Deem and Ramdas Pophale) SiO2 
 PCOD9331741
Probable space group: I 2 2 2
;
_chemical_formula_sum "Si O2"
_cell_formula_units_Z 52
_cell_length_a 11.057581
_cell_length_b 15.496969
_cell_length_c 13.872178
_cell_angle_alpha 90.000000
_cell_angle_beta 90.000000
_cell_angle_gamma 90.000000
_cell_volume 2377.122411
_symmetry_space_group_name_H-M "I 2 2 2"
_symmetry_group_IT_number 23
_symmetry_cell_setting 'orthorhombic'
loop_
_space_group_symop_operation_xyz
x,y,z
-x,-y,z
x,-y,-z
-x,y,-z
1/2+x,1/2+y,1/2+z
1/2-x,1/2-y,1/2+z
1/2+x,1/2-y,1/2-z
1/2-x,1/2+y,1/2-z
loop_
_atom_site_type_symbol
_atom_site_label
_atom_site_fract_x
_atom_site_fract_y
_atom_site_fract_z
Si Si1 0.224830 0.304796 0.078643
Si Si2 0.610887 0.372647 0.075046
Si Si3 0.000000 0.000000 0.717362
Si Si4 0.071857 0.580384 0.773942
Si Si5 0.021195 0.707019 0.387591
Si Si6 0.702949 0.530917 0.345773
Si Si7 0.135631 0.876334 0.972358
O O1 0.144668 0.358324 0.152903
O O2 0.349824 0.258092 0.116198
O O3 0.147592 0.223915 0.043580
O O4 0.270569 0.363966 0.989745
O O5 0.593782 0.447082 0.152170
O O6 0.581901 0.280663 0.124154
O O7 0.500000 0.385946 0.000000
O O8 0.913560 0.941402 0.783047
O O9 0.176278 0.535232 0.712422
O O10 0.000000 0.500000 0.819557
O O11 0.994837 0.637139 0.696469
O O12 0.000000 0.676200 0.500000
O O13 0.675401 0.434735 0.382949
O O14 0.714918 0.592422 0.437733
O O15 0.000000 0.900714 0.000000
#
# Coordination Sequence:
#
# PCOD9331741 Si02
#       7
#     8   8   4   8   8   8   8
#     4  10  23  44  67  96 140 191 230 281 349 426
#     4   9  20  39  64  97 126 171 229 282 336 401
#     4  12  21  37  74 104 126 178 234 293 337 414
#     4  12  26  42  67 107 143 184 235 289 352 426
#     4   9  20  43  68  99 133 180 243 291 350 400
#     4  11  22  41  68 106 138 172 236 295 356 409
#     4  11  22  43  66  99 143 183 226 287 360 418
#
# _framework density 21.875188999999999
#
# number of rings (size 3 to 8) (size 9 to 14) (size 15 to 20)
#    0.000    1.846    1.538    5.308    2.154    2.769 
#    2.769    0.000    0.000    0.000    0.000    0.000 
#    0.000    0.000    0.000    0.000    0.000    0.000 
#
# Total GULP energy -145199.972291 kJ/mol
# GULP energy per Si atom -5584.614319 kJ/mol
# Density = 2.182540 g / cm^3
# Si number density = 21.875189 Si / 1000 Ang^3
#
#
#
# Elastic Constant Matrix: (Units=GPa)
#
#
# Indices 1 2 3 4 5 6 
#
# 1 78.2401 35.5010 29.5214 0.0000 0.0000 0.0000
# 2 35.5010 94.8161 65.3942 0.0000 0.0000 0.0000
# 3 29.5214 65.3942 79.5932 0.0000 0.0000 0.0000
# 4 0.0000 0.0000 0.0000 10.6846 0.0000 0.0000
# 5 0.0000 0.0000 0.0000 0.0000 23.9785 0.0000
# 6 0.0000 0.0000 0.0000 0.0000 0.0000 25.3264
#
#
#
# Elastic Compliance Matrix: (Units=1/GPa)
#
#
# Indices 1 2 3 4 5 6 
#
# 1 0.015573 -0.004263 -0.002274 0.000000 0.000000 0.000000
# 2 -0.004263 0.025505 -0.019374 0.000000 0.000000 0.000000
# 3 -0.002274 -0.019374 0.029325 0.000000 0.000000 0.000000
# 4 0.000000 0.000000 0.000000 0.093593 0.000000 0.000000
# 5 0.000000 0.000000 0.000000 0.000000 0.041704 0.000000
# 6 0.000000 0.000000 0.000000 0.000000 0.000000 0.039485
#
#
# Mechanical properties :
#
#
# Convention : Reuss Voigt Hill
#
# Bulk Modulus (GPa) = 53.81506 57.05362 55.43434
# Shear Modulus (GPa) = 16.49080 20.14675 18.31878
#
# Velocity S-wave (km/s) = 2.74863 3.03807 2.89696
# Velocity P-wave (km/s) = 5.89302 6.20037 6.04864
#
# Compressibility (1/GPa) = 0.01858216
#
# Stress axis : x y z
#
# Youngs Moduli (GPa) = 64.21235 39.20841 34.10063
#
# Poissons Ratio (x) = 0.16713 0.07755
# Poissons Ratio (y) = 0.27371 0.66066
# Poissons Ratio (z) = 0.14602 0.75962
#
# Static dielectric constant tensor:
#      x y z
#    x 1.859230 0.000000 0.000000 
#    y 0.000000 1.812110 0.000000 
#    z 0.000000 0.000000 1.871380 
# 
# From -- ./inp_files/20904.got.cif
#   From: 2010.05.17/outbox.cif.g08.bks.cpg/sg23_11_cif.got.tgz:20904.got - 2010.06.04 12:02:01.
