data_PCOD9331653
_publ_section_title
;
Structure prediction by ZEFSAII (Michael W. Deem and Ramdas Pophale) SiO2 
 PCOD9331653
Probable space group: I 2 2 2
;
_chemical_formula_sum "Si O2"
_cell_formula_units_Z 52
_cell_length_a 9.161720
_cell_length_b 14.281303
_cell_length_c 17.809421
_cell_angle_alpha 90.000000
_cell_angle_beta 90.000000
_cell_angle_gamma 90.000000
_cell_volume 2330.207784
_symmetry_space_group_name_H-M "I 2 2 2"
_symmetry_group_IT_number 23
_symmetry_cell_setting 'orthorhombic'
loop_
_space_group_symop_operation_xyz
x,y,z
-x,-y,z
x,-y,-z
-x,y,-z
1/2+x,1/2+y,1/2+z
1/2-x,1/2-y,1/2+z
1/2+x,1/2-y,1/2-z
1/2-x,1/2+y,1/2-z
loop_
_atom_site_type_symbol
_atom_site_label
_atom_site_fract_x
_atom_site_fract_y
_atom_site_fract_z
Si Si1 0.364548 0.302836 0.449451
Si Si2 0.359825 0.121587 0.132165
Si Si3 0.111183 0.915811 0.315027
Si Si4 0.081415 0.414165 0.232454
Si Si5 0.235982 0.500000 0.500000
Si Si6 0.051551 0.200534 0.194788
Si Si7 0.361263 0.309285 0.039727
O O1 0.500000 0.273444 0.500000
O O2 0.322097 0.407317 0.475046
O O3 0.421657 0.309158 0.365411
O O4 0.244341 0.227247 0.473735
O O5 0.481492 0.100819 0.193905
O O6 0.199683 0.147287 0.168077
O O7 0.400736 0.212682 0.083115
O O8 0.345666 0.036857 0.073669
O O9 0.248541 0.941669 0.261773
O O10 0.179322 0.879381 0.393247
O O11 0.013897 0.837704 0.272488
O O12 0.000000 0.000000 0.327202
O O13 0.083627 0.310447 0.198388
O O14 0.000000 0.500000 0.190786
O O15 0.500000 0.352302 0.000000
#
# Coordination Sequence:
#
# PCOD9331653 Si02
#       7
#     8   8   8   8   4   8   8
#     4  11  22  40  72 107 150 192 240 308 378 459
#     4  11  24  46  71 111 152 193 238 315 386 470
#     4  12  28  48  74 107 147 200 256 316 374 466
#     4  12  26  46  72 105 149 193 254 307 378 451
#     4  10  23  40  69 116 154 190 244 294 386 466
#     4  12  24  45  77 109 147 195 252 314 390 458
#     4  11  25  46  70 101 147 193 249 306 385 440
#
# _framework density 22.315605999999999
#
# number of rings (size 3 to 8) (size 9 to 14) (size 15 to 20)
#    0.000    0.615    6.154    1.154    6.462    4.000 
#    0.000    3.462    0.000    0.462    0.000    0.000 
#    0.000    0.000    0.000    0.000    0.000    0.000 
#
# Total GULP energy -145215.149364 kJ/mol
# GULP energy per Si atom -5585.198052 kJ/mol
# Density = 2.226481 g / cm^3
# Si number density = 22.315606 Si / 1000 Ang^3
#
#
#
# Elastic Constant Matrix: (Units=GPa)
#
#
# Indices 1 2 3 4 5 6 
#
# 1 120.3530 44.1082 40.5695 0.0000 0.0000 0.0000
# 2 44.1082 88.1392 5.6680 0.0000 0.0000 0.0000
# 3 40.5695 5.6680 70.0467 0.0000 0.0000 0.0000
# 4 0.0000 0.0000 0.0000 30.3696 0.0000 0.0000
# 5 0.0000 0.0000 0.0000 0.0000 32.4826 0.0000
# 6 0.0000 0.0000 0.0000 0.0000 0.0000 43.4264
#
#
#
# Elastic Compliance Matrix: (Units=1/GPa)
#
#
# Indices 1 2 3 4 5 6 
#
# 1 0.012846 -0.005981 -0.006956 0.000000 0.000000 0.000000
# 2 -0.005981 0.014190 0.002316 0.000000 0.000000 0.000000
# 3 -0.006956 0.002316 0.018118 0.000000 0.000000 0.000000
# 4 0.000000 0.000000 0.000000 0.032928 0.000000 0.000000
# 5 0.000000 0.000000 0.000000 0.000000 0.030786 0.000000
# 6 0.000000 0.000000 0.000000 0.000000 0.000000 0.023027
#
#
# Mechanical properties :
#
#
# Convention : Reuss Voigt Hill
#
# Bulk Modulus (GPa) = 41.82207 51.02558 46.42383
# Shear Modulus (GPa) = 31.03535 33.80193 32.41864
#
# Velocity S-wave (km/s) = 3.73332 3.89616 3.81561
# Velocity P-wave (km/s) = 6.11273 6.56926 6.34510
#
# Compressibility (1/GPa) = 0.02391082
#
# Stress axis : x y z
#
# Youngs Moduli (GPa) = 77.84720 70.47240 55.19516
#
# Poissons Ratio (x) = 0.42151 0.38393
# Poissons Ratio (y) = 0.46562 -0.12783
# Poissons Ratio (z) = 0.54150 -0.16321
#
# Static dielectric constant tensor:
#      x y z
#    x 1.845340 0.000000 0.000000 
#    y 0.000000 1.839330 0.000000 
#    z 0.000000 0.000000 1.750110 
# 
# From -- ./inp_files/26211.got.cif
#   From: 2010.05.17/outbox.cif.g08.bks.cpg/sg23_14_cif.got.tgz:26211.got - 2010.06.04 12:02:01.
