data_PCOD9331969
_publ_section_title
;
Structure prediction by ZEFSAII (Michael W. Deem and Ramdas Pophale) SiO2 
 PCOD9331969
Probable space group: I 2 2 2
;
_chemical_formula_sum "Si O2"
_cell_formula_units_Z 32
_cell_length_a 11.108373
_cell_length_b 15.980790
_cell_length_c 7.789240
_cell_angle_alpha 90.000000
_cell_angle_beta 90.000000
_cell_angle_gamma 90.000000
_cell_volume 1382.750373
_symmetry_space_group_name_H-M "I 2 2 2"
_symmetry_group_IT_number 23
_symmetry_cell_setting 'orthorhombic'
loop_
_space_group_symop_operation_xyz
x,y,z
-x,-y,z
x,-y,-z
-x,y,-z
1/2+x,1/2+y,1/2+z
1/2-x,1/2-y,1/2+z
1/2+x,1/2-y,1/2-z
1/2-x,1/2+y,1/2-z
loop_
_atom_site_type_symbol
_atom_site_label
_atom_site_fract_x
_atom_site_fract_y
_atom_site_fract_z
Si Si1 0.639803 0.821623 0.506811
Si Si2 0.286106 0.500000 0.500000
Si Si3 0.855449 0.930723 0.352664
Si Si4 0.500000 0.708329 0.000000
Si Si5 0.291045 0.821839 0.093558
O O1 0.500000 0.844193 0.500000
O O2 0.729245 0.883625 0.401548
O O3 0.675728 0.821021 0.706803
O O4 0.667421 0.728485 0.436261
O O5 0.355894 0.477124 0.672634
O O6 0.211392 0.583239 0.536429
O O7 0.954847 0.857134 0.356702
O O8 0.871616 0.000000 0.500000
O O9 0.612744 0.769391 0.018344
#
# Coordination Sequence:
#
# PCOD9331969 Si02
#       5
#     8   4   8   4   8
#     4  11  26  47  76 111 156 207 259 322 405 485
#     4  12  26  49  75 114 156 206 263 323 390 476
#     4  11  24  50  74 111 155 200 263 327 391 467
#     4  10  25  45  78 106 152 210 250 323 395 464
#     4  11  25  47  75 111 155 202 263 320 398 470
#
# _framework density 23.142282000000002
#
# number of rings (size 3 to 8) (size 9 to 14) (size 15 to 20)
#    0.000    1.000    2.500    3.375   10.500    1.000 
#    0.000    3.125    0.000    0.000    0.000    0.000 
#    0.000    0.000    0.000    0.000    0.000    0.000 
#
# Total GULP energy -89492.522426 kJ/mol
# GULP energy per Si atom -5593.282652 kJ/mol
# Density = 2.308961 g / cm^3
# Si number density = 23.142282 Si / 1000 Ang^3
#
#
#
# Elastic Constant Matrix: (Units=GPa)
#
#
# Indices 1 2 3 4 5 6 
#
# 1 109.8084 49.9548 52.4812 0.0000 0.0000 0.0000
# 2 49.9548 197.6677 69.4074 0.0000 0.0000 0.0000
# 3 52.4812 69.4074 177.5298 0.0000 0.0000 0.0000
# 4 0.0000 0.0000 0.0000 40.5048 0.0000 0.0000
# 5 0.0000 0.0000 0.0000 0.0000 0.0398 0.0000
# 6 0.0000 0.0000 0.0000 0.0000 0.0000 34.2045
#
#
#
# Elastic Compliance Matrix: (Units=1/GPa)
#
#
# Indices 1 2 3 4 5 6 
#
# 1 0.011209 -0.001935 -0.002557 0.000000 0.000000 0.000000
# 2 -0.001935 0.006198 -0.001851 0.000000 0.000000 0.000000
# 3 -0.002557 -0.001851 0.007113 0.000000 -0.000001 0.000000
# 4 0.000000 0.000000 0.000000 0.024688 -0.000001 0.000000
# 5 0.000000 0.000000 -0.000001 -0.000001 25.096749 0.000001
# 6 0.000000 0.000000 0.000000 0.000000 0.000001 0.029236
#
#
# Mechanical properties :
#
#
# Convention : Reuss Voigt Hill
#
# Bulk Modulus (GPa) = 84.50796 92.07697 88.29246
# Shear Modulus (GPa) = 0.19848 35.82733 18.01291
#
# Velocity S-wave (km/s) = 0.29317 3.93890 2.79293
# Velocity P-wave (km/s) = 6.05892 7.78205 6.97391
#
# Compressibility (1/GPa) = 0.01183321
#
# Stress axis : x y z
#
# Youngs Moduli (GPa) = 89.21269 161.34249 140.59653
#
# Poissons Ratio (x) = 0.31218 0.35953
# Poissons Ratio (y) = 0.17262 0.26027
# Poissons Ratio (z) = 0.22813 0.29868
#
# Static dielectric constant tensor:
#      x y z
#    x 1.912660 0.000000 0.000000 
#    y 0.000000 1.851570 0.000000 
#    z 0.000000 0.000000 1.831380 
# 
# From -- ./inp_files/7987.got.cif
#   From: 2010.05.17/outbox.cif.g08.bks.cpg/sg23_4_cif.got.tgz:7987.got - 2010.06.04 12:02:01.
