data_PCOD9331489
_publ_section_title
;
Structure prediction by ZEFSAII (Michael W. Deem and Ramdas Pophale) SiO2 
 PCOD9331489
Probable space group: I 2 2 2
;
_chemical_formula_sum "Si O2"
_cell_formula_units_Z 34
_cell_length_a 5.967272
_cell_length_b 15.247613
_cell_length_c 16.973941
_cell_angle_alpha 90.000000
_cell_angle_beta 90.000000
_cell_angle_gamma 90.000000
_cell_volume 1544.402099
_symmetry_space_group_name_H-M "I 2 2 2"
_symmetry_group_IT_number 23
_symmetry_cell_setting 'orthorhombic'
loop_
_space_group_symop_operation_xyz
x,y,z
-x,-y,z
x,-y,-z
-x,y,-z
1/2+x,1/2+y,1/2+z
1/2-x,1/2-y,1/2+z
1/2+x,1/2-y,1/2-z
1/2-x,1/2+y,1/2-z
loop_
_atom_site_type_symbol
_atom_site_label
_atom_site_fract_x
_atom_site_fract_y
_atom_site_fract_z
Si Si1 0.000000 0.287106 0.000000
Si Si2 0.601622 0.098017 0.784817
Si Si3 0.000000 0.000000 0.265368
Si Si4 0.000000 0.000000 0.000000
Si Si5 0.681149 0.145216 0.069086
Si Si6 0.376507 0.911187 0.370015
O O1 0.843470 0.226731 0.053987
O O2 0.149538 0.346955 0.057372
O O3 0.468824 0.148483 0.852193
O O4 0.533849 0.131043 0.698159
O O5 0.500000 0.000000 0.790548
O O6 0.863486 0.073000 0.784771
O O7 0.839635 0.055552 0.322947
O O8 0.160877 0.060224 0.945687
O O9 0.500000 0.141853 0.000000
O O10 0.500000 0.000000 0.397455
#
# Coordination Sequence:
#
# PCOD9331489 Si02
#       6
#     4   8   4   2   8   8
#     4  11  25  43  59 102 142 174 217 273 357 395
#     4   9  19  38  65  97 124 165 226 271 328 390
#     4   8  18  37  73 101 117 172 228 290 319 397
#     4  10  22  42  66  90 132 180 222 272 322 388
#     4  11  24  39  62  96 135 176 218 275 326 405
#     4   9  20  41  69  96 127 168 227 277 329 404
#
# _framework density 22.014993
#
# number of rings (size 3 to 8) (size 9 to 14) (size 15 to 20)
#    0.000    2.824    0.000    2.118    0.000   16.000 
#    4.235    4.706    0.000    0.000    0.000    0.000 
#    0.000    0.000    0.000    0.000    0.000    0.000 
#
# Total GULP energy -94833.747404 kJ/mol
# GULP energy per Si atom -5578.455730 kJ/mol
# Density = 2.196489 g / cm^3
# Si number density = 22.014993 Si / 1000 Ang^3
#
#
#
# Elastic Constant Matrix: (Units=GPa)
#
#
# Indices 1 2 3 4 5 6 
#
# 1 111.1726 39.4793 29.4089 0.0000 0.0000 0.0000
# 2 39.4793 76.7012 53.7602 0.0000 0.0000 0.0000
# 3 29.4089 53.7602 107.3361 0.0000 0.0000 0.0000
# 4 0.0000 0.0000 0.0000 37.9819 0.0000 0.0000
# 5 0.0000 0.0000 0.0000 0.0000 22.1468 0.0000
# 6 0.0000 0.0000 0.0000 0.0000 0.0000 9.6344
#
#
#
# Elastic Compliance Matrix: (Units=1/GPa)
#
#
# Indices 1 2 3 4 5 6 
#
# 1 0.011012 -0.005476 -0.000275 0.000000 0.000000 0.000000
# 2 -0.005476 0.022813 -0.009926 0.000000 0.000000 0.000000
# 3 -0.000275 -0.009926 0.014363 0.000000 0.000000 0.000000
# 4 0.000000 0.000000 0.000000 0.026328 0.000000 0.000000
# 5 0.000000 0.000000 0.000000 0.000000 0.045153 0.000000
# 6 0.000000 0.000000 0.000000 0.000000 0.000000 0.103795
#
#
# Mechanical properties :
#
#
# Convention : Reuss Voigt Hill
#
# Bulk Modulus (GPa) = 59.39603 60.05630 59.72617
# Shear Modulus (GPa) = 19.19907 25.45672 22.32789
#
# Velocity S-wave (km/s) = 2.95632 3.40418 3.18813
# Velocity P-wave (km/s) = 6.22025 6.54142 6.38286
#
# Compressibility (1/GPa) = 0.01683614
#
# Stress axis : x y z
#
# Youngs Moduli (GPa) = 90.80864 43.83452 69.62205
#
# Poissons Ratio (x) = 0.24002 0.01913
# Poissons Ratio (y) = 0.49723 0.69106
# Poissons Ratio (z) = 0.02495 0.43510
#
# Static dielectric constant tensor:
#      x y z
#    x 1.918440 0.000000 0.000000 
#    y 0.000000 1.807490 0.000000 
#    z 0.000000 0.000000 1.847790 
# 
# From -- ./inp_files/2337.got.cif
#   From: 2010.05.17/outbox.cif.g08.bks.cpg/sg23_2_cif.got.tgz:2337.got - 2010.06.04 12:02:01.
