data_PCOD9331455
_publ_section_title
;
Structure prediction by ZEFSAII (Michael W. Deem and Ramdas Pophale) SiO2 
 PCOD9331455
Probable space group: I 2 2 2
;
_chemical_formula_sum "Si O2"
_cell_formula_units_Z 34
_cell_length_a 8.731543
_cell_length_b 23.877599
_cell_length_c 8.129564
_cell_angle_alpha 90.000000
_cell_angle_beta 90.000000
_cell_angle_gamma 90.000000
_cell_volume 1694.918835
_symmetry_space_group_name_H-M "I 2 2 2"
_symmetry_group_IT_number 23
_symmetry_cell_setting 'orthorhombic'
loop_
_space_group_symop_operation_xyz
x,y,z
-x,-y,z
x,-y,-z
-x,y,-z
1/2+x,1/2+y,1/2+z
1/2-x,1/2-y,1/2+z
1/2+x,1/2-y,1/2-z
1/2-x,1/2+y,1/2-z
loop_
_atom_site_type_symbol
_atom_site_label
_atom_site_fract_x
_atom_site_fract_y
_atom_site_fract_z
Si Si1 0.325639 0.830517 0.055685
Si Si2 0.286606 0.912285 0.320377
Si Si3 0.000000 0.500000 0.000000
Si Si4 0.500000 0.367171 0.000000
Si Si5 0.000000 0.676928 0.000000
Si Si6 0.720302 0.713704 0.790342
O O1 0.271192 0.889368 0.133778
O O2 0.318038 0.778643 0.183748
O O3 0.500000 0.838096 0.000000
O O4 0.235946 0.808337 0.894947
O O5 0.383742 0.966199 0.378096
O O6 0.392721 0.864141 0.397325
O O7 0.121271 0.905687 0.403936
O O8 0.402868 0.325578 0.882427
O O9 0.884630 0.708507 0.880118
#
# Coordination Sequence:
#
# PCOD9331455 Si02
#       6
#     8   8   2   4   4   8
#     4  12  24  38  62  99 141 188 223 266 316 415
#     4  10  22  41  68  96 125 169 232 274 346 388
#     4  10  24  50  78  92 120 180 224 302 348 398
#     4  10  22  41  66 106 130 173 216 278 332 416
#     4   9  18  37  62  88 132 178 219 257 320 418
#     4  11  22  36  61  97 145 179 216 256 333 396
#
# _framework density 20.059958999999999
#
# number of rings (size 3 to 8) (size 9 to 14) (size 15 to 20)
#    0.000    1.412    3.529    2.824    0.000    1.412 
#    0.000    0.588    0.000    0.000    6.118    0.000 
#    0.000    0.000    0.000    0.000    0.000    0.000 
#
# Total GULP energy -94803.745915 kJ/mol
# GULP energy per Si atom -5576.690936 kJ/mol
# Density = 2.001430 g / cm^3
# Si number density = 20.059959 Si / 1000 Ang^3
#
#
#
# Elastic Constant Matrix: (Units=GPa)
#
#
# Indices 1 2 3 4 5 6 
#
# 1 136.4700 47.3210 44.3432 -0.0003 -0.0009 -0.0006
# 2 47.3210 90.3193 53.5163 0.0000 0.0005 0.0001
# 3 44.3432 53.5163 121.2644 -0.0015 -0.0023 -0.0015
# 4 -0.0003 0.0000 -0.0015 15.5065 -0.0003 -0.0001
# 5 -0.0009 0.0005 -0.0023 -0.0003 33.8161 -0.0005
# 6 -0.0006 0.0001 -0.0015 -0.0001 -0.0005 23.7574
#
#
#
# Elastic Compliance Matrix: (Units=1/GPa)
#
#
# Indices 1 2 3 4 5 6 
#
# 1 0.009199 -0.003827 -0.001675 0.000000 0.000000 0.000000
# 2 -0.003827 0.016585 -0.005920 -0.000001 -0.000001 -0.000001
# 3 -0.001675 -0.005920 0.011471 0.000001 0.000001 0.000001
# 4 0.000000 -0.000001 0.000001 0.064489 0.000001 0.000000
# 5 0.000000 -0.000001 0.000001 0.000001 0.029572 0.000001
# 6 0.000000 -0.000001 0.000001 0.000000 0.000001 0.042092
#
#
# Mechanical properties :
#
#
# Convention : Reuss Voigt Hill
#
# Bulk Modulus (GPa) = 69.38865 70.93499 70.16182
# Shear Modulus (GPa) = 24.86885 28.14087 26.50486
#
# Velocity S-wave (km/s) = 3.52479 3.74951 3.63889
# Velocity P-wave (km/s) = 7.15760 7.36093 7.25998
#
# Compressibility (1/GPa) = 0.01441158
#
# Stress axis : x y z
#
# Youngs Moduli (GPa) = 108.70871 60.29724 87.17431
#
# Poissons Ratio (x) = 0.23077 0.14600
# Poissons Ratio (y) = 0.41605 0.51603
# Poissons Ratio (z) = 0.18206 0.35693
#
# Static dielectric constant tensor:
#      x y z
#    x 1.727050 0.000000 -0.000070 
#    y 0.000000 1.696120 -0.000010 
#    z -0.000070 -0.000010 1.470220 
# 
# From -- ./inp_files/6735.got.cif
#   From: 2010.05.17/outbox.cif.g08.bks.cpg/sg23_4_cif.got.tgz:6735.got - 2010.06.04 12:02:01.
