data_PCOD9331575
_publ_section_title
;
Structure prediction by ZEFSAII (Michael W. Deem and Ramdas Pophale) SiO2 
 PCOD9331575
Probable space group: I 2 2 2
;
_chemical_formula_sum "Si O2"
_cell_formula_units_Z 58
_cell_length_a 29.005936
_cell_length_b 7.639446
_cell_length_c 11.741446
_cell_angle_alpha 90.000000
_cell_angle_beta 90.000000
_cell_angle_gamma 90.000000
_cell_volume 2601.778586
_symmetry_space_group_name_H-M "I 2 2 2"
_symmetry_group_IT_number 23
_symmetry_cell_setting 'orthorhombic'
loop_
_space_group_symop_operation_xyz
x,y,z
-x,-y,z
x,-y,-z
-x,y,-z
1/2+x,1/2+y,1/2+z
1/2-x,1/2-y,1/2+z
1/2+x,1/2-y,1/2-z
1/2-x,1/2+y,1/2-z
loop_
_atom_site_type_symbol
_atom_site_label
_atom_site_fract_x
_atom_site_fract_y
_atom_site_fract_z
Si Si1 0.894088 0.169577 0.750035
Si Si2 0.178194 0.242183 0.073128
Si Si3 0.983971 0.689614 0.170897
Si Si4 0.216821 0.351138 0.598105
Si Si5 0.337077 0.871184 0.666409
Si Si6 0.423467 0.727924 0.795142
Si Si7 0.000000 0.000000 0.000000
Si Si8 0.868797 0.198570 0.505806
O O1 0.859935 0.137227 0.855706
O O2 0.933833 0.310195 0.774179
O O3 0.868003 0.243711 0.638349
O O4 0.916210 0.981274 0.720316
O O5 0.230024 0.197583 0.107944
O O6 0.165439 0.437456 0.112938
O O7 0.176793 0.240226 0.936072
O O8 0.000000 0.500000 0.124144
O O9 0.024304 0.732557 0.261216
O O10 0.978097 0.854891 0.084581
O O11 0.212494 0.500000 0.500000
O O12 0.196415 0.379598 0.724184
O O13 0.181819 0.207091 0.548316
O O14 0.387624 0.815596 0.707435
O O15 0.404741 0.789644 0.919268
O O16 0.884291 0.000000 0.500000
#
# Coordination Sequence:
#
# PCOD9331575 Si02
#       8
#     8   8   8   8   8   8   2   8
#     4  11  23  43  69 103 142 182 233 291 354 432
#     4  11  26  40  63  93 131 174 227 286 354 421
#     4  12  26  45  74 106 141 186 239 295 358 426
#     4  11  25  41  67  93 129 180 228 292 357 430
#     4  10  25  43  61  93 132 172 228 288 345 432
#     4  10  22  45  69 101 139 184 235 286 354 421
#     4  12  26  48  68  96 144 192 230 288 354 438
#     4   9  22  43  71  98 140 186 231 290 351 420
#
# _framework density 22.292444
#
# number of rings (size 3 to 8) (size 9 to 14) (size 15 to 20)
#    0.000    1.379    1.379    1.862    9.655    2.759 
#    0.000    2.759    0.000    0.000    0.000    0.000 
#    0.000    0.000    0.000    0.000    0.000    0.000 
#
# Total GULP energy -161731.146404 kJ/mol
# GULP energy per Si atom -5576.936083 kJ/mol
# Density = 2.224171 g / cm^3
# Si number density = 22.292444 Si / 1000 Ang^3
#
#
#
# Elastic Constant Matrix: (Units=GPa)
#
#
# Indices 1 2 3 4 5 6 
#
# 1 126.4988 16.2755 49.2225 0.0000 0.0000 0.0000
# 2 16.2755 72.3042 37.7157 0.0000 0.0000 0.0000
# 3 49.2225 37.7157 117.7507 0.0000 0.0000 0.0000
# 4 0.0000 0.0000 0.0000 26.1247 0.0000 0.0000
# 5 0.0000 0.0000 0.0000 0.0000 51.4240 0.0000
# 6 0.0000 0.0000 0.0000 0.0000 0.0000 51.3974
#
#
#
# Elastic Compliance Matrix: (Units=1/GPa)
#
#
# Indices 1 2 3 4 5 6 
#
# 1 0.009441 -0.000080 -0.003921 0.000000 0.000000 0.000000
# 2 -0.000080 0.016605 -0.005285 0.000000 0.000000 0.000000
# 3 -0.003921 -0.005285 0.011825 0.000000 0.000000 0.000000
# 4 0.000000 0.000000 0.000000 0.038278 0.000000 0.000000
# 5 0.000000 0.000000 0.000000 0.000000 0.019446 0.000000
# 6 0.000000 0.000000 0.000000 0.000000 0.000000 0.019456
#
#
# Mechanical properties :
#
#
# Convention : Reuss Voigt Hill
#
# Bulk Modulus (GPa) = 51.81726 58.10900 54.96313
# Shear Modulus (GPa) = 35.69977 40.01189 37.85583
#
# Velocity S-wave (km/s) = 4.00613 4.24118 4.12533
# Velocity P-wave (km/s) = 6.68532 7.07861 6.88477
#
# Compressibility (1/GPa) = 0.01929859
#
# Stress axis : x y z
#
# Youngs Moduli (GPa) = 105.91835 60.22131 84.57004
#
# Poissons Ratio (x) = 0.00481 0.33160
# Poissons Ratio (y) = 0.00846 0.44698
# Poissons Ratio (z) = 0.41531 0.31829
#
# Static dielectric constant tensor:
#      x y z
#    x 1.803650 0.000000 0.000000 
#    y 0.000000 1.877950 0.000000 
#    z 0.000000 0.000000 1.909040 
# 
# From -- ./inp_files/18612.got.cif
#   From: 2010.05.17/outbox.cif.g08.bks.cpg/sg23_10_cif.got.tgz:18612.got - 2010.06.04 12:02:01.
