data_PCOD9331738
_publ_section_title
;
Structure prediction by ZEFSAII (Michael W. Deem and Ramdas Pophale) SiO2 
 PCOD9331738
Probable space group: I 2 2 2
;
_chemical_formula_sum "Si O2"
_cell_formula_units_Z 44
_cell_length_a 8.098012
_cell_length_b 15.388816
_cell_length_c 17.455729
_cell_angle_alpha 90.000000
_cell_angle_beta 90.000000
_cell_angle_gamma 90.000000
_cell_volume 2175.312291
_symmetry_space_group_name_H-M "I 2 2 2"
_symmetry_group_IT_number 23
_symmetry_cell_setting 'orthorhombic'
loop_
_space_group_symop_operation_xyz
x,y,z
-x,-y,z
x,-y,-z
-x,y,-z
1/2+x,1/2+y,1/2+z
1/2-x,1/2-y,1/2+z
1/2+x,1/2-y,1/2-z
1/2-x,1/2+y,1/2-z
loop_
_atom_site_type_symbol
_atom_site_label
_atom_site_fract_x
_atom_site_fract_y
_atom_site_fract_z
Si Si1 0.168949 0.721001 0.144649
Si Si2 0.580710 0.674396 0.725178
Si Si3 0.195095 0.603245 0.583861
Si Si4 0.500000 0.500000 0.194680
Si Si5 0.692237 0.092557 0.901198
Si Si6 0.319944 0.035315 0.413828
O O1 0.317764 0.698862 0.200267
O O2 0.200287 0.815332 0.109758
O O3 0.159483 0.640104 0.087511
O O4 0.014753 0.739619 0.198995
O O5 0.485589 0.586846 0.752865
O O6 0.698961 0.649528 0.654640
O O7 0.216170 0.601935 0.492120
O O8 0.236632 0.507977 0.615301
O O9 0.002516 0.612380 0.606929
O O10 0.665272 0.490374 0.141152
O O11 0.500000 0.000000 0.387148
O O12 0.291583 0.000000 0.500000
#
# Coordination Sequence:
#
# PCOD9331738 Si02
#       6
#     8   8   8   4   8   8
#     4  11  24  40  61  95 125 166 221 270 327 392
#     4  11  23  39  61  96 124 167 208 271 330 394
#     4   9  19  39  62  92 125 163 207 258 320 392
#     4  10  23  44  66  95 136 174 216 272 342 401
#     4   9  19  38  63  90 129 165 199 256 330 392
#     4  10  24  46  67  93 128 183 228 278 331 388
#
# _framework density 20.226980999999999
#
# number of rings (size 3 to 8) (size 9 to 14) (size 15 to 20)
#    0.000    2.000    0.000    3.545    2.545    3.636 
#   26.182    1.818    0.000    0.000    0.000    0.000 
#    0.000    0.000    0.000    0.000    0.000    0.000 
#
# Total GULP energy -122672.209100 kJ/mol
# GULP energy per Si atom -5576.009505 kJ/mol
# Density = 2.018094 g / cm^3
# Si number density = 20.226981 Si / 1000 Ang^3
#
#
#
# Elastic Constant Matrix: (Units=GPa)
#
#
# Indices 1 2 3 4 5 6 
#
# 1 47.5094 14.8201 22.4292 0.0000 0.0000 0.0000
# 2 14.8201 73.4471 20.6807 0.0000 0.0000 0.0000
# 3 22.4292 20.6807 47.6069 0.0000 0.0000 0.0000
# 4 0.0000 0.0000 0.0000 31.4705 0.0000 0.0000
# 5 0.0000 0.0000 0.0000 0.0000 34.8550 0.0000
# 6 0.0000 0.0000 0.0000 0.0000 0.0000 8.6023
#
#
#
# Elastic Compliance Matrix: (Units=1/GPa)
#
#
# Indices 1 2 3 4 5 6 
#
# 1 0.027365 -0.002155 -0.011957 0.000000 0.000000 0.000000
# 2 -0.002155 0.015682 -0.005797 0.000000 0.000000 0.000000
# 3 -0.011957 -0.005797 0.029157 0.000000 0.000000 0.000000
# 4 0.000000 0.000000 0.000000 0.031776 0.000000 0.000000
# 5 0.000000 0.000000 0.000000 0.000000 0.028690 0.000000
# 6 0.000000 0.000000 0.000000 0.000000 0.000000 0.116248
#
#
# Mechanical properties :
#
#
# Convention : Reuss Voigt Hill
#
# Bulk Modulus (GPa) = 30.87666 31.60261 31.23963
# Shear Modulus (GPa) = 16.69269 22.36111 19.52690
#
# Velocity S-wave (km/s) = 2.87587 3.32853 3.11044
# Velocity P-wave (km/s) = 5.13086 5.51634 5.32709
#
# Compressibility (1/GPa) = 0.03238692
#
# Stress axis : x y z
#
# Youngs Moduli (GPa) = 36.54253 63.76567 34.29736
#
# Poissons Ratio (x) = 0.13742 0.41008
# Poissons Ratio (y) = 0.07875 0.19883
# Poissons Ratio (z) = 0.43692 0.36966
#
# Static dielectric constant tensor:
#      x y z
#    x 1.786050 0.000000 0.000000 
#    y 0.000000 1.713960 0.000000 
#    z 0.000000 0.000000 1.709960 
# 
# From -- ./inp_files/23671.got.cif
#   From: 2010.05.17/outbox.cif.g08.bks.cpg/sg23_12_cif.got.tgz:23671.got - 2010.06.04 12:02:01.
