data_PCOD9331992
_publ_section_title
;
Structure prediction by ZEFSAII (Michael W. Deem and Ramdas Pophale) SiO2 
 PCOD9331992
Probable space group: I 2 2 2
;
_chemical_formula_sum "Si O2"
_cell_formula_units_Z 36
_cell_length_a 9.440317
_cell_length_b 7.876263
_cell_length_c 20.162220
_cell_angle_alpha 90.000000
_cell_angle_beta 90.000000
_cell_angle_gamma 90.000000
_cell_volume 1499.150164
_symmetry_space_group_name_H-M "I 2 2 2"
_symmetry_group_IT_number 23
_symmetry_cell_setting 'orthorhombic'
loop_
_space_group_symop_operation_xyz
x,y,z
-x,-y,z
x,-y,-z
-x,y,-z
1/2+x,1/2+y,1/2+z
1/2-x,1/2-y,1/2+z
1/2+x,1/2-y,1/2-z
1/2-x,1/2+y,1/2-z
loop_
_atom_site_type_symbol
_atom_site_label
_atom_site_fract_x
_atom_site_fract_y
_atom_site_fract_z
Si Si1 0.403480 0.161437 0.386642
Si Si2 0.500000 0.500000 0.671042
Si Si3 0.008698 0.692381 0.332552
Si Si4 0.120372 0.173558 0.458274
Si Si5 0.729036 0.660597 0.751689
O O1 0.494153 0.329152 0.371344
O O2 0.281863 0.216214 0.439341
O O3 0.320284 0.119453 0.317460
O O4 0.500000 0.000000 0.405241
O O5 0.637430 0.510641 0.717937
O O6 0.163991 0.720538 0.304964
O O7 0.000000 0.500000 0.358345
O O8 0.956632 0.823359 0.387161
O O9 0.894899 0.710355 0.273517
O O10 0.000000 0.275255 0.500000
O O11 0.135807 0.000000 0.500000
#
# Coordination Sequence:
#
# PCOD9331992 Si02
#       5
#     8   4   8   8   8
#     4  11  26  46  77 113 162 207 267 337 402 482
#     4  12  26  40  72 117 161 204 262 326 420 480
#     4  11  24  44  74 111 157 199 261 332 413 485
#     4  10  25  51  73 105 146 216 280 324 384 473
#     4  11  23  43  69 117 156 202 251 331 418 493
#
# _framework density 24.013604999999998
#
# number of rings (size 3 to 8) (size 9 to 14) (size 15 to 20)
#    0.000    1.111    2.222    3.333    3.111   11.556 
#    0.000    2.222    0.000    5.333    0.000    0.000 
#    0.000    0.000    0.000    0.000    0.000    0.000 
#
# Total GULP energy -100483.339248 kJ/mol
# GULP energy per Si atom -5582.407736 kJ/mol
# Density = 2.395895 g / cm^3
# Si number density = 24.013605 Si / 1000 Ang^3
#
#
#
# Elastic Constant Matrix: (Units=GPa)
#
#
# Indices 1 2 3 4 5 6 
#
# 1 155.3034 29.5976 39.3171 0.0000 0.0000 0.0000
# 2 29.5976 128.7563 25.9227 0.0000 0.0000 0.0000
# 3 39.3171 25.9227 66.3674 0.0000 0.0000 0.0000
# 4 0.0000 0.0000 0.0000 26.8328 0.0000 0.0000
# 5 0.0000 0.0000 0.0000 0.0000 45.3252 0.0000
# 6 0.0000 0.0000 0.0000 0.0000 0.0000 36.7794
#
#
#
# Elastic Compliance Matrix: (Units=1/GPa)
#
#
# Indices 1 2 3 4 5 6 
#
# 1 0.007674 -0.000921 -0.004187 0.000000 0.000000 0.000000
# 2 -0.000921 0.008540 -0.002790 0.000000 0.000000 0.000000
# 3 -0.004187 -0.002790 0.018638 0.000000 0.000000 0.000000
# 4 0.000000 0.000000 0.000000 0.037268 0.000000 0.000000
# 5 0.000000 0.000000 0.000000 0.000000 0.022063 0.000000
# 6 0.000000 0.000000 0.000000 0.000000 0.000000 0.027189
#
#
# Mechanical properties :
#
#
# Convention : Reuss Voigt Hill
#
# Bulk Modulus (GPa) = 52.47556 60.01134 56.24345
# Shear Modulus (GPa) = 34.83840 38.82679 36.83259
#
# Velocity S-wave (km/s) = 3.81304 4.02539 3.92065
# Velocity P-wave (km/s) = 6.42538 6.83007 6.63081
#
# Compressibility (1/GPa) = 0.01905649
#
# Stress axis : x y z
#
# Youngs Moduli (GPa) = 130.30184 117.09488 53.65496
#
# Poissons Ratio (x) = 0.10787 0.22463
# Poissons Ratio (y) = 0.12004 0.14969
# Poissons Ratio (z) = 0.54553 0.32669
#
# Static dielectric constant tensor:
#      x y z
#    x 1.922660 0.000000 0.000000 
#    y 0.000000 2.165670 0.000000 
#    z 0.000000 0.000000 1.951850 
# 
# From -- ./inp_files/25971.got.cif
#   From: 2010.05.17/outbox.cif.g08.bks.cpg/sg23_13_cif.got.tgz:25971.got - 2010.06.04 12:02:01.
