data_PCOD9331630
_publ_section_title
;
Structure prediction by ZEFSAII (Michael W. Deem and Ramdas Pophale) SiO2 
 PCOD9331630
Probable space group: I 2 2 2
;
_chemical_formula_sum "Si O2"
_cell_formula_units_Z 64
_cell_length_a 12.862574
_cell_length_b 17.063136
_cell_length_c 15.699177
_cell_angle_alpha 90.000000
_cell_angle_beta 90.000000
_cell_angle_gamma 90.000000
_cell_volume 3445.590208
_symmetry_space_group_name_H-M "I 2 2 2"
_symmetry_group_IT_number 23
_symmetry_cell_setting 'orthorhombic'
loop_
_space_group_symop_operation_xyz
x,y,z
-x,-y,z
x,-y,-z
-x,y,-z
1/2+x,1/2+y,1/2+z
1/2-x,1/2-y,1/2+z
1/2+x,1/2-y,1/2-z
1/2-x,1/2+y,1/2-z
loop_
_atom_site_type_symbol
_atom_site_label
_atom_site_fract_x
_atom_site_fract_y
_atom_site_fract_z
Si Si1 0.303518 0.438424 0.109267
Si Si2 0.203329 0.397950 0.939009
Si Si3 0.190259 0.389121 0.266482
Si Si4 0.661822 0.175009 0.818785
Si Si5 0.965685 0.813505 0.595511
Si Si6 0.875538 0.515686 0.595136
Si Si7 0.516536 0.091853 0.678384
Si Si8 0.817144 0.783704 0.320965
O O1 0.273817 0.530010 0.098941
O O2 0.284123 0.413280 0.205975
O O3 0.414351 0.399788 0.087274
O O4 0.225220 0.401040 0.038906
O O5 0.084318 0.407598 0.908178
O O6 0.247906 0.320703 0.895772
O O7 0.168254 0.458447 0.332486
O O8 0.196567 0.309314 0.318231
O O9 0.097658 0.376370 0.197367
O O10 0.617693 0.252999 0.863634
O O11 0.585972 0.140809 0.744910
O O12 0.770135 0.187785 0.769466
O O13 0.656503 0.104162 0.884541
O O14 0.000000 0.788752 0.500000
O O15 0.065849 0.808466 0.656554
O O16 0.838732 0.500000 0.500000
O O17 0.000000 0.500000 0.596783
O O18 0.500000 0.000000 0.698934
#
# Coordination Sequence:
#
# PCOD9331630 Si02
#       8
#     8   8   8   8   8   8   8   8
#     4  11  23  40  60  86 120 160 209 247 306 367
#     4  10  23  39  57  87 123 160 205 257 300 369
#     4  12  20  38  59  89 123 156 200 251 308 379
#     4  11  21  37  59  89 122 159 195 248 310 371
#     4  12  24  39  61  90 123 163 206 256 307 366
#     4  11  22  35  60  95 120 151 194 250 314 364
#     4  11  18  35  60  84 121 155 199 249 311 365
#     4  11  23  38  60  85 124 158 198 250 307 367
#
# _framework density 18.574466999999999
#
# number of rings (size 3 to 8) (size 9 to 14) (size 15 to 20)
#    0.000    0.875    7.500    0.750    3.500    1.000 
#    0.000    0.000    0.000    0.000    0.000    0.875 
#    0.000    0.000    0.000    0.000    0.000    0.000 
#
# Total GULP energy -178329.026097 kJ/mol
# GULP energy per Si atom -5572.782066 kJ/mol
# Density = 1.853219 g / cm^3
# Si number density = 18.574467 Si / 1000 Ang^3
#
#
#
# Elastic Constant Matrix: (Units=GPa)
#
#
# Indices 1 2 3 4 5 6 
#
# 1 50.0960 24.7450 41.0306 0.0000 0.0000 0.0000
# 2 24.7450 77.3518 12.3476 0.0000 0.0000 0.0000
# 3 41.0306 12.3476 82.3822 0.0000 0.0000 0.0000
# 4 0.0000 0.0000 0.0000 -173.7785 0.0000 0.0000
# 5 0.0000 0.0000 0.0000 0.0000 13.9985 0.0000
# 6 0.0000 0.0000 0.0000 0.0000 0.0000 15.6863
#
#
#
# Elastic Compliance Matrix: (Units=1/GPa)
#
#
# Indices 1 2 3 4 5 6 
#
# 1 0.039871 -0.009820 -0.018386 0.000000 0.000000 0.000000
# 2 -0.009820 0.015663 0.002543 0.000000 0.000000 0.000000
# 3 -0.018386 0.002543 0.020915 0.000000 0.000000 0.000000
# 4 0.000000 0.000000 0.000000 -0.005754 0.000000 0.000000
# 5 0.000000 0.000000 0.000000 0.000000 0.071436 0.000000
# 6 0.000000 0.000000 0.000000 0.000000 0.000000 0.063750
#
#
# Mechanical properties :
#
#
# Convention : Reuss Voigt Hill
#
# Bulk Modulus (GPa) = 39.80336 40.67515 40.23925
# Shear Modulus (GPa) = 18.82665 -20.03829 -0.60582
#
# Velocity S-wave (km/s) = 3.18713 -3.28809 -0.57172
# Velocity P-wave (km/s) = 5.91771 2.74420 4.61248
#
# Compressibility (1/GPa) = 0.02512351
#
# Stress axis : x y z
#
# Youngs Moduli (GPa) = 25.08077 63.84314 47.81355
#
# Poissons Ratio (x) = 0.62693 0.87910
# Poissons Ratio (y) = 0.24629 -0.12160
# Poissons Ratio (z) = 0.46114 -0.16236
#
# Static dielectric constant tensor:
#      x y z
#    x 1.676740 0.000000 0.000000 
#    y 0.000000 1.653490 0.000000 
#    z 0.000000 0.000000 1.647090 
# 
# From -- ./inp_files/21042.got.cif
#   From: 2010.05.17/outbox.cif.g08.bks.cpg/sg23_11_cif.got.tgz:21042.got - 2010.06.04 12:02:01.
