data_PCOD9331281
_publ_section_title
;
Structure prediction by ZEFSAII (Michael W. Deem and Ramdas Pophale) SiO2 
 PCOD9331281
Probable space group: I 2 2 2
;
_chemical_formula_sum "Si O2"
_cell_formula_units_Z 48
_cell_length_a 34.958458
_cell_length_b 7.635763
_cell_length_c 8.069239
_cell_angle_alpha 90.000000
_cell_angle_beta 90.000000
_cell_angle_gamma 90.000000
_cell_volume 2153.958279
_symmetry_space_group_name_H-M "I 2 2 2"
_symmetry_group_IT_number 23
_symmetry_cell_setting 'orthorhombic'
loop_
_space_group_symop_operation_xyz
x,y,z
-x,-y,z
x,-y,-z
-x,y,-z
1/2+x,1/2+y,1/2+z
1/2-x,1/2-y,1/2+z
1/2+x,1/2-y,1/2-z
1/2-x,1/2+y,1/2-z
loop_
_atom_site_type_symbol
_atom_site_label
_atom_site_fract_x
_atom_site_fract_y
_atom_site_fract_z
Si Si1 0.543546 0.984618 0.797447
Si Si2 0.604055 0.274083 0.816435
Si Si3 0.325765 0.379063 0.661818
Si Si4 0.189264 0.219782 0.671751
Si Si5 0.757731 0.292609 0.015536
Si Si6 0.597877 0.679314 0.786054
O O1 0.572542 0.140215 0.750001
O O2 0.500000 0.000000 0.739554
O O3 0.562367 0.801574 0.741839
O O4 0.542586 0.000000 0.000000
O O5 0.647451 0.203469 0.792184
O O6 0.595989 0.470915 0.750347
O O7 0.601633 0.294566 0.015991
O O8 0.333628 0.500000 0.500000
O O9 0.320416 0.512830 0.814194
O O10 0.286758 0.281581 0.622847
O O11 0.362621 0.263028 0.699332
O O12 0.219477 0.246360 0.819363
O O13 0.214681 0.276932 0.515189
O O14 0.755741 0.500000 0.000000
#
# Coordination Sequence:
#
# PCOD9331281 Si02
#       6
#     8   8   8   8   8   8
#     4   9  18  33  53  87 121 144 185 236 293 357
#     4   9  19  33  55  83 112 156 191 226 292 351
#     4   9  20  38  52  77 112 149 196 234 287 340
#     4  10  22  37  54  79 114 149 193 240 282 346
#     4  11  23  35  55  80 107 153 192 245 286 330
#     4   9  18  33  57  79 114 153 184 240 284 344
#
# _framework density 22.284554
#
# number of rings (size 3 to 8) (size 9 to 14) (size 15 to 20)
#    0.000    2.500    0.000    1.000    9.333    0.667 
#    0.000    5.833    0.000    0.000    0.000   30.333 
#    0.000    0.000    0.000    0.000    0.000    0.000 
#
# Total GULP energy -133879.305481 kJ/mol
# GULP energy per Si atom -5578.304395 kJ/mol
# Density = 2.223383 g / cm^3
# Si number density = 22.284554 Si / 1000 Ang^3
#
#
#
# Elastic Constant Matrix: (Units=GPa)
#
#
# Indices 1 2 3 4 5 6 
#
# 1 241.8201 81.6913 24.2584 0.0000 0.0000 0.0000
# 2 81.6913 80.9661 6.1889 0.0000 0.0000 0.0000
# 3 24.2584 6.1889 38.0368 0.0000 0.0000 0.0000
# 4 0.0000 0.0000 0.0000 14.7224 0.0000 0.0000
# 5 0.0000 0.0000 0.0000 0.0000 11.7969 0.0000
# 6 0.0000 0.0000 0.0000 0.0000 0.0000 -77.0987
#
#
#
# Elastic Compliance Matrix: (Units=1/GPa)
#
#
# Indices 1 2 3 4 5 6 
#
# 1 0.006633 -0.006449 -0.003181 0.000000 0.000000 0.000000
# 2 -0.006449 0.018777 0.001058 0.000000 0.000000 0.000000
# 3 -0.003181 0.001058 0.028147 0.000000 0.000000 0.000000
# 4 0.000000 0.000000 0.000000 0.067924 0.000000 0.000000
# 5 0.000000 0.000000 0.000000 0.000000 0.084768 0.000000
# 6 0.000000 0.000000 0.000000 0.000000 0.000000 -0.012970
#
#
# Mechanical properties :
#
#
# Convention : Reuss Voigt Hill
#
# Bulk Modulus (GPa) = 27.46315 65.01111 46.23713
# Shear Modulus (GPa) = 22.46575 6.46307 14.46441
#
# Velocity S-wave (km/s) = 3.17855 1.70486 2.55046
# Velocity P-wave (km/s) = 5.08149 5.75429 5.42833
#
# Compressibility (1/GPa) = 0.03641243
#
# Stress axis : x y z
#
# Youngs Moduli (GPa) = 150.75815 53.25618 35.52786
#
# Poissons Ratio (x) = 0.34347 0.11301
# Poissons Ratio (y) = 0.97230 -0.03759
# Poissons Ratio (z) = 0.47956 -0.05635
#
# Static dielectric constant tensor:
#      x y z
#    x 1.849750 0.000000 0.000000 
#    y 0.000000 1.903440 0.000000 
#    z 0.000000 0.000000 1.969600 
# 
# From -- ./inp_files/13352.got.cif
#   From: 2010.05.17/outbox.cif.g08.bks.cpg/sg23_7_cif.got.tgz:13352.got - 2010.06.04 12:02:01.
