data_PCOD9331778
_publ_section_title
;
Structure prediction by ZEFSAII (Michael W. Deem and Ramdas Pophale) SiO2 
 PCOD9331778
Probable space group: I 2 2 2
;
_chemical_formula_sum "Si O2"
_cell_formula_units_Z 48
_cell_length_a 23.817560
_cell_length_b 9.533253
_cell_length_c 8.534659
_cell_angle_alpha 90.000000
_cell_angle_beta 90.000000
_cell_angle_gamma 90.000000
_cell_volume 1937.869647
_symmetry_space_group_name_H-M "I 2 2 2"
_symmetry_group_IT_number 23
_symmetry_cell_setting 'orthorhombic'
loop_
_space_group_symop_operation_xyz
x,y,z
-x,-y,z
x,-y,-z
-x,y,-z
1/2+x,1/2+y,1/2+z
1/2-x,1/2-y,1/2+z
1/2+x,1/2-y,1/2-z
1/2-x,1/2+y,1/2-z
loop_
_atom_site_type_symbol
_atom_site_label
_atom_site_fract_x
_atom_site_fract_y
_atom_site_fract_z
Si Si1 0.088282 0.623419 0.888654
Si Si2 0.706710 0.185019 0.850303
Si Si3 0.784321 0.568465 0.156024
Si Si4 0.059102 0.922817 0.355881
Si Si5 0.408312 0.837865 0.034488
Si Si6 0.140227 0.133145 0.910296
O O1 0.148900 0.558824 0.847931
O O2 0.070669 0.675696 0.714703
O O3 0.061705 0.500000 0.000000
O O4 0.102791 0.760436 0.987811
O O5 0.763177 0.274822 0.863383
O O6 0.726539 0.029798 0.803652
O O7 0.678513 0.267004 0.700513
O O8 0.658400 0.189053 0.985942
O O9 0.759166 0.500000 0.000000
O O10 0.058388 0.762661 0.415105
O O11 0.096086 0.938415 0.205712
O O12 0.089555 0.000000 0.500000
O O13 0.000000 0.000000 0.337402
O O14 0.417587 0.000000 0.000000
O O15 0.166033 0.000000 0.000000
#
# Coordination Sequence:
#
# PCOD9331778 Si02
#       6
#     8   8   8   8   8   8
#     4  11  21  42  62  93 140 179 239 283 334 402
#     4  11  25  40  60  96 138 195 245 289 340 392
#     4  11  24  39  58  92 141 189 244 300 326 392
#     4  10  23  46  71 104 138 164 215 288 352 430
#     4  11  22  42  72  99 131 188 234 279 348 421
#     4  11  23  40  66  98 133 185 230 277 354 414
#
# _framework density 24.769469000000001
#
# number of rings (size 3 to 8) (size 9 to 14) (size 15 to 20)
#    0.000    1.167    5.000    2.000    4.667    3.000 
#    0.000    2.500    0.000    0.000    0.000    5.833 
#    0.000    0.000    0.000    0.000    0.000    0.000 
#
# Total GULP energy -133917.944009 kJ/mol
# GULP energy per Si atom -5579.914334 kJ/mol
# Density = 2.471309 g / cm^3
# Si number density = 24.769469 Si / 1000 Ang^3
#
#
#
# Elastic Constant Matrix: (Units=GPa)
#
#
# Indices 1 2 3 4 5 6 
#
# 1 54.5347 12.9520 13.5449 0.0000 0.0000 0.0000
# 2 12.9520 119.1813 7.3582 0.0000 0.0000 0.0000
# 3 13.5449 7.3582 109.2555 0.0000 0.0000 0.0000
# 4 0.0000 0.0000 0.0000 48.1608 0.0000 0.0000
# 5 0.0000 0.0000 0.0000 0.0000 20.2929 0.0000
# 6 0.0000 0.0000 0.0000 0.0000 0.0000 -36.7779
#
#
#
# Elastic Compliance Matrix: (Units=1/GPa)
#
#
# Indices 1 2 3 4 5 6 
#
# 1 0.019367 -0.001965 -0.002269 0.000000 0.000000 0.000000
# 2 -0.001965 0.008625 -0.000337 0.000000 0.000000 0.000000
# 3 -0.002269 -0.000337 0.009457 0.000000 0.000000 0.000000
# 4 0.000000 0.000000 0.000000 0.020764 0.000000 0.000000
# 5 0.000000 0.000000 0.000000 0.000000 0.049278 0.000000
# 6 0.000000 0.000000 0.000000 0.000000 0.000000 -0.027190
#
#
# Mechanical properties :
#
#
# Convention : Reuss Voigt Hill
#
# Bulk Modulus (GPa) = 35.32637 38.96465 37.14551
# Shear Modulus (GPa) = 50.56751 22.94292 36.75521
#
# Velocity S-wave (km/s) = 4.52323 3.04675 3.85631
# Velocity P-wave (km/s) = 6.44767 5.30490 5.90400
#
# Compressibility (1/GPa) = 0.02830746
#
# Stress axis : x y z
#
# Youngs Moduli (GPa) = 51.63412 115.94318 105.74362
#
# Poissons Ratio (x) = 0.22779 0.23990
# Poissons Ratio (y) = 0.10144 0.03567
# Poissons Ratio (z) = 0.11714 0.03911
#
# Static dielectric constant tensor:
#      x y z
#    x 2.013480 0.000000 0.000000 
#    y 0.000000 2.039370 0.000000 
#    z 0.000000 0.000000 2.181190 
# 
# From -- ./inp_files/7338.got.cif
#   From: 2010.05.17/outbox.cif.g08.bks.cpg/sg23_4_cif.got.tgz:7338.got - 2010.06.04 12:02:01.
