data_PCOD9331523
_publ_section_title
;
Structure prediction by ZEFSAII (Michael W. Deem and Ramdas Pophale) SiO2 
 PCOD9331523
Probable space group: I 2 2 2
;
_chemical_formula_sum "Si O2"
_cell_formula_units_Z 64
_cell_length_a 11.162584
_cell_length_b 16.634684
_cell_length_c 17.271314
_cell_angle_alpha 90.000000
_cell_angle_beta 90.000000
_cell_angle_gamma 90.000000
_cell_volume 3207.042204
_symmetry_space_group_name_H-M "I 2 2 2"
_symmetry_group_IT_number 23
_symmetry_cell_setting 'orthorhombic'
loop_
_space_group_symop_operation_xyz
x,y,z
-x,-y,z
x,-y,-z
-x,y,-z
1/2+x,1/2+y,1/2+z
1/2-x,1/2-y,1/2+z
1/2+x,1/2-y,1/2-z
1/2-x,1/2+y,1/2-z
loop_
_atom_site_type_symbol
_atom_site_label
_atom_site_fract_x
_atom_site_fract_y
_atom_site_fract_z
Si Si1 0.560884 0.327972 0.582568
Si Si2 0.708826 0.858562 0.133800
Si Si3 0.294363 0.535405 0.650639
Si Si4 0.139636 0.912256 0.475649
Si Si5 0.067933 0.349853 0.351117
Si Si6 0.073971 0.921729 0.308480
Si Si7 0.202855 0.258702 0.473817
Si Si8 0.906004 0.788608 0.230433
O O1 0.500000 0.323431 0.500000
O O2 0.606166 0.417996 0.600603
O O3 0.683491 0.278776 0.578989
O O4 0.476899 0.293035 0.649273
O O5 0.569567 0.876261 0.149143
O O6 0.771750 0.813296 0.205808
O O7 0.779583 0.942876 0.127905
O O8 0.715820 0.806198 0.055171
O O9 0.165893 0.579494 0.642858
O O10 0.342978 0.550433 0.737481
O O11 0.147047 0.896870 0.383828
O O12 0.197588 0.835931 0.515601
O O13 0.000000 0.910159 0.500000
O O14 0.186531 0.000000 0.500000
O O15 0.090586 0.293132 0.425911
O O16 0.091750 0.294728 0.275995
O O17 0.979466 0.853848 0.281802
O O18 0.000000 0.000000 0.333412
#
# Coordination Sequence:
#
# PCOD9331523 Si02
#       8
#     8   8   8   8   8   8   8   8
#     4  10  22  43  64  96 130 167 218 263 321 390
#     4  12  23  42  67  93 131 173 213 264 329 385
#     4  10  25  41  63  98 131 171 215 267 323 394
#     4  11  22  38  65  99 126 165 215 280 323 377
#     4  11  26  42  65  92 133 172 215 263 331 393
#     4  11  20  39  61  96 130 161 218 271 323 379
#     4  11  24  42  65  97 129 171 213 268 328 387
#     4  11  24  40  65  95 125 176 211 267 320 387
#
# _framework density 19.956083
#
# number of rings (size 3 to 8) (size 9 to 14) (size 15 to 20)
#    0.000    1.125    3.750    3.000    7.000    2.000 
#    2.250    2.500    0.000    0.375    0.000    0.000 
#    0.000    0.000    0.000    0.000    0.000    0.000 
#
# Total GULP energy -178852.284027 kJ/mol
# GULP energy per Si atom -5589.133876 kJ/mol
# Density = 1.991066 g / cm^3
# Si number density = 19.956083 Si / 1000 Ang^3
#
#
#
# Elastic Constant Matrix: (Units=GPa)
#
#
# Indices 1 2 3 4 5 6 
#
# 1 54.8131 -5.8673 1.3275 0.0000 0.0000 0.0000
# 2 -5.8673 87.4372 17.1799 0.0000 0.0000 0.0000
# 3 1.3275 17.1799 76.5782 0.0000 0.0000 0.0000
# 4 0.0000 0.0000 0.0000 23.5387 0.0000 0.0000
# 5 0.0000 0.0000 0.0000 0.0000 20.9607 0.0000
# 6 0.0000 0.0000 0.0000 0.0000 0.0000 15.9352
#
#
#
# Elastic Compliance Matrix: (Units=1/GPa)
#
#
# Indices 1 2 3 4 5 6 
#
# 1 0.018404 0.001357 -0.000624 0.000000 0.000000 0.000000
# 2 0.001357 0.012064 -0.002730 0.000000 0.000000 0.000000
# 3 -0.000624 -0.002730 0.013682 0.000000 0.000000 0.000000
# 4 0.000000 0.000000 0.000000 0.042483 0.000000 0.000000
# 5 0.000000 0.000000 0.000000 0.000000 0.047708 0.000000
# 6 0.000000 0.000000 0.000000 0.000000 0.000000 0.062754
#
#
# Mechanical properties :
#
#
# Convention : Reuss Voigt Hill
#
# Bulk Modulus (GPa) = 24.90162 27.12317 26.01240
# Shear Modulus (GPa) = 23.31279 25.83280 24.57279
#
# Velocity S-wave (km/s) = 3.42161 3.60179 3.51286
# Velocity P-wave (km/s) = 5.30237 5.56041 5.43292
#
# Compressibility (1/GPa) = 0.04015802
#
# Stress axis : x y z
#
# Youngs Moduli (GPa) = 54.33531 82.88924 73.08959
#
# Poissons Ratio (x) = -0.11252 0.04558
# Poissons Ratio (y) = -0.07376 0.19954
# Poissons Ratio (z) = 0.03388 0.22629
#
# Static dielectric constant tensor:
#      x y z
#    x 1.722080 0.000000 0.000000 
#    y 0.000000 1.692850 0.000000 
#    z 0.000000 0.000000 1.732370 
# 
# From -- ./inp_files/24428.got.cif
#   From: 2010.05.17/outbox.cif.g08.bks.cpg/sg23_13_cif.got.tgz:24428.got - 2010.06.04 12:02:01.
