data_PCOD9331285
_publ_section_title
;
Structure prediction by ZEFSAII (Michael W. Deem and Ramdas Pophale) SiO2 
 PCOD9331285
Probable space group: I 2 2 2
;
_chemical_formula_sum "Si O2"
_cell_formula_units_Z 40
_cell_length_a 11.455616
_cell_length_b 9.233522
_cell_length_c 22.980247
_cell_angle_alpha 90.000000
_cell_angle_beta 90.000000
_cell_angle_gamma 90.000000
_cell_volume 2430.751307
_symmetry_space_group_name_H-M "I 2 2 2"
_symmetry_group_IT_number 23
_symmetry_cell_setting 'orthorhombic'
loop_
_space_group_symop_operation_xyz
x,y,z
-x,-y,z
x,-y,-z
-x,y,-z
1/2+x,1/2+y,1/2+z
1/2-x,1/2-y,1/2+z
1/2+x,1/2-y,1/2-z
1/2-x,1/2+y,1/2-z
loop_
_atom_site_type_symbol
_atom_site_label
_atom_site_fract_x
_atom_site_fract_y
_atom_site_fract_z
Si Si1 0.287549 0.165883 0.192470
Si Si2 0.499998 0.667655 0.131524
Si Si3 0.799791 0.500000 0.500000
Si Si4 0.787547 0.665883 0.307529
Si Si5 0.364451 0.499999 0.387972
Si Si6 0.000000 0.739584 0.500000
O O1 0.387365 0.250823 0.157741
O O2 0.250001 0.250001 0.249999
O O3 0.175587 0.136860 0.151192
O O4 0.327990 0.000000 0.205468
O O5 0.500000 0.500000 0.149526
O O6 0.387362 0.749175 0.157742
O O7 0.499997 0.677658 0.061342
O O8 0.717912 0.500004 0.443897
O O9 0.885993 0.637042 0.500001
O O10 0.675584 0.636860 0.348807
O O11 0.500000 0.500000 0.401434
#
# Coordination Sequence:
#
# PCOD9331285 Si02
#       6
#     8   8   4   8   8   4
#     4  10  22  37  58  89 122 159 198 247 306 367
#     4  12  23  38  62  88 124 162 201 259 306 364
#     4  11  19  38  66  84 125 147 212 252 316 375
#     4  10  22  37  58  89 122 159 198 247 306 367
#     4  10  22  37  60  89 119 161 202 244 305 373
#     4  11  19  38  60  96 114 154 202 266 308 368
#
# _framework density 16.455815999999999
#
# number of rings (size 3 to 8) (size 9 to 14) (size 15 to 20)
#    1.200    0.200    4.000    2.400    5.600    0.000 
#    0.000    0.000    0.000    0.000    0.000    2.800 
#    0.000    0.000    0.000    0.000    0.000    0.000 
#
# Total GULP energy -111419.443936 kJ/mol
# GULP energy per Si atom -5570.972197 kJ/mol
# Density = 1.641836 g / cm^3
# Si number density = 16.455816 Si / 1000 Ang^3
#
#
#
# Elastic Constant Matrix: (Units=GPa)
#
#
# Indices 1 2 3 4 5 6 
#
# 1 126.5485 40.9279 48.4771 0.0000 0.0000 0.0000
# 2 40.9279 120.1219 42.9430 0.0000 0.0000 0.0000
# 3 48.4771 42.9430 128.2400 0.0000 0.0000 0.0000
# 4 0.0000 0.0000 0.0000 36.7679 0.0000 0.0000
# 5 0.0000 0.0000 0.0000 0.0000 21.1335 0.0000
# 6 0.0000 0.0000 0.0000 0.0000 0.0000 24.0395
#
#
#
# Elastic Compliance Matrix: (Units=1/GPa)
#
#
# Indices 1 2 3 4 5 6 
#
# 1 0.009760 -0.002279 -0.002926 0.000000 0.000000 0.000000
# 2 -0.002279 0.009989 -0.002483 0.000000 0.000000 0.000000
# 3 -0.002926 -0.002483 0.009736 0.000000 0.000000 0.000000
# 4 0.000000 0.000000 0.000000 0.027198 0.000000 0.000000
# 5 0.000000 0.000000 0.000000 0.000000 0.047318 0.000000
# 6 0.000000 0.000000 0.000000 0.000000 0.000000 0.041598
#
#
# Mechanical properties :
#
#
# Convention : Reuss Voigt Hill
#
# Bulk Modulus (GPa) = 70.88630 71.06740 70.97685
# Shear Modulus (GPa) = 30.17867 32.55900 31.36884
#
# Velocity S-wave (km/s) = 4.28708 4.45294 4.37079
# Velocity P-wave (km/s) = 8.22652 8.34978 8.28838
#
# Compressibility (1/GPa) = 0.01410710
#
# Stress axis : x y z
#
# Youngs Moduli (GPa) = 102.45614 100.10697 102.71499
#
# Poissons Ratio (x) = 0.22818 0.30057
# Poissons Ratio (y) = 0.23354 0.25508
# Poissons Ratio (z) = 0.29982 0.24861
#
# Static dielectric constant tensor:
#      x y z
#    x 1.524370 0.000000 0.000000 
#    y 0.000000 1.546850 0.000000 
#    z 0.000000 0.000000 1.565640 
# 
# From -- ./inp_files/14629.got.cif
#   From: 2010.05.17/outbox.cif.g08.bks.cpg/sg23_8_cif.got.tgz:14629.got - 2010.06.04 12:02:01.
