data_PCOD9331079
_publ_section_title
;
Structure prediction by ZEFSAII (Michael W. Deem and Ramdas Pophale) SiO2 
 PCOD9331079
Probable space group: I 2 2 2
;
_chemical_formula_sum "Si O2"
_cell_formula_units_Z 48
_cell_length_a 9.457524
_cell_length_b 29.920231
_cell_length_c 8.965448
_cell_angle_alpha 90.000000
_cell_angle_beta 90.000000
_cell_angle_gamma 90.000000
_cell_volume 2536.964500
_symmetry_space_group_name_H-M "I 2 2 2"
_symmetry_group_IT_number 23
_symmetry_cell_setting 'orthorhombic'
loop_
_space_group_symop_operation_xyz
x,y,z
-x,-y,z
x,-y,-z
-x,y,-z
1/2+x,1/2+y,1/2+z
1/2-x,1/2-y,1/2+z
1/2+x,1/2-y,1/2-z
1/2-x,1/2+y,1/2-z
loop_
_atom_site_type_symbol
_atom_site_label
_atom_site_fract_x
_atom_site_fract_y
_atom_site_fract_z
Si Si1 0.677709 0.125769 0.657959
Si Si2 0.659702 0.547142 0.685287
Si Si3 0.168939 0.052616 0.827267
Si Si4 0.366727 0.286867 0.894222
Si Si5 0.133758 0.727759 0.890592
Si Si6 0.142800 0.370543 0.188019
O O1 0.752202 0.085242 0.738017
O O2 0.775804 0.169883 0.656154
O O3 0.522712 0.131552 0.729083
O O4 0.655597 0.114935 0.484179
O O5 0.669776 0.550973 0.506571
O O6 0.711522 0.497199 0.726263
O O7 0.494687 0.555312 0.722557
O O8 0.263648 0.094146 0.777113
O O9 0.405377 0.260821 0.742957
O O10 0.500000 0.298161 0.000000
O O11 0.260438 0.257947 0.999214
O O12 0.187011 0.681457 0.815671
O O13 0.000000 0.718460 0.000000
#
# Coordination Sequence:
#
# PCOD9331079 Si02
#       6
#     8   8   8   8   8   8
#     4  10  22  39  57  87 120 155 203 250 302 371
#     4   9  20  39  60  89 121 152 206 250 300 369
#     4   9  20  39  61  86 122 160 193 255 307 360
#     4  11  24  39  66  91 122 171 210 263 316 370
#     4  11  22  45  61  89 130 163 210 262 314 379
#     4  10  21  40  60  81 123 161 194 251 312 362
#
# _framework density 18.920248000000001
#
# number of rings (size 3 to 8) (size 9 to 14) (size 15 to 20)
#    0.000    2.000    3.333    2.000    4.667    3.333 
#    3.000    5.000    0.000    0.000    0.000    0.000 
#    0.000    0.000    0.000    0.000    0.000    0.000 
#
# Total GULP energy -133759.152318 kJ/mol
# GULP energy per Si atom -5573.298013 kJ/mol
# Density = 1.887719 g / cm^3
# Si number density = 18.920248 Si / 1000 Ang^3
#
#
#
# Elastic Constant Matrix: (Units=GPa)
#
#
# Indices 1 2 3 4 5 6 
#
# 1 75.7213 47.5545 30.3952 0.0007 -0.0017 -0.0005
# 2 47.5545 104.6671 52.5115 0.0025 -0.0001 -0.0004
# 3 30.3952 52.5115 42.9321 -0.0164 -0.0125 -0.0033
# 4 0.0007 0.0025 -0.0164 40.1340 -0.0029 -0.0012
# 5 -0.0017 -0.0001 -0.0125 -0.0029 33.1396 0.0000
# 6 -0.0005 -0.0004 -0.0033 -0.0012 0.0000 28.6603
#
#
#
# Elastic Compliance Matrix: (Units=1/GPa)
#
#
# Indices 1 2 3 4 5 6 
#
# 1 0.019403 -0.004979 -0.007647 -0.000003 -0.000002 -0.000001
# 2 -0.004979 0.026006 -0.028284 -0.000013 -0.000011 -0.000003
# 3 -0.007647 -0.028284 0.063302 0.000028 0.000023 0.000007
# 4 -0.000003 -0.000013 0.000028 0.024917 0.000002 0.000001
# 5 -0.000002 -0.000011 0.000023 0.000002 0.030175 0.000000
# 6 -0.000001 -0.000003 0.000007 0.000001 0.000000 0.034891
#
#
# Mechanical properties :
#
#
# Convention : Reuss Voigt Hill
#
# Bulk Modulus (GPa) = 37.18748 53.80477 45.49612
# Shear Modulus (GPa) = 17.27248 26.57740 21.92494
#
# Velocity S-wave (km/s) = 3.02472 3.75201 3.40782
# Velocity P-wave (km/s) = 5.64766 6.87528 6.29149
#
# Compressibility (1/GPa) = 0.02689077
#
# Stress axis : x y z
#
# Youngs Moduli (GPa) = 51.53901 38.45199 15.79740
#
# Poissons Ratio (x) = 0.19146 0.12080
# Poissons Ratio (y) = 0.25662 0.44682
# Poissons Ratio (z) = 0.39411 1.08758
#
# Static dielectric constant tensor:
#      x y z
#    x 1.690330 0.000000 0.000000 
#    y 0.000000 1.661700 0.000000 
#    z 0.000000 0.000000 1.647490 
# 
# From -- ./inp_files/7353.got.cif
#   From: 2010.05.17/outbox.cif.g08.bks.cpg/sg23_4_cif.got.tgz:7353.got - 2010.06.04 12:02:01.
