data_PCOD9331286
_publ_section_title
;
Structure prediction by ZEFSAII (Michael W. Deem and Ramdas Pophale) SiO2 
 PCOD9331286
Probable space group: I 2 2 2
;
_chemical_formula_sum "Si O2"
_cell_formula_units_Z 60
_cell_length_a 10.484486
_cell_length_b 12.766547
_cell_length_c 20.548458
_cell_angle_alpha 90.000000
_cell_angle_beta 90.000000
_cell_angle_gamma 90.000000
_cell_volume 2750.425144
_symmetry_space_group_name_H-M "I 2 2 2"
_symmetry_group_IT_number 23
_symmetry_cell_setting 'orthorhombic'
loop_
_space_group_symop_operation_xyz
x,y,z
-x,-y,z
x,-y,-z
-x,y,-z
1/2+x,1/2+y,1/2+z
1/2-x,1/2-y,1/2+z
1/2+x,1/2-y,1/2-z
1/2-x,1/2+y,1/2-z
loop_
_atom_site_type_symbol
_atom_site_label
_atom_site_fract_x
_atom_site_fract_y
_atom_site_fract_z
Si Si1 0.130274 0.555743 0.836764
Si Si2 0.012894 0.118367 0.423257
Si Si3 0.102833 0.421921 0.312812
Si Si4 0.119115 0.198400 0.129364
Si Si5 0.000000 0.271393 0.000000
Si Si6 0.859060 0.177976 0.187173
Si Si7 0.296059 0.865446 0.597094
Si Si8 0.879600 0.263693 0.326391
O O1 0.136086 0.536258 0.759580
O O2 0.126573 0.677710 0.851972
O O3 0.221224 0.485843 0.881165
O O4 0.000000 0.500000 0.857993
O O5 0.152157 0.168696 0.414878
O O6 0.000000 0.112927 0.500000
O O7 0.912309 0.192110 0.387761
O O8 0.000000 0.000000 0.397094
O O9 0.240936 0.389980 0.340172
O O10 0.000000 0.500000 0.345744
O O11 0.010617 0.321038 0.305781
O O12 0.075812 0.202490 0.053884
O O13 0.259730 0.163125 0.152813
O O14 0.001880 0.144953 0.167619
O O15 0.893898 0.340466 0.038428
O O16 0.844477 0.294135 0.156679
O O17 0.844867 0.192769 0.264186
#
# Coordination Sequence:
#
# PCOD9331286 Si02
#       8
#     8   8   8   8   4   8   8   8
#     4  11  18  34  56  90 127 161 211 253 310 380
#     4  11  25  42  58  93 137 174 211 258 324 404
#     4  11  23  40  63  91 124 165 218 281 324 381
#     4  11  22  35  61  93 124 169 212 263 318 391
#     4  10  22  37  58  94 127 168 214 248 317 402
#     4  11  20  39  60  90 124 165 221 263 324 374
#     4  11  22  38  62  90 130 178 208 268 319 391
#     4  12  21  41  65  91 128 174 215 266 330 388
#
# _framework density 21.814810000000001
#
# number of rings (size 3 to 8) (size 9 to 14) (size 15 to 20)
#    0.000    0.933    6.667    2.400    0.000    2.133 
#    0.000    0.667    0.000    0.400    0.000    3.733 
#    0.000    0.000    0.000    0.000    0.000    0.000 
#
# Total GULP energy -167251.707708 kJ/mol
# GULP energy per Si atom -5575.056924 kJ/mol
# Density = 2.176516 g / cm^3
# Si number density = 21.814810 Si / 1000 Ang^3
#
#
#
# Elastic Constant Matrix: (Units=GPa)
#
#
# Indices 1 2 3 4 5 6 
#
# 1 174.9521 9.4117 36.3434 0.0000 0.0000 0.0000
# 2 9.4117 29.6410 -2.1981 0.0000 0.0000 0.0000
# 3 36.3434 -2.1981 87.6743 0.0000 0.0000 0.0000
# 4 0.0000 0.0000 0.0000 -134.7746 0.0000 0.0000
# 5 0.0000 0.0000 0.0000 0.0000 17.1586 0.0000
# 6 0.0000 0.0000 0.0000 0.0000 0.0000 19.1919
#
#
#
# Elastic Compliance Matrix: (Units=1/GPa)
#
#
# Indices 1 2 3 4 5 6 
#
# 1 0.006399 -0.002233 -0.002708 0.000000 0.000000 0.000000
# 2 -0.002233 0.034579 0.001792 0.000000 0.000000 0.000000
# 3 -0.002708 0.001792 0.012573 0.000000 0.000000 0.000000
# 4 0.000000 0.000000 0.000000 -0.007420 0.000000 0.000000
# 5 0.000000 0.000000 0.000000 0.000000 0.058280 0.000000
# 6 0.000000 0.000000 0.000000 0.000000 0.000000 0.052105
#
#
# Mechanical properties :
#
#
# Convention : Reuss Voigt Hill
#
# Bulk Modulus (GPa) = 21.16227 42.15350 31.65788
# Shear Modulus (GPa) = 28.00109 -3.10411 12.44849
#
# Velocity S-wave (km/s) = 3.58660 -1.19416 2.39141
# Velocity P-wave (km/s) = 5.18397 4.17899 4.70837
#
# Compressibility (1/GPa) = 0.04725391
#
# Stress axis : x y z
#
# Youngs Moduli (GPa) = 156.28500 28.91937 79.53255
#
# Poissons Ratio (x) = 0.06456 0.21540
# Poissons Ratio (y) = 0.34891 -0.14255
# Poissons Ratio (z) = 0.42327 -0.05183
#
# Static dielectric constant tensor:
#      x y z
#    x 2.401650 0.000000 0.000000 
#    y 0.000000 1.859000 0.000000 
#    z 0.000000 0.000000 3.963530 
# 
# From -- ./inp_files/26769.got.cif
#   From: 2010.05.17/outbox.cif.g08.bks.cpg/sg23_14_cif.got.tgz:26769.got - 2010.06.04 12:02:01.
