data_PCOD9331706
_publ_section_title
;
Structure prediction by ZEFSAII (Michael W. Deem and Ramdas Pophale) SiO2 
 PCOD9331706
Probable space group: I 2 2 2
;
_chemical_formula_sum "Si O2"
_cell_formula_units_Z 40
_cell_length_a 23.099230
_cell_length_b 9.263634
_cell_length_c 8.617951
_cell_angle_alpha 90.000000
_cell_angle_beta 90.000000
_cell_angle_gamma 90.000000
_cell_volume 1844.093392
_symmetry_space_group_name_H-M "I 2 2 2"
_symmetry_group_IT_number 23
_symmetry_cell_setting 'orthorhombic'
loop_
_space_group_symop_operation_xyz
x,y,z
-x,-y,z
x,-y,-z
-x,y,-z
1/2+x,1/2+y,1/2+z
1/2-x,1/2-y,1/2+z
1/2+x,1/2-y,1/2-z
1/2-x,1/2+y,1/2-z
loop_
_atom_site_type_symbol
_atom_site_label
_atom_site_fract_x
_atom_site_fract_y
_atom_site_fract_z
Si Si1 0.289354 0.323793 0.752984
Si Si2 0.647496 0.500000 0.000000
Si Si3 0.944472 0.105840 0.251723
Si Si4 0.944211 0.568689 0.672796
Si Si5 0.820186 0.503105 0.814538
Si Si6 0.134768 0.000000 0.000000
O O1 0.223221 0.375483 0.749476
O O2 0.297946 0.153756 0.739371
O O3 0.325301 0.407734 0.617868
O O4 0.313402 0.378803 0.919320
O O5 0.604473 0.548861 0.133208
O O6 0.958114 0.262238 0.319055
O O7 0.909656 0.106785 0.089413
O O8 0.000000 0.000000 0.245584
O O9 0.940073 0.500000 0.500000
O O10 0.884303 0.534110 0.755261
O O11 0.000000 0.500000 0.753176
O O12 0.819280 0.500000 0.000000
#
# Coordination Sequence:
#
# PCOD9331706 Si02
#       6
#     8   4   8   8   8   4
#     4  11  26  44  73 106 143 189 241 307 365 439
#     4  10  23  42  72 102 137 180 240 300 364 420
#     4  11  24  44  74 101 140 190 248 296 354 437
#     4  11  28  47  70 104 146 193 243 295 367 436
#     4  12  28  47  73 106 149 191 247 298 373 434
#     4  10  25  44  72 102 147 184 250 300 376 420
#
# _framework density 21.690874999999998
#
# number of rings (size 3 to 8) (size 9 to 14) (size 15 to 20)
#    0.000    1.000    1.000    3.000   21.000    0.400 
#    3.600    0.000    0.000    0.000    0.000    0.000 
#    0.000    0.000    0.000    0.000    0.000    0.000 
#
# Total GULP energy -111853.851612 kJ/mol
# GULP energy per Si atom -5592.692581 kJ/mol
# Density = 2.164151 g / cm^3
# Si number density = 21.690875 Si / 1000 Ang^3
#
#
#
# Elastic Constant Matrix: (Units=GPa)
#
#
# Indices 1 2 3 4 5 6 
#
# 1 196.2349 74.8668 44.8605 0.0000 0.0000 0.0000
# 2 74.8668 100.3548 15.4958 0.0000 0.0000 0.0000
# 3 44.8605 15.4958 87.3565 0.0000 0.0000 0.0000
# 4 0.0000 0.0000 0.0000 32.6502 0.0000 0.0000
# 5 0.0000 0.0000 0.0000 0.0000 10.2458 0.0000
# 6 0.0000 0.0000 0.0000 0.0000 0.0000 28.0444
#
#
#
# Elastic Compliance Matrix: (Units=1/GPa)
#
#
# Indices 1 2 3 4 5 6 
#
# 1 0.007854 -0.005384 -0.003078 0.000000 0.000000 0.000000
# 2 -0.005384 0.013936 0.000293 0.000000 0.000000 0.000000
# 3 -0.003078 0.000293 0.012976 0.000000 0.000000 0.000000
# 4 0.000000 0.000000 0.000000 0.030628 0.000000 0.000000
# 5 0.000000 0.000000 0.000000 0.000000 0.097601 0.000000
# 6 0.000000 0.000000 0.000000 0.000000 0.000000 0.035658
#
#
# Mechanical properties :
#
#
# Convention : Reuss Voigt Hill
#
# Bulk Modulus (GPa) = 54.26718 72.71027 63.48872
# Shear Modulus (GPa) = 22.61091 30.76962 26.69027
#
# Velocity S-wave (km/s) = 3.23215 3.77045 3.51163
# Velocity P-wave (km/s) = 6.24514 7.24907 6.76575
#
# Compressibility (1/GPa) = 0.01842734
#
# Stress axis : x y z
#
# Youngs Moduli (GPa) = 127.33115 71.75794 77.06458
#
# Poissons Ratio (x) = 0.38632 0.23721
# Poissons Ratio (y) = 0.68550 -0.02255
# Poissons Ratio (z) = 0.39194 -0.02100
#
# Static dielectric constant tensor:
#      x y z
#    x 1.802170 0.000000 0.000000 
#    y 0.000000 1.796290 0.000000 
#    z 0.000000 0.000000 1.859160 
# 
# From -- ./inp_files/12452.got.cif
#   From: 2010.05.17/outbox.cif.g08.bks.cpg/sg23_7_cif.got.tgz:12452.got - 2010.06.04 12:02:01.
