data_PCOD9331390
_publ_section_title
;
Structure prediction by ZEFSAII (Michael W. Deem and Ramdas Pophale) SiO2 
 PCOD9331390
Probable space group: I 2 2 2
;
_chemical_formula_sum "Si O2"
_cell_formula_units_Z 22
_cell_length_a 11.806545
_cell_length_b 13.602249
_cell_length_c 6.972368
_cell_angle_alpha 90.000000
_cell_angle_beta 90.000000
_cell_angle_gamma 90.000000
_cell_volume 1119.731378
_symmetry_space_group_name_H-M "I 2 2 2"
_symmetry_group_IT_number 23
_symmetry_cell_setting 'orthorhombic'
loop_
_space_group_symop_operation_xyz
x,y,z
-x,-y,z
x,-y,-z
-x,y,-z
1/2+x,1/2+y,1/2+z
1/2-x,1/2-y,1/2+z
1/2+x,1/2-y,1/2-z
1/2-x,1/2+y,1/2-z
loop_
_atom_site_type_symbol
_atom_site_label
_atom_site_fract_x
_atom_site_fract_y
_atom_site_fract_z
Si Si1 0.103450 0.561603 0.698959
Si Si2 0.500000 0.500000 0.500000
Si Si3 0.500000 0.243705 0.000000
Si Si4 0.145641 0.917010 0.341518
O O1 0.126829 0.500000 0.500000
O O2 0.220494 0.575301 0.807422
O O3 0.000000 0.500000 0.788693
O O4 0.055066 0.669166 0.651510
O O5 0.580302 0.439068 0.643156
O O6 0.597678 0.314035 0.917775
O O7 0.119268 0.000000 0.500000
#
# Coordination Sequence:
#
# PCOD9331390 Si02
#       4
#     8   2   4   8
#     4   9  22  43  64  90 136 169 206 265 328 379
#     4  12  22  40  66  98 130 172 206 286 312 370
#     4  10  22  40  62 106 118 170 224 260 314 398
#     4  12  23  41  70  95 130 170 224 264 328 385
#
# _framework density 19.647568
#
# number of rings (size 3 to 8) (size 9 to 14) (size 15 to 20)
#    0.000    1.818    5.455    0.000    0.000    9.455 
#    0.000    0.000    0.000    0.000    0.000    0.000 
#    0.000    0.000    0.000    0.000    0.000    0.000 
#
# Total GULP energy -61366.324780 kJ/mol
# GULP energy per Si atom -5578.756798 kJ/mol
# Density = 1.960285 g / cm^3
# Si number density = 19.647568 Si / 1000 Ang^3
#
#
#
# Elastic Constant Matrix: (Units=GPa)
#
#
# Indices 1 2 3 4 5 6 
#
# 1 224.8224 89.9958 59.2023 0.0000 0.0000 0.0000
# 2 89.9958 172.7153 58.5461 0.0000 0.0000 0.0000
# 3 59.2023 58.5461 88.1214 0.0000 0.0000 0.0000
# 4 0.0000 0.0000 0.0000 -12.6691 0.0000 0.0000
# 5 0.0000 0.0000 0.0000 0.0000 34.5425 0.0000
# 6 0.0000 0.0000 0.0000 0.0000 0.0000 -209.3010
#
#
#
# Elastic Compliance Matrix: (Units=1/GPa)
#
#
# Indices 1 2 3 4 5 6 
#
# 1 0.006029 -0.002283 -0.002534 0.000000 0.000000 0.000000
# 2 -0.002283 0.008337 -0.004005 0.000000 0.000000 0.000000
# 3 -0.002534 -0.004005 0.015711 0.000000 0.000000 0.000000
# 4 0.000000 0.000000 0.000000 -0.078932 0.000000 0.000000
# 5 0.000000 0.000000 0.000000 0.000000 0.028950 0.000000
# 6 0.000000 0.000000 0.000000 0.000000 0.000000 -0.004778
#
#
# Mechanical properties :
#
#
# Convention : Reuss Voigt Hill
#
# Bulk Modulus (GPa) = 80.42749 100.12751 90.27750
# Shear Modulus (GPa) = -1727.24236 -18.95785 -873.10011
#
# Velocity S-wave (km/s) = -29.68200 -3.10965 -21.10321
# Velocity P-wave (km/s) = 33.67003 6.17893 23.40397
#
# Compressibility (1/GPa) = 0.01243356
#
# Stress axis : x y z
#
# Youngs Moduli (GPa) = 165.86805 119.94780 63.64778
#
# Poissons Ratio (x) = 0.27378 0.16128
# Poissons Ratio (y) = 0.37860 0.25494
# Poissons Ratio (z) = 0.42029 0.48045
#
# Static dielectric constant tensor:
#      x y z
#    x 1.696720 0.000000 0.000000 
#    y 0.000000 1.649510 0.000000 
#    z 0.000000 0.000000 1.747650 
# 
# From -- ./inp_files/1942.got.cif
#   From: 2010.05.17/outbox.cif.g08.bks.cpg/sg23_1_cif.got.tgz:1942.got - 2010.06.04 12:02:01.
