data_PCOD9331896
_publ_section_title
;
Structure prediction by ZEFSAII (Michael W. Deem and Ramdas Pophale) SiO2 
 PCOD9331896
Probable space group: I 2 2 2
;
_chemical_formula_sum "Si O2"
_cell_formula_units_Z 32
_cell_length_a 22.802454
_cell_length_b 8.091881
_cell_length_c 7.363076
_cell_angle_alpha 90.000000
_cell_angle_beta 90.000000
_cell_angle_gamma 90.000000
_cell_volume 1358.596085
_symmetry_space_group_name_H-M "I 2 2 2"
_symmetry_group_IT_number 23
_symmetry_cell_setting 'orthorhombic'
loop_
_space_group_symop_operation_xyz
x,y,z
-x,-y,z
x,-y,-z
-x,y,-z
1/2+x,1/2+y,1/2+z
1/2-x,1/2-y,1/2+z
1/2+x,1/2-y,1/2-z
1/2-x,1/2+y,1/2-z
loop_
_atom_site_type_symbol
_atom_site_label
_atom_site_fract_x
_atom_site_fract_y
_atom_site_fract_z
Si Si1 0.263487 0.004781 0.781172
Si Si2 0.839929 0.811372 0.239360
Si Si3 0.933730 0.801071 0.533399
Si Si4 0.875840 0.666192 0.891194
O O1 0.196863 0.974395 0.716862
O O2 0.313010 0.885789 0.694458
O O3 0.286882 0.181871 0.720738
O O4 0.264010 0.000000 0.000000
O O5 0.885056 0.745256 0.387845
O O6 0.870247 0.805639 0.044993
O O7 0.915002 0.735139 0.729241
O O8 0.000000 0.744089 0.500000
O O9 0.933206 0.000000 0.500000
O O10 0.896408 0.500000 0.000000
#
# Coordination Sequence:
#
# PCOD9331896 Si02
#       4
#     8   8   8   8
#     4  11  22  41  66 107 145 187 238 311 392 457
#     4  11  25  42  71 104 146 191 247 311 390 459
#     4  11  27  49  74 106 150 204 257 316 384 463
#     4  10  24  45  71 110 144 191 249 314 380 457
#
# _framework density 23.553726999999999
#
# number of rings (size 3 to 8) (size 9 to 14) (size 15 to 20)
#    0.000    1.250    2.500    1.500    7.000    2.000 
#    0.000   16.250    0.000    0.000    0.000    0.000 
#    0.000    0.000    0.000    0.000    0.000    0.000 
#
# Total GULP energy -89490.125049 kJ/mol
# GULP energy per Si atom -5593.132816 kJ/mol
# Density = 2.350012 g / cm^3
# Si number density = 23.553727 Si / 1000 Ang^3
#
#
#
# Elastic Constant Matrix: (Units=GPa)
#
#
# Indices 1 2 3 4 5 6 
#
# 1 141.3641 39.0980 82.4837 0.0000 0.0000 0.0000
# 2 39.0980 68.8741 32.4673 0.0000 0.0000 0.0000
# 3 82.4837 32.4673 211.9190 0.0000 0.0000 0.0000
# 4 0.0000 0.0000 0.0000 28.1928 0.0000 0.0000
# 5 0.0000 0.0000 0.0000 0.0000 -18.0778 0.0000
# 6 0.0000 0.0000 0.0000 0.0000 0.0000 -1.3521
#
#
#
# Elastic Compliance Matrix: (Units=1/GPa)
#
#
# Indices 1 2 3 4 5 6 
#
# 1 0.010173 -0.004213 -0.003314 0.000000 0.000000 0.000000
# 2 -0.004213 0.017394 -0.001025 0.000000 0.000000 0.000000
# 3 -0.003314 -0.001025 0.006166 0.000000 0.000000 0.000000
# 4 0.000000 0.000000 0.000000 0.035470 0.000000 0.000000
# 5 0.000000 0.000000 0.000000 0.000000 -0.055316 0.000000
# 6 0.000000 0.000000 0.000000 0.000000 0.000000 -0.739600
#
#
# Mechanical properties :
#
#
# Convention : Reuss Voigt Hill
#
# Bulk Modulus (GPa) = 60.13701 81.13949 70.63825
# Shear Modulus (GPa) = -7.11169 19.62647 6.25739
#
# Velocity S-wave (km/s) = -1.73951 2.88976 1.63169
# Velocity P-wave (km/s) = 4.64249 6.75705 5.79700
#
# Compressibility (1/GPa) = 0.01662869
#
# Stress axis : x y z
#
# Youngs Moduli (GPa) = 98.30207 57.49147 162.18579
#
# Poissons Ratio (x) = 0.24218 0.53750
# Poissons Ratio (y) = 0.41410 0.16628
# Poissons Ratio (z) = 0.32578 0.05894
#
# Static dielectric constant tensor:
#      x y z
#    x 1.866710 0.000000 0.000000 
#    y 0.000000 2.056220 0.000000 
#    z 0.000000 0.000000 1.863700 
# 
# From -- ./inp_files/12374.got.cif
#   From: 2010.05.17/outbox.cif.g08.bks.cpg/sg23_7_cif.got.tgz:12374.got - 2010.06.04 12:02:01.
