data_PCOD9331315
_publ_section_title
;
Structure prediction by ZEFSAII (Michael W. Deem and Ramdas Pophale) SiO2 
 PCOD9331315
Probable space group: I 2 2 2
;
_chemical_formula_sum "Si O2"
_cell_formula_units_Z 44
_cell_length_a 9.525421
_cell_length_b 14.981925
_cell_length_c 15.051432
_cell_angle_alpha 90.000000
_cell_angle_beta 90.000000
_cell_angle_gamma 90.000000
_cell_volume 2147.976962
_symmetry_space_group_name_H-M "I 2 2 2"
_symmetry_group_IT_number 23
_symmetry_cell_setting 'orthorhombic'
loop_
_space_group_symop_operation_xyz
x,y,z
-x,-y,z
x,-y,-z
-x,y,-z
1/2+x,1/2+y,1/2+z
1/2-x,1/2-y,1/2+z
1/2+x,1/2-y,1/2-z
1/2-x,1/2+y,1/2-z
loop_
_atom_site_type_symbol
_atom_site_label
_atom_site_fract_x
_atom_site_fract_y
_atom_site_fract_z
Si Si1 0.190492 0.839664 0.262059
Si Si2 0.245256 0.637653 0.230451
Si Si3 0.000000 0.748421 0.000000
Si Si4 0.463916 0.598669 0.376851
Si Si5 0.967341 0.104799 0.600183
Si Si6 0.970952 0.597478 0.151587
O O1 0.253620 0.742363 0.248396
O O2 0.067806 0.840369 0.335136
O O3 0.316196 0.897139 0.305279
O O4 0.107033 0.867140 0.172474
O O5 0.345642 0.589806 0.300712
O O6 0.309830 0.619416 0.133077
O O7 0.084790 0.609157 0.229854
O O8 0.911157 0.826821 0.052690
O O9 0.003755 0.677070 0.081798
O O10 0.500000 0.500000 0.409021
O O11 0.000000 0.129529 0.500000
O O12 0.000000 0.000000 0.611379
O O13 0.000000 0.500000 0.111545
#
# Coordination Sequence:
#
# PCOD9331315 Si02
#       6
#     8   8   4   8   8   8
#     4  11  21  41  61  87 124 161 204 248 297 365
#     4  11  21  41  61  87 124 161 204 248 297 365
#     4  12  24  40  60  94 128 154 206 254 304 354
#     4  11  23  43  66  86 119 168 214 245 291 360
#     4  10  22  38  60  88 118 156 201 244 300 362
#     4  12  24  39  63  94 127 157 194 255 320 361
#
# _framework density 20.484390000000001
#
# number of rings (size 3 to 8) (size 9 to 14) (size 15 to 20)
#    0.000    0.909    3.636    6.000    2.545    0.000 
#    0.000    0.000    0.000    0.000    0.000    3.818 
#    0.000    0.000    0.000    0.000    0.000    0.000 
#
# Total GULP energy -122522.058420 kJ/mol
# GULP energy per Si atom -5569.184474 kJ/mol
# Density = 2.043777 g / cm^3
# Si number density = 20.484390 Si / 1000 Ang^3
#
#
#
# Elastic Constant Matrix: (Units=GPa)
#
#
# Indices 1 2 3 4 5 6 
#
# 1 87.3500 -5.8822 4.3401 0.0000 0.0000 0.0000
# 2 -5.8822 124.7810 13.3915 0.0000 0.0000 0.0000
# 3 4.3401 13.3915 67.6200 0.0000 0.0000 0.0000
# 4 0.0000 0.0000 0.0000 16.2965 0.0000 0.0000
# 5 0.0000 0.0000 0.0000 0.0000 2.7820 0.0000
# 6 0.0000 0.0000 0.0000 0.0000 0.0000 26.8526
#
#
#
# Elastic Compliance Matrix: (Units=1/GPa)
#
#
# Indices 1 2 3 4 5 6 
#
# 1 0.011534 0.000637 -0.000866 0.000000 0.000000 0.000000
# 2 0.000637 0.008223 -0.001669 0.000000 0.000000 0.000000
# 3 -0.000866 -0.001669 0.015175 0.000000 0.000000 0.000000
# 4 0.000000 0.000000 0.000000 0.061363 0.000000 0.000000
# 5 0.000000 0.000000 0.000000 0.000000 0.359450 0.000000
# 6 0.000000 0.000000 0.000000 0.000000 0.000000 0.037240
#
#
# Mechanical properties :
#
#
# Convention : Reuss Voigt Hill
#
# Bulk Modulus (GPa) = 32.11934 33.71665 32.91799
# Shear Modulus (GPa) = 9.85879 27.04633 18.45256
#
# Velocity S-wave (km/s) = 2.19620 3.63759 3.00461
# Velocity P-wave (km/s) = 4.70585 5.84279 5.30486
#
# Compressibility (1/GPa) = 0.03113389
#
# Stress axis : x y z
#
# Youngs Moduli (GPa) = 86.69926 121.60696 65.89894
#
# Poissons Ratio (x) = -0.07743 0.05710
# Poissons Ratio (y) = -0.05520 0.11001
# Poissons Ratio (z) = 0.07512 0.20301
#
# Static dielectric constant tensor:
#      x y z
#    x 1.768160 0.000000 0.000000 
#    y 0.000000 1.747830 0.000000 
#    z 0.000000 0.000000 1.787570 
# 
# From -- ./inp_files/23685.got.cif
#   From: 2010.05.17/outbox.cif.g08.bks.cpg/sg23_12_cif.got.tgz:23685.got - 2010.06.04 12:02:01.
