data_PCOD9331487
_publ_section_title
;
Structure prediction by ZEFSAII (Michael W. Deem and Ramdas Pophale) SiO2 
 PCOD9331487
Probable space group: I 2 2 2
;
_chemical_formula_sum "Si O2"
_cell_formula_units_Z 40
_cell_length_a 13.219641
_cell_length_b 12.797270
_cell_length_c 8.720107
_cell_angle_alpha 90.000000
_cell_angle_beta 90.000000
_cell_angle_gamma 90.000000
_cell_volume 1475.226850
_symmetry_space_group_name_H-M "I 2 2 2"
_symmetry_group_IT_number 23
_symmetry_cell_setting 'orthorhombic'
loop_
_space_group_symop_operation_xyz
x,y,z
-x,-y,z
x,-y,-z
-x,y,-z
1/2+x,1/2+y,1/2+z
1/2-x,1/2-y,1/2+z
1/2+x,1/2-y,1/2-z
1/2-x,1/2+y,1/2-z
loop_
_atom_site_type_symbol
_atom_site_label
_atom_site_fract_x
_atom_site_fract_y
_atom_site_fract_z
Si Si1 0.819153 0.095395 0.427453
Si Si2 0.115652 0.037911 0.216598
Si Si3 0.819288 0.127216 0.046326
Si Si4 0.105983 0.646561 0.077159
Si Si5 0.106363 0.667515 0.424472
O O1 0.701296 0.111277 0.473570
O O2 0.878850 0.205933 0.424266
O O3 0.856892 0.951442 0.400022
O O4 0.820711 0.074397 0.232696
O O5 0.152255 0.143746 0.144707
O O6 0.000000 0.000000 0.215180
O O7 0.137333 0.000000 0.000000
O O8 0.698966 0.130565 0.028125
O O9 0.883708 0.228594 0.092724
O O10 0.114103 0.614957 0.255935
O O11 0.000000 0.618796 0.000000
O O12 0.000000 0.642932 0.500000
#
# Coordination Sequence:
#
# PCOD9331487 Si02
#       5
#     8   8   8   8   8
#     4  11  26  42  66 102 140 176 231 294 348 415
#     4  11  22  40  70 103 136 177 229 288 354 412
#     4  10  22  42  66 100 137 180 234 288 345 425
#     4  11  24  44  71  97 141 189 230 291 357 420
#     4  11  26  43  69  99 138 188 240 286 353 422
#
# _framework density 27.114474999999999
#
# number of rings (size 3 to 8) (size 9 to 14) (size 15 to 20)
#    0.000    1.200    2.000    3.600    5.600    2.000 
#    0.000    2.000    0.000    0.000    0.000    0.000 
#    0.000    0.000    0.000    0.000    0.000    0.000 
#
# Total GULP energy -111587.053898 kJ/mol
# GULP energy per Si atom -5579.352695 kJ/mol
# Density = 2.705276 g / cm^3
# Si number density = 27.114475 Si / 1000 Ang^3
#
#
#
# Elastic Constant Matrix: (Units=GPa)
#
#
# Indices 1 2 3 4 5 6 
#
# 1 250.8816 23.8778 89.4953 0.0000 0.0000 0.0000
# 2 23.8778 87.4837 72.5752 0.0000 0.0000 0.0000
# 3 89.4953 72.5752 212.3670 0.0000 0.0000 0.0000
# 4 0.0000 0.0000 0.0000 59.1042 0.0000 0.0000
# 5 0.0000 0.0000 0.0000 0.0000 34.2375 0.0000
# 6 0.0000 0.0000 0.0000 0.0000 0.0000 3.4460
#
#
#
# Elastic Compliance Matrix: (Units=1/GPa)
#
#
# Indices 1 2 3 4 5 6 
#
# 1 0.004707 0.000504 -0.002156 0.000000 0.000000 0.000000
# 2 0.000504 0.016008 -0.005683 0.000000 0.000000 0.000000
# 3 -0.002156 -0.005683 0.007559 0.000000 0.000000 0.000000
# 4 0.000000 0.000000 0.000000 0.016919 0.000000 0.000000
# 5 0.000000 0.000000 0.000000 0.000000 0.029208 0.000000
# 6 0.000000 0.000000 0.000000 0.000000 0.000000 0.290189
#
#
# Mechanical properties :
#
#
# Convention : Reuss Voigt Hill
#
# Bulk Modulus (GPa) = 73.50649 102.51430 88.01040
# Shear Modulus (GPa) = 13.02782 43.67649 28.35216
#
# Velocity S-wave (km/s) = 2.19435 4.01785 3.23715
# Velocity P-wave (km/s) = 5.79558 7.70806 6.81920
#
# Compressibility (1/GPa) = 0.01360424
#
# Stress axis : x y z
#
# Youngs Moduli (GPa) = 212.44909 62.47052 132.28679
#
# Poissons Ratio (x) = -0.03146 0.28517
# Poissons Ratio (y) = -0.10700 0.75175
# Poissons Ratio (z) = 0.45798 0.35500
#
# Static dielectric constant tensor:
#      x y z
#    x 1.995660 0.000000 0.000000 
#    y 0.000000 2.391200 0.000000 
#    z 0.000000 0.000000 2.792930 
# 
# From -- ./inp_files/8194.got.cif
#   From: 2010.05.17/outbox.cif.g08.bks.cpg/sg23_5_cif.got.tgz:8194.got - 2010.06.04 12:02:01.
