data_PCOD9331501
_publ_section_title
;
Structure prediction by ZEFSAII (Michael W. Deem and Ramdas Pophale) SiO2 
 PCOD9331501
Probable space group: I 2 2 2
;
_chemical_formula_sum "Si O2"
_cell_formula_units_Z 48
_cell_length_a 9.039248
_cell_length_b 8.049612
_cell_length_c 29.303275
_cell_angle_alpha 90.000000
_cell_angle_beta 90.000000
_cell_angle_gamma 90.000000
_cell_volume 2132.177765
_symmetry_space_group_name_H-M "I 2 2 2"
_symmetry_group_IT_number 23
_symmetry_cell_setting 'orthorhombic'
loop_
_space_group_symop_operation_xyz
x,y,z
-x,-y,z
x,-y,-z
-x,y,-z
1/2+x,1/2+y,1/2+z
1/2-x,1/2-y,1/2+z
1/2+x,1/2-y,1/2-z
1/2-x,1/2+y,1/2-z
loop_
_atom_site_type_symbol
_atom_site_label
_atom_site_fract_x
_atom_site_fract_y
_atom_site_fract_z
Si Si1 0.143624 0.384948 0.646242
Si Si2 0.512329 0.200478 0.233992
Si Si3 0.661576 0.807643 0.986275
Si Si4 0.317200 0.678208 0.690793
Si Si5 0.659089 0.188198 0.593020
Si Si6 0.831480 0.698888 0.070197
O O1 0.082111 0.270888 0.687551
O O2 0.267468 0.503074 0.669248
O O3 0.216347 0.292345 0.603651
O O4 0.000000 0.500000 0.634165
O O5 0.456297 0.303955 0.276601
O O6 0.680560 0.236666 0.221846
O O7 0.500000 0.000000 0.242998
O O8 0.782249 0.722443 0.018390
O O9 0.500000 0.741104 0.000000
O O10 0.710805 0.780759 0.934391
O O11 0.662992 0.000000 0.000000
O O12 0.331819 0.793375 0.646903
O O13 0.499178 0.258484 0.578142
O O14 0.669938 0.995477 0.581016
#
# Coordination Sequence:
#
# PCOD9331501 Si02
#       6
#     8   8   8   8   8   8
#     4   9  22  43  67  98 134 180 229 286 341 411
#     4   9  22  41  63  94 136 170 226 285 334 400
#     4  11  26  45  72 103 139 177 226 281 344 414
#     4  10  22  42  68  95 136 176 234 272 347 402
#     4  11  26  44  67 105 135 185 227 283 345 409
#     4  11  25  44  72  95 146 176 229 283 342 413
#
# _framework density 22.512191999999999
#
# number of rings (size 3 to 8) (size 9 to 14) (size 15 to 20)
#    0.000    2.167    0.000    2.000   11.667    7.333 
#    3.000    6.667    0.000    0.000    0.000    0.000 
#    0.000    0.000    0.000    0.000    0.000    0.000 
#
# Total GULP energy -134271.731381 kJ/mol
# GULP energy per Si atom -5594.655474 kJ/mol
# Density = 2.246095 g / cm^3
# Si number density = 22.512192 Si / 1000 Ang^3
#
#
#
# Elastic Constant Matrix: (Units=GPa)
#
#
# Indices 1 2 3 4 5 6 
#
# 1 100.1571 19.7380 45.2925 0.0000 0.0000 0.0000
# 2 19.7380 28.9436 15.8250 0.0000 0.0000 0.0000
# 3 45.2925 15.8250 111.6257 0.0000 0.0000 0.0000
# 4 0.0000 0.0000 0.0000 18.1587 0.0000 0.0000
# 5 0.0000 0.0000 0.0000 0.0000 36.3143 0.0000
# 6 0.0000 0.0000 0.0000 0.0000 0.0000 23.8623
#
#
#
# Elastic Compliance Matrix: (Units=1/GPa)
#
#
# Indices 1 2 3 4 5 6 
#
# 1 0.013309 -0.006638 -0.004459 0.000000 0.000000 0.000000
# 2 -0.006638 0.040764 -0.003086 0.000000 0.000000 0.000000
# 3 -0.004459 -0.003086 0.011205 0.000000 0.000000 0.000000
# 4 0.000000 0.000000 0.000000 0.055070 0.000000 0.000000
# 5 0.000000 0.000000 0.000000 0.000000 0.027537 0.000000
# 6 0.000000 0.000000 0.000000 0.000000 0.000000 0.041907
#
#
# Mechanical properties :
#
#
# Convention : Reuss Voigt Hill
#
# Bulk Modulus (GPa) = 27.09108 44.71528 35.90318
# Shear Modulus (GPa) = 21.69556 26.32513 24.01034
#
# Velocity S-wave (km/s) = 3.10776 3.42332 3.26935
# Velocity P-wave (km/s) = 4.99376 5.96081 5.49859
#
# Compressibility (1/GPa) = 0.03691252
#
# Stress axis : x y z
#
# Youngs Moduli (GPa) = 75.13751 24.53163 89.24391
#
# Poissons Ratio (x) = 0.16284 0.39795
# Poissons Ratio (y) = 0.49876 0.27537
# Poissons Ratio (z) = 0.33505 0.07570
#
# Static dielectric constant tensor:
#      x y z
#    x 1.878860 0.000000 0.000000 
#    y 0.000000 1.846270 0.000000 
#    z 0.000000 0.000000 1.803380 
# 
# From -- ./inp_files/30213.got.cif
#   From: 2010.05.17/outbox.cif.g08.bks.cpg/sg23_16_cif.got.tgz:30213.got - 2010.06.04 12:02:01.
