data_PCOD9331481
_publ_section_title
;
Structure prediction by ZEFSAII (Michael W. Deem and Ramdas Pophale) SiO2 
 PCOD9331481
Probable space group: I 2 2 2
;
_chemical_formula_sum "Si O2"
_cell_formula_units_Z 56
_cell_length_a 20.287814
_cell_length_b 8.695736
_cell_length_c 15.145237
_cell_angle_alpha 90.000000
_cell_angle_beta 90.000000
_cell_angle_gamma 90.000000
_cell_volume 2671.884463
_symmetry_space_group_name_H-M "I 2 2 2"
_symmetry_group_IT_number 23
_symmetry_cell_setting 'orthorhombic'
loop_
_space_group_symop_operation_xyz
x,y,z
-x,-y,z
x,-y,-z
-x,y,-z
1/2+x,1/2+y,1/2+z
1/2-x,1/2-y,1/2+z
1/2+x,1/2-y,1/2-z
1/2-x,1/2+y,1/2-z
loop_
_atom_site_type_symbol
_atom_site_label
_atom_site_fract_x
_atom_site_fract_y
_atom_site_fract_z
Si Si1 0.568295 0.297845 0.277023
Si Si2 0.780451 0.819950 0.795523
Si Si3 0.743837 0.671927 0.978412
Si Si4 0.699771 0.329808 0.360103
Si Si5 0.571371 0.924533 0.877910
Si Si6 0.606025 0.227942 0.949685
Si Si7 0.925684 0.154341 0.265824
O O1 0.621532 0.296158 0.354098
O O2 0.591145 0.173278 0.205667
O O3 0.489374 0.279860 0.285558
O O4 0.575217 0.471051 0.241558
O O5 0.738343 0.784048 0.707578
O O6 0.856718 0.782453 0.771345
O O7 0.782606 0.998341 0.826527
O O8 0.752760 0.718769 0.876702
O O9 0.779695 0.795670 0.040429
O O10 0.669106 0.684111 0.013973
O O11 0.767867 0.500000 0.000000
O O12 0.500000 0.000000 0.862984
O O13 0.621061 0.061301 0.904316
O O14 0.566677 0.816378 0.962911
O O15 0.570048 0.312627 0.870112
#
# Coordination Sequence:
#
# PCOD9331481 Si02
#       7
#     8   8   8   8   8   8   8
#     4  10  23  41  64  93 125 172 218 267 321 397
#     4  11  24  43  67  97 133 175 220 279 330 395
#     4  12  27  43  64  96 133 173 226 278 334 395
#     4  11  24  42  68  97 130 175 223 274 340 390
#     4  11  23  37  57  94 132 168 210 261 327 395
#     4  11  23  36  58  88 130 166 209 261 323 390
#     4  10  22  42  64  91 128 169 220 264 325 391
#
# _framework density 20.95899
#
# number of rings (size 3 to 8) (size 9 to 14) (size 15 to 20)
#    0.000    1.143    2.857    3.000   10.000    1.143 
#    0.000    2.143    0.000    4.286    0.000    0.000 
#    0.000    0.000    0.000    0.000    0.000    0.000 
#
# Total GULP energy -156341.959406 kJ/mol
# GULP energy per Si atom -5583.641407 kJ/mol
# Density = 2.091129 g / cm^3
# Si number density = 20.958990 Si / 1000 Ang^3
#
#
#
# Elastic Constant Matrix: (Units=GPa)
#
#
# Indices 1 2 3 4 5 6 
#
# 1 82.0276 8.9833 -3.1825 0.0000 0.0000 0.0000
# 2 8.9833 36.7286 1.6417 0.0000 0.0000 0.0000
# 3 -3.1825 1.6417 45.9870 0.0000 0.0000 0.0000
# 4 0.0000 0.0000 0.0000 27.2001 0.0000 0.0000
# 5 0.0000 0.0000 0.0000 0.0000 28.1505 0.0000
# 6 0.0000 0.0000 0.0000 0.0000 0.0000 20.8261
#
#
#
# Elastic Compliance Matrix: (Units=1/GPa)
#
#
# Indices 1 2 3 4 5 6 
#
# 1 0.012571 -0.003118 0.000981 0.000000 0.000000 0.000000
# 2 -0.003118 0.028044 -0.001217 0.000000 0.000000 0.000000
# 3 0.000981 -0.001217 0.021857 0.000000 0.000000 0.000000
# 4 0.000000 0.000000 0.000000 0.036765 0.000000 0.000000
# 5 0.000000 0.000000 0.000000 0.000000 0.035523 0.000000
# 6 0.000000 0.000000 0.000000 0.000000 0.000000 0.048017
#
#
# Mechanical properties :
#
#
# Convention : Reuss Voigt Hill
#
# Bulk Modulus (GPa) = 17.93309 19.95868 18.94589
# Shear Modulus (GPa) = 24.03020 25.72206 24.87613
#
# Velocity S-wave (km/s) = 3.38972 3.50702 3.44887
# Velocity P-wave (km/s) = 4.88827 5.09336 4.99187
#
# Compressibility (1/GPa) = 0.05576284
#
# Stress axis : x y z
#
# Youngs Moduli (GPa) = 79.55064 35.65843 45.75275
#
# Poissons Ratio (x) = 0.11120 -0.04490
# Poissons Ratio (y) = 0.24807 0.05568
# Poissons Ratio (z) = -0.07806 0.04339
#
# Static dielectric constant tensor:
#      x y z
#    x 1.847340 0.000000 0.000000 
#    y 0.000000 1.787220 0.000000 
#    z 0.000000 0.000000 1.691520 
# 
# From -- ./inp_files/10208.got.cif
#   From: 2010.05.17/outbox.cif.g08.bks.cpg/sg23_6_cif.got.tgz:10208.got - 2010.06.04 12:02:01.
