data_PCOD9331658
_publ_section_title
;
Structure prediction by ZEFSAII (Michael W. Deem and Ramdas Pophale) SiO2 
 PCOD9331658
Probable space group: I 2 2 2
;
_chemical_formula_sum "Si O2"
_cell_formula_units_Z 64
_cell_length_a 8.872006
_cell_length_b 28.508377
_cell_length_c 11.774285
_cell_angle_alpha 90.000000
_cell_angle_beta 90.000000
_cell_angle_gamma 90.000000
_cell_volume 2978.028598
_symmetry_space_group_name_H-M "I 2 2 2"
_symmetry_group_IT_number 23
_symmetry_cell_setting 'orthorhombic'
loop_
_space_group_symop_operation_xyz
x,y,z
-x,-y,z
x,-y,-z
-x,y,-z
1/2+x,1/2+y,1/2+z
1/2-x,1/2-y,1/2+z
1/2+x,1/2-y,1/2-z
1/2-x,1/2+y,1/2-z
loop_
_atom_site_type_symbol
_atom_site_label
_atom_site_fract_x
_atom_site_fract_y
_atom_site_fract_z
Si Si1 0.899218 0.252905 0.107861
Si Si2 0.175405 0.488448 0.131872
Si Si3 0.676258 0.056910 0.011411
Si Si4 0.753718 0.664319 0.778379
Si Si5 0.929960 0.807488 0.681880
Si Si6 0.830103 0.067365 0.775347
Si Si7 0.816858 0.906105 0.752918
Si Si8 0.841867 0.284645 0.452949
O O1 0.869791 0.304103 0.154994
O O2 0.968321 0.222736 0.207042
O O3 0.755444 0.223904 0.065057
O O4 0.000000 0.255724 0.000000
O O5 0.278026 0.519876 0.215474
O O6 0.223691 0.435617 0.160411
O O7 0.000000 0.500000 0.157120
O O8 0.202942 0.500000 0.000000
O O9 0.783724 0.070450 0.906818
O O10 0.500000 0.070689 0.000000
O O11 0.741517 0.079751 0.126553
O O12 0.678081 0.000000 0.000000
O O13 0.595422 0.673087 0.844518
O O14 0.768389 0.608981 0.779688
O O15 0.770286 0.683520 0.647364
O O16 0.826014 0.851436 0.716552
O O17 0.864368 0.768198 0.598184
O O18 0.007468 0.077390 0.759855
O O19 0.000000 0.303456 0.500000
#
# Coordination Sequence:
#
# PCOD9331658 Si02
#       8
#     8   8   8   8   8   8   8   8
#     4  11  22  41  65  90 131 175 213 263 328 383
#     4  11  25  48  67  93 134 175 216 277 336 399
#     4  11  23  41  66  94 133 167 206 270 336 392
#     4  10  23  41  61  99 127 167 220 269 319 392
#     4  10  23  41  63  95 131 165 220 269 320 393
#     4  11  24  42  68  99 130 167 228 270 328 401
#     4  11  24  42  70  99 126 174 221 273 334 391
#     4  11  22  41  66  90 131 175 213 262 327 385
#
# _framework density 21.490727
#
# number of rings (size 3 to 8) (size 9 to 14) (size 15 to 20)
#    0.000    1.250    3.750    1.500    1.750    3.000 
#    9.000    0.000    0.000    0.000    0.000    0.000 
#    0.000    0.000    0.000    0.000    0.000    0.000 
#
# Total GULP energy -178618.390139 kJ/mol
# GULP energy per Si atom -5581.824692 kJ/mol
# Density = 2.144181 g / cm^3
# Si number density = 21.490727 Si / 1000 Ang^3
#
#
#
# Elastic Constant Matrix: (Units=GPa)
#
#
# Indices 1 2 3 4 5 6 
#
# 1 67.4349 2.4038 2.0666 0.0000 0.0000 0.0000
# 2 2.4038 94.0811 -10.8213 0.0005 0.0001 0.0000
# 3 2.0666 -10.8213 43.1379 0.0006 0.0000 0.0000
# 4 0.0000 0.0005 0.0006 12.8194 0.0001 0.0000
# 5 0.0000 0.0001 0.0000 0.0001 24.2690 0.0000
# 6 0.0000 0.0000 0.0000 0.0000 0.0000 19.3064
#
#
#
# Elastic Compliance Matrix: (Units=1/GPa)
#
#
# Indices 1 2 3 4 5 6 
#
# 1 0.014872 -0.000476 -0.000832 0.000000 0.000000 0.000000
# 2 -0.000476 0.010960 0.002772 -0.000001 0.000000 0.000000
# 3 -0.000832 0.002772 0.023917 -0.000001 0.000000 0.000000
# 4 0.000000 -0.000001 -0.000001 0.078007 0.000000 0.000000
# 5 0.000000 0.000000 0.000000 0.000000 0.041205 0.000000
# 6 0.000000 0.000000 0.000000 0.000000 0.000000 0.051796
#
#
# Mechanical properties :
#
#
# Convention : Reuss Voigt Hill
#
# Bulk Modulus (GPa) = 18.98327 21.32801 20.15564
# Shear Modulus (GPa) = 21.24169 25.34596 23.29383
#
# Velocity S-wave (km/s) = 3.14731 3.43795 3.29584
# Velocity P-wave (km/s) = 4.69679 5.07003 4.88697
#
# Compressibility (1/GPa) = 0.05267796
#
# Stress axis : x y z
#
# Youngs Moduli (GPa) = 67.24244 91.23978 41.81177
#
# Poissons Ratio (x) = 0.04340 0.03478
# Poissons Ratio (y) = 0.03198 -0.11591
# Poissons Ratio (z) = 0.05593 -0.25293
#
# Static dielectric constant tensor:
#      x y z
#    x 1.773610 0.000000 0.000000 
#    y 0.000000 1.770710 0.000000 
#    z 0.000000 0.000000 1.758790 
# 
# From -- ./inp_files/15008.got.cif
#   From: 2010.05.17/outbox.cif.g08.bks.cpg/sg23_8_cif.got.tgz:15008.got - 2010.06.04 12:02:01.
