data_PCOD9331026
_publ_section_title
;
Structure prediction by ZEFSAII (Michael W. Deem and Ramdas Pophale) SiO2 
 PCOD9331026
Probable space group: I 2 2 2
;
_chemical_formula_sum "Si O2"
_cell_formula_units_Z 48
_cell_length_a 7.485477
_cell_length_b 19.677240
_cell_length_c 15.611364
_cell_angle_alpha 90.000000
_cell_angle_beta 90.000000
_cell_angle_gamma 90.000000
_cell_volume 2299.452872
_symmetry_space_group_name_H-M "I 2 2 2"
_symmetry_group_IT_number 23
_symmetry_cell_setting 'orthorhombic'
loop_
_space_group_symop_operation_xyz
x,y,z
-x,-y,z
x,-y,-z
-x,y,-z
1/2+x,1/2+y,1/2+z
1/2-x,1/2-y,1/2+z
1/2+x,1/2-y,1/2-z
1/2-x,1/2+y,1/2-z
loop_
_atom_site_type_symbol
_atom_site_label
_atom_site_fract_x
_atom_site_fract_y
_atom_site_fract_z
Si Si1 0.739460 0.829348 0.841111
Si Si2 0.309706 0.187473 0.141012
Si Si3 0.858141 0.840242 0.644233
Si Si4 0.456666 0.926241 0.400393
Si Si5 0.743427 0.178577 0.663239
Si Si6 0.782193 0.578554 0.498086
O O1 0.522531 0.823769 0.842147
O O2 0.813772 0.841535 0.746185
O O3 0.803402 0.754275 0.867922
O O4 0.782815 0.886229 0.910717
O O5 0.294285 0.265809 0.110860
O O6 0.224164 0.183372 0.234661
O O7 0.239380 0.130169 0.076239
O O8 0.745178 0.901723 0.607677
O O9 0.932305 0.844649 0.374458
O O10 0.500000 0.927101 0.500000
O O11 0.583723 0.871684 0.355670
O O12 0.500000 0.000000 0.362897
O O13 0.723274 0.500000 0.500000
O O14 0.000000 0.577425 0.500000
#
# Coordination Sequence:
#
# PCOD9331026 Si02
#       6
#     8   8   8   8   8   8
#     4   9  18  35  58  93 126 160 206 248 291 362
#     4   9  18  35  58  93 126 160 206 248 291 362
#     4  10  21  39  64  91 119 159 208 254 303 360
#     4  11  26  44  62  89 119 157 207 259 322 372
#     4  10  21  39  64  91 119 159 208 254 303 360
#     4   9  18  32  55  89 127 165 198 239 301 365
#
# _framework density 20.874531999999999
#
# number of rings (size 3 to 8) (size 9 to 14) (size 15 to 20)
#    0.000    2.333    1.667    0.000    4.667    2.667 
#    0.000    2.500    0.000    1.000    0.000    0.000 
#    0.000    0.000    0.000    0.000    0.000    0.000 
#
# Total GULP energy -134016.725915 kJ/mol
# GULP energy per Si atom -5584.030246 kJ/mol
# Density = 2.082702 g / cm^3
# Si number density = 20.874532 Si / 1000 Ang^3
#
#
#
# Elastic Constant Matrix: (Units=GPa)
#
#
# Indices 1 2 3 4 5 6 
#
# 1 32.1321 0.2245 -19.3839 0.0000 0.0000 0.0000
# 2 0.2245 121.8825 31.8818 0.0000 0.0000 0.0000
# 3 -19.3839 31.8818 42.5184 0.0001 0.0000 0.0000
# 4 0.0000 0.0000 0.0001 138.2142 0.0000 0.0000
# 5 0.0000 0.0000 0.0000 0.0000 13.1486 0.0000
# 6 0.0000 0.0000 0.0000 0.0000 0.0000 2.4121
#
#
#
# Elastic Compliance Matrix: (Units=1/GPa)
#
#
# Indices 1 2 3 4 5 6 
#
# 1 0.047457 -0.007149 0.026996 0.000000 0.000000 0.000000
# 2 -0.007149 0.011283 -0.011720 0.000000 0.000000 0.000000
# 3 0.026996 -0.011720 0.044615 0.000000 0.000000 0.000000
# 4 0.000000 0.000000 0.000000 0.007235 0.000000 0.000000
# 5 0.000000 0.000000 0.000000 0.000000 0.076054 0.000000
# 6 0.000000 0.000000 0.000000 0.000000 0.000000 0.414571
#
#
# Mechanical properties :
#
#
# Convention : Reuss Voigt Hill
#
# Bulk Modulus (GPa) = 8.36058 24.66421 16.51240
# Shear Modulus (GPa) = 8.00217 43.00901 25.50559
#
# Velocity S-wave (km/s) = 1.96005 4.54404 3.49929
# Velocity P-wave (km/s) = 3.02262 6.27473 4.92486
#
# Compressibility (1/GPa) = 0.11960889
#
# Stress axis : x y z
#
# Youngs Moduli (GPa) = 21.07174 88.62514 22.41423
#
# Poissons Ratio (x) = 0.63358 -0.60509
# Poissons Ratio (y) = 0.15064 0.26269
# Poissons Ratio (z) = -0.56885 1.03868
#
# Static dielectric constant tensor:
#      x y z
#    x 1.739380 0.000000 0.000000 
#    y 0.000000 1.756320 0.000000 
#    z 0.000000 0.000000 1.746630 
# 
# From -- ./inp_files/20936.got.cif
#   From: 2010.05.17/outbox.cif.g08.bks.cpg/sg23_11_cif.got.tgz:20936.got - 2010.06.04 12:02:01.
