data_PCOD9331688
_publ_section_title
;
Structure prediction by ZEFSAII (Michael W. Deem and Ramdas Pophale) SiO2 
 PCOD9331688
Probable space group: I 2 2 2
;
_chemical_formula_sum "Si O2"
_cell_formula_units_Z 48
_cell_length_a 6.651668
_cell_length_b 20.504490
_cell_length_c 15.210058
_cell_angle_alpha 90.000000
_cell_angle_beta 90.000000
_cell_angle_gamma 90.000000
_cell_volume 2074.485513
_symmetry_space_group_name_H-M "I 2 2 2"
_symmetry_group_IT_number 23
_symmetry_cell_setting 'orthorhombic'
loop_
_space_group_symop_operation_xyz
x,y,z
-x,-y,z
x,-y,-z
-x,y,-z
1/2+x,1/2+y,1/2+z
1/2-x,1/2-y,1/2+z
1/2+x,1/2-y,1/2-z
1/2-x,1/2+y,1/2-z
loop_
_atom_site_type_symbol
_atom_site_label
_atom_site_fract_x
_atom_site_fract_y
_atom_site_fract_z
Si Si1 0.707312 0.260477 0.643667
Si Si2 0.774200 0.925923 0.251786
Si Si3 0.093128 0.339402 0.216428
Si Si4 0.500000 0.000000 0.853521
Si Si5 0.513724 0.643942 0.102334
Si Si6 0.000000 0.388790 0.500000
Si Si7 0.893274 0.853077 0.075064
O O1 0.800368 0.322374 0.692677
O O2 0.568432 0.218955 0.709398
O O3 0.873552 0.208941 0.611669
O O4 0.535969 0.291303 0.583878
O O5 0.553665 0.900594 0.281629
O O6 0.918650 0.911983 0.333829
O O7 0.861318 0.883408 0.170844
O O8 0.704582 0.992210 0.204060
O O9 0.262572 0.342256 0.140652
O O10 0.527044 0.938133 0.918007
O O11 0.500000 0.625245 0.000000
O O12 0.823514 0.342538 0.466902
O O13 0.000000 0.897802 0.000000
#
# Coordination Sequence:
#
# PCOD9331688 Si02
#       7
#     8   8   8   4   8   4   8
#     4  11  22  36  60  93 134 180 218 252 320 387
#     4  10  23  42  66  90 126 177 222 278 344 386
#     4  11  21  40  62  89 132 178 220 272 313 400
#     4   9  20  44  68  89 126 174 220 291 340 387
#     4  11  25  41  64  96 135 176 222 278 330 401
#     4   9  22  42  60  94 140 172 220 272 337 404
#     4  11  24  36  60  98 137 178 215 263 318 408
#
# _framework density 23.138268
#
# number of rings (size 3 to 8) (size 9 to 14) (size 15 to 20)
#    0.000    1.500    3.333    1.000    7.000    2.000 
#    0.000   10.833    0.000    3.000    0.000    0.000 
#    0.000    0.000    0.000    0.000    0.000    0.000 
#
# Total GULP energy -133847.879199 kJ/mol
# GULP energy per Si atom -5576.994967 kJ/mol
# Density = 2.308560 g / cm^3
# Si number density = 23.138268 Si / 1000 Ang^3
#
#
#
# Elastic Constant Matrix: (Units=GPa)
#
#
# Indices 1 2 3 4 5 6 
#
# 1 107.7677 17.7901 38.5152 0.0000 0.0000 0.0000
# 2 17.7901 41.8434 6.3561 0.0000 0.0000 0.0000
# 3 38.5152 6.3561 141.3064 0.0000 0.0000 0.0000
# 4 0.0000 0.0000 0.0000 16.8331 0.0000 0.0000
# 5 0.0000 0.0000 0.0000 0.0000 51.0244 0.0000
# 6 0.0000 0.0000 0.0000 0.0000 0.0000 15.0780
#
#
#
# Elastic Compliance Matrix: (Units=1/GPa)
#
#
# Indices 1 2 3 4 5 6 
#
# 1 0.010981 -0.004243 -0.002802 0.000000 0.000000 0.000000
# 2 -0.004243 0.025703 0.000000 0.000000 0.000000 0.000000
# 3 -0.002802 0.000000 0.007841 0.000000 0.000000 0.000000
# 4 0.000000 0.000000 0.000000 0.059407 0.000000 0.000000
# 5 0.000000 0.000000 0.000000 0.000000 0.019598 0.000000
# 6 0.000000 0.000000 0.000000 0.000000 0.000000 0.066322
#
#
# Mechanical properties :
#
#
# Convention : Reuss Voigt Hill
#
# Bulk Modulus (GPa) = 32.85745 46.24892 39.55319
# Shear Modulus (GPa) = 23.35512 31.80417 27.57965
#
# Velocity S-wave (km/s) = 3.18051 3.71148 3.45621
# Velocity P-wave (km/s) = 5.26487 6.19663 5.74966
#
# Compressibility (1/GPa) = 0.03043450
#
# Stress axis : x y z
#
# Youngs Moduli (GPa) = 91.06525 38.90661 127.54141
#
# Poissons Ratio (x) = 0.16508 0.35740
# Poissons Ratio (y) = 0.38640 -0.00005
# Poissons Ratio (z) = 0.25518 -0.00001
#
# Static dielectric constant tensor:
#      x y z
#    x 1.939650 0.000000 0.000000 
#    y 0.000000 1.971550 0.000000 
#    z 0.000000 0.000000 2.024690 
# 
# From -- ./inp_files/19255.got.cif
#   From: 2010.05.17/outbox.cif.g08.bks.cpg/sg23_10_cif.got.tgz:19255.got - 2010.06.04 12:02:01.
