data_PCOD9331885
_publ_section_title
;
Structure prediction by ZEFSAII (Michael W. Deem and Ramdas Pophale) SiO2 
 PCOD9331885
Probable space group: I 2 2 2
;
_chemical_formula_sum "Si O2"
_cell_formula_units_Z 40
_cell_length_a 18.559884
_cell_length_b 5.079998
_cell_length_c 17.788038
_cell_angle_alpha 90.000000
_cell_angle_beta 90.000000
_cell_angle_gamma 90.000000
_cell_volume 1677.130463
_symmetry_space_group_name_H-M "I 2 2 2"
_symmetry_group_IT_number 23
_symmetry_cell_setting 'orthorhombic'
loop_
_space_group_symop_operation_xyz
x,y,z
-x,-y,z
x,-y,-z
-x,y,-z
1/2+x,1/2+y,1/2+z
1/2-x,1/2-y,1/2+z
1/2+x,1/2-y,1/2-z
1/2-x,1/2+y,1/2-z
loop_
_atom_site_type_symbol
_atom_site_label
_atom_site_fract_x
_atom_site_fract_y
_atom_site_fract_z
Si Si1 0.180372 0.238918 0.953112
Si Si2 0.674914 0.532523 0.910625
Si Si3 0.552378 0.753955 0.812772
Si Si4 0.915298 0.021161 0.173893
Si Si5 0.298852 0.783578 0.769871
O O1 0.245056 0.349762 0.903550
O O2 0.121371 0.080367 0.905493
O O3 0.155346 0.500000 0.000000
O O4 0.214514 0.000000 0.000000
O O5 0.613023 0.713728 0.875280
O O6 0.679747 0.276598 0.856713
O O7 0.663226 0.500000 0.000000
O O8 0.500000 0.500000 0.817353
O O9 0.591275 0.725270 0.731227
O O10 0.500000 0.000000 0.819931
O O11 0.873141 0.237660 0.224247
O O12 0.000000 0.000000 0.158504
O O13 0.254542 0.047890 0.756751
#
# Coordination Sequence:
#
# PCOD9331885 Si02
#       5
#     8   8   8   8   8
#     4  11  26  45  69 102 143 191 249 302 370 446
#     4  10  24  44  72 105 149 194 245 308 373 453
#     4  10  24  46  71 109 147 190 249 309 383 454
#     4  10  24  46  72 104 143 188 244 307 367 442
#     4  11  24  43  72 103 136 188 245 298 361 437
#
# _framework density 23.850262000000001
#
# number of rings (size 3 to 8) (size 9 to 14) (size 15 to 20)
#    0.000    1.600    2.000    0.000    5.600   16.800 
#    0.000    2.000    0.000    0.000    0.000    0.000 
#    0.000    0.000    0.000    0.000    0.000    0.000 
#
# Total GULP energy -111590.082823 kJ/mol
# GULP energy per Si atom -5579.504141 kJ/mol
# Density = 2.379598 g / cm^3
# Si number density = 23.850262 Si / 1000 Ang^3
#
#
#
# Elastic Constant Matrix: (Units=GPa)
#
#
# Indices 1 2 3 4 5 6 
#
# 1 163.1888 56.9067 31.5018 0.0000 0.0000 0.0000
# 2 56.9067 160.7551 34.5656 0.0000 0.0000 0.0000
# 3 31.5018 34.5656 111.2894 0.0000 0.0000 0.0000
# 4 0.0000 0.0000 0.0000 -5.5917 0.0000 0.0000
# 5 0.0000 0.0000 0.0000 0.0000 21.5921 0.0000
# 6 0.0000 0.0000 0.0000 0.0000 0.0000 50.8220
#
#
#
# Elastic Compliance Matrix: (Units=1/GPa)
#
#
# Indices 1 2 3 4 5 6 
#
# 1 0.007170 -0.002252 -0.001330 0.000000 0.000000 0.000000
# 2 -0.002252 0.007373 -0.001653 0.000000 0.000000 0.000000
# 3 -0.001330 -0.001653 0.009875 0.000000 0.000000 0.000000
# 4 0.000000 0.000000 0.000000 -0.178835 0.000000 0.000000
# 5 0.000000 0.000000 0.000000 0.000000 0.046313 0.000000
# 6 0.000000 0.000000 0.000000 0.000000 0.000000 0.019677
#
#
# Mechanical properties :
#
#
# Convention : Reuss Voigt Hill
#
# Bulk Modulus (GPa) = 71.68967 75.68684 73.68826
# Shear Modulus (GPa) = -68.20575 34.18175 -17.01200
#
# Velocity S-wave (km/s) = -5.35346 3.78985 -2.67363
# Velocity P-wave (km/s) = 2.84416 7.13818 4.62949
#
# Compressibility (1/GPa) = 0.01394901
#
# Stress axis : x y z
#
# Youngs Moduli (GPa) = 139.47017 135.62562 101.26235
#
# Poissons Ratio (x) = 0.30545 0.13468
# Poissons Ratio (y) = 0.31411 0.16734
# Poissons Ratio (z) = 0.18550 0.22413
#
# Static dielectric constant tensor:
#      x y z
#    x 1.955520 0.000000 0.000000 
#    y 0.000000 1.970580 0.000000 
#    z 0.000000 0.000000 2.042640 
# 
# From -- ./inp_files/24965.got.cif
#   From: 2010.05.17/outbox.cif.g08.bks.cpg/sg23_13_cif.got.tgz:24965.got - 2010.06.04 12:02:01.
