data_PCOD9331463
_publ_section_title
;
Structure prediction by ZEFSAII (Michael W. Deem and Ramdas Pophale) SiO2 
 PCOD9331463
Probable space group: I 2 2 2
;
_chemical_formula_sum "Si O2"
_cell_formula_units_Z 34
_cell_length_a 8.471363
_cell_length_b 14.351128
_cell_length_c 11.796494
_cell_angle_alpha 90.000000
_cell_angle_beta 90.000000
_cell_angle_gamma 90.000000
_cell_volume 1434.142417
_symmetry_space_group_name_H-M "I 2 2 2"
_symmetry_group_IT_number 23
_symmetry_cell_setting 'orthorhombic'
loop_
_space_group_symop_operation_xyz
x,y,z
-x,-y,z
x,-y,-z
-x,y,-z
1/2+x,1/2+y,1/2+z
1/2-x,1/2-y,1/2+z
1/2+x,1/2-y,1/2-z
1/2-x,1/2+y,1/2-z
loop_
_atom_site_type_symbol
_atom_site_label
_atom_site_fract_x
_atom_site_fract_y
_atom_site_fract_z
Si Si1 0.000000 0.751084 0.000000
Si Si2 0.500000 0.500000 0.000000
Si Si3 0.000000 0.500000 0.647173
Si Si4 0.989236 0.670614 0.229980
Si Si5 0.306637 0.591139 0.435918
Si Si6 0.863356 0.140485 0.688885
O O1 0.146604 0.822572 0.015266
O O2 0.067034 0.692674 0.896404
O O3 0.406569 0.429683 0.913089
O O4 0.911626 0.424353 0.724794
O O5 0.121647 0.430143 0.586765
O O6 0.175729 0.658917 0.202442
O O7 0.953116 0.759679 0.309191
O O8 0.351303 0.500000 0.500000
O O9 0.394319 0.600769 0.315705
#
# Coordination Sequence:
#
# PCOD9331463 Si02
#       6
#     4   2   4   8   8   8
#     4  10  23  39  70 102 140 188 234 300 356 418
#     4  12  28  48  78 108 148 188 236 300 364 426
#     4  10  23  41  68 102 142 189 234 291 346 426
#     4  10  24  45  68 106 145 186 239 292 355 425
#     4  10  22  41  68 100 135 184 235 288 345 420
#     4  10  26  45  73 104 143 187 234 294 359 421
#
# _framework density 23.707549
#
# number of rings (size 3 to 8) (size 9 to 14) (size 15 to 20)
#    0.000    1.882    0.000    0.706    9.882   11.765 
#    0.000    0.000    0.000    1.412    0.000    0.000 
#    0.000    0.000    0.000    0.000    0.000    0.000 
#
# Total GULP energy -94641.385391 kJ/mol
# GULP energy per Si atom -5567.140317 kJ/mol
# Density = 2.365359 g / cm^3
# Si number density = 23.707549 Si / 1000 Ang^3
#
#
#
# Elastic Constant Matrix: (Units=GPa)
#
#
# Indices 1 2 3 4 5 6 
#
# 1 83.4309 24.0580 6.2092 0.0000 0.0000 0.0000
# 2 24.0580 119.3763 33.9435 0.0000 0.0000 0.0000
# 3 6.2092 33.9435 75.9239 0.0000 0.0000 0.0000
# 4 0.0000 0.0000 0.0000 -0.3245 0.0000 0.0000
# 5 0.0000 0.0000 0.0000 0.0000 9.8267 0.0000
# 6 0.0000 0.0000 0.0000 0.0000 0.0000 -54.8965
#
#
#
# Elastic Compliance Matrix: (Units=1/GPa)
#
#
# Indices 1 2 3 4 5 6 
#
# 1 0.012726 -0.002599 0.000121 0.000000 0.000000 0.000000
# 2 -0.002599 0.010128 -0.004315 0.000000 0.000000 0.000000
# 3 0.000121 -0.004315 0.015090 0.000000 0.000000 0.000000
# 4 0.000000 0.000000 0.000000 -3.082086 0.000001 -0.000002
# 5 0.000000 0.000000 0.000000 0.000001 0.101764 0.000000
# 6 0.000000 0.000000 0.000000 -0.000002 0.000000 -0.018216
#
#
# Mechanical properties :
#
#
# Convention : Reuss Voigt Hill
#
# Bulk Modulus (GPa) = 41.05413 45.23916 43.14664
# Shear Modulus (GPa) = -1.70132 5.22252 1.76060
#
# Velocity S-wave (km/s) = -0.84805 1.48582 0.86270
# Velocity P-wave (km/s) = 4.04915 4.69757 4.38536
#
# Compressibility (1/GPa) = 0.02435808
#
# Stress axis : x y z
#
# Youngs Moduli (GPa) = 78.57651 98.73916 66.26733
#
# Poissons Ratio (x) = 0.25665 -0.00804
# Poissons Ratio (y) = 0.20424 0.28596
# Poissons Ratio (z) = -0.00953 0.42608
#
# Static dielectric constant tensor:
#      x y z
#    x 2.090680 0.000000 0.000000 
#    y 0.000000 1.946830 0.000000 
#    z 0.000000 0.000000 2.729880 
# 
# From -- ./inp_files/15386.got.cif
#   From: 2010.05.17/outbox.cif.g08.bks.cpg/sg23_8_cif.got.tgz:15386.got - 2010.06.04 12:02:01.
