data_PCOD9331508
_publ_section_title
;
Structure prediction by ZEFSAII (Michael W. Deem and Ramdas Pophale) SiO2 
 PCOD9331508
Probable space group: I 2 2 2
;
_chemical_formula_sum "Si O2"
_cell_formula_units_Z 64
_cell_length_a 30.366500
_cell_length_b 9.342942
_cell_length_c 11.371815
_cell_angle_alpha 90.000000
_cell_angle_beta 90.000000
_cell_angle_gamma 90.000000
_cell_volume 3226.325475
_symmetry_space_group_name_H-M "I 2 2 2"
_symmetry_group_IT_number 23
_symmetry_cell_setting 'orthorhombic'
loop_
_space_group_symop_operation_xyz
x,y,z
-x,-y,z
x,-y,-z
-x,y,-z
1/2+x,1/2+y,1/2+z
1/2-x,1/2-y,1/2+z
1/2+x,1/2-y,1/2-z
1/2-x,1/2+y,1/2-z
loop_
_atom_site_type_symbol
_atom_site_label
_atom_site_fract_x
_atom_site_fract_y
_atom_site_fract_z
Si Si1 0.229468 0.065333 0.130511
Si Si2 0.051960 0.483833 0.640434
Si Si3 0.660222 0.666616 0.968241
Si Si4 0.630291 0.527022 0.639121
Si Si5 0.375203 0.177345 0.737199
Si Si6 0.240152 0.328339 0.999883
Si Si7 0.391662 0.724069 0.809952
Si Si8 0.186508 0.586058 0.209575
O O1 0.182117 0.015561 0.176364
O O2 0.270938 0.039770 0.214020
O O3 0.224818 0.236156 0.110192
O O4 0.235923 0.000000 0.000000
O O5 0.061534 0.500000 0.500000
O O6 0.082224 0.596885 0.710571
O O7 0.067190 0.329647 0.689517
O O8 0.000000 0.500000 0.656610
O O9 0.647115 0.736697 0.845378
O O10 0.709817 0.724684 0.985957
O O11 0.666876 0.500000 0.000000
O O12 0.619607 0.695030 0.054824
O O13 0.628288 0.500000 0.500000
O O14 0.614347 0.690372 0.652884
O O15 0.606178 0.413181 0.724483
O O16 0.342890 0.055247 0.683060
O O17 0.206249 0.312450 0.892749
O O18 0.240567 0.500000 0.000000
O O19 0.348170 0.814633 0.775890
#
# Coordination Sequence:
#
# PCOD9331508 Si02
#       8
#     8   8   8   8   8   8   8   8
#     4  11  22  35  51  76 117 158 216 258 294 341
#     4  10  22  42  70 102 129 149 188 257 337 412
#     4  11  20  35  57  88 126 164 209 261 321 371
#     4  11  24  40  60  87 124 176 214 257 302 365
#     4  11  22  38  64  89 125 161 206 256 317 383
#     4  11  23  35  50  78 119 164 218 259 289 349
#     4  11  22  39  63  90 125 165 207 260 325 380
#     4  11  23  34  54  83 118 171 213 257 308 355
#
# _framework density 19.836808000000001
#
# number of rings (size 3 to 8) (size 9 to 14) (size 15 to 20)
#    0.000    1.125    3.750    3.750    1.750    2.000 
#    0.000    2.500    0.000    4.500    0.000    0.000 
#    0.000    0.000    0.000    0.000    0.000    0.000 
#
# Total GULP energy -178365.083978 kJ/mol
# GULP energy per Si atom -5573.908874 kJ/mol
# Density = 1.979166 g / cm^3
# Si number density = 19.836808 Si / 1000 Ang^3
#
#
#
# Elastic Constant Matrix: (Units=GPa)
#
#
# Indices 1 2 3 4 5 6 
#
# 1 98.8856 39.8499 26.1666 0.0000 0.0000 0.0000
# 2 39.8499 115.3366 26.7371 0.0000 0.0000 0.0000
# 3 26.1666 26.7371 46.8143 0.0000 0.0000 0.0000
# 4 0.0000 0.0000 0.0000 33.0071 0.0000 0.0000
# 5 0.0000 0.0000 0.0000 0.0000 26.2753 0.0000
# 6 0.0000 0.0000 0.0000 0.0000 0.0000 22.8036
#
#
#
# Elastic Compliance Matrix: (Units=1/GPa)
#
#
# Indices 1 2 3 4 5 6 
#
# 1 0.012810 -0.003188 -0.005339 0.000000 0.000000 0.000000
# 2 -0.003188 0.010787 -0.004379 0.000000 0.000000 0.000000
# 3 -0.005339 -0.004379 0.026846 0.000000 0.000000 0.000000
# 4 0.000000 0.000000 0.000000 0.030297 0.000000 0.000000
# 5 0.000000 0.000000 0.000000 0.000000 0.038059 0.000000
# 6 0.000000 0.000000 0.000000 0.000000 0.000000 0.043853
#
#
# Mechanical properties :
#
#
# Convention : Reuss Voigt Hill
#
# Bulk Modulus (GPa) = 40.59951 49.61596 45.10774
# Shear Modulus (GPa) = 25.42274 27.63605 26.52940
#
# Velocity S-wave (km/s) = 3.58382 3.73657 3.66099
# Velocity P-wave (km/s) = 6.13484 6.60926 6.37646
#
# Compressibility (1/GPa) = 0.02463084
#
# Stress axis : x y z
#
# Youngs Moduli (GPa) = 78.06125 92.70479 37.24933
#
# Poissons Ratio (x) = 0.29558 0.19889
# Poissons Ratio (y) = 0.24889 0.16310
# Poissons Ratio (z) = 0.41680 0.40592
#
# Static dielectric constant tensor:
#      x y z
#    x 1.669130 0.000000 0.000000 
#    y 0.000000 1.492470 0.000000 
#    z 0.000000 0.000000 1.737390 
# 
# From -- ./inp_files/18811.got.cif
#   From: 2010.05.17/outbox.cif.g08.bks.cpg/sg23_10_cif.got.tgz:18811.got - 2010.06.04 12:02:01.
