data_PCOD9331941
_publ_section_title
;
Structure prediction by ZEFSAII (Michael W. Deem and Ramdas Pophale) SiO2 
 PCOD9331941
Probable space group: I 2 2 2
;
_chemical_formula_sum "Si O2"
_cell_formula_units_Z 60
_cell_length_a 32.167151
_cell_length_b 18.807292
_cell_length_c 5.429786
_cell_angle_alpha 90.000000
_cell_angle_beta 90.000000
_cell_angle_gamma 90.000000
_cell_volume 3284.895654
_symmetry_space_group_name_H-M "I 2 2 2"
_symmetry_group_IT_number 23
_symmetry_cell_setting 'orthorhombic'
loop_
_space_group_symop_operation_xyz
x,y,z
-x,-y,z
x,-y,-z
-x,y,-z
1/2+x,1/2+y,1/2+z
1/2-x,1/2-y,1/2+z
1/2+x,1/2-y,1/2-z
1/2-x,1/2+y,1/2-z
loop_
_atom_site_type_symbol
_atom_site_label
_atom_site_fract_x
_atom_site_fract_y
_atom_site_fract_z
Si Si1 0.025262 0.365620 0.244941
Si Si2 0.744448 0.678876 0.299076
Si Si3 0.793569 0.930676 0.410732
Si Si4 0.613402 0.812151 0.842770
Si Si5 0.816395 0.790588 0.169140
Si Si6 0.132610 0.392670 0.846812
Si Si7 0.785109 0.436795 0.350665
Si Si8 0.430980 0.000000 0.500000
O O1 0.063623 0.312879 0.308939
O O2 0.000000 0.373525 0.500000
O O3 0.042786 0.442456 0.154138
O O4 0.000000 0.340642 0.000000
O O5 0.731899 0.622774 0.089576
O O6 0.776530 0.743813 0.263067
O O7 0.699020 0.707512 0.385682
O O8 0.768922 0.630414 0.496779
O O9 0.817338 0.872836 0.248525
O O10 0.756901 0.968354 0.258092
O O11 0.818518 0.000000 0.500000
O O12 0.641747 0.745287 0.765123
O O13 0.626044 0.865479 0.622975
O O14 0.624445 0.839570 0.117127
O O15 0.180550 0.413287 0.839641
O O16 0.099422 0.455833 0.820222
O O17 0.806216 0.500000 0.500000
#
# Coordination Sequence:
#
# PCOD9331941 Si02
#       8
#     8   8   8   8   8   8   8   4
#     4  11  24  43  62  84 115 156 197 253 310 369
#     4  11  21  37  54  81 110 160 204 246 293 350
#     4  11  23  38  54  80 115 156 202 255 301 355
#     4  11  25  42  58  86 115 149 202 260 297 359
#     4  11  23  35  59  82 112 158 207 244 298 358
#     4  11  25  36  55  85 118 154 207 258 297 340
#     4  11  23  33  52  75 117 160 206 255 300 337
#     4  10  25  38  60  88 118 162 204 252 310 366
#
# _framework density 18.265422000000001
#
# number of rings (size 3 to 8) (size 9 to 14) (size 15 to 20)
#    0.000    1.067    4.000    2.600    8.400    4.267 
#    0.000    0.000    0.000    0.000    0.000    0.000 
#    0.000    0.533    0.267    0.000    0.000    0.000 
#
# Total GULP energy -167085.540268 kJ/mol
# GULP energy per Si atom -5569.518009 kJ/mol
# Density = 1.822385 g / cm^3
# Si number density = 18.265422 Si / 1000 Ang^3
#
#
#
# Elastic Constant Matrix: (Units=GPa)
#
#
# Indices 1 2 3 4 5 6 
#
# 1 77.3698 13.9658 10.6099 0.0000 0.0000 0.0000
# 2 13.9658 68.9440 5.9109 0.0000 0.0000 0.0000
# 3 10.6099 5.9109 46.6115 0.0000 0.0000 0.0000
# 4 0.0000 0.0000 0.0000 24.9220 0.0000 0.0000
# 5 0.0000 0.0000 0.0000 0.0000 17.7343 0.0000
# 6 0.0000 0.0000 0.0000 0.0000 0.0000 25.4589
#
#
#
# Elastic Compliance Matrix: (Units=1/GPa)
#
#
# Indices 1 2 3 4 5 6 
#
# 1 0.013770 -0.002548 -0.002811 0.000000 0.000000 0.000000
# 2 -0.002548 0.015136 -0.001339 0.000000 0.000000 0.000000
# 3 -0.002811 -0.001339 0.022264 0.000000 0.000000 0.000000
# 4 0.000000 0.000000 0.000000 0.040125 0.000000 0.000000
# 5 0.000000 0.000000 0.000000 0.000000 0.056388 0.000000
# 6 0.000000 0.000000 0.000000 0.000000 0.000000 0.039279
#
#
# Mechanical properties :
#
#
# Convention : Reuss Voigt Hill
#
# Bulk Modulus (GPa) = 26.47488 28.21095 27.34291
# Shear Modulus (GPa) = 23.47963 24.45228 23.96596
#
# Velocity S-wave (km/s) = 3.58923 3.66282 3.62621
# Velocity P-wave (km/s) = 5.63052 5.77641 5.70393
#
# Compressibility (1/GPa) = 0.03777166
#
# Stress axis : x y z
#
# Youngs Moduli (GPa) = 72.61916 66.06950 44.91621
#
# Poissons Ratio (x) = 0.16837 0.12627
# Poissons Ratio (y) = 0.18506 0.06016
# Poissons Ratio (z) = 0.20416 0.08849
#
# Static dielectric constant tensor:
#      x y z
#    x 1.664780 0.000000 0.000000 
#    y 0.000000 1.667300 0.000000 
#    z 0.000000 0.000000 1.803280 
# 
# From -- ./inp_files/5486.got.cif
#   From: 2010.05.17/outbox.cif.g08.bks.cpg/sg23_3_cif.got.tgz:5486.got - 2010.06.04 12:02:01.
