data_PCOD9331132
_publ_section_title
;
Structure prediction by ZEFSAII (Michael W. Deem and Ramdas Pophale) SiO2 
 PCOD9331132
Probable space group: I 2 2 2
;
_chemical_formula_sum "Si O2"
_cell_formula_units_Z 26
_cell_length_a 8.343590
_cell_length_b 5.162705
_cell_length_c 24.014151
_cell_angle_alpha 90.000000
_cell_angle_beta 90.000000
_cell_angle_gamma 90.000000
_cell_volume 1034.421413
_symmetry_space_group_name_H-M "I 2 2 2"
_symmetry_group_IT_number 23
_symmetry_cell_setting 'orthorhombic'
loop_
_space_group_symop_operation_xyz
x,y,z
-x,-y,z
x,-y,-z
-x,y,-z
1/2+x,1/2+y,1/2+z
1/2-x,1/2-y,1/2+z
1/2+x,1/2-y,1/2-z
1/2-x,1/2+y,1/2-z
loop_
_atom_site_type_symbol
_atom_site_label
_atom_site_fract_x
_atom_site_fract_y
_atom_site_fract_z
Si Si1 0.764262 0.272789 0.215363
Si Si2 0.000000 0.500000 0.638351
Si Si3 0.243812 0.352884 0.557395
Si Si4 0.500000 0.500000 0.643851
Si Si5 0.000000 0.500000 0.000000
O O1 0.736290 0.568233 0.233047
O O2 0.620101 0.161738 0.177217
O O3 0.935346 0.222199 0.185394
O O4 0.089222 0.304343 0.595044
O O5 0.203833 0.500000 0.500000
O O6 0.352660 0.505740 0.601108
O O7 0.372829 0.141333 0.539385
#
# Coordination Sequence:
#
# PCOD9331132 Si02
#       5
#     8   4   8   4   2
#     4  11  24  45  68 103 144 187 248 314 373 445
#     4  10  25  44  71 104 146 197 245 316 380 450
#     4  11  22  46  65 103 144 187 248 303 370 450
#     4  10  21  40  70  90 134 190 237 290 378 450
#     4  12  22  40  80  98 148 204 242 304 372 452
#
# _framework density 25.134827000000001
#
# number of rings (size 3 to 8) (size 9 to 14) (size 15 to 20)
#    0.000    1.231    3.077    2.308    0.000    4.923 
#    5.538    1.538    0.000    0.000    0.000    0.000 
#    0.000    0.000    0.000    0.000    0.000    0.000 
#
# Total GULP energy -72468.998448 kJ/mol
# GULP energy per Si atom -5574.538342 kJ/mol
# Density = 2.507762 g / cm^3
# Si number density = 25.134827 Si / 1000 Ang^3
#
#
#
# Elastic Constant Matrix: (Units=GPa)
#
#
# Indices 1 2 3 4 5 6 
#
# 1 110.3660 12.7749 56.1419 0.0000 0.0000 0.0000
# 2 12.7749 47.1688 12.2200 0.0000 0.0000 0.0000
# 3 56.1419 12.2200 125.7870 0.0000 0.0000 0.0000
# 4 0.0000 0.0000 0.0000 32.4660 0.0000 0.0000
# 5 0.0000 0.0000 0.0000 0.0000 45.1496 0.0000
# 6 0.0000 0.0000 0.0000 0.0000 0.0000 -117.4624
#
#
#
# Elastic Compliance Matrix: (Units=1/GPa)
#
#
# Indices 1 2 3 4 5 6 
#
# 1 0.011885 -0.001892 -0.005121 0.000000 0.000000 0.000000
# 2 -0.001892 0.022049 -0.001298 0.000000 0.000000 0.000000
# 3 -0.005121 -0.001298 0.010361 0.000000 0.000000 0.000000
# 4 0.000000 0.000000 0.000000 0.030801 0.000000 0.000000
# 5 0.000000 0.000000 0.000000 0.000000 0.022149 0.000000
# 6 0.000000 0.000000 0.000000 0.000000 0.000000 -0.008513
#
#
# Mechanical properties :
#
#
# Convention : Reuss Voigt Hill
#
# Bulk Modulus (GPa) = 36.13423 49.51060 42.82241
# Shear Modulus (GPa) = 43.63879 5.50964 24.57421
#
# Velocity S-wave (km/s) = 4.17128 1.48216 3.13020
# Velocity P-wave (km/s) = 6.13244 4.76128 5.48984
#
# Compressibility (1/GPa) = 0.02767459
#
# Stress axis : x y z
#
# Youngs Moduli (GPa) = 84.14289 45.35340 96.51180
#
# Poissons Ratio (x) = 0.08582 0.49419
# Poissons Ratio (y) = 0.15921 0.12522
# Poissons Ratio (z) = 0.43086 0.05885
#
# Static dielectric constant tensor:
#      x y z
#    x 2.067390 0.000000 0.000000 
#    y 0.000000 1.999280 0.000000 
#    z 0.000000 0.000000 2.144150 
# 
# From -- ./inp_files/464.got.cif
#   From: 2010.05.17/outbox.cif.g08.bks.cpg/sg23_1_cif.got.tgz:464.got - 2010.06.04 12:02:01.
