data_PCOD9331238
_publ_section_title
;
Structure prediction by ZEFSAII (Michael W. Deem and Ramdas Pophale) SiO2 
 PCOD9331238
Probable space group: I 2 2 2
;
_chemical_formula_sum "Si O2"
_cell_formula_units_Z 32
_cell_length_a 8.258798
_cell_length_b 13.519193
_cell_length_c 12.050024
_cell_angle_alpha 90.000000
_cell_angle_beta 90.000000
_cell_angle_gamma 90.000000
_cell_volume 1345.412703
_symmetry_space_group_name_H-M "I 2 2 2"
_symmetry_group_IT_number 23
_symmetry_cell_setting 'orthorhombic'
loop_
_space_group_symop_operation_xyz
x,y,z
-x,-y,z
x,-y,-z
-x,y,-z
1/2+x,1/2+y,1/2+z
1/2-x,1/2-y,1/2+z
1/2+x,1/2-y,1/2-z
1/2-x,1/2+y,1/2-z
loop_
_atom_site_type_symbol
_atom_site_label
_atom_site_fract_x
_atom_site_fract_y
_atom_site_fract_z
Si Si1 0.182245 0.403964 0.928213
Si Si2 0.725987 0.357580 0.688471
Si Si3 0.000000 0.500000 0.739888
Si Si4 0.500000 0.278549 0.500000
Si Si5 0.021463 0.809411 0.625405
O O1 0.068420 0.413661 0.820619
O O2 0.364928 0.404143 0.888008
O O3 0.142004 0.306189 0.999945
O O4 0.159620 0.500000 0.000000
O O5 0.581274 0.345750 0.596536
O O6 0.857842 0.269501 0.681036
O O7 0.632347 0.339357 0.803518
O O8 0.841636 0.454450 0.679921
O O9 0.000000 0.771174 0.500000
#
# Coordination Sequence:
#
# PCOD9331238 Si02
#       5
#     8   8   4   4   8
#     4  11  21  40  78 111 151 187 260 336 387 443
#     4  11  26  44  76 106 158 202 258 322 395 475
#     4  12  23  44  73 112 144 198 257 323 378 460
#     4  10  21  44  74 109 148 208 248 314 400 460
#     4  11  26  43  75 111 148 197 260 318 402 465
#
# _framework density 23.784524999999999
#
# number of rings (size 3 to 8) (size 9 to 14) (size 15 to 20)
#    0.000    1.000    2.500    4.500   10.500    3.500 
#    0.000    0.625    5.500    0.000    0.000    0.000 
#    0.000    0.000    0.000    0.000    0.000    0.000 
#
# Total GULP energy -89098.570672 kJ/mol
# GULP energy per Si atom -5568.660667 kJ/mol
# Density = 2.373039 g / cm^3
# Si number density = 23.784525 Si / 1000 Ang^3
#
#
#
# Elastic Constant Matrix: (Units=GPa)
#
#
# Indices 1 2 3 4 5 6 
#
# 1 169.9506 55.3455 90.3782 0.0000 0.0000 0.0000
# 2 55.3455 64.1611 49.5842 0.0000 0.0000 0.0000
# 3 90.3782 49.5842 116.0895 0.0000 0.0000 0.0000
# 4 0.0000 0.0000 0.0000 -28.6401 0.0000 0.0000
# 5 0.0000 0.0000 0.0000 0.0000 71.2493 0.0000
# 6 0.0000 0.0000 0.0000 0.0000 0.0000 49.4690
#
#
#
# Elastic Compliance Matrix: (Units=1/GPa)
#
#
# Indices 1 2 3 4 5 6 
#
# 1 0.010745 -0.004185 -0.006577 0.000000 0.000000 0.000000
# 2 -0.004185 0.024896 -0.007375 0.000000 0.000000 0.000000
# 3 -0.006577 -0.007375 0.016885 0.000000 0.000000 0.000000
# 4 0.000000 0.000000 0.000000 -0.034916 0.000000 0.000000
# 5 0.000000 0.000000 0.000000 0.000000 0.014035 0.000000
# 6 0.000000 0.000000 0.000000 0.000000 0.000000 0.020215
#
#
# Mechanical properties :
#
#
# Convention : Reuss Voigt Hill
#
# Bulk Modulus (GPa) = 61.54038 82.31301 71.92669
# Shear Modulus (GPa) = 53.44665 28.74186 41.09425
#
# Velocity S-wave (km/s) = 4.74552 3.48001 4.16116
# Velocity P-wave (km/s) = 7.48044 7.12953 7.30709
#
# Compressibility (1/GPa) = 0.01624949
#
# Stress axis : x y z
#
# Youngs Moduli (GPa) = 93.06731 40.16777 59.22522
#
# Poissons Ratio (x) = 0.16812 0.38955
# Poissons Ratio (y) = 0.38953 0.43678
# Poissons Ratio (z) = 0.61214 0.29623
#
# Static dielectric constant tensor:
#      x y z
#    x 2.103560 0.000000 0.000000 
#    y 0.000000 1.969060 0.000000 
#    z 0.000000 0.000000 2.012100 
# 
# From -- ./inp_files/14272.got.cif
#   From: 2010.05.17/outbox.cif.g08.bks.cpg/sg23_8_cif.got.tgz:14272.got - 2010.06.04 12:02:01.
