data_PCOD9331126
_publ_section_title
;
Structure prediction by ZEFSAII (Michael W. Deem and Ramdas Pophale) SiO2 
 PCOD9331126
Probable space group: I 2 2 2
;
_chemical_formula_sum "Si O2"
_cell_formula_units_Z 52
_cell_length_a 15.172117
_cell_length_b 17.922002
_cell_length_c 8.679696
_cell_angle_alpha 90.000000
_cell_angle_beta 90.000000
_cell_angle_gamma 90.000000
_cell_volume 2360.137031
_symmetry_space_group_name_H-M "I 2 2 2"
_symmetry_group_IT_number 23
_symmetry_cell_setting 'orthorhombic'
loop_
_space_group_symop_operation_xyz
x,y,z
-x,-y,z
x,-y,-z
-x,y,-z
1/2+x,1/2+y,1/2+z
1/2-x,1/2-y,1/2+z
1/2+x,1/2-y,1/2-z
1/2-x,1/2+y,1/2-z
loop_
_atom_site_type_symbol
_atom_site_label
_atom_site_fract_x
_atom_site_fract_y
_atom_site_fract_z
Si Si1 0.553952 0.252448 0.731365
Si Si2 0.131720 0.710136 0.666526
Si Si3 0.500000 0.622567 0.500000
Si Si4 0.231187 0.789690 0.402154
Si Si5 0.586540 0.954398 0.769109
Si Si6 0.500000 0.869220 0.500000
Si Si7 0.730034 0.466885 0.831705
Si Si8 0.138705 0.000000 0.000000
O O1 0.467509 0.240637 0.837940
O O2 0.534041 0.326178 0.636278
O O3 0.647882 0.258377 0.807809
O O4 0.552996 0.182840 0.616137
O O5 0.204289 0.751952 0.562903
O O6 0.171876 0.728006 0.836173
O O7 0.119460 0.620222 0.637555
O O8 0.578930 0.569536 0.549548
O O9 0.229584 0.878834 0.374768
O O10 0.557980 0.919569 0.607731
O O11 0.673694 0.998926 0.720721
O O12 0.500000 0.000000 0.825985
O O13 0.682173 0.477131 0.665075
O O14 0.702242 0.500000 0.000000
#
# Coordination Sequence:
#
# PCOD9331126 Si02
#       8
#     8   8   4   8   8   4   8   4
#     4  10  21  40  67  97 136 180 235 297 357 427
#     4  10  25  41  70 105 138 187 241 299 374 431
#     4  10  22  41  67  90 134 182 226 286 372 412
#     4  11  24  45  67 105 144 181 244 307 357 452
#     4  10  21  44  68 101 145 189 240 296 370 454
#     4   9  19  35  69  99 131 186 234 280 363 431
#     4  11  25  44  70 107 142 191 244 296 372 440
#     4  11  24  46  63 102 138 182 233 298 354 439
#
# _framework density 22.032620000000001
#
# number of rings (size 3 to 8) (size 9 to 14) (size 15 to 20)
#    0.000    1.692    1.538    1.615   10.769    0.000 
#    0.000    6.538    0.000    0.923    0.000    0.000 
#    0.000    0.000    0.000    0.000    0.000    0.000 
#
# Total GULP energy -144753.566061 kJ/mol
# GULP energy per Si atom -5567.444848 kJ/mol
# Density = 2.198247 g / cm^3
# Si number density = 22.032620 Si / 1000 Ang^3
#
#
#
# Elastic Constant Matrix: (Units=GPa)
#
#
# Indices 1 2 3 4 5 6 
#
# 1 91.5734 12.7345 29.4298 0.0000 0.0000 0.0000
# 2 12.7345 51.4338 7.0844 0.0000 0.0000 0.0000
# 3 29.4298 7.0844 85.9875 0.0000 0.0000 0.0000
# 4 0.0000 0.0000 0.0000 10.2467 0.0000 0.0000
# 5 0.0000 0.0000 0.0000 0.0000 24.4540 0.0000
# 6 0.0000 0.0000 0.0000 0.0000 0.0000 14.1931
#
#
#
# Elastic Compliance Matrix: (Units=1/GPa)
#
#
# Indices 1 2 3 4 5 6 
#
# 1 0.012593 -0.002553 -0.004100 0.000000 0.000000 0.000000
# 2 -0.002553 0.020183 -0.000789 0.000000 0.000000 0.000000
# 3 -0.004100 -0.000789 0.013098 0.000000 0.000000 0.000000
# 4 0.000000 0.000000 0.000000 0.097592 0.000000 0.000000
# 5 0.000000 0.000000 0.000000 0.000000 0.040893 0.000000
# 6 0.000000 0.000000 0.000000 0.000000 0.000000 0.070457
#
#
# Mechanical properties :
#
#
# Convention : Reuss Voigt Hill
#
# Bulk Modulus (GPa) = 32.26832 36.38802 34.32817
# Shear Modulus (GPa) = 17.85523 21.76181 19.80852
#
# Velocity S-wave (km/s) = 2.84984 3.14619 3.00168
# Velocity P-wave (km/s) = 5.05037 5.45430 5.25622
#
# Compressibility (1/GPa) = 0.03099015
#
# Stress axis : x y z
#
# Youngs Moduli (GPa) = 79.41059 49.54595 76.34912
#
# Poissons Ratio (x) = 0.12650 0.31300
# Poissons Ratio (y) = 0.20275 0.06024
# Poissons Ratio (z) = 0.32555 0.03909
#
# Static dielectric constant tensor:
#      x y z
#    x 1.852080 0.000000 0.000000 
#    y 0.000000 1.839320 0.000000 
#    z 0.000000 0.000000 1.863680 
# 
# From -- ./inp_files/10196.got.cif
#   From: 2010.05.17/outbox.cif.g08.bks.cpg/sg23_6_cif.got.tgz:10196.got - 2010.06.04 12:02:01.
