data_PCOD9331482
_publ_section_title
;
Structure prediction by ZEFSAII (Michael W. Deem and Ramdas Pophale) SiO2 
 PCOD9331482
Probable space group: I 2 2 2
;
_chemical_formula_sum "Si O2"
_cell_formula_units_Z 58
_cell_length_a 16.614257
_cell_length_b 7.076012
_cell_length_c 20.492127
_cell_angle_alpha 90.000000
_cell_angle_beta 90.000000
_cell_angle_gamma 90.000000
_cell_volume 2409.109408
_symmetry_space_group_name_H-M "I 2 2 2"
_symmetry_group_IT_number 23
_symmetry_cell_setting 'orthorhombic'
loop_
_space_group_symop_operation_xyz
x,y,z
-x,-y,z
x,-y,-z
-x,y,-z
1/2+x,1/2+y,1/2+z
1/2-x,1/2-y,1/2+z
1/2+x,1/2-y,1/2-z
1/2-x,1/2+y,1/2-z
loop_
_atom_site_type_symbol
_atom_site_label
_atom_site_fract_x
_atom_site_fract_y
_atom_site_fract_z
Si Si1 0.724037 0.472987 0.832914
Si Si2 0.299405 0.379573 0.600039
Si Si3 0.500000 0.000000 0.000000
Si Si4 0.578792 0.373341 0.653360
Si Si5 0.362213 0.857948 0.757977
Si Si6 0.091471 0.039035 0.576517
Si Si7 0.094635 0.282310 0.987906
Si Si8 0.375867 0.014478 0.102056
O O1 0.773587 0.328308 0.877727
O O2 0.668911 0.334900 0.790228
O O3 0.787984 0.575123 0.787120
O O4 0.658979 0.571263 0.880693
O O5 0.348027 0.477456 0.658919
O O6 0.356461 0.342410 0.538986
O O7 0.218894 0.499579 0.586412
O O8 0.563102 0.091259 0.052775
O O9 0.500000 0.500000 0.645771
O O10 0.569439 0.215704 0.708930
O O11 0.605277 0.268710 0.587234
O O12 0.384195 0.994706 0.818732
O O13 0.104616 0.264206 0.586009
O O14 0.100776 0.000000 0.500000
O O15 0.000000 0.000000 0.597365
O O16 0.114979 0.500000 0.000000
O O17 0.000000 0.255364 0.000000
#
# Coordination Sequence:
#
# PCOD9331482 Si02
#       8
#     8   8   2   8   8   8   8   8
#     4  10  22  42  64  95 138 172 232 276 338 415
#     4  10  22  42  66  97 133 179 226 277 328 408
#     4  12  24  48  62  96 122 164 210 278 348 384
#     4  12  24  41  68  98 138 183 227 273 346 408
#     4  10  22  44  63  96 131 178 225 276 342 419
#     4   9  18  38  64  95 126 166 221 277 332 383
#     4  11  23  40  64  99 139 177 227 285 330 396
#     4  10  25  43  64  92 131 161 219 276 335 409
#
# _framework density 24.075288
#
# number of rings (size 3 to 8) (size 9 to 14) (size 15 to 20)
#    0.000    1.931    1.379    3.724    1.931    6.621 
#    9.931    0.000    0.000    0.000    0.000    0.000 
#    0.000    0.000    0.000    0.000    0.000    0.000 
#
# Total GULP energy -161948.427000 kJ/mol
# GULP energy per Si atom -5584.428517 kJ/mol
# Density = 2.402049 g / cm^3
# Si number density = 24.075288 Si / 1000 Ang^3
#
#
#
# Elastic Constant Matrix: (Units=GPa)
#
#
# Indices 1 2 3 4 5 6 
#
# 1 103.5705 24.0681 49.5034 0.0000 0.0000 0.0000
# 2 24.0681 43.5215 34.2990 0.0000 0.0000 0.0000
# 3 49.5034 34.2990 162.8200 0.0000 0.0000 0.0000
# 4 0.0000 0.0000 0.0000 33.9984 0.0000 0.0000
# 5 0.0000 0.0000 0.0000 0.0000 98.7185 0.0000
# 6 0.0000 0.0000 0.0000 0.0000 0.0000 23.9851
#
#
#
# Elastic Compliance Matrix: (Units=1/GPa)
#
#
# Indices 1 2 3 4 5 6 
#
# 1 0.011991 -0.004506 -0.002697 0.000000 0.000000 0.000000
# 2 -0.004506 0.029245 -0.004790 0.000000 0.000000 0.000000
# 3 -0.002697 -0.004790 0.007971 0.000000 0.000000 0.000000
# 4 0.000000 0.000000 0.000000 0.029413 0.000000 0.000000
# 5 0.000000 0.000000 0.000000 0.000000 0.010130 0.000000
# 6 0.000000 0.000000 0.000000 0.000000 0.000000 0.041692
#
#
# Mechanical properties :
#
#
# Convention : Reuss Voigt Hill
#
# Bulk Modulus (GPa) = 39.65099 58.40589 49.02844
# Shear Modulus (GPa) = 30.70587 44.80982 37.75784
#
# Velocity S-wave (km/s) = 3.57516 4.31889 3.96450
# Velocity P-wave (km/s) = 5.79204 7.01304 6.43158
#
# Compressibility (1/GPa) = 0.02522005
#
# Stress axis : x y z
#
# Youngs Moduli (GPa) = 83.39375 34.19439 125.45889
#
# Poissons Ratio (x) = 0.15409 0.33830
# Poissons Ratio (y) = 0.37580 0.60101
# Poissons Ratio (z) = 0.22487 0.16381
#
# Static dielectric constant tensor:
#      x y z
#    x 1.973420 0.000000 0.000000 
#    y 0.000000 2.034990 0.000000 
#    z 0.000000 0.000000 2.013500 
# 
# From -- ./inp_files/25098.got.cif
#   From: 2010.05.17/outbox.cif.g08.bks.cpg/sg23_13_cif.got.tgz:25098.got - 2010.06.04 12:02:01.
