data_PCOD9331844
_publ_section_title
;
Structure prediction by ZEFSAII (Michael W. Deem and Ramdas Pophale) SiO2 
 PCOD9331844
Probable space group: I 2 2 2
;
_chemical_formula_sum "Si O2"
_cell_formula_units_Z 40
_cell_length_a 7.751915
_cell_length_b 12.478484
_cell_length_c 18.886375
_cell_angle_alpha 90.000000
_cell_angle_beta 90.000000
_cell_angle_gamma 90.000000
_cell_volume 1826.919608
_symmetry_space_group_name_H-M "I 2 2 2"
_symmetry_group_IT_number 23
_symmetry_cell_setting 'orthorhombic'
loop_
_space_group_symop_operation_xyz
x,y,z
-x,-y,z
x,-y,-z
-x,y,-z
1/2+x,1/2+y,1/2+z
1/2-x,1/2-y,1/2+z
1/2+x,1/2-y,1/2-z
1/2-x,1/2+y,1/2-z
loop_
_atom_site_type_symbol
_atom_site_label
_atom_site_fract_x
_atom_site_fract_y
_atom_site_fract_z
Si Si1 0.604161 0.324743 0.608539
Si Si2 0.500000 0.000000 0.819144
Si Si3 0.967084 0.698512 0.424702
Si Si4 0.500000 0.000000 0.500000
Si Si5 0.206690 0.337017 0.099227
Si Si6 0.500000 0.500000 0.500000
Si Si7 0.172414 0.062164 0.743584
O O1 0.429728 0.260132 0.597934
O O2 0.605108 0.424472 0.553832
O O3 0.618167 0.364739 0.689194
O O4 0.773962 0.258298 0.587546
O O5 0.511237 0.892776 0.865706
O O6 0.674000 0.011192 0.773880
O O7 0.108689 0.791032 0.423325
O O8 0.000000 0.644225 0.500000
O O9 0.622316 0.927396 0.549951
O O10 0.240391 0.376184 0.178967
O O11 0.000000 0.000000 0.720972
#
# Coordination Sequence:
#
# PCOD9331844 Si02
#       7
#     8   4   8   2   8   2   8
#     4  11  26  44  74 110 149 190 243 315 383 446
#     4  10  24  42  68 108 146 186 230 310 383 439
#     4  11  24  41  72 107 141 184 248 305 373 445
#     4  12  28  56  74 100 156 216 258 316 364 438
#     4  12  28  49  73 103 150 199 254 303 371 443
#     4  12  22  48  78 106 152 192 238 316 398 454
#     4  11  25  45  71 106 145 191 245 302 374 442
#
# _framework density 21.894780000000001
#
# number of rings (size 3 to 8) (size 9 to 14) (size 15 to 20)
#    0.000    0.800    1.000    5.100   14.000    4.800 
#    0.000    1.000    0.000    0.000    0.000    0.000 
#    0.000    0.000    0.000    0.000    0.000    0.000 
#
# Total GULP energy -111869.593275 kJ/mol
# GULP energy per Si atom -5593.479664 kJ/mol
# Density = 2.184495 g / cm^3
# Si number density = 21.894780 Si / 1000 Ang^3
#
#
#
# Elastic Constant Matrix: (Units=GPa)
#
#
# Indices 1 2 3 4 5 6 
#
# 1 139.1189 25.5992 25.3158 0.0000 0.0000 0.0000
# 2 25.5992 52.8437 37.1944 0.0000 0.0000 0.0000
# 3 25.3158 37.1944 118.2040 0.0000 0.0000 0.0000
# 4 0.0000 0.0000 0.0000 7.9436 0.0000 0.0000
# 5 0.0000 0.0000 0.0000 0.0000 42.4227 0.0000
# 6 0.0000 0.0000 0.0000 0.0000 0.0000 25.3224
#
#
#
# Elastic Compliance Matrix: (Units=1/GPa)
#
#
# Indices 1 2 3 4 5 6 
#
# 1 0.007928 -0.003398 -0.000629 0.000000 0.000000 0.000000
# 2 -0.003398 0.025764 -0.007379 0.000000 0.000000 0.000000
# 3 -0.000629 -0.007379 0.010917 0.000000 0.000000 0.000000
# 4 0.000000 0.000000 0.000000 0.125887 0.000000 0.000000
# 5 0.000000 0.000000 0.000000 0.000000 0.023572 0.000000
# 6 0.000000 0.000000 0.000000 0.000000 0.000000 0.039491
#
#
# Mechanical properties :
#
#
# Convention : Reuss Voigt Hill
#
# Bulk Modulus (GPa) = 45.87908 54.04281 49.96095
# Shear Modulus (GPa) = 18.96563 29.94155 24.45359
#
# Velocity S-wave (km/s) = 2.94635 3.70201 3.34558
# Velocity P-wave (km/s) = 5.70740 6.55818 6.14753
#
# Compressibility (1/GPa) = 0.02179643
#
# Stress axis : x y z
#
# Youngs Moduli (GPa) = 126.13909 38.81435 91.60421
#
# Poissons Ratio (x) = 0.13189 0.05759
# Poissons Ratio (y) = 0.42862 0.67596
# Poissons Ratio (z) = 0.07930 0.28642
#
# Static dielectric constant tensor:
#      x y z
#    x 1.805630 0.000000 0.000000 
#    y 0.000000 1.785310 0.000000 
#    z 0.000000 0.000000 2.437250 
# 
# From -- ./inp_files/23588.got.cif
#   From: 2010.05.17/outbox.cif.g08.bks.cpg/sg23_12_cif.got.tgz:23588.got - 2010.06.04 12:02:01.
