data_PCOD9331528
_publ_section_title
;
Structure prediction by ZEFSAII (Michael W. Deem and Ramdas Pophale) SiO2 
 PCOD9331528
Probable space group: I 2 2 2
;
_chemical_formula_sum "Si O2"
_cell_formula_units_Z 58
_cell_length_a 17.675754
_cell_length_b 25.647087
_cell_length_c 5.881712
_cell_angle_alpha 90.000000
_cell_angle_beta 90.000000
_cell_angle_gamma 90.000000
_cell_volume 2666.365915
_symmetry_space_group_name_H-M "I 2 2 2"
_symmetry_group_IT_number 23
_symmetry_cell_setting 'orthorhombic'
loop_
_space_group_symop_operation_xyz
x,y,z
-x,-y,z
x,-y,-z
-x,y,-z
1/2+x,1/2+y,1/2+z
1/2-x,1/2-y,1/2+z
1/2+x,1/2-y,1/2-z
1/2-x,1/2+y,1/2-z
loop_
_atom_site_type_symbol
_atom_site_label
_atom_site_fract_x
_atom_site_fract_y
_atom_site_fract_z
Si Si1 0.586315 0.150681 0.412320
Si Si2 0.295248 0.247341 0.600537
Si Si3 0.816387 0.141958 0.832909
Si Si4 0.000000 0.500000 0.500000
Si Si5 0.085617 0.056122 0.921038
Si Si6 0.814498 0.401019 0.569573
Si Si7 0.194239 0.060327 0.562830
Si Si8 0.379762 0.953535 0.680075
O O1 0.500000 0.163736 0.500000
O O2 0.647120 0.198061 0.418349
O O3 0.607164 0.122329 0.168137
O O4 0.610247 0.102875 0.572871
O O5 0.256425 0.253464 0.341342
O O6 0.343685 0.299253 0.657237
O O7 0.804717 0.109707 0.603990
O O8 0.871062 0.104099 0.969997
O O9 0.734626 0.144051 0.953941
O O10 0.047754 0.534119 0.329258
O O11 0.108608 0.059633 0.659959
O O12 0.000000 0.057588 0.000000
O O13 0.117495 0.000000 0.000000
O O14 0.760877 0.424915 0.762631
O O15 0.818561 0.445324 0.376245
O O16 0.207623 0.000000 0.500000
O O17 0.371955 0.000000 0.500000
#
# Coordination Sequence:
#
# PCOD9331528 Si02
#       8
#     8   8   8   2   8   8   8   8
#     4  12  27  48  77 111 150 204 261 325 395 470
#     4  12  27  53  81 110 151 208 267 328 400 467
#     4  11  24  43  72 105 140 196 253 311 380 463
#     4  12  26  44  64  98 152 196 240 300 372 476
#     4  10  22  43  67 103 151 192 240 312 389 461
#     4  11  24  43  65 104 145 186 247 315 369 463
#     4  11  23  41  68 105 143 193 255 306 377 470
#     4  12  25  44  68 103 148 197 241 301 388 460
#
# _framework density 21.752455000000001
#
# number of rings (size 3 to 8) (size 9 to 14) (size 15 to 20)
#    0.000    0.690    2.759    5.172    1.931    6.621 
#    0.000    0.000    3.034    0.000    0.000    0.000 
#    0.000    0.000    0.000    0.000    0.000    0.000 
#
# Total GULP energy -161457.714809 kJ/mol
# GULP energy per Si atom -5567.507407 kJ/mol
# Density = 2.170295 g / cm^3
# Si number density = 21.752455 Si / 1000 Ang^3
#
#
#
# Elastic Constant Matrix: (Units=GPa)
#
#
# Indices 1 2 3 4 5 6 
#
# 1 110.3438 47.1609 49.5025 0.0000 0.0000 0.0000
# 2 47.1609 192.4923 68.4994 0.0000 0.0000 0.0000
# 3 49.5025 68.4994 113.9046 0.0000 0.0000 0.0000
# 4 0.0000 0.0000 0.0000 33.0253 0.0000 0.0000
# 5 0.0000 0.0000 0.0000 0.0000 59.6099 0.0000
# 6 0.0000 0.0000 0.0000 0.0000 0.0000 39.3134
#
#
#
# Elastic Compliance Matrix: (Units=1/GPa)
#
#
# Indices 1 2 3 4 5 6 
#
# 1 0.011517 -0.001324 -0.004209 0.000000 0.000000 0.000000
# 2 -0.001324 0.006762 -0.003491 0.000000 0.000000 0.000000
# 3 -0.004209 -0.003491 0.012708 0.000000 0.000000 0.000000
# 4 0.000000 0.000000 0.000000 0.030280 0.000000 0.000000
# 5 0.000000 0.000000 0.000000 0.000000 0.016776 0.000000
# 6 0.000000 0.000000 0.000000 0.000000 0.000000 0.025437
#
#
# Mechanical properties :
#
#
# Convention : Reuss Voigt Hill
#
# Bulk Modulus (GPa) = 77.28793 83.00735 80.14764
# Shear Modulus (GPa) = 39.73343 43.16158 41.44751
#
# Velocity S-wave (km/s) = 4.27853 4.45929 4.36984
# Velocity P-wave (km/s) = 7.74697 8.04714 7.89848
#
# Compressibility (1/GPa) = 0.01293863
#
# Stress axis : x y z
#
# Youngs Moduli (GPa) = 86.83107 147.89359 78.69150
#
# Poissons Ratio (x) = 0.19578 0.33121
# Poissons Ratio (y) = 0.11495 0.27471
# Poissons Ratio (z) = 0.36547 0.51629
#
# Static dielectric constant tensor:
#      x y z
#    x 1.883100 0.000000 0.000000 
#    y 0.000000 1.683930 0.000000 
#    z 0.000000 0.000000 1.952970 
# 
# From -- ./inp_files/3504.got.cif
#   From: 2010.05.17/outbox.cif.g08.bks.cpg/sg23_2_cif.got.tgz:3504.got - 2010.06.04 12:02:01.
