data_PCOD9331219
_publ_section_title
;
Structure prediction by ZEFSAII (Michael W. Deem and Ramdas Pophale) SiO2 
 PCOD9331219
Probable space group: I 2 2 2
;
_chemical_formula_sum "Si O2"
_cell_formula_units_Z 40
_cell_length_a 9.317148
_cell_length_b 24.268866
_cell_length_c 8.823672
_cell_angle_alpha 90.000000
_cell_angle_beta 90.000000
_cell_angle_gamma 90.000000
_cell_volume 1995.178856
_symmetry_space_group_name_H-M "I 2 2 2"
_symmetry_group_IT_number 23
_symmetry_cell_setting 'orthorhombic'
loop_
_space_group_symop_operation_xyz
x,y,z
-x,-y,z
x,-y,-z
-x,y,-z
1/2+x,1/2+y,1/2+z
1/2-x,1/2-y,1/2+z
1/2+x,1/2-y,1/2-z
1/2-x,1/2+y,1/2-z
loop_
_atom_site_type_symbol
_atom_site_label
_atom_site_fract_x
_atom_site_fract_y
_atom_site_fract_z
Si Si1 0.650058 0.602538 0.308784
Si Si2 0.135081 0.224157 0.891434
Si Si3 0.336113 0.007590 0.679537
Si Si4 0.867724 0.300148 0.389709
Si Si5 0.823843 0.907959 0.161295
O O1 0.684347 0.667241 0.313189
O O2 0.760495 0.565541 0.216764
O O3 0.659566 0.581457 0.482054
O O4 0.481926 0.599309 0.267247
O O5 0.093591 0.267394 0.762755
O O6 0.264528 0.238175 0.005561
O O7 0.000000 0.211449 0.000000
O O8 0.500000 0.000000 0.732475
O O9 0.333962 0.000000 0.500000
O O10 0.248086 0.959258 0.758712
O O11 0.774763 0.353117 0.337012
O O12 0.000000 0.315492 0.500000
#
# Coordination Sequence:
#
# PCOD9331219 Si02
#       5
#     8   8   8   8   8
#     4  10  21  43  68  89 126 172 222 270 320 402
#     4  11  22  45  64 100 138 176 227 278 331 407
#     4  11  26  43  61  96 133 165 215 280 342 394
#     4  11  24  39  69 100 137 180 225 278 335 396
#     4  10  22  42  65  94 123 172 224 264 325 403
#
# _framework density 20.048328000000001
#
# number of rings (size 3 to 8) (size 9 to 14) (size 15 to 20)
#    0.000    1.400    4.000    2.400    5.600    5.600 
#    3.600    0.000    0.000    0.000    0.000    0.000 
#    0.000    0.000    0.000    0.000    0.000    0.000 
#
# Total GULP energy -111638.906307 kJ/mol
# GULP energy per Si atom -5581.945315 kJ/mol
# Density = 2.000270 g / cm^3
# Si number density = 20.048328 Si / 1000 Ang^3
#
#
#
# Elastic Constant Matrix: (Units=GPa)
#
#
# Indices 1 2 3 4 5 6 
#
# 1 100.3612 41.4194 24.6018 -0.0003 -0.0001 -0.0001
# 2 41.4194 95.7067 47.0779 0.0003 0.0000 0.0002
# 3 24.6018 47.0779 40.5216 0.0003 0.0004 0.0005
# 4 -0.0003 0.0003 0.0003 28.9195 0.0000 0.0002
# 5 -0.0001 0.0000 0.0004 0.0000 26.4449 0.0000
# 6 -0.0001 0.0002 0.0005 0.0002 0.0000 23.4346
#
#
#
# Elastic Compliance Matrix: (Units=1/GPa)
#
#
# Indices 1 2 3 4 5 6 
#
# 1 0.012284 -0.003845 -0.002991 0.000000 0.000000 0.000000
# 2 -0.003845 0.025587 -0.027392 0.000000 0.000000 0.000000
# 3 -0.002991 -0.027392 0.058318 0.000000 -0.000001 -0.000001
# 4 0.000000 0.000000 0.000000 0.034579 0.000000 0.000000
# 5 0.000000 0.000000 -0.000001 0.000000 0.037814 0.000000
# 6 0.000000 0.000000 -0.000001 0.000000 0.000000 0.042672
#
#
# Mechanical properties :
#
#
# Convention : Reuss Voigt Hill
#
# Bulk Modulus (GPa) = 36.05836 51.42086 43.73961
# Shear Modulus (GPa) = 17.30377 23.99249 20.64813
#
# Velocity S-wave (km/s) = 2.94105 3.46314 3.21271
# Velocity P-wave (km/s) = 5.43671 6.45718 5.96879
#
# Compressibility (1/GPa) = 0.02773282
#
# Stress axis : x y z
#
# Youngs Moduli (GPa) = 81.40660 39.08273 17.14734
#
# Poissons Ratio (x) = 0.15027 0.05128
# Poissons Ratio (y) = 0.31301 0.46970
# Poissons Ratio (z) = 0.24347 1.07056
#
# Static dielectric constant tensor:
#      x y z
#    x 1.767650 0.000000 0.000000 
#    y 0.000000 1.704920 0.000000 
#    z 0.000000 0.000000 1.689530 
# 
# From -- ./inp_files/6878.got.cif
#   From: 2010.05.17/outbox.cif.g08.bks.cpg/sg23_4_cif.got.tgz:6878.got - 2010.06.04 12:02:01.
