data_PCOD9331930
_publ_section_title
;
Structure prediction by ZEFSAII (Michael W. Deem and Ramdas Pophale) SiO2 
 PCOD9331930
Probable space group: I 2 2 2
;
_chemical_formula_sum "Si O2"
_cell_formula_units_Z 32
_cell_length_a 5.518066
_cell_length_b 7.342790
_cell_length_c 32.720499
_cell_angle_alpha 90.000000
_cell_angle_beta 90.000000
_cell_angle_gamma 90.000000
_cell_volume 1325.769173
_symmetry_space_group_name_H-M "I 2 2 2"
_symmetry_group_IT_number 23
_symmetry_cell_setting 'orthorhombic'
loop_
_space_group_symop_operation_xyz
x,y,z
-x,-y,z
x,-y,-z
-x,y,-z
1/2+x,1/2+y,1/2+z
1/2-x,1/2-y,1/2+z
1/2+x,1/2-y,1/2-z
1/2-x,1/2+y,1/2-z
loop_
_atom_site_type_symbol
_atom_site_label
_atom_site_fract_x
_atom_site_fract_y
_atom_site_fract_z
Si Si1 0.652251 0.813021 0.891844
Si Si2 0.749248 0.708483 0.983262
Si Si3 0.242925 0.261616 0.224879
Si Si4 0.000000 0.000000 0.333439
Si Si5 0.500000 0.500000 0.334075
O O1 0.731043 0.726397 0.934703
O O2 0.513916 0.669522 0.863881
O O3 0.500000 0.000000 0.897994
O O4 0.884174 0.855008 0.864182
O O5 0.749647 0.500000 0.000000
O O6 0.500000 0.791303 0.000000
O O7 0.000000 0.789188 0.000000
O O8 0.496999 0.234114 0.248615
O O9 0.284973 0.442459 0.197478
O O10 0.698759 0.408768 0.305185
#
# Coordination Sequence:
#
# PCOD9331930 Si02
#       5
#     8   8   8   4   4
#     4  12  28  52  80 119 164 212 271 341 404 490
#     4  10  24  48  79 114 156 205 265 322 399 483
#     4  12  29  51  80 120 161 218 278 341 410 490
#     4  12  27  52  87 110 164 222 270 334 421 486
#     4  12  29  50  77 116 170 204 278 336 413 474
#
# _framework density 24.136931000000001
#
# number of rings (size 3 to 8) (size 9 to 14) (size 15 to 20)
#    0.000    0.500    2.500    3.750    3.500   14.500 
#    0.000    0.000    0.000    0.000    0.000    0.000 
#    0.000    0.000    0.000    0.000    0.000    0.000 
#
# Total GULP energy -89544.750659 kJ/mol
# GULP energy per Si atom -5596.546916 kJ/mol
# Density = 2.408199 g / cm^3
# Si number density = 24.136931 Si / 1000 Ang^3
#
#
#
# Elastic Constant Matrix: (Units=GPa)
#
#
# Indices 1 2 3 4 5 6 
#
# 1 189.7491 36.3934 104.3150 0.0000 0.0000 0.0000
# 2 36.3934 128.9767 67.4985 0.0000 0.0000 0.0000
# 3 104.3150 67.4985 222.2818 0.0000 0.0000 0.0000
# 4 0.0000 0.0000 0.0000 65.0588 0.0000 0.0000
# 5 0.0000 0.0000 0.0000 0.0000 53.9566 0.0000
# 6 0.0000 0.0000 0.0000 0.0000 0.0000 21.2786
#
#
#
# Elastic Compliance Matrix: (Units=1/GPa)
#
#
# Indices 1 2 3 4 5 6 
#
# 1 0.007113 -0.000309 -0.003244 0.000000 0.000000 0.000000
# 2 -0.000309 0.009232 -0.002658 0.000000 0.000000 0.000000
# 3 -0.003244 -0.002658 0.006828 0.000000 0.000000 0.000000
# 4 0.000000 0.000000 0.000000 0.015371 0.000000 0.000000
# 5 0.000000 0.000000 0.000000 0.000000 0.018533 0.000000
# 6 0.000000 0.000000 0.000000 0.000000 0.000000 0.046995
#
#
# Mechanical properties :
#
#
# Convention : Reuss Voigt Hill
#
# Bulk Modulus (GPa) = 93.02407 106.38014 99.70211
# Shear Modulus (GPa) = 41.63923 50.24552 45.94238
#
# Velocity S-wave (km/s) = 4.15797 4.56750 4.36754
# Velocity P-wave (km/s) = 7.85337 8.48442 8.17499
#
# Compressibility (1/GPa) = 0.01074991
#
# Stress axis : x y z
#
# Youngs Moduli (GPa) = 140.58989 108.32197 146.44699
#
# Poissons Ratio (x) = 0.03350 0.47509
# Poissons Ratio (y) = 0.04348 0.38928
# Poissons Ratio (z) = 0.45609 0.28794
#
# Static dielectric constant tensor:
#      x y z
#    x 1.911300 0.000000 0.000000 
#    y 0.000000 1.889160 0.000000 
#    z 0.000000 0.000000 1.880060 
# 
# From -- ./inp_files/29837.got.cif
#   From: 2010.05.17/outbox.cif.g08.bks.cpg/sg23_15_cif.got.tgz:29837.got - 2010.06.04 12:02:01.
