data_PCOD9331577
_publ_section_title
;
Structure prediction by ZEFSAII (Michael W. Deem and Ramdas Pophale) SiO2 
 PCOD9331577
Probable space group: I 2 2 2
;
_chemical_formula_sum "Si O2"
_cell_formula_units_Z 56
_cell_length_a 15.966575
_cell_length_b 11.547458
_cell_length_c 13.756554
_cell_angle_alpha 90.000000
_cell_angle_beta 90.000000
_cell_angle_gamma 90.000000
_cell_volume 2536.342003
_symmetry_space_group_name_H-M "I 2 2 2"
_symmetry_group_IT_number 23
_symmetry_cell_setting 'orthorhombic'
loop_
_space_group_symop_operation_xyz
x,y,z
-x,-y,z
x,-y,-z
-x,y,-z
1/2+x,1/2+y,1/2+z
1/2-x,1/2-y,1/2+z
1/2+x,1/2-y,1/2-z
1/2-x,1/2+y,1/2-z
loop_
_atom_site_type_symbol
_atom_site_label
_atom_site_fract_x
_atom_site_fract_y
_atom_site_fract_z
Si Si1 0.672341 0.867600 0.485948
Si Si2 0.097354 0.257068 0.793951
Si Si3 0.940439 0.186860 0.905588
Si Si4 0.844979 0.432950 0.363028
Si Si5 0.838458 0.004065 0.787071
Si Si6 0.586712 0.851720 0.946139
Si Si7 0.861884 0.902223 0.430500
O O1 0.641502 0.824371 0.381769
O O2 0.630722 0.779084 0.562376
O O3 0.772840 0.871642 0.481659
O O4 0.643301 0.000000 0.500000
O O5 0.111413 0.333414 0.699458
O O6 0.001303 0.239492 0.823926
O O7 0.140179 0.131371 0.787701
O O8 0.899645 0.072275 0.860736
O O9 0.000000 0.166074 0.000000
O O10 0.754508 0.464954 0.322130
O O11 0.896916 0.552900 0.364417
O O12 0.843154 0.382107 0.472319
O O13 0.848511 0.047607 0.676804
O O14 0.590540 0.718411 0.918983
O O15 0.500000 0.873581 0.000000
O O16 0.901172 0.000000 0.500000
#
# Coordination Sequence:
#
# PCOD9331577 Si02
#       7
#     8   8   8   8   8   8   8
#     4  10  22  45  70 103 141 187 233 294 373 430
#     4  11  24  44  68 106 145 178 242 296 363 445
#     4  10  25  44  72 107 149 187 235 306 378 442
#     4  11  24  45  71 100 141 186 245 302 355 447
#     4  12  25  43  75 107 140 196 242 296 380 440
#     4  11  26  48  67 100 141 194 241 300 370 418
#     4  11  24  46  71 102 142 188 247 302 359 445
#
# _framework density 22.079042000000001
#
# number of rings (size 3 to 8) (size 9 to 14) (size 15 to 20)
#    0.000    1.143    1.429    3.857    2.000   12.571 
#    5.143    0.000    0.000    0.000    0.000    0.000 
#    0.000    0.000    0.000    0.000    0.000    0.000 
#
# Total GULP energy -156702.083551 kJ/mol
# GULP energy per Si atom -5596.502984 kJ/mol
# Density = 2.202879 g / cm^3
# Si number density = 22.079042 Si / 1000 Ang^3
#
#
#
# Elastic Constant Matrix: (Units=GPa)
#
#
# Indices 1 2 3 4 5 6 
#
# 1 85.8140 48.2284 37.8211 0.0000 0.0000 0.0000
# 2 48.2284 206.6493 73.4599 0.0000 0.0000 0.0000
# 3 37.8211 73.4599 87.2828 0.0000 0.0000 0.0000
# 4 0.0000 0.0000 0.0000 54.1675 0.0000 0.0000
# 5 0.0000 0.0000 0.0000 0.0000 17.5202 0.0000
# 6 0.0000 0.0000 0.0000 0.0000 0.0000 11.1838
#
#
#
# Elastic Compliance Matrix: (Units=1/GPa)
#
#
# Indices 1 2 3 4 5 6 
#
# 1 0.014800 -0.001676 -0.005003 0.000000 0.000000 0.000000
# 2 -0.001676 0.007095 -0.005245 0.000000 0.000000 0.000000
# 3 -0.005003 -0.005245 0.018039 0.000000 0.000000 0.000000
# 4 0.000000 0.000000 0.000000 0.018461 0.000000 0.000000
# 5 0.000000 0.000000 0.000000 0.000000 0.057077 0.000000
# 6 0.000000 0.000000 0.000000 0.000000 0.000000 0.089415
#
#
# Mechanical properties :
#
#
# Convention : Reuss Voigt Hill
#
# Bulk Modulus (GPa) = 62.16273 77.64054 69.90163
# Shear Modulus (GPa) = 21.35879 31.25675 26.30777
#
# Velocity S-wave (km/s) = 3.11365 3.76663 3.45559
# Velocity P-wave (km/s) = 6.41421 7.35920 6.90290
#
# Compressibility (1/GPa) = 0.01608681
#
# Stress axis : x y z
#
# Youngs Moduli (GPa) = 67.56900 140.95059 55.43506
#
# Poissons Ratio (x) = 0.23618 0.27732
# Poissons Ratio (y) = 0.11322 0.29076
# Poissons Ratio (z) = 0.33803 0.73929
#
# Static dielectric constant tensor:
#      x y z
#    x 1.834140 0.000000 0.000000 
#    y 0.000000 1.807440 0.000000 
#    z 0.000000 0.000000 1.814040 
# 
# From -- ./inp_files/21584.got.cif
#   From: 2010.05.17/outbox.cif.g08.bks.cpg/sg23_11_cif.got.tgz:21584.got - 2010.06.04 12:02:01.
