data_PCOD9331063
_publ_section_title
;
Structure prediction by ZEFSAII (Michael W. Deem and Ramdas Pophale) SiO2 
 PCOD9331063
Probable space group: I 2 2 2
;
_chemical_formula_sum "Si O2"
_cell_formula_units_Z 52
_cell_length_a 19.543602
_cell_length_b 14.982546
_cell_length_c 7.345166
_cell_angle_alpha 90.000000
_cell_angle_beta 90.000000
_cell_angle_gamma 90.000000
_cell_volume 2150.759475
_symmetry_space_group_name_H-M "I 2 2 2"
_symmetry_group_IT_number 23
_symmetry_cell_setting 'orthorhombic'
loop_
_space_group_symop_operation_xyz
x,y,z
-x,-y,z
x,-y,-z
-x,y,-z
1/2+x,1/2+y,1/2+z
1/2-x,1/2-y,1/2+z
1/2+x,1/2-y,1/2-z
1/2-x,1/2+y,1/2-z
loop_
_atom_site_type_symbol
_atom_site_label
_atom_site_fract_x
_atom_site_fract_y
_atom_site_fract_z
Si Si1 0.686270 0.500000 0.000000
Si Si2 0.934123 0.336079 0.896049
Si Si3 0.883446 0.930513 0.864207
Si Si4 0.973922 0.778359 0.690921
Si Si5 0.595756 0.102467 0.989347
Si Si6 0.242886 0.644023 0.545260
Si Si7 0.717388 0.844788 0.527684
O O1 0.640949 0.473759 0.826567
O O2 0.736818 0.420338 0.063602
O O3 0.915963 0.374590 0.700381
O O4 0.863946 0.341693 0.007952
O O5 0.963022 0.240823 0.826575
O O6 0.000000 0.376659 0.000000
O O7 0.922673 0.842584 0.795386
O O8 0.816110 0.900741 0.978363
O O9 0.919776 0.000000 0.000000
O O10 0.940793 0.681658 0.627875
O O11 0.000000 0.818190 0.500000
O O12 0.676518 0.106727 0.943456
O O13 0.573438 0.000000 0.000000
O O14 0.250534 0.748529 0.506724
O O15 0.227126 0.634682 0.759022
#
# Coordination Sequence:
#
# PCOD9331063 Si02
#       7
#     4   8   8   8   8   8   8
#     4  10  24  46  70 108 146 182 238 308 386 444
#     4  10  22  43  64 102 138 187 242 291 353 448
#     4  11  24  46  75 109 142 186 249 312 368 439
#     4  10  23  47  74  99 146 201 242 295 374 451
#     4  10  21  42  70 102 146 192 236 297 367 450
#     4  10  21  39  68 104 131 184 232 296 379 427
#     4  10  22  42  68  98 141 182 227 302 364 439
#
# _framework density 24.177508
#
# number of rings (size 3 to 8) (size 9 to 14) (size 15 to 20)
#    0.000    1.846    0.000    3.231    2.154    2.769 
#   24.923    0.385    6.769    0.000    0.000    0.000 
#    0.000    0.000    0.000    0.000    0.000    0.000 
#
# Total GULP energy -145195.147021 kJ/mol
# GULP energy per Si atom -5584.428732 kJ/mol
# Density = 2.412248 g / cm^3
# Si number density = 24.177508 Si / 1000 Ang^3
#
#
#
# Elastic Constant Matrix: (Units=GPa)
#
#
# Indices 1 2 3 4 5 6 
#
# 1 128.5757 53.7628 28.1257 0.0000 0.0000 0.0000
# 2 53.7628 143.7842 26.1452 0.0000 0.0000 0.0000
# 3 28.1257 26.1452 102.7333 0.0000 0.0000 0.0000
# 4 0.0000 0.0000 0.0000 38.7735 0.0000 0.0000
# 5 0.0000 0.0000 0.0000 0.0000 34.9202 0.0000
# 6 0.0000 0.0000 0.0000 0.0000 0.0000 -5.1504
#
#
#
# Elastic Compliance Matrix: (Units=1/GPa)
#
#
# Indices 1 2 3 4 5 6 
#
# 1 0.009520 -0.003236 -0.001783 0.000000 0.000000 0.000000
# 2 -0.003236 0.008392 -0.001250 0.000000 0.000000 0.000000
# 3 -0.001783 -0.001250 0.010540 0.000000 0.000000 0.000000
# 4 0.000000 0.000000 0.000000 0.025791 0.000000 0.000000
# 5 0.000000 0.000000 0.000000 0.000000 0.028637 0.000000
# 6 0.000000 0.000000 0.000000 0.000000 0.000000 -0.194160
#
#
# Mechanical properties :
#
#
# Convention : Reuss Voigt Hill
#
# Bulk Modulus (GPa) = 62.83146 65.68453 64.25799
# Shear Modulus (GPa) = -53.51143 31.51263 -10.99940
#
# Velocity S-wave (km/s) = -4.70965 3.61416 -2.13525
# Velocity P-wave (km/s) = 1.87893 6.68153 4.53390
#
# Compressibility (1/GPa) = 0.01591560
#
# Stress axis : x y z
#
# Youngs Moduli (GPa) = 105.03652 119.16132 94.87501
#
# Poissons Ratio (x) = 0.38556 0.16916
# Poissons Ratio (y) = 0.33986 0.11858
# Poissons Ratio (z) = 0.18728 0.14894
#
# Static dielectric constant tensor:
#      x y z
#    x 1.997600 0.000000 0.000000 
#    y 0.000000 2.000640 0.000000 
#    z 0.000000 0.000000 2.049550 
# 
# From -- ./inp_files/11990.got.cif
#   From: 2010.05.17/outbox.cif.g08.bks.cpg/sg23_6_cif.got.tgz:11990.got - 2010.06.04 12:02:01.
