data_PCOD9331823
_publ_section_title
;
Structure prediction by ZEFSAII (Michael W. Deem and Ramdas Pophale) SiO2 
 PCOD9331823
Probable space group: I 2 2 2
;
_chemical_formula_sum "Si O2"
_cell_formula_units_Z 52
_cell_length_a 19.931482
_cell_length_b 8.727720
_cell_length_c 14.117148
_cell_angle_alpha 90.000000
_cell_angle_beta 90.000000
_cell_angle_gamma 90.000000
_cell_volume 2455.768161
_symmetry_space_group_name_H-M "I 2 2 2"
_symmetry_group_IT_number 23
_symmetry_cell_setting 'orthorhombic'
loop_
_space_group_symop_operation_xyz
x,y,z
-x,-y,z
x,-y,-z
-x,y,-z
1/2+x,1/2+y,1/2+z
1/2-x,1/2-y,1/2+z
1/2+x,1/2-y,1/2-z
1/2-x,1/2+y,1/2-z
loop_
_atom_site_type_symbol
_atom_site_label
_atom_site_fract_x
_atom_site_fract_y
_atom_site_fract_z
Si Si1 0.356757 0.967461 0.111065
Si Si2 0.103436 0.271445 0.749226
Si Si3 0.204262 0.029953 0.819937
Si Si4 0.500000 0.750753 0.500000
Si Si5 0.397391 0.037311 0.602141
Si Si6 0.124759 0.781749 0.750889
Si Si7 0.111296 0.000000 0.000000
Si Si8 0.500000 0.500000 0.253077
O O1 0.279888 0.957227 0.146822
O O2 0.389567 0.811945 0.154292
O O3 0.388641 0.113126 0.162890
O O4 0.359913 0.000000 0.000000
O O5 0.171483 0.184068 0.779080
O O6 0.087957 0.385296 0.837542
O O7 0.050349 0.138800 0.722752
O O8 0.160427 0.979088 0.911689
O O9 0.186924 0.897546 0.744345
O O10 0.538104 0.862620 0.571874
O O11 0.559996 0.635575 0.470891
O O12 0.358581 0.150884 0.672022
O O13 0.364882 0.000000 0.500000
O O14 0.060614 0.883369 0.784997
#
# Coordination Sequence:
#
# PCOD9331823 Si02
#       8
#     8   8   8   4   8   8   4   4
#     4  11  24  46  70  92 124 174 231 278 324 377
#     4  10  25  42  65  98 133 173 215 275 332 398
#     4  11  21  42  65  95 136 174 217 260 321 402
#     4  11  23  32  54 101 149 178 210 248 308 414
#     4  11  23  32  54  94 141 178 204 246 321 399
#     4  10  24  41  64  95 132 169 215 271 325 394
#     4  11  22  34  62 100 138 191 212 242 324 403
#     4  10  24  46  64  92 128 164 214 272 354 398
#
# _framework density 21.174638999999999
#
# number of rings (size 3 to 8) (size 9 to 14) (size 15 to 20)
#    0.000    1.385    2.308    2.077    8.615    1.846 
#    0.000    6.154    0.000    1.846    0.000    0.000 
#    0.000    0.000    0.000    0.000    0.000    0.000 
#
# Total GULP energy -144770.271935 kJ/mol
# GULP energy per Si atom -5568.087382 kJ/mol
# Density = 2.112644 g / cm^3
# Si number density = 21.174639 Si / 1000 Ang^3
#
#
#
# Elastic Constant Matrix: (Units=GPa)
#
#
# Indices 1 2 3 4 5 6 
#
# 1 60.1724 24.7211 8.2141 0.0000 0.0000 0.0000
# 2 24.7211 154.6515 48.9503 0.0000 0.0000 0.0000
# 3 8.2141 48.9503 113.3260 0.0000 0.0000 0.0000
# 4 0.0000 0.0000 0.0000 17.4345 0.0000 0.0000
# 5 0.0000 0.0000 0.0000 0.0000 16.0979 0.0000
# 6 0.0000 0.0000 0.0000 0.0000 0.0000 21.3208
#
#
#
# Elastic Compliance Matrix: (Units=1/GPa)
#
#
# Indices 1 2 3 4 5 6 
#
# 1 0.017788 -0.002821 -0.000071 0.000000 0.000000 0.000000
# 2 -0.002821 0.007938 -0.003224 0.000000 0.000000 0.000000
# 3 -0.000071 -0.003224 0.010222 0.000000 0.000000 0.000000
# 4 0.000000 0.000000 0.000000 0.057357 0.000000 0.000000
# 5 0.000000 0.000000 0.000000 0.000000 0.062120 0.000000
# 6 0.000000 0.000000 0.000000 0.000000 0.000000 0.046903
#
#
# Mechanical properties :
#
#
# Convention : Reuss Voigt Hill
#
# Bulk Modulus (GPa) = 42.16688 54.65788 48.41238
# Shear Modulus (GPa) = 22.47559 27.38827 24.93193
#
# Velocity S-wave (km/s) = 3.26151 3.60035 3.43511
# Velocity P-wave (km/s) = 5.84297 6.56904 6.21662
#
# Compressibility (1/GPa) = 0.02371529
#
# Stress axis : x y z
#
# Youngs Moduli (GPa) = 56.21914 125.98308 97.82953
#
# Poissons Ratio (x) = 0.35539 0.00693
# Poissons Ratio (y) = 0.15859 0.31541
# Poissons Ratio (z) = 0.00398 0.40618
#
# Static dielectric constant tensor:
#      x y z
#    x 1.797030 0.000000 0.000000 
#    y 0.000000 1.812040 0.000000 
#    z 0.000000 0.000000 1.813910 
# 
# From -- ./inp_files/22573.got.cif
#   From: 2010.05.17/outbox.cif.g08.bks.cpg/sg23_12_cif.got.tgz:22573.got - 2010.06.04 12:02:01.
