data_PCOD9331355
_publ_section_title
;
Structure prediction by ZEFSAII (Michael W. Deem and Ramdas Pophale) SiO2 
 PCOD9331355
Probable space group: I 2 2 2
;
_chemical_formula_sum "Si O2"
_cell_formula_units_Z 64
_cell_length_a 14.000678
_cell_length_b 15.736055
_cell_length_c 10.582699
_cell_angle_alpha 90.000000
_cell_angle_beta 90.000000
_cell_angle_gamma 90.000000
_cell_volume 2331.531976
_symmetry_space_group_name_H-M "I 2 2 2"
_symmetry_group_IT_number 23
_symmetry_cell_setting 'orthorhombic'
loop_
_space_group_symop_operation_xyz
x,y,z
-x,-y,z
x,-y,-z
-x,y,-z
1/2+x,1/2+y,1/2+z
1/2-x,1/2-y,1/2+z
1/2+x,1/2-y,1/2-z
1/2-x,1/2+y,1/2-z
loop_
_atom_site_type_symbol
_atom_site_label
_atom_site_fract_x
_atom_site_fract_y
_atom_site_fract_z
Si Si1 0.933947 0.772017 0.311651
Si Si2 0.454018 0.914417 0.222093
Si Si3 0.275109 0.586766 0.468782
Si Si4 0.072471 0.173279 0.906374
Si Si5 0.102325 0.952058 0.710636
Si Si6 0.230369 0.733445 0.320082
Si Si7 0.260291 0.080435 0.626794
Si Si8 0.383875 0.146416 0.405490
O O1 0.913139 0.864855 0.371144
O O2 0.837679 0.757824 0.231950
O O3 0.957569 0.675544 0.354008
O O4 0.020157 0.800505 0.219600
O O5 0.346393 0.932056 0.270697
O O6 0.521190 0.895171 0.346916
O O7 0.500000 0.000000 0.165522
O O8 0.223053 0.500000 0.500000
O O9 0.336898 0.613651 0.590743
O O10 0.344588 0.571676 0.345753
O O11 0.217941 0.671103 0.438010
O O12 0.097107 0.263071 0.973139
O O13 0.000000 0.127902 0.000000
O O14 0.179138 0.010982 0.642955
O O15 0.000000 0.000000 0.729251
O O16 0.207155 0.828974 0.354890
O O17 0.176383 0.681859 0.211936
O O18 0.319929 0.909424 0.503383
#
# Coordination Sequence:
#
# PCOD9331355 Si02
#       8
#     8   8   8   8   8   8   8   8
#     4   9  20  39  59  95 141 175 230 292 375 435
#     4  10  23  42  69 103 135 188 245 319 380 427
#     4  11  23  36  63 100 139 173 248 310 379 427
#     4  11  17  36  66  93 136 180 229 310 376 421
#     4  11  24  38  65 105 142 194 237 287 370 469
#     4  10  22  39  62  99 140 191 233 298 386 456
#     4  11  24  42  66 108 151 188 252 307 386 464
#     4  11  23  40  69  98 148 192 239 318 382 451
#
# _framework density 27.449763999999998
#
# number of rings (size 3 to 8) (size 9 to 14) (size 15 to 20)
#    0.000    1.500    3.750    2.625    8.750    1.000 
#    0.000    0.000    0.000    7.500    0.000    3.500 
#    0.000    0.000    0.000    0.000    0.000    0.000 
#
# Total GULP energy -178930.172508 kJ/mol
# GULP energy per Si atom -5591.567891 kJ/mol
# Density = 2.738729 g / cm^3
# Si number density = 27.449764 Si / 1000 Ang^3
#
#
#
# Elastic Constant Matrix: (Units=GPa)
#
#
# Indices 1 2 3 4 5 6 
#
# 1 135.1895 54.6266 48.3472 0.0000 0.0000 0.0000
# 2 54.6266 259.0770 23.0525 0.0000 0.0000 0.0000
# 3 48.3472 23.0525 62.8356 0.0000 0.0000 0.0000
# 4 0.0000 0.0000 0.0000 27.3517 0.0000 0.0000
# 5 0.0000 0.0000 0.0000 0.0000 37.1318 0.0000
# 6 0.0000 0.0000 0.0000 0.0000 0.0000 52.9688
#
#
#
# Elastic Compliance Matrix: (Units=1/GPa)
#
#
# Indices 1 2 3 4 5 6 
#
# 1 0.010804 -0.001590 -0.007729 0.000000 0.000000 0.000000
# 2 -0.001590 0.004224 -0.000326 0.000000 0.000000 0.000000
# 3 -0.007729 -0.000326 0.021981 0.000000 0.000000 0.000000
# 4 0.000000 0.000000 0.000000 0.036561 0.000000 0.000000
# 5 0.000000 0.000000 0.000000 0.000000 0.026931 0.000000
# 6 0.000000 0.000000 0.000000 0.000000 0.000000 0.018879
#
#
# Mechanical properties :
#
#
# Convention : Reuss Voigt Hill
#
# Bulk Modulus (GPa) = 56.44006 78.79497 67.61752
# Shear Modulus (GPa) = 34.58351 45.56217 40.07284
#
# Velocity S-wave (km/s) = 3.55333 4.07853 3.82496
# Velocity P-wave (km/s) = 6.11889 7.13770 6.64784
#
# Compressibility (1/GPa) = 0.01771791
#
# Stress axis : x y z
#
# Youngs Moduli (GPa) = 92.56011 236.73220 45.49321
#
# Poissons Ratio (x) = 0.37646 0.35163
# Poissons Ratio (y) = 0.14719 0.01484
# Poissons Ratio (z) = 0.71542 0.07721
#
# Static dielectric constant tensor:
#      x y z
#    x 2.225280 0.000000 0.000000 
#    y 0.000000 2.233180 0.000000 
#    z 0.000000 0.000000 2.213500 
# 
# From -- ./inp_files/24919.got.cif
#   From: 2010.05.17/outbox.cif.g08.bks.cpg/sg23_13_cif.got.tgz:24919.got - 2010.06.04 12:02:01.
