data_PCOD9331086
_publ_section_title
;
Structure prediction by ZEFSAII (Michael W. Deem and Ramdas Pophale) SiO2 
 PCOD9331086
Probable space group: I 2 2 2
;
_chemical_formula_sum "Si O2"
_cell_formula_units_Z 64
_cell_length_a 15.127462
_cell_length_b 25.856828
_cell_length_c 8.497250
_cell_angle_alpha 90.000000
_cell_angle_beta 90.000000
_cell_angle_gamma 90.000000
_cell_volume 3323.683898
_symmetry_space_group_name_H-M "I 2 2 2"
_symmetry_group_IT_number 23
_symmetry_cell_setting 'orthorhombic'
loop_
_space_group_symop_operation_xyz
x,y,z
-x,-y,z
x,-y,-z
-x,y,-z
1/2+x,1/2+y,1/2+z
1/2-x,1/2-y,1/2+z
1/2+x,1/2-y,1/2-z
1/2-x,1/2+y,1/2-z
loop_
_atom_site_type_symbol
_atom_site_label
_atom_site_fract_x
_atom_site_fract_y
_atom_site_fract_z
Si Si1 0.874939 0.555971 0.426855
Si Si2 0.784294 0.319170 0.888222
Si Si3 0.761795 0.207104 0.752476
Si Si4 0.480902 0.442671 0.184045
Si Si5 0.081815 0.140217 0.099131
Si Si6 0.538973 0.886770 0.654285
Si Si7 0.808376 0.094270 0.188240
Si Si8 0.582941 0.161645 0.889172
O O1 0.890463 0.500000 0.500000
O O2 0.938259 0.570176 0.282449
O O3 0.776226 0.561269 0.360195
O O4 0.888368 0.605807 0.540278
O O5 0.784912 0.266481 0.788256
O O6 0.875683 0.351283 0.879197
O O7 0.718244 0.356444 0.792943
O O8 0.758691 0.306083 0.069196
O O9 0.848496 0.175944 0.809804
O O10 0.673227 0.192995 0.855842
O O11 0.500000 0.500000 0.243343
O O12 0.535260 0.400153 0.282461
O O13 0.377306 0.436255 0.208139
O O14 0.500000 0.438173 0.000000
O O15 0.140977 0.111303 0.969139
O O16 0.000000 0.165665 0.000000
O O17 0.500000 0.911725 0.500000
O O18 0.464596 0.849226 0.724926
O O19 0.500000 0.181117 0.000000
#
# Coordination Sequence:
#
# PCOD9331086 Si02
#       8
#     8   8   8   8   8   8   8   8
#     4  10  22  39  67  96 127 169 214 269 331 399
#     4  11  25  40  66  94 129 173 217 271 331 395
#     4  12  23  42  65  93 132 171 221 271 329 389
#     4  10  22  39  61  92 129 171 213 266 327 387
#     4  10  22  39  63  90 127 165 216 272 319 387
#     4  10  21  43  65  93 130 171 215 270 329 397
#     4  10  21  40  62  90 130 162 219 262 328 392
#     4  10  22  40  65  89 133 169 214 267 331 390
#
# _framework density 19.255739999999999
#
# number of rings (size 3 to 8) (size 9 to 14) (size 15 to 20)
#    0.000    1.625    2.500    1.500    5.250    4.500 
#    4.500    1.875    0.000    0.000    0.000    0.000 
#    0.000    0.000    0.000    0.000    0.000    0.000 
#
# Total GULP energy -178473.882252 kJ/mol
# GULP energy per Si atom -5577.308820 kJ/mol
# Density = 1.921191 g / cm^3
# Si number density = 19.255740 Si / 1000 Ang^3
#
#
#
# Elastic Constant Matrix: (Units=GPa)
#
#
# Indices 1 2 3 4 5 6 
#
# 1 115.6136 38.7521 22.5553 -0.0006 0.0003 0.0004
# 2 38.7521 92.0062 27.8472 -0.0012 0.0004 0.0005
# 3 22.5553 27.8472 79.2068 -0.0051 0.0006 0.0015
# 4 -0.0006 -0.0012 -0.0051 18.1905 0.0000 -0.0007
# 5 0.0003 0.0004 0.0006 0.0000 33.3970 0.0000
# 6 0.0004 0.0005 0.0015 -0.0007 0.0000 5.0391
#
#
#
# Elastic Compliance Matrix: (Units=1/GPa)
#
#
# Indices 1 2 3 4 5 6 
#
# 1 0.010242 -0.003840 -0.001567 0.000000 0.000000 0.000000
# 2 -0.003840 0.013603 -0.003689 0.000000 0.000000 0.000000
# 3 -0.001567 -0.003689 0.014368 0.000004 0.000000 -0.000004
# 4 0.000000 0.000000 0.000004 0.054974 0.000000 0.000007
# 5 0.000000 0.000000 0.000000 0.000000 0.029943 0.000000
# 6 0.000000 0.000000 -0.000004 0.000007 0.000000 0.198446
#
#
# Mechanical properties :
#
#
# Convention : Reuss Voigt Hill
#
# Bulk Modulus (GPa) = 49.94404 51.68173 50.81289
# Shear Modulus (GPa) = 14.43248 24.50345 19.46797
#
# Velocity S-wave (km/s) = 2.74070 3.57112 3.18311
# Velocity P-wave (km/s) = 6.00073 6.62584 6.32102
#
# Compressibility (1/GPa) = 0.02002241
#
# Stress axis : x y z
#
# Youngs Moduli (GPa) = 97.63554 73.51528 69.59789
#
# Poissons Ratio (x) = 0.28228 0.10904
# Poissons Ratio (y) = 0.37489 0.25674
# Poissons Ratio (z) = 0.15296 0.27119
#
# Static dielectric constant tensor:
#      x y z
#    x 1.881900 -0.000020 -0.000010 
#    y -0.000020 1.650190 0.000000 
#    z -0.000010 0.000000 1.698600 
# 
# From -- ./inp_files/10336.got.cif
#   From: 2010.05.17/outbox.cif.g08.bks.cpg/sg23_6_cif.got.tgz:10336.got - 2010.06.04 12:02:01.
