data_PCOD9331386
_publ_section_title
;
Structure prediction by ZEFSAII (Michael W. Deem and Ramdas Pophale) SiO2 
 PCOD9331386
Probable space group: I 2 2 2
;
_chemical_formula_sum "Si O2"
_cell_formula_units_Z 64
_cell_length_a 24.391347
_cell_length_b 8.614940
_cell_length_c 15.901932
_cell_angle_alpha 90.000000
_cell_angle_beta 90.000000
_cell_angle_gamma 90.000000
_cell_volume 3341.472827
_symmetry_space_group_name_H-M "I 2 2 2"
_symmetry_group_IT_number 23
_symmetry_cell_setting 'orthorhombic'
loop_
_space_group_symop_operation_xyz
x,y,z
-x,-y,z
x,-y,-z
-x,y,-z
1/2+x,1/2+y,1/2+z
1/2-x,1/2-y,1/2+z
1/2+x,1/2-y,1/2-z
1/2-x,1/2+y,1/2-z
loop_
_atom_site_type_symbol
_atom_site_label
_atom_site_fract_x
_atom_site_fract_y
_atom_site_fract_z
Si Si1 0.250155 0.563266 0.845006
Si Si2 0.363864 0.436237 0.410436
Si Si3 0.630402 0.562939 0.090448
Si Si4 0.561276 0.937551 0.252640
Si Si5 0.636136 0.063763 0.589564
Si Si6 0.369598 0.062939 0.090448
Si Si7 0.749845 0.936734 0.154994
Si Si8 0.938724 0.062449 0.247360
O O1 0.307075 0.515118 0.888804
O O2 0.197009 0.498789 0.891939
O O3 0.248261 0.750000 0.843152
O O4 0.250000 0.500000 0.750000
O O5 0.383124 0.500000 0.500000
O O6 0.362214 0.250000 0.412423
O O7 0.302991 0.498789 0.391939
O O8 0.402934 0.485585 0.333523
O O9 0.629309 0.750000 0.088524
O O10 0.591905 0.511165 0.167346
O O11 0.613390 0.500000 0.000000
O O12 0.597066 0.985585 0.333523
O O13 0.591905 0.988835 0.167346
O O14 0.560134 0.750000 0.252188
O O15 0.500000 0.000000 0.256857
O O16 0.616876 0.000000 0.500000
O O17 0.307075 0.015118 0.111196
O O18 0.386610 0.000000 0.000000
O O19 0.000000 0.000000 0.243143
#
# Coordination Sequence:
#
# PCOD9331386 Si02
#       8
#     8   8   8   8   8   8   8   8
#     4  11  21  37  62  91 125 161 198 243 301 361
#     4  11  23  41  62  90 125 158 200 250 301 362
#     4  10  22  40  60  88 122 156 195 244 295 352
#     4  10  23  43  62  84 119 157 202 253 300 354
#     4  11  23  41  62  90 125 158 200 250 301 362
#     4  10  22  40  60  88 122 156 195 244 295 352
#     4  11  21  37  62  91 125 161 198 243 301 361
#     4  10  23  43  62  84 119 157 202 253 300 354
#
# _framework density 19.153230000000001
#
# number of rings (size 3 to 8) (size 9 to 14) (size 15 to 20)
#    0.000    1.500    2.500    2.250    0.000    8.000 
#    0.000    5.000    0.000    0.000    0.000    0.000 
#    0.000    0.000    0.000    0.000    0.000    0.000 
#
# Total GULP energy -178890.959399 kJ/mol
# GULP energy per Si atom -5590.342481 kJ/mol
# Density = 1.910964 g / cm^3
# Si number density = 19.153230 Si / 1000 Ang^3
#
#
#
# Elastic Constant Matrix: (Units=GPa)
#
#
# Indices 1 2 3 4 5 6 
#
# 1 141.1549 28.7458 75.1395 0.0000 0.0000 0.0000
# 2 28.7458 31.0763 33.6923 0.0000 0.0000 0.0000
# 3 75.1395 33.6923 187.3440 0.0000 0.0000 0.0000
# 4 0.0000 0.0000 0.0000 37.4435 0.0000 0.0000
# 5 0.0000 0.0000 0.0000 0.0000 1.6143 0.0000
# 6 0.0000 0.0000 0.0000 0.0000 0.0000 29.7218
#
#
#
# Elastic Compliance Matrix: (Units=1/GPa)
#
#
# Indices 1 2 3 4 5 6 
#
# 1 0.009829 -0.005985 -0.002866 0.000000 0.000000 0.000000
# 2 -0.005985 0.043617 -0.005444 0.000000 0.000000 0.000000
# 3 -0.002866 -0.005444 0.007466 0.000000 0.000000 0.000000
# 4 0.000000 0.000000 0.000000 0.026707 0.000000 0.000000
# 5 0.000000 0.000000 0.000000 0.000000 0.619466 0.000000
# 6 0.000000 0.000000 0.000000 0.000000 0.000000 0.033645
#
#
# Mechanical properties :
#
#
# Convention : Reuss Voigt Hill
#
# Bulk Modulus (GPa) = 30.93746 70.52561 50.73153
# Shear Modulus (GPa) = 6.40949 28.55574 17.48262
#
# Velocity S-wave (km/s) = 1.83131 3.86542 3.02450
# Velocity P-wave (km/s) = 4.54525 7.53815 6.22426
#
# Compressibility (1/GPa) = 0.03232328
#
# Stress axis : x y z
#
# Youngs Moduli (GPa) = 101.74312 22.92692 133.93683
#
# Poissons Ratio (x) = 0.13721 0.38383
# Poissons Ratio (y) = 0.60889 0.72913
# Poissons Ratio (z) = 0.29157 0.12481
#
# Static dielectric constant tensor:
#      x y z
#    x 1.639390 0.000000 0.000000 
#    y 0.000000 1.651310 0.000000 
#    z 0.000000 0.000000 1.645620 
# 
# From -- ./inp_files/22619.got.cif
#   From: 2010.05.17/outbox.cif.g08.bks.cpg/sg23_12_cif.got.tgz:22619.got - 2010.06.04 12:02:01.
