data_PCOD9331678
_publ_section_title
;
Structure prediction by ZEFSAII (Michael W. Deem and Ramdas Pophale) SiO2 
 PCOD9331678
Probable space group: I 2 2 2
;
_chemical_formula_sum "Si O2"
_cell_formula_units_Z 56
_cell_length_a 21.469246
_cell_length_b 9.249838
_cell_length_c 13.984194
_cell_angle_alpha 90.000000
_cell_angle_beta 90.000000
_cell_angle_gamma 90.000000
_cell_volume 2777.079798
_symmetry_space_group_name_H-M "I 2 2 2"
_symmetry_group_IT_number 23
_symmetry_cell_setting 'orthorhombic'
loop_
_space_group_symop_operation_xyz
x,y,z
-x,-y,z
x,-y,-z
-x,y,-z
1/2+x,1/2+y,1/2+z
1/2-x,1/2-y,1/2+z
1/2+x,1/2-y,1/2-z
1/2-x,1/2+y,1/2-z
loop_
_atom_site_type_symbol
_atom_site_label
_atom_site_fract_x
_atom_site_fract_y
_atom_site_fract_z
Si Si1 0.848965 0.719220 0.130953
Si Si2 0.247647 0.672802 0.503889
Si Si3 0.627587 0.295027 0.718939
Si Si4 0.569631 0.036670 0.613884
Si Si5 0.763054 0.828553 0.302442
Si Si6 0.068082 0.032782 0.111625
Si Si7 0.166659 0.909440 0.403883
O O1 0.812740 0.755881 0.032350
O O2 0.870803 0.557170 0.147405
O O3 0.806687 0.782530 0.215117
O O4 0.914203 0.802619 0.126556
O O5 0.249170 0.500000 0.500000
O O6 0.229400 0.718374 0.609923
O O7 0.199264 0.762645 0.439367
O O8 0.691920 0.206192 0.725319
O O9 0.624514 0.440928 0.656467
O O10 0.615998 0.356610 0.826113
O O11 0.581828 0.194366 0.657419
O O12 0.500000 0.000000 0.646974
O O13 0.570194 0.000000 0.500000
O O14 0.784788 0.984787 0.345328
O O15 0.000000 0.000000 0.153205
O O16 0.066178 0.000000 0.000000
O O17 0.148622 0.000000 0.500000
#
# Coordination Sequence:
#
# PCOD9331678 Si02
#       7
#     8   8   8   8   8   8   8
#     4  12  22  39  61  92 132 168 208 261 318 395
#     4  11  23  36  60  93 129 166 204 258 326 396
#     4  12  22  39  66  90 129 173 210 264 326 394
#     4  11  25  42  62  95 135 179 219 265 326 396
#     4  11  23  37  60  95 129 164 211 256 335 395
#     4  11  23  39  61  91 125 168 216 260 308 382
#     4  10  23  42  58  90 130 167 208 266 328 394
#
# _framework density 20.165067000000001
#
# number of rings (size 3 to 8) (size 9 to 14) (size 15 to 20)
#    0.000    0.857    2.857    5.571    2.000    3.429 
#    0.000    0.000    0.000    0.429    0.000    4.000 
#    0.000    0.000    0.000    0.000    0.000    0.000 
#
# Total GULP energy -156043.887054 kJ/mol
# GULP energy per Si atom -5572.995966 kJ/mol
# Density = 2.011917 g / cm^3
# Si number density = 20.165067 Si / 1000 Ang^3
#
#
#
# Elastic Constant Matrix: (Units=GPa)
#
#
# Indices 1 2 3 4 5 6 
#
# 1 55.1345 9.1229 25.4555 0.0000 0.0000 0.0000
# 2 9.1229 106.9800 20.4599 0.0000 0.0000 0.0000
# 3 25.4555 20.4599 97.2718 0.0000 0.0000 0.0000
# 4 0.0000 0.0000 0.0000 29.7178 0.0000 0.0000
# 5 0.0000 0.0000 0.0000 0.0000 17.2096 0.0000
# 6 0.0000 0.0000 0.0000 0.0000 0.0000 19.9900
#
#
#
# Elastic Compliance Matrix: (Units=1/GPa)
#
#
# Indices 1 2 3 4 5 6 
#
# 1 0.020689 -0.000759 -0.005255 0.000000 0.000000 0.000000
# 2 -0.000759 0.009767 -0.001856 0.000000 0.000000 0.000000
# 3 -0.005255 -0.001856 0.012046 0.000000 0.000000 0.000000
# 4 0.000000 0.000000 0.000000 0.033650 0.000000 0.000000
# 5 0.000000 0.000000 0.000000 0.000000 0.058107 0.000000
# 6 0.000000 0.000000 0.000000 0.000000 0.000000 0.050025
#
#
# Mechanical properties :
#
#
# Convention : Reuss Voigt Hill
#
# Bulk Modulus (GPa) = 37.36495 41.05144 39.20819
# Shear Modulus (GPa) = 23.92983 27.00668 25.46826
#
# Velocity S-wave (km/s) = 3.44858 3.66359 3.55771
# Velocity P-wave (km/s) = 5.86743 6.18852 6.03011
#
# Compressibility (1/GPa) = 0.02676305
#
# Stress axis : x y z
#
# Youngs Moduli (GPa) = 48.33463 102.38348 83.01601
#
# Poissons Ratio (x) = 0.07775 0.43621
# Poissons Ratio (y) = 0.03670 0.15405
# Poissons Ratio (z) = 0.25397 0.18999
#
# Static dielectric constant tensor:
#      x y z
#    x 1.730350 0.000000 0.000000 
#    y 0.000000 1.741270 0.000000 
#    z 0.000000 0.000000 1.752310 
# 
# From -- ./inp_files/20188.got.cif
#   From: 2010.05.17/outbox.cif.g08.bks.cpg/sg23_11_cif.got.tgz:20188.got - 2010.06.04 12:02:01.
