data_PCOD9331234
_publ_section_title
;
Structure prediction by ZEFSAII (Michael W. Deem and Ramdas Pophale) SiO2 
 PCOD9331234
Probable space group: I 2 2 2
;
_chemical_formula_sum "Si O2"
_cell_formula_units_Z 40
_cell_length_a 11.927912
_cell_length_b 17.421005
_cell_length_c 8.539507
_cell_angle_alpha 90.000000
_cell_angle_beta 90.000000
_cell_angle_gamma 90.000000
_cell_volume 1774.477229
_symmetry_space_group_name_H-M "I 2 2 2"
_symmetry_group_IT_number 23
_symmetry_cell_setting 'orthorhombic'
loop_
_space_group_symop_operation_xyz
x,y,z
-x,-y,z
x,-y,-z
-x,y,-z
1/2+x,1/2+y,1/2+z
1/2-x,1/2-y,1/2+z
1/2+x,1/2-y,1/2-z
1/2-x,1/2+y,1/2-z
loop_
_atom_site_type_symbol
_atom_site_label
_atom_site_fract_x
_atom_site_fract_y
_atom_site_fract_z
Si Si1 0.748078 0.490854 0.314152
Si Si2 0.442022 0.618060 0.167691
Si Si3 0.878006 0.422497 0.075800
Si Si4 0.668553 0.654404 0.302272
Si Si5 0.225750 0.776431 0.513081
O O1 0.735723 0.500000 0.500000
O O2 0.646008 0.443505 0.234010
O O3 0.859392 0.445704 0.257502
O O4 0.739540 0.579270 0.261898
O O5 0.539475 0.630474 0.294030
O O6 0.376459 0.696899 0.125323
O O7 0.500000 0.595129 0.000000
O O8 0.815675 0.343777 0.041704
O O9 0.825480 0.500000 0.000000
O O10 0.000000 0.417117 0.000000
O O11 0.717963 0.695464 0.453111
O O12 0.683609 0.715759 0.163265
#
# Coordination Sequence:
#
# PCOD9331234 Si02
#       5
#     8   8   8   8   8
#     4  11  24  43  71 105 136 170 237 302 341 400
#     4   9  22  43  70  98 133 187 234 279 351 418
#     4  10  21  44  70  94 124 184 236 267 341 423
#     4  11  23  41  65  98 139 180 222 284 355 407
#     4  10  23  40  64  97 136 181 226 281 338 421
#
# _framework density 22.54185
#
# number of rings (size 3 to 8) (size 9 to 14) (size 15 to 20)
#    0.000    1.800    2.000    0.600    5.600    5.600 
#    0.000    2.000    0.000    0.000    0.000    0.000 
#    0.000    0.000    0.000    0.000    0.000    0.000 
#
# Total GULP energy -111640.911646 kJ/mol
# GULP energy per Si atom -5582.045582 kJ/mol
# Density = 2.249054 g / cm^3
# Si number density = 22.541850 Si / 1000 Ang^3
#
#
#
# Elastic Constant Matrix: (Units=GPa)
#
#
# Indices 1 2 3 4 5 6 
#
# 1 97.7892 37.0334 33.4041 0.0000 0.0000 0.0000
# 2 37.0334 69.4292 7.7376 0.0000 0.0000 0.0000
# 3 33.4041 7.7376 76.0218 0.0001 0.0000 0.0000
# 4 0.0000 0.0000 0.0001 36.7342 0.0000 0.0000
# 5 0.0000 0.0000 0.0000 0.0000 32.0173 0.0000
# 6 0.0000 0.0000 0.0000 0.0000 0.0000 19.8963
#
#
#
# Elastic Compliance Matrix: (Units=1/GPa)
#
#
# Indices 1 2 3 4 5 6 
#
# 1 0.015008 -0.007354 -0.005846 0.000000 0.000000 0.000000
# 2 -0.007354 0.018172 0.001382 0.000000 0.000000 0.000000
# 3 -0.005846 0.001382 0.015582 0.000000 0.000000 0.000000
# 4 0.000000 0.000000 0.000000 0.027223 0.000000 0.000000
# 5 0.000000 0.000000 0.000000 0.000000 0.031233 0.000000
# 6 0.000000 0.000000 0.000000 0.000000 0.000000 0.050261
#
#
# Mechanical properties :
#
#
# Convention : Reuss Voigt Hill
#
# Bulk Modulus (GPa) = 39.79985 44.39895 42.09940
# Shear Modulus (GPa) = 26.38670 28.73391 27.56030
#
# Velocity S-wave (km/s) = 3.42506 3.57416 3.50040
# Velocity P-wave (km/s) = 5.77371 6.06397 5.92062
#
# Compressibility (1/GPa) = 0.02512572
#
# Stress axis : x y z
#
# Youngs Moduli (GPa) = 66.63137 55.03081 64.17560
#
# Poissons Ratio (x) = 0.40468 0.37517
# Poissons Ratio (y) = 0.48999 -0.08867
# Poissons Ratio (z) = 0.38953 -0.07604
#
# Static dielectric constant tensor:
#      x y z
#    x 1.871600 0.000000 0.000000 
#    y 0.000000 1.821600 0.000000 
#    z 0.000000 0.000000 1.971370 
# 
# From -- ./inp_files/8199.got.cif
#   From: 2010.05.17/outbox.cif.g08.bks.cpg/sg23_5_cif.got.tgz:8199.got - 2010.06.04 12:02:01.
