data_PCOD9331625
_publ_section_title
;
Structure prediction by ZEFSAII (Michael W. Deem and Ramdas Pophale) SiO2 
 PCOD9331625
Probable space group: I 2 2 2
;
_chemical_formula_sum "Si O2"
_cell_formula_units_Z 60
_cell_length_a 22.836789
_cell_length_b 10.252593
_cell_length_c 12.500840
_cell_angle_alpha 90.000000
_cell_angle_beta 90.000000
_cell_angle_gamma 90.000000
_cell_volume 2926.900463
_symmetry_space_group_name_H-M "I 2 2 2"
_symmetry_group_IT_number 23
_symmetry_cell_setting 'orthorhombic'
loop_
_space_group_symop_operation_xyz
x,y,z
-x,-y,z
x,-y,-z
-x,y,-z
1/2+x,1/2+y,1/2+z
1/2-x,1/2-y,1/2+z
1/2+x,1/2-y,1/2-z
1/2-x,1/2+y,1/2-z
loop_
_atom_site_type_symbol
_atom_site_label
_atom_site_fract_x
_atom_site_fract_y
_atom_site_fract_z
Si Si1 0.000000 0.500000 0.225312
Si Si2 0.125087 0.112204 0.580948
Si Si3 0.180358 0.568042 0.703165
Si Si4 0.599205 0.110414 0.409478
Si Si5 0.664076 0.356428 0.456568
Si Si6 0.222308 0.775587 0.557697
Si Si7 0.699577 0.471606 0.237215
Si Si8 0.589886 0.899825 0.099015
O O1 0.963087 0.595111 0.148757
O O2 0.954628 0.430642 0.304883
O O3 0.189234 0.156132 0.539433
O O4 0.088416 0.245183 0.578516
O O5 0.103187 0.000000 0.500000
O O6 0.142038 0.043947 0.692525
O O7 0.146180 0.589238 0.813386
O O8 0.174571 0.680908 0.614344
O O9 0.249454 0.565231 0.722066
O O10 0.153915 0.440086 0.645864
O O11 0.612972 0.250177 0.460501
O O12 0.605286 0.000000 0.500000
O O13 0.649968 0.500000 0.500000
O O14 0.720147 0.297231 0.518255
O O15 0.682015 0.378106 0.333674
O O16 0.231199 0.887016 0.645473
O O17 0.577926 0.000000 0.000000
#
# Coordination Sequence:
#
# PCOD9331625 Si02
#       8
#     4   8   8   8   8   8   8   8
#     4  10  26  44  74  92 116 164 234 300 352 386
#     4  10  23  38  62  93 138 181 211 264 331 402
#     4  11  21  34  62  94 135 177 219 262 316 400
#     4  11  24  46  68  94 126 174 229 289 336 400
#     4  12  24  36  64  97 136 180 219 268 333 403
#     4  11  21  37  56  95 139 186 218 254 314 405
#     4  11  23  37  56  95 144 182 220 249 322 418
#     4  11  22  41  69  98 123 166 225 290 342 403
#
# _framework density 20.499500999999999
#
# number of rings (size 3 to 8) (size 9 to 14) (size 15 to 20)
#    0.000    1.067    4.000    2.800    1.867    3.200 
#    0.000    0.000    0.000   12.000    0.000    0.000 
#    0.000    0.000    0.000    0.000    0.000    0.000 
#
# Total GULP energy -167481.967718 kJ/mol
# GULP energy per Si atom -5582.732257 kJ/mol
# Density = 2.045284 g / cm^3
# Si number density = 20.499501 Si / 1000 Ang^3
#
#
#
# Elastic Constant Matrix: (Units=GPa)
#
#
# Indices 1 2 3 4 5 6 
#
# 1 48.0948 29.2737 28.4414 0.0000 0.0000 0.0000
# 2 29.2737 143.6665 48.8396 0.0000 0.0000 0.0000
# 3 28.4414 48.8396 98.6041 0.0000 0.0000 0.0000
# 4 0.0000 0.0000 0.0000 23.0781 0.0000 0.0000
# 5 0.0000 0.0000 0.0000 0.0000 21.7186 0.0000
# 6 0.0000 0.0000 0.0000 0.0000 0.0000 13.1788
#
#
#
# Elastic Compliance Matrix: (Units=1/GPa)
#
#
# Indices 1 2 3 4 5 6 
#
# 1 0.026343 -0.003348 -0.005940 0.000000 0.000000 0.000000
# 2 -0.003348 0.008796 -0.003391 0.000000 0.000000 0.000000
# 3 -0.005940 -0.003391 0.013534 0.000000 0.000000 0.000000
# 4 0.000000 0.000000 0.000000 0.043331 0.000000 0.000000
# 5 0.000000 0.000000 0.000000 0.000000 0.046043 0.000000
# 6 0.000000 0.000000 0.000000 0.000000 0.000000 0.075879
#
#
# Mechanical properties :
#
#
# Convention : Reuss Voigt Hill
#
# Bulk Modulus (GPa) = 42.89117 55.94164 49.41641
# Shear Modulus (GPa) = 20.23831 23.84915 22.04373
#
# Velocity S-wave (km/s) = 3.14548 3.41457 3.28278
# Velocity P-wave (km/s) = 5.84470 6.54937 6.20704
#
# Compressibility (1/GPa) = 0.02331482
#
# Stress axis : x y z
#
# Youngs Moduli (GPa) = 37.96088 113.69435 73.88633
#
# Poissons Ratio (x) = 0.38070 0.43887
# Poissons Ratio (y) = 0.12711 0.25053
# Poissons Ratio (z) = 0.22548 0.38550
#
# Static dielectric constant tensor:
#      x y z
#    x 1.705330 0.000000 0.000000 
#    y 0.000000 1.769250 0.000000 
#    z 0.000000 0.000000 1.770830 
# 
# From -- ./inp_files/18615.got.cif
#   From: 2010.05.17/outbox.cif.g08.bks.cpg/sg23_10_cif.got.tgz:18615.got - 2010.06.04 12:02:01.
