data_PCOD9331535
_publ_section_title
;
Structure prediction by ZEFSAII (Michael W. Deem and Ramdas Pophale) SiO2 
 PCOD9331535
Probable space group: I 2 2 2
;
_chemical_formula_sum "Si O2"
_cell_formula_units_Z 58
_cell_length_a 29.045983
_cell_length_b 11.444771
_cell_length_c 8.044011
_cell_angle_alpha 90.000000
_cell_angle_beta 90.000000
_cell_angle_gamma 90.000000
_cell_volume 2674.027331
_symmetry_space_group_name_H-M "I 2 2 2"
_symmetry_group_IT_number 23
_symmetry_cell_setting 'orthorhombic'
loop_
_space_group_symop_operation_xyz
x,y,z
-x,-y,z
x,-y,-z
-x,y,-z
1/2+x,1/2+y,1/2+z
1/2-x,1/2-y,1/2+z
1/2+x,1/2-y,1/2-z
1/2-x,1/2+y,1/2-z
loop_
_atom_site_type_symbol
_atom_site_label
_atom_site_fract_x
_atom_site_fract_y
_atom_site_fract_z
Si Si1 0.082166 0.685085 0.768630
Si Si2 0.662022 0.684472 0.898085
Si Si3 0.134113 0.523944 0.302534
Si Si4 0.324879 0.440992 0.243350
Si Si5 0.988771 0.825929 0.806628
Si Si6 0.722318 0.908227 0.848628
Si Si7 0.500000 0.500000 0.000000
Si Si8 0.113132 0.754925 0.125383
O O1 0.113802 0.750006 0.632562
O O2 0.088550 0.546155 0.751968
O O3 0.031525 0.739376 0.770007
O O4 0.108940 0.713535 0.937714
O O5 0.670669 0.580743 0.765240
O O6 0.702310 0.781522 0.898047
O O7 0.660151 0.615690 0.069443
O O8 0.135539 0.500000 0.500000
O O9 0.180924 0.462255 0.238412
O O10 0.135037 0.655532 0.241492
O O11 0.272167 0.404075 0.268669
O O12 0.358981 0.375519 0.368192
O O13 0.939481 0.767322 0.820251
O O14 0.981962 0.910322 0.645124
O O15 0.000000 0.870184 0.000000
O O16 0.728205 0.000000 0.000000
#
# Coordination Sequence:
#
# PCOD9331535 Si02
#       8
#     8   8   8   8   8   8   2   8
#     4  10  23  45  67  95 140 177 224 285 348 408
#     4  10  25  43  61  96 129 173 225 286 334 415
#     4  10  22  43  69  98 136 177 230 287 338 421
#     4  11  25  40  65  93 129 171 229 279 341 416
#     4  10  26  45  67 106 139 182 238 287 348 427
#     4  10  23  41  65  91 132 176 220 286 349 407
#     4  12  26  40  76  92 140 196 214 292 350 430
#     4  11  24  42  69 100 135 178 227 286 345 419
#
# _framework density 21.690131000000001
#
# number of rings (size 3 to 8) (size 9 to 14) (size 15 to 20)
#    0.000    1.655    0.000    3.103   11.586    1.655 
#    4.966    2.759    0.000    0.000    0.000    0.000 
#    0.000    0.000    0.000    0.000    0.000    0.000 
#
# Total GULP energy -161623.035685 kJ/mol
# GULP energy per Si atom -5573.208127 kJ/mol
# Density = 2.164076 g / cm^3
# Si number density = 21.690131 Si / 1000 Ang^3
#
#
#
# Elastic Constant Matrix: (Units=GPa)
#
#
# Indices 1 2 3 4 5 6 
#
# 1 98.9624 18.8950 5.5555 0.0000 0.0000 0.0000
# 2 18.8950 111.9847 14.7084 0.0000 0.0000 0.0000
# 3 5.5555 14.7084 82.3590 0.0000 0.0000 0.0000
# 4 0.0000 0.0000 0.0000 27.0245 0.0000 0.0000
# 5 0.0000 0.0000 0.0000 0.0000 27.2293 0.0000
# 6 0.0000 0.0000 0.0000 0.0000 0.0000 107.3194
#
#
#
# Elastic Compliance Matrix: (Units=1/GPa)
#
#
# Indices 1 2 3 4 5 6 
#
# 1 0.010454 -0.001711 -0.000400 0.000000 0.000000 0.000000
# 2 -0.001711 0.009424 -0.001568 0.000000 0.000000 0.000000
# 3 -0.000400 -0.001568 0.012449 0.000000 0.000000 0.000000
# 4 0.000000 0.000000 0.000000 0.037003 0.000000 0.000000
# 5 0.000000 0.000000 0.000000 0.000000 0.036725 0.000000
# 6 0.000000 0.000000 0.000000 0.000000 0.000000 0.009318
#
#
# Mechanical properties :
#
#
# Convention : Reuss Voigt Hill
#
# Bulk Modulus (GPa) = 40.04782 41.29155 40.66968
# Shear Modulus (GPa) = 38.15205 49.25779 43.70492
#
# Velocity S-wave (km/s) = 4.19854 4.77065 4.49371
# Velocity P-wave (km/s) = 6.48131 7.03020 6.76133
#
# Compressibility (1/GPa) = 0.02497015
#
# Stress axis : x y z
#
# Youngs Moduli (GPa) = 95.65683 106.10693 80.32855
#
# Poissons Ratio (x) = 0.18159 0.03209
# Poissons Ratio (y) = 0.16371 0.12593
# Poissons Ratio (z) = 0.03822 0.16634
#
# Static dielectric constant tensor:
#      x y z
#    x 1.770490 0.000000 0.000000 
#    y 0.000000 1.811070 0.000000 
#    z 0.000000 0.000000 1.878600 
# 
# From -- ./inp_files/13068.got.cif
#   From: 2010.05.17/outbox.cif.g08.bks.cpg/sg23_7_cif.got.tgz:13068.got - 2010.06.04 12:02:01.
