data_PCOD9331983
_publ_section_title
;
Structure prediction by ZEFSAII (Michael W. Deem and Ramdas Pophale) SiO2 
 PCOD9331983
Probable space group: I 2 2 2
;
_chemical_formula_sum "Si O2"
_cell_formula_units_Z 36
_cell_length_a 11.285823
_cell_length_b 24.768823
_cell_length_c 5.419472
_cell_angle_alpha 90.000000
_cell_angle_beta 90.000000
_cell_angle_gamma 90.000000
_cell_volume 1514.940518
_symmetry_space_group_name_H-M "I 2 2 2"
_symmetry_group_IT_number 23
_symmetry_cell_setting 'orthorhombic'
loop_
_space_group_symop_operation_xyz
x,y,z
-x,-y,z
x,-y,-z
-x,y,-z
1/2+x,1/2+y,1/2+z
1/2-x,1/2-y,1/2+z
1/2+x,1/2-y,1/2-z
1/2-x,1/2+y,1/2-z
loop_
_atom_site_type_symbol
_atom_site_label
_atom_site_fract_x
_atom_site_fract_y
_atom_site_fract_z
Si Si1 0.181576 0.835065 0.259861
Si Si2 0.717669 0.467454 0.255438
Si Si3 0.869187 0.715284 0.885766
Si Si4 0.871111 0.381243 0.435855
Si Si5 0.000000 0.093751 0.000000
O O1 0.152584 0.778838 0.120769
O O2 0.250855 0.811114 0.494907
O O3 0.062691 0.869135 0.209641
O O4 0.277854 0.877115 0.154592
O O5 0.760222 0.500000 0.500000
O O6 0.810985 0.418491 0.229908
O O7 0.593994 0.442039 0.349594
O O8 0.706782 0.500000 0.000000
O O9 0.880097 0.681792 0.635330
O O10 0.000000 0.705457 0.000000
O O11 0.000000 0.401790 0.500000
#
# Coordination Sequence:
#
# PCOD9331983 Si02
#       5
#     8   8   8   8   4
#     4  11  23  42  67 111 149 204 245 306 381 467
#     4  11  28  53  78 109 149 201 266 331 392 456
#     4  12  23  40  71 105 156 198 250 303 377 469
#     4  11  25  45  71 104 147 197 254 315 383 461
#     4  10  25  48  74 110 156 198 261 316 402 464
#
# _framework density 23.763307999999999
#
# number of rings (size 3 to 8) (size 9 to 14) (size 15 to 20)
#    0.000    0.889    5.556    0.333    6.222    2.222 
#    4.000    5.556    0.000    0.000    0.000    0.000 
#    0.000    0.000    0.000    0.000    0.000    0.000 
#
# Total GULP energy -100347.607783 kJ/mol
# GULP energy per Si atom -5574.867099 kJ/mol
# Density = 2.370922 g / cm^3
# Si number density = 23.763308 Si / 1000 Ang^3
#
#
#
# Elastic Constant Matrix: (Units=GPa)
#
#
# Indices 1 2 3 4 5 6 
#
# 1 125.3876 33.2510 21.0109 -0.0023 -0.0027 0.0016
# 2 33.2510 113.5014 30.1266 0.0018 -0.0034 0.0016
# 3 21.0109 30.1266 71.9025 0.0189 -0.0030 -0.0143
# 4 -0.0023 0.0018 0.0189 36.8513 -0.0006 -0.0109
# 5 -0.0027 -0.0034 -0.0030 -0.0006 20.4532 -0.0019
# 6 0.0016 0.0016 -0.0143 -0.0109 -0.0019 26.6715
#
#
#
# Elastic Compliance Matrix: (Units=1/GPa)
#
#
# Indices 1 2 3 4 5 6 
#
# 1 0.008824 -0.002139 -0.001683 0.000002 0.000001 -0.000001
# 2 -0.002139 0.010431 -0.003746 0.000001 0.000001 -0.000002
# 3 -0.001683 -0.003746 0.015969 -0.000008 0.000002 0.000009
# 4 0.000002 0.000001 -0.000008 0.027136 0.000001 0.000011
# 5 0.000001 0.000001 0.000002 0.000001 0.048892 0.000003
# 6 -0.000001 -0.000002 0.000009 0.000011 0.000003 0.037493
#
#
# Mechanical properties :
#
#
# Convention : Reuss Voigt Hill
#
# Bulk Modulus (GPa) = 49.77415 53.28540 51.52978
# Shear Modulus (GPa) = 29.31244 31.88874 30.60059
#
# Velocity S-wave (km/s) = 3.51596 3.66721 3.59238
# Velocity P-wave (km/s) = 6.12159 6.35636 6.24008
#
# Compressibility (1/GPa) = 0.02009075
#
# Stress axis : x y z
#
# Youngs Moduli (GPa) = 113.32318 95.86646 62.62212
#
# Poissons Ratio (x) = 0.20501 0.10537
# Poissons Ratio (y) = 0.24235 0.23456
# Poissons Ratio (z) = 0.19067 0.35908
#
# Static dielectric constant tensor:
#      x y z
#    x 1.998460 -0.000010 0.000040 
#    y -0.000010 1.930480 0.000010 
#    z 0.000040 0.000010 2.049760 
# 
# From -- ./inp_files/1563.got.cif
#   From: 2010.05.17/outbox.cif.g08.bks.cpg/sg23_1_cif.got.tgz:1563.got - 2010.06.04 12:02:01.
