data_PCOD9331990
_publ_section_title
;
Structure prediction by ZEFSAII (Michael W. Deem and Ramdas Pophale) SiO2 
 PCOD9331990
Probable space group: I 2 2 2
;
_chemical_formula_sum "Si O2"
_cell_formula_units_Z 40
_cell_length_a 8.186189
_cell_length_b 10.592328
_cell_length_c 19.069418
_cell_angle_alpha 90.000000
_cell_angle_beta 90.000000
_cell_angle_gamma 90.000000
_cell_volume 1653.524470
_symmetry_space_group_name_H-M "I 2 2 2"
_symmetry_group_IT_number 23
_symmetry_cell_setting 'orthorhombic'
loop_
_space_group_symop_operation_xyz
x,y,z
-x,-y,z
x,-y,-z
-x,y,-z
1/2+x,1/2+y,1/2+z
1/2-x,1/2-y,1/2+z
1/2+x,1/2-y,1/2-z
1/2-x,1/2+y,1/2-z
loop_
_atom_site_type_symbol
_atom_site_label
_atom_site_fract_x
_atom_site_fract_y
_atom_site_fract_z
Si Si1 0.815381 0.757443 0.130080
Si Si2 0.310465 0.737806 0.020603
Si Si3 0.878373 0.607694 0.861495
Si Si4 0.689807 0.963064 0.878449
Si Si5 0.823782 0.065394 0.264625
O O1 0.689910 0.679580 0.179237
O O2 0.995900 0.720184 0.154784
O O3 0.786433 0.906074 0.127252
O O4 0.790824 0.716441 0.049652
O O5 0.255365 0.643538 0.081336
O O6 0.278512 0.875756 0.054450
O O7 0.500000 0.728736 0.000000
O O8 0.792732 0.545473 0.795020
O O9 0.000000 0.500000 0.890007
O O10 0.739870 0.891520 0.807533
O O11 0.500000 0.000000 0.879240
O O12 0.000000 0.000000 0.257756
#
# Coordination Sequence:
#
# PCOD9331990 Si02
#       5
#     8   8   8   8   8
#     4  11  25  46  76 108 154 202 250 320 379 458
#     4  12  25  46  78 112 154 203 252 316 383 462
#     4  10  25  50  76 112 153 201 257 316 387 454
#     4  12  27  46  77 109 159 198 257 314 386 464
#     4  11  27  47  77 114 150 205 257 321 390 456
#
# _framework density 24.190753000000001
#
# number of rings (size 3 to 8) (size 9 to 14) (size 15 to 20)
#    0.000    0.800    2.000    4.200    5.600    5.600 
#    0.000    7.000    0.000    0.000    0.000    0.000 
#    0.000    0.000    0.000    0.000    0.000    0.000 
#
# Total GULP energy -112064.968060 kJ/mol
# GULP energy per Si atom -5603.248403 kJ/mol
# Density = 2.413569 g / cm^3
# Si number density = 24.190753 Si / 1000 Ang^3
#
#
#
# Elastic Constant Matrix: (Units=GPa)
#
#
# Indices 1 2 3 4 5 6 
#
# 1 85.6450 40.4588 7.9396 0.0000 0.0000 0.0000
# 2 40.4588 58.1581 -13.3828 0.0000 0.0000 0.0000
# 3 7.9396 -13.3828 68.2242 0.0000 0.0000 0.0000
# 4 0.0000 0.0000 0.0000 51.4443 0.0000 0.0000
# 5 0.0000 0.0000 0.0000 0.0000 41.5760 0.0000
# 6 0.0000 0.0000 0.0000 0.0000 0.0000 46.8307
#
#
#
# Elastic Compliance Matrix: (Units=1/GPa)
#
#
# Indices 1 2 3 4 5 6 
#
# 1 0.018892 -0.014294 -0.005003 0.000000 0.000000 0.000000
# 2 -0.014294 0.028822 0.007317 0.000000 0.000000 0.000000
# 3 -0.005003 0.007317 0.016675 0.000000 0.000000 0.000000
# 4 0.000000 0.000000 0.000000 0.019439 0.000000 0.000000
# 5 0.000000 0.000000 0.000000 0.000000 0.024052 0.000000
# 6 0.000000 0.000000 0.000000 0.000000 0.000000 0.021353
#
#
# Mechanical properties :
#
#
# Convention : Reuss Voigt Hill
#
# Bulk Modulus (GPa) = 24.73348 31.33985 28.03666
# Shear Modulus (GPa) = 29.99952 39.77100 34.88526
#
# Velocity S-wave (km/s) = 3.52536 4.05910 3.80161
# Velocity P-wave (km/s) = 5.17855 5.91200 5.55739
#
# Compressibility (1/GPa) = 0.04043103
#
# Stress axis : x y z
#
# Youngs Moduli (GPa) = 52.93155 34.69557 59.96981
#
# Poissons Ratio (x) = 0.49594 0.30000
# Poissons Ratio (y) = 0.75660 -0.43881
# Poissons Ratio (z) = 0.26479 -0.25387
#
# Static dielectric constant tensor:
#      x y z
#    x 1.903190 0.000000 0.000000 
#    y 0.000000 2.042410 0.000000 
#    z 0.000000 0.000000 1.915080 
# 
# From -- ./inp_files/26090.got.cif
#   From: 2010.05.17/outbox.cif.g08.bks.cpg/sg23_14_cif.got.tgz:26090.got - 2010.06.04 12:02:01.
