data_PCOD9331207
_publ_section_title
;
Structure prediction by ZEFSAII (Michael W. Deem and Ramdas Pophale) SiO2 
 PCOD9331207
Probable space group: I 2 2 2
;
_chemical_formula_sum "Si O2"
_cell_formula_units_Z 38
_cell_length_a 19.467417
_cell_length_b 7.283464
_cell_length_c 11.237813
_cell_angle_alpha 90.000000
_cell_angle_beta 90.000000
_cell_angle_gamma 90.000000
_cell_volume 1593.412100
_symmetry_space_group_name_H-M "I 2 2 2"
_symmetry_group_IT_number 23
_symmetry_cell_setting 'orthorhombic'
loop_
_space_group_symop_operation_xyz
x,y,z
-x,-y,z
x,-y,-z
-x,y,-z
1/2+x,1/2+y,1/2+z
1/2-x,1/2-y,1/2+z
1/2+x,1/2-y,1/2-z
1/2-x,1/2+y,1/2-z
loop_
_atom_site_type_symbol
_atom_site_label
_atom_site_fract_x
_atom_site_fract_y
_atom_site_fract_z
Si Si1 0.500000 0.000000 0.000000
Si Si2 0.417271 0.831469 0.782727
Si Si3 0.349550 0.453191 0.861931
Si Si4 0.861208 0.000000 0.000000
Si Si5 0.303411 0.132341 0.386223
Si Si6 0.953930 0.173785 0.795873
O O1 0.449833 0.890449 0.908692
O O2 0.374413 0.642746 0.802570
O O3 0.360401 0.938100 0.706853
O O4 0.483749 0.813713 0.696577
O O5 0.272655 0.390601 0.832960
O O6 0.402481 0.301006 0.814247
O O7 0.353724 0.500000 0.000000
O O8 0.910419 0.886615 0.090242
O O9 0.818078 0.159273 0.066916
O O10 0.306442 0.000000 0.500000
O O11 0.000000 0.000000 0.758788
#
# Coordination Sequence:
#
# PCOD9331207 Si02
#       6
#     2   8   8   4   8   8
#     4  12  28  48  78 114 152 206 254 322 374 458
#     4  11  25  50  73 112 153 201 254 315 386 448
#     4  10  22  46  69 105 150 198 248 304 374 447
#     4  12  23  48  79 115 150 205 254 312 399 443
#     4  11  27  48  75 116 152 200 253 321 377 458
#     4  10  21  42  77 102 143 196 249 312 378 443
#
# _framework density 23.848191
#
# number of rings (size 3 to 8) (size 9 to 14) (size 15 to 20)
#    0.000    1.263    4.211    1.579    2.947    6.316 
#    7.579    2.105    0.000    0.000    0.000    0.000 
#    0.000    0.000    0.000    0.000    0.000    0.000 
#
# Total GULP energy -106017.769583 kJ/mol
# GULP energy per Si atom -5579.882610 kJ/mol
# Density = 2.379391 g / cm^3
# Si number density = 23.848191 Si / 1000 Ang^3
#
#
#
# Elastic Constant Matrix: (Units=GPa)
#
#
# Indices 1 2 3 4 5 6 
#
# 1 203.0038 53.4630 52.9902 0.0000 0.0000 0.0000
# 2 53.4630 105.5918 19.9246 0.0000 0.0000 0.0000
# 3 52.9902 19.9246 68.7718 0.0000 0.0000 0.0000
# 4 0.0000 0.0000 0.0000 34.8957 0.0000 0.0000
# 5 0.0000 0.0000 0.0000 0.0000 19.9447 0.0000
# 6 0.0000 0.0000 0.0000 0.0000 0.0000 26.5035
#
#
#
# Elastic Compliance Matrix: (Units=1/GPa)
#
#
# Indices 1 2 3 4 5 6 
#
# 1 0.006774 -0.002586 -0.004470 0.000000 0.000000 0.000000
# 2 -0.002586 0.011006 -0.001196 0.000000 0.000000 0.000000
# 3 -0.004470 -0.001196 0.018332 0.000000 0.000000 0.000000
# 4 0.000000 0.000000 0.000000 0.028657 0.000000 0.000000
# 5 0.000000 0.000000 0.000000 0.000000 0.050139 0.000000
# 6 0.000000 0.000000 0.000000 0.000000 0.000000 0.037731
#
#
# Mechanical properties :
#
#
# Convention : Reuss Voigt Hill
#
# Bulk Modulus (GPa) = 51.00287 70.01367 60.50827
# Shear Modulus (GPa) = 28.46122 33.00142 30.73132
#
# Velocity S-wave (km/s) = 3.45836 3.72400 3.59363
# Velocity P-wave (km/s) = 6.11391 6.92190 6.53041
#
# Compressibility (1/GPa) = 0.01960674
#
# Stress axis : x y z
#
# Youngs Moduli (GPa) = 147.62301 90.86330 54.55035
#
# Poissons Ratio (x) = 0.23500 0.24385
# Poissons Ratio (y) = 0.38180 0.06523
# Poissons Ratio (z) = 0.65991 0.10865
#
# Static dielectric constant tensor:
#      x y z
#    x 1.913350 0.000000 0.000000 
#    y 0.000000 2.199320 0.000000 
#    z 0.000000 0.000000 1.932700 
# 
# From -- ./inp_files/17264.got.cif
#   From: 2010.05.17/outbox.cif.g08.bks.cpg/sg23_9_cif.got.tgz:17264.got - 2010.06.04 12:02:01.
