data_PCOD9331808
_publ_section_title
;
Structure prediction by ZEFSAII (Michael W. Deem and Ramdas Pophale) SiO2 
 PCOD9331808
Probable space group: I 2 2 2
;
_chemical_formula_sum "Si O2"
_cell_formula_units_Z 36
_cell_length_a 5.971454
_cell_length_b 25.417089
_cell_length_c 11.306156
_cell_angle_alpha 90.000000
_cell_angle_beta 90.000000
_cell_angle_gamma 90.000000
_cell_volume 1716.014188
_symmetry_space_group_name_H-M "I 2 2 2"
_symmetry_group_IT_number 23
_symmetry_cell_setting 'orthorhombic'
loop_
_space_group_symop_operation_xyz
x,y,z
-x,-y,z
x,-y,-z
-x,y,-z
1/2+x,1/2+y,1/2+z
1/2-x,1/2-y,1/2+z
1/2+x,1/2-y,1/2-z
1/2-x,1/2+y,1/2-z
loop_
_atom_site_type_symbol
_atom_site_label
_atom_site_fract_x
_atom_site_fract_y
_atom_site_fract_z
Si Si1 0.855912 0.318033 0.171116
Si Si2 0.757014 0.387067 0.779006
Si Si3 0.500000 0.358990 0.000000
Si Si4 0.247611 0.560193 0.541860
Si Si5 0.004712 0.799721 0.861112
O O1 0.685568 0.322162 0.061299
O O2 0.976669 0.262159 0.162577
O O3 0.728270 0.318147 0.295767
O O4 0.007085 0.369630 0.168277
O O5 0.755002 0.432858 0.683447
O O6 0.681981 0.335340 0.703165
O O7 0.594875 0.392228 0.890756
O O8 0.243524 0.500000 0.500000
O O9 0.500000 0.579602 0.500000
O O10 0.000000 0.582884 0.500000
O O11 0.000000 0.807122 0.000000
#
# Coordination Sequence:
#
# PCOD9331808 Si02
#       5
#     8   8   4   8   8
#     4  11  23  39  55  90 133 183 232 285 335 413
#     4  11  23  39  65  93 133 179 230 282 353 423
#     4  10  24  40  60  91 132 184 231 280 344 436
#     4  10  24  46  73 107 136 171 225 303 367 422
#     4  11  23  35  56  88 129 180 231 282 335 409
#
# _framework density 20.978847999999999
#
# number of rings (size 3 to 8) (size 9 to 14) (size 15 to 20)
#    0.000    1.333    2.222    2.667   12.444    0.000 
#    0.000    0.000    0.000    2.667    0.000    0.000 
#    0.000    0.000    0.000    0.000    0.000    0.000 
#
# Total GULP energy -100389.234902 kJ/mol
# GULP energy per Si atom -5577.179717 kJ/mol
# Density = 2.093110 g / cm^3
# Si number density = 20.978848 Si / 1000 Ang^3
#
#
#
# Elastic Constant Matrix: (Units=GPa)
#
#
# Indices 1 2 3 4 5 6 
#
# 1 106.2306 7.5355 37.0112 0.0000 0.0000 0.0000
# 2 7.5355 64.0623 26.7358 0.0000 0.0000 0.0000
# 3 37.0112 26.7358 165.9833 0.0004 -0.0001 0.0000
# 4 0.0000 0.0000 0.0004 35.8619 0.0000 0.0000
# 5 0.0000 0.0000 -0.0001 0.0000 36.2425 0.0000
# 6 0.0000 0.0000 0.0000 0.0000 0.0000 7.0019
#
#
#
# Elastic Compliance Matrix: (Units=1/GPa)
#
#
# Indices 1 2 3 4 5 6 
#
# 1 0.010211 -0.000269 -0.002233 0.000000 0.000000 0.000000
# 2 -0.000269 0.016742 -0.002637 0.000000 0.000000 0.000000
# 3 -0.002233 -0.002637 0.006947 0.000000 0.000000 0.000000
# 4 0.000000 0.000000 0.000000 0.027885 0.000000 0.000000
# 5 0.000000 0.000000 0.000000 0.000000 0.027592 0.000000
# 6 0.000000 0.000000 0.000000 0.000000 0.000000 0.142818
#
#
# Mechanical properties :
#
#
# Convention : Reuss Voigt Hill
#
# Bulk Modulus (GPa) = 42.33395 53.20458 47.76927
# Shear Modulus (GPa) = 19.97232 33.48750 26.72991
#
# Velocity S-wave (km/s) = 3.08883 3.99964 3.57338
# Velocity P-wave (km/s) = 5.73972 6.83708 6.31229
#
# Compressibility (1/GPa) = 0.02362170
#
# Stress axis : x y z
#
# Youngs Moduli (GPa) = 97.93631 59.73052 143.93790
#
# Poissons Ratio (x) = 0.01606 0.32148
# Poissons Ratio (y) = 0.02634 0.37953
# Poissons Ratio (z) = 0.21874 0.15749
#
# Static dielectric constant tensor:
#      x y z
#    x 1.930490 0.000000 0.000000 
#    y 0.000000 1.724490 0.000000 
#    z 0.000000 0.000000 1.734110 
# 
# From -- ./inp_files/13951.got.cif
#   From: 2010.05.17/outbox.cif.g08.bks.cpg/sg23_7_cif.got.tgz:13951.got - 2010.06.04 12:02:01.
