data_PCOD9331388
_publ_section_title
;
Structure prediction by ZEFSAII (Michael W. Deem and Ramdas Pophale) SiO2 
 PCOD9331388
Probable space group: I 2 2 2
;
_chemical_formula_sum "Si O2"
_cell_formula_units_Z 42
_cell_length_a 21.055560
_cell_length_b 9.659732
_cell_length_c 11.501636
_cell_angle_alpha 90.000000
_cell_angle_beta 90.000000
_cell_angle_gamma 90.000000
_cell_volume 2339.330015
_symmetry_space_group_name_H-M "I 2 2 2"
_symmetry_group_IT_number 23
_symmetry_cell_setting 'orthorhombic'
loop_
_space_group_symop_operation_xyz
x,y,z
-x,-y,z
x,-y,-z
-x,y,-z
1/2+x,1/2+y,1/2+z
1/2-x,1/2-y,1/2+z
1/2+x,1/2-y,1/2-z
1/2-x,1/2+y,1/2-z
loop_
_atom_site_type_symbol
_atom_site_label
_atom_site_fract_x
_atom_site_fract_y
_atom_site_fract_z
Si Si1 0.845471 0.760325 0.175221
Si Si2 0.000000 0.000000 0.000000
Si Si3 0.836947 0.433924 0.196427
Si Si4 0.215191 0.643016 0.437018
Si Si5 0.806447 0.888624 0.401673
Si Si6 0.065301 0.259112 0.960280
O O1 0.849724 0.597589 0.205474
O O2 0.777576 0.785417 0.114961
O O3 0.845967 0.866618 0.283250
O O4 0.897174 0.780289 0.076795
O O5 0.959328 0.107081 0.079174
O O6 0.830573 0.378198 0.327315
O O7 0.767252 0.415042 0.136374
O O8 0.889360 0.349805 0.121907
O O9 0.232081 0.500000 0.500000
O O10 0.188510 0.742412 0.534668
O O11 0.824179 0.000000 0.500000
O O12 0.000000 0.333178 0.000000
#
# Coordination Sequence:
#
# PCOD9331388 Si02
#       6
#     8   2   8   8   8   8
#     4  11  22  35  61  87 125 160 202 247 307 364
#     4   8  24  40  54  92 110 156 194 260 306 358
#     4  11  21  36  59  89 123 163 200 251 302 368
#     4  11  22  35  56  89 130 161 193 243 306 368
#     4  11  21  37  56  94 128 161 196 244 308 369
#     4  10  22  40  61  85 119 151 211 256 303 356
#
# _framework density 17.953858
#
# number of rings (size 3 to 8) (size 9 to 14) (size 15 to 20)
#    0.571    0.762    5.714    0.571    1.333    3.048 
#    0.000    0.000    0.000    1.143    0.000    0.000 
#    0.000    0.000    0.000    0.000    0.000    0.000 
#
# Total GULP energy -116935.211718 kJ/mol
# GULP energy per Si atom -5568.343415 kJ/mol
# Density = 1.791299 g / cm^3
# Si number density = 17.953858 Si / 1000 Ang^3
#
#
#
# Elastic Constant Matrix: (Units=GPa)
#
#
# Indices 1 2 3 4 5 6 
#
# 1 61.0059 8.7816 13.5383 0.0000 0.0000 0.0000
# 2 8.7816 76.7184 -8.5138 0.0000 0.0000 0.0000
# 3 13.5383 -8.5138 56.5376 0.0000 0.0000 0.0000
# 4 0.0000 0.0000 0.0000 30.9111 0.0000 0.0000
# 5 0.0000 0.0000 0.0000 0.0000 11.0050 0.0000
# 6 0.0000 0.0000 0.0000 0.0000 0.0000 24.2938
#
#
#
# Elastic Compliance Matrix: (Units=1/GPa)
#
#
# Indices 1 2 3 4 5 6 
#
# 1 0.017790 -0.002552 -0.004644 0.000000 0.000000 0.000000
# 2 -0.002552 0.013622 0.002662 0.000000 0.000000 0.000000
# 3 -0.004644 0.002662 0.019200 0.000000 0.000000 0.000000
# 4 0.000000 0.000000 0.000000 0.032351 0.000000 0.000000
# 5 0.000000 0.000000 0.000000 0.000000 0.090868 0.000000
# 6 0.000000 0.000000 0.000000 0.000000 0.000000 0.041163
#
#
# Mechanical properties :
#
#
# Convention : Reuss Voigt Hill
#
# Bulk Modulus (GPa) = 24.07006 24.65266 24.36136
# Shear Modulus (GPa) = 21.01641 25.27236 23.14439
#
# Velocity S-wave (km/s) = 3.42508 3.75591 3.59430
# Velocity P-wave (km/s) = 5.39234 5.70702 5.55191
#
# Compressibility (1/GPa) = 0.04154538
#
# Stress axis : x y z
#
# Youngs Moduli (GPa) = 56.21211 73.40951 52.08247
#
# Poissons Ratio (x) = 0.18732 0.24188
# Poissons Ratio (y) = 0.14344 -0.13866
# Poissons Ratio (z) = 0.26106 -0.19544
#
# Static dielectric constant tensor:
#      x y z
#    x 1.650010 0.000000 0.000000 
#    y 0.000000 1.671500 0.000000 
#    z 0.000000 0.000000 1.472340 
# 
# From -- ./inp_files/8620.got.cif
#   From: 2010.05.17/outbox.cif.g08.bks.cpg/sg23_5_cif.got.tgz:8620.got - 2010.06.04 12:02:01.
