data_PCOD9331961
_publ_section_title
;
Structure prediction by ZEFSAII (Michael W. Deem and Ramdas Pophale) SiO2 
 PCOD9331961
Probable space group: I 2 2 2
;
_chemical_formula_sum "Si O2"
_cell_formula_units_Z 64
_cell_length_a 23.142833
_cell_length_b 7.450831
_cell_length_c 16.595996
_cell_angle_alpha 90.000000
_cell_angle_beta 90.000000
_cell_angle_gamma 90.000000
_cell_volume 2861.702980
_symmetry_space_group_name_H-M "I 2 2 2"
_symmetry_group_IT_number 23
_symmetry_cell_setting 'orthorhombic'
loop_
_space_group_symop_operation_xyz
x,y,z
-x,-y,z
x,-y,-z
-x,y,-z
1/2+x,1/2+y,1/2+z
1/2-x,1/2-y,1/2+z
1/2+x,1/2-y,1/2-z
1/2-x,1/2+y,1/2-z
loop_
_atom_site_type_symbol
_atom_site_label
_atom_site_fract_x
_atom_site_fract_y
_atom_site_fract_z
Si Si1 0.468470 0.189131 0.126953
Si Si2 0.058314 0.101937 0.777844
Si Si3 0.831419 0.451564 0.734610
Si Si4 0.836451 0.222596 0.146581
Si Si5 0.642888 0.784813 0.013610
Si Si6 0.275932 0.794835 0.483709
Si Si7 0.222143 0.120052 0.179806
Si Si8 0.589666 0.311283 0.149116
O O1 0.453744 0.226310 0.220800
O O2 0.524511 0.313752 0.115809
O O3 0.500000 0.000000 0.108605
O O4 0.411699 0.232112 0.074487
O O5 0.097256 0.159981 0.852597
O O6 0.090263 0.964536 0.716321
O O7 0.000000 0.000000 0.801147
O O8 0.836044 0.581615 0.812119
O O9 0.796808 0.270245 0.756798
O O10 0.790151 0.571367 0.677861
O O11 0.889182 0.374381 0.692941
O O12 0.807106 0.068635 0.200708
O O13 0.799988 0.207116 0.065069
O O14 0.628454 0.683398 0.929874
O O15 0.707282 0.717281 0.031033
O O16 0.646743 0.000000 0.000000
O O17 0.300416 0.699525 0.404522
O O18 0.292031 0.000000 0.500000
#
# Coordination Sequence:
#
# PCOD9331961 Si02
#       8
#     8   8   8   8   8   8   8   8
#     4  11  23  42  65  96 138 192 250 302 355 433
#     4  10  25  44  71 106 137 185 251 310 370 428
#     4  12  24  41  73 106 140 196 243 304 369 442
#     4  12  24  46  74  99 146 191 233 307 372 437
#     4  12  25  40  62  94 145 198 242 294 367 436
#     4  12  28  46  69 107 148 197 246 300 376 455
#     4  12  25  44  69 104 148 186 248 297 374 440
#     4  11  23  41  65  98 137 186 247 301 358 438
#
# _framework density 22.364307
#
# number of rings (size 3 to 8) (size 9 to 14) (size 15 to 20)
#    0.000    0.500    5.000    3.750    3.500    0.000 
#    0.000    1.875    0.000    1.500    0.000    0.875 
#    0.000    0.000    0.000    0.000    0.000    0.000 
#
# Total GULP energy -178560.672222 kJ/mol
# GULP energy per Si atom -5580.021007 kJ/mol
# Density = 2.231340 g / cm^3
# Si number density = 22.364307 Si / 1000 Ang^3
#
#
#
# Elastic Constant Matrix: (Units=GPa)
#
#
# Indices 1 2 3 4 5 6 
#
# 1 76.6048 28.0720 25.3801 0.0000 0.0000 0.0000
# 2 28.0720 110.4311 14.1228 0.0000 0.0000 0.0000
# 3 25.3801 14.1228 46.4945 0.0000 0.0000 0.0000
# 4 0.0000 0.0000 0.0000 24.6018 0.0000 0.0000
# 5 0.0000 0.0000 0.0000 0.0000 20.9334 0.0000
# 6 0.0000 0.0000 0.0000 0.0000 0.0000 38.4188
#
#
#
# Elastic Compliance Matrix: (Units=1/GPa)
#
#
# Indices 1 2 3 4 5 6 
#
# 1 0.016994 -0.003260 -0.008286 0.000000 0.000000 0.000000
# 2 -0.003260 0.010047 -0.001272 0.000000 0.000000 0.000000
# 3 -0.008286 -0.001272 0.026418 0.000000 0.000000 0.000000
# 4 0.000000 0.000000 0.000000 0.040647 0.000000 0.000000
# 5 0.000000 0.000000 0.000000 0.000000 0.047771 0.000000
# 6 0.000000 0.000000 0.000000 0.000000 0.000000 0.026029
#
#
# Mechanical properties :
#
#
# Convention : Reuss Voigt Hill
#
# Bulk Modulus (GPa) = 35.94371 40.96447 38.45409
# Shear Modulus (GPa) = 24.65283 27.85450 26.25366
#
# Velocity S-wave (km/s) = 3.32374 3.53298 3.42995
# Velocity P-wave (km/s) = 5.55306 5.91601 5.73741
#
# Compressibility (1/GPa) = 0.02782128
#
# Stress axis : x y z
#
# Youngs Moduli (GPa) = 58.84394 99.53351 37.85359
#
# Poissons Ratio (x) = 0.32450 0.31367
# Poissons Ratio (y) = 0.19185 0.04815
# Poissons Ratio (z) = 0.48760 0.12661
#
# Static dielectric constant tensor:
#      x y z
#    x 1.891160 0.000000 0.000000 
#    y 0.000000 1.922830 0.000000 
#    z 0.000000 0.000000 1.878340 
# 
# From -- ./inp_files/25259.got.cif
#   From: 2010.05.17/outbox.cif.g08.bks.cpg/sg23_13_cif.got.tgz:25259.got - 2010.06.04 12:02:01.
