data_PCOD9331842
_publ_section_title
;
Structure prediction by ZEFSAII (Michael W. Deem and Ramdas Pophale) SiO2 
 PCOD9331842
Probable space group: I 2 2 2
;
_chemical_formula_sum "Si O2"
_cell_formula_units_Z 26
_cell_length_a 11.448849
_cell_length_b 12.221172
_cell_length_c 8.951918
_cell_angle_alpha 90.000000
_cell_angle_beta 90.000000
_cell_angle_gamma 90.000000
_cell_volume 1252.537621
_symmetry_space_group_name_H-M "I 2 2 2"
_symmetry_group_IT_number 23
_symmetry_cell_setting 'orthorhombic'
loop_
_space_group_symop_operation_xyz
x,y,z
-x,-y,z
x,-y,-z
-x,y,-z
1/2+x,1/2+y,1/2+z
1/2-x,1/2-y,1/2+z
1/2+x,1/2-y,1/2-z
1/2-x,1/2+y,1/2-z
loop_
_atom_site_type_symbol
_atom_site_label
_atom_site_fract_x
_atom_site_fract_y
_atom_site_fract_z
Si Si1 0.500000 0.500000 0.243715
Si Si2 0.378152 0.309176 0.065733
Si Si3 0.500000 0.000000 0.500000
Si Si4 0.166136 0.675825 0.149385
Si Si5 0.500000 0.650194 0.500000
O O1 0.414750 0.422910 0.148414
O O2 0.442799 0.581524 0.364938
O O3 0.328462 0.219260 0.181076
O O4 0.500000 0.266122 0.000000
O O5 0.289430 0.335031 0.932820
O O6 0.415915 0.927150 0.606543
O O7 0.098869 0.775544 0.069956
#
# Coordination Sequence:
#
# PCOD9331842 Si02
#       5
#     4   8   2   8   4
#     4   9  19  38  66  98 124 158 226 254 312 382
#     4  11  25  41  67  97 129 171 217 268 320 384
#     4  10  24  42  68  94 124 182 214 260 316 394
#     4  10  24  42  67  90 137 166 216 263 327 374
#     4   8  18  40  64  94 128 172 202 268 320 374
#
# _framework density 20.757859
#
# number of rings (size 3 to 8) (size 9 to 14) (size 15 to 20)
#    0.000    2.154    0.000    0.462   17.231    0.000 
#    0.000    0.769    0.000    0.000    0.000    0.000 
#    0.000    0.000    0.000    0.000    0.000    0.000 
#
# Total GULP energy -72489.790770 kJ/mol
# GULP energy per Si atom -5576.137752 kJ/mol
# Density = 2.071061 g / cm^3
# Si number density = 20.757859 Si / 1000 Ang^3
#
#
#
# Elastic Constant Matrix: (Units=GPa)
#
#
# Indices 1 2 3 4 5 6 
#
# 1 117.1561 30.3140 61.0680 0.0000 0.0000 0.0000
# 2 30.3140 96.7418 55.2760 0.0000 0.0000 0.0000
# 3 61.0680 55.2760 129.2336 0.0000 0.0000 0.0000
# 4 0.0000 0.0000 0.0000 61.9350 0.0000 0.0000
# 5 0.0000 0.0000 0.0000 0.0000 39.7651 0.0000
# 6 0.0000 0.0000 0.0000 0.0000 0.0000 -3.2754
#
#
#
# Elastic Compliance Matrix: (Units=1/GPa)
#
#
# Indices 1 2 3 4 5 6 
#
# 1 0.011356 -0.000652 -0.005088 0.000000 0.000000 0.000000
# 2 -0.000652 0.013717 -0.005559 0.000000 0.000000 0.000000
# 3 -0.005088 -0.005559 0.012520 0.000000 0.000000 0.000000
# 4 0.000000 0.000000 0.000000 0.016146 0.000000 0.000000
# 5 0.000000 0.000000 0.000000 0.000000 0.025148 0.000000
# 6 0.000000 0.000000 0.000000 0.000000 0.000000 -0.305311
#
#
# Mechanical properties :
#
#
# Convention : Reuss Voigt Hill
#
# Bulk Modulus (GPa) = 66.68214 70.71639 68.69926
# Shear Modulus (GPa) = -25.14738 32.78318 3.81790
#
# Velocity S-wave (km/s) = -3.48438 3.97837 1.35766
# Velocity P-wave (km/s) = 4.00070 7.43266 5.96867
#
# Compressibility (1/GPa) = 0.01499652
#
# Stress axis : x y z
#
# Youngs Moduli (GPa) = 88.05844 72.89985 79.87317
#
# Poissons Ratio (x) = 0.04750 0.40636
# Poissons Ratio (y) = 0.05737 0.44405
# Poissons Ratio (z) = 0.44800 0.40528
#
# Static dielectric constant tensor:
#      x y z
#    x 1.754330 0.000000 0.000000 
#    y 0.000000 1.790230 0.000000 
#    z 0.000000 0.000000 1.810660 
# 
# From -- ./inp_files/7670.got.cif
#   From: 2010.05.17/outbox.cif.g08.bks.cpg/sg23_4_cif.got.tgz:7670.got - 2010.06.04 12:02:01.
