data_PCOD9331758
_publ_section_title
;
Structure prediction by ZEFSAII (Michael W. Deem and Ramdas Pophale) SiO2 
 PCOD9331758
Probable space group: I 2 2 2
;
_chemical_formula_sum "Si O2"
_cell_formula_units_Z 48
_cell_length_a 9.819198
_cell_length_b 18.191207
_cell_length_c 12.457561
_cell_angle_alpha 90.000000
_cell_angle_beta 90.000000
_cell_angle_gamma 90.000000
_cell_volume 2225.207708
_symmetry_space_group_name_H-M "I 2 2 2"
_symmetry_group_IT_number 23
_symmetry_cell_setting 'orthorhombic'
loop_
_space_group_symop_operation_xyz
x,y,z
-x,-y,z
x,-y,-z
-x,y,-z
1/2+x,1/2+y,1/2+z
1/2-x,1/2-y,1/2+z
1/2+x,1/2-y,1/2-z
1/2-x,1/2+y,1/2-z
loop_
_atom_site_type_symbol
_atom_site_label
_atom_site_fract_x
_atom_site_fract_y
_atom_site_fract_z
Si Si1 0.909274 0.779346 0.642160
Si Si2 0.000000 0.655378 0.500000
Si Si3 0.885728 0.726596 0.194746
Si Si4 0.000000 0.176573 0.000000
Si Si5 0.259193 0.429747 0.419194
Si Si6 0.630206 0.553223 0.173035
Si Si7 0.578733 0.935610 0.613283
O O1 0.899217 0.715522 0.554371
O O2 0.774508 0.768523 0.711464
O O3 0.913095 0.866629 0.626677
O O4 0.044271 0.757956 0.702092
O O5 0.893843 0.605098 0.431508
O O6 0.921073 0.642202 0.171449
O O7 0.941536 0.773033 0.094970
O O8 0.124792 0.126428 0.960161
O O9 0.262861 0.500000 0.500000
O O10 0.310001 0.445725 0.296438
O O11 0.500000 0.500000 0.167467
O O12 0.766164 0.537259 0.105502
O O13 0.500000 0.925844 0.500000
O O14 0.500000 0.000000 0.674626
#
# Coordination Sequence:
#
# PCOD9331758 Si02
#       7
#     8   4   8   4   8   8   8
#     4  11  25  44  69 105 140 185 239 292 361 433
#     4  12  25  46  67 106 148 188 238 300 361 438
#     4  11  23  42  71  98 138 182 234 293 354 431
#     4  12  21  44  67 100 138 180 232 292 365 424
#     4  12  26  45  73 106 146 186 241 300 368 433
#     4  11  25  48  70 108 144 189 246 301 365 431
#     4  10  23  45  66  96 137 185 237 289 359 432
#
# _framework density 21.571019
#
# number of rings (size 3 to 8) (size 9 to 14) (size 15 to 20)
#    0.000    0.833    4.167    3.500    0.000    4.000 
#   12.000    0.000    0.000    0.000    0.000    0.000 
#    0.000    0.000    0.000    0.000    0.000    0.000 
#
# Total GULP energy -133820.108342 kJ/mol
# GULP energy per Si atom -5575.837848 kJ/mol
# Density = 2.152192 g / cm^3
# Si number density = 21.571019 Si / 1000 Ang^3
#
#
#
# Elastic Constant Matrix: (Units=GPa)
#
#
# Indices 1 2 3 4 5 6 
#
# 1 164.0369 71.4605 14.0184 0.0000 0.0000 0.0000
# 2 71.4605 111.9748 15.0986 0.0000 0.0000 -0.0001
# 3 14.0184 15.0986 47.8930 0.0000 0.0000 -0.0001
# 4 0.0000 0.0000 0.0000 33.3805 0.0000 -0.0001
# 5 0.0000 0.0000 0.0000 0.0000 28.7116 0.0000
# 6 0.0000 -0.0001 -0.0001 -0.0001 0.0000 255.8808
#
#
#
# Elastic Compliance Matrix: (Units=1/GPa)
#
#
# Indices 1 2 3 4 5 6 
#
# 1 0.008474 -0.005299 -0.000810 0.000000 0.000000 0.000000
# 2 -0.005299 0.012640 -0.002434 0.000000 0.000000 0.000000
# 3 -0.000810 -0.002434 0.021884 0.000000 0.000000 0.000000
# 4 0.000000 0.000000 0.000000 0.029958 0.000000 0.000000
# 5 0.000000 0.000000 0.000000 0.000000 0.034829 0.000000
# 6 0.000000 0.000000 0.000000 0.000000 0.000000 0.003908
#
#
# Mechanical properties :
#
#
# Convention : Reuss Voigt Hill
#
# Bulk Modulus (GPa) = 38.59024 58.33997 48.46510
# Shear Modulus (GPa) = 36.38599 78.48306 57.43452
#
# Velocity S-wave (km/s) = 4.11152 6.03842 5.16562
# Velocity P-wave (km/s) = 6.36146 8.70178 7.62198
#
# Compressibility (1/GPa) = 0.02591329
#
# Stress axis : x y z
#
# Youngs Moduli (GPa) = 118.01303 79.11249 45.69496
#
# Poissons Ratio (x) = 0.41918 0.03701
# Poissons Ratio (y) = 0.62530 0.11122
# Poissons Ratio (z) = 0.09557 0.19256
#
# Static dielectric constant tensor:
#      x y z
#    x 1.789850 0.000000 0.000000 
#    y 0.000000 1.883840 0.000000 
#    z 0.000000 0.000000 1.439400 
# 
# From -- ./inp_files/20020.got.cif
#   From: 2010.05.17/outbox.cif.g08.bks.cpg/sg23_11_cif.got.tgz:20020.got - 2010.06.04 12:02:01.
