data_PCOD9331174
_publ_section_title
;
Structure prediction by ZEFSAII (Michael W. Deem and Ramdas Pophale) SiO2 
 PCOD9331174
Probable space group: I 2 2 2
;
_chemical_formula_sum "Si O2"
_cell_formula_units_Z 32
_cell_length_a 11.414790
_cell_length_b 15.025415
_cell_length_c 8.798323
_cell_angle_alpha 90.000000
_cell_angle_beta 90.000000
_cell_angle_gamma 90.000000
_cell_volume 1509.017595
_symmetry_space_group_name_H-M "I 2 2 2"
_symmetry_group_IT_number 23
_symmetry_cell_setting 'orthorhombic'
loop_
_space_group_symop_operation_xyz
x,y,z
-x,-y,z
x,-y,-z
-x,y,-z
1/2+x,1/2+y,1/2+z
1/2-x,1/2-y,1/2+z
1/2+x,1/2-y,1/2-z
1/2-x,1/2+y,1/2-z
loop_
_atom_site_type_symbol
_atom_site_label
_atom_site_fract_x
_atom_site_fract_y
_atom_site_fract_z
Si Si1 0.120607 0.602712 0.394867
Si Si2 0.011142 0.277725 0.178851
Si Si3 0.464869 0.403865 0.176892
Si Si4 0.707320 0.909219 0.798415
O O1 0.098012 0.678499 0.271542
O O2 0.155265 0.510074 0.312921
O O3 0.217651 0.619975 0.524139
O O4 0.000000 0.597670 0.500000
O O5 0.025564 0.178751 0.241519
O O6 0.115744 0.343713 0.221230
O O7 0.000000 0.276724 0.000000
O O8 0.500000 0.500000 0.239211
O O9 0.326678 0.401264 0.207554
O O10 0.500000 0.399667 0.000000
#
# Coordination Sequence:
#
# PCOD9331174 Si02
#       4
#     8   8   8   8
#     4   9  19  41  71 102 131 165 216 264 317 391
#     4  11  24  39  65 102 133 169 218 263 316 393
#     4  11  27  46  63  90 129 172 223 273 324 390
#     4  10  21  41  70  93 128 177 208 268 329 367
#
# _framework density 21.205850000000002
#
# number of rings (size 3 to 8) (size 9 to 14) (size 15 to 20)
#    0.000    1.750    0.000    7.500    0.000   16.500 
#    0.000    0.000    0.000    0.000    0.000    0.000 
#    0.000    0.000    0.000    0.000    0.000    0.000 
#
# Total GULP energy -89330.658403 kJ/mol
# GULP energy per Si atom -5583.166150 kJ/mol
# Density = 2.115758 g / cm^3
# Si number density = 21.205850 Si / 1000 Ang^3
#
#
#
# Elastic Constant Matrix: (Units=GPa)
#
#
# Indices 1 2 3 4 5 6 
#
# 1 75.1974 24.4693 39.5309 0.0000 0.0000 0.0000
# 2 24.4693 133.5307 89.3644 0.0000 0.0000 0.0000
# 3 39.5309 89.3644 139.9305 0.0000 0.0000 0.0000
# 4 0.0000 0.0000 0.0000 9.3322 0.0000 0.0000
# 5 0.0000 0.0000 0.0000 0.0000 40.1493 0.0000
# 6 0.0000 0.0000 0.0000 0.0000 0.0000 5.4843
#
#
#
# Elastic Compliance Matrix: (Units=1/GPa)
#
#
# Indices 1 2 3 4 5 6 
#
# 1 0.015620 0.000159 -0.004514 0.000000 0.000000 0.000000
# 2 0.000159 0.013080 -0.008398 0.000000 0.000000 0.000000
# 3 -0.004514 -0.008398 0.013785 0.000000 0.000000 0.000000
# 4 0.000000 0.000000 0.000000 0.107156 0.000000 0.000000
# 5 0.000000 0.000000 0.000000 0.000000 0.024907 0.000000
# 6 0.000000 0.000000 0.000000 0.000000 0.000000 0.182338
#
#
# Mechanical properties :
#
#
# Convention : Reuss Voigt Hill
#
# Bulk Modulus (GPa) = 58.90049 72.82086 65.86067
# Shear Modulus (GPa) = 12.88483 24.01276 18.44879
#
# Velocity S-wave (km/s) = 2.46764 3.36871 2.95275
# Velocity P-wave (km/s) = 5.99624 7.03886 6.53836
#
# Compressibility (1/GPa) = 0.01697779
#
# Stress axis : x y z
#
# Youngs Moduli (GPa) = 64.02190 76.45009 72.54200
#
# Poissons Ratio (x) = -0.01213 0.32745
# Poissons Ratio (y) = -0.01016 0.60924
# Poissons Ratio (z) = 0.28899 0.64206
#
# Static dielectric constant tensor:
#      x y z
#    x 1.856940 0.000000 0.000000 
#    y 0.000000 1.772330 0.000000 
#    z 0.000000 0.000000 1.760830 
# 
# From -- ./inp_files/7922.got.cif
#   From: 2010.05.17/outbox.cif.g08.bks.cpg/sg23_4_cif.got.tgz:7922.got - 2010.06.04 12:02:01.
