data_PCOD9331375
_publ_section_title
;
Structure prediction by ZEFSAII (Michael W. Deem and Ramdas Pophale) SiO2 
 PCOD9331375
Probable space group: I 2 2 2
;
_chemical_formula_sum "Si O2"
_cell_formula_units_Z 52
_cell_length_a 21.590219
_cell_length_b 7.476961
_cell_length_c 15.213963
_cell_angle_alpha 90.000000
_cell_angle_beta 90.000000
_cell_angle_gamma 90.000000
_cell_volume 2455.978263
_symmetry_space_group_name_H-M "I 2 2 2"
_symmetry_group_IT_number 23
_symmetry_cell_setting 'orthorhombic'
loop_
_space_group_symop_operation_xyz
x,y,z
-x,-y,z
x,-y,-z
-x,y,-z
1/2+x,1/2+y,1/2+z
1/2-x,1/2-y,1/2+z
1/2+x,1/2-y,1/2-z
1/2-x,1/2+y,1/2-z
loop_
_atom_site_type_symbol
_atom_site_label
_atom_site_fract_x
_atom_site_fract_y
_atom_site_fract_z
Si Si1 0.760163 0.435217 0.600488
Si Si2 0.547520 0.649157 0.625802
Si Si3 0.842749 0.360373 0.921653
Si Si4 0.000000 0.500000 0.777553
Si Si5 0.786178 0.977803 0.408370
Si Si6 0.632847 0.041473 0.764384
Si Si7 0.648319 0.454461 0.727404
O O1 0.761576 0.500000 0.500000
O O2 0.756848 0.219399 0.598559
O O3 0.820183 0.492107 0.657749
O O4 0.700267 0.501810 0.654545
O O5 0.500000 0.500000 0.593070
O O6 0.604655 0.709492 0.562895
O O7 0.511298 0.825648 0.660367
O O8 0.584662 0.551346 0.704796
O O9 0.767603 0.371201 0.915653
O O10 0.856808 0.420756 0.821823
O O11 0.855678 0.500000 0.000000
O O12 0.939629 0.521318 0.717393
O O13 0.822059 0.000000 0.500000
O O14 0.826302 0.995056 0.322350
O O15 0.642726 0.242113 0.731300
#
# Coordination Sequence:
#
# PCOD9331375 Si02
#       7
#     8   8   8   4   8   8   8
#     4  12  25  41  67 103 136 175 224 283 353 410
#     4  11  24  43  71  96 134 189 236 278 338 405
#     4  10  22  39  68  96 136 176 222 281 339 397
#     4  10  22  44  68  98 136 174 234 282 320 412
#     4  11  23  39  64 101 139 174 219 286 347 411
#     4  11  22  42  68  96 135 178 222 279 338 402
#     4  12  23  40  69 101 132 181 225 279 350 410
#
# _framework density 21.172826000000001
#
# number of rings (size 3 to 8) (size 9 to 14) (size 15 to 20)
#    0.000    0.923    4.615    2.769    6.462    0.000 
#    0.000    6.538   13.538    0.462    0.000    0.000 
#    0.000    0.000    0.000    0.000    0.000    0.000 
#
# Total GULP energy -145141.189269 kJ/mol
# GULP energy per Si atom -5582.353433 kJ/mol
# Density = 2.112464 g / cm^3
# Si number density = 21.172826 Si / 1000 Ang^3
#
#
#
# Elastic Constant Matrix: (Units=GPa)
#
#
# Indices 1 2 3 4 5 6 
#
# 1 134.8875 36.2963 69.5162 0.0000 0.0000 0.0000
# 2 36.2963 103.9121 19.7987 0.0000 0.0000 0.0000
# 3 69.5162 19.7987 128.1668 0.0000 0.0000 0.0000
# 4 0.0000 0.0000 0.0000 27.9768 0.0000 0.0000
# 5 0.0000 0.0000 0.0000 0.0000 -2.1922 0.0000
# 6 0.0000 0.0000 0.0000 0.0000 0.0000 42.7380
#
#
#
# Elastic Compliance Matrix: (Units=1/GPa)
#
#
# Indices 1 2 3 4 5 6 
#
# 1 0.011025 -0.002794 -0.005548 0.000000 0.000000 0.000000
# 2 -0.002794 0.010623 -0.000126 0.000000 0.000000 0.000000
# 3 -0.005548 -0.000126 0.010831 0.000000 0.000000 0.000000
# 4 0.000000 0.000000 0.000000 0.035744 0.000000 0.000000
# 5 0.000000 0.000000 0.000000 0.000000 -0.456163 0.000000
# 6 0.000000 0.000000 0.000000 0.000000 0.000000 0.023398
#
#
# Mechanical properties :
#
#
# Convention : Reuss Voigt Hill
#
# Bulk Modulus (GPa) = 64.33448 68.68764 66.51106
# Shear Modulus (GPa) = -14.60173 29.79488 7.59657
#
# Velocity S-wave (km/s) = -2.62896 3.75537 1.89623
# Velocity P-wave (km/s) = 4.60827 7.16349 6.02294
#
# Compressibility (1/GPa) = 0.01554377
#
# Stress axis : x y z
#
# Youngs Moduli (GPa) = 90.70600 94.13235 92.32795
#
# Poissons Ratio (x) = 0.26299 0.51224
# Poissons Ratio (y) = 0.25341 0.01161
# Poissons Ratio (z) = 0.50324 0.01183
#
# Static dielectric constant tensor:
#      x y z
#    x 1.810400 0.000000 0.000000 
#    y 0.000000 1.903740 0.000000 
#    z 0.000000 0.000000 1.741950 
# 
# From -- ./inp_files/22346.got.cif
#   From: 2010.05.17/outbox.cif.g08.bks.cpg/sg23_12_cif.got.tgz:22346.got - 2010.06.04 12:02:01.
