data_PCOD9331934
_publ_section_title
;
Structure prediction by ZEFSAII (Michael W. Deem and Ramdas Pophale) SiO2 
 PCOD9331934
Probable space group: I 2 2 2
;
_chemical_formula_sum "Si O2"
_cell_formula_units_Z 40
_cell_length_a 23.836542
_cell_length_b 4.777834
_cell_length_c 13.909001
_cell_angle_alpha 90.000000
_cell_angle_beta 90.000000
_cell_angle_gamma 90.000000
_cell_volume 1584.054965
_symmetry_space_group_name_H-M "I 2 2 2"
_symmetry_group_IT_number 23
_symmetry_cell_setting 'orthorhombic'
loop_
_space_group_symop_operation_xyz
x,y,z
-x,-y,z
x,-y,-z
-x,y,-z
1/2+x,1/2+y,1/2+z
1/2-x,1/2-y,1/2+z
1/2+x,1/2-y,1/2-z
1/2-x,1/2+y,1/2-z
loop_
_atom_site_type_symbol
_atom_site_label
_atom_site_fract_x
_atom_site_fract_y
_atom_site_fract_z
Si Si1 0.897730 0.603171 0.308394
Si Si2 0.589516 0.822721 0.379788
Si Si3 0.000000 0.500000 0.500000
Si Si4 0.000000 0.000000 0.367870
Si Si5 0.250209 0.000000 0.500000
Si Si6 0.000000 0.000000 0.000000
Si Si7 0.332187 0.000000 0.000000
Si Si8 0.159858 0.805638 0.869726
O O1 0.974085 0.261687 0.429858
O O2 0.870646 0.484881 0.405184
O O3 0.847830 0.745465 0.243467
O O4 0.947536 0.828588 0.322927
O O5 0.579806 0.869292 0.266083
O O6 0.537195 0.689190 0.429921
O O7 0.644889 0.625739 0.390507
O O8 0.606209 0.134564 0.411091
O O9 0.208225 0.245506 0.471217
O O10 0.287766 0.157111 0.580998
#
# Coordination Sequence:
#
# PCOD9331934 Si02
#       8
#     8   8   2   4   4   2   4   8
#     4  10  28  50  78 117 171 217 288 355 429 530
#     4  10  25  45  79 112 166 208 272 354 415 530
#     4  10  26  42  76 110 150 224 308 330 406 514
#     4  11  24  49  79 113 166 236 277 365 435 513
#     4  12  26  48  88 118 154 226 280 366 462 500
#     4  12  24  50  78 122 156 228 278 334 446 518
#     4  12  29  47  86 119 164 218 302 350 431 538
#     4  10  24  49  76 115 162 202 270 359 436 508
#
# _framework density 25.251649
#
# number of rings (size 3 to 8) (size 9 to 14) (size 15 to 20)
#    1.200    0.200    0.000    3.000    5.600    5.600 
#    3.600    1.000    0.000    0.600    0.000    0.000 
#    0.000    0.000    0.000    0.000    0.000    0.000 
#
# Total GULP energy -111593.094161 kJ/mol
# GULP energy per Si atom -5579.654708 kJ/mol
# Density = 2.519418 g / cm^3
# Si number density = 25.251649 Si / 1000 Ang^3
#
#
#
# Elastic Constant Matrix: (Units=GPa)
#
#
# Indices 1 2 3 4 5 6 
#
# 1 151.3400 60.5846 81.4372 0.0000 0.0000 0.0000
# 2 60.5846 165.7992 45.5474 0.0000 0.0000 0.0000
# 3 81.4372 45.5474 170.9250 0.0000 0.0000 0.0000
# 4 0.0000 0.0000 0.0000 51.5909 0.0000 0.0000
# 5 0.0000 0.0000 0.0000 0.0000 29.2435 0.0000
# 6 0.0000 0.0000 0.0000 0.0000 0.0000 67.7803
#
#
#
# Elastic Compliance Matrix: (Units=1/GPa)
#
#
# Indices 1 2 3 4 5 6 
#
# 1 0.009737 -0.002464 -0.003983 0.000000 0.000000 0.000000
# 2 -0.002464 0.007131 -0.000726 0.000000 0.000000 0.000000
# 3 -0.003983 -0.000726 0.007942 0.000000 0.000000 0.000000
# 4 0.000000 0.000000 0.000000 0.019383 0.000000 0.000000
# 5 0.000000 0.000000 0.000000 0.000000 0.034196 0.000000
# 6 0.000000 0.000000 0.000000 0.000000 0.000000 0.014754
#
#
# Mechanical properties :
#
#
# Convention : Reuss Voigt Hill
#
# Bulk Modulus (GPa) = 95.56517 95.91139 95.73828
# Shear Modulus (GPa) = 45.05461 49.75595 47.40528
#
# Velocity S-wave (km/s) = 4.22859 4.44374 4.33750
# Velocity P-wave (km/s) = 7.85930 8.02457 7.94237
#
# Compressibility (1/GPa) = 0.01046406
#
# Stress axis : x y z
#
# Youngs Moduli (GPa) = 102.69996 140.22721 125.91889
#
# Poissons Ratio (x) = 0.34551 0.50149
# Poissons Ratio (y) = 0.25305 0.09146
# Poissons Ratio (z) = 0.40902 0.10186
#
# Static dielectric constant tensor:
#      x y z
#    x 1.994610 0.000000 0.000000 
#    y 0.000000 1.930890 0.000000 
#    z 0.000000 0.000000 2.168000 
# 
# From -- ./inp_files/22532.got.cif
#   From: 2010.05.17/outbox.cif.g08.bks.cpg/sg23_12_cif.got.tgz:22532.got - 2010.06.04 12:02:01.
