data_PCOD9331665
_publ_section_title
;
Structure prediction by ZEFSAII (Michael W. Deem and Ramdas Pophale) SiO2 
 PCOD9331665
Probable space group: I 2 2 2
;
_chemical_formula_sum "Si O2"
_cell_formula_units_Z 28
_cell_length_a 32.001459
_cell_length_b 7.536530
_cell_length_c 5.137691
_cell_angle_alpha 90.000000
_cell_angle_beta 90.000000
_cell_angle_gamma 90.000000
_cell_volume 1239.108088
_symmetry_space_group_name_H-M "I 2 2 2"
_symmetry_group_IT_number 23
_symmetry_cell_setting 'orthorhombic'
loop_
_space_group_symop_operation_xyz
x,y,z
-x,-y,z
x,-y,-z
-x,y,-z
1/2+x,1/2+y,1/2+z
1/2-x,1/2-y,1/2+z
1/2+x,1/2-y,1/2-z
1/2-x,1/2+y,1/2-z
loop_
_atom_site_type_symbol
_atom_site_label
_atom_site_fract_x
_atom_site_fract_y
_atom_site_fract_z
Si Si1 0.547379 0.785296 0.984422
Si Si2 0.899240 0.286881 0.012211
Si Si3 0.329629 0.500000 0.500000
Si Si4 0.756591 0.854772 0.666801
O O1 0.567413 0.741442 0.709649
O O2 0.500000 0.717974 0.000000
O O3 0.579122 0.735372 0.214839
O O4 0.545010 0.000000 0.000000
O O5 0.891463 0.500000 0.000000
O O6 0.858509 0.170557 0.957353
O O7 0.298984 0.445666 0.265743
O O8 0.763251 0.710215 0.438402
O O9 0.730882 0.000000 0.500000
#
# Coordination Sequence:
#
# PCOD9331665 Si02
#       4
#     8   8   4   8
#     4   9  18  37  65  96 138 189 239 284 335 410
#     4  10  23  41  65 101 139 185 232 286 359 414
#     4  12  28  46  77 102 146 180 230 306 365 436
#     4  12  26  50  75 103 137 182 239 298 370 442
#
# _framework density 22.596899000000001
#
# number of rings (size 3 to 8) (size 9 to 14) (size 15 to 20)
#    0.000    1.429    2.857    0.857    4.000    4.571 
#    5.143    4.286    0.000    0.000    0.000    0.000 
#    0.000    0.000    0.000    0.000    0.000    0.000 
#
# Total GULP energy -78165.618291 kJ/mol
# GULP energy per Si atom -5583.258449 kJ/mol
# Density = 2.254547 g / cm^3
# Si number density = 22.596899 Si / 1000 Ang^3
#
#
#
# Elastic Constant Matrix: (Units=GPa)
#
#
# Indices 1 2 3 4 5 6 
#
# 1 106.5455 52.8364 36.6965 0.0000 0.0000 -0.0001
# 2 52.8364 97.6311 39.3361 -0.0002 -0.0001 -0.0002
# 3 36.6965 39.3361 140.1532 -0.0002 -0.0001 -0.0002
# 4 0.0000 -0.0002 -0.0002 35.3982 -0.0001 -0.0002
# 5 0.0000 -0.0001 -0.0001 -0.0001 26.0547 -0.0001
# 6 -0.0001 -0.0002 -0.0002 -0.0002 -0.0001 41.9365
#
#
#
# Elastic Compliance Matrix: (Units=1/GPa)
#
#
# Indices 1 2 3 4 5 6 
#
# 1 0.013151 -0.006460 -0.001630 0.000000 0.000000 0.000000
# 2 -0.006460 0.014722 -0.002440 0.000000 0.000000 0.000000
# 3 -0.001630 -0.002440 0.008247 0.000000 0.000000 0.000000
# 4 0.000000 0.000000 0.000000 0.028250 0.000000 0.000000
# 5 0.000000 0.000000 0.000000 0.000000 0.038381 0.000000
# 6 0.000000 0.000000 0.000000 0.000000 0.000000 0.023846
#
#
# Mechanical properties :
#
#
# Convention : Reuss Voigt Hill
#
# Bulk Modulus (GPa) = 66.40973 66.89643 66.65308
# Shear Modulus (GPa) = 32.74887 35.04193 33.89540
#
# Velocity S-wave (km/s) = 3.81105 3.94222 3.87719
# Velocity P-wave (km/s) = 6.98700 7.09859 7.04301
#
# Compressibility (1/GPa) = 0.01505803
#
# Stress axis : x y z
#
# Youngs Moduli (GPa) = 76.04126 67.92518 121.25869
#
# Poissons Ratio (x) = 0.43881 0.19767
# Poissons Ratio (y) = 0.49124 0.29593
# Poissons Ratio (z) = 0.12396 0.16577
#
# Static dielectric constant tensor:
#      x y z
#    x 1.814650 0.000000 0.000000 
#    y 0.000000 2.027790 0.000000 
#    z 0.000000 0.000000 1.814180 
# 
# From -- ./inp_files/4704.got.cif
#   From: 2010.05.17/outbox.cif.g08.bks.cpg/sg23_3_cif.got.tgz:4704.got - 2010.06.04 12:02:01.
