data_PCOD9331600
_publ_section_title
;
Structure prediction by ZEFSAII (Michael W. Deem and Ramdas Pophale) SiO2 
 PCOD9331600
Probable space group: I 2 2 2
;
_chemical_formula_sum "Si O2"
_cell_formula_units_Z 56
_cell_length_a 17.651682
_cell_length_b 16.999590
_cell_length_c 7.439756
_cell_angle_alpha 90.000000
_cell_angle_beta 90.000000
_cell_angle_gamma 90.000000
_cell_volume 2232.457677
_symmetry_space_group_name_H-M "I 2 2 2"
_symmetry_group_IT_number 23
_symmetry_cell_setting 'orthorhombic'
loop_
_space_group_symop_operation_xyz
x,y,z
-x,-y,z
x,-y,-z
-x,y,-z
1/2+x,1/2+y,1/2+z
1/2-x,1/2-y,1/2+z
1/2+x,1/2-y,1/2-z
1/2-x,1/2+y,1/2-z
loop_
_atom_site_type_symbol
_atom_site_label
_atom_site_fract_x
_atom_site_fract_y
_atom_site_fract_z
Si Si1 0.493577 0.907841 0.215775
Si Si2 0.335045 0.487534 0.810414
Si Si3 0.857714 0.685930 0.804069
Si Si4 0.414896 0.665700 0.265517
Si Si5 0.717815 0.923060 0.019120
Si Si6 0.587855 0.351125 0.699250
Si Si7 0.665750 0.172234 0.291557
O O1 0.559029 0.854675 0.307941
O O2 0.411875 0.876720 0.272779
O O3 0.500000 0.000000 0.260572
O O4 0.500000 0.897262 0.000000
O O5 0.387608 0.411607 0.835334
O O6 0.281840 0.462553 0.645854
O O7 0.384247 0.563633 0.759292
O O8 0.293349 0.500000 0.000000
O O9 0.815400 0.641122 0.649265
O O10 0.862070 0.776575 0.749653
O O11 0.817678 0.677638 0.997118
O O12 0.411021 0.650190 0.481025
O O13 0.504241 0.672731 0.232298
O O14 0.360820 0.740372 0.229239
O O15 0.724663 0.876410 0.831729
O O16 0.664021 0.000000 0.000000
#
# Coordination Sequence:
#
# PCOD9331600 Si02
#       7
#     8   8   8   8   8   8   8
#     4  11  21  37  65 107 154 192 247 314 388 451
#     4  12  29  49  73 111 152 210 271 323 400 489
#     4  11  24  44  75 114 147 202 255 313 392 471
#     4  10  22  47  79 116 148 197 261 333 414 468
#     4  12  28  49  70 103 154 205 258 314 383 483
#     4  10  22  47  81 113 155 192 258 346 403 471
#     4  11  24  44  74 109 150 197 250 321 390 469
#
# _framework density 25.084463
#
# number of rings (size 3 to 8) (size 9 to 14) (size 15 to 20)
#    0.000    1.000    2.857    3.000    4.000    4.571 
#    7.714    0.000    0.000    0.000    0.000    0.000 
#    0.000    0.000    0.000    0.000    0.000    0.000 
#
# Total GULP energy -156769.048472 kJ/mol
# GULP energy per Si atom -5598.894588 kJ/mol
# Density = 2.502737 g / cm^3
# Si number density = 25.084463 Si / 1000 Ang^3
#
#
#
# Elastic Constant Matrix: (Units=GPa)
#
#
# Indices 1 2 3 4 5 6 
#
# 1 28.9648 30.9423 32.4504 0.0000 0.0000 0.0000
# 2 30.9423 210.5715 40.0475 0.0000 0.0000 0.0000
# 3 32.4504 40.0475 113.0434 0.0000 0.0000 0.0000
# 4 0.0000 0.0000 0.0000 28.4210 0.0000 0.0000
# 5 0.0000 0.0000 0.0000 0.0000 31.9702 0.0000
# 6 0.0000 0.0000 0.0000 0.0000 0.0000 31.4878
#
#
#
# Elastic Compliance Matrix: (Units=1/GPa)
#
#
# Indices 1 2 3 4 5 6 
#
# 1 0.056421 -0.005587 -0.014217 0.000000 0.000000 0.000000
# 2 -0.005587 0.005645 -0.000396 0.000000 0.000000 0.000000
# 3 -0.014217 -0.000396 0.013068 0.000000 0.000000 0.000000
# 4 0.000000 0.000000 0.000000 0.035185 0.000000 0.000000
# 5 0.000000 0.000000 0.000000 0.000000 0.031279 0.000000
# 6 0.000000 0.000000 0.000000 0.000000 0.000000 0.031758
#
#
# Mechanical properties :
#
#
# Convention : Reuss Voigt Hill
#
# Bulk Modulus (GPa) = 28.79046 62.16225 45.47635
# Shear Modulus (GPa) = 22.18922 34.98508 28.58715
#
# Velocity S-wave (km/s) = 2.97742 3.73861 3.37951
# Velocity P-wave (km/s) = 4.82932 6.59327 5.77899
#
# Compressibility (1/GPa) = 0.03473373
#
# Stress axis : x y z
#
# Youngs Moduli (GPa) = 17.72394 177.13905 76.52482
#
# Poissons Ratio (x) = 0.98965 1.08795
# Poissons Ratio (y) = 0.09902 0.03032
# Poissons Ratio (z) = 0.25198 0.07018
#
# Static dielectric constant tensor:
#      x y z
#    x 2.093750 0.000000 0.000000 
#    y 0.000000 2.078690 0.000000 
#    z 0.000000 0.000000 2.030070 
# 
# From -- ./inp_files/12045.got.cif
#   From: 2010.05.17/outbox.cif.g08.bks.cpg/sg23_7_cif.got.tgz:12045.got - 2010.06.04 12:02:01.
