data_PCOD9331364
_publ_section_title
;
Structure prediction by ZEFSAII (Michael W. Deem and Ramdas Pophale) SiO2 
 PCOD9331364
Probable space group: I 2 2 2
;
_chemical_formula_sum "Si O2"
_cell_formula_units_Z 48
_cell_length_a 17.257143
_cell_length_b 15.315421
_cell_length_c 8.225862
_cell_angle_alpha 90.000000
_cell_angle_beta 90.000000
_cell_angle_gamma 90.000000
_cell_volume 2174.098702
_symmetry_space_group_name_H-M "I 2 2 2"
_symmetry_group_IT_number 23
_symmetry_cell_setting 'orthorhombic'
loop_
_space_group_symop_operation_xyz
x,y,z
-x,-y,z
x,-y,-z
-x,y,-z
1/2+x,1/2+y,1/2+z
1/2-x,1/2-y,1/2+z
1/2+x,1/2-y,1/2-z
1/2-x,1/2+y,1/2-z
loop_
_atom_site_type_symbol
_atom_site_label
_atom_site_fract_x
_atom_site_fract_y
_atom_site_fract_z
Si Si1 0.676799 0.888128 0.693836
Si Si2 0.466899 0.218528 0.818750
Si Si3 0.016606 0.097064 0.805893
Si Si4 0.202762 0.559784 0.372495
Si Si5 0.183850 0.848747 0.125469
Si Si6 0.386092 0.832508 0.626267
O O1 0.611814 0.836480 0.800284
O O2 0.753166 0.831714 0.733940
O O3 0.635780 0.894789 0.520873
O O4 0.711782 0.983707 0.739256
O O5 0.470093 0.322769 0.777061
O O6 0.526582 0.179593 0.684789
O O7 0.500000 0.208317 0.000000
O O8 0.109051 0.107710 0.794630
O O9 0.000000 0.000000 0.744556
O O10 0.000000 0.100683 0.000000
O O11 0.154324 0.500000 0.500000
O O12 0.274353 0.597254 0.479309
O O13 0.159062 0.637285 0.286661
O O14 0.148880 0.758410 0.062565
#
# Coordination Sequence:
#
# PCOD9331364 Si02
#       6
#     8   8   8   8   8   8
#     4  11  23  39  65  98 137 180 234 301 356 440
#     4  11  23  42  66  98 139 184 243 298 373 443
#     4  10  23  41  71  99 136 193 242 305 368 443
#     4  10  22  39  65  96 140 174 233 293 360 428
#     4  10  22  42  65  99 138 186 239 298 363 440
#     4  11  22  42  67  96 136 187 239 286 366 438
#
# _framework density 22.078113999999999
#
# number of rings (size 3 to 8) (size 9 to 14) (size 15 to 20)
#    0.000    1.500    0.000    6.000    7.000    2.333 
#    0.000    5.000   14.667    0.000    0.000    0.000 
#    0.000    0.000    0.000    0.000    0.000    0.000 
#
# Total GULP energy -133623.973820 kJ/mol
# GULP energy per Si atom -5567.665576 kJ/mol
# Density = 2.202786 g / cm^3
# Si number density = 22.078114 Si / 1000 Ang^3
#
#
#
# Elastic Constant Matrix: (Units=GPa)
#
#
# Indices 1 2 3 4 5 6 
#
# 1 111.3194 49.6064 9.7325 0.0000 0.0000 0.0000
# 2 49.6064 104.4325 12.2268 0.0000 0.0000 0.0000
# 3 9.7325 12.2268 76.2044 0.0000 0.0000 0.0000
# 4 0.0000 0.0000 0.0000 41.9134 0.0000 0.0000
# 5 0.0000 0.0000 0.0000 0.0000 24.8316 0.0000
# 6 0.0000 0.0000 0.0000 0.0000 0.0000 22.4412
#
#
#
# Elastic Compliance Matrix: (Units=1/GPa)
#
#
# Indices 1 2 3 4 5 6 
#
# 1 0.011422 -0.005355 -0.000600 0.000000 0.000000 0.000000
# 2 -0.005355 0.012270 -0.001285 0.000000 0.000000 0.000000
# 3 -0.000600 -0.001285 0.013405 0.000000 0.000000 0.000000
# 4 0.000000 0.000000 0.000000 0.023859 0.000000 0.000000
# 5 0.000000 0.000000 0.000000 0.000000 0.040271 0.000000
# 6 0.000000 0.000000 0.000000 0.000000 0.000000 0.044561
#
#
# Mechanical properties :
#
#
# Convention : Reuss Voigt Hill
#
# Bulk Modulus (GPa) = 44.21261 48.34307 46.27784
# Shear Modulus (GPa) = 29.79621 32.52995 31.16308
#
# Velocity S-wave (km/s) = 3.67765 3.84266 3.76106
# Velocity P-wave (km/s) = 6.17272 6.45228 6.31405
#
# Compressibility (1/GPa) = 0.02261798
#
# Stress axis : x y z
#
# Youngs Moduli (GPa) = 87.54995 81.50070 74.59736
#
# Poissons Ratio (x) = 0.43647 0.04472
# Poissons Ratio (y) = 0.46886 0.09583
# Poissons Ratio (z) = 0.05249 0.10470
#
# Static dielectric constant tensor:
#      x y z
#    x 1.817330 0.000000 0.000000 
#    y 0.000000 1.993930 0.000000 
#    z 0.000000 0.000000 1.923110 
# 
# From -- ./inp_files/11040.got.cif
#   From: 2010.05.17/outbox.cif.g08.bks.cpg/sg23_6_cif.got.tgz:11040.got - 2010.06.04 12:02:01.
