data_PCOD9331292
_publ_section_title
;
Structure prediction by ZEFSAII (Michael W. Deem and Ramdas Pophale) SiO2 
 PCOD9331292
Probable space group: I 2 2 2
;
_chemical_formula_sum "Si O2"
_cell_formula_units_Z 48
_cell_length_a 5.321112
_cell_length_b 26.019781
_cell_length_c 14.567951
_cell_angle_alpha 90.000000
_cell_angle_beta 90.000000
_cell_angle_gamma 90.000000
_cell_volume 2016.993549
_symmetry_space_group_name_H-M "I 2 2 2"
_symmetry_group_IT_number 23
_symmetry_cell_setting 'orthorhombic'
loop_
_space_group_symop_operation_xyz
x,y,z
-x,-y,z
x,-y,-z
-x,y,-z
1/2+x,1/2+y,1/2+z
1/2-x,1/2-y,1/2+z
1/2+x,1/2-y,1/2-z
1/2-x,1/2+y,1/2-z
loop_
_atom_site_type_symbol
_atom_site_label
_atom_site_fract_x
_atom_site_fract_y
_atom_site_fract_z
Si Si1 0.409339 0.446839 0.854629
Si Si2 0.742034 0.810434 0.736052
Si Si3 0.082771 0.421692 0.252878
Si Si4 0.851424 0.840202 0.409825
Si Si5 0.477680 0.743763 0.603783
Si Si6 0.243205 0.558657 0.540254
O O1 0.500000 0.500000 0.898059
O O2 0.678792 0.432209 0.811522
O O3 0.307691 0.400951 0.918242
O O4 0.179317 0.448465 0.779324
O O5 0.554811 0.859466 0.746519
O O6 0.692796 0.757739 0.677904
O O7 0.797730 0.792890 0.839069
O O8 0.983270 0.831797 0.681016
O O9 0.188271 0.439749 0.351777
O O10 0.620803 0.802214 0.405894
O O11 0.000000 0.823086 0.500000
O O12 0.500000 0.724704 0.500000
O O13 0.244817 0.500000 0.500000
O O14 0.500000 0.581422 0.500000
O O15 0.000000 0.586304 0.500000
#
# Coordination Sequence:
#
# PCOD9331292 Si02
#       6
#     8   8   8   8   8   8
#     4  11  25  41  69 102 138 186 240 302 367 446
#     4  11  24  42  69 104 144 192 242 308 377 457
#     4  11  24  43  66  99 142 186 242 297 370 449
#     4  11  23  43  69 101 140 191 243 304 382 459
#     4  12  23  42  73 104 148 193 251 310 387 462
#     4  10  22  37  60  90 128 180 233 290 350 429
#
# _framework density 23.797796000000002
#
# number of rings (size 3 to 8) (size 9 to 14) (size 15 to 20)
#    0.000    1.000    5.000    1.500    7.000    1.000 
#    0.000    2.500    0.000    2.000    0.000    0.000 
#    0.000    0.000    0.000    0.000    0.000    0.000 
#
# Total GULP energy -133689.794342 kJ/mol
# GULP energy per Si atom -5570.408098 kJ/mol
# Density = 2.374363 g / cm^3
# Si number density = 23.797796 Si / 1000 Ang^3
#
#
#
# Elastic Constant Matrix: (Units=GPa)
#
#
# Indices 1 2 3 4 5 6 
#
# 1 97.1797 23.1301 -2.0496 0.0000 0.0000 0.0000
# 2 23.1301 76.6554 36.5405 0.0000 0.0000 0.0000
# 3 -2.0496 36.5405 120.7791 0.0000 0.0000 0.0000
# 4 0.0000 0.0000 0.0000 36.7326 0.0000 0.0000
# 5 0.0000 0.0000 0.0000 0.0000 32.6487 0.0000
# 6 0.0000 0.0000 0.0000 0.0000 0.0000 24.9555
#
#
#
# Elastic Compliance Matrix: (Units=1/GPa)
#
#
# Indices 1 2 3 4 5 6 
#
# 1 0.011294 -0.004089 0.001429 0.000000 0.000000 0.000000
# 2 -0.004089 0.016724 -0.005129 0.000000 0.000000 0.000000
# 3 0.001429 -0.005129 0.009856 0.000000 0.000000 0.000000
# 4 0.000000 0.000000 0.000000 0.027224 0.000000 0.000000
# 5 0.000000 0.000000 0.000000 0.000000 0.030629 0.000000
# 6 0.000000 0.000000 0.000000 0.000000 0.000000 0.040071
#
#
# Mechanical properties :
#
#
# Convention : Reuss Voigt Hill
#
# Bulk Modulus (GPa) = 44.85344 45.53960 45.19652
# Shear Modulus (GPa) = 31.48468 34.66691 33.07580
#
# Velocity S-wave (km/s) = 3.64126 3.82085 3.73214
# Velocity P-wave (km/s) = 6.04707 6.21633 6.13229
#
# Compressibility (1/GPa) = 0.02229483
#
# Stress axis : x y z
#
# Youngs Moduli (GPa) = 88.54634 59.79395 101.46541
#
# Poissons Ratio (x) = 0.24448 -0.14496
# Poissons Ratio (y) = 0.36204 0.52043
# Poissons Ratio (z) = -0.12650 0.30669
#
# Static dielectric constant tensor:
#      x y z
#    x 1.552300 0.000000 0.000000 
#    y 0.000000 2.027500 0.000000 
#    z 0.000000 0.000000 2.100180 
# 
# From -- ./inp_files/19234.got.cif
#   From: 2010.05.17/outbox.cif.g08.bks.cpg/sg23_10_cif.got.tgz:19234.got - 2010.06.04 12:02:01.
