data_PCOD9331441
_publ_section_title
;
Structure prediction by ZEFSAII (Michael W. Deem and Ramdas Pophale) SiO2 
 PCOD9331441
Probable space group: I 2 2 2
;
_chemical_formula_sum "Si O2"
_cell_formula_units_Z 60
_cell_length_a 11.520413
_cell_length_b 12.587271
_cell_length_c 20.929457
_cell_angle_alpha 90.000000
_cell_angle_beta 90.000000
_cell_angle_gamma 90.000000
_cell_volume 3034.992290
_symmetry_space_group_name_H-M "I 2 2 2"
_symmetry_group_IT_number 23
_symmetry_cell_setting 'orthorhombic'
loop_
_space_group_symop_operation_xyz
x,y,z
-x,-y,z
x,-y,-z
-x,y,-z
1/2+x,1/2+y,1/2+z
1/2-x,1/2-y,1/2+z
1/2+x,1/2-y,1/2-z
1/2-x,1/2+y,1/2-z
loop_
_atom_site_type_symbol
_atom_site_label
_atom_site_fract_x
_atom_site_fract_y
_atom_site_fract_z
Si Si1 0.942350 0.291287 0.569205
Si Si2 0.055467 0.896734 0.785109
Si Si3 0.523431 0.813576 0.356672
Si Si4 0.822440 0.376102 0.263437
Si Si5 0.194978 0.570701 0.906209
Si Si6 0.703750 0.830093 0.457940
Si Si7 0.500000 0.000000 0.149180
Si Si8 0.399513 0.665855 0.833004
O O1 0.815162 0.239558 0.561565
O O2 0.950246 0.403510 0.606402
O O3 0.000000 0.304295 0.500000
O O4 0.020520 0.210647 0.610428
O O5 0.189087 0.909529 0.765569
O O6 0.035743 0.790548 0.826325
O O7 0.981093 0.881369 0.721005
O O8 0.000000 0.000000 0.818316
O O9 0.618008 0.856776 0.305342
O O10 0.423795 0.899512 0.370673
O O11 0.590508 0.785477 0.422113
O O12 0.899587 0.456623 0.304662
O O13 0.833082 0.264225 0.300410
O O14 0.203738 0.451702 0.932404
O O15 0.304058 0.588237 0.860851
O O16 0.200387 0.653312 0.965871
#
# Coordination Sequence:
#
# PCOD9331441 Si02
#       8
#     8   8   8   8   8   8   4   8
#     4  11  22  43  65  98 131 171 225 271 327 392
#     4  11  25  41  66  98 133 170 224 272 338 395
#     4  11  24  43  68  96 133 173 222 274 335 402
#     4  10  23  44  63  95 129 175 214 271 320 401
#     4  11  23  44  64  96 133 172 220 275 333 394
#     4  11  25  40  69  96 127 174 222 274 334 395
#     4  10  25  40  72  96 133 178 222 262 340 398
#     4  10  22  41  62  89 132 170 211 270 323 388
#
# _framework density 19.769407999999999
#
# number of rings (size 3 to 8) (size 9 to 14) (size 15 to 20)
#    0.000    1.333    2.667    1.800    7.467    1.067 
#    0.000    0.000    0.000    0.800    0.000    0.000 
#    0.000    0.000    0.000    0.000    0.000    0.000 
#
# Total GULP energy -167688.708940 kJ/mol
# GULP energy per Si atom -5589.623631 kJ/mol
# Density = 1.972441 g / cm^3
# Si number density = 19.769408 Si / 1000 Ang^3
#
#
#
# Elastic Constant Matrix: (Units=GPa)
#
#
# Indices 1 2 3 4 5 6 
#
# 1 125.9643 65.3651 36.8938 0.0000 0.0000 0.0000
# 2 65.3651 79.4205 20.4186 0.0000 0.0000 0.0000
# 3 36.8938 20.4186 79.7670 0.0000 0.0000 0.0000
# 4 0.0000 0.0000 0.0000 21.4461 0.0000 0.0000
# 5 0.0000 0.0000 0.0000 0.0000 19.7523 0.0000
# 6 0.0000 0.0000 0.0000 0.0000 0.0000 27.0214
#
#
#
# Elastic Compliance Matrix: (Units=1/GPa)
#
#
# Indices 1 2 3 4 5 6 
#
# 1 0.014981 -0.011291 -0.004039 0.000000 0.000000 0.000000
# 2 -0.011291 0.021989 -0.000406 0.000000 0.000000 0.000000
# 3 -0.004039 -0.000406 0.014508 0.000000 0.000000 0.000000
# 4 0.000000 0.000000 0.000000 0.046628 0.000000 0.000000
# 5 0.000000 0.000000 0.000000 0.000000 0.050627 0.000000
# 6 0.000000 0.000000 0.000000 0.000000 0.000000 0.037008
#
#
# Mechanical properties :
#
#
# Convention : Reuss Voigt Hill
#
# Bulk Modulus (GPa) = 49.98559 58.94519 54.46539
# Shear Modulus (GPa) = 22.33318 24.47557 23.40438
#
# Velocity S-wave (km/s) = 3.36472 3.52241 3.44447
# Velocity P-wave (km/s) = 6.35880 6.81354 6.59009
#
# Compressibility (1/GPa) = 0.02000576
#
# Stress axis : x y z
#
# Youngs Moduli (GPa) = 66.75159 45.47789 68.92544
#
# Poissons Ratio (x) = 0.51351 0.27836
# Poissons Ratio (y) = 0.75372 0.02799
# Poissons Ratio (z) = 0.26958 0.01847
#
# Static dielectric constant tensor:
#      x y z
#    x 1.671440 0.000000 0.000000 
#    y 0.000000 1.719420 0.000000 
#    z 0.000000 0.000000 1.702270 
# 
# From -- ./inp_files/26747.got.cif
#   From: 2010.05.17/outbox.cif.g08.bks.cpg/sg23_14_cif.got.tgz:26747.got - 2010.06.04 12:02:01.
