data_PCOD9331091
_publ_section_title
;
Structure prediction by ZEFSAII (Michael W. Deem and Ramdas Pophale) SiO2 
 PCOD9331091
Probable space group: I 2 2 2
;
_chemical_formula_sum "Si O2"
_cell_formula_units_Z 34
_cell_length_a 12.125824
_cell_length_b 8.767322
_cell_length_c 16.470440
_cell_angle_alpha 90.000000
_cell_angle_beta 90.000000
_cell_angle_gamma 90.000000
_cell_volume 1750.989005
_symmetry_space_group_name_H-M "I 2 2 2"
_symmetry_group_IT_number 23
_symmetry_cell_setting 'orthorhombic'
loop_
_space_group_symop_operation_xyz
x,y,z
-x,-y,z
x,-y,-z
-x,y,-z
1/2+x,1/2+y,1/2+z
1/2-x,1/2-y,1/2+z
1/2+x,1/2-y,1/2-z
1/2-x,1/2+y,1/2-z
loop_
_atom_site_type_symbol
_atom_site_label
_atom_site_fract_x
_atom_site_fract_y
_atom_site_fract_z
Si Si1 0.791810 0.631154 0.059658
Si Si2 0.126804 0.043020 0.320285
Si Si3 0.687858 0.823715 0.918821
Si Si4 0.000000 0.500000 0.500000
Si Si5 0.879433 0.057602 0.873702
O O1 0.714934 0.560173 0.130395
O O2 0.864724 0.766500 0.098543
O O3 0.844424 0.500000 0.000000
O O4 0.715112 0.717301 0.995179
O O5 0.164116 0.213636 0.343795
O O6 0.131024 0.034986 0.223269
O O7 0.000000 0.000000 0.344726
O O8 0.784590 0.946904 0.908506
O O9 0.576418 0.905086 0.941316
O O10 0.000000 0.000000 0.898792
#
# Coordination Sequence:
#
# PCOD9331091 Si02
#       5
#     8   8   8   2   8
#     4  10  21  40  63  92 125 161 214 264 310 370
#     4  10  22  39  64  93 130 165 207 268 320 376
#     4  11  22  38  63  93 123 164 209 263 315 376
#     4  12  20  36  64  92 116 152 212 262 320 356
#     4  11  23  42  63  90 130 175 210 256 320 382
#
# _framework density 19.417596
#
# number of rings (size 3 to 8) (size 9 to 14) (size 15 to 20)
#    0.000    1.412    2.353    2.824    0.000    5.176 
#    0.000    8.235    0.000    0.000    0.000    0.000 
#    0.000    0.000    0.000    0.000    0.000    0.000 
#
# Total GULP energy -94807.976734 kJ/mol
# GULP energy per Si atom -5576.939808 kJ/mol
# Density = 1.937340 g / cm^3
# Si number density = 19.417596 Si / 1000 Ang^3
#
#
#
# Elastic Constant Matrix: (Units=GPa)
#
#
# Indices 1 2 3 4 5 6 
#
# 1 119.8704 73.8719 36.3726 0.0000 0.0000 0.0000
# 2 73.8719 141.6793 41.9997 0.0000 0.0000 0.0000
# 3 36.3726 41.9997 94.6264 0.0000 0.0000 0.0000
# 4 0.0000 0.0000 0.0000 38.6148 0.0000 0.0000
# 5 0.0000 0.0000 0.0000 0.0000 24.1978 0.0000
# 6 0.0000 0.0000 0.0000 0.0000 0.0000 -11.4362
#
#
#
# Elastic Compliance Matrix: (Units=1/GPa)
#
#
# Indices 1 2 3 4 5 6 
#
# 1 0.012690 -0.005954 -0.002235 0.000000 0.000000 0.000000
# 2 -0.005954 0.010921 -0.002559 0.000000 0.000000 0.000000
# 3 -0.002235 -0.002559 0.012563 0.000000 0.000000 0.000000
# 4 0.000000 0.000000 0.000000 0.025897 0.000000 0.000000
# 5 0.000000 0.000000 0.000000 0.000000 0.041326 0.000000
# 6 0.000000 0.000000 0.000000 0.000000 0.000000 -0.087442
#
#
# Mechanical properties :
#
#
# Convention : Reuss Voigt Hill
#
# Bulk Modulus (GPa) = 68.12871 73.40717 70.76794
# Shear Modulus (GPa) = 118.08455 23.87074 70.97765
#
# Velocity S-wave (km/s) = 7.80674 3.50999 6.05249
# Velocity P-wave (km/s) = 10.78993 7.36975 9.23947
#
# Compressibility (1/GPa) = 0.01467810
#
# Stress axis : x y z
#
# Youngs Moduli (GPa) = 78.80405 91.56607 79.60085
#
# Poissons Ratio (x) = 0.54517 0.17791
# Poissons Ratio (y) = 0.46919 0.20368
# Poissons Ratio (z) = 0.17613 0.23429
#
# Static dielectric constant tensor:
#      x y z
#    x 1.647850 0.000000 0.000000 
#    y 0.000000 1.712770 0.000000 
#    z 0.000000 0.000000 1.715870 
# 
# From -- ./inp_files/7956.got.cif
#   From: 2010.05.17/outbox.cif.g08.bks.cpg/sg23_4_cif.got.tgz:7956.got - 2010.06.04 12:02:01.
