data_PCOD9331805
_publ_section_title
;
Structure prediction by ZEFSAII (Michael W. Deem and Ramdas Pophale) SiO2 
 PCOD9331805
Probable space group: I 2 2 2
;
_chemical_formula_sum "Si O2"
_cell_formula_units_Z 46
_cell_length_a 8.602441
_cell_length_b 19.027136
_cell_length_c 14.604265
_cell_angle_alpha 90.000000
_cell_angle_beta 90.000000
_cell_angle_gamma 90.000000
_cell_volume 2390.423391
_symmetry_space_group_name_H-M "I 2 2 2"
_symmetry_group_IT_number 23
_symmetry_cell_setting 'orthorhombic'
loop_
_space_group_symop_operation_xyz
x,y,z
-x,-y,z
x,-y,-z
-x,y,-z
1/2+x,1/2+y,1/2+z
1/2-x,1/2-y,1/2+z
1/2+x,1/2-y,1/2-z
1/2-x,1/2+y,1/2-z
loop_
_atom_site_type_symbol
_atom_site_label
_atom_site_fract_x
_atom_site_fract_y
_atom_site_fract_z
Si Si1 0.000000 0.000000 0.000000
Si Si2 0.484024 0.332278 0.800767
Si Si3 0.000000 0.170454 0.500000
Si Si4 0.847006 0.117402 0.124677
Si Si5 0.333848 0.751671 0.491852
Si Si6 0.295602 0.197506 0.192109
Si Si7 0.005909 0.583461 0.608350
O O1 0.102803 0.050939 0.936689
O O2 0.510899 0.365658 0.900696
O O3 0.549443 0.375943 0.715194
O O4 0.575803 0.257973 0.798575
O O5 0.304252 0.315710 0.782008
O O6 0.163376 0.213782 0.492071
O O7 0.667498 0.109000 0.150250
O O8 0.852743 0.186152 0.060590
O O9 0.500000 0.792175 0.500000
O O10 0.318577 0.724227 0.387887
O O11 0.369647 0.125424 0.157065
O O12 0.000000 0.500000 0.616393
O O13 0.000000 0.601549 0.500000
#
# Coordination Sequence:
#
# PCOD9331805 Si02
#       7
#     2   8   4   8   8   8   8
#     4  12  24  36  66  90 128 152 196 244 324 396
#     4  11  23  37  60  83 126 162 216 257 309 364
#     4  10  24  40  58  88 122 170 210 264 298 364
#     4  12  22  38  57  92 124 163 202 248 316 388
#     4  11  19  35  58  86 127 163 201 252 313 367
#     4  11  21  36  57  88 122 169 204 254 313 376
#     4  11  23  36  59  91 132 163 194 252 322 386
#
# _framework density 19.243452999999999
#
# number of rings (size 3 to 8) (size 9 to 14) (size 15 to 20)
#    0.000    0.870    4.348    5.217    3.652    0.000 
#    0.000    0.000    0.000    0.522    0.000    1.217 
#    0.000    0.000    0.000    0.000    0.000    0.000 
#
# Total GULP energy -128397.956478 kJ/mol
# GULP energy per Si atom -5582.519847 kJ/mol
# Density = 1.919965 g / cm^3
# Si number density = 19.243453 Si / 1000 Ang^3
#
#
#
# Elastic Constant Matrix: (Units=GPa)
#
#
# Indices 1 2 3 4 5 6 
#
# 1 113.1002 15.1484 14.1620 0.0000 0.0000 0.0000
# 2 15.1484 35.7551 23.8392 0.0000 0.0000 0.0000
# 3 14.1620 23.8392 113.9520 0.0000 0.0000 0.0000
# 4 0.0000 0.0000 0.0000 14.5517 0.0000 0.0000
# 5 0.0000 0.0000 0.0000 0.0000 39.5526 0.0000
# 6 0.0000 0.0000 0.0000 0.0000 0.0000 5.4538
#
#
#
# Elastic Compliance Matrix: (Units=1/GPa)
#
#
# Indices 1 2 3 4 5 6 
#
# 1 0.009388 -0.003718 -0.000389 0.000000 0.000000 0.000000
# 2 -0.003718 0.033974 -0.006645 0.000000 0.000000 0.000000
# 3 -0.000389 -0.006645 0.010214 0.000000 0.000000 0.000000
# 4 0.000000 0.000000 0.000000 0.068720 0.000000 0.000000
# 5 0.000000 0.000000 0.000000 0.000000 0.025283 0.000000
# 6 0.000000 0.000000 0.000000 0.000000 0.000000 0.183359
#
#
# Mechanical properties :
#
#
# Convention : Reuss Voigt Hill
#
# Bulk Modulus (GPa) = 31.18030 41.01182 36.09606
# Shear Modulus (GPa) = 13.76899 25.88879 19.82889
#
# Velocity S-wave (km/s) = 2.67781 3.67185 3.21350
# Velocity P-wave (km/s) = 5.07929 6.27176 5.70676
#
# Compressibility (1/GPa) = 0.03207153
#
# Stress axis : x y z
#
# Youngs Moduli (GPa) = 106.51395 29.43415 97.90287
#
# Poissons Ratio (x) = 0.10945 0.03808
# Poissons Ratio (y) = 0.39605 0.65060
# Poissons Ratio (z) = 0.04143 0.19560
#
# Static dielectric constant tensor:
#      x y z
#    x 1.744680 0.000000 0.000000 
#    y 0.000000 1.647830 0.000000 
#    z 0.000000 0.000000 1.705440 
# 
# From -- ./inp_files/9879.got.cif
#   From: 2010.05.17/outbox.cif.g08.bks.cpg/sg23_5_cif.got.tgz:9879.got - 2010.06.04 12:02:01.
