data_PCOD9331735
_publ_section_title
;
Structure prediction by ZEFSAII (Michael W. Deem and Ramdas Pophale) SiO2 
 PCOD9331735
Probable space group: I 2 2 2
;
_chemical_formula_sum "Si O2"
_cell_formula_units_Z 48
_cell_length_a 14.816621
_cell_length_b 13.909012
_cell_length_c 12.296844
_cell_angle_alpha 90.000000
_cell_angle_beta 90.000000
_cell_angle_gamma 90.000000
_cell_volume 2534.189676
_symmetry_space_group_name_H-M "I 2 2 2"
_symmetry_group_IT_number 23
_symmetry_cell_setting 'orthorhombic'
loop_
_space_group_symop_operation_xyz
x,y,z
-x,-y,z
x,-y,-z
-x,y,-z
1/2+x,1/2+y,1/2+z
1/2-x,1/2-y,1/2+z
1/2+x,1/2-y,1/2-z
1/2-x,1/2+y,1/2-z
loop_
_atom_site_type_symbol
_atom_site_label
_atom_site_fract_x
_atom_site_fract_y
_atom_site_fract_z
Si Si1 0.242430 0.282893 0.879105
Si Si2 0.543099 0.896279 0.762798
Si Si3 0.676931 0.101076 0.039863
Si Si4 0.896346 0.389609 0.967235
Si Si5 0.607890 0.613312 0.008325
Si Si6 0.127167 0.277500 0.670716
O O1 0.252526 0.170299 0.902006
O O2 0.204431 0.297361 0.759020
O O3 0.171436 0.325890 0.964334
O O4 0.337429 0.332436 0.912125
O O5 0.596095 0.911225 0.874523
O O6 0.608547 0.873588 0.661908
O O7 0.467234 0.814196 0.777462
O O8 0.500000 0.000000 0.733632
O O9 0.640801 0.155878 0.934195
O O10 0.713461 0.000000 0.000000
O O11 0.877689 0.500000 0.000000
O O12 0.000000 0.369719 0.000000
O O13 0.630948 0.669915 0.120533
O O14 0.630320 0.500000 0.000000
O O15 0.500000 0.623713 0.000000
#
# Coordination Sequence:
#
# PCOD9331735 Si02
#       6
#     8   8   8   8   8   8
#     4  11  24  41  65  95 132 170 215 273 323 394
#     4  12  21  37  67  96 134 168 212 273 333 380
#     4  11  25  38  61  93 132 173 212 266 331 387
#     4  11  21  39  62 103 135 170 216 269 329 389
#     4  10  23  44  66  91 129 172 221 262 317 395
#     4  11  22  39  62  96 126 163 216 266 333 380
#
# _framework density 18.940964999999998
#
# number of rings (size 3 to 8) (size 9 to 14) (size 15 to 20)
#    0.000    1.000    5.000    3.000    4.667    1.333 
#    0.000    0.000    0.000    0.500    0.000    0.000 
#    0.000    0.000    0.000    0.000    0.000    0.000 
#
# Total GULP energy -134018.831662 kJ/mol
# GULP energy per Si atom -5584.117986 kJ/mol
# Density = 1.889785 g / cm^3
# Si number density = 18.940965 Si / 1000 Ang^3
#
#
#
# Elastic Constant Matrix: (Units=GPa)
#
#
# Indices 1 2 3 4 5 6 
#
# 1 51.4757 16.2352 16.6004 0.0000 0.0000 0.0000
# 2 16.2352 93.2078 17.6736 0.0000 0.0000 0.0000
# 3 16.6004 17.6736 125.0792 0.0000 0.0000 0.0000
# 4 0.0000 0.0000 0.0000 26.6668 0.0000 0.0000
# 5 0.0000 0.0000 0.0000 0.0000 8.8801 0.0000
# 6 0.0000 0.0000 0.0000 0.0000 0.0000 17.8806
#
#
#
# Elastic Compliance Matrix: (Units=1/GPa)
#
#
# Indices 1 2 3 4 5 6 
#
# 1 0.021211 -0.003248 -0.002356 0.000000 0.000000 0.000000
# 2 -0.003248 0.011521 -0.001197 0.000000 0.000000 0.000000
# 3 -0.002356 -0.001197 0.008477 0.000000 0.000000 0.000000
# 4 0.000000 0.000000 0.000000 0.037500 0.000000 0.000000
# 5 0.000000 0.000000 0.000000 0.000000 0.112611 0.000000
# 6 0.000000 0.000000 0.000000 0.000000 0.000000 0.055927
#
#
# Mechanical properties :
#
#
# Convention : Reuss Voigt Hill
#
# Bulk Modulus (GPa) = 36.22243 41.19789 38.71016
# Shear Modulus (GPa) = 18.51504 25.30240 21.90872
#
# Velocity S-wave (km/s) = 3.12991 3.65890 3.40470
# Velocity P-wave (km/s) = 5.67690 6.29666 5.99480
#
# Compressibility (1/GPa) = 0.02760720
#
# Stress axis : x y z
#
# Youngs Moduli (GPa) = 47.14578 86.79519 117.96951
#
# Poissons Ratio (x) = 0.28189 0.27796
# Poissons Ratio (y) = 0.15312 0.14120
# Poissons Ratio (z) = 0.11108 0.10389
#
# Static dielectric constant tensor:
#      x y z
#    x 1.665060 0.000000 0.000000 
#    y 0.000000 1.678020 0.000000 
#    z 0.000000 0.000000 1.664510 
# 
# From -- ./inp_files/16687.got.cif
#   From: 2010.05.17/outbox.cif.g08.bks.cpg/sg23_9_cif.got.tgz:16687.got - 2010.06.04 12:02:01.
