data_PCOD9331206
_publ_section_title
;
Structure prediction by ZEFSAII (Michael W. Deem and Ramdas Pophale) SiO2 
 PCOD9331206
Probable space group: I 2 2 2
;
_chemical_formula_sum "Si O2"
_cell_formula_units_Z 34
_cell_length_a 6.073190
_cell_length_b 23.137472
_cell_length_c 10.645071
_cell_angle_alpha 90.000000
_cell_angle_beta 90.000000
_cell_angle_gamma 90.000000
_cell_volume 1495.826893
_symmetry_space_group_name_H-M "I 2 2 2"
_symmetry_group_IT_number 23
_symmetry_cell_setting 'orthorhombic'
loop_
_space_group_symop_operation_xyz
x,y,z
-x,-y,z
x,-y,-z
-x,y,-z
1/2+x,1/2+y,1/2+z
1/2-x,1/2-y,1/2+z
1/2+x,1/2-y,1/2-z
1/2-x,1/2+y,1/2-z
loop_
_atom_site_type_symbol
_atom_site_label
_atom_site_fract_x
_atom_site_fract_y
_atom_site_fract_z
Si Si1 0.000000 0.500000 0.500000
Si Si2 0.254126 0.333801 0.824763
Si Si3 0.108119 0.401338 0.311325
Si Si4 0.613668 0.703749 0.365353
Si Si5 0.253451 0.580249 0.962615
O O1 0.119874 0.454543 0.407168
O O2 0.474045 0.321457 0.749568
O O3 0.146571 0.270762 0.833335
O O4 0.129211 0.383624 0.745436
O O5 0.260745 0.358309 0.965362
O O6 0.184019 0.340714 0.371425
O O7 0.243979 0.417871 0.186944
O O8 0.500000 0.700453 0.500000
O O9 0.500000 0.557311 0.000000
O O10 0.000000 0.559247 0.000000
#
# Coordination Sequence:
#
# PCOD9331206 Si02
#       5
#     2   8   8   8   8
#     4  12  28  52  76 104 164 222 276 314 400 498
#     4  11  23  41  69 111 150 191 263 326 408 475
#     4  11  24  47  69 105 153 206 262 327 388 485
#     4  12  23  38  68 108 150 198 250 330 412 471
#     4  10  21  42  76 104 148 193 257 325 392 466
#
# _framework density 22.729903
#
# number of rings (size 3 to 8) (size 9 to 14) (size 15 to 20)
#    0.000    0.941    4.706    3.529    0.000    0.000 
#    2.118   10.588    0.000    5.647    0.000    0.000 
#    0.000    0.000    0.000    0.000    0.000    0.000 
#
# Total GULP energy -94655.433100 kJ/mol
# GULP energy per Si atom -5567.966653 kJ/mol
# Density = 2.267817 g / cm^3
# Si number density = 22.729903 Si / 1000 Ang^3
#
#
#
# Elastic Constant Matrix: (Units=GPa)
#
#
# Indices 1 2 3 4 5 6 
#
# 1 100.2749 39.5556 36.5447 0.0000 0.0000 -0.0052
# 2 39.5556 143.7532 60.7831 0.0000 0.0000 0.0231
# 3 36.5447 60.7831 155.2000 0.0000 0.0000 0.0378
# 4 0.0000 0.0000 0.0000 34.5451 0.0000 0.0267
# 5 0.0000 0.0000 0.0000 0.0000 23.7715 0.0004
# 6 -0.0052 0.0231 0.0378 0.0267 0.0004**********
#
#
#
# Elastic Compliance Matrix: (Units=1/GPa)
#
#
# Indices 1 2 3 4 5 6 
#
# 1 0.011580 -0.002437 -0.001772 0.000000 0.000000 0.000000
# 2 -0.002437 0.008850 -0.002892 0.000000 0.000000 0.000000
# 3 -0.001772 -0.002892 0.007993 0.000000 0.000000 0.000000
# 4 0.000000 0.000000 0.000000 0.028948 0.000000 0.000000
# 5 0.000000 0.000000 0.000000 0.000000 0.042067 0.000000
# 6 0.000000 0.000000 0.000000 0.000000 0.000000 -0.000053
#
#
# Mechanical properties :
#
#
# Convention : Reuss Voigt Hill
#
# Bulk Modulus (GPa) = 70.32267 74.77722 72.54995
# Shear Modulus (GPa) = 42.25552 -3757.52444 -1857.63446
#
# Velocity S-wave (km/s) = 4.31632 -40.70268 -28.61885
# Velocity P-wave (km/s) = 7.47305 46.64734 32.55863
#
# Compressibility (1/GPa) = 0.01422017
#
# Stress axis : x y z
#
# Youngs Moduli (GPa) = 86.35739 112.99662 125.10477
#
# Poissons Ratio (x) = 0.27537 0.22172
# Poissons Ratio (y) = 0.21045 0.36182
# Poissons Ratio (z) = 0.15305 0.32680
#
# Static dielectric constant tensor:
#      x y z
#    x 1.982440 0.000000 0.000000 
#    y 0.000000 1.829500 0.000000 
#    z 0.000000 0.000000 2.036570 
# 
# From -- ./inp_files/13844.got.cif
#   From: 2010.05.17/outbox.cif.g08.bks.cpg/sg23_7_cif.got.tgz:13844.got - 2010.06.04 12:02:01.
