data_PCOD9331163
_publ_section_title
;
Structure prediction by ZEFSAII (Michael W. Deem and Ramdas Pophale) SiO2 
 PCOD9331163
Probable space group: I 2 2 2
;
_chemical_formula_sum "Si O2"
_cell_formula_units_Z 56
_cell_length_a 14.971700
_cell_length_b 21.025943
_cell_length_c 8.468544
_cell_angle_alpha 90.000000
_cell_angle_beta 90.000000
_cell_angle_gamma 90.000000
_cell_volume 2665.847778
_symmetry_space_group_name_H-M "I 2 2 2"
_symmetry_group_IT_number 23
_symmetry_cell_setting 'orthorhombic'
loop_
_space_group_symop_operation_xyz
x,y,z
-x,-y,z
x,-y,-z
-x,y,-z
1/2+x,1/2+y,1/2+z
1/2-x,1/2-y,1/2+z
1/2+x,1/2-y,1/2-z
1/2-x,1/2+y,1/2-z
loop_
_atom_site_type_symbol
_atom_site_label
_atom_site_fract_x
_atom_site_fract_y
_atom_site_fract_z
Si Si1 0.639973 0.739051 0.730082
Si Si2 0.598775 0.097705 0.800729
Si Si3 0.163776 0.277527 0.863972
Si Si4 0.029607 0.827540 0.181319
Si Si5 0.395955 0.878262 0.165734
Si Si6 0.091068 0.971718 0.178758
Si Si7 0.784286 0.516752 0.182516
O O1 0.734479 0.724782 0.808341
O O2 0.657851 0.754947 0.545402
O O3 0.566199 0.684426 0.762970
O O4 0.599447 0.804421 0.794491
O O5 0.626354 0.152660 0.677058
O O6 0.491934 0.090654 0.797154
O O7 0.652144 0.033662 0.768900
O O8 0.622912 0.117097 0.979634
O O9 0.100844 0.226505 0.773603
O O10 0.075009 0.896131 0.185127
O O11 0.000000 0.817337 0.000000
O O12 0.320915 0.914174 0.267019
O O13 0.182237 0.989488 0.263667
O O14 0.000000 0.000000 0.249667
O O15 0.096906 0.000000 0.000000
O O16 0.791820 0.500000 0.000000
#
# Coordination Sequence:
#
# PCOD9331163 Si02
#       7
#     8   8   8   8   8   8   8
#     4  11  23  40  67  95 139 179 229 281 341 410
#     4  11  24  42  70  99 135 178 230 282 348 411
#     4  11  23  39  65  97 136 178 230 278 340 406
#     4  10  21  41  66  99 130 179 224 274 332 400
#     4  11  23  45  67 100 136 177 228 286 347 412
#     4  11  23  43  73  98 134 181 235 276 334 401
#     4  12  27  43  69 101 139 180 228 285 349 415
#
# _framework density 21.006450000000001
#
# number of rings (size 3 to 8) (size 9 to 14) (size 15 to 20)
#    0.000    1.000    2.857    4.286    2.000    4.857 
#    0.000    0.000    6.286    0.000    0.000    0.000 
#    0.000    0.000    0.000    0.000    0.000    0.000 
#
# Total GULP energy -156485.095149 kJ/mol
# GULP energy per Si atom -5588.753398 kJ/mol
# Density = 2.095864 g / cm^3
# Si number density = 21.006450 Si / 1000 Ang^3
#
#
#
# Elastic Constant Matrix: (Units=GPa)
#
#
# Indices 1 2 3 4 5 6 
#
# 1 71.8533 -3.0529 20.4056 0.0000 0.0000 0.0000
# 2 -3.0529 63.3334 -10.3368 0.0000 0.0000 0.0000
# 3 20.4056 -10.3368 65.6073 0.0000 0.0000 0.0000
# 4 0.0000 0.0000 0.0000 22.6744 0.0000 0.0000
# 5 0.0000 0.0000 0.0000 0.0000 -38.1121 0.0000
# 6 0.0000 0.0000 0.0000 0.0000 0.0000 12.0230
#
#
#
# Elastic Compliance Matrix: (Units=1/GPa)
#
#
# Indices 1 2 3 4 5 6 
#
# 1 0.015266 -0.000040 -0.004754 0.000000 0.000000 0.000000
# 2 -0.000040 0.016206 0.002566 0.000000 0.000000 0.000000
# 3 -0.004754 0.002566 0.017125 0.000000 0.000000 0.000000
# 4 0.000000 0.000000 0.000000 0.044103 0.000000 0.000000
# 5 0.000000 0.000000 0.000000 0.000000 -0.026238 0.000000
# 6 0.000000 0.000000 0.000000 0.000000 0.000000 0.083174
#
#
# Mechanical properties :
#
#
# Convention : Reuss Voigt Hill
#
# Bulk Modulus (GPa) = 22.65517 23.86954 23.26235
# Shear Modulus (GPa) = 29.61985 12.23560 20.92773
#
# Velocity S-wave (km/s) = 3.75912 2.41606 3.15977
# Velocity P-wave (km/s) = 5.44514 4.37844 4.94066
#
# Compressibility (1/GPa) = 0.04414004
#
# Stress axis : x y z
#
# Youngs Moduli (GPa) = 65.50622 61.70434 58.39343
#
# Poissons Ratio (x) = 0.00248 0.27762
# Poissons Ratio (y) = 0.00263 -0.14983
# Poissons Ratio (z) = 0.31144 -0.15833
#
# Static dielectric constant tensor:
#      x y z
#    x 1.742780 0.000000 0.000000 
#    y 0.000000 1.802930 0.000000 
#    z 0.000000 0.000000 1.830060 
# 
# From -- ./inp_files/10207.got.cif
#   From: 2010.05.17/outbox.cif.g08.bks.cpg/sg23_6_cif.got.tgz:10207.got - 2010.06.04 12:02:01.
