data_PCOD9331485
_publ_section_title
;
Structure prediction by ZEFSAII (Michael W. Deem and Ramdas Pophale) SiO2 
 PCOD9331485
Probable space group: I 2 2 2
;
_chemical_formula_sum "Si O2"
_cell_formula_units_Z 60
_cell_length_a 11.227120
_cell_length_b 20.312792
_cell_length_c 11.399898
_cell_angle_alpha 90.000000
_cell_angle_beta 90.000000
_cell_angle_gamma 90.000000
_cell_volume 2599.794086
_symmetry_space_group_name_H-M "I 2 2 2"
_symmetry_group_IT_number 23
_symmetry_cell_setting 'orthorhombic'
loop_
_space_group_symop_operation_xyz
x,y,z
-x,-y,z
x,-y,-z
-x,y,-z
1/2+x,1/2+y,1/2+z
1/2-x,1/2-y,1/2+z
1/2+x,1/2-y,1/2-z
1/2-x,1/2+y,1/2-z
loop_
_atom_site_type_symbol
_atom_site_label
_atom_site_fract_x
_atom_site_fract_y
_atom_site_fract_z
Si Si1 0.894150 0.371617 0.119129
Si Si2 0.245509 0.143010 0.605433
Si Si3 0.745284 0.468052 0.698150
Si Si4 0.365724 0.376152 0.484860
Si Si5 0.154107 0.897131 0.761161
Si Si6 0.586489 0.691706 0.915882
Si Si7 0.500000 0.000000 0.725670
Si Si8 0.681303 0.739716 0.310768
O O1 0.768766 0.394094 0.177305
O O2 0.910210 0.301688 0.186657
O O3 0.139329 0.355425 0.017389
O O4 0.977612 0.433911 0.147968
O O5 0.243927 0.080769 0.690379
O O6 0.136414 0.142219 0.515113
O O7 0.219678 0.205906 0.688825
O O8 0.715058 0.428273 0.581933
O O9 0.647870 0.525669 0.713232
O O10 0.880857 0.493367 0.697669
O O11 0.500000 0.401493 0.500000
O O12 0.319963 0.362682 0.615222
O O13 0.369320 0.313407 0.401005
O O14 0.053408 0.854689 0.694675
O O15 0.694763 0.735149 0.868010
O O16 0.500000 0.733139 0.000000
#
# Coordination Sequence:
#
# PCOD9331485 Si02
#       8
#     8   8   8   8   8   8   4   8
#     4   9  21  39  67  98 138 184 219 301 346 439
#     4   9  20  40  60  95 137 176 237 284 346 432
#     4  10  22  42  65  97 139 182 231 295 349 441
#     4  11  24  43  65  97 133 181 237 293 348 431
#     4   9  21  39  64  92 131 173 223 279 348 415
#     4  10  23  40  65  96 134 177 219 297 350 428
#     4  10  22  45  67 106 148 186 245 291 388 436
#     4   9  21  42  65  95 138 181 232 292 352 434
#
# _framework density 23.078749999999999
#
# number of rings (size 3 to 8) (size 9 to 14) (size 15 to 20)
#    0.000    2.667    0.000    0.400   11.200    6.933 
#    9.600    6.000    0.000    0.000    0.000    0.000 
#    0.000    0.000    0.000    0.000    0.000    0.000 
#
# Total GULP energy -167177.760754 kJ/mol
# GULP energy per Si atom -5572.592025 kJ/mol
# Density = 2.302622 g / cm^3
# Si number density = 23.078750 Si / 1000 Ang^3
#
#
#
# Elastic Constant Matrix: (Units=GPa)
#
#
# Indices 1 2 3 4 5 6 
#
# 1 65.2440 30.0982 37.5534 0.0000 0.0000 0.0000
# 2 30.0982 117.7097 49.3724 -0.0001 0.0000 0.0000
# 3 37.5534 49.3724 132.2650 -0.0001 0.0000 0.0000
# 4 0.0000 -0.0001 -0.0001 28.7806 0.0000 0.0000
# 5 0.0000 0.0000 0.0000 0.0000 34.1782 0.0000
# 6 0.0000 0.0000 0.0000 0.0000 0.0000 27.8459
#
#
#
# Elastic Compliance Matrix: (Units=1/GPa)
#
#
# Indices 1 2 3 4 5 6 
#
# 1 0.019239 -0.003116 -0.004299 0.000000 0.000000 0.000000
# 2 -0.003116 0.010577 -0.003064 0.000000 0.000000 0.000000
# 3 -0.004299 -0.003064 0.009925 0.000000 0.000000 0.000000
# 4 0.000000 0.000000 0.000000 0.034746 0.000000 0.000000
# 5 0.000000 0.000000 0.000000 0.000000 0.029258 0.000000
# 6 0.000000 0.000000 0.000000 0.000000 0.000000 0.035912
#
#
# Mechanical properties :
#
#
# Convention : Reuss Voigt Hill
#
# Bulk Modulus (GPa) = 53.23878 61.02966 57.13422
# Shear Modulus (GPa) = 29.96229 31.37392 30.66810
#
# Velocity S-wave (km/s) = 3.60705 3.69104 3.64929
# Velocity P-wave (km/s) = 6.36130 6.68330 6.52429
#
# Compressibility (1/GPa) = 0.01878330
#
# Stress axis : x y z
#
# Youngs Moduli (GPa) = 51.97716 94.54241 100.75723
#
# Poissons Ratio (x) = 0.29461 0.43319
# Poissons Ratio (y) = 0.16197 0.30868
# Poissons Ratio (z) = 0.22347 0.28964
#
# Static dielectric constant tensor:
#      x y z
#    x 2.050240 0.000000 0.000000 
#    y 0.000000 1.930660 0.000000 
#    z 0.000000 0.000000 1.888050 
# 
# From -- ./inp_files/15958.got.cif
#   From: 2010.05.17/outbox.cif.g08.bks.cpg/sg23_8_cif.got.tgz:15958.got - 2010.06.04 12:02:01.
