data_PCOD9331363
_publ_section_title
;
Structure prediction by ZEFSAII (Michael W. Deem and Ramdas Pophale) SiO2 
 PCOD9331363
Probable space group: I 2 2 2
;
_chemical_formula_sum "Si O2"
_cell_formula_units_Z 40
_cell_length_a 17.109652
_cell_length_b 6.154443
_cell_length_c 16.902796
_cell_angle_alpha 90.000000
_cell_angle_beta 90.000000
_cell_angle_gamma 90.000000
_cell_volume 1779.870808
_symmetry_space_group_name_H-M "I 2 2 2"
_symmetry_group_IT_number 23
_symmetry_cell_setting 'orthorhombic'
loop_
_space_group_symop_operation_xyz
x,y,z
-x,-y,z
x,-y,-z
-x,y,-z
1/2+x,1/2+y,1/2+z
1/2-x,1/2-y,1/2+z
1/2+x,1/2-y,1/2-z
1/2-x,1/2+y,1/2-z
loop_
_atom_site_type_symbol
_atom_site_label
_atom_site_fract_x
_atom_site_fract_y
_atom_site_fract_z
Si Si1 0.050717 0.310374 0.703950
Si Si2 0.790701 0.766958 0.140633
Si Si3 0.474740 0.250846 0.623815
Si Si4 0.308967 0.110036 0.813431
Si Si5 0.361402 0.501950 0.909067
O O1 0.133331 0.426537 0.720629
O O2 0.075702 0.126100 0.644143
O O3 0.000000 0.500000 0.665243
O O4 0.007448 0.247986 0.785325
O O5 0.880618 0.743146 0.117957
O O6 0.784244 0.734747 0.235316
O O7 0.724783 0.615359 0.101067
O O8 0.760723 0.012915 0.134306
O O9 0.500000 0.500000 0.594307
O O10 0.500000 0.000000 0.595771
O O11 0.354728 0.266988 0.871261
O O12 0.382497 0.500000 0.000000
#
# Coordination Sequence:
#
# PCOD9331363 Si02
#       5
#     8   8   8   8   8
#     4  10  22  39  65  94 138 179 234 287 356 426
#     4  11  22  36  68  98 129 180 238 298 341 432
#     4  11  23  37  65 105 137 174 232 310 360 406
#     4  11  21  38  66  96 129 176 237 290 350 422
#     4  11  26  44  65  98 143 187 231 293 372 444
#
# _framework density 22.47354
#
# number of rings (size 3 to 8) (size 9 to 14) (size 15 to 20)
#    0.000    1.200    6.000    1.200    5.600    3.200 
#    0.000    3.000    0.000    0.600    0.000    0.000 
#    0.000    0.000    0.000    0.000    0.000    0.000 
#
# Total GULP energy -111483.131258 kJ/mol
# GULP energy per Si atom -5574.156563 kJ/mol
# Density = 2.242239 g / cm^3
# Si number density = 22.473540 Si / 1000 Ang^3
#
#
#
# Elastic Constant Matrix: (Units=GPa)
#
#
# Indices 1 2 3 4 5 6 
#
# 1 146.7794 46.2686 -3.3465 0.0000 0.0000 0.0000
# 2 46.2686 118.6013 14.1401 0.0000 0.0000 0.0000
# 3 -3.3465 14.1401 70.5233 0.0000 0.0000 0.0000
# 4 0.0000 0.0000 0.0000 -30.0505 0.0000 0.0000
# 5 0.0000 0.0000 0.0000 0.0000 10.7258 0.0000
# 6 0.0000 0.0000 0.0000 0.0000 0.0000 53.0215
#
#
#
# Elastic Compliance Matrix: (Units=1/GPa)
#
#
# Indices 1 2 3 4 5 6 
#
# 1 0.007838 -0.003178 0.001009 0.000000 0.000000 0.000000
# 2 -0.003178 0.009927 -0.002141 0.000000 0.000000 0.000000
# 3 0.001009 -0.002141 0.014657 0.000000 0.000000 0.000000
# 4 0.000000 0.000000 0.000000 -0.033277 0.000000 0.000000
# 5 0.000000 0.000000 0.000000 0.000000 0.093233 0.000000
# 6 0.000000 0.000000 0.000000 0.000000 0.000000 0.018860
#
#
# Mechanical properties :
#
#
# Convention : Reuss Voigt Hill
#
# Bulk Modulus (GPa) = 42.01445 50.00316 46.00881
# Shear Modulus (GPa) = 39.12642 25.32882 32.22762
#
# Velocity S-wave (km/s) = 4.17706 3.36080 3.79096
# Velocity P-wave (km/s) = 6.48069 6.11212 6.29910
#
# Compressibility (1/GPa) = 0.02380133
#
# Stress axis : x y z
#
# Youngs Moduli (GPa) = 127.58812 100.73878 68.22730
#
# Poissons Ratio (x) = 0.32014 -0.06885
# Poissons Ratio (y) = 0.40547 0.14608
# Poissons Ratio (z) = -0.12875 0.21569
#
# Static dielectric constant tensor:
#      x y z
#    x 1.985910 0.000000 0.000000 
#    y 0.000000 2.012260 0.000000 
#    z 0.000000 0.000000 1.768940 
# 
# From -- ./inp_files/23022.got.cif
#   From: 2010.05.17/outbox.cif.g08.bks.cpg/sg23_12_cif.got.tgz:23022.got - 2010.06.04 12:02:01.
