data_PCOD9331902
_publ_section_title
;
Structure prediction by ZEFSAII (Michael W. Deem and Ramdas Pophale) SiO2 
 PCOD9331902
Probable space group: I 2 2 2
;
_chemical_formula_sum "Si O2"
_cell_formula_units_Z 42
_cell_length_a 5.105324
_cell_length_b 25.049331
_cell_length_c 15.137771
_cell_angle_alpha 90.000000
_cell_angle_beta 90.000000
_cell_angle_gamma 90.000000
_cell_volume 1935.893099
_symmetry_space_group_name_H-M "I 2 2 2"
_symmetry_group_IT_number 23
_symmetry_cell_setting 'orthorhombic'
loop_
_space_group_symop_operation_xyz
x,y,z
-x,-y,z
x,-y,-z
-x,y,-z
1/2+x,1/2+y,1/2+z
1/2-x,1/2-y,1/2+z
1/2+x,1/2-y,1/2-z
1/2-x,1/2+y,1/2-z
loop_
_atom_site_type_symbol
_atom_site_label
_atom_site_fract_x
_atom_site_fract_y
_atom_site_fract_z
Si Si1 0.500000 0.500000 0.851120
Si Si2 0.791105 0.236699 0.635513
Si Si3 0.500000 0.000000 0.225725
Si Si4 0.000000 0.341412 0.000000
Si Si5 0.000000 0.000000 0.000000
Si Si6 0.500000 0.412378 0.000000
Si Si7 0.701122 0.300570 0.337979
Si Si8 0.136911 0.585388 0.407795
O O1 0.749491 0.498747 0.788236
O O2 0.450439 0.450080 0.916123
O O3 0.651082 0.195375 0.570660
O O4 0.593261 0.286546 0.634673
O O5 0.783461 0.210454 0.733018
O O6 0.083464 0.259563 0.619847
O O7 0.474083 0.947552 0.164161
O O8 0.755981 0.378514 0.971931
O O9 0.840438 0.040030 0.938122
O O10 0.760511 0.360728 0.364459
O O11 0.000000 0.600098 0.500000
#
# Coordination Sequence:
#
# PCOD9331902 Si02
#       8
#     4   8   4   4   2   4   8   8
#     4  11  27  46  72 100 140 182 237 289 342 432
#     4  10  24  46  65 104 135 172 242 290 337 430
#     4  12  25  47  70 104 138 184 240 283 347 422
#     4  12  24  42  74  98 142 178 224 294 366 406
#     4  12  24  50  62 110 156 174 252 284 344 442
#     4  11  26  46  68 106 138 180 234 289 356 418
#     4  10  25  44  70  97 137 183 231 288 348 415
#     4  12  27  44  71 103 143 191 228 292 349 418
#
# _framework density 21.695414
#
# number of rings (size 3 to 8) (size 9 to 14) (size 15 to 20)
#    0.000    0.952    1.905    2.857   10.667    1.524 
#    0.000    0.000    0.000    0.000    0.000    0.000 
#    0.000    0.000    0.000    0.000    0.000    0.000 
#
# Total GULP energy -117371.756178 kJ/mol
# GULP energy per Si atom -5589.131247 kJ/mol
# Density = 2.164603 g / cm^3
# Si number density = 21.695414 Si / 1000 Ang^3
#
#
#
# Elastic Constant Matrix: (Units=GPa)
#
#
# Indices 1 2 3 4 5 6 
#
# 1 91.6068 1.2946 18.3438 0.0000 0.0000 0.0000
# 2 1.2946 108.6331 23.9560 0.0000 0.0000 0.0000
# 3 18.3438 23.9560 71.9588 0.0000 0.0000 0.0000
# 4 0.0000 0.0000 0.0000 15.0865 0.0000 0.0000
# 5 0.0000 0.0000 0.0000 0.0000 29.8804 0.0000
# 6 0.0000 0.0000 0.0000 0.0000 0.0000 58.7571
#
#
#
# Elastic Compliance Matrix: (Units=1/GPa)
#
#
# Indices 1 2 3 4 5 6 
#
# 1 0.011534 0.000551 -0.003124 0.000000 0.000000 0.000000
# 2 0.000551 0.009961 -0.003457 0.000000 0.000000 0.000000
# 3 -0.003124 -0.003457 0.015844 0.000000 0.000000 0.000000
# 4 0.000000 0.000000 0.000000 0.066284 0.000000 0.000000
# 5 0.000000 0.000000 0.000000 0.000000 0.033467 0.000000
# 6 0.000000 0.000000 0.000000 0.000000 0.000000 0.017019
#
#
# Mechanical properties :
#
#
# Convention : Reuss Voigt Hill
#
# Bulk Modulus (GPa) = 39.55590 39.93195 39.74392
# Shear Modulus (GPa) = 28.63781 35.98508 32.31145
#
# Velocity S-wave (km/s) = 3.63711 4.07707 3.86336
# Velocity P-wave (km/s) = 5.99250 6.37252 6.18543
#
# Compressibility (1/GPa) = 0.02528068
#
# Stress axis : x y z
#
# Youngs Moduli (GPa) = 86.70046 100.39141 63.11555
#
# Poissons Ratio (x) = -0.05536 0.19716
# Poissons Ratio (y) = -0.04781 0.21817
# Poissons Ratio (z) = 0.27084 0.34702
#
# Static dielectric constant tensor:
#      x y z
#    x 1.820290 0.000000 0.000000 
#    y 0.000000 1.820830 0.000000 
#    z 0.000000 0.000000 1.813120 
# 
# From -- ./inp_files/23179.got.cif
#   From: 2010.05.17/outbox.cif.g08.bks.cpg/sg23_12_cif.got.tgz:23179.got - 2010.06.04 12:02:01.
