data_PCOD9331549
_publ_section_title
;
Structure prediction by ZEFSAII (Michael W. Deem and Ramdas Pophale) SiO2 
 PCOD9331549
Probable space group: I 2 2 2
;
_chemical_formula_sum "Si O2"
_cell_formula_units_Z 48
_cell_length_a 9.705772
_cell_length_b 15.662748
_cell_length_c 15.612574
_cell_angle_alpha 90.000000
_cell_angle_beta 90.000000
_cell_angle_gamma 90.000000
_cell_volume 2373.408839
_symmetry_space_group_name_H-M "I 2 2 2"
_symmetry_group_IT_number 23
_symmetry_cell_setting 'orthorhombic'
loop_
_space_group_symop_operation_xyz
x,y,z
-x,-y,z
x,-y,-z
-x,y,-z
1/2+x,1/2+y,1/2+z
1/2-x,1/2-y,1/2+z
1/2+x,1/2-y,1/2-z
1/2-x,1/2+y,1/2-z
loop_
_atom_site_type_symbol
_atom_site_label
_atom_site_fract_x
_atom_site_fract_y
_atom_site_fract_z
Si Si1 0.500000 0.000000 0.835682
Si Si2 0.000000 0.000000 0.500000
Si Si3 0.263052 0.175892 0.719592
Si Si4 0.437410 0.181231 0.247795
Si Si5 0.270013 0.593063 0.609079
Si Si6 0.762116 0.580178 0.050766
Si Si7 0.138175 0.268077 0.942447
Si Si8 0.500000 0.500000 0.500000
O O1 0.440669 0.918375 0.781361
O O2 0.628554 0.960529 0.888557
O O3 0.897328 0.054346 0.442089
O O4 0.404281 0.210709 0.760731
O O5 0.165285 0.255414 0.696723
O O6 0.195896 0.116638 0.792277
O O7 0.308771 0.114382 0.642161
O O8 0.399265 0.199322 0.347072
O O9 0.267264 0.684778 0.563361
O O10 0.396485 0.548871 0.562638
O O11 0.828856 0.500000 0.000000
O O12 0.779122 0.658002 0.987698
O O13 0.000000 0.252737 0.000000
#
# Coordination Sequence:
#
# PCOD9331549 Si02
#       8
#     4   2   8   8   8   8   8   2
#     4  10  24  43  63 108 140 176 232 284 355 407
#     4   8  24  38  50 100 128 176 216 262 362 392
#     4  10  22  44  65 101 136 182 229 281 358 404
#     4  10  23  39  68 101 138 182 226 282 350 409
#     4  10  25  42  66 100 135 178 234 286 347 411
#     4  10  23  41  67  99 139 179 228 283 343 418
#     4  11  21  40  71 100 134 179 233 284 339 411
#     4  12  24  48  72  92 124 178 248 292 338 410
#
# _framework density 20.224074999999999
#
# number of rings (size 3 to 8) (size 9 to 14) (size 15 to 20)
#    0.500    1.333    2.500    0.000    4.667    9.333 
#    0.000    1.667    0.000    0.000    0.000    0.000 
#    0.000    0.000    0.000    0.000    0.000    0.000 
#
# Total GULP energy -133621.372560 kJ/mol
# GULP energy per Si atom -5567.557190 kJ/mol
# Density = 2.017804 g / cm^3
# Si number density = 20.224075 Si / 1000 Ang^3
#
#
#
# Elastic Constant Matrix: (Units=GPa)
#
#
# Indices 1 2 3 4 5 6 
#
# 1 111.4696 74.2031 15.6109 0.0000 0.0000 0.0000
# 2 74.2031 158.3177 51.3808 0.0000 0.0000 0.0000
# 3 15.6109 51.3808 72.8313 0.0000 0.0000 0.0000
# 4 0.0000 0.0000 0.0000 25.6960 0.0000 0.0000
# 5 0.0000 0.0000 0.0000 0.0000 21.8250 0.0000
# 6 0.0000 0.0000 0.0000 0.0000 0.0000 42.5579
#
#
#
# Elastic Compliance Matrix: (Units=1/GPa)
#
#
# Indices 1 2 3 4 5 6 
#
# 1 0.013260 -0.006864 0.002000 0.000000 0.000000 0.000000
# 2 -0.006864 0.011745 -0.006815 0.000000 0.000000 0.000000
# 3 0.002000 -0.006815 0.018109 0.000000 0.000000 0.000000
# 4 0.000000 0.000000 0.000000 0.038916 0.000000 0.000000
# 5 0.000000 0.000000 0.000000 0.000000 0.045819 0.000000
# 6 0.000000 0.000000 0.000000 0.000000 0.000000 0.023497
#
#
# Mechanical properties :
#
#
# Convention : Reuss Voigt Hill
#
# Bulk Modulus (GPa) = 50.61368 69.44537 60.02952
# Shear Modulus (GPa) = 27.57995 31.44405 29.51200
#
# Velocity S-wave (km/s) = 3.69686 3.94735 3.82416
# Velocity P-wave (km/s) = 6.58051 7.42886 7.01752
#
# Compressibility (1/GPa) = 0.01975751
#
# Stress axis : x y z
#
# Youngs Moduli (GPa) = 75.41299 85.14006 55.22035
#
# Poissons Ratio (x) = 0.58442 -0.11046
# Poissons Ratio (y) = 0.51765 0.37631
# Poissons Ratio (z) = -0.15085 0.58021
#
# Static dielectric constant tensor:
#      x y z
#    x 1.713760 0.000000 0.000000 
#    y 0.000000 1.711720 0.000000 
#    z 0.000000 0.000000 1.793510 
# 
# From -- ./inp_files/23783.got.cif
#   From: 2010.05.17/outbox.cif.g08.bks.cpg/sg23_12_cif.got.tgz:23783.got - 2010.06.04 12:02:01.
