data_PCOD9331078
_publ_section_title
;
Structure prediction by ZEFSAII (Michael W. Deem and Ramdas Pophale) SiO2 
 PCOD9331078
Probable space group: I 2 2 2
;
_chemical_formula_sum "Si O2"
_cell_formula_units_Z 58
_cell_length_a 12.108100
_cell_length_b 28.703776
_cell_length_c 8.265512
_cell_angle_alpha 90.000000
_cell_angle_beta 90.000000
_cell_angle_gamma 90.000000
_cell_volume 2872.663737
_symmetry_space_group_name_H-M "I 2 2 2"
_symmetry_group_IT_number 23
_symmetry_cell_setting 'orthorhombic'
loop_
_space_group_symop_operation_xyz
x,y,z
-x,-y,z
x,-y,-z
-x,y,-z
1/2+x,1/2+y,1/2+z
1/2-x,1/2-y,1/2+z
1/2+x,1/2-y,1/2-z
1/2-x,1/2+y,1/2-z
loop_
_atom_site_type_symbol
_atom_site_label
_atom_site_fract_x
_atom_site_fract_y
_atom_site_fract_z
Si Si1 0.500000 0.000000 0.000000
Si Si2 0.373130 0.396884 0.556846
Si Si3 0.395210 0.857481 0.381246
Si Si4 0.692577 0.058237 0.183974
Si Si5 0.714054 0.787705 0.404740
Si Si6 0.878812 0.211124 0.856861
Si Si7 0.013414 0.721727 0.310364
Si Si8 0.877083 0.988257 0.195502
O O1 0.411801 0.967362 0.097619
O O2 0.500000 0.407048 0.500000
O O3 0.274834 0.411341 0.433248
O O4 0.373123 0.342396 0.595207
O O5 0.356168 0.433109 0.704271
O O6 0.500000 0.861772 0.500000
O O7 0.357699 0.905814 0.309753
O O8 0.299739 0.832515 0.483261
O O9 0.431624 0.819866 0.245415
O O10 0.776129 0.019472 0.257072
O O11 0.829707 0.782592 0.322215
O O12 0.683842 0.744091 0.516919
O O13 0.633865 0.794215 0.249528
O O14 0.995591 0.234911 0.814755
O O15 0.000000 0.729590 0.500000
O O16 0.000000 0.000000 0.256119
O O17 0.876432 0.000000 0.000000
#
# Coordination Sequence:
#
# PCOD9331078 Si02
#       8
#     2   8   8   8   8   8   8   8
#     4  12  24  36  60 112 124 152 222 278 312 428
#     4  11  20  36  65  96 124 165 212 267 327 384
#     4   9  22  41  62  88 125 175 215 261 323 391
#     4  11  22  37  64  95 131 160 212 272 328 392
#     4  10  22  40  59  86 133 163 215 258 319 381
#     4  11  23  37  60  93 122 170 213 268 314 389
#     4  10  21  40  59  89 128 169 208 261 317 385
#     4   9  15  36  58  88 125 155 195 261 325 376
#
# _framework density 20.19032
#
# number of rings (size 3 to 8) (size 9 to 14) (size 15 to 20)
#    0.000    1.793    4.828    2.897    6.759    1.103 
#    2.483    0.345    0.000    0.000    0.000    0.966 
#    0.000    0.000    0.000    0.000    0.000    0.000 
#
# Total GULP energy -161518.808487 kJ/mol
# GULP energy per Si atom -5569.614086 kJ/mol
# Density = 2.014437 g / cm^3
# Si number density = 20.190320 Si / 1000 Ang^3
#
#
#
# Elastic Constant Matrix: (Units=GPa)
#
#
# Indices 1 2 3 4 5 6 
#
# 1 85.0072 33.3647 29.5291 -0.0005 0.0000 -0.0006
# 2 33.3647 159.7103 45.6241 -0.0004 -0.0001 -0.0006
# 3 29.5291 45.6241 70.5684 -0.0014 0.0011 -0.0013
# 4 -0.0005 -0.0004 -0.0014 28.2977 0.0005 -0.0003
# 5 0.0000 -0.0001 0.0011 0.0005 12.5569 0.0003
# 6 -0.0006 -0.0006 -0.0013 -0.0003 0.0003 16.8944
#
#
#
# Elastic Compliance Matrix: (Units=1/GPa)
#
#
# Indices 1 2 3 4 5 6 
#
# 1 0.014067 -0.001542 -0.004890 0.000000 0.000000 0.000000
# 2 -0.001542 0.007849 -0.004429 0.000000 0.000000 0.000000
# 3 -0.004890 -0.004429 0.019080 0.000001 -0.000002 0.000001
# 4 0.000000 0.000000 0.000001 0.035339 -0.000001 0.000001
# 5 0.000000 0.000000 -0.000002 -0.000001 0.079638 -0.000001
# 6 0.000000 0.000000 0.000001 0.000001 -0.000001 0.059191
#
#
# Mechanical properties :
#
#
# Convention : Reuss Voigt Hill
#
# Bulk Modulus (GPa) = 51.88066 59.14686 55.51376
# Shear Modulus (GPa) = 20.54990 25.33432 22.94211
#
# Velocity S-wave (km/s) = 3.19377 3.54612 3.37455
# Velocity P-wave (km/s) = 6.27311 6.79153 6.53746
#
# Compressibility (1/GPa) = 0.01927500
#
# Stress axis : x y z
#
# Youngs Moduli (GPa) = 71.08621 127.40898 52.41040
#
# Poissons Ratio (x) = 0.19647 0.25626
# Poissons Ratio (y) = 0.10962 0.23213
# Poissons Ratio (z) = 0.34758 0.56431
#
# Static dielectric constant tensor:
#      x y z
#    x 1.787110 0.000000 0.000000 
#    y 0.000000 1.746980 0.000000 
#    z 0.000000 0.000000 1.714930 
# 
# From -- ./inp_files/8920.got.cif
#   From: 2010.05.17/outbox.cif.g08.bks.cpg/sg23_5_cif.got.tgz:8920.got - 2010.06.04 12:02:01.
