data_PCOD9331143
_publ_section_title
;
Structure prediction by ZEFSAII (Michael W. Deem and Ramdas Pophale) SiO2 
 PCOD9331143
Probable space group: I 2 2 2
;
_chemical_formula_sum "Si O2"
_cell_formula_units_Z 48
_cell_length_a 15.437775
_cell_length_b 10.495725
_cell_length_c 15.126204
_cell_angle_alpha 90.000000
_cell_angle_beta 90.000000
_cell_angle_gamma 90.000000
_cell_volume 2450.908530
_symmetry_space_group_name_H-M "I 2 2 2"
_symmetry_group_IT_number 23
_symmetry_cell_setting 'orthorhombic'
loop_
_space_group_symop_operation_xyz
x,y,z
-x,-y,z
x,-y,-z
-x,y,-z
1/2+x,1/2+y,1/2+z
1/2-x,1/2-y,1/2+z
1/2+x,1/2-y,1/2-z
1/2-x,1/2+y,1/2-z
loop_
_atom_site_type_symbol
_atom_site_label
_atom_site_fract_x
_atom_site_fract_y
_atom_site_fract_z
Si Si1 0.882486 0.138227 0.649404
Si Si2 0.920599 0.401798 0.349623
Si Si3 0.000000 0.751896 0.500000
Si Si4 0.885118 0.218307 0.189195
Si Si5 0.000000 0.000000 0.789576
Si Si6 0.695832 0.894455 0.775657
Si Si7 0.806888 0.541935 0.900575
O O1 0.859182 0.274009 0.692635
O O2 0.793853 0.078328 0.613625
O O3 0.947751 0.164193 0.569478
O O4 0.926279 0.053286 0.724127
O O5 0.918971 0.288506 0.278014
O O6 0.833914 0.484061 0.334067
O O7 0.000000 0.500000 0.333964
O O8 0.935117 0.338662 0.444748
O O9 0.956035 0.116210 0.158979
O O10 0.795028 0.146497 0.211035
O O11 0.862284 0.332881 0.123332
O O12 0.676079 0.936152 0.675079
O O13 0.822460 0.500000 0.000000
#
# Coordination Sequence:
#
# PCOD9331143 Si02
#       7
#     8   8   4   8   4   8   8
#     4  11  24  35  62  96 133 165 197 267 339 389
#     4  11  21  38  60  90 133 168 208 263 325 403
#     4  12  23  35  60 106 128 155 207 264 346 384
#     4  10  22  39  62  92 128 177 216 257 335 381
#     4  12  20  41  62  97 130 168 206 264 321 405
#     4  10  21  41  58  87 130 179 212 250 321 394
#     4  10  23  41  64  91 128 172 225 266 309 385
#
# _framework density 19.584575000000001
#
# number of rings (size 3 to 8) (size 9 to 14) (size 15 to 20)
#    0.000    1.333    5.000    0.250    4.667    0.000 
#    0.000    0.000    0.000   20.000    0.000    0.000 
#    0.000    0.000    0.000    0.000    0.000    0.000 
#
# Total GULP energy -134092.694910 kJ/mol
# GULP energy per Si atom -5587.195621 kJ/mol
# Density = 1.954000 g / cm^3
# Si number density = 19.584575 Si / 1000 Ang^3
#
#
#
# Elastic Constant Matrix: (Units=GPa)
#
#
# Indices 1 2 3 4 5 6 
#
# 1 56.0978 23.5017 21.4802 0.0000 0.0000 0.0000
# 2 23.5017 67.1692 24.1258 0.0000 0.0000 0.0000
# 3 21.4802 24.1258 94.0963 0.0000 0.0000 0.0000
# 4 0.0000 0.0000 0.0000 19.3059 0.0000 0.0000
# 5 0.0000 0.0000 0.0000 0.0000 28.8645 0.0000
# 6 0.0000 0.0000 0.0000 0.0000 0.0000 12.6712
#
#
#
# Elastic Compliance Matrix: (Units=1/GPa)
#
#
# Indices 1 2 3 4 5 6 
#
# 1 0.021794 -0.006431 -0.003326 0.000000 0.000000 0.000000
# 2 -0.006431 0.018295 -0.003223 0.000000 0.000000 0.000000
# 3 -0.003326 -0.003223 0.012213 0.000000 0.000000 0.000000
# 4 0.000000 0.000000 0.000000 0.051798 0.000000 0.000000
# 5 0.000000 0.000000 0.000000 0.000000 0.034645 0.000000
# 6 0.000000 0.000000 0.000000 0.000000 0.000000 0.078919
#
#
# Mechanical properties :
#
#
# Convention : Reuss Voigt Hill
#
# Bulk Modulus (GPa) = 37.96130 39.50874 38.73502
# Shear Modulus (GPa) = 19.80951 22.05203 20.93077
#
# Velocity S-wave (km/s) = 3.18384 3.35922 3.27270
# Velocity P-wave (km/s) = 5.73943 5.93826 5.83970
#
# Compressibility (1/GPa) = 0.02634262
#
# Stress axis : x y z
#
# Youngs Moduli (GPa) = 45.88472 54.65869 81.87962
#
# Poissons Ratio (x) = 0.35149 0.27235
# Poissons Ratio (y) = 0.29507 0.26389
# Poissons Ratio (z) = 0.15262 0.17616
#
# Static dielectric constant tensor:
#      x y z
#    x 1.704360 0.000000 0.000000 
#    y 0.000000 1.710470 0.000000 
#    z 0.000000 0.000000 1.640040 
# 
# From -- ./inp_files/9992.got.cif
#   From: 2010.05.17/outbox.cif.g08.bks.cpg/sg23_5_cif.got.tgz:9992.got - 2010.06.04 12:02:01.
