data_PCOD9331628
_publ_section_title
;
Structure prediction by ZEFSAII (Michael W. Deem and Ramdas Pophale) SiO2 
 PCOD9331628
Probable space group: I 2 2 2
;
_chemical_formula_sum "Si O2"
_cell_formula_units_Z 52
_cell_length_a 8.962680
_cell_length_b 19.291843
_cell_length_c 14.434545
_cell_angle_alpha 90.000000
_cell_angle_beta 90.000000
_cell_angle_gamma 90.000000
_cell_volume 2495.828321
_symmetry_space_group_name_H-M "I 2 2 2"
_symmetry_group_IT_number 23
_symmetry_cell_setting 'orthorhombic'
loop_
_space_group_symop_operation_xyz
x,y,z
-x,-y,z
x,-y,-z
-x,y,-z
1/2+x,1/2+y,1/2+z
1/2-x,1/2-y,1/2+z
1/2+x,1/2-y,1/2-z
1/2-x,1/2+y,1/2-z
loop_
_atom_site_type_symbol
_atom_site_label
_atom_site_fract_x
_atom_site_fract_y
_atom_site_fract_z
Si Si1 0.499868 0.207972 0.396613
Si Si2 0.469704 0.127529 0.106831
Si Si3 0.000000 0.856113 0.500000
Si Si4 0.066763 0.923923 0.300685
Si Si5 0.815974 0.759306 0.386353
Si Si6 0.576864 0.070401 0.286798
Si Si7 0.843698 0.831626 0.190505
O O1 0.500000 0.179823 0.500000
O O2 0.355691 0.259061 0.396421
O O3 0.507274 0.140230 0.331854
O O4 0.625834 0.261404 0.366207
O O5 0.559945 0.200155 0.122640
O O6 0.543442 0.075092 0.178083
O O7 0.296808 0.133631 0.138734
O O8 0.500000 0.110372 0.000000
O O9 0.029287 0.896551 0.404768
O O10 0.137034 0.806389 0.526856
O O11 0.245455 0.926371 0.297248
O O12 0.986222 0.879415 0.218776
O O13 0.000000 0.000000 0.292371
O O14 0.807187 0.804420 0.293367
O O15 0.500000 0.000000 0.323989
#
# Coordination Sequence:
#
# PCOD9331628 Si02
#       7
#     8   8   4   8   8   8   8
#     4  12  25  41  68 101 139 172 229 283 340 409
#     4  12  24  43  72 101 140 177 235 287 348 405
#     4  10  23  38  72 100 139 178 232 268 353 414
#     4  11  25  46  69  96 141 187 231 283 346 420
#     4  11  20  39  66 100 135 175 217 280 336 401
#     4  12  27  46  67  98 139 187 231 284 354 410
#     4  11  23  41  69 100 134 180 225 278 345 400
#
# _framework density 20.834765000000001
#
# number of rings (size 3 to 8) (size 9 to 14) (size 15 to 20)
#    0.000    0.615    3.846    3.923    6.462    0.615 
#    2.769    0.000    0.000    3.231    0.000    0.000 
#    0.000    0.000    0.000    0.000    0.000    0.000 
#
# Total GULP energy -144977.929751 kJ/mol
# GULP energy per Si atom -5576.074221 kJ/mol
# Density = 2.078734 g / cm^3
# Si number density = 20.834765 Si / 1000 Ang^3
#
#
#
# Elastic Constant Matrix: (Units=GPa)
#
#
# Indices 1 2 3 4 5 6 
#
# 1 119.2025 35.5797 37.7898 0.0000 0.0000 0.0000
# 2 35.5797 97.7005 38.5316 0.0000 0.0000 0.0000
# 3 37.7898 38.5316 130.1655 -0.0001 0.0000 0.0000
# 4 0.0000 0.0000 -0.0001 -18.8261 0.0000 0.0000
# 5 0.0000 0.0000 0.0000 0.0000 22.7033 0.0000
# 6 0.0000 0.0000 0.0000 0.0000 0.0000 28.3789
#
#
#
# Elastic Compliance Matrix: (Units=1/GPa)
#
#
# Indices 1 2 3 4 5 6 
#
# 1 0.009868 -0.002789 -0.002039 0.000000 0.000000 0.000000
# 2 -0.002789 0.012377 -0.002854 0.000000 0.000000 0.000000
# 3 -0.002039 -0.002854 0.009119 0.000000 0.000000 0.000000
# 4 0.000000 0.000000 0.000000 -0.053118 0.000000 0.000000
# 5 0.000000 0.000000 0.000000 0.000000 0.044047 0.000000
# 6 0.000000 0.000000 0.000000 0.000000 0.000000 0.035237
#
#
# Mechanical properties :
#
#
# Convention : Reuss Voigt Hill
#
# Bulk Modulus (GPa) = 62.50353 63.43008 62.96680
# Shear Modulus (GPa) = 63.91518 22.12904 43.02211
#
# Velocity S-wave (km/s) = 5.54471 3.26256 4.54907
# Velocity P-wave (km/s) = 8.42950 6.68601 7.60787
#
# Compressibility (1/GPa) = 0.01599910
#
# Stress axis : x y z
#
# Youngs Moduli (GPa) = 101.33597 80.79666 109.65678
#
# Poissons Ratio (x) = 0.22538 0.22361
# Poissons Ratio (y) = 0.28267 0.31295
# Poissons Ratio (z) = 0.20664 0.23059
#
# Static dielectric constant tensor:
#      x y z
#    x 1.822800 0.000000 0.000000 
#    y 0.000000 1.754650 0.000000 
#    z 0.000000 0.000000 1.767770 
# 
# From -- ./inp_files/20150.got.cif
#   From: 2010.05.17/outbox.cif.g08.bks.cpg/sg23_11_cif.got.tgz:20150.got - 2010.06.04 12:02:01.
