data_PCOD9331759
_publ_section_title
;
Structure prediction by ZEFSAII (Michael W. Deem and Ramdas Pophale) SiO2 
 PCOD9331759
Probable space group: I 2 2 2
;
_chemical_formula_sum "Si O2"
_cell_formula_units_Z 46
_cell_length_a 7.904843
_cell_length_b 10.954115
_cell_length_c 23.974299
_cell_angle_alpha 90.000000
_cell_angle_beta 90.000000
_cell_angle_gamma 90.000000
_cell_volume 2075.947959
_symmetry_space_group_name_H-M "I 2 2 2"
_symmetry_group_IT_number 23
_symmetry_cell_setting 'orthorhombic'
loop_
_space_group_symop_operation_xyz
x,y,z
-x,-y,z
x,-y,-z
-x,y,-z
1/2+x,1/2+y,1/2+z
1/2-x,1/2-y,1/2+z
1/2+x,1/2-y,1/2-z
1/2-x,1/2+y,1/2-z
loop_
_atom_site_type_symbol
_atom_site_label
_atom_site_fract_x
_atom_site_fract_y
_atom_site_fract_z
Si Si1 0.825781 0.820451 0.672949
Si Si2 0.456011 0.724289 0.708880
Si Si3 0.239577 0.668850 0.429778
Si Si4 0.680815 0.069093 0.634513
Si Si5 0.000000 0.500000 0.500000
Si Si6 0.000000 0.000000 0.135977
Si Si7 0.200508 0.861892 0.515601
O O1 0.644249 0.768282 0.693459
O O2 0.943066 0.799446 0.725681
O O3 0.860293 0.740958 0.618421
O O4 0.802950 0.959607 0.653500
O O5 0.345553 0.835170 0.684413
O O6 0.411084 0.599053 0.676427
O O7 0.115191 0.581889 0.461803
O O8 0.382114 0.584580 0.402258
O O9 0.298232 0.768673 0.475220
O O10 0.750578 0.141779 0.580676
O O11 0.500000 0.000000 0.622563
O O12 0.000000 0.845948 0.500000
O O13 0.244063 0.000000 0.500000
#
# Coordination Sequence:
#
# PCOD9331759 Si02
#       7
#     8   8   8   8   2   4   8
#     4  10  23  46  69  99 133 174 231 281 341 409
#     4  10  24  44  70 100 132 179 221 280 346 409
#     4  11  25  48  66 103 136 183 232 279 349 412
#     4  10  23  45  68 100 137 179 228 285 346 406
#     4  12  28  46  66  96 144 186 224 278 346 418
#     4  10  26  47  66 100 142 179 230 274 344 426
#     4  11  23  44  69 102 138 173 230 291 343 399
#
# _framework density 22.158550999999999
#
# number of rings (size 3 to 8) (size 9 to 14) (size 15 to 20)
#    0.000    1.565    2.609    0.000    7.304    3.478 
#    7.826    0.000    0.000    0.000    0.000    0.000 
#    0.000    0.000    0.000    0.000    0.000    0.000 
#
# Total GULP energy -128612.879400 kJ/mol
# GULP energy per Si atom -5591.864322 kJ/mol
# Density = 2.210812 g / cm^3
# Si number density = 22.158551 Si / 1000 Ang^3
#
#
#
# Elastic Constant Matrix: (Units=GPa)
#
#
# Indices 1 2 3 4 5 6 
#
# 1 53.2836 29.6324 43.4838 0.0000 0.0000 0.0000
# 2 29.6324 153.2028 72.0666 0.0000 0.0000 0.0000
# 3 43.4838 72.0666 175.8237 0.0000 0.0000 0.0000
# 4 0.0000 0.0000 0.0000 32.7163 0.0000 0.0000
# 5 0.0000 0.0000 0.0000 0.0000 37.4249 0.0000
# 6 0.0000 0.0000 0.0000 0.0000 0.0000 -9.8699
#
#
#
# Elastic Compliance Matrix: (Units=1/GPa)
#
#
# Indices 1 2 3 4 5 6 
#
# 1 0.024154 -0.002307 -0.005028 0.000000 0.000000 0.000000
# 2 -0.002307 0.008307 -0.002834 0.000000 0.000000 0.000000
# 3 -0.005028 -0.002834 0.008093 0.000000 0.000000 0.000000
# 4 0.000000 0.000000 0.000000 0.030566 0.000000 0.000000
# 5 0.000000 0.000000 0.000000 0.000000 0.026720 0.000000
# 6 0.000000 0.000000 0.000000 0.000000 0.000000 -0.101319
#
#
# Mechanical properties :
#
#
# Convention : Reuss Voigt Hill
#
# Bulk Modulus (GPa) = 49.46798 74.74175 62.10487
# Shear Modulus (GPa) = 211.89370 27.86276 119.87823
#
# Velocity S-wave (km/s) = 9.78947 3.54987 7.36326
# Velocity P-wave (km/s) = 12.25363 7.11377 10.01891
#
# Compressibility (1/GPa) = 0.02021510
#
# Stress axis : x y z
#
# Youngs Moduli (GPa) = 41.40168 120.38506 123.56707
#
# Poissons Ratio (x) = 0.27767 0.62131
# Poissons Ratio (y) = 0.09549 0.35023
# Poissons Ratio (z) = 0.20817 0.34121
#
# Static dielectric constant tensor:
#      x y z
#    x 1.854380 0.000000 0.000000 
#    y 0.000000 1.781650 0.000000 
#    z 0.000000 0.000000 1.836670 
# 
# From -- ./inp_files/27998.got.cif
#   From: 2010.05.17/outbox.cif.g08.bks.cpg/sg23_14_cif.got.tgz:27998.got - 2010.06.04 12:02:01.
