data_PCOD9331438
_publ_section_title
;
Structure prediction by ZEFSAII (Michael W. Deem and Ramdas Pophale) SiO2 
 PCOD9331438
Probable space group: I 2 2 2
;
_chemical_formula_sum "Si O2"
_cell_formula_units_Z 64
_cell_length_a 16.438944
_cell_length_b 8.609248
_cell_length_c 22.451283
_cell_angle_alpha 90.000000
_cell_angle_beta 90.000000
_cell_angle_gamma 90.000000
_cell_volume 3177.461511
_symmetry_space_group_name_H-M "I 2 2 2"
_symmetry_group_IT_number 23
_symmetry_cell_setting 'orthorhombic'
loop_
_space_group_symop_operation_xyz
x,y,z
-x,-y,z
x,-y,-z
-x,y,-z
1/2+x,1/2+y,1/2+z
1/2-x,1/2-y,1/2+z
1/2+x,1/2-y,1/2-z
1/2-x,1/2+y,1/2-z
loop_
_atom_site_type_symbol
_atom_site_label
_atom_site_fract_x
_atom_site_fract_y
_atom_site_fract_z
Si Si1 0.273315 0.011560 0.788434
Si Si2 0.163035 0.832673 0.868552
Si Si3 0.510848 0.815994 0.372018
Si Si4 0.734434 0.843310 0.527885
Si Si5 0.407976 0.245292 0.001768
Si Si6 0.652189 0.327175 0.571020
Si Si7 0.327964 0.810801 0.687941
Si Si8 0.407783 0.017228 0.894102
O O1 0.210219 0.879087 0.809376
O O2 0.310019 0.962487 0.725410
O O3 0.220589 0.167135 0.784554
O O4 0.341711 0.015372 0.841162
O O5 0.211267 0.702114 0.905535
O O6 0.073329 0.767336 0.860301
O O7 0.158949 0.999506 0.903344
O O8 0.558970 0.731330 0.426179
O O9 0.574662 0.790904 0.317824
O O10 0.500000 0.000000 0.382206
O O11 0.830281 0.846144 0.517253
O O12 0.696113 0.701310 0.490260
O O13 0.697671 0.000000 0.500000
O O14 0.396321 0.166942 0.936706
O O15 0.500000 0.309127 0.000000
O O16 0.403815 0.117899 0.055396
O O17 0.694685 0.207099 0.618148
O O18 0.500000 0.000000 0.869855
#
# Coordination Sequence:
#
# PCOD9331438 Si02
#       8
#     8   8   8   8   8   8   8   8
#     4  11  21  40  61  94 123 161 217 252 317 370
#     4  11  22  39  68  86 125 165 209 260 305 386
#     4  10  22  41  61  91 124 161 202 262 317 361
#     4  12  23  35  61  95 125 165 204 259 323 376
#     4   9  18  34  58  90 123 159 197 258 313 376
#     4   9  22  41  60  89 124 163 214 244 313 374
#     4   9  24  38  62  87 122 165 201 261 304 376
#     4   9  18  35  63  89 118 155 212 257 303 376
#
# _framework density 20.141864000000002
#
# number of rings (size 3 to 8) (size 9 to 14) (size 15 to 20)
#    0.750    1.250    1.250    3.750    3.500    1.250 
#    0.000    2.500    0.000    0.000    0.000    0.000 
#    0.000    0.000    0.000    0.000    0.000    0.000 
#
# Total GULP energy -178205.939217 kJ/mol
# GULP energy per Si atom -5568.935601 kJ/mol
# Density = 2.009602 g / cm^3
# Si number density = 20.141864 Si / 1000 Ang^3
#
#
#
# Elastic Constant Matrix: (Units=GPa)
#
#
# Indices 1 2 3 4 5 6 
#
# 1 122.7903 20.5369 12.5306 0.0000 0.0000 0.0000
# 2 20.5369 61.4083 11.4367 0.0000 0.0000 0.0000
# 3 12.5306 11.4367 45.8015 0.0000 0.0000 0.0000
# 4 0.0000 0.0000 0.0000 6.4089 0.0000 0.0000
# 5 0.0000 0.0000 0.0000 0.0000 0.7176 0.0000
# 6 0.0000 0.0000 0.0000 0.0000 0.0000 27.3677
#
#
#
# Elastic Compliance Matrix: (Units=1/GPa)
#
#
# Indices 1 2 3 4 5 6 
#
# 1 0.008758 -0.002604 -0.001746 0.000000 0.000000 0.000000
# 2 -0.002604 0.017853 -0.003746 0.000000 0.000000 0.000000
# 3 -0.001746 -0.003746 0.023246 0.000000 0.000000 0.000000
# 4 0.000000 0.000000 0.000000 0.156032 0.000000 0.000000
# 5 0.000000 0.000000 0.000000 0.000000 1.393573 0.000000
# 6 0.000000 0.000000 0.000000 0.000000 0.000000 0.036539
#
#
# Mechanical properties :
#
#
# Convention : Reuss Voigt Hill
#
# Bulk Modulus (GPa) = 29.70304 35.44538 32.57421
# Shear Modulus (GPa) = 3.00587 19.26523 11.13555
#
# Velocity S-wave (km/s) = 1.22294 3.09605 2.35384
# Velocity P-wave (km/s) = 4.09549 5.51514 4.85746
#
# Compressibility (1/GPa) = 0.03366659
#
# Stress axis : x y z
#
# Youngs Moduli (GPa) = 114.18660 56.01370 43.01770
#
# Poissons Ratio (x) = 0.14584 0.07510
# Poissons Ratio (y) = 0.29731 0.16112
# Poissons Ratio (z) = 0.19935 0.20980
#
# Static dielectric constant tensor:
#      x y z
#    x 1.750800 0.000000 0.000000 
#    y 0.000000 1.746550 0.000000 
#    z 0.000000 0.000000 1.715600 
# 
# From -- ./inp_files/28557.got.cif
#   From: 2010.05.17/outbox.cif.g08.bks.cpg/sg23_15_cif.got.tgz:28557.got - 2010.06.04 12:02:01.
