data_PCOD9331522
_publ_section_title
;
Structure prediction by ZEFSAII (Michael W. Deem and Ramdas Pophale) SiO2 
 PCOD9331522
Probable space group: I 2 2 2
;
_chemical_formula_sum "Si O2"
_cell_formula_units_Z 58
_cell_length_a 11.447275
_cell_length_b 8.467176
_cell_length_c 25.040706
_cell_angle_alpha 90.000000
_cell_angle_beta 90.000000
_cell_angle_gamma 90.000000
_cell_volume 2427.097777
_symmetry_space_group_name_H-M "I 2 2 2"
_symmetry_group_IT_number 23
_symmetry_cell_setting 'orthorhombic'
loop_
_space_group_symop_operation_xyz
x,y,z
-x,-y,z
x,-y,-z
-x,y,-z
1/2+x,1/2+y,1/2+z
1/2-x,1/2-y,1/2+z
1/2+x,1/2-y,1/2-z
1/2-x,1/2+y,1/2-z
loop_
_atom_site_type_symbol
_atom_site_label
_atom_site_fract_x
_atom_site_fract_y
_atom_site_fract_z
Si Si1 0.118737 0.060329 0.703108
Si Si2 0.577292 0.787976 0.660839
Si Si3 0.857832 0.324623 0.088975
Si Si4 0.788876 0.730388 0.265803
Si Si5 0.000000 0.500000 0.000000
Si Si6 0.802529 0.097209 0.407873
Si Si7 0.624114 0.093540 0.949590
Si Si8 0.290298 0.517127 0.636905
O O1 0.172090 0.211375 0.731059
O O2 0.108171 0.099027 0.641234
O O3 0.198828 0.906343 0.711962
O O4 0.000000 0.000000 0.727279
O O5 0.449724 0.839506 0.639855
O O6 0.611998 0.820272 0.722549
O O7 0.675030 0.855734 0.618892
O O8 0.609650 0.602176 0.655731
O O9 0.733275 0.414523 0.083372
O O10 0.836837 0.139933 0.093441
O O11 0.925579 0.387863 0.037950
O O12 0.766907 0.613359 0.314677
O O13 0.854132 0.214749 0.453085
O O14 0.500000 0.000000 0.944560
O O15 0.688718 0.072079 0.893729
O O16 0.677999 0.000000 0.000000
#
# Coordination Sequence:
#
# PCOD9331522 Si02
#       8
#     8   8   8   8   2   8   8   8
#     4  11  25  42  68 104 145 188 242 299 370 447
#     4  10  22  43  64 100 147 188 235 295 366 443
#     4  12  24  43  73 103 144 192 248 308 377 453
#     4  11  23  42  67 105 144 194 244 295 372 451
#     4  12  28  44  70 108 142 200 246 304 402 432
#     4  10  22  43  68  96 140 179 242 301 358 442
#     4  10  25  48  71  96 134 185 242 308 382 444
#     4  11  24  41  69 105 141 188 245 303 367 452
#
# _framework density 23.896853
#
# number of rings (size 3 to 8) (size 9 to 14) (size 15 to 20)
#    0.000    1.241    4.138    0.414    5.793    0.000 
#    0.000    4.138    0.000    1.655    0.000    0.000 
#    0.000    0.000    0.000    0.000    0.000    0.000 
#
# Total GULP energy -161583.961496 kJ/mol
# GULP energy per Si atom -5571.860741 kJ/mol
# Density = 2.384246 g / cm^3
# Si number density = 23.896853 Si / 1000 Ang^3
#
#
#
# Elastic Constant Matrix: (Units=GPa)
#
#
# Indices 1 2 3 4 5 6 
#
# 1 73.5207 21.5920 16.1389 0.0000 0.0000 0.0000
# 2 21.5920 106.6691 27.8075 0.0000 0.0000 0.0000
# 3 16.1389 27.8075 113.5034 0.0000 0.0000 0.0000
# 4 0.0000 0.0000 0.0000 44.8028 0.0000 0.0000
# 5 0.0000 0.0000 0.0000 0.0000 -2.1596 0.0000
# 6 0.0000 0.0000 0.0000 0.0000 0.0000 35.7456
#
#
#
# Elastic Compliance Matrix: (Units=1/GPa)
#
#
# Indices 1 2 3 4 5 6 
#
# 1 0.014682 -0.002593 -0.001452 0.000000 0.000000 0.000000
# 2 -0.002593 0.010472 -0.002197 0.000000 0.000000 0.000000
# 3 -0.001452 -0.002197 0.009555 0.000000 0.000000 0.000000
# 4 0.000000 0.000000 0.000000 0.022320 0.000000 0.000000
# 5 0.000000 0.000000 0.000000 0.000000 -0.463057 0.000000
# 6 0.000000 0.000000 0.000000 0.000000 0.000000 0.027975
#
#
# Mechanical properties :
#
#
# Convention : Reuss Voigt Hill
#
# Bulk Modulus (GPa) = 44.99553 47.19666 46.09609
# Shear Modulus (GPa) = -13.96027 30.88809 8.46391
#
# Velocity S-wave (km/s) = -2.41962 3.59912 1.88402
# Velocity P-wave (km/s) = 3.32624 6.08807 4.90553
#
# Compressibility (1/GPa) = 0.02222443
#
# Stress axis : x y z
#
# Youngs Moduli (GPa) = 68.11040 95.48865 104.65686
#
# Poissons Ratio (x) = 0.24764 0.15199
# Poissons Ratio (y) = 0.17663 0.22992
# Poissons Ratio (z) = 0.09891 0.20978
#
# Static dielectric constant tensor:
#      x y z
#    x 1.985760 0.000000 0.000000 
#    y 0.000000 2.146420 0.000000 
#    z 0.000000 0.000000 1.928560 
# 
# From -- ./inp_files/29475.got.cif
#   From: 2010.05.17/outbox.cif.g08.bks.cpg/sg23_15_cif.got.tgz:29475.got - 2010.06.04 12:02:01.
