data_PCOD9331861
_publ_section_title
;
Structure prediction by ZEFSAII (Michael W. Deem and Ramdas Pophale) SiO2 
 PCOD9331861
Probable space group: I 2 2 2
;
_chemical_formula_sum "Si O2"
_cell_formula_units_Z 40
_cell_length_a 7.357653
_cell_length_b 15.085826
_cell_length_c 15.985911
_cell_angle_alpha 90.000000
_cell_angle_beta 90.000000
_cell_angle_gamma 90.000000
_cell_volume 1774.376540
_symmetry_space_group_name_H-M "I 2 2 2"
_symmetry_group_IT_number 23
_symmetry_cell_setting 'orthorhombic'
loop_
_space_group_symop_operation_xyz
x,y,z
-x,-y,z
x,-y,-z
-x,y,-z
1/2+x,1/2+y,1/2+z
1/2-x,1/2-y,1/2+z
1/2+x,1/2-y,1/2-z
1/2-x,1/2+y,1/2-z
loop_
_atom_site_type_symbol
_atom_site_label
_atom_site_fract_x
_atom_site_fract_y
_atom_site_fract_z
Si Si1 0.850220 0.721310 0.433207
Si Si2 0.586402 0.326229 0.229266
Si Si3 0.656582 0.446057 0.651235
Si Si4 0.000000 0.500000 0.698647
Si Si5 0.995470 0.647929 0.182258
Si Si6 0.000000 0.327840 0.000000
O O1 0.953808 0.779276 0.360728
O O2 0.752032 0.637903 0.391259
O O3 0.682818 0.774127 0.475956
O O4 0.000000 0.695533 0.500000
O O5 0.459210 0.402683 0.268868
O O6 0.577870 0.245225 0.295728
O O7 0.792799 0.354418 0.209303
O O8 0.500000 0.500000 0.604570
O O9 0.818774 0.520359 0.650069
O O10 0.085275 0.575340 0.756910
O O11 0.963762 0.622497 0.086785
#
# Coordination Sequence:
#
# PCOD9331861 Si02
#       6
#     8   8   8   4   8   4
#     4  11  26  42  73 104 135 182 233 283 338 410
#     4  11  21  43  71  97 129 188 233 279 330 414
#     4  12  25  44  70 104 140 179 233 283 339 409
#     4  12  24  39  71 104 134 178 228 290 339 407
#     4  11  22  40  71  96 137 174 230 282 342 407
#     4  10  24  43  67 106 136 174 226 290 343 403
#
# _framework density 22.543130000000001
#
# number of rings (size 3 to 8) (size 9 to 14) (size 15 to 20)
#    0.000    0.800    8.000    0.000    5.600    2.000 
#    0.000    3.000    0.000    0.600    0.000    0.000 
#    0.000    0.000    0.000    0.000    0.000    0.000 
#
# Total GULP energy -111358.958354 kJ/mol
# GULP energy per Si atom -5567.947918 kJ/mol
# Density = 2.249182 g / cm^3
# Si number density = 22.543130 Si / 1000 Ang^3
#
#
#
# Elastic Constant Matrix: (Units=GPa)
#
#
# Indices 1 2 3 4 5 6 
#
# 1 107.7301 -3.7068 43.8933 0.0000 0.0000 0.0000
# 2 -3.7068 42.9672 -5.9976 0.0000 0.0000 0.0000
# 3 43.8933 -5.9976 68.7371 0.0000 0.0000 0.0000
# 4 0.0000 0.0000 0.0000 2.5679 0.0000 0.0000
# 5 0.0000 0.0000 0.0000 0.0000 18.1824 0.0000
# 6 0.0000 0.0000 0.0000 0.0000 0.0000 4.1322
#
#
#
# Elastic Compliance Matrix: (Units=1/GPa)
#
#
# Indices 1 2 3 4 5 6 
#
# 1 0.012547 -0.000036 -0.008015 0.000000 0.000000 0.000000
# 2 -0.000036 0.023561 0.002079 0.000000 0.000000 0.000000
# 3 -0.008015 0.002079 0.019848 0.000000 0.000000 0.000000
# 4 0.000000 0.000000 0.000000 0.389426 0.000000 0.000000
# 5 0.000000 0.000000 0.000000 0.000000 0.054998 0.000000
# 6 0.000000 0.000000 0.000000 0.000000 0.000000 0.242001
#
#
# Mechanical properties :
#
#
# Convention : Reuss Voigt Hill
#
# Bulk Modulus (GPa) = 22.72202 31.97914 27.35058
# Shear Modulus (GPa) = 6.50199 17.32620 11.91409
#
# Velocity S-wave (km/s) = 1.70015 2.77534 2.30141
# Velocity P-wave (km/s) = 3.73567 4.94839 4.38416
#
# Compressibility (1/GPa) = 0.04401017
#
# Stress axis : x y z
#
# Youngs Moduli (GPa) = 79.70085 42.44370 50.38324
#
# Poissons Ratio (x) = 0.00154 0.40383
# Poissons Ratio (y) = 0.00290 -0.10475
# Poissons Ratio (z) = 0.63882 -0.08824
#
# Static dielectric constant tensor:
#      x y z
#    x 2.026490 0.000000 0.000000 
#    y 0.000000 1.930240 0.000000 
#    z 0.000000 0.000000 1.954850 
# 
# From -- ./inp_files/19801.got.cif
#   From: 2010.05.17/outbox.cif.g08.bks.cpg/sg23_10_cif.got.tgz:19801.got - 2010.06.04 12:02:01.
