data_PCOD9331949
_publ_section_title
;
Structure prediction by ZEFSAII (Michael W. Deem and Ramdas Pophale) SiO2 
 PCOD9331949
Probable space group: I 2 2 2
;
_chemical_formula_sum "Si O2"
_cell_formula_units_Z 26
_cell_length_a 7.542238
_cell_length_b 9.181145
_cell_length_c 14.695931
_cell_angle_alpha 90.000000
_cell_angle_beta 90.000000
_cell_angle_gamma 90.000000
_cell_volume 1017.640033
_symmetry_space_group_name_H-M "I 2 2 2"
_symmetry_group_IT_number 23
_symmetry_cell_setting 'orthorhombic'
loop_
_space_group_symop_operation_xyz
x,y,z
-x,-y,z
x,-y,-z
-x,y,-z
1/2+x,1/2+y,1/2+z
1/2-x,1/2-y,1/2+z
1/2+x,1/2-y,1/2-z
1/2-x,1/2+y,1/2-z
loop_
_atom_site_type_symbol
_atom_site_label
_atom_site_fract_x
_atom_site_fract_y
_atom_site_fract_z
Si Si1 0.727151 0.562870 0.170334
Si Si2 0.900677 0.694824 0.772540
Si Si3 0.000000 0.000000 0.000000
Si Si4 0.661985 0.181958 0.933592
O O1 0.749166 0.390507 0.171556
O O2 0.621554 0.633832 0.256124
O O3 0.666392 0.642312 0.079422
O O4 0.917497 0.640179 0.186611
O O5 0.882606 0.635127 0.669784
O O6 0.852269 0.888653 0.042729
O O7 0.500000 0.147847 0.000000
#
# Coordination Sequence:
#
# PCOD9331949 Si02
#       4
#     8   8   2   8
#     4   9  21  38  67  98 140 178 241 302 363 417
#     4   9  21  39  69 102 137 186 246 301 351 447
#     4  12  26  36  72  96 148 196 244 294 380 426
#     4  10  25  41  69 105 146 187 251 306 365 436
#
# _framework density 25.549310999999999
#
# number of rings (size 3 to 8) (size 9 to 14) (size 15 to 20)
#    1.846    0.615    0.000    0.462   12.923    1.231 
#    0.000    0.000    0.000   24.000    0.000    0.000 
#    0.000    0.000    0.000    0.000    0.000    0.000 
#
# Total GULP energy -72377.860604 kJ/mol
# GULP energy per Si atom -5567.527739 kJ/mol
# Density = 2.549116 g / cm^3
# Si number density = 25.549311 Si / 1000 Ang^3
#
#
#
# Elastic Constant Matrix: (Units=GPa)
#
#
# Indices 1 2 3 4 5 6 
#
# 1 156.0121 37.5171 44.1457 0.0000 0.0000 0.0000
# 2 37.5171 95.3423 19.8225 0.0000 0.0000 0.0000
# 3 44.1457 19.8225 82.3537 0.0000 0.0000 0.0000
# 4 0.0000 0.0000 0.0000 4.9073 0.0000 0.0000
# 5 0.0000 0.0000 0.0000 0.0000 25.7690 0.0000
# 6 0.0000 0.0000 0.0000 0.0000 0.0000 37.2811
#
#
#
# Elastic Compliance Matrix: (Units=1/GPa)
#
#
# Indices 1 2 3 4 5 6 
#
# 1 0.008041 -0.002387 -0.003736 0.000000 0.000000 0.000000
# 2 -0.002387 0.011750 -0.001548 0.000000 0.000000 0.000000
# 3 -0.003736 -0.001548 0.014518 0.000000 0.000000 0.000000
# 4 0.000000 0.000000 0.000000 0.203779 0.000000 0.000000
# 5 0.000000 0.000000 0.000000 0.000000 0.038806 0.000000
# 6 0.000000 0.000000 0.000000 0.000000 0.000000 0.026823
#
#
# Mechanical properties :
#
#
# Convention : Reuss Voigt Hill
#
# Bulk Modulus (GPa) = 52.72665 59.63098 56.17881
# Shear Modulus (GPa) = 15.36653 29.07299 22.21976
#
# Velocity S-wave (km/s) = 2.45510 3.37696 2.95224
# Velocity P-wave (km/s) = 5.35898 6.21252 5.80147
#
# Compressibility (1/GPa) = 0.01896574
#
# Stress axis : x y z
#
# Youngs Moduli (GPa) = 124.36358 85.10709 68.88014
#
# Poissons Ratio (x) = 0.20319 0.25732
# Poissons Ratio (y) = 0.29691 0.10666
# Poissons Ratio (z) = 0.46458 0.13178
#
# Static dielectric constant tensor:
#      x y z
#    x 2.167910 0.000000 0.000000 
#    y 0.000000 2.121130 0.000000 
#    z 0.000000 0.000000 1.985000 
# 
# From -- ./inp_files/23430.got.cif
#   From: 2010.05.17/outbox.cif.g08.bks.cpg/sg23_12_cif.got.tgz:23430.got - 2010.06.04 12:02:01.
