data_PCOD9331025
_publ_section_title
;
Structure prediction by ZEFSAII (Michael W. Deem and Ramdas Pophale) SiO2 
 PCOD9331025
Probable space group: I 2 2 2
;
_chemical_formula_sum "Si O2"
_cell_formula_units_Z 64
_cell_length_a 8.832539
_cell_length_b 33.628625
_cell_length_c 10.905899
_cell_angle_alpha 90.000000
_cell_angle_beta 90.000000
_cell_angle_gamma 90.000000
_cell_volume 3239.337103
_symmetry_space_group_name_H-M "I 2 2 2"
_symmetry_group_IT_number 23
_symmetry_cell_setting 'orthorhombic'
loop_
_space_group_symop_operation_xyz
x,y,z
-x,-y,z
x,-y,-z
-x,y,-z
1/2+x,1/2+y,1/2+z
1/2-x,1/2-y,1/2+z
1/2+x,1/2-y,1/2-z
1/2-x,1/2+y,1/2-z
loop_
_atom_site_type_symbol
_atom_site_label
_atom_site_fract_x
_atom_site_fract_y
_atom_site_fract_z
Si Si1 0.182734 0.304323 0.000001
Si Si2 0.182576 0.716290 0.499999
Si Si3 0.182760 0.338263 0.266936
Si Si4 0.682760 0.161737 0.766935
Si Si5 0.819789 0.077293 0.750316
Si Si6 0.180211 0.077293 0.750316
Si Si7 0.680829 0.047558 0.500000
Si Si8 0.668191 1.000000 0.143287
O O1 0.242961 0.259453 0.000001
O O2 0.230216 0.324759 0.129105
O O3 0.230216 0.324759 0.870897
O O4 0.000000 0.304256 0.000000
O O5 0.224312 0.692399 0.624397
O O6 0.224312 0.692400 0.375601
O O7 0.000000 0.720340 0.500000
O O8 0.253658 0.381006 0.295428
O O9 0.000000 0.341581 0.266694
O O10 0.753658 0.118994 0.795428
O O11 0.753512 0.068628 0.616203
O O12 0.000000 0.078239 0.749925
O O13 0.758307 0.039460 0.823405
O O14 0.246488 0.068628 0.616203
O O15 0.241693 0.039460 0.823405
O O16 0.500000 0.052456 0.500000
O O17 0.713975 0.000000 0.500000
O O18 0.500000 0.000000 0.204426
O O19 0.648372 0.000000 0.000000
#
# Coordination Sequence:
#
# PCOD9331025 Si02
#       8
#     8   8   8   8   8   8   8   8
#     4  10  21  39  64  90 121 159 204 256 316 375
#     4  10  22  39  63  91 122 160 207 257 312 376
#     4  10  22  40  61  89 124 167 210 253 308 383
#     4  10  22  40  61  89 124 167 210 253 308 383
#     4  12  25  40  63  95 128 160 205 266 317 360
#     4  12  25  40  63  95 128 160 205 266 317 360
#     4  11  22  39  64  88 117 163 209 247 304 375
#     4  11  25  44  65  86 119 171 217 255 308 379
#
# _framework density 19.75713
#
# number of rings (size 3 to 8) (size 9 to 14) (size 15 to 20)
#    0.000    1.250    1.250    4.500    1.750    4.500 
#    0.000    0.000    0.000    0.000    0.000    0.000 
#    0.000    0.000    0.000    0.000    0.000    0.000 
#
# Total GULP energy -178865.661504 kJ/mol
# GULP energy per Si atom -5589.551922 kJ/mol
# Density = 1.971216 g / cm^3
# Si number density = 19.757130 Si / 1000 Ang^3
#
#
#
# Elastic Constant Matrix: (Units=GPa)
#
#
# Indices 1 2 3 4 5 6 
#
# 1 55.4616 40.8037 20.7105 0.0001 0.0000 0.0000
# 2 40.8037 149.8523 38.2664 0.0000 0.0000 0.0000
# 3 20.7105 38.2664 102.4298 -0.0001 0.0000 0.0001
# 4 0.0001 0.0000 -0.0001 110.3603 0.0001 0.0009
# 5 0.0000 0.0000 0.0000 0.0001 18.1703 0.0001
# 6 0.0000 0.0000 0.0001 0.0009 0.0001 -21.6516
#
#
#
# Elastic Compliance Matrix: (Units=1/GPa)
#
#
# Indices 1 2 3 4 5 6 
#
# 1 0.023144 -0.005646 -0.002570 0.000000 0.000000 0.000000
# 2 -0.005646 0.008754 -0.002129 0.000000 0.000000 0.000000
# 3 -0.002570 -0.002129 0.011078 0.000000 0.000000 0.000000
# 4 0.000000 0.000000 0.000000 0.009061 0.000000 0.000000
# 5 0.000000 0.000000 0.000000 0.000000 0.055035 0.000000
# 6 0.000000 0.000000 0.000000 0.000000 0.000000 -0.046186
#
#
# Mechanical properties :
#
#
# Convention : Reuss Voigt Hill
#
# Bulk Modulus (GPa) = 44.87111 56.36721 50.61916
# Shear Modulus (GPa) = 56.17711 35.24001 45.70856
#
# Velocity S-wave (km/s) = 5.33812 4.22792 4.81513
# Velocity P-wave (km/s) = 7.79453 7.24056 7.52265
#
# Compressibility (1/GPa) = 0.02228606
#
# Stress axis : x y z
#
# Youngs Moduli (GPa) = 43.20810 114.23196 90.27024
#
# Poissons Ratio (x) = 0.64490 0.23203
# Poissons Ratio (y) = 0.24393 0.19218
# Poissons Ratio (z) = 0.11106 0.24319
#
# Static dielectric constant tensor:
#      x y z
#    x 1.659420 0.000000 0.000000 
#    y 0.000000 1.730750 0.000000 
#    z 0.000000 0.000000 1.847640 
# 
# From -- ./inp_files/14993.got.cif
#   From: 2010.05.17/outbox.cif.g08.bks.cpg/sg23_8_cif.got.tgz:14993.got - 2010.06.04 12:02:01.
