data_PCOD9331348
_publ_section_title
;
Structure prediction by ZEFSAII (Michael W. Deem and Ramdas Pophale) SiO2 
 PCOD9331348
Probable space group: I 2 2 2
;
_chemical_formula_sum "Si O2"
_cell_formula_units_Z 34
_cell_length_a 9.564558
_cell_length_b 21.572859
_cell_length_c 8.949027
_cell_angle_alpha 90.000000
_cell_angle_beta 90.000000
_cell_angle_gamma 90.000000
_cell_volume 1846.496243
_symmetry_space_group_name_H-M "I 2 2 2"
_symmetry_group_IT_number 23
_symmetry_cell_setting 'orthorhombic'
loop_
_space_group_symop_operation_xyz
x,y,z
-x,-y,z
x,-y,-z
-x,y,-z
1/2+x,1/2+y,1/2+z
1/2-x,1/2-y,1/2+z
1/2+x,1/2-y,1/2-z
1/2-x,1/2+y,1/2-z
loop_
_atom_site_type_symbol
_atom_site_label
_atom_site_fract_x
_atom_site_fract_y
_atom_site_fract_z
Si Si1 0.500000 0.000000 0.000000
Si Si2 0.155106 0.199304 0.568846
Si Si3 0.273634 0.557017 0.596699
Si Si4 0.841827 0.937437 0.562488
Si Si5 0.651824 0.304393 0.570495
O O1 0.393031 0.041837 0.903826
O O2 0.216417 0.130985 0.527760
O O3 0.245503 0.254230 0.500737
O O4 0.149051 0.202342 0.749288
O O5 0.000000 0.202950 0.500000
O O6 0.331949 0.500000 0.500000
O O7 0.339050 0.555852 0.759905
O O8 0.300743 0.625244 0.533451
O O9 0.000000 0.936209 0.500000
O O10 0.772395 0.000000 0.500000
O O11 0.500000 0.295090 0.500000
#
# Coordination Sequence:
#
# PCOD9331348 Si02
#       5
#     2   8   8   8   8
#     4   8  20  44  56  92 120 156 210 240 300 368
#     4  10  22  39  60  85 123 164 202 252 305 369
#     4   9  21  38  63  87 120 161 206 247 299 367
#     4   9  19  37  59  89 123 153 200 252 308 357
#     4  11  23  39  59  92 122 160 209 254 308 362
#
# _framework density 18.413250999999999
#
# number of rings (size 3 to 8) (size 9 to 14) (size 15 to 20)
#    0.706    1.647    0.000    1.412    1.647   11.765 
#    0.000    0.588    0.000    0.000    0.000    0.000 
#    0.000    0.000    0.000    0.000    0.000    0.000 
#
# Total GULP energy -94684.914218 kJ/mol
# GULP energy per Si atom -5569.700836 kJ/mol
# Density = 1.837134 g / cm^3
# Si number density = 18.413251 Si / 1000 Ang^3
#
#
#
# Elastic Constant Matrix: (Units=GPa)
#
#
# Indices 1 2 3 4 5 6 
#
# 1 88.9252 56.1038 38.9929 0.0000 0.0000 0.0000
# 2 56.1038 217.7030 74.8163 0.0000 0.0000 0.0000
# 3 38.9929 74.8163 83.5250 -0.0001 0.0000 0.0003
# 4 0.0000 0.0000 -0.0001 35.4755 0.0000 0.0000
# 5 0.0000 0.0000 0.0000 0.0000 30.0421 0.0000
# 6 0.0000 0.0000 0.0003 0.0000 0.0000 -8.7065
#
#
#
# Elastic Compliance Matrix: (Units=1/GPa)
#
#
# Indices 1 2 3 4 5 6 
#
# 1 0.014761 -0.002074 -0.005033 0.000000 0.000000 0.000000
# 2 -0.002074 0.006928 -0.005237 0.000000 0.000000 0.000000
# 3 -0.005033 -0.005237 0.019013 0.000000 0.000000 0.000001
# 4 0.000000 0.000000 0.000000 0.028188 0.000000 0.000000
# 5 0.000000 0.000000 0.000000 0.000000 0.033287 0.000000
# 6 0.000000 0.000000 0.000001 0.000000 0.000000 -0.114856
#
#
# Mechanical properties :
#
#
# Convention : Reuss Voigt Hill
#
# Bulk Modulus (GPa) = 62.44886 81.10881 71.77884
# Shear Modulus (GPa) = 288.23056 26.04489 157.13772
#
# Velocity S-wave (km/s) = 12.52494 3.76502 9.24796
# Velocity P-wave (km/s) = 15.59341 7.94010 12.37335
#
# Compressibility (1/GPa) = 0.01601310
#
# Stress axis : x y z
#
# Youngs Moduli (GPa) = 67.74570 144.34647 52.59540
#
# Poissons Ratio (x) = 0.29943 0.26471
# Poissons Ratio (y) = 0.14053 0.27544
# Poissons Ratio (z) = 0.34096 0.75595
#
# Static dielectric constant tensor:
#      x y z
#    x 1.613590 0.000000 0.000000 
#    y 0.000000 1.677800 0.000000 
#    z 0.000000 0.000000 1.620670 
# 
# From -- ./inp_files/6712.got.cif
#   From: 2010.05.17/outbox.cif.g08.bks.cpg/sg23_4_cif.got.tgz:6712.got - 2010.06.04 12:02:01.
