data_PCOD9331129
_publ_section_title
;
Structure prediction by ZEFSAII (Michael W. Deem and Ramdas Pophale) SiO2 
 PCOD9331129
Probable space group: I 2 2 2
;
_chemical_formula_sum "Si O2"
_cell_formula_units_Z 60
_cell_length_a 24.936971
_cell_length_b 8.806344
_cell_length_c 13.627708
_cell_angle_alpha 90.000000
_cell_angle_beta 90.000000
_cell_angle_gamma 90.000000
_cell_volume 2992.692986
_symmetry_space_group_name_H-M "I 2 2 2"
_symmetry_group_IT_number 23
_symmetry_cell_setting 'orthorhombic'
loop_
_space_group_symop_operation_xyz
x,y,z
-x,-y,z
x,-y,-z
-x,y,-z
1/2+x,1/2+y,1/2+z
1/2-x,1/2-y,1/2+z
1/2+x,1/2-y,1/2-z
1/2-x,1/2+y,1/2-z
loop_
_atom_site_type_symbol
_atom_site_label
_atom_site_fract_x
_atom_site_fract_y
_atom_site_fract_z
Si Si1 0.000000 0.500000 0.233315
Si Si2 0.229404 0.618631 0.915712
Si Si3 0.284766 0.566551 0.408326
Si Si4 0.189310 0.447242 0.731839
Si Si5 0.986283 0.818713 0.883958
Si Si6 0.858885 0.107344 0.407559
Si Si7 0.907595 0.438652 0.393887
Si Si8 0.367843 0.642674 0.692430
O O1 0.007811 0.339267 0.171105
O O2 0.950696 0.465718 0.308035
O O3 0.198352 0.769714 0.943251
O O4 0.204610 0.564741 0.814577
O O5 0.294353 0.636572 0.910547
O O6 0.219554 0.500000 0.000000
O O7 0.252645 0.500000 0.500000
O O8 0.245523 0.590664 0.318232
O O9 0.332484 0.459591 0.378233
O O10 0.147630 0.507044 0.650651
O O11 0.163344 0.297235 0.779252
O O12 0.923539 0.815544 0.856961
O O13 0.000000 0.000000 0.857105
O O14 0.000000 0.804765 0.000000
O O15 0.892185 0.262980 0.412689
O O16 0.872441 0.052739 0.296894
O O17 0.871211 0.000000 0.500000
O O18 0.923899 0.500000 0.500000
#
# Coordination Sequence:
#
# PCOD9331129 Si02
#       8
#     4   8   8   8   8   8   8   8
#     4  12  24  52  80 104 142 184 244 330 364 452
#     4  11  23  39  60 101 140 189 233 274 353 443
#     4  12  23  37  65  98 141 188 229 285 355 435
#     4  11  21  43  63  96 142 181 228 293 349 443
#     4  11  27  51  79 107 146 193 255 314 384 443
#     4  10  21  40  69  98 146 184 229 291 352 444
#     4  11  24  44  69 103 136 182 241 298 374 439
#     4  11  23  47  66 102 148 179 245 302 358 447
#
# _framework density 20.048832000000001
#
# number of rings (size 3 to 8) (size 9 to 14) (size 15 to 20)
#    0.000    0.933    6.667    1.600    1.867    3.200 
#    2.400    0.000    0.000    0.000    0.000    0.000 
#    0.000    0.000    0.000    0.000    0.000    0.000 
#
# Total GULP energy -167094.057620 kJ/mol
# GULP energy per Si atom -5569.801921 kJ/mol
# Density = 2.000320 g / cm^3
# Si number density = 20.048832 Si / 1000 Ang^3
#
#
#
# Elastic Constant Matrix: (Units=GPa)
#
#
# Indices 1 2 3 4 5 6 
#
# 1 82.2478 44.7896 44.6842 0.0000 0.0000 0.0000
# 2 44.7896 125.0347 74.3167 0.0000 0.0000 0.0000
# 3 44.6842 74.3167 130.2204 0.0000 0.0000 0.0000
# 4 0.0000 0.0000 0.0000 44.2342 0.0000 0.0000
# 5 0.0000 0.0000 0.0000 0.0000 34.5589 0.0000
# 6 0.0000 0.0000 0.0000 0.0000 0.0000 31.0525
#
#
#
# Elastic Compliance Matrix: (Units=1/GPa)
#
#
# Indices 1 2 3 4 5 6 
#
# 1 0.016023 -0.003741 -0.003363 0.000000 0.000000 0.000000
# 2 -0.003741 0.012977 -0.006122 0.000000 0.000000 0.000000
# 3 -0.003363 -0.006122 0.012327 0.000000 0.000000 0.000000
# 4 0.000000 0.000000 0.000000 0.022607 0.000000 0.000000
# 5 0.000000 0.000000 0.000000 0.000000 0.028936 0.000000
# 6 0.000000 0.000000 0.000000 0.000000 0.000000 0.032204
#
#
# Mechanical properties :
#
#
# Convention : Reuss Voigt Hill
#
# Bulk Modulus (GPa) = 67.22954 73.89820 70.56387
# Shear Modulus (GPa) = 31.95233 33.54995 32.75114
#
# Velocity S-wave (km/s) = 3.99648 4.09517 4.04613
# Velocity P-wave (km/s) = 7.40955 7.70063 7.55649
#
# Compressibility (1/GPa) = 0.01487441
#
# Stress axis : x y z
#
# Youngs Moduli (GPa) = 62.41183 77.06228 81.12077
#
# Poissons Ratio (x) = 0.28825 0.27284
# Poissons Ratio (y) = 0.23345 0.49663
# Poissons Ratio (z) = 0.20991 0.47179
#
# Static dielectric constant tensor:
#      x y z
#    x 1.703970 0.000000 0.000000 
#    y 0.000000 1.787180 0.000000 
#    z 0.000000 0.000000 1.732130 
# 
# From -- ./inp_files/22582.got.cif
#   From: 2010.05.17/outbox.cif.g08.bks.cpg/sg23_12_cif.got.tgz:22582.got - 2010.06.04 12:02:01.
