data_PCOD9331392
_publ_section_title
;
Structure prediction by ZEFSAII (Michael W. Deem and Ramdas Pophale) SiO2 
 PCOD9331392
Probable space group: I 2 2 2
;
_chemical_formula_sum "Si O2"
_cell_formula_units_Z 38
_cell_length_a 5.211605
_cell_length_b 25.022799
_cell_length_c 13.330695
_cell_angle_alpha 90.000000
_cell_angle_beta 90.000000
_cell_angle_gamma 90.000000
_cell_volume 1738.441863
_symmetry_space_group_name_H-M "I 2 2 2"
_symmetry_group_IT_number 23
_symmetry_cell_setting 'orthorhombic'
loop_
_space_group_symop_operation_xyz
x,y,z
-x,-y,z
x,-y,-z
-x,y,-z
1/2+x,1/2+y,1/2+z
1/2-x,1/2-y,1/2+z
1/2+x,1/2-y,1/2-z
1/2-x,1/2+y,1/2-z
loop_
_atom_site_type_symbol
_atom_site_label
_atom_site_fract_x
_atom_site_fract_y
_atom_site_fract_z
Si Si1 0.210364 0.900738 0.241221
Si Si2 0.683920 0.720373 0.287200
Si Si3 0.751889 0.439560 0.956236
Si Si4 0.788759 0.410515 0.381283
Si Si5 0.000000 0.000000 0.000000
Si Si6 0.500000 0.679558 0.500000
O O1 0.250477 0.837820 0.258336
O O2 0.257787 0.937147 0.337329
O O3 0.419713 0.914190 0.155491
O O4 0.913870 0.905843 0.209994
O O5 0.429759 0.743043 0.233835
O O6 0.617870 0.711374 0.405507
O O7 0.751278 0.500000 0.000000
O O8 0.500000 0.412781 0.000000
O O9 0.000000 0.411727 0.000000
O O10 0.686674 0.462600 0.436473
O O11 0.715549 0.359586 0.450657
#
# Coordination Sequence:
#
# PCOD9331392 Si02
#       6
#     8   8   8   8   2   4
#     4  11  23  43  65  91 133 175 226 276 340 409
#     4  11  24  43  69  99 129 177 236 285 351 419
#     4  10  22  40  63  89 126 174 220 265 333 403
#     4  10  23  40  68  94 135 175 215 276 334 404
#     4  10  24  38  60 110 130 166 228 254 334 402
#     4   9  22  45  68  94 140 178 211 296 355 392
#
# _framework density 21.858654999999999
#
# number of rings (size 3 to 8) (size 9 to 14) (size 15 to 20)
#    0.000    1.684    0.000    3.789    0.000   18.526 
#    5.684    0.000    0.000    0.000    0.000    0.000 
#    0.000    0.000    0.000    0.000    0.000    0.000 
#
# Total GULP energy -106177.770973 kJ/mol
# GULP energy per Si atom -5588.303735 kJ/mol
# Density = 2.180890 g / cm^3
# Si number density = 21.858655 Si / 1000 Ang^3
#
#
#
# Elastic Constant Matrix: (Units=GPa)
#
#
# Indices 1 2 3 4 5 6 
#
# 1 124.5125 13.5085 23.2790 0.0000 0.0000 0.0000
# 2 13.5085 96.0738 44.8617 0.0000 0.0000 0.0000
# 3 23.2790 44.8617 116.3448 0.0002 0.0000 0.0000
# 4 0.0000 0.0000 0.0002 26.3631 0.0000 0.0000
# 5 0.0000 0.0000 0.0000 0.0000 36.3410 0.0000
# 6 0.0000 0.0000 0.0000 0.0000 0.0000 11.6011
#
#
#
# Elastic Compliance Matrix: (Units=1/GPa)
#
#
# Indices 1 2 3 4 5 6 
#
# 1 0.008362 -0.000481 -0.001488 0.000000 0.000000 0.000000
# 2 -0.000481 0.012722 -0.004809 0.000000 0.000000 0.000000
# 3 -0.001488 -0.004809 0.010747 0.000000 0.000000 0.000000
# 4 0.000000 0.000000 0.000000 0.037932 0.000000 0.000000
# 5 0.000000 0.000000 0.000000 0.000000 0.027517 0.000000
# 6 0.000000 0.000000 0.000000 0.000000 0.000000 0.086199
#
#
# Mechanical properties :
#
#
# Convention : Reuss Voigt Hill
#
# Bulk Modulus (GPa) = 54.71940 55.58106 55.15023
# Shear Modulus (GPa) = 24.61526 31.87984 28.24755
#
# Velocity S-wave (km/s) = 3.35940 3.82311 3.59873
# Velocity P-wave (km/s) = 6.33522 6.70604 6.52327
#
# Compressibility (1/GPa) = 0.01827505
#
# Stress axis : x y z
#
# Youngs Moduli (GPa) = 119.59396 78.60411 93.04764
#
# Poissons Ratio (x) = 0.03782 0.13841
# Poissons Ratio (y) = 0.05753 0.44749
# Poissons Ratio (z) = 0.17790 0.37803
#
# Static dielectric constant tensor:
#      x y z
#    x 1.830520 0.000000 0.000000 
#    y 0.000000 1.790930 0.000000 
#    z 0.000000 0.000000 1.824610 
# 
# From -- ./inp_files/13913.got.cif
#   From: 2010.05.17/outbox.cif.g08.bks.cpg/sg23_7_cif.got.tgz:13913.got - 2010.06.04 12:02:01.
