data_PCOD9331509
_publ_section_title
;
Structure prediction by ZEFSAII (Michael W. Deem and Ramdas Pophale) SiO2 
 PCOD9331509
Probable space group: I 2 2 2
;
_chemical_formula_sum "Si O2"
_cell_formula_units_Z 42
_cell_length_a 13.820190
_cell_length_b 16.144819
_cell_length_c 7.844161
_cell_angle_alpha 90.000000
_cell_angle_beta 90.000000
_cell_angle_gamma 90.000000
_cell_volume 1750.224235
_symmetry_space_group_name_H-M "I 2 2 2"
_symmetry_group_IT_number 23
_symmetry_cell_setting 'orthorhombic'
loop_
_space_group_symop_operation_xyz
x,y,z
-x,-y,z
x,-y,-z
-x,y,-z
1/2+x,1/2+y,1/2+z
1/2-x,1/2-y,1/2+z
1/2+x,1/2-y,1/2-z
1/2-x,1/2+y,1/2-z
loop_
_atom_site_type_symbol
_atom_site_label
_atom_site_fract_x
_atom_site_fract_y
_atom_site_fract_z
Si Si1 0.146564 0.046799 0.755557
Si Si2 0.500000 0.500000 0.000000
Si Si3 0.436131 0.153735 0.153939
Si Si4 0.679905 0.000000 0.000000
Si Si5 0.895683 0.271511 0.798871
Si Si6 0.500000 0.368014 0.500000
Si Si7 0.804760 0.211639 0.443563
O O1 0.157116 0.124062 0.625259
O O2 0.083077 0.079647 0.912003
O O3 0.083005 0.980561 0.648396
O O4 0.249113 0.024869 0.842531
O O5 0.523443 0.155389 0.288819
O O6 0.350867 0.218740 0.181904
O O7 0.500000 0.192012 0.000000
O O8 0.388299 0.071439 0.078325
O O9 0.953963 0.191911 0.859778
O O10 0.838709 0.244354 0.627272
O O11 0.810150 0.291931 0.927962
#
# Coordination Sequence:
#
# PCOD9331509 Si02
#       7
#     8   2   8   4   8   4   8
#     4  12  25  45  68 106 146 206 249 320 391 463
#     4  12  28  46  68 104 154 200 256 332 404 462
#     4  10  22  42  70 107 140 196 241 309 372 453
#     4  12  25  45  74 108 158 196 253 310 403 476
#     4  11  23  41  72 112 141 187 254 322 374 448
#     4  12  22  43  72 106 141 196 258 316 380 443
#     4  11  23  43  70 104 141 190 258 308 372 450
#
# _framework density 23.996925000000001
#
# number of rings (size 3 to 8) (size 9 to 14) (size 15 to 20)
#    0.000    0.762    1.905    7.143    1.333    1.524 
#    0.000    0.000    0.000    0.000    0.000    0.000 
#    0.000    0.000    0.000    0.000    0.000    0.000 
#
# Total GULP energy -117025.373245 kJ/mol
# GULP energy per Si atom -5572.636821 kJ/mol
# Density = 2.394231 g / cm^3
# Si number density = 23.996925 Si / 1000 Ang^3
#
#
#
# Elastic Constant Matrix: (Units=GPa)
#
#
# Indices 1 2 3 4 5 6 
#
# 1 189.3915 58.9008 56.5355 0.0000 0.0000 0.0000
# 2 58.9008 88.1988 27.9066 0.0000 0.0000 0.0000
# 3 56.5355 27.9066 108.8613 0.0000 0.0000 0.0000
# 4 0.0000 0.0000 0.0000 24.0879 0.0000 0.0000
# 5 0.0000 0.0000 0.0000 0.0000 52.7317 0.0000
# 6 0.0000 0.0000 0.0000 0.0000 0.0000 42.5244
#
#
#
# Elastic Compliance Matrix: (Units=1/GPa)
#
#
# Indices 1 2 3 4 5 6 
#
# 1 0.007369 -0.004038 -0.002792 0.000000 0.000000 0.000000
# 2 -0.004038 0.014551 -0.001633 0.000000 0.000000 0.000000
# 3 -0.002792 -0.001633 0.011055 0.000000 0.000000 0.000000
# 4 0.000000 0.000000 0.000000 0.041515 0.000000 0.000000
# 5 0.000000 0.000000 0.000000 0.000000 0.018964 0.000000
# 6 0.000000 0.000000 0.000000 0.000000 0.000000 0.023516
#
#
# Mechanical properties :
#
#
# Convention : Reuss Voigt Hill
#
# Bulk Modulus (GPa) = 62.30906 74.79307 68.55106
# Shear Modulus (GPa) = 35.90770 40.07604 37.99187
#
# Velocity S-wave (km/s) = 3.87246 4.09106 3.98326
# Velocity P-wave (km/s) = 6.78354 7.31786 7.05576
#
# Compressibility (1/GPa) = 0.01604903
#
# Stress axis : x y z
#
# Youngs Moduli (GPa) = 135.69762 68.72188 90.45957
#
# Poissons Ratio (x) = 0.27750 0.25256
# Poissons Ratio (y) = 0.54794 0.14774
# Poissons Ratio (z) = 0.37887 0.11224
#
# Static dielectric constant tensor:
#      x y z
#    x 1.974680 0.000000 0.000000 
#    y 0.000000 2.016250 0.000000 
#    z 0.000000 0.000000 2.205350 
# 
# From -- ./inp_files/8524.got.cif
#   From: 2010.05.17/outbox.cif.g08.bks.cpg/sg23_5_cif.got.tgz:8524.got - 2010.06.04 12:02:01.
