data_PCOD9331056
_publ_section_title
;
Structure prediction by ZEFSAII (Michael W. Deem and Ramdas Pophale) SiO2 
 PCOD9331056
Probable space group: I 2 2 2
;
_chemical_formula_sum "Si O2"
_cell_formula_units_Z 32
_cell_length_a 11.336494
_cell_length_b 9.136014
_cell_length_c 13.716169
_cell_angle_alpha 90.000000
_cell_angle_beta 90.000000
_cell_angle_gamma 90.000000
_cell_volume 1420.588669
_symmetry_space_group_name_H-M "I 2 2 2"
_symmetry_group_IT_number 23
_symmetry_cell_setting 'orthorhombic'
loop_
_space_group_symop_operation_xyz
x,y,z
-x,-y,z
x,-y,-z
-x,y,-z
1/2+x,1/2+y,1/2+z
1/2-x,1/2-y,1/2+z
1/2+x,1/2-y,1/2-z
1/2-x,1/2+y,1/2-z
loop_
_atom_site_type_symbol
_atom_site_label
_atom_site_fract_x
_atom_site_fract_y
_atom_site_fract_z
Si Si1 0.379694 0.905957 0.224601
Si Si2 0.298693 0.108608 0.083371
Si Si3 0.369622 0.147168 0.545830
Si Si4 0.004007 0.835397 0.383190
O O1 0.372204 0.878911 0.338555
O O2 0.399736 0.756658 0.165780
O O3 0.500000 0.000000 0.208224
O O4 0.277056 0.000455 0.174137
O O5 0.195227 0.198675 0.031959
O O6 0.378136 0.239015 0.128878
O O7 0.352964 0.000000 0.000000
O O8 0.500000 0.155411 0.500000
O O9 0.311540 0.000000 0.500000
O O10 0.000000 0.840178 0.500000
O O11 0.000000 0.000000 0.345716
#
# Coordination Sequence:
#
# PCOD9331056 Si02
#       4
#     8   8   8   8
#     4  10  21  44  67  95 132 176 225 285 344 409
#     4  11  24  40  68 100 134 172 229 286 344 412
#     4  11  25  47  67  93 141 191 226 282 348 422
#     4  10  21  39  67 102 132 166 224 297 349 406
#
# _framework density 22.525873000000001
#
# number of rings (size 3 to 8) (size 9 to 14) (size 15 to 20)
#    0.000    1.500    5.000    0.000    3.500    4.500 
#    4.500    0.000    0.000    0.000    0.000    0.000 
#    0.000    0.000    0.000    0.000    0.000    0.000 
#
# Total GULP energy -89245.473194 kJ/mol
# GULP energy per Si atom -5577.842075 kJ/mol
# Density = 2.247460 g / cm^3
# Si number density = 22.525873 Si / 1000 Ang^3
#
#
#
# Elastic Constant Matrix: (Units=GPa)
#
#
# Indices 1 2 3 4 5 6 
#
# 1 47.2832 47.4232 13.4880 0.0000 0.0000 0.0000
# 2 47.4232 195.5143 63.3993 0.0000 0.0000 0.0000
# 3 13.4880 63.3993 128.8376 0.0000 0.0000 0.0000
# 4 0.0000 0.0000 0.0000 8.6852 0.0000 0.0000
# 5 0.0000 0.0000 0.0000 0.0000 11.2608 0.0000
# 6 0.0000 0.0000 0.0000 0.0000 0.0000 38.6906
#
#
#
# Elastic Compliance Matrix: (Units=1/GPa)
#
#
# Indices 1 2 3 4 5 6 
#
# 1 0.027974 -0.006944 0.000488 0.000000 0.000000 0.000000
# 2 -0.006944 0.007809 -0.003116 0.000000 0.000000 0.000000
# 3 0.000488 -0.003116 0.009244 0.000000 0.000000 0.000000
# 4 0.000000 0.000000 0.000000 0.115139 0.000000 0.000000
# 5 0.000000 0.000000 0.000000 0.000000 0.088804 0.000000
# 6 0.000000 0.000000 0.000000 0.000000 0.000000 0.025846
#
#
# Mechanical properties :
#
#
# Convention : Reuss Voigt Hill
#
# Bulk Modulus (GPa) = 38.63282 68.91734 53.77508
# Shear Modulus (GPa) = 16.52419 28.21561 22.36990
#
# Velocity S-wave (km/s) = 2.71138 3.54303 3.15473
# Velocity P-wave (km/s) = 5.19517 6.88466 6.09870
#
# Compressibility (1/GPa) = 0.02588472
#
# Stress axis : x y z
#
# Youngs Moduli (GPa) = 35.74738 128.05180 108.17931
#
# Poissons Ratio (x) = 0.88914 -0.05282
# Poissons Ratio (y) = 0.24822 0.33708
# Poissons Ratio (z) = -0.01745 0.39900
#
# Static dielectric constant tensor:
#      x y z
#    x 1.944450 0.000000 0.000000 
#    y 0.000000 1.893290 0.000000 
#    z 0.000000 0.000000 1.777460 
# 
# From -- ./inp_files/7803.got.cif
#   From: 2010.05.17/outbox.cif.g08.bks.cpg/sg23_4_cif.got.tgz:7803.got - 2010.06.04 12:02:01.
