data_PCOD9331189
_publ_section_title
;
Structure prediction by ZEFSAII (Michael W. Deem and Ramdas Pophale) SiO2 
 PCOD9331189
Probable space group: I 2 2 2
;
_chemical_formula_sum "Si O2"
_cell_formula_units_Z 40
_cell_length_a 11.292585
_cell_length_b 8.339509
_cell_length_c 20.339929
_cell_angle_alpha 90.000000
_cell_angle_beta 90.000000
_cell_angle_gamma 90.000000
_cell_volume 1915.504967
_symmetry_space_group_name_H-M "I 2 2 2"
_symmetry_group_IT_number 23
_symmetry_cell_setting 'orthorhombic'
loop_
_space_group_symop_operation_xyz
x,y,z
-x,-y,z
x,-y,-z
-x,y,-z
1/2+x,1/2+y,1/2+z
1/2-x,1/2-y,1/2+z
1/2+x,1/2-y,1/2-z
1/2-x,1/2+y,1/2-z
loop_
_atom_site_type_symbol
_atom_site_label
_atom_site_fract_x
_atom_site_fract_y
_atom_site_fract_z
Si Si1 0.294081 0.493942 0.679216
Si Si2 0.173633 0.830574 0.683469
Si Si3 0.447033 0.159276 0.126395
Si Si4 0.706904 0.585406 0.067551
Si Si5 0.618584 0.632177 0.544879
O O1 0.267321 0.683451 0.683940
O O2 0.336996 0.422924 0.747898
O O3 0.168176 0.403604 0.665769
O O4 0.376668 0.448829 0.617187
O O5 0.048783 0.744619 0.668374
O O6 0.208290 0.959428 0.627418
O O7 0.399368 0.291824 0.078156
O O8 0.500000 0.000000 0.094414
O O9 0.822071 0.697280 0.058198
O O10 0.688126 0.500000 0.000000
O O11 0.688431 0.500000 0.500000
O O12 0.500000 0.656035 0.500000
#
# Coordination Sequence:
#
# PCOD9331189 Si02
#       5
#     8   8   8   8   8
#     4  10  21  42  68  96 139 171 229 284 332 417
#     4  11  22  41  68 101 132 181 224 279 348 399
#     4   9  21  41  65  95 129 170 224 274 338 399
#     4  11  23  41  63  93 136 169 223 280 331 409
#     4  10  22  44  65  96 129 180 225 273 344 401
#
# _framework density 20.882223
#
# number of rings (size 3 to 8) (size 9 to 14) (size 15 to 20)
#    0.000    1.800    0.000    4.200    0.000    2.000 
#   18.000    8.000    0.000    0.000    0.000    0.000 
#    0.000    0.000    0.000    0.000    0.000    0.000 
#
# Total GULP energy -111569.363022 kJ/mol
# GULP energy per Si atom -5578.468151 kJ/mol
# Density = 2.083469 g / cm^3
# Si number density = 20.882223 Si / 1000 Ang^3
#
#
#
# Elastic Constant Matrix: (Units=GPa)
#
#
# Indices 1 2 3 4 5 6 
#
# 1 96.0488 60.9582 50.1424 0.0000 0.0000 0.0000
# 2 60.9582 181.3263 106.0441 0.0000 0.0000 0.0000
# 3 50.1424 106.0441 198.6677 0.0000 0.0000 0.0000
# 4 0.0000 0.0000 0.0000 32.0051 0.0000 0.0000
# 5 0.0000 0.0000 0.0000 0.0000 22.2317 0.0000
# 6 0.0000 0.0000 0.0000 0.0000 0.0000 28.3561
#
#
#
# Elastic Compliance Matrix: (Units=1/GPa)
#
#
# Indices 1 2 3 4 5 6 
#
# 1 0.013510 -0.003704 -0.001433 0.000000 0.000000 0.000000
# 2 -0.003704 0.009033 -0.003887 0.000000 0.000000 0.000000
# 3 -0.001433 -0.003887 0.007470 0.000000 0.000000 0.000000
# 4 0.000000 0.000000 0.000000 0.031245 0.000000 0.000000
# 5 0.000000 0.000000 0.000000 0.000000 0.044981 0.000000
# 6 0.000000 0.000000 0.000000 0.000000 0.000000 0.035266
#
#
# Mechanical properties :
#
#
# Convention : Reuss Voigt Hill
#
# Bulk Modulus (GPa) = 83.56980 101.14802 92.35891
# Shear Modulus (GPa) = 30.57345 33.77845 32.17595
#
# Velocity S-wave (km/s) = 3.83049 4.02627 3.92960
# Velocity P-wave (km/s) = 7.72464 8.37597 8.05689
#
# Compressibility (1/GPa) = 0.01196605
#
# Stress axis : x y z
#
# Youngs Moduli (GPa) = 74.01894 110.70229 133.87057
#
# Poissons Ratio (x) = 0.41003 0.19181
# Poissons Ratio (y) = 0.27416 0.52034
# Poissons Ratio (z) = 0.10606 0.43029
#
# Static dielectric constant tensor:
#      x y z
#    x 1.828900 0.000000 0.000000 
#    y 0.000000 1.734650 0.000000 
#    z 0.000000 0.000000 1.708200 
# 
# From -- ./inp_files/23552.got.cif
#   From: 2010.05.17/outbox.cif.g08.bks.cpg/sg23_12_cif.got.tgz:23552.got - 2010.06.04 12:02:01.
