data_PCOD9331452
_publ_section_title
;
Structure prediction by ZEFSAII (Michael W. Deem and Ramdas Pophale) SiO2 
 PCOD9331452
Probable space group: I 2 2 2
;
_chemical_formula_sum "Si O2"
_cell_formula_units_Z 40
_cell_length_a 6.578377
_cell_length_b 17.217839
_cell_length_c 15.367636
_cell_angle_alpha 90.000000
_cell_angle_beta 90.000000
_cell_angle_gamma 90.000000
_cell_volume 1740.621993
_symmetry_space_group_name_H-M "I 2 2 2"
_symmetry_group_IT_number 23
_symmetry_cell_setting 'orthorhombic'
loop_
_space_group_symop_operation_xyz
x,y,z
-x,-y,z
x,-y,-z
-x,y,-z
1/2+x,1/2+y,1/2+z
1/2-x,1/2-y,1/2+z
1/2+x,1/2-y,1/2-z
1/2-x,1/2+y,1/2-z
loop_
_atom_site_type_symbol
_atom_site_label
_atom_site_fract_x
_atom_site_fract_y
_atom_site_fract_z
Si Si1 0.543462 0.408453 0.404652
Si Si2 0.594663 0.414364 0.779756
Si Si3 0.548605 0.826312 0.656294
Si Si4 0.635437 0.314502 0.081140
Si Si5 0.117722 0.692042 0.349541
O O1 0.500000 0.500000 0.410560
O O2 0.500000 0.374336 0.500000
O O3 0.410779 0.384807 0.320042
O O4 0.775333 0.387063 0.379339
O O5 0.500000 0.500000 0.781919
O O6 0.447091 0.360196 0.835182
O O7 0.813719 0.402147 0.824145
O O8 0.374207 0.829040 0.584029
O O9 0.705721 0.756811 0.636682
O O10 0.442751 0.809195 0.748918
O O11 0.572853 0.224842 0.096639
O O12 0.500000 0.342183 0.000000
#
# Coordination Sequence:
#
# PCOD9331452 Si02
#       5
#     8   8   8   8   8
#     4  10  22  41  64  96 139 185 233 289 353 426
#     4  10  23  43  66  94 135 185 231 285 364 430
#     4  11  21  40  68  98 138 177 236 294 352 431
#     4  11  25  40  65 103 131 177 239 295 359 427
#     4  11  21  38  66  96 131 178 230 288 356 416
#
# _framework density 22.980291000000001
#
# number of rings (size 3 to 8) (size 9 to 14) (size 15 to 20)
#    0.000    1.400    4.000    1.200    2.800    3.600 
#    0.000    0.000    0.000    7.200    0.000    0.000 
#    0.000    0.000    0.000    0.000    0.000    0.000 
#
# Total GULP energy -111691.367318 kJ/mol
# GULP energy per Si atom -5584.568366 kJ/mol
# Density = 2.292799 g / cm^3
# Si number density = 22.980291 Si / 1000 Ang^3
#
#
#
# Elastic Constant Matrix: (Units=GPa)
#
#
# Indices 1 2 3 4 5 6 
#
# 1 158.9329 45.1162 51.9035 0.0000 0.0000 0.0000
# 2 45.1162 84.9007 24.9179 0.0000 0.0000 0.0000
# 3 51.9035 24.9179 119.7308 0.0000 0.0000 0.0000
# 4 0.0000 0.0000 0.0000 22.2214 0.0000 0.0000
# 5 0.0000 0.0000 0.0000 0.0000 39.4304 0.0000
# 6 0.0000 0.0000 0.0000 0.0000 0.0000 39.8441
#
#
#
# Elastic Compliance Matrix: (Units=1/GPa)
#
#
# Indices 1 2 3 4 5 6 
#
# 1 0.008220 -0.003538 -0.002827 0.000000 0.000000 0.000000
# 2 -0.003538 0.014068 -0.001394 0.000000 0.000000 0.000000
# 3 -0.002827 -0.001394 0.009868 0.000000 0.000000 0.000000
# 4 0.000000 0.000000 0.000000 0.045002 0.000000 0.000000
# 5 0.000000 0.000000 0.000000 0.000000 0.025361 0.000000
# 6 0.000000 0.000000 0.000000 0.000000 0.000000 0.025098
#
#
# Mechanical properties :
#
#
# Convention : Reuss Voigt Hill
#
# Bulk Modulus (GPa) = 60.10691 67.49329 63.80010
# Shear Modulus (GPa) = 33.62947 36.40762 35.01855
#
# Velocity S-wave (km/s) = 3.82960 3.98464 3.90789
# Velocity P-wave (km/s) = 6.76514 7.11363 6.94157
#
# Compressibility (1/GPa) = 0.01663702
#
# Stress axis : x y z
#
# Youngs Moduli (GPa) = 121.66164 71.08447 101.34178
#
# Poissons Ratio (x) = 0.25151 0.28647
# Poissons Ratio (y) = 0.43046 0.14126
# Poissons Ratio (z) = 0.34392 0.09909
#
# Static dielectric constant tensor:
#      x y z
#    x 1.916610 0.000000 0.000000 
#    y 0.000000 1.912930 0.000000 
#    z 0.000000 0.000000 1.885920 
# 
# From -- ./inp_files/23019.got.cif
#   From: 2010.05.17/outbox.cif.g08.bks.cpg/sg23_12_cif.got.tgz:23019.got - 2010.06.04 12:02:01.
