data_PCOD9331499
_publ_section_title
;
Structure prediction by ZEFSAII (Michael W. Deem and Ramdas Pophale) SiO2 
 PCOD9331499
Probable space group: I 2 2 2
;
_chemical_formula_sum "Si O2"
_cell_formula_units_Z 30
_cell_length_a 10.449289
_cell_length_b 4.905169
_cell_length_c 24.775012
_cell_angle_alpha 90.000000
_cell_angle_beta 90.000000
_cell_angle_gamma 90.000000
_cell_volume 1269.856333
_symmetry_space_group_name_H-M "I 2 2 2"
_symmetry_group_IT_number 23
_symmetry_cell_setting 'orthorhombic'
loop_
_space_group_symop_operation_xyz
x,y,z
-x,-y,z
x,-y,-z
-x,y,-z
1/2+x,1/2+y,1/2+z
1/2-x,1/2-y,1/2+z
1/2+x,1/2-y,1/2-z
1/2-x,1/2+y,1/2-z
loop_
_atom_site_type_symbol
_atom_site_label
_atom_site_fract_x
_atom_site_fract_y
_atom_site_fract_z
Si Si1 0.000000 0.000000 0.820934
Si Si2 0.327895 0.370220 0.766549
Si Si3 0.724018 0.158562 0.947656
Si Si4 0.000000 0.000000 0.500000
Si Si5 0.226463 0.335282 0.877925
O O1 0.903217 0.818724 0.857321
O O2 0.062338 0.795977 0.775968
O O3 0.274269 0.637045 0.739360
O O4 0.324382 0.426220 0.830117
O O5 0.798560 0.401907 0.916087
O O6 0.700941 0.907588 0.908191
O O7 0.595065 0.307486 0.966457
O O8 0.783059 0.000000 0.000000
#
# Coordination Sequence:
#
# PCOD9331499 Si02
#       5
#     4   8   8   2   8
#     4  10  24  47  71 106 155 194 231 302 364 434
#     4  10  22  42  68 104 144 187 240 288 346 444
#     4  12  25  47  74 108 145 182 254 313 356 440
#     4  12  26  50  74  98 146 184 228 332 366 410
#     4  11  24  43  75 108 146 197 240 297 370 436
#
# _framework density 23.62472
#
# number of rings (size 3 to 8) (size 9 to 14) (size 15 to 20)
#    0.000    1.067    2.667    3.600    0.000   10.667 
#    0.000    6.000    5.867    0.000    0.000    0.000 
#    0.000    0.000    0.000    0.000    0.000    0.000 
#
# Total GULP energy -83529.484341 kJ/mol
# GULP energy per Si atom -5568.632289 kJ/mol
# Density = 2.357095 g / cm^3
# Si number density = 23.624720 Si / 1000 Ang^3
#
#
#
# Elastic Constant Matrix: (Units=GPa)
#
#
# Indices 1 2 3 4 5 6 
#
# 1 66.0138 27.3503 47.6864 0.0000 0.0000 0.0000
# 2 27.3503 156.1994 60.4769 0.0000 0.0000 0.0000
# 3 47.6864 60.4769 146.0066 0.0000 0.0000 0.0000
# 4 0.0000 0.0000 0.0000 -1.2222 0.0000 0.0000
# 5 0.0000 0.0000 0.0000 0.0000 27.7658 0.0000
# 6 0.0000 0.0000 0.0000 0.0000 0.0000 34.9057
#
#
#
# Elastic Compliance Matrix: (Units=1/GPa)
#
#
# Indices 1 2 3 4 5 6 
#
# 1 0.020000 -0.001159 -0.006052 0.000000 0.000000 0.000000
# 2 -0.001159 0.007692 -0.002808 0.000000 0.000000 0.000000
# 3 -0.006052 -0.002808 0.009989 0.000000 0.000000 0.000000
# 4 0.000000 0.000000 0.000000 -0.818217 0.000000 0.000000
# 5 0.000000 0.000000 0.000000 0.000000 0.036016 0.000000
# 6 0.000000 0.000000 0.000000 0.000000 0.000000 0.028649
#
#
# Mechanical properties :
#
#
# Convention : Reuss Voigt Hill
#
# Bulk Modulus (GPa) = 56.67717 71.02744 63.85231
# Shear Modulus (GPa) = -7.24687 27.80361 10.27837
#
# Velocity S-wave (km/s) = -1.75333 3.43430 2.08809
# Velocity P-wave (km/s) = 4.46585 6.77171 5.73585
#
# Compressibility (1/GPa) = 0.01764379
#
# Stress axis : x y z
#
# Youngs Moduli (GPa) = 49.99905 130.00487 100.11373
#
# Poissons Ratio (x) = 0.15064 0.60591
# Poissons Ratio (y) = 0.05794 0.28108
# Poissons Ratio (z) = 0.30261 0.36501
#
# Static dielectric constant tensor:
#      x y z
#    x 2.718520 0.000000 0.000000 
#    y 0.000000 1.913070 0.000000 
#    z 0.000000 0.000000 2.018650 
# 
# From -- ./inp_files/26507.got.cif
#   From: 2010.05.17/outbox.cif.g08.bks.cpg/sg23_14_cif.got.tgz:26507.got - 2010.06.04 12:02:01.
