data_PCOD9331456
_publ_section_title
;
Structure prediction by ZEFSAII (Michael W. Deem and Ramdas Pophale) SiO2 
 PCOD9331456
Probable space group: I 2 2 2
;
_chemical_formula_sum "Si O2"
_cell_formula_units_Z 56
_cell_length_a 14.970091
_cell_length_b 12.366210
_cell_length_c 14.731388
_cell_angle_alpha 90.000000
_cell_angle_beta 90.000000
_cell_angle_gamma 90.000000
_cell_volume 2727.122998
_symmetry_space_group_name_H-M "I 2 2 2"
_symmetry_group_IT_number 23
_symmetry_cell_setting 'orthorhombic'
loop_
_space_group_symop_operation_xyz
x,y,z
-x,-y,z
x,-y,-z
-x,y,-z
1/2+x,1/2+y,1/2+z
1/2-x,1/2-y,1/2+z
1/2+x,1/2-y,1/2-z
1/2-x,1/2+y,1/2-z
loop_
_atom_site_type_symbol
_atom_site_label
_atom_site_fract_x
_atom_site_fract_y
_atom_site_fract_z
Si Si1 0.174657 0.596101 0.948088
Si Si2 0.219369 0.604765 0.560099
Si Si3 0.640856 0.958320 0.746873
Si Si4 0.991193 0.878458 0.652351
Si Si5 0.043485 0.325231 0.779405
Si Si6 0.859974 0.829673 0.485501
Si Si7 0.409051 0.290407 0.466106
O O1 0.194959 0.563547 0.845401
O O2 0.123466 0.500000 0.000000
O O3 0.264228 0.615537 0.005385
O O4 0.121903 0.707938 0.954930
O O5 0.204040 0.500000 0.500000
O O6 0.188412 0.582701 0.662753
O O7 0.161498 0.702316 0.517218
O O8 0.323908 0.636514 0.556513
O O9 0.549692 0.890179 0.730217
O O10 0.615639 0.085244 0.752835
O O11 0.086394 0.854863 0.605538
O O12 0.964821 0.783728 0.720723
O O13 0.920257 0.869757 0.569425
O O14 0.000000 0.000000 0.690083
O O15 0.069297 0.285110 0.879576
O O16 0.500000 0.345796 0.500000
#
# Coordination Sequence:
#
# PCOD9331456 Si02
#       7
#     8   8   8   8   8   8   8
#     4  11  21  39  67 100 130 173 232 299 340 398
#     4  11  25  47  65 100 144 184 228 283 354 429
#     4  11  23  42  72 101 136 175 236 290 351 409
#     4  11  22  42  65  98 136 179 223 275 354 419
#     4  11  23  42  66 105 134 174 233 281 346 415
#     4  10  22  41  66  94 132 176 229 279 345 407
#     4  11  24  44  66  96 139 183 231 287 345 416
#
# _framework density 20.534462000000001
#
# number of rings (size 3 to 8) (size 9 to 14) (size 15 to 20)
#    0.000    1.143    4.286    2.571    2.000    0.571 
#    2.571    0.000    0.000    0.000    0.000    0.000 
#    0.000    0.000    0.000    0.000    0.000    0.000 
#
# Total GULP energy -156379.162202 kJ/mol
# GULP energy per Si atom -5584.970079 kJ/mol
# Density = 2.048772 g / cm^3
# Si number density = 20.534462 Si / 1000 Ang^3
#
#
#
# Elastic Constant Matrix: (Units=GPa)
#
#
# Indices 1 2 3 4 5 6 
#
# 1 63.2431 14.6310 4.0095 0.0000 0.0000 0.0000
# 2 14.6310 139.7573 36.1842 0.0000 0.0000 0.0000
# 3 4.0095 36.1842 87.4306 0.0000 0.0000 0.0000
# 4 0.0000 0.0000 0.0000 20.8708 0.0000 0.0000
# 5 0.0000 0.0000 0.0000 0.0000 20.7758 0.0000
# 6 0.0000 0.0000 0.0000 0.0000 0.0000 16.2682
#
#
#
# Elastic Compliance Matrix: (Units=1/GPa)
#
#
# Indices 1 2 3 4 5 6 
#
# 1 0.016205 -0.001685 -0.000046 0.000000 0.000000 0.000000
# 2 -0.001685 0.008189 -0.003312 0.000000 0.000000 0.000000
# 3 -0.000046 -0.003312 0.012810 0.000000 0.000000 0.000000
# 4 0.000000 0.000000 0.000000 0.047914 0.000000 0.000000
# 5 0.000000 0.000000 0.000000 0.000000 0.048133 0.000000
# 6 0.000000 0.000000 0.000000 0.000000 0.000000 0.061470
#
#
# Mechanical properties :
#
#
# Convention : Reuss Voigt Hill
#
# Bulk Modulus (GPa) = 36.87408 44.45339 40.66373
# Shear Modulus (GPa) = 23.38138 27.29003 25.33570
#
# Velocity S-wave (km/s) = 3.37804 3.64948 3.51638
# Velocity P-wave (km/s) = 5.76290 6.28120 6.02762
#
# Compressibility (1/GPa) = 0.02711932
#
# Stress axis : x y z
#
# Youngs Moduli (GPa) = 61.71077 122.11373 78.06147
#
# Poissons Ratio (x) = 0.20571 0.00359
# Poissons Ratio (y) = 0.10395 0.25853
# Poissons Ratio (z) = 0.00284 0.40443
#
# Static dielectric constant tensor:
#      x y z
#    x 1.740020 0.000000 0.000000 
#    y 0.000000 1.799210 0.000000 
#    z 0.000000 0.000000 1.701880 
# 
# From -- ./inp_files/16768.got.cif
#   From: 2010.05.17/outbox.cif.g08.bks.cpg/sg23_9_cif.got.tgz:16768.got - 2010.06.04 12:02:01.
