data_PCOD9331731
_publ_section_title
;
Structure prediction by ZEFSAII (Michael W. Deem and Ramdas Pophale) SiO2 
 PCOD9331731
Probable space group: I 2 2 2
;
_chemical_formula_sum "Si O2"
_cell_formula_units_Z 40
_cell_length_a 10.547756
_cell_length_b 18.710253
_cell_length_c 9.280193
_cell_angle_alpha 90.000000
_cell_angle_beta 90.000000
_cell_angle_gamma 90.000000
_cell_volume 1831.457070
_symmetry_space_group_name_H-M "I 2 2 2"
_symmetry_group_IT_number 23
_symmetry_cell_setting 'orthorhombic'
loop_
_space_group_symop_operation_xyz
x,y,z
-x,-y,z
x,-y,-z
-x,y,-z
1/2+x,1/2+y,1/2+z
1/2-x,1/2-y,1/2+z
1/2+x,1/2-y,1/2-z
1/2-x,1/2+y,1/2-z
loop_
_atom_site_type_symbol
_atom_site_label
_atom_site_fract_x
_atom_site_fract_y
_atom_site_fract_z
Si Si1 0.618633 0.573718 0.084803
Si Si2 0.610564 0.853839 0.585387
Si Si3 0.366834 0.570954 0.578177
Si Si4 0.184653 0.771623 0.121952
Si Si5 0.464168 0.233133 0.834783
O O1 0.752597 0.612499 0.079068
O O2 0.601273 0.558698 0.253877
O O3 0.632635 0.500000 0.000000
O O4 0.500000 0.610564 0.000000
O O5 0.500000 0.893869 0.500000
O O6 0.631357 0.777619 0.505020
O O7 0.555408 0.839300 0.743028
O O8 0.311240 0.500000 0.500000
O O9 0.500000 0.584043 0.500000
O O10 0.294470 0.646800 0.571190
O O11 0.319116 0.737887 0.170619
O O12 0.078631 0.772411 0.249198
O O13 0.500000 0.223248 0.000000
#
# Coordination Sequence:
#
# PCOD9331731 Si02
#       5
#     8   8   8   8   8
#     4  11  24  45  69  99 129 178 236 282 344 410
#     4  10  23  44  64  99 136 175 221 282 351 408
#     4  11  23  43  65  99 144 181 226 280 348 405
#     4  11  24  43  71 102 140 174 224 287 348 406
#     4  11  23  41  66 105 136 175 222 283 344 409
#
# _framework density 21.840533000000001
#
# number of rings (size 3 to 8) (size 9 to 14) (size 15 to 20)
#    0.000    1.200    2.000    5.400    2.800    0.400 
#   14.400    0.000    0.000    0.600    0.000    1.400 
#    0.000    0.000    0.000    0.000    0.000    0.000 
#
# Total GULP energy -111605.258418 kJ/mol
# GULP energy per Si atom -5580.262921 kJ/mol
# Density = 2.179082 g / cm^3
# Si number density = 21.840533 Si / 1000 Ang^3
#
#
#
# Elastic Constant Matrix: (Units=GPa)
#
#
# Indices 1 2 3 4 5 6 
#
# 1 171.0980 45.4546 61.5067 0.0000 0.0000 0.0000
# 2 45.4546 81.2438 45.5351 0.0001 0.0000 0.0000
# 3 61.5067 45.5351 182.1378 0.0002 0.0001 0.0001
# 4 0.0000 0.0001 0.0002 14.3188 0.0000 0.0000
# 5 0.0000 0.0000 0.0001 0.0000 39.3225 0.0000
# 6 0.0000 0.0000 0.0001 0.0000 0.0000 31.9065
#
#
#
# Elastic Compliance Matrix: (Units=1/GPa)
#
#
# Indices 1 2 3 4 5 6 
#
# 1 0.007279 -0.003134 -0.001675 0.000000 0.000000 0.000000
# 2 -0.003134 0.015664 -0.002858 0.000000 0.000000 0.000000
# 3 -0.001675 -0.002858 0.006770 0.000000 0.000000 0.000000
# 4 0.000000 0.000000 0.000000 0.069838 0.000000 0.000000
# 5 0.000000 0.000000 0.000000 0.000000 0.025431 0.000000
# 6 0.000000 0.000000 0.000000 0.000000 0.000000 0.031342
#
#
# Mechanical properties :
#
#
# Convention : Reuss Voigt Hill
#
# Bulk Modulus (GPa) = 69.53804 82.16359 75.85081
# Shear Modulus (GPa) = 28.33664 35.90843 32.12254
#
# Velocity S-wave (km/s) = 3.60590 4.05917 3.83923
# Velocity P-wave (km/s) = 7.01746 7.72468 7.37955
#
# Compressibility (1/GPa) = 0.01438062
#
# Stress axis : x y z
#
# Youngs Moduli (GPa) = 137.37784 63.84186 147.70436
#
# Poissons Ratio (x) = 0.20008 0.24735
# Poissons Ratio (y) = 0.43054 0.42209
# Poissons Ratio (z) = 0.23006 0.18244
#
# Static dielectric constant tensor:
#      x y z
#    x 1.867030 0.000000 0.000000 
#    y 0.000000 1.875890 0.000000 
#    z 0.000000 0.000000 1.842850 
# 
# From -- ./inp_files/8471.got.cif
#   From: 2010.05.17/outbox.cif.g08.bks.cpg/sg23_5_cif.got.tgz:8471.got - 2010.06.04 12:02:01.
