data_PCOD9331682
_publ_section_title
;
Structure prediction by ZEFSAII (Michael W. Deem and Ramdas Pophale) SiO2 
 PCOD9331682
Probable space group: I 2 2 2
;
_chemical_formula_sum "Si O2"
_cell_formula_units_Z 40
_cell_length_a 13.961306
_cell_length_b 8.324974
_cell_length_c 14.291611
_cell_angle_alpha 90.000000
_cell_angle_beta 90.000000
_cell_angle_gamma 90.000000
_cell_volume 1661.078353
_symmetry_space_group_name_H-M "I 2 2 2"
_symmetry_group_IT_number 23
_symmetry_cell_setting 'orthorhombic'
loop_
_space_group_symop_operation_xyz
x,y,z
-x,-y,z
x,-y,-z
-x,y,-z
1/2+x,1/2+y,1/2+z
1/2-x,1/2-y,1/2+z
1/2+x,1/2-y,1/2-z
1/2-x,1/2+y,1/2-z
loop_
_atom_site_type_symbol
_atom_site_label
_atom_site_fract_x
_atom_site_fract_y
_atom_site_fract_z
Si Si1 0.858576 0.558891 0.148212
Si Si2 0.500000 0.500000 0.500000
Si Si3 0.860454 0.827442 0.854984
Si Si4 0.860455 0.327442 0.645017
Si Si5 0.500000 0.500000 0.000000
Si Si6 0.358577 0.558891 0.851788
Si Si7 0.500000 0.000000 0.500000
Si Si8 0.000000 0.500000 0.500000
O O1 0.859452 0.365567 0.145445
O O2 0.888238 0.617674 0.250185
O O3 0.750000 0.615430 0.129505
O O4 0.931680 0.603937 0.067052
O O5 0.430251 0.401166 0.431052
O O6 0.750000 0.881904 0.869638
O O7 0.888238 0.882323 0.750185
O O8 0.930251 0.401165 0.568948
O O9 0.068320 0.103937 0.567052
O O10 0.359452 0.365567 0.854552
#
# Coordination Sequence:
#
# PCOD9331682 Si02
#       8
#     8   2   8   8   2   8   2   2
#     4  10  23  42  62  87 121 159 198 243 296 353
#     4  12  22  36  64  94 118 152 200 250 294 348
#     4  10  23  42  62  87 121 159 198 243 296 353
#     4  10  23  42  62  87 121 159 198 243 296 353
#     4  12  22  36  64  94 118 152 200 250 294 348
#     4  10  23  42  62  87 121 159 198 243 296 353
#     4  12  22  36  64  94 118 152 200 250 294 348
#     4  12  22  36  64  94 118 152 200 250 294 348
#
# _framework density 24.080741
#
# number of rings (size 3 to 8) (size 9 to 14) (size 15 to 20)
#    0.000    1.600    0.000    3.600    0.000    9.600 
#    0.000    8.000    0.000    0.000    0.000    0.000 
#    0.000    0.000    0.000    0.000    0.000    0.000 
#
# Total GULP energy -112142.494682 kJ/mol
# GULP energy per Si atom -5607.124734 kJ/mol
# Density = 2.402593 g / cm^3
# Si number density = 24.080741 Si / 1000 Ang^3
#
#
#
# Elastic Constant Matrix: (Units=GPa)
#
#
# Indices 1 2 3 4 5 6 
#
# 1 144.2323 31.3143 131.8789 0.0000 0.0000 0.0000
# 2 31.3143 53.1856 47.6752 0.0000 0.0000 0.0000
# 3 131.8789 47.6752 219.2396 0.0000 0.0000 0.0000
# 4 0.0000 0.0000 0.0000 34.3091 0.0000 0.0000
# 5 0.0000 0.0000 0.0000 0.0000 64.6716 0.0000
# 6 0.0000 0.0000 0.0000 0.0000 0.0000 28.6453
#
#
#
# Elastic Compliance Matrix: (Units=1/GPa)
#
#
# Indices 1 2 3 4 5 6 
#
# 1 0.015446 -0.000951 -0.009084 0.000000 0.000000 0.000000
# 2 -0.000951 0.023413 -0.004519 0.000000 0.000000 0.000000
# 3 -0.009084 -0.004519 0.011009 0.000000 0.000000 0.000000
# 4 0.000000 0.000000 0.000000 0.029147 0.000000 0.000000
# 5 0.000000 0.000000 0.000000 0.000000 0.015463 0.000000
# 6 0.000000 0.000000 0.000000 0.000000 0.000000 0.034910
#
#
# Mechanical properties :
#
#
# Convention : Reuss Voigt Hill
#
# Bulk Modulus (GPa) = 48.17372 93.15490 70.66431
# Shear Modulus (GPa) = 30.22683 39.24448 34.73565
#
# Velocity S-wave (km/s) = 3.54676 4.04134 3.80210
# Velocity P-wave (km/s) = 6.06805 7.78106 6.97733
#
# Compressibility (1/GPa) = 0.02075821
#
# Stress axis : x y z
#
# Youngs Moduli (GPa) = 64.74111 42.71119 90.83850
#
# Poissons Ratio (x) = 0.04062 0.82522
# Poissons Ratio (y) = 0.06157 0.41052
# Poissons Ratio (z) = 0.58814 0.19302
#
# Static dielectric constant tensor:
#      x y z
#    x 1.960380 0.000000 0.000000 
#    y 0.000000 1.903650 0.000000 
#    z 0.000000 0.000000 1.876470 
# 
# From -- ./inp_files/20727.got.cif
#   From: 2010.05.17/outbox.cif.g08.bks.cpg/sg23_11_cif.got.tgz:20727.got - 2010.06.04 12:02:01.
