data_PCOD9331827
_publ_section_title
;
Structure prediction by ZEFSAII (Michael W. Deem and Ramdas Pophale) SiO2 
 PCOD9331827
Probable space group: I 2 2 2
;
_chemical_formula_sum "Si O2"
_cell_formula_units_Z 58
_cell_length_a 9.424629
_cell_length_b 26.265042
_cell_length_c 11.712990
_cell_angle_alpha 90.000000
_cell_angle_beta 90.000000
_cell_angle_gamma 90.000000
_cell_volume 2899.413357
_symmetry_space_group_name_H-M "I 2 2 2"
_symmetry_group_IT_number 23
_symmetry_cell_setting 'orthorhombic'
loop_
_space_group_symop_operation_xyz
x,y,z
-x,-y,z
x,-y,-z
-x,y,-z
1/2+x,1/2+y,1/2+z
1/2-x,1/2-y,1/2+z
1/2+x,1/2-y,1/2-z
1/2-x,1/2+y,1/2-z
loop_
_atom_site_type_symbol
_atom_site_label
_atom_site_fract_x
_atom_site_fract_y
_atom_site_fract_z
Si Si1 0.000000 0.000000 0.000000
Si Si2 0.550880 0.103668 0.867369
Si Si3 0.137727 0.825591 0.072555
Si Si4 0.189739 0.966358 0.807142
Si Si5 0.510011 0.601266 0.867590
Si Si6 0.246704 0.585749 0.717642
Si Si7 0.317430 0.785314 0.872358
Si Si8 0.544302 0.288239 0.218081
O O1 0.091348 0.964680 0.918033
O O2 0.666767 0.062004 0.836584
O O3 0.419919 0.095889 0.781168
O O4 0.623818 0.158119 0.849602
O O5 0.500000 0.098882 0.000000
O O6 0.207351 0.878059 0.112701
O O7 0.070658 0.797910 0.181296
O O8 0.242168 0.790983 0.996408
O O9 0.000000 0.838860 0.000000
O O10 0.103279 0.939227 0.704831
O O11 0.222347 0.025993 0.792539
O O12 0.349477 0.602779 0.819357
O O13 0.571137 0.657696 0.843414
O O14 0.500000 0.588807 0.000000
O O15 0.455404 0.749619 0.862503
O O16 0.190110 0.772071 0.782391
#
# Coordination Sequence:
#
# PCOD9331827 Si02
#       8
#     2   8   8   8   8   8   8   8
#     4  12  24  36  72 104 140 188 230 298 360 428
#     4  12  25  41  64 103 145 176 220 295 361 427
#     4   9  21  41  64  98 138 172 225 286 350 418
#     4  12  25  41  67 104 140 182 236 287 362 429
#     4  11  25  48  70 101 139 186 248 293 337 436
#     4  11  23  41  67  99 134 186 225 283 361 422
#     4  11  23  42  68  97 139 178 229 291 352 419
#     4  10  24  41  70  98 135 181 233 286 351 422
#
# _framework density 20.004047
#
# number of rings (size 3 to 8) (size 9 to 14) (size 15 to 20)
#    0.000    1.103    4.138    1.241    4.828    3.310 
#    0.000    0.690    0.000    1.655    0.000    0.000 
#    0.000    0.000    0.000    0.000    0.000    0.000 
#
# Total GULP energy -161957.133158 kJ/mol
# GULP energy per Si atom -5584.728730 kJ/mol
# Density = 1.995852 g / cm^3
# Si number density = 20.004047 Si / 1000 Ang^3
#
#
#
# Elastic Constant Matrix: (Units=GPa)
#
#
# Indices 1 2 3 4 5 6 
#
# 1 122.3188 15.7872 46.6462 0.0000 0.0000 0.0000
# 2 15.7872 50.7656 21.0693 0.0000 0.0000 0.0000
# 3 46.6462 21.0693 104.2085 0.0002 0.0003 -0.0001
# 4 0.0000 0.0000 0.0002 13.7867 0.0000 0.0000
# 5 0.0000 0.0000 0.0003 0.0000 20.8721 0.0000
# 6 0.0000 0.0000 -0.0001 0.0000 0.0000 48.1741
#
#
#
# Elastic Compliance Matrix: (Units=1/GPa)
#
#
# Indices 1 2 3 4 5 6 
#
# 1 0.009943 -0.001359 -0.004176 0.000000 0.000000 0.000000
# 2 -0.001359 0.021688 -0.003777 0.000000 0.000000 0.000000
# 3 -0.004176 -0.003777 0.012229 0.000000 0.000000 0.000000
# 4 0.000000 0.000000 0.000000 0.072534 0.000000 0.000000
# 5 0.000000 0.000000 0.000000 0.000000 0.047911 0.000000
# 6 0.000000 0.000000 0.000000 0.000000 0.000000 0.020758
#
#
# Mechanical properties :
#
#
# Convention : Reuss Voigt Hill
#
# Bulk Modulus (GPa) = 39.62408 49.36648 44.49528
# Shear Modulus (GPa) = 23.57381 29.48591 26.52986
#
# Velocity S-wave (km/s) = 3.43658 3.84343 3.64569
# Velocity P-wave (km/s) = 5.96639 6.66542 6.32557
#
# Compressibility (1/GPa) = 0.02523718
#
# Stress axis : x y z
#
# Youngs Moduli (GPa) = 100.57012 46.10743 81.77240
#
# Poissons Ratio (x) = 0.06266 0.34149
# Poissons Ratio (y) = 0.13667 0.30883
# Poissons Ratio (z) = 0.41999 0.17414
#
# Static dielectric constant tensor:
#      x y z
#    x 1.805600 0.000000 0.000000 
#    y 0.000000 1.725850 0.000000 
#    z 0.000000 0.000000 1.730150 
# 
# From -- ./inp_files/14912.got.cif
#   From: 2010.05.17/outbox.cif.g08.bks.cpg/sg23_8_cif.got.tgz:14912.got - 2010.06.04 12:02:01.
