data_PCOD9331781
_publ_section_title
;
Structure prediction by ZEFSAII (Michael W. Deem and Ramdas Pophale) SiO2 
 PCOD9331781
Probable space group: I 2 2 2
;
_chemical_formula_sum "Si O2"
_cell_formula_units_Z 40
_cell_length_a 24.127287
_cell_length_b 5.214655
_cell_length_c 13.047268
_cell_angle_alpha 90.000000
_cell_angle_beta 90.000000
_cell_angle_gamma 90.000000
_cell_volume 1641.548257
_symmetry_space_group_name_H-M "I 2 2 2"
_symmetry_group_IT_number 23
_symmetry_cell_setting 'orthorhombic'
loop_
_space_group_symop_operation_xyz
x,y,z
-x,-y,z
x,-y,-z
-x,y,-z
1/2+x,1/2+y,1/2+z
1/2-x,1/2-y,1/2+z
1/2+x,1/2-y,1/2-z
1/2-x,1/2+y,1/2-z
loop_
_atom_site_type_symbol
_atom_site_label
_atom_site_fract_x
_atom_site_fract_y
_atom_site_fract_z
Si Si1 0.379721 0.462246 0.622845
Si Si2 0.750020 0.493485 0.375982
Si Si3 0.183011 0.990977 0.624234
Si Si4 0.060025 0.089455 0.618632
Si Si5 0.435770 0.960770 0.718353
O O1 0.383453 0.500000 0.500000
O O2 0.314589 0.477595 0.650534
O O3 0.413406 0.700914 0.667979
O O4 0.403503 0.194164 0.665311
O O5 0.750718 0.500000 0.500000
O O6 0.787796 0.254402 0.343860
O O7 0.780143 0.752424 0.343325
O O8 0.118575 0.967769 0.652386
O O9 0.183330 0.000000 0.500000
O O10 0.066951 0.385067 0.658571
O O11 0.057262 0.000000 0.500000
O O12 0.000000 0.000000 0.662126
O O13 0.500000 0.000000 0.695583
#
# Coordination Sequence:
#
# PCOD9331781 Si02
#       5
#     8   8   8   8   8
#     4  11  24  44  72 104 143 190 235 288 364 440
#     4   9  18  36  63  97 135 178 229 286 351 426
#     4   9  18  35  63  97 133 177 233 291 349 421
#     4  10  23  46  72 101 139 191 244 298 365 430
#     4  12  26  45  69 103 144 184 239 305 357 424
#
# _framework density 24.367236999999999
#
# number of rings (size 3 to 8) (size 9 to 14) (size 15 to 20)
#    0.000    1.800    0.000    3.600    0.000    8.800 
#    0.000   19.000    0.000    0.000    0.000    0.000 
#    0.000    0.000    0.000    0.000    0.000    0.000 
#
# Total GULP energy -111834.390258 kJ/mol
# GULP energy per Si atom -5591.719513 kJ/mol
# Density = 2.431178 g / cm^3
# Si number density = 24.367237 Si / 1000 Ang^3
#
#
#
# Elastic Constant Matrix: (Units=GPa)
#
#
# Indices 1 2 3 4 5 6 
#
# 1 234.8830 92.1830 55.1424 0.0000 0.0000 0.0000
# 2 92.1830 202.9561 57.5935 0.0000 0.0000 0.0000
# 3 55.1424 57.5935 142.1101 0.0000 0.0000 0.0000
# 4 0.0000 0.0000 0.0000 7.1042 0.0000 0.0000
# 5 0.0000 0.0000 0.0000 0.0000 44.2008 0.0000
# 6 0.0000 0.0000 0.0000 0.0000 0.0000 39.7957
#
#
#
# Elastic Compliance Matrix: (Units=1/GPa)
#
#
# Indices 1 2 3 4 5 6 
#
# 1 0.005367 -0.002087 -0.001237 0.000000 0.000000 0.000000
# 2 -0.002087 0.006379 -0.001775 0.000000 0.000000 0.000000
# 3 -0.001237 -0.001775 0.008236 0.000000 0.000000 0.000000
# 4 0.000000 0.000000 0.000000 0.140762 0.000000 0.000000
# 5 0.000000 0.000000 0.000000 0.000000 0.022624 0.000000
# 6 0.000000 0.000000 0.000000 0.000000 0.000000 0.025128
#
#
# Mechanical properties :
#
#
# Convention : Reuss Voigt Hill
#
# Bulk Modulus (GPa) = 102.20783 109.97633 106.09208
# Shear Modulus (GPa) = 22.52710 43.22215 32.87462
#
# Velocity S-wave (km/s) = 3.04383 4.21620 3.67704
# Velocity P-wave (km/s) = 7.37489 8.30257 7.85244
#
# Compressibility (1/GPa) = 0.00978399
#
# Stress axis : x y z
#
# Youngs Moduli (GPa) = 186.33408 156.77058 121.41436
#
# Poissons Ratio (x) = 0.32712 0.15016
# Poissons Ratio (y) = 0.38881 0.21557
# Poissons Ratio (z) = 0.23045 0.27834
#
# Static dielectric constant tensor:
#      x y z
#    x 1.855440 0.000000 0.000000 
#    y 0.000000 1.796520 0.000000 
#    z 0.000000 0.000000 2.094280 
# 
# From -- ./inp_files/22518.got.cif
#   From: 2010.05.17/outbox.cif.g08.bks.cpg/sg23_12_cif.got.tgz:22518.got - 2010.06.04 12:02:01.
