data_PCOD9331068
_publ_section_title
;
Structure prediction by ZEFSAII (Michael W. Deem and Ramdas Pophale) SiO2 
 PCOD9331068
Probable space group: I 2 2 2
;
_chemical_formula_sum "Si O2"
_cell_formula_units_Z 58
_cell_length_a 11.163480
_cell_length_b 28.318350
_cell_length_c 8.982536
_cell_angle_alpha 90.000000
_cell_angle_beta 90.000000
_cell_angle_gamma 90.000000
_cell_volume 2839.661087
_symmetry_space_group_name_H-M "I 2 2 2"
_symmetry_group_IT_number 23
_symmetry_cell_setting 'orthorhombic'
loop_
_space_group_symop_operation_xyz
x,y,z
-x,-y,z
x,-y,-z
-x,y,-z
1/2+x,1/2+y,1/2+z
1/2-x,1/2-y,1/2+z
1/2+x,1/2-y,1/2-z
1/2-x,1/2+y,1/2-z
loop_
_atom_site_type_symbol
_atom_site_label
_atom_site_fract_x
_atom_site_fract_y
_atom_site_fract_z
Si Si1 0.364568 0.507440 0.325810
Si Si2 0.615160 0.392232 0.216616
Si Si3 0.702715 0.191206 0.698984
Si Si4 0.240731 0.289297 0.148493
Si Si5 0.500000 0.000000 0.500000
Si Si6 0.844656 0.436622 0.777318
Si Si7 0.872420 0.122822 0.369434
Si Si8 0.461799 0.154068 0.831489
O O1 0.500000 0.500000 0.257835
O O2 0.377348 0.500000 0.500000
O O3 0.330016 0.560952 0.285374
O O4 0.255707 0.473177 0.281859
O O5 0.691760 0.345563 0.242980
O O6 0.472678 0.391943 0.249982
O O7 0.609151 0.393621 0.038040
O O8 0.725529 0.237445 0.797541
O O9 0.701619 0.206106 0.524557
O O10 0.578735 0.164778 0.733073
O O11 0.360721 0.321266 0.147832
O O12 0.143274 0.312383 0.262679
O O13 0.422398 0.965949 0.394124
O O14 0.758882 0.397372 0.846788
O O15 0.925163 0.401830 0.675199
O O16 0.500000 0.166145 0.000000
#
# Coordination Sequence:
#
# PCOD9331068 Si02
#       8
#     8   8   8   8   2   8   8   8
#     4  11  24  43  66  97 137 176 230 288 355 422
#     4  10  21  39  69  94 127 173 217 282 338 419
#     4  11  24  42  71 103 138 179 232 285 356 424
#     4  10  23  43  69 101 140 178 228 290 347 429
#     4  12  28  40  72 100 132 184 238 290 352 456
#     4  11  25  42  65  96 135 177 228 289 349 420
#     4   9  20  41  65  95 129 165 222 278 345 401
#     4  11  26  44  68  97 141 188 234 290 353 425
#
# _framework density 20.424970999999999
#
# number of rings (size 3 to 8) (size 9 to 14) (size 15 to 20)
#    0.000    1.517    1.379    2.069   11.586    0.000 
#    0.000    0.000    0.000    0.000    0.000    0.000 
#    0.000    0.000    0.000    0.000    0.000    0.000 
#
# Total GULP energy -161452.285829 kJ/mol
# GULP energy per Si atom -5567.320201 kJ/mol
# Density = 2.037848 g / cm^3
# Si number density = 20.424971 Si / 1000 Ang^3
#
#
#
# Elastic Constant Matrix: (Units=GPa)
#
#
# Indices 1 2 3 4 5 6 
#
# 1 80.5802 32.6445 23.2286 -0.0001 0.0003 0.0003
# 2 32.6445 139.4535 49.9924 0.0002 0.0003 0.0000
# 3 23.2286 49.9924 62.5988 -0.0001 -0.0012 0.0021
# 4 -0.0001 0.0002 -0.0001 43.9037 -0.0002 0.0004
# 5 0.0003 0.0003 -0.0012 -0.0002 54.2076 0.0001
# 6 0.0003 0.0000 0.0021 0.0004 0.0001 45.3972
#
#
#
# Elastic Compliance Matrix: (Units=1/GPa)
#
#
# Indices 1 2 3 4 5 6 
#
# 1 0.014293 -0.002024 -0.003687 0.000000 0.000000 0.000000
# 2 -0.002024 0.010334 -0.007502 0.000000 0.000000 0.000000
# 3 -0.003687 -0.007502 0.023334 0.000000 0.000001 -0.000001
# 4 0.000000 0.000000 0.000000 0.022777 0.000000 0.000000
# 5 0.000000 0.000000 0.000001 0.000000 0.018448 0.000000
# 6 0.000000 0.000000 -0.000001 0.000000 0.000000 0.022028
#
#
# Mechanical properties :
#
#
# Convention : Reuss Voigt Hill
#
# Bulk Modulus (GPa) = 46.43666 54.92927 50.68297
# Shear Modulus (GPa) = 34.52616 40.48617 37.50616
#
# Velocity S-wave (km/s) = 4.11590 4.45701 4.28984
# Velocity P-wave (km/s) = 6.73588 7.31014 7.02888
#
# Compressibility (1/GPa) = 0.02153471
#
# Stress axis : x y z
#
# Youngs Moduli (GPa) = 69.96500 96.76853 42.85583
#
# Poissons Ratio (x) = 0.19585 0.15802
# Poissons Ratio (y) = 0.14160 0.32150
# Poissons Ratio (z) = 0.25798 0.72594
#
# Static dielectric constant tensor:
#      x y z
#    x 1.988860 0.000000 0.000000 
#    y 0.000000 1.707940 0.000000 
#    z 0.000000 0.000000 1.723750 
# 
# From -- ./inp_files/8855.got.cif
#   From: 2010.05.17/outbox.cif.g08.bks.cpg/sg23_5_cif.got.tgz:8855.got - 2010.06.04 12:02:01.
