data_PCOD9331749
_publ_section_title
;
Structure prediction by ZEFSAII (Michael W. Deem and Ramdas Pophale) SiO2 
 PCOD9331749
Probable space group: I 2 2 2
;
_chemical_formula_sum "Si O2"
_cell_formula_units_Z 64
_cell_length_a 11.518429
_cell_length_b 7.826196
_cell_length_c 32.262042
_cell_angle_alpha 90.000000
_cell_angle_beta 90.000000
_cell_angle_gamma 90.000000
_cell_volume 2908.277358
_symmetry_space_group_name_H-M "I 2 2 2"
_symmetry_group_IT_number 23
_symmetry_cell_setting 'orthorhombic'
loop_
_space_group_symop_operation_xyz
x,y,z
-x,-y,z
x,-y,-z
-x,y,-z
1/2+x,1/2+y,1/2+z
1/2-x,1/2-y,1/2+z
1/2+x,1/2-y,1/2-z
1/2-x,1/2+y,1/2-z
loop_
_atom_site_type_symbol
_atom_site_label
_atom_site_fract_x
_atom_site_fract_y
_atom_site_fract_z
Si Si1 0.633081 0.955094 0.746580
Si Si2 0.285636 0.863834 0.895983
Si Si3 0.493371 0.791179 0.952490
Si Si4 0.204748 0.747224 0.310185
Si Si5 0.552506 0.669884 0.809165
Si Si6 0.319433 0.250203 0.888404
Si Si7 0.361384 0.174169 0.449383
Si Si8 0.635255 0.772668 0.538834
O O1 0.725300 0.899704 0.711853
O O2 0.610724 0.795065 0.776909
O O3 0.500000 0.000000 0.732451
O O4 0.690503 0.102074 0.774929
O O5 0.382722 0.761946 0.922550
O O6 0.234662 0.786788 0.853885
O O7 0.185166 0.867120 0.930178
O O8 0.334434 0.047167 0.881615
O O9 0.599993 0.710836 0.927627
O O10 0.500000 0.000000 0.953899
O O11 0.500000 0.732972 0.000000
O O12 0.070236 0.757382 0.325301
O O13 0.500000 0.500000 0.788416
O O14 0.636912 0.649286 0.848320
O O15 0.190637 0.272199 0.905547
O O16 0.316664 0.258428 0.492367
O O17 0.496870 0.217017 0.454866
O O18 0.335231 0.971410 0.451894
#
# Coordination Sequence:
#
# PCOD9331749 Si02
#       8
#     8   8   8   8   8   8   8   8
#     4  10  23  44  71  97 129 176 223 278 344 428
#     4  11  21  36  61  89 129 165 208 264 328 390
#     4   9  18  31  52  87 126 162 198 244 309 382
#     4  11  22  43  67  94 130 169 211 275 343 407
#     4  11  23  40  65  97 130 169 216 267 341 410
#     4  11  21  35  59  94 124 165 211 267 318 394
#     4   9  20  39  60  84 123 168 228 269 327 396
#     4   9  20  40  60  83 121 177 216 275 332 389
#
# _framework density 22.006153000000001
#
# number of rings (size 3 to 8) (size 9 to 14) (size 15 to 20)
#    0.000    1.875    2.500    2.250    1.750    2.000 
#    2.250    2.500    5.500    2.250    0.000    0.000 
#    0.000    0.000    0.000    0.000    0.000    0.000 
#
# Total GULP energy -178276.875463 kJ/mol
# GULP energy per Si atom -5571.152358 kJ/mol
# Density = 2.195607 g / cm^3
# Si number density = 22.006153 Si / 1000 Ang^3
#
#
#
# Elastic Constant Matrix: (Units=GPa)
#
#
# Indices 1 2 3 4 5 6 
#
# 1 66.3537 14.8276 42.8826 0.0000 0.0000 0.0000
# 2 14.8276 38.8466 19.4859 0.0000 0.0000 0.0000
# 3 42.8826 19.4859 110.8863 0.0000 0.0000 0.0000
# 4 0.0000 0.0000 0.0000 25.3767 0.0000 0.0000
# 5 0.0000 0.0000 0.0000 0.0000 32.6050 0.0000
# 6 0.0000 0.0000 0.0000 0.0000 0.0000 31.7482
#
#
#
# Elastic Compliance Matrix: (Units=1/GPa)
#
#
# Indices 1 2 3 4 5 6 
#
# 1 0.020717 -0.004265 -0.007262 0.000000 0.000000 0.000000
# 2 -0.004265 0.029109 -0.003466 0.000000 0.000000 0.000000
# 3 -0.007262 -0.003466 0.012436 0.000000 0.000000 0.000000
# 4 0.000000 0.000000 0.000000 0.039406 0.000000 0.000000
# 5 0.000000 0.000000 0.000000 0.000000 0.030670 0.000000
# 6 0.000000 0.000000 0.000000 0.000000 0.000000 0.031498
#
#
# Mechanical properties :
#
#
# Convention : Reuss Voigt Hill
#
# Bulk Modulus (GPa) = 30.98320 41.16430 36.07375
# Shear Modulus (GPa) = 24.44020 27.20536 25.82278
#
# Velocity S-wave (km/s) = 3.33619 3.51987 3.42926
# Velocity P-wave (km/s) = 5.38053 5.93849 5.66639
#
# Compressibility (1/GPa) = 0.03227556
#
# Stress axis : x y z
#
# Youngs Moduli (GPa) = 48.26883 34.35397 80.41235
#
# Poissons Ratio (x) = 0.14651 0.58399
# Poissons Ratio (y) = 0.20585 0.27871
# Poissons Ratio (z) = 0.35055 0.11907
#
# Static dielectric constant tensor:
#      x y z
#    x 1.905320 0.000000 0.000000 
#    y 0.000000 1.931780 0.000000 
#    z 0.000000 0.000000 1.794890 
# 
# From -- ./inp_files/30499.got.cif
#   From: 2010.05.17/outbox.cif.g08.bks.cpg/sg23_16_cif.got.tgz:30499.got - 2010.06.04 12:02:01.
