data_PCOD9331049
_publ_section_title
;
Structure prediction by ZEFSAII (Michael W. Deem and Ramdas Pophale) SiO2 
 PCOD9331049
Probable space group: I 2 2 2
;
_chemical_formula_sum "Si O2"
_cell_formula_units_Z 58
_cell_length_a 5.335570
_cell_length_b 17.862320
_cell_length_c 27.725796
_cell_angle_alpha 90.000000
_cell_angle_beta 90.000000
_cell_angle_gamma 90.000000
_cell_volume 2642.425251
_symmetry_space_group_name_H-M "I 2 2 2"
_symmetry_group_IT_number 23
_symmetry_cell_setting 'orthorhombic'
loop_
_space_group_symop_operation_xyz
x,y,z
-x,-y,z
x,-y,-z
-x,y,-z
1/2+x,1/2+y,1/2+z
1/2-x,1/2-y,1/2+z
1/2+x,1/2-y,1/2-z
1/2-x,1/2+y,1/2-z
loop_
_atom_site_type_symbol
_atom_site_label
_atom_site_fract_x
_atom_site_fract_y
_atom_site_fract_z
Si Si1 0.337124 0.075536 0.180416
Si Si2 0.700792 0.372739 0.935062
Si Si3 0.000000 0.000000 0.500000
Si Si4 0.001299 0.083076 0.083344
Si Si5 0.301376 0.211967 0.040517
Si Si6 0.741619 0.547833 0.786757
Si Si7 0.127273 0.685368 0.629779
Si Si8 0.689587 0.155070 0.625507
O O1 0.162646 0.078479 0.133099
O O2 0.198767 0.073045 0.231427
O O3 0.511827 0.149371 0.177378
O O4 0.500000 0.000000 0.177689
O O5 0.670466 0.445909 0.967375
O O6 0.759613 0.298979 0.967834
O O7 0.430348 0.364310 0.908169
O O8 0.933347 0.374113 0.898315
O O9 0.100941 0.147065 0.047800
O O10 0.737501 0.114173 0.101363
O O11 0.000000 0.000000 0.062548
O O12 0.415960 0.215493 0.094171
O O13 0.500000 0.189833 0.000000
O O14 0.500000 0.500000 0.801965
O O15 0.770910 0.615872 0.823399
O O16 0.000000 0.500000 0.787935
O O17 0.316664 0.754581 0.632953
#
# Coordination Sequence:
#
# PCOD9331049 Si02
#       8
#     8   8   2   8   8   8   8   8
#     4  10  21  39  66  96 130 175 231 284 336 428
#     4  11  25  45  72 101 143 183 240 293 357 428
#     4  12  28  46  76 114 132 200 252 302 360 450
#     4  11  20  38  69  92 128 176 233 283 354 423
#     4  10  22  43  62  94 137 180 220 291 361 422
#     4  11  25  44  68 101 139 188 231 289 361 413
#     4  10  22  41  65  95 130 180 223 281 352 413
#     4  11  25  47  68 101 146 185 227 298 360 423
#
# _framework density 21.949532999999999
#
# number of rings (size 3 to 8) (size 9 to 14) (size 15 to 20)
#    0.000    1.379    3.448    1.241    4.828    1.655 
#    2.483    2.069    0.000    0.000    0.000    0.000 
#    0.000    0.000    0.000    0.000    0.000    0.000 
#
# Total GULP energy -161972.853983 kJ/mol
# GULP energy per Si atom -5585.270827 kJ/mol
# Density = 2.189958 g / cm^3
# Si number density = 21.949533 Si / 1000 Ang^3
#
#
#
# Elastic Constant Matrix: (Units=GPa)
#
#
# Indices 1 2 3 4 5 6 
#
# 1 82.3900 22.7614 13.5309 0.0000 0.0000 0.0000
# 2 22.7614 148.0268 36.0207 0.0000 0.0000 0.0000
# 3 13.5309 36.0207 66.5866 0.0000 0.0000 0.0000
# 4 0.0000 0.0000 0.0000 55.0072 0.0000 0.0000
# 5 0.0000 0.0000 0.0000 0.0000 25.6321 0.0000
# 6 0.0000 0.0000 0.0000 0.0000 0.0000 27.3608
#
#
#
# Elastic Compliance Matrix: (Units=1/GPa)
#
#
# Indices 1 2 3 4 5 6 
#
# 1 0.012856 -0.001544 -0.001777 0.000000 0.000000 0.000000
# 2 -0.001544 0.007965 -0.003995 0.000000 0.000000 0.000000
# 3 -0.001777 -0.003995 0.017540 0.000000 0.000000 0.000000
# 4 0.000000 0.000000 0.000000 0.018179 0.000000 0.000000
# 5 0.000000 0.000000 0.000000 0.000000 0.039014 0.000000
# 6 0.000000 0.000000 0.000000 0.000000 0.000000 0.036549
#
#
# Mechanical properties :
#
#
# Convention : Reuss Voigt Hill
#
# Bulk Modulus (GPa) = 42.14324 49.06995 45.60660
# Shear Modulus (GPa) = 32.33207 36.57937 34.45572
#
# Velocity S-wave (km/s) = 3.84216 4.08673 3.96633
# Velocity P-wave (km/s) = 6.23896 6.68378 6.46520
#
# Compressibility (1/GPa) = 0.02372860
#
# Stress axis : x y z
#
# Youngs Moduli (GPa) = 77.78538 125.54701 57.01170
#
# Poissons Ratio (x) = 0.19389 0.10131
# Poissons Ratio (y) = 0.12013 0.22776
# Poissons Ratio (z) = 0.13822 0.50156
#
# Static dielectric constant tensor:
#      x y z
#    x 1.870330 0.000000 0.000000 
#    y 0.000000 1.854090 0.000000 
#    z 0.000000 0.000000 1.807980 
# 
# From -- ./inp_files/29031.got.cif
#   From: 2010.05.17/outbox.cif.g08.bks.cpg/sg23_15_cif.got.tgz:29031.got - 2010.06.04 12:02:01.
