data_PCOD9331651
_publ_section_title
;
Structure prediction by ZEFSAII (Michael W. Deem and Ramdas Pophale) SiO2 
 PCOD9331651
Probable space group: I 2 2 2
;
_chemical_formula_sum "Si O2"
_cell_formula_units_Z 44
_cell_length_a 14.503133
_cell_length_b 8.802676
_cell_length_c 16.576878
_cell_angle_alpha 90.000000
_cell_angle_beta 90.000000
_cell_angle_gamma 90.000000
_cell_volume 2116.310019
_symmetry_space_group_name_H-M "I 2 2 2"
_symmetry_group_IT_number 23
_symmetry_cell_setting 'orthorhombic'
loop_
_space_group_symop_operation_xyz
x,y,z
-x,-y,z
x,-y,-z
-x,y,-z
1/2+x,1/2+y,1/2+z
1/2-x,1/2-y,1/2+z
1/2+x,1/2-y,1/2-z
1/2-x,1/2+y,1/2-z
loop_
_atom_site_type_symbol
_atom_site_label
_atom_site_fract_x
_atom_site_fract_y
_atom_site_fract_z
Si Si1 0.000000 0.500000 0.836079
Si Si2 0.855247 0.159955 0.295546
Si Si3 0.190393 0.509014 0.261924
Si Si4 0.255220 0.869188 0.067075
Si Si5 0.903712 0.824726 0.522140
Si Si6 0.049568 0.161225 0.872322
O O1 0.907698 0.486570 0.781431
O O2 0.994094 0.667440 0.880385
O O3 0.800809 0.313907 0.278087
O O4 0.777005 0.033306 0.293382
O O5 0.897654 0.181386 0.382131
O O6 0.927626 0.140922 0.223192
O O7 0.202011 0.423527 0.347408
O O8 0.149112 0.828861 0.084845
O O9 0.318219 0.742356 0.026455
O O10 0.255751 0.000000 0.000000
O O11 0.000000 0.745531 0.500000
O O12 0.907683 0.000000 0.500000
O O13 0.000000 0.000000 0.896757
#
# Coordination Sequence:
#
# PCOD9331651 Si02
#       6
#     4   8   8   8   8   8
#     4  10  24  40  69 105 128 180 240 282 344 410
#     4  10  23  43  64 100 131 183 220 282 342 415
#     4  10  23  40  68  96 131 177 226 276 344 409
#     4  11  24  45  68  98 138 184 223 290 355 412
#     4  11  27  42  68 103 141 176 224 292 358 416
#     4  10  25  44  72  99 138 185 240 283 342 425
#
# _framework density 20.790903
#
# number of rings (size 3 to 8) (size 9 to 14) (size 15 to 20)
#    0.000    1.636    1.818    0.000   20.364    0.727 
#    0.000    0.000    0.000    1.091    0.000    0.000 
#    0.000    0.000    0.000    0.000    0.000    0.000 
#
# Total GULP energy -122711.710543 kJ/mol
# GULP energy per Si atom -5577.805025 kJ/mol
# Density = 2.074358 g / cm^3
# Si number density = 20.790903 Si / 1000 Ang^3
#
#
#
# Elastic Constant Matrix: (Units=GPa)
#
#
# Indices 1 2 3 4 5 6 
#
# 1 84.7450 50.7713 36.9665 0.0000 0.0000 0.0000
# 2 50.7713 120.6612 17.1577 0.0000 0.0000 0.0000
# 3 36.9665 17.1577 77.9400 0.0000 0.0000 0.0000
# 4 0.0000 0.0000 0.0000 1.7103 0.0000 0.0000
# 5 0.0000 0.0000 0.0000 0.0000 28.2703 0.0000
# 6 0.0000 0.0000 0.0000 0.0000 0.0000 39.5914
#
#
#
# Elastic Compliance Matrix: (Units=1/GPa)
#
#
# Indices 1 2 3 4 5 6 
#
# 1 0.019357 -0.007060 -0.007627 0.000000 0.000000 0.000000
# 2 -0.007060 0.011131 0.000898 0.000000 0.000000 0.000000
# 3 -0.007627 0.000898 0.016250 0.000000 0.000000 0.000000
# 4 0.000000 0.000000 0.000000 0.584704 0.000000 0.000000
# 5 0.000000 0.000000 0.000000 0.000000 0.035373 0.000000
# 6 0.000000 0.000000 0.000000 0.000000 0.000000 0.025258
#
#
# Mechanical properties :
#
#
# Convention : Reuss Voigt Hill
#
# Bulk Modulus (GPa) = 52.19131 54.79304 53.49218
# Shear Modulus (GPa) = 6.88671 25.81111 16.34891
#
# Velocity S-wave (km/s) = 1.82197 3.52726 2.80723
# Velocity P-wave (km/s) = 5.43907 6.55746 6.02428
#
# Compressibility (1/GPa) = 0.01916028
#
# Stress axis : x y z
#
# Youngs Moduli (GPa) = 51.66143 89.84109 61.53910
#
# Poissons Ratio (x) = 0.63431 0.46933
# Poissons Ratio (y) = 0.36475 -0.05529
# Poissons Ratio (z) = 0.39400 -0.08071
#
# Static dielectric constant tensor:
#      x y z
#    x 1.785550 0.000000 0.000000 
#    y 0.000000 1.731880 0.000000 
#    z 0.000000 0.000000 1.678870 
# 
# From -- ./inp_files/10979.got.cif
#   From: 2010.05.17/outbox.cif.g08.bks.cpg/sg23_6_cif.got.tgz:10979.got - 2010.06.04 12:02:01.
