data_PCOD9331924
_publ_section_title
;
Structure prediction by ZEFSAII (Michael W. Deem and Ramdas Pophale) SiO2 
 PCOD9331924
Probable space group: I 2 2 2
;
_chemical_formula_sum "Si O2"
_cell_formula_units_Z 30
_cell_length_a 14.676527
_cell_length_b 6.738318
_cell_length_c 11.158605
_cell_angle_alpha 90.000000
_cell_angle_beta 90.000000
_cell_angle_gamma 90.000000
_cell_volume 1103.531425
_symmetry_space_group_name_H-M "I 2 2 2"
_symmetry_group_IT_number 23
_symmetry_cell_setting 'orthorhombic'
loop_
_space_group_symop_operation_xyz
x,y,z
-x,-y,z
x,-y,-z
-x,y,-z
1/2+x,1/2+y,1/2+z
1/2-x,1/2-y,1/2+z
1/2+x,1/2-y,1/2-z
1/2-x,1/2+y,1/2-z
loop_
_atom_site_type_symbol
_atom_site_label
_atom_site_fract_x
_atom_site_fract_y
_atom_site_fract_z
Si Si1 0.571431 0.628760 0.285572
Si Si2 0.242139 0.135630 0.617634
Si Si3 0.000000 0.500000 0.500000
Si Si4 0.928506 0.373617 0.737397
Si Si5 0.315883 0.500000 0.500000
O O1 0.646771 0.606163 0.181647
O O2 0.545405 0.368088 0.281891
O O3 0.618447 0.630151 0.416050
O O4 0.548758 0.878518 0.265653
O O5 0.326510 0.114637 0.708988
O O6 0.253019 0.360010 0.576471
O O7 0.251929 0.000000 0.500000
O O8 0.938716 0.370328 0.591355
#
# Coordination Sequence:
#
# PCOD9331924 Si02
#       5
#     8   8   2   8   4
#     4  12  28  50  79 120 162 213 274 340 406 477
#     4  12  30  51  84 120 165 217 277 333 416 494
#     4   8  24  46  78 108 162 208 276 346 394 490
#     4  10  24  47  80 114 159 214 271 334 413 473
#     4  12  29  51  85 117 172 214 272 352 394 496
#
# _framework density 27.185452000000002
#
# number of rings (size 3 to 8) (size 9 to 14) (size 15 to 20)
#    0.800    0.000    2.667    2.000    7.467    9.600 
#    0.000    0.000    0.000    0.000    0.000    0.000 
#    0.000    0.000    0.000    0.000    0.000    0.000 
#
# Total GULP energy -83935.382653 kJ/mol
# GULP energy per Si atom -5595.692177 kJ/mol
# Density = 2.712358 g / cm^3
# Si number density = 27.185452 Si / 1000 Ang^3
#
#
#
# Elastic Constant Matrix: (Units=GPa)
#
#
# Indices 1 2 3 4 5 6 
#
# 1 196.8035 71.7144 66.9464 0.0000 0.0000 0.0000
# 2 71.7144 161.7476 26.0172 0.0000 0.0000 0.0000
# 3 66.9464 26.0172 156.2449 0.0000 0.0000 0.0000
# 4 0.0000 0.0000 0.0000 60.1147 0.0000 0.0000
# 5 0.0000 0.0000 0.0000 0.0000 61.8028 0.0000
# 6 0.0000 0.0000 0.0000 0.0000 0.0000 61.6587
#
#
#
# Elastic Compliance Matrix: (Units=1/GPa)
#
#
# Indices 1 2 3 4 5 6 
#
# 1 0.006905 -0.002657 -0.002516 0.000000 0.000000 0.000000
# 2 -0.002657 0.007375 -0.000090 0.000000 0.000000 0.000000
# 3 -0.002516 -0.000090 0.007493 0.000000 0.000000 0.000000
# 4 0.000000 0.000000 0.000000 0.016635 0.000000 0.000000
# 5 0.000000 0.000000 0.000000 0.000000 0.016180 0.000000
# 6 0.000000 0.000000 0.000000 0.000000 0.000000 0.016218
#
#
# Mechanical properties :
#
#
# Convention : Reuss Voigt Hill
#
# Bulk Modulus (GPa) = 88.90595 93.79464 91.35029
# Shear Modulus (GPa) = 58.76673 60.05646 59.41159
#
# Velocity S-wave (km/s) = 4.65445 4.70525 4.67992
# Velocity P-wave (km/s) = 7.85237 8.00599 7.92955
#
# Compressibility (1/GPa) = 0.01124784
#
# Stress axis : x y z
#
# Youngs Moduli (GPa) = 144.81535 135.59545 133.45244
#
# Poissons Ratio (x) = 0.36026 0.33581
# Poissons Ratio (y) = 0.38476 0.01196
# Poissons Ratio (z) = 0.36440 0.01215
#
# Static dielectric constant tensor:
#      x y z
#    x 2.192600 0.000000 0.000000 
#    y 0.000000 2.088450 0.000000 
#    z 0.000000 0.000000 1.962920 
# 
# From -- ./inp_files/17737.got.cif
#   From: 2010.05.17/outbox.cif.g08.bks.cpg/sg23_9_cif.got.tgz:17737.got - 2010.06.04 12:02:01.
