data_PCOD9331138
_publ_section_title
;
Structure prediction by ZEFSAII (Michael W. Deem and Ramdas Pophale) SiO2 
 PCOD9331138
Probable space group: I 2 2 2
;
_chemical_formula_sum "Si O2"
_cell_formula_units_Z 56
_cell_length_a 13.259530
_cell_length_b 14.071170
_cell_length_c 14.194362
_cell_angle_alpha 90.000000
_cell_angle_beta 90.000000
_cell_angle_gamma 90.000000
_cell_volume 2648.342909
_symmetry_space_group_name_H-M "I 2 2 2"
_symmetry_group_IT_number 23
_symmetry_cell_setting 'orthorhombic'
loop_
_space_group_symop_operation_xyz
x,y,z
-x,-y,z
x,-y,-z
-x,y,-z
1/2+x,1/2+y,1/2+z
1/2-x,1/2-y,1/2+z
1/2+x,1/2-y,1/2-z
1/2-x,1/2+y,1/2-z
loop_
_atom_site_type_symbol
_atom_site_label
_atom_site_fract_x
_atom_site_fract_y
_atom_site_fract_z
Si Si1 0.533527 0.608240 0.298644
Si Si2 0.404275 0.039305 0.782918
Si Si3 0.671664 0.964208 0.403061
Si Si4 0.725014 0.580505 0.423065
Si Si5 0.300507 0.713610 0.066224
Si Si6 0.679593 0.641747 0.127647
Si Si7 0.631894 0.245463 0.275835
O O1 0.500000 0.500000 0.285274
O O2 0.618471 0.607050 0.378321
O O3 0.591218 0.640116 0.203666
O O4 0.440526 0.677205 0.322433
O O5 0.301661 0.043496 0.842232
O O6 0.421969 0.145201 0.744316
O O7 0.500000 0.000000 0.839097
O O8 0.390017 0.973080 0.692121
O O9 0.706772 0.857842 0.422884
O O10 0.622594 0.000000 0.500000
O O11 0.765736 0.038311 0.384589
O O12 0.714840 0.500000 0.500000
O O13 0.772499 0.678725 0.458183
O O14 0.345469 0.714933 0.171042
O O15 0.357751 0.672692 0.975454
O O16 0.767432 0.713385 0.167227
#
# Coordination Sequence:
#
# PCOD9331138 Si02
#       7
#     8   8   8   8   8   8   8
#     4  12  25  44  71  98 141 186 234 292 357 427
#     4  10  22  41  69  97 131 181 230 285 350 412
#     4   9  18  36  65  97 127 170 217 286 350 408
#     4  11  26  46  64 102 142 187 238 284 348 426
#     4  10  21  40  71  95 136 180 222 287 356 409
#     4  10  21  44  66  98 139 174 228 293 352 417
#     4  10  23  41  64 102 132 173 236 272 351 425
#
# _framework density 21.145298
#
# number of rings (size 3 to 8) (size 9 to 14) (size 15 to 20)
#    0.000    1.714    4.286    0.857    4.000    2.571 
#    0.000    3.571    0.000    0.000    0.000    0.000 
#    0.000    0.000    0.000    0.000    0.000    0.000 
#
# Total GULP energy -156295.289870 kJ/mol
# GULP energy per Si atom -5581.974638 kJ/mol
# Density = 2.109717 g / cm^3
# Si number density = 21.145298 Si / 1000 Ang^3
#
#
#
# Elastic Constant Matrix: (Units=GPa)
#
#
# Indices 1 2 3 4 5 6 
#
# 1 -27.3716 -40.7964 -64.0518 0.0000 0.0000 0.0000
# 2 -40.7964 -7.2773 -22.0226 0.0000 0.0000 0.0000
# 3 -64.0518 -22.0226 20.8833 0.0000 0.0000 0.0000
# 4 0.0000 0.0000 0.0000 -0.3262 0.0000 0.0000
# 5 0.0000 0.0000 0.0000 0.0000 -10.5904 0.0000
# 6 0.0000 0.0000 0.0000 0.0000 0.0000 22.0270
#
#
#
# Elastic Compliance Matrix: (Units=1/GPa)
#
#
# Indices 1 2 3 4 5 6 
#
# 1 0.006211 -0.022061 -0.004215 0.000000 0.000000 0.000000
# 2 -0.022061 0.045576 -0.019601 0.000001 0.000000 0.000000
# 3 -0.004215 -0.019601 0.014286 0.000000 0.000000 0.000000
# 4 0.000000 0.000001 0.000000 -3.065536 -0.000001 0.000000
# 5 0.000000 0.000000 0.000000 -0.000001 -0.094425 0.000000
# 6 0.000000 0.000000 0.000000 0.000000 0.000000 0.045399
#
#
# Mechanical properties :
#
#
# Convention : Reuss Voigt Hill
#
# Bulk Modulus (GPa) = -38.93768 -29.72302 -34.33035
# Shear Modulus (GPa) = -1.68617 9.76243 4.03813
#
# Velocity S-wave (km/s) = -0.89395 2.15101 1.38342
# Velocity P-wave (km/s) = 4.41813 2.81388 3.70390
#
# Compressibility (1/GPa) = -0.02568207
#
# Stress axis : x y z
#
# Youngs Moduli (GPa) = 161.01180 21.94142 69.99937
#
# Poissons Ratio (x) = 0.48405 0.29507
# Poissons Ratio (y) = 3.55206 1.37207
# Poissons Ratio (z) = 0.67871 0.43008
#
# Static dielectric constant tensor:
#      x y z
#    x 1.785730 0.000000 0.000000 
#    y 0.000000 1.763720 0.000000 
#    z 0.000000 0.000000 1.787160 
# 
# From -- ./inp_files/20894.got.cif
#   From: 2010.05.17/outbox.cif.g08.bks.cpg/sg23_11_cif.got.tgz:20894.got - 2010.06.04 12:02:01.
