data_PCOD9331329
_publ_section_title
;
Structure prediction by ZEFSAII (Michael W. Deem and Ramdas Pophale) SiO2 
 PCOD9331329
Probable space group: I 2 2 2
;
_chemical_formula_sum "Si O2"
_cell_formula_units_Z 48
_cell_length_a 12.349609
_cell_length_b 23.439923
_cell_length_c 8.807354
_cell_angle_alpha 90.000000
_cell_angle_beta 90.000000
_cell_angle_gamma 90.000000
_cell_volume 2549.498970
_symmetry_space_group_name_H-M "I 2 2 2"
_symmetry_group_IT_number 23
_symmetry_cell_setting 'orthorhombic'
loop_
_space_group_symop_operation_xyz
x,y,z
-x,-y,z
x,-y,-z
-x,y,-z
1/2+x,1/2+y,1/2+z
1/2-x,1/2-y,1/2+z
1/2+x,1/2-y,1/2-z
1/2-x,1/2+y,1/2-z
loop_
_atom_site_type_symbol
_atom_site_label
_atom_site_fract_x
_atom_site_fract_y
_atom_site_fract_z
Si Si1 0.858171 0.343265 0.263780
Si Si2 0.831637 0.993579 0.680483
Si Si3 0.000000 0.727564 0.500000
Si Si4 0.994126 0.905713 0.315098
Si Si5 0.612411 0.293827 0.264120
Si Si6 0.500000 0.790398 0.500000
Si Si7 0.614952 0.021852 0.826415
O O1 0.735068 0.318395 0.263501
O O2 0.921406 0.327862 0.107670
O O3 0.866726 0.410500 0.302272
O O4 0.926044 0.310427 0.391602
O O5 0.712343 0.992402 0.740044
O O6 0.900272 0.049135 0.728244
O O7 0.832606 0.000000 0.500000
O O8 0.895534 0.937098 0.727056
O O9 0.919054 0.764221 0.395306
O O10 0.000000 0.898093 0.500000
O O11 0.968485 0.847652 0.231819
O O12 0.577589 0.249718 0.395600
O O13 0.500000 0.000000 0.766596
O O14 0.620583 0.000000 0.000000
#
# Coordination Sequence:
#
# PCOD9331329 Si02
#       7
#     8   8   4   8   8   4   8
#     4  11  23  44  62  86 128 162 206 264 302 365
#     4   9  19  36  59  88 122 157 196 244 297 361
#     4  10  22  38  63  89 118 168 206 250 314 366
#     4   9  17  35  60  91 122 153 195 244 302 365
#     4  11  20  39  65  92 124 161 203 256 313 370
#     4  10  26  40  61  97 120 158 216 252 306 376
#     4  11  24  41  59  85 119 162 204 245 309 366
#
# _framework density 18.827228999999999
#
# number of rings (size 3 to 8) (size 9 to 14) (size 15 to 20)
#    0.000    1.833    2.500    3.000    0.000    3.000 
#    0.000    4.167    0.000    0.000    0.000    0.000 
#    0.000    0.000    0.000    0.000    0.000    0.000 
#
# Total GULP energy -133853.855547 kJ/mol
# GULP energy per Si atom -5577.243981 kJ/mol
# Density = 1.878438 g / cm^3
# Si number density = 18.827229 Si / 1000 Ang^3
#
#
#
# Elastic Constant Matrix: (Units=GPa)
#
#
# Indices 1 2 3 4 5 6 
#
# 1 144.0760 54.0912 33.4276 -0.0004 -0.0001 0.0000
# 2 54.0912 105.1590 45.3066 0.0003 0.0002 0.0003
# 3 33.4276 45.3066 62.9420 0.0041 0.0011 0.0026
# 4 -0.0004 0.0003 0.0041 6.9627 0.0002 0.0016
# 5 -0.0001 0.0002 0.0011 0.0002 38.5823 0.0006
# 6 0.0000 0.0003 0.0026 0.0016 0.0006 18.0027
#
#
#
# Elastic Compliance Matrix: (Units=1/GPa)
#
#
# Indices 1 2 3 4 5 6 
#
# 1 0.008780 -0.003634 -0.002047 0.000002 0.000000 0.000000
# 2 -0.003634 0.015289 -0.009075 0.000004 0.000000 0.000001
# 3 -0.002047 -0.009075 0.023507 -0.000013 -0.000001 -0.000003
# 4 0.000002 0.000004 -0.000013 0.143622 -0.000001 -0.000012
# 5 0.000000 0.000000 -0.000001 -0.000001 0.025919 -0.000001
# 6 0.000000 0.000001 -0.000003 -0.000012 -0.000001 0.055547
#
#
# Mechanical properties :
#
#
# Convention : Reuss Voigt Hill
#
# Bulk Modulus (GPa) = 55.36040 64.20309 59.78174
# Shear Modulus (GPa) = 16.22338 24.66631 20.44485
#
# Velocity S-wave (km/s) = 2.93865 3.62351 3.29890
# Velocity P-wave (km/s) = 6.40176 7.18900 6.80677
#
# Compressibility (1/GPa) = 0.01806345
#
# Stress axis : x y z
#
# Youngs Moduli (GPa) = 113.89285 65.40797 42.54065
#
# Poissons Ratio (x) = 0.23772 0.08708
# Poissons Ratio (y) = 0.41393 0.38605
# Poissons Ratio (z) = 0.23313 0.59357
#
# Static dielectric constant tensor:
#      x y z
#    x 1.640990 0.000000 0.000000 
#    y 0.000000 1.662120 -0.000010 
#    z 0.000000 -0.000010 1.735130 
# 
# From -- ./inp_files/8706.got.cif
#   From: 2010.05.17/outbox.cif.g08.bks.cpg/sg23_5_cif.got.tgz:8706.got - 2010.06.04 12:02:01.
