data_PCOD9331098
_publ_section_title
;
Structure prediction by ZEFSAII (Michael W. Deem and Ramdas Pophale) SiO2 
 PCOD9331098
Probable space group: I 2 2 2
;
_chemical_formula_sum "Si O2"
_cell_formula_units_Z 48
_cell_length_a 9.734115
_cell_length_b 7.875447
_cell_length_c 28.519041
_cell_angle_alpha 90.000000
_cell_angle_beta 90.000000
_cell_angle_gamma 90.000000
_cell_volume 2186.284136
_symmetry_space_group_name_H-M "I 2 2 2"
_symmetry_group_IT_number 23
_symmetry_cell_setting 'orthorhombic'
loop_
_space_group_symop_operation_xyz
x,y,z
-x,-y,z
x,-y,-z
-x,y,-z
1/2+x,1/2+y,1/2+z
1/2-x,1/2-y,1/2+z
1/2+x,1/2-y,1/2-z
1/2-x,1/2+y,1/2-z
loop_
_atom_site_type_symbol
_atom_site_label
_atom_site_fract_x
_atom_site_fract_y
_atom_site_fract_z
Si Si1 0.155294 0.200805 0.998559
Si Si2 0.191892 0.199045 0.407669
Si Si3 0.145485 0.407011 0.313495
Si Si4 0.415449 0.819982 0.931267
Si Si5 0.648304 0.600773 0.149746
Si Si6 0.847863 0.053439 0.743904
O O1 0.205984 0.248361 0.947350
O O2 0.285634 0.221294 0.035192
O O3 0.000000 0.275793 0.000000
O O4 0.139448 0.000000 0.000000
O O5 0.179826 0.336026 0.365417
O O6 0.043891 0.191563 0.433656
O O7 0.232578 0.022377 0.384210
O O8 0.146106 0.235660 0.281463
O O9 0.253287 0.530238 0.288675
O O10 0.000000 0.500000 0.311023
O O11 0.365912 0.777848 0.877658
O O12 0.500000 0.000000 0.938832
O O13 0.500000 0.500000 0.151873
O O14 0.698284 0.578496 0.202541
O O15 0.000000 0.000000 0.758191
#
# Coordination Sequence:
#
# PCOD9331098 Si02
#       6
#     8   8   8   8   8   8
#     4  11  24  41  59  90 131 161 207 265 316 381
#     4  10  21  40  64  90 122 164 215 258 314 374
#     4  11  23  39  65  95 126 169 211 261 318 375
#     4  11  20  36  66  91 114 164 212 255 310 368
#     4   8  19  38  62  93 126 158 209 269 305 368
#     4  10  21  42  62  93 133 165 208 263 316 378
#
# _framework density 21.955061000000001
#
# number of rings (size 3 to 8) (size 9 to 14) (size 15 to 20)
#    0.000    1.833    1.667    3.000    0.000    2.000 
#    3.000    7.500    0.000    0.000    0.000    0.000 
#    0.000    0.000    0.000    0.000    0.000    0.000 
#
# Total GULP energy -133681.758274 kJ/mol
# GULP energy per Si atom -5570.073261 kJ/mol
# Density = 2.190509 g / cm^3
# Si number density = 21.955061 Si / 1000 Ang^3
#
#
#
# Elastic Constant Matrix: (Units=GPa)
#
#
# Indices 1 2 3 4 5 6 
#
# 1 142.2043 34.0498 104.3801 0.0000 0.0000 0.0000
# 2 34.0498 93.8948 41.2102 0.0000 0.0000 0.0000
# 3 104.3801 41.2102 154.9316 0.0000 0.0000 0.0000
# 4 0.0000 0.0000 0.0000 26.0875 0.0000 0.0000
# 5 0.0000 0.0000 0.0000 0.0000 54.0255 0.0000
# 6 0.0000 0.0000 0.0000 0.0000 0.0000 -16.1143
#
#
#
# Elastic Compliance Matrix: (Units=1/GPa)
#
#
# Indices 1 2 3 4 5 6 
#
# 1 0.014005 -0.001061 -0.009153 0.000000 0.000000 0.000000
# 2 -0.001061 0.012138 -0.002514 0.000000 0.000000 0.000000
# 3 -0.009153 -0.002514 0.013289 0.000000 0.000000 0.000000
# 4 0.000000 0.000000 0.000000 0.038333 0.000000 0.000000
# 5 0.000000 0.000000 0.000000 0.000000 0.018510 0.000000
# 6 0.000000 0.000000 0.000000 0.000000 0.000000 -0.062057
#
#
# Mechanical properties :
#
#
# Convention : Reuss Voigt Hill
#
# Bulk Modulus (GPa) = 71.54736 83.36788 77.45762
# Shear Modulus (GPa) = 77.72140 26.89245 52.30693
#
# Velocity S-wave (km/s) = 5.95626 3.50363 4.88633
# Velocity P-wave (km/s) = 8.94213 7.37711 8.19705
#
# Compressibility (1/GPa) = 0.01397676
#
# Stress axis : x y z
#
# Youngs Moduli (GPa) = 71.40517 82.38363 75.24766
#
# Poissons Ratio (x) = 0.08745 0.68873
# Poissons Ratio (y) = 0.07579 0.18914
# Poissons Ratio (z) = 0.65356 0.20708
#
# Static dielectric constant tensor:
#      x y z
#    x 1.848630 0.000000 0.000000 
#    y 0.000000 1.912780 0.000000 
#    z 0.000000 0.000000 1.850730 
# 
# From -- ./inp_files/30256.got.cif
#   From: 2010.05.17/outbox.cif.g08.bks.cpg/sg23_16_cif.got.tgz:30256.got - 2010.06.04 12:02:01.
