data_PCOD9331590
_publ_section_title
;
Structure prediction by ZEFSAII (Michael W. Deem and Ramdas Pophale) SiO2 
 PCOD9331590
Probable space group: I 2 2 2
;
_chemical_formula_sum "Si O2"
_cell_formula_units_Z 32
_cell_length_a 13.182505
_cell_length_b 5.260443
_cell_length_c 18.132815
_cell_angle_alpha 90.000000
_cell_angle_beta 90.000000
_cell_angle_gamma 90.000000
_cell_volume 1257.434855
_symmetry_space_group_name_H-M "I 2 2 2"
_symmetry_group_IT_number 23
_symmetry_cell_setting 'orthorhombic'
loop_
_space_group_symop_operation_xyz
x,y,z
-x,-y,z
x,-y,-z
-x,y,-z
1/2+x,1/2+y,1/2+z
1/2-x,1/2-y,1/2+z
1/2+x,1/2-y,1/2-z
1/2-x,1/2+y,1/2-z
loop_
_atom_site_type_symbol
_atom_site_label
_atom_site_fract_x
_atom_site_fract_y
_atom_site_fract_z
Si Si1 0.401718 0.672347 0.796477
Si Si2 0.113651 0.747819 0.467766
Si Si3 0.618940 0.523079 0.588274
Si Si4 0.812902 0.532705 0.827403
O O1 0.500000 0.500000 0.783959
O O2 0.400003 0.762047 0.880992
O O3 0.298635 0.505589 0.793001
O O4 0.387743 0.903894 0.740358
O O5 0.164855 0.500000 0.500000
O O6 0.000000 0.751305 0.500000
O O7 0.164369 0.000000 0.500000
O O8 0.500000 0.500000 0.609464
O O9 0.620735 0.500000 0.500000
O O10 0.678260 0.286407 0.623718
O O11 0.659086 0.787084 0.623393
#
# Coordination Sequence:
#
# PCOD9331590 Si02
#       4
#     8   8   8   8
#     4  12  28  55  79 114 174 210 273 343 409 498
#     4  10  22  46  73 112 145 212 259 314 402 480
#     4  11  26  54  83 115 160 209 274 344 405 481
#     4  12  28  49  80 124 153 220 272 335 415 488
#
# _framework density 25.448634999999999
#
# number of rings (size 3 to 8) (size 9 to 14) (size 15 to 20)
#    0.000    0.750    2.500    3.750    0.000   13.000 
#    9.000    0.000    0.000    0.000    0.000    0.000 
#    0.000    0.000    0.000    0.000    0.000    0.000 
#
# Total GULP energy -89777.104299 kJ/mol
# GULP energy per Si atom -5611.069019 kJ/mol
# Density = 2.539071 g / cm^3
# Si number density = 25.448635 Si / 1000 Ang^3
#
#
#
# Elastic Constant Matrix: (Units=GPa)
#
#
# Indices 1 2 3 4 5 6 
#
# 1 180.0564 57.1635 24.8707 0.0000 0.0000 0.0000
# 2 57.1635 252.1635 96.3180 0.0000 0.0000 0.0000
# 3 24.8707 96.3180 229.4651 0.0000 0.0000 0.0000
# 4 0.0000 0.0000 0.0000 51.1305 0.0000 0.0000
# 5 0.0000 0.0000 0.0000 0.0000 36.2834 0.0000
# 6 0.0000 0.0000 0.0000 0.0000 0.0000 31.5503
#
#
#
# Elastic Compliance Matrix: (Units=1/GPa)
#
#
# Indices 1 2 3 4 5 6 
#
# 1 0.005986 -0.001321 -0.000094 0.000000 0.000000 0.000000
# 2 -0.001321 0.005014 -0.001962 0.000000 0.000000 0.000000
# 3 -0.000094 -0.001962 0.005192 0.000000 0.000000 0.000000
# 4 0.000000 0.000000 0.000000 0.019558 0.000000 0.000000
# 5 0.000000 0.000000 0.000000 0.000000 0.027561 0.000000
# 6 0.000000 0.000000 0.000000 0.000000 0.000000 0.031695
#
#
# Mechanical properties :
#
#
# Convention : Reuss Voigt Hill
#
# Bulk Modulus (GPa) = 105.95116 113.15438 109.55277
# Shear Modulus (GPa) = 47.66158 56.01502 51.83830
#
# Velocity S-wave (km/s) = 4.33234 4.69668 4.51819
# Velocity P-wave (km/s) = 8.17003 8.60070 8.38813
#
# Compressibility (1/GPa) = 0.00943831
#
# Stress axis : x y z
#
# Youngs Moduli (GPa) = 167.05004 199.42496 192.61969
#
# Poissons Ratio (x) = 0.26344 0.01817
# Poissons Ratio (y) = 0.22067 0.37785
# Poissons Ratio (z) = 0.01576 0.39120
#
# Static dielectric constant tensor:
#      x y z
#    x 1.974840 0.000000 0.000000 
#    y 0.000000 1.842250 0.000000 
#    z 0.000000 0.000000 1.976470 
# 
# From -- ./inp_files/24537.got.cif
#   From: 2010.05.17/outbox.cif.g08.bks.cpg/sg23_13_cif.got.tgz:24537.got - 2010.06.04 12:02:01.
