data_PCOD9331739
_publ_section_title
;
Structure prediction by ZEFSAII (Michael W. Deem and Ramdas Pophale) SiO2 
 PCOD9331739
Probable space group: I 2 2 2
;
_chemical_formula_sum "Si O2"
_cell_formula_units_Z 44
_cell_length_a 11.585291
_cell_length_b 25.138212
_cell_length_c 6.658367
_cell_angle_alpha 90.000000
_cell_angle_beta 90.000000
_cell_angle_gamma 90.000000
_cell_volume 1939.139534
_symmetry_space_group_name_H-M "I 2 2 2"
_symmetry_group_IT_number 23
_symmetry_cell_setting 'orthorhombic'
loop_
_space_group_symop_operation_xyz
x,y,z
-x,-y,z
x,-y,-z
-x,y,-z
1/2+x,1/2+y,1/2+z
1/2-x,1/2-y,1/2+z
1/2+x,1/2-y,1/2-z
1/2-x,1/2+y,1/2-z
loop_
_atom_site_type_symbol
_atom_site_label
_atom_site_fract_x
_atom_site_fract_y
_atom_site_fract_z
Si Si1 0.386144 0.099982 0.642700
Si Si2 0.127963 0.696365 0.088587
Si Si3 0.882260 0.186012 0.128653
Si Si4 0.689233 0.886790 0.065529
Si Si5 0.000000 0.136089 0.500000
Si Si6 0.308696 0.551994 0.096488
O O1 0.500000 0.093659 0.500000
O O2 0.327666 0.156836 0.583310
O O3 0.290880 0.059186 0.570928
O O4 0.394160 0.097878 0.881150
O O5 0.175301 0.755172 0.120391
O O6 0.136557 0.658706 0.285502
O O7 0.000000 0.705018 0.000000
O O8 0.929218 0.172326 0.347722
O O9 0.798802 0.141737 0.037263
O O10 0.000000 0.185682 0.000000
O O11 0.736522 0.936435 0.197919
O O12 0.905497 0.097820 0.602209
O O13 0.366967 0.500000 0.000000
#
# Coordination Sequence:
#
# PCOD9331739 Si02
#       6
#     8   8   8   8   4   8
#     4  10  23  44  66  99 139 179 239 292 348 425
#     4   9  23  39  63  98 139 186 234 284 345 423
#     4  11  23  40  66 101 142 189 231 285 358 431
#     4  11  23  42  70  98 139 187 234 291 358 431
#     4  12  23  44  66 102 148 178 236 303 350 438
#     4  11  25  44  70 100 135 182 233 303 361 423
#
# _framework density 22.690477000000001
#
# number of rings (size 3 to 8) (size 9 to 14) (size 15 to 20)
#    0.000    1.455    3.636    0.273    2.545   12.000 
#    0.000    0.000    0.000    8.727    0.000    0.000 
#    0.000    0.000    0.000    0.000    0.000    0.000 
#
# Total GULP energy -122544.135063 kJ/mol
# GULP energy per Si atom -5570.187957 kJ/mol
# Density = 2.263883 g / cm^3
# Si number density = 22.690477 Si / 1000 Ang^3
#
#
#
# Elastic Constant Matrix: (Units=GPa)
#
#
# Indices 1 2 3 4 5 6 
#
# 1 90.6057 2.2063 37.2178 0.0001 -0.0001 -0.0001
# 2 2.2063 72.8908 26.4458 -0.0036 0.0018 0.0012
# 3 37.2178 26.4458 161.0954 -0.0028 0.0008 0.0048
# 4 0.0001 -0.0036 -0.0028 17.6855 -0.0002 0.0038
# 5 -0.0001 0.0018 0.0008 -0.0002 48.1427 -0.0007
# 6 -0.0001 0.0012 0.0048 0.0038 -0.0007 16.3022
#
#
#
# Elastic Compliance Matrix: (Units=1/GPa)
#
#
# Indices 1 2 3 4 5 6 
#
# 1 0.012227 0.000696 -0.002939 0.000000 0.000000 0.000001
# 2 0.000696 0.014628 -0.002562 0.000003 0.000000 0.000000
# 3 -0.002939 -0.002562 0.007307 0.000001 0.000000 -0.000002
# 4 0.000000 0.000003 0.000001 0.056543 0.000000 -0.000013
# 5 0.000000 0.000000 0.000000 0.000000 0.020772 0.000001
# 6 0.000001 0.000000 -0.000002 -0.000013 0.000001 0.061342
#
#
# Mechanical properties :
#
#
# Convention : Reuss Voigt Hill
#
# Bulk Modulus (GPa) = 40.73003 50.70352 45.71677
# Shear Modulus (GPa) = 26.23122 33.67422 29.95272
#
# Velocity S-wave (km/s) = 3.40376 3.85654 3.63720
# Velocity P-wave (km/s) = 5.78244 6.49806 6.15067
#
# Compressibility (1/GPa) = 0.02455191
#
# Stress axis : x y z
#
# Youngs Moduli (GPa) = 81.78504 68.36355 136.85239
#
# Poissons Ratio (x) = -0.04760 0.40223
# Poissons Ratio (y) = -0.05694 0.35064
# Poissons Ratio (z) = 0.24038 0.17516
#
# Static dielectric constant tensor:
#      x y z
#    x 1.857630 0.000000 -0.000010 
#    y 0.000000 1.989780 -0.000010 
#    z -0.000010 -0.000010 1.896820 
# 
# From -- ./inp_files/2506.got.cif
#   From: 2010.05.17/outbox.cif.g08.bks.cpg/sg23_2_cif.got.tgz:2506.got - 2010.06.04 12:02:01.
