data_PCOD9331218
_publ_section_title
;
Structure prediction by ZEFSAII (Michael W. Deem and Ramdas Pophale) SiO2 
 PCOD9331218
Probable space group: I 2 2 2
;
_chemical_formula_sum "Si O2"
_cell_formula_units_Z 40
_cell_length_a 9.338738
_cell_length_b 19.699647
_cell_length_c 10.657303
_cell_angle_alpha 90.000000
_cell_angle_beta 90.000000
_cell_angle_gamma 90.000000
_cell_volume 1960.622349
_symmetry_space_group_name_H-M "I 2 2 2"
_symmetry_group_IT_number 23
_symmetry_cell_setting 'orthorhombic'
loop_
_space_group_symop_operation_xyz
x,y,z
-x,-y,z
x,-y,-z
-x,y,-z
1/2+x,1/2+y,1/2+z
1/2-x,1/2-y,1/2+z
1/2+x,1/2-y,1/2-z
1/2-x,1/2+y,1/2-z
loop_
_atom_site_type_symbol
_atom_site_label
_atom_site_fract_x
_atom_site_fract_y
_atom_site_fract_z
Si Si1 0.000000 0.881279 0.000000
Si Si2 0.581710 0.563211 0.131274
Si Si3 0.268755 0.500000 0.500000
Si Si4 0.104828 0.201575 0.782259
Si Si5 0.630108 0.961728 0.743722
Si Si6 0.568443 0.184731 0.140634
O O1 0.134350 0.932177 0.007886
O O2 0.000709 0.830097 0.885258
O O3 0.500000 0.500000 0.202354
O O4 0.596394 0.638903 0.184812
O O5 0.744084 0.540320 0.143332
O O6 0.500000 0.568040 0.000000
O O7 0.181003 0.500336 0.371028
O O8 0.264440 0.210308 0.843054
O O9 0.038208 0.267575 0.719468
O O10 0.581399 0.888793 0.795552
O O11 0.500000 0.000000 0.684870
O O12 0.500000 0.180791 0.000000
#
# Coordination Sequence:
#
# PCOD9331218 Si02
#       6
#     4   8   4   8   8   8
#     4  11  22  38  68 106 133 174 230 284 339 412
#     4  10  21  43  67  92 130 179 223 264 329 421
#     4  11  19  38  70 102 142 166 230 298 344 400
#     4  11  25  41  66  98 134 179 227 272 345 409
#     4  11  23  39  69 105 132 171 227 297 352 386
#     4  11  25  44  65  97 139 178 225 280 347 411
#
# _framework density 20.401686000000002
#
# number of rings (size 3 to 8) (size 9 to 14) (size 15 to 20)
#    0.000    1.200    4.000    3.300    2.800    1.600 
#    0.000    2.000    0.000    0.000    0.000    0.000 
#    0.000    0.000    0.000    0.000    0.000    0.000 
#
# Total GULP energy -111441.542042 kJ/mol
# GULP energy per Si atom -5572.077102 kJ/mol
# Density = 2.035525 g / cm^3
# Si number density = 20.401686 Si / 1000 Ang^3
#
#
#
# Elastic Constant Matrix: (Units=GPa)
#
#
# Indices 1 2 3 4 5 6 
#
# 1 127.5078 51.9301 53.9833 0.0000 0.0000 0.0001
# 2 51.9301 78.0051 23.7887 0.0004 -0.0002 0.0004
# 3 53.9833 23.7887 91.4878 0.0004 -0.0003 0.0011
# 4 0.0000 0.0004 0.0004 25.4921 -0.0002 0.0003
# 5 0.0000 -0.0002 -0.0003 -0.0002 13.8670 -0.0005
# 6 0.0001 0.0004 0.0011 0.0003 -0.0005 122.8286
#
#
#
# Elastic Compliance Matrix: (Units=1/GPa)
#
#
# Indices 1 2 3 4 5 6 
#
# 1 0.013217 -0.006973 -0.005985 0.000000 0.000000 0.000000
# 2 -0.006973 0.017603 -0.000462 0.000000 0.000000 0.000000
# 3 -0.005985 -0.000462 0.014582 0.000000 0.000000 0.000000
# 4 0.000000 0.000000 0.000000 0.039228 0.000001 0.000000
# 5 0.000000 0.000000 0.000000 0.000001 0.072113 0.000000
# 6 0.000000 0.000000 0.000000 0.000000 0.000000 0.008141
#
#
# Mechanical properties :
#
#
# Convention : Reuss Voigt Hill
#
# Bulk Modulus (GPa) = 53.88023 61.82279 57.85151
# Shear Modulus (GPa) = 25.26348 43.59081 34.42714
#
# Velocity S-wave (km/s) = 3.52277 4.62738 4.11233
# Velocity P-wave (km/s) = 6.55847 7.67586 7.13906
#
# Compressibility (1/GPa) = 0.01855968
#
# Stress axis : x y z
#
# Youngs Moduli (GPa) = 75.66123 56.80823 68.57558
#
# Poissons Ratio (x) = 0.39615 0.41046
# Poissons Ratio (y) = 0.52762 0.03171
# Poissons Ratio (z) = 0.45287 0.02627
#
# Static dielectric constant tensor:
#      x y z
#    x 1.737940 0.000000 0.000000 
#    y 0.000000 1.739360 0.000000 
#    z 0.000000 0.000000 1.537700 
# 
# From -- ./inp_files/14637.got.cif
#   From: 2010.05.17/outbox.cif.g08.bks.cpg/sg23_8_cif.got.tgz:14637.got - 2010.06.04 12:02:01.
