data_PCOD9331782
_publ_section_title
;
Structure prediction by ZEFSAII (Michael W. Deem and Ramdas Pophale) SiO2 
 PCOD9331782
Probable space group: I 2 2 2
;
_chemical_formula_sum "Si O2"
_cell_formula_units_Z 26
_cell_length_a 5.059529
_cell_length_b 21.137206
_cell_length_c 11.095080
_cell_angle_alpha 90.000000
_cell_angle_beta 90.000000
_cell_angle_gamma 90.000000
_cell_volume 1186.555639
_symmetry_space_group_name_H-M "I 2 2 2"
_symmetry_group_IT_number 23
_symmetry_cell_setting 'orthorhombic'
loop_
_space_group_symop_operation_xyz
x,y,z
-x,-y,z
x,-y,-z
-x,y,-z
1/2+x,1/2+y,1/2+z
1/2-x,1/2-y,1/2+z
1/2+x,1/2-y,1/2-z
1/2-x,1/2+y,1/2-z
loop_
_atom_site_type_symbol
_atom_site_label
_atom_site_fract_x
_atom_site_fract_y
_atom_site_fract_z
Si Si1 0.500000 0.237686 0.000000
Si Si2 0.868733 0.935197 0.807068
Si Si3 0.000000 0.500000 0.500000
Si Si4 0.735294 0.358418 0.921000
Si Si5 0.000000 0.152851 0.000000
O O1 0.383252 0.287610 0.098010
O O2 0.252454 0.194992 0.965160
O O3 0.732696 0.896994 0.700546
O O4 0.064114 0.889205 0.881600
O O5 0.674120 0.957564 0.912126
O O6 0.000000 0.000000 0.761420
O O7 0.500000 0.389744 0.000000
O O8 0.000000 0.354299 0.000000
#
# Coordination Sequence:
#
# PCOD9331782 Si02
#       5
#     4   8   2   8   4
#     4  10  23  46  72 110 138 191 240 288 368 420
#     4  12  27  46  74 108 147 191 241 306 360 436
#     4  12  24  48  70 110 144 184 252 284 386 414
#     4  10  25  50  71 109 147 188 245 292 364 435
#     4  12  23  44  78 104 145 186 240 300 356 422
#
# _framework density 21.912161999999999
#
# number of rings (size 3 to 8) (size 9 to 14) (size 15 to 20)
#    0.923    0.000    4.615    0.923    4.308    3.077 
#    0.000    0.000    0.000    0.000    0.000    0.000 
#    0.000    0.000    0.000    0.000    0.000    0.000 
#
# Total GULP energy -72549.898626 kJ/mol
# GULP energy per Si atom -5580.761433 kJ/mol
# Density = 2.186229 g / cm^3
# Si number density = 21.912162 Si / 1000 Ang^3
#
#
#
# Elastic Constant Matrix: (Units=GPa)
#
#
# Indices 1 2 3 4 5 6 
#
# 1 124.3222 43.7530 33.8739 0.0000 0.0000 0.0000
# 2 43.7530 134.9741 56.7094 0.0000 0.0000 0.0000
# 3 33.8739 56.7094 88.4809 0.0001 0.0000 0.0000
# 4 0.0000 0.0000 0.0001 24.7234 0.0000 0.0000
# 5 0.0000 0.0000 0.0000 0.0000 23.6720 0.0000
# 6 0.0000 0.0000 0.0000 0.0000 0.0000 -1.4176
#
#
#
# Elastic Compliance Matrix: (Units=1/GPa)
#
#
# Indices 1 2 3 4 5 6 
#
# 1 0.009396 -0.002100 -0.002251 0.000000 0.000000 0.000000
# 2 -0.002100 0.010608 -0.005995 0.000000 0.000000 0.000000
# 3 -0.002251 -0.005995 0.016006 0.000000 0.000000 0.000000
# 4 0.000000 0.000000 0.000000 0.040448 0.000000 0.000000
# 5 0.000000 0.000000 0.000000 0.000000 0.042244 0.000000
# 6 0.000000 0.000000 0.000000 0.000000 0.000000 -0.705423
#
#
# Mechanical properties :
#
#
# Convention : Reuss Voigt Hill
#
# Bulk Modulus (GPa) = 65.28349 68.49443 66.88896
# Shear Modulus (GPa) = -8.91389 23.62495 7.35553
#
# Velocity S-wave (km/s) = -2.01912 3.28711 1.83415
# Velocity P-wave (km/s) = 4.94188 6.76264 5.92264
#
# Compressibility (1/GPa) = 0.01531781
#
# Stress axis : x y z
#
# Youngs Moduli (GPa) = 106.42761 94.26441 62.47553
#
# Poissons Ratio (x) = 0.19795 0.14065
# Poissons Ratio (y) = 0.22349 0.37456
# Poissons Ratio (z) = 0.23960 0.56514
#
# Static dielectric constant tensor:
#      x y z
#    x 1.815130 0.000000 0.000000 
#    y 0.000000 1.909170 0.000000 
#    z 0.000000 0.000000 1.904930 
# 
# From -- ./inp_files/571.got.cif
#   From: 2010.05.17/outbox.cif.g08.bks.cpg/sg23_1_cif.got.tgz:571.got - 2010.06.04 12:02:01.
