data_PCOD9331162
_publ_section_title
;
Structure prediction by ZEFSAII (Michael W. Deem and Ramdas Pophale) SiO2 
 PCOD9331162
Probable space group: I 2 2 2
;
_chemical_formula_sum "Si O2"
_cell_formula_units_Z 26
_cell_length_a 16.265222
_cell_length_b 8.544985
_cell_length_c 9.428483
_cell_angle_alpha 90.000000
_cell_angle_beta 90.000000
_cell_angle_gamma 90.000000
_cell_volume 1310.427874
_symmetry_space_group_name_H-M "I 2 2 2"
_symmetry_group_IT_number 23
_symmetry_cell_setting 'orthorhombic'
loop_
_space_group_symop_operation_xyz
x,y,z
-x,-y,z
x,-y,-z
-x,y,-z
1/2+x,1/2+y,1/2+z
1/2-x,1/2-y,1/2+z
1/2+x,1/2-y,1/2-z
1/2-x,1/2+y,1/2-z
loop_
_atom_site_type_symbol
_atom_site_label
_atom_site_fract_x
_atom_site_fract_y
_atom_site_fract_z
Si Si1 0.858764 0.848982 0.193046
Si Si2 0.597160 0.178548 0.012008
Si Si3 0.500000 0.500000 0.500000
Si Si4 0.717277 0.388535 0.864480
O O1 0.884517 0.769317 0.341987
O O2 0.797456 0.719217 0.131524
O O3 0.803845 0.002625 0.230283
O O4 0.937411 0.898291 0.098851
O O5 0.639218 0.276882 0.887804
O O6 0.500000 0.175711 0.000000
O O7 0.627553 0.000000 0.000000
O O8 0.723126 0.500000 0.000000
#
# Coordination Sequence:
#
# PCOD9331162 Si02
#       4
#     8   8   2   8
#     4  11  24  43  65  99 134 178 217 281 334 405
#     4  10  21  41  66  95 125 171 224 273 323 398
#     4  12  28  40  68 104 150 164 218 282 360 384
#     4  10  23  40  69  91 127 177 228 268 326 402
#
# _framework density 19.840847
#
# number of rings (size 3 to 8) (size 9 to 14) (size 15 to 20)
#    0.000    1.538    0.000    3.692   10.769    4.308 
#   11.077    0.000    0.000    0.000    0.000    0.000 
#    0.000    0.000    0.000    0.000    0.000    0.000 
#
# Total GULP energy -72529.843267 kJ/mol
# GULP energy per Si atom -5579.218713 kJ/mol
# Density = 1.979569 g / cm^3
# Si number density = 19.840847 Si / 1000 Ang^3
#
#
#
# Elastic Constant Matrix: (Units=GPa)
#
#
# Indices 1 2 3 4 5 6 
#
# 1 116.3397 65.3557 30.6228 0.0000 0.0000 0.0000
# 2 65.3557 146.6358 39.4895 0.0000 0.0000 0.0000
# 3 30.6228 39.4895 46.1267 0.0000 0.0000 0.0000
# 4 0.0000 0.0000 0.0000 21.1666 0.0000 0.0000
# 5 0.0000 0.0000 0.0000 0.0000 24.7436 0.0000
# 6 0.0000 0.0000 0.0000 0.0000 0.0000 20.7678
#
#
#
# Elastic Compliance Matrix: (Units=1/GPa)
#
#
# Indices 1 2 3 4 5 6 
#
# 1 0.012131 -0.004208 -0.004451 0.000000 0.000000 0.000000
# 2 -0.004208 0.010323 -0.006044 0.000000 0.000000 0.000000
# 3 -0.004451 -0.006044 0.029808 0.000000 0.000000 0.000000
# 4 0.000000 0.000000 0.000000 0.047244 0.000000 0.000000
# 5 0.000000 0.000000 0.000000 0.000000 0.040415 0.000000
# 6 0.000000 0.000000 0.000000 0.000000 0.000000 0.048152
#
#
# Mechanical properties :
#
#
# Convention : Reuss Voigt Hill
#
# Bulk Modulus (GPa) = 43.75103 64.44869 54.09986
# Shear Modulus (GPa) = 22.21261 24.91119 23.56190
#
# Velocity S-wave (km/s) = 3.34958 3.54722 3.44982
# Velocity P-wave (km/s) = 6.08757 7.02356 6.57225
#
# Compressibility (1/GPa) = 0.02285660
#
# Stress axis : x y z
#
# Youngs Moduli (GPa) = 82.43258 96.87289 33.54752
#
# Poissons Ratio (x) = 0.40766 0.14932
# Poissons Ratio (y) = 0.34689 0.20275
# Poissons Ratio (z) = 0.36691 0.58547
#
# Static dielectric constant tensor:
#      x y z
#    x 1.685870 0.000000 0.000000 
#    y 0.000000 1.720380 0.000000 
#    z 0.000000 0.000000 1.713850 
# 
# From -- ./inp_files/6350.got.cif
#   From: 2010.05.17/outbox.cif.g08.bks.cpg/sg23_4_cif.got.tgz:6350.got - 2010.06.04 12:02:01.
