data_PCOD9331720
_publ_section_title
;
Structure prediction by ZEFSAII (Michael W. Deem and Ramdas Pophale) SiO2 
 PCOD9331720
Probable space group: I 2 2 2
;
_chemical_formula_sum "Si O2"
_cell_formula_units_Z 48
_cell_length_a 7.901659
_cell_length_b 27.725991
_cell_length_c 9.380003
_cell_angle_alpha 90.000000
_cell_angle_beta 90.000000
_cell_angle_gamma 90.000000
_cell_volume 2054.983498
_symmetry_space_group_name_H-M "I 2 2 2"
_symmetry_group_IT_number 23
_symmetry_cell_setting 'orthorhombic'
loop_
_space_group_symop_operation_xyz
x,y,z
-x,-y,z
x,-y,-z
-x,y,-z
1/2+x,1/2+y,1/2+z
1/2-x,1/2-y,1/2+z
1/2+x,1/2-y,1/2-z
1/2-x,1/2+y,1/2-z
loop_
_atom_site_type_symbol
_atom_site_label
_atom_site_fract_x
_atom_site_fract_y
_atom_site_fract_z
Si Si1 0.674849 0.947214 0.562501
Si Si2 0.388345 0.549741 0.673130
Si Si3 0.827162 0.288073 0.414290
Si Si4 0.812405 0.601212 0.563541
Si Si5 0.338066 0.202982 0.416775
Si Si6 0.846793 0.889974 0.340722
O O1 0.500000 0.926918 0.500000
O O2 0.720819 0.952595 0.727427
O O3 0.823009 0.918537 0.485140
O O4 0.684050 0.000000 0.500000
O O5 0.500000 0.500000 0.680345
O O6 0.314804 0.566080 0.520527
O O7 0.496308 0.593321 0.744471
O O8 0.758509 0.342214 0.444595
O O9 0.711198 0.246984 0.481026
O O10 0.869684 0.281239 0.246930
O O11 0.000000 0.285191 0.500000
O O12 0.805126 0.593603 0.732935
O O13 0.000000 0.596706 0.500000
O O14 0.500000 0.180827 0.500000
O O15 0.186437 0.164767 0.389168
#
# Coordination Sequence:
#
# PCOD9331720 Si02
#       6
#     8   8   8   8   8   8
#     4  11  23  42  66  93 132 179 230 288 351 419
#     4  12  25  45  70 102 140 184 240 297 355 420
#     4  10  23  43  69 102 143 183 242 296 361 434
#     4  10  24  46  69 100 142 188 235 293 352 428
#     4  11  24  43  70 105 145 189 237 294 365 439
#     4  11  24  42  67 100 139 179 234 289 353 422
#
# _framework density 23.357851
#
# number of rings (size 3 to 8) (size 9 to 14) (size 15 to 20)
#    0.000    1.167    1.667    3.500    0.000   10.667 
#    0.000    0.833    0.000    0.000    0.000    0.000 
#    0.000    0.000    0.000    0.000    0.000    0.000 
#
# Total GULP energy -133945.323160 kJ/mol
# GULP energy per Si atom -5581.055132 kJ/mol
# Density = 2.330469 g / cm^3
# Si number density = 23.357851 Si / 1000 Ang^3
#
#
#
# Elastic Constant Matrix: (Units=GPa)
#
#
# Indices 1 2 3 4 5 6 
#
# 1 82.0825 45.5401 28.1020 0.0001 0.0000 0.0000
# 2 45.5401 99.6311 46.6636 -0.0002 0.0000 0.0000
# 3 28.1020 46.6636 169.5463 -0.0001 0.0000 -0.0001
# 4 0.0001 -0.0002 -0.0001 24.4116 0.0000 0.0000
# 5 0.0000 0.0000 0.0000 0.0000 42.3549 -0.0001
# 6 0.0000 0.0000 -0.0001 0.0000 -0.0001 26.3306
#
#
#
# Elastic Compliance Matrix: (Units=1/GPa)
#
#
# Indices 1 2 3 4 5 6 
#
# 1 0.016405 -0.007146 -0.000752 0.000000 0.000000 0.000000
# 2 -0.007146 0.014635 -0.002844 0.000000 0.000000 0.000000
# 3 -0.000752 -0.002844 0.006805 0.000000 0.000000 0.000000
# 4 0.000000 0.000000 0.000000 0.040964 0.000000 0.000000
# 5 0.000000 0.000000 0.000000 0.000000 0.023610 0.000000
# 6 0.000000 0.000000 0.000000 0.000000 0.000000 0.037979
#
#
# Mechanical properties :
#
#
# Convention : Reuss Voigt Hill
#
# Bulk Modulus (GPa) = 61.11823 65.76346 63.44084
# Shear Modulus (GPa) = 29.87987 34.01639 31.94813
#
# Velocity S-wave (km/s) = 3.58050 3.82031 3.70235
# Velocity P-wave (km/s) = 6.58150 6.90475 6.74506
#
# Compressibility (1/GPa) = 0.01636173
#
# Stress axis : x y z
#
# Youngs Moduli (GPa) = 60.95616 68.32795 146.94209
#
# Poissons Ratio (x) = 0.48829 0.11054
# Poissons Ratio (y) = 0.43561 0.41784
# Poissons Ratio (z) = 0.04586 0.19429
#
# Static dielectric constant tensor:
#      x y z
#    x 2.088550 0.000000 0.000000 
#    y 0.000000 1.971770 0.000000 
#    z 0.000000 0.000000 1.842030 
# 
# From -- ./inp_files/7382.got.cif
#   From: 2010.05.17/outbox.cif.g08.bks.cpg/sg23_4_cif.got.tgz:7382.got - 2010.06.04 12:02:01.
