data_PCOD9331672
_publ_section_title
;
Structure prediction by ZEFSAII (Michael W. Deem and Ramdas Pophale) SiO2 
 PCOD9331672
Probable space group: I 2 2 2
;
_chemical_formula_sum "Si O2"
_cell_formula_units_Z 32
_cell_length_a 5.188097
_cell_length_b 35.399433
_cell_length_c 7.544847
_cell_angle_alpha 90.000000
_cell_angle_beta 90.000000
_cell_angle_gamma 90.000000
_cell_volume 1385.654098
_symmetry_space_group_name_H-M "I 2 2 2"
_symmetry_group_IT_number 23
_symmetry_cell_setting 'orthorhombic'
loop_
_space_group_symop_operation_xyz
x,y,z
-x,-y,z
x,-y,-z
-x,y,-z
1/2+x,1/2+y,1/2+z
1/2-x,1/2-y,1/2+z
1/2+x,1/2-y,1/2-z
1/2-x,1/2+y,1/2-z
loop_
_atom_site_type_symbol
_atom_site_label
_atom_site_fract_x
_atom_site_fract_y
_atom_site_fract_z
Si Si1 0.092380 0.642418 0.204175
Si Si2 0.114746 0.271374 0.802853
Si Si3 0.103178 0.901582 0.194504
Si Si4 0.247251 0.017136 0.699811
O O1 0.353644 0.618073 0.218450
O O2 0.148728 0.685500 0.259020
O O3 0.848652 0.626187 0.312523
O O4 0.000000 0.641918 0.000000
O O5 0.888783 0.249503 0.699237
O O6 0.000000 0.272643 0.000000
O O7 0.211781 0.938189 0.296949
O O8 0.000000 0.912414 0.000000
O O9 0.500000 0.000000 0.785352
O O10 0.249195 0.000000 0.500000
O O11 0.000000 0.000000 0.791105
#
# Coordination Sequence:
#
# PCOD9331672 Si02
#       4
#     8   8   8   8
#     4  11  26  44  70 101 139 188 234 275 351 425
#     4  11  24  43  68 102 139 185 234 284 341 415
#     4  12  26  44  69 105 140 174 232 300 348 406
#     4  10  23  41  68  96 126 174 231 266 348 409
#
# _framework density 23.093786999999999
#
# number of rings (size 3 to 8) (size 9 to 14) (size 15 to 20)
#    0.000    1.000    0.000    5.250   10.500   10.500 
#    0.000    1.250    0.000    0.000    0.000    0.000 
#    0.000    0.000    0.000    0.000    0.000    0.000 
#
# Total GULP energy -89499.794873 kJ/mol
# GULP energy per Si atom -5593.737180 kJ/mol
# Density = 2.304122 g / cm^3
# Si number density = 23.093787 Si / 1000 Ang^3
#
#
#
# Elastic Constant Matrix: (Units=GPa)
#
#
# Indices 1 2 3 4 5 6 
#
# 1 218.9875 87.1307 19.6262 0.0000 0.0000 0.0000
# 2 87.1307 192.3719 35.7553 -0.0001 0.0000 0.0000
# 3 19.6262 35.7553 77.1919 -0.0004 0.0000 -0.0002
# 4 0.0000 -0.0001 -0.0004 7.4856 0.0000 0.0000
# 5 0.0000 0.0000 0.0000 0.0000 23.6586 0.0000
# 6 0.0000 0.0000 -0.0002 0.0000 0.0000 42.9617
#
#
#
# Elastic Compliance Matrix: (Units=1/GPa)
#
#
# Indices 1 2 3 4 5 6 
#
# 1 0.005575 -0.002475 -0.000271 0.000000 0.000000 0.000000
# 2 -0.002475 0.006787 -0.002514 0.000000 0.000000 0.000000
# 3 -0.000271 -0.002514 0.014188 0.000001 0.000000 0.000000
# 4 0.000000 0.000000 0.000001 0.133591 0.000000 0.000000
# 5 0.000000 0.000000 0.000000 0.000000 0.042268 0.000000
# 6 0.000000 0.000000 0.000000 0.000000 0.000000 0.023277
#
#
# Mechanical properties :
#
#
# Convention : Reuss Voigt Hill
#
# Bulk Modulus (GPa) = 62.38473 85.95286 74.16880
# Shear Modulus (GPa) = 20.69971 37.89045 29.29508
#
# Velocity S-wave (km/s) = 2.99713 4.05498 3.56550
# Velocity P-wave (km/s) = 6.24895 7.69569 7.00974
#
# Compressibility (1/GPa) = 0.01602956
#
# Stress axis : x y z
#
# Youngs Moduli (GPa) = 179.35656 147.35067 70.48061
#
# Poissons Ratio (x) = 0.36468 0.01911
# Poissons Ratio (y) = 0.44389 0.17721
# Poissons Ratio (z) = 0.04864 0.37048
#
# Static dielectric constant tensor:
#      x y z
#    x 1.845020 0.000000 0.000000 
#    y 0.000000 1.888610 0.000000 
#    z 0.000000 0.000000 1.897360 
# 
# From -- ./inp_files/5751.got.cif
#   From: 2010.05.17/outbox.cif.g08.bks.cpg/sg23_3_cif.got.tgz:5751.got - 2010.06.04 12:02:01.
