data_PCOD9331648
_publ_section_title
;
Structure prediction by ZEFSAII (Michael W. Deem and Ramdas Pophale) SiO2 
 PCOD9331648
Probable space group: I 2 2 2
;
_chemical_formula_sum "Si O2"
_cell_formula_units_Z 56
_cell_length_a 12.664804
_cell_length_b 17.041370
_cell_length_c 13.643891
_cell_angle_alpha 90.000000
_cell_angle_beta 90.000000
_cell_angle_gamma 90.000000
_cell_volume 2944.701111
_symmetry_space_group_name_H-M "I 2 2 2"
_symmetry_group_IT_number 23
_symmetry_cell_setting 'orthorhombic'
loop_
_space_group_symop_operation_xyz
x,y,z
-x,-y,z
x,-y,-z
-x,y,-z
1/2+x,1/2+y,1/2+z
1/2-x,1/2-y,1/2+z
1/2+x,1/2-y,1/2-z
1/2-x,1/2+y,1/2-z
loop_
_atom_site_type_symbol
_atom_site_label
_atom_site_fract_x
_atom_site_fract_y
_atom_site_fract_z
Si Si1 0.789724 0.233657 0.425293
Si Si2 0.350637 0.138177 0.720729
Si Si3 0.609925 0.528166 0.389363
Si Si4 0.095733 0.679056 0.249477
Si Si5 0.753856 0.467420 0.221807
Si Si6 0.877934 0.917754 0.461340
Si Si7 0.805455 0.192481 0.110865
O O1 0.697056 0.196315 0.360352
O O2 0.873080 0.273796 0.349878
O O3 0.835133 0.161268 0.489307
O O4 0.740536 0.292551 0.503758
O O5 0.473728 0.155363 0.737173
O O6 0.289476 0.163480 0.819452
O O7 0.313618 0.049250 0.691541
O O8 0.500000 0.500000 0.346628
O O9 0.620128 0.500000 0.500000
O O10 0.699354 0.492119 0.322454
O O11 0.613045 0.621430 0.388775
O O12 0.161859 0.599520 0.242416
O O13 0.138079 0.733471 0.160718
O O14 0.663043 0.428680 0.150751
O O15 0.000000 0.918462 0.500000
O O16 0.831473 0.000000 0.500000
#
# Coordination Sequence:
#
# PCOD9331648 Si02
#       7
#     8   8   8   8   8   8   8
#     4  11  23  42  63  95 135 166 218 281 331 402
#     4  10  24  41  63  92 130 173 218 268 333 408
#     4  10  23  40  64  91 123 169 215 267 331 397
#     4  11  24  39  67  93 127 175 212 278 335 395
#     4  11  22  44  63  92 134 173 224 270 328 411
#     4  11  24  39  66  98 129 174 221 270 336 397
#     4  10  23  41  60  94 127 161 220 271 331 397
#
# _framework density 19.017211
#
# number of rings (size 3 to 8) (size 9 to 14) (size 15 to 20)
#    0.000    1.429    2.857    1.286    4.000    5.143 
#    0.000    0.000    0.000    2.571    0.000    0.000 
#    0.000    0.000    0.000    0.000    0.000    0.000 
#
# Total GULP energy -156023.996345 kJ/mol
# GULP energy per Si atom -5572.285584 kJ/mol
# Density = 1.897393 g / cm^3
# Si number density = 19.017211 Si / 1000 Ang^3
#
#
#
# Elastic Constant Matrix: (Units=GPa)
#
#
# Indices 1 2 3 4 5 6 
#
# 1 118.4112 62.0100 32.9927 0.0001 0.0000 0.0000
# 2 62.0100 107.1374 30.5157 -0.0003 0.0000 0.0000
# 3 32.9927 30.5157 80.2284 -0.0003 0.0001 0.0000
# 4 0.0001 -0.0003 -0.0003 28.3362 0.0000 0.0000
# 5 0.0000 0.0000 0.0001 0.0000 9.9478 0.0000
# 6 0.0000 0.0000 0.0000 0.0000 0.0000 23.7261
#
#
#
# Elastic Compliance Matrix: (Units=1/GPa)
#
#
# Indices 1 2 3 4 5 6 
#
# 1 0.012621 -0.006534 -0.002705 0.000000 0.000000 0.000000
# 2 -0.006534 0.013851 -0.002581 0.000000 0.000000 0.000000
# 3 -0.002705 -0.002581 0.014558 0.000000 0.000000 0.000000
# 4 0.000000 0.000000 0.000000 0.035290 0.000000 0.000000
# 5 0.000000 0.000000 0.000000 0.000000 0.100525 0.000000
# 6 0.000000 0.000000 0.000000 0.000000 0.000000 0.042148
#
#
# Mechanical properties :
#
#
# Convention : Reuss Voigt Hill
#
# Bulk Modulus (GPa) = 57.50531 61.86820 59.68675
# Shear Modulus (GPa) = 20.12634 24.41925 22.27280
#
# Velocity S-wave (km/s) = 3.25672 3.58727 3.42598
# Velocity P-wave (km/s) = 6.66677 7.05417 6.86320
#
# Compressibility (1/GPa) = 0.01738970
#
# Stress axis : x y z
#
# Youngs Moduli (GPa) = 79.23507 72.19679 68.68855
#
# Poissons Ratio (x) = 0.47176 0.18578
# Poissons Ratio (y) = 0.51775 0.17730
# Poissons Ratio (z) = 0.21430 0.18636
#
# Static dielectric constant tensor:
#      x y z
#    x 1.678770 0.000000 0.000000 
#    y 0.000000 1.635980 0.000000 
#    z 0.000000 0.000000 1.689510 
# 
# From -- ./inp_files/20889.got.cif
#   From: 2010.05.17/outbox.cif.g08.bks.cpg/sg23_11_cif.got.tgz:20889.got - 2010.06.04 12:02:01.
