data_PCOD9331368
_publ_section_title
;
Structure prediction by ZEFSAII (Michael W. Deem and Ramdas Pophale) SiO2 
 PCOD9331368
Probable space group: I 2 2 2
;
_chemical_formula_sum "Si O2"
_cell_formula_units_Z 32
_cell_length_a 5.776579
_cell_length_b 9.350940
_cell_length_c 24.347089
_cell_angle_alpha 90.000000
_cell_angle_beta 90.000000
_cell_angle_gamma 90.000000
_cell_volume 1315.143161
_symmetry_space_group_name_H-M "I 2 2 2"
_symmetry_group_IT_number 23
_symmetry_cell_setting 'orthorhombic'
loop_
_space_group_symop_operation_xyz
x,y,z
-x,-y,z
x,-y,-z
-x,y,-z
1/2+x,1/2+y,1/2+z
1/2-x,1/2-y,1/2+z
1/2+x,1/2-y,1/2-z
1/2-x,1/2+y,1/2-z
loop_
_atom_site_type_symbol
_atom_site_label
_atom_site_fract_x
_atom_site_fract_y
_atom_site_fract_z
Si Si1 0.141812 0.135739 0.334494
Si Si2 0.476927 0.662777 0.375231
Si Si3 0.161744 0.375742 0.719359
Si Si4 0.745298 0.167823 0.979459
O O1 0.303029 0.232206 0.374514
O O2 0.303633 0.090880 0.282982
O O3 0.966584 0.234023 0.299914
O O4 0.000000 0.000000 0.356916
O O5 0.500000 0.500000 0.396356
O O6 0.401247 0.640728 0.312758
O O7 0.266175 0.706920 0.414738
O O8 0.000000 0.500000 0.694912
O O9 0.500000 0.227762 0.000000
O O10 0.000000 0.218664 0.000000
O O11 0.737587 0.000000 0.000000
#
# Coordination Sequence:
#
# PCOD9331368 Si02
#       4
#     8   8   8   8
#     4  12  26  42  63 103 155 210 265 324 392 489
#     4  12  24  41  68 105 147 209 253 328 408 477
#     4  12  24  41  67  96 148 204 269 315 386 477
#     4  10  22  39  66 105 154 178 248 336 410 460
#
# _framework density 24.331948000000001
#
# number of rings (size 3 to 8) (size 9 to 14) (size 15 to 20)
#    0.000    0.500    7.500    2.250    7.000    0.000 
#    0.000    0.000    0.000    0.000    0.000    5.250 
#    0.000    0.000    0.000    0.000    0.000    0.000 
#
# Total GULP energy -89146.533250 kJ/mol
# GULP energy per Si atom -5571.658328 kJ/mol
# Density = 2.427657 g / cm^3
# Si number density = 24.331948 Si / 1000 Ang^3
#
#
#
# Elastic Constant Matrix: (Units=GPa)
#
#
# Indices 1 2 3 4 5 6 
#
# 1 160.8959 62.7733 36.9279 0.0000 0.0000 0.0000
# 2 62.7733 118.4801 12.2448 0.0000 0.0000 0.0000
# 3 36.9279 12.2448 101.4828 0.0000 0.0000 0.0000
# 4 0.0000 0.0000 0.0000 3.2844 0.0000 0.0000
# 5 0.0000 0.0000 0.0000 0.0000 -24.8274 0.0000
# 6 0.0000 0.0000 0.0000 0.0000 0.0000 59.2926
#
#
#
# Elastic Compliance Matrix: (Units=1/GPa)
#
#
# Indices 1 2 3 4 5 6 
#
# 1 0.008447 -0.004210 -0.002566 0.000000 0.000000 0.000000
# 2 -0.004210 0.010645 0.000248 0.000000 0.000000 0.000000
# 3 -0.002566 0.000248 0.010758 0.000000 0.000000 0.000000
# 4 0.000000 0.000000 0.000000 0.304473 0.000000 0.000000
# 5 0.000000 0.000000 0.000000 0.000000 -0.040278 0.000000
# 6 0.000000 0.000000 0.000000 0.000000 0.000000 0.016866
#
#
# Mechanical properties :
#
#
# Convention : Reuss Voigt Hill
#
# Bulk Modulus (GPa) = 59.54793 67.19453 63.37123
# Shear Modulus (GPa) = 15.17156 25.47743 20.32449
#
# Velocity S-wave (km/s) = 2.49976 3.23937 2.89329
# Velocity P-wave (km/s) = 5.73219 6.45500 6.10430
#
# Compressibility (1/GPa) = 0.01679320
#
# Stress axis : x y z
#
# Youngs Moduli (GPa) = 118.39124 93.93892 92.95755
#
# Poissons Ratio (x) = 0.39549 0.23849
# Poissons Ratio (y) = 0.49843 -0.02301
# Poissons Ratio (z) = 0.30374 -0.02325
#
# Static dielectric constant tensor:
#      x y z
#    x 2.045040 0.000000 0.000000 
#    y 0.000000 2.009110 0.000000 
#    z 0.000000 0.000000 2.066940 
# 
# From -- ./inp_files/721.got.cif
#   From: 2010.05.17/outbox.cif.g08.bks.cpg/sg23_1_cif.got.tgz:721.got - 2010.06.04 12:02:01.
