data_PCOD9331865
_publ_section_title
;
Structure prediction by ZEFSAII (Michael W. Deem and Ramdas Pophale) SiO2 
 PCOD9331865
Probable space group: I 2 2 2
;
_chemical_formula_sum "Si O2"
_cell_formula_units_Z 52
_cell_length_a 11.385961
_cell_length_b 25.106681
_cell_length_c 7.818915
_cell_angle_alpha 90.000000
_cell_angle_beta 90.000000
_cell_angle_gamma 90.000000
_cell_volume 2235.143899
_symmetry_space_group_name_H-M "I 2 2 2"
_symmetry_group_IT_number 23
_symmetry_cell_setting 'orthorhombic'
loop_
_space_group_symop_operation_xyz
x,y,z
-x,-y,z
x,-y,-z
-x,y,-z
1/2+x,1/2+y,1/2+z
1/2-x,1/2-y,1/2+z
1/2+x,1/2-y,1/2-z
1/2-x,1/2+y,1/2-z
loop_
_atom_site_type_symbol
_atom_site_label
_atom_site_fract_x
_atom_site_fract_y
_atom_site_fract_z
Si Si1 0.000000 0.140249 0.000000
Si Si2 0.355263 0.397346 0.188106
Si Si3 0.381264 0.152942 0.179433
Si Si4 0.358030 0.829552 0.220624
Si Si5 0.336449 0.284280 0.712700
Si Si6 0.289560 0.500000 0.000000
Si Si7 0.370871 0.973920 0.824179
Si Si8 0.500000 0.689585 0.000000
O O1 0.897667 0.179837 0.932969
O O2 0.059341 0.104548 0.853089
O O3 0.222515 0.380886 0.239308
O O4 0.360151 0.450288 0.076133
O O5 0.402967 0.349105 0.076124
O O6 0.505672 0.163857 0.267917
O O7 0.274006 0.181210 0.275298
O O8 0.376559 0.089554 0.156670
O O9 0.364777 0.175469 0.986393
O O10 0.303723 0.777237 0.311001
O O11 0.440574 0.278515 0.849962
O O12 0.208463 0.516416 0.159543
O O13 0.500000 0.000000 0.800484
O O14 0.323006 0.000000 0.000000
#
# Coordination Sequence:
#
# PCOD9331865 Si02
#       8
#     4   8   8   8   8   4   8   4
#     4  10  24  46  72 103 148 199 246 312 380 448
#     4  11  24  46  71 104 145 190 252 309 373 451
#     4  11  23  43  68 110 145 196 244 307 379 451
#     4  11  24  40  72 103 148 191 246 301 371 457
#     4  11  24  42  70 102 149 195 248 299 373 444
#     4  12  25  45  76 110 142 198 257 317 382 450
#     4  11  23  43  75 107 157 202 248 321 383 446
#     4  10  24  43  68  96 144 190 235 312 344 444
#
# _framework density 23.264723
#
# number of rings (size 3 to 8) (size 9 to 14) (size 15 to 20)
#    0.000    1.077    1.538    5.769    6.462    0.308 
#    2.769    0.000    3.385    0.000    0.000    0.000 
#    0.000    0.000    0.000    0.000    0.000    0.000 
#
# Total GULP energy -145406.551719 kJ/mol
# GULP energy per Si atom -5592.559681 kJ/mol
# Density = 2.321177 g / cm^3
# Si number density = 23.264723 Si / 1000 Ang^3
#
#
#
# Elastic Constant Matrix: (Units=GPa)
#
#
# Indices 1 2 3 4 5 6 
#
# 1 110.1377 51.8231 24.3445 0.0012 -0.0003 0.0001
# 2 51.8231 179.6902 47.3824 0.0019 -0.0003 -0.0003
# 3 24.3445 47.3824 105.9477 0.0158 -0.0036 -0.0017
# 4 0.0012 0.0019 0.0158 -8.0954 -0.0012 0.0010
# 5 -0.0003 -0.0003 -0.0036 -0.0012 30.0528 0.0002
# 6 0.0001 -0.0003 -0.0017 0.0010 0.0002 17.1886
#
#
#
# Elastic Compliance Matrix: (Units=1/GPa)
#
#
# Indices 1 2 3 4 5 6 
#
# 1 0.010642 -0.002748 -0.001216 -0.000001 0.000000 0.000000
# 2 -0.002748 0.007019 -0.002508 -0.000004 0.000000 0.000000
# 3 -0.001216 -0.002508 0.010839 0.000020 0.000001 0.000001
# 4 -0.000001 -0.000004 0.000020 -0.123527 -0.000005 0.000007
# 5 0.000000 0.000000 0.000001 -0.000005 0.033275 0.000000
# 6 0.000000 0.000000 0.000001 0.000007 0.000000 0.058178
#
#
# Mechanical properties :
#
#
# Convention : Reuss Voigt Hill
#
# Bulk Modulus (GPa) = 64.28371 71.43062 67.85717
# Shear Modulus (GPa) = 343.51535 25.97758 184.74647
#
# Velocity S-wave (km/s) = 12.16452 3.34519 8.92093
# Velocity P-wave (km/s) = 14.99974 6.75947 11.63363
#
# Compressibility (1/GPa) = 0.01555604
#
# Stress axis : x y z
#
# Youngs Moduli (GPa) = 93.97146 142.47065 92.25540
#
# Poissons Ratio (x) = 0.39156 0.11219
# Poissons Ratio (y) = 0.25827 0.23133
# Poissons Ratio (z) = 0.11427 0.35725
#
# Static dielectric constant tensor:
#      x y z
#    x 1.911250 0.000000 0.000000 
#    y 0.000000 1.876930 0.000000 
#    z 0.000000 0.000000 1.915800 
# 
# From -- ./inp_files/8837.got.cif
#   From: 2010.05.17/outbox.cif.g08.bks.cpg/sg23_5_cif.got.tgz:8837.got - 2010.06.04 12:02:01.
