data_PCOD9331623
_publ_section_title
;
Structure prediction by ZEFSAII (Michael W. Deem and Ramdas Pophale) SiO2 
 PCOD9331623
Probable space group: I 2 2 2
;
_chemical_formula_sum "Si O2"
_cell_formula_units_Z 52
_cell_length_a 20.337674
_cell_length_b 15.252145
_cell_length_c 7.850470
_cell_angle_alpha 90.000000
_cell_angle_beta 90.000000
_cell_angle_gamma 90.000000
_cell_volume 2435.162040
_symmetry_space_group_name_H-M "I 2 2 2"
_symmetry_group_IT_number 23
_symmetry_cell_setting 'orthorhombic'
loop_
_space_group_symop_operation_xyz
x,y,z
-x,-y,z
x,-y,-z
-x,y,-z
1/2+x,1/2+y,1/2+z
1/2-x,1/2-y,1/2+z
1/2+x,1/2-y,1/2-z
1/2-x,1/2+y,1/2-z
loop_
_atom_site_type_symbol
_atom_site_label
_atom_site_fract_x
_atom_site_fract_y
_atom_site_fract_z
Si Si1 0.329596 0.500000 0.000000
Si Si2 0.776423 0.250211 0.242642
Si Si3 0.462267 0.804180 0.250894
Si Si4 0.406468 0.832727 0.626044
Si Si5 0.597612 0.018495 0.199662
Si Si6 0.150194 0.807435 0.585292
Si Si7 0.745228 0.054606 0.176278
O O1 0.365662 0.592172 0.036272
O O2 0.285893 0.486496 0.168818
O O3 0.831232 0.306729 0.146968
O O4 0.809611 0.234035 0.426548
O O5 0.705653 0.297227 0.233783
O O6 0.769090 0.154222 0.160138
O O7 0.431727 0.806357 0.440515
O O8 0.539768 0.783331 0.254074
O O9 0.414593 0.745768 0.136769
O O10 0.456351 0.906543 0.207822
O O11 0.410869 0.934900 0.678754
O O12 0.669573 0.058301 0.237070
O O13 0.601356 0.000000 0.000000
O O14 0.750335 0.000000 0.000000
#
# Coordination Sequence:
#
# PCOD9331623 Si02
#       7
#     4   8   8   8   8   8   8
#     4  10  24  38  62  97 123 172 220 282 330 390
#     4  11  23  39  63  95 125 173 216 272 334 396
#     4  11  24  42  61  93 131 178 215 273 326 409
#     4  11  25  39  64  93 131 174 221 263 336 395
#     4  11  22  38  60  93 134 173 215 264 330 398
#     4  11  23  41  65  94 132 169 225 273 343 392
#     4  10  23  38  61  96 130 168 218 272 335 394
#
# _framework density 21.353815000000001
#
# number of rings (size 3 to 8) (size 9 to 14) (size 15 to 20)
#    0.000    1.231    1.538    3.692   10.769    4.308 
#    0.000    0.000    0.000    7.385    0.000    0.000 
#    0.000    0.000    0.000    0.000    0.000    0.000 
#
# Total GULP energy -145234.108794 kJ/mol
# GULP energy per Si atom -5585.927261 kJ/mol
# Density = 2.130521 g / cm^3
# Si number density = 21.353815 Si / 1000 Ang^3
#
#
#
# Elastic Constant Matrix: (Units=GPa)
#
#
# Indices 1 2 3 4 5 6 
#
# 1 74.1343 14.2950 5.3236 0.0000 0.0000 0.0000
# 2 14.2950 87.6107 30.6030 0.0000 0.0000 0.0000
# 3 5.3236 30.6030 77.8645 0.0000 0.0000 0.0000
# 4 0.0000 0.0000 0.0000 29.7476 0.0000 0.0000
# 5 0.0000 0.0000 0.0000 0.0000 48.5620 0.0000
# 6 0.0000 0.0000 0.0000 0.0000 0.0000 18.3472
#
#
#
# Elastic Compliance Matrix: (Units=1/GPa)
#
#
# Indices 1 2 3 4 5 6 
#
# 1 0.013928 -0.002249 -0.000068 0.000000 0.000000 0.000000
# 2 -0.002249 0.013594 -0.005189 0.000000 0.000000 0.000000
# 3 -0.000068 -0.005189 0.014887 0.000000 0.000000 0.000000
# 4 0.000000 0.000000 0.000000 0.033616 0.000000 0.000000
# 5 0.000000 0.000000 0.000000 0.000000 0.020592 0.000000
# 6 0.000000 0.000000 0.000000 0.000000 0.000000 0.054504
#
#
# Mechanical properties :
#
#
# Convention : Reuss Voigt Hill
#
# Bulk Modulus (GPa) = 36.50161 37.78363 37.14262
# Shear Modulus (GPa) = 28.52831 31.95721 30.24276
#
# Velocity S-wave (km/s) = 3.65907 3.87273 3.76742
# Velocity P-wave (km/s) = 5.91461 6.14247 6.02961
#
# Compressibility (1/GPa) = 0.02739605
#
# Stress axis : x y z
#
# Youngs Moduli (GPa) = 71.80026 73.56433 67.17316
#
# Poissons Ratio (x) = 0.16541 0.00460
# Poissons Ratio (y) = 0.16145 0.34856
# Poissons Ratio (z) = 0.00492 0.38172
#
# Static dielectric constant tensor:
#      x y z
#    x 1.779530 0.000000 0.000000 
#    y 0.000000 1.556750 0.000000 
#    z 0.000000 0.000000 1.817820 
# 
# From -- ./inp_files/11980.got.cif
#   From: 2010.05.17/outbox.cif.g08.bks.cpg/sg23_6_cif.got.tgz:11980.got - 2010.06.04 12:02:01.
