data_PCOD9331135
_publ_section_title
;
Structure prediction by ZEFSAII (Michael W. Deem and Ramdas Pophale) SiO2 
 PCOD9331135
Probable space group: I 2 2 2
;
_chemical_formula_sum "Si O2"
_cell_formula_units_Z 54
_cell_length_a 14.657434
_cell_length_b 14.800996
_cell_length_c 11.497937
_cell_angle_alpha 90.000000
_cell_angle_beta 90.000000
_cell_angle_gamma 90.000000
_cell_volume 2494.415596
_symmetry_space_group_name_H-M "I 2 2 2"
_symmetry_group_IT_number 23
_symmetry_cell_setting 'orthorhombic'
loop_
_space_group_symop_operation_xyz
x,y,z
-x,-y,z
x,-y,-z
-x,y,-z
1/2+x,1/2+y,1/2+z
1/2-x,1/2-y,1/2+z
1/2+x,1/2-y,1/2-z
1/2-x,1/2+y,1/2-z
loop_
_atom_site_type_symbol
_atom_site_label
_atom_site_fract_x
_atom_site_fract_y
_atom_site_fract_z
Si Si1 0.332839 0.094211 0.029855
Si Si2 0.356866 0.429311 0.644648
Si Si3 0.371090 0.329556 0.859990
Si Si4 0.102556 0.247774 0.989609
Si Si5 0.000000 0.000000 0.000000
Si Si6 0.269016 0.677601 0.692459
Si Si7 0.747756 0.900725 0.557353
Si Si8 0.500000 0.220437 0.000000
O O1 0.251825 0.073724 0.121448
O O2 0.277612 0.127660 0.916860
O O3 0.413670 0.164132 0.048739
O O4 0.378769 0.000000 0.000000
O O5 0.379750 0.414277 0.777533
O O6 0.393481 0.341811 0.571588
O O7 0.417902 0.511408 0.597412
O O8 0.299615 0.263176 0.793625
O O9 0.461802 0.277259 0.892263
O O10 0.330129 0.360176 0.982305
O O11 0.137933 0.217887 0.861738
O O12 0.167063 0.328876 0.031688
O O13 0.000000 0.279834 0.000000
O O14 0.269642 0.614189 0.805729
O O15 0.729064 0.000000 0.500000
#
# Coordination Sequence:
#
# PCOD9331135 Si02
#       8
#     8   8   8   8   2   8   8   4
#     4  10  21  40  70  97 132 170 223 288 338 406
#     4  11  22  42  65 102 132 172 231 283 347 399
#     4  10  23  44  64  91 136 178 222 279 343 427
#     4  10  21  41  68  97 127 179 227 282 336 411
#     4  12  24  40  72 104 130 172 248 300 322 418
#     4   9  21  41  66  93 130 177 222 272 341 415
#     4  11  24  43  65  97 137 180 225 280 359 420
#     4  10  23  44  63 100 130 180 224 274 347 429
#
# _framework density 21.648356
#
# number of rings (size 3 to 8) (size 9 to 14) (size 15 to 20)
#    0.000    1.778    2.963    1.111    2.074    1.481 
#    5.333    0.000    6.519    0.000    0.000    0.000 
#    0.000    0.000    0.000    0.000    0.000    0.000 
#
# Total GULP energy -150355.097684 kJ/mol
# GULP energy per Si atom -5568.707322 kJ/mol
# Density = 2.159908 g / cm^3
# Si number density = 21.648356 Si / 1000 Ang^3
#
#
#
# Elastic Constant Matrix: (Units=GPa)
#
#
# Indices 1 2 3 4 5 6 
#
# 1 136.1677 21.6588 58.3325 0.0000 0.0000 0.0000
# 2 21.6588 76.5271 15.0180 0.0000 0.0000 0.0000
# 3 58.3325 15.0180 94.2743 0.0000 0.0000 0.0000
# 4 0.0000 0.0000 0.0000 28.7084 0.0000 0.0000
# 5 0.0000 0.0000 0.0000 0.0000 9.4611 0.0000
# 6 0.0000 0.0000 0.0000 0.0000 0.0000 -7.9485
#
#
#
# Elastic Compliance Matrix: (Units=1/GPa)
#
#
# Indices 1 2 3 4 5 6 
#
# 1 0.010203 -0.001702 -0.006042 0.000000 0.000000 0.000000
# 2 -0.001702 0.013773 -0.001141 0.000000 0.000000 0.000000
# 3 -0.006042 -0.001141 0.014528 0.000000 0.000000 0.000000
# 4 0.000000 0.000000 0.000000 0.034833 0.000000 0.000000
# 5 0.000000 0.000000 0.000000 0.000000 0.105695 0.000000
# 6 0.000000 0.000000 0.000000 0.000000 0.000000 -0.125810
#
#
# Mechanical properties :
#
#
# Convention : Reuss Voigt Hill
#
# Bulk Modulus (GPa) = 48.23079 55.22086 51.72582
# Shear Modulus (GPa) = 64.18244 20.17487 42.17866
#
# Velocity S-wave (km/s) = 5.45088 3.05607 4.41880
# Velocity P-wave (km/s) = 7.87043 6.16573 7.06965
#
# Compressibility (1/GPa) = 0.02073364
#
# Stress axis : x y z
#
# Youngs Moduli (GPa) = 98.01152 72.60659 68.83461
#
# Poissons Ratio (x) = 0.12357 0.41589
# Poissons Ratio (y) = 0.16681 0.07854
# Poissons Ratio (z) = 0.59218 0.08284
#
# Static dielectric constant tensor:
#      x y z
#    x 1.792530 0.000000 0.000000 
#    y 0.000000 1.913170 0.000000 
#    z 0.000000 0.000000 1.896490 
# 
# From -- ./inp_files/16810.got.cif
#   From: 2010.05.17/outbox.cif.g08.bks.cpg/sg23_9_cif.got.tgz:16810.got - 2010.06.04 12:02:01.
