data_PCOD9331404
_publ_section_title
;
Structure prediction by ZEFSAII (Michael W. Deem and Ramdas Pophale) SiO2 
 PCOD9331404
Probable space group: I 2 2 2
;
_chemical_formula_sum "Si O2"
_cell_formula_units_Z 60
_cell_length_a 10.903743
_cell_length_b 20.706041
_cell_length_c 12.009857
_cell_angle_alpha 90.000000
_cell_angle_beta 90.000000
_cell_angle_gamma 90.000000
_cell_volume 2711.505643
_symmetry_space_group_name_H-M "I 2 2 2"
_symmetry_group_IT_number 23
_symmetry_cell_setting 'orthorhombic'
loop_
_space_group_symop_operation_xyz
x,y,z
-x,-y,z
x,-y,-z
-x,y,-z
1/2+x,1/2+y,1/2+z
1/2-x,1/2-y,1/2+z
1/2+x,1/2-y,1/2-z
1/2-x,1/2+y,1/2-z
loop_
_atom_site_type_symbol
_atom_site_label
_atom_site_fract_x
_atom_site_fract_y
_atom_site_fract_z
Si Si1 0.679972 0.141885 0.665872
Si Si2 0.234696 0.342336 0.587956
Si Si3 0.044675 0.300950 0.251711
Si Si4 0.855192 0.202220 0.482301
Si Si5 0.210347 0.873966 0.270188
Si Si6 0.500000 0.143918 0.000000
Si Si7 0.646470 0.002149 0.364760
Si Si8 0.502754 0.671417 0.622860
O O1 0.706149 0.172628 0.784173
O O2 0.534522 0.158113 0.660247
O O3 0.772240 0.170017 0.577066
O O4 0.697722 0.066008 0.675623
O O5 0.212153 0.271722 0.533463
O O6 0.133601 0.387017 0.526008
O O7 0.372439 0.368243 0.599520
O O8 0.185128 0.320450 0.246003
O O9 0.015463 0.321414 0.379222
O O10 0.022560 0.227536 0.214540
O O11 0.853845 0.152025 0.380816
O O12 0.000000 0.211247 0.500000
O O13 0.281823 0.939922 0.302918
O O14 0.113696 0.868799 0.168017
O O15 0.500000 0.000000 0.341433
O O16 0.660458 0.000000 0.500000
O O17 0.500000 0.704329 0.500000
#
# Coordination Sequence:
#
# PCOD9331404 Si02
#       8
#     8   8   8   8   8   4   8   8
#     4  11  24  41  67 105 146 185 248 315 372 450
#     4  11  23  40  65  97 145 189 235 302 381 455
#     4  11  24  40  68 107 146 196 243 312 386 460
#     4  12  24  42  66 103 149 198 247 306 388 469
#     4  12  24  44  72 107 147 198 252 310 393 462
#     4  10  22  40  64  97 142 189 244 298 360 462
#     4  11  23  45  75 105 146 197 259 321 372 448
#     4  12  26  43  65 107 153 193 241 312 394 473
#
# _framework density 22.127928000000001
#
# number of rings (size 3 to 8) (size 9 to 14) (size 15 to 20)
#    0.000    0.667    4.667    4.000    1.867    0.000 
#    0.000    3.333    0.000   11.200    0.000    0.000 
#    0.000    0.000    0.000    0.000    0.000    0.000 
#
# Total GULP energy -167062.539326 kJ/mol
# GULP energy per Si atom -5568.751311 kJ/mol
# Density = 2.207756 g / cm^3
# Si number density = 22.127928 Si / 1000 Ang^3
#
#
#
# Elastic Constant Matrix: (Units=GPa)
#
#
# Indices 1 2 3 4 5 6 
#
# 1 169.0684 39.8762 46.1457 0.0000 0.0000 0.0000
# 2 39.8762 89.5951 18.5721 0.0000 0.0001 0.0001
# 3 46.1457 18.5721 108.1446 0.0001 0.0000 -0.0001
# 4 0.0000 0.0000 0.0001 10.4888 0.0000 0.0001
# 5 0.0000 0.0001 0.0000 0.0000 43.2494 0.0000
# 6 0.0000 0.0001 -0.0001 0.0001 0.0000 96.7863
#
#
#
# Elastic Compliance Matrix: (Units=1/GPa)
#
#
# Indices 1 2 3 4 5 6 
#
# 1 0.007269 -0.002688 -0.002640 0.000000 0.000000 0.000000
# 2 -0.002688 0.012567 -0.001011 0.000000 0.000000 0.000000
# 3 -0.002640 -0.001011 0.010547 0.000000 0.000000 0.000000
# 4 0.000000 0.000000 0.000000 0.095339 0.000000 0.000000
# 5 0.000000 0.000000 0.000000 0.000000 0.023122 0.000000
# 6 0.000000 0.000000 0.000000 0.000000 0.000000 0.010332
#
#
# Mechanical properties :
#
#
# Convention : Reuss Voigt Hill
#
# Bulk Modulus (GPa) = 56.48202 63.99958 60.24080
# Shear Modulus (GPa) = 28.12817 47.58586 37.85702
#
# Velocity S-wave (km/s) = 3.56920 4.64237 4.14070
# Velocity P-wave (km/s) = 6.52428 7.59742 7.08121
#
# Compressibility (1/GPa) = 0.01770475
#
# Stress axis : x y z
#
# Youngs Moduli (GPa) = 137.56274 79.57129 94.81250
#
# Poissons Ratio (x) = 0.21390 0.25033
# Poissons Ratio (y) = 0.36978 0.09588
# Poissons Ratio (z) = 0.36320 0.08046
#
# Static dielectric constant tensor:
#      x y z
#    x 2.145440 0.000000 0.000000 
#    y 0.000000 1.781540 0.000000 
#    z 0.000000 0.000000 1.824770 
# 
# From -- ./inp_files/15957.got.cif
#   From: 2010.05.17/outbox.cif.g08.bks.cpg/sg23_8_cif.got.tgz:15957.got - 2010.06.04 12:02:01.
