data_PCOD9331875
_publ_section_title
;
Structure prediction by ZEFSAII (Michael W. Deem and Ramdas Pophale) SiO2 
 PCOD9331875
Probable space group: I 2 2 2
;
_chemical_formula_sum "Si O2"
_cell_formula_units_Z 60
_cell_length_a 22.020568
_cell_length_b 21.318134
_cell_length_c 6.098725
_cell_angle_alpha 90.000000
_cell_angle_beta 90.000000
_cell_angle_gamma 90.000000
_cell_volume 2862.969726
_symmetry_space_group_name_H-M "I 2 2 2"
_symmetry_group_IT_number 23
_symmetry_cell_setting 'orthorhombic'
loop_
_space_group_symop_operation_xyz
x,y,z
-x,-y,z
x,-y,-z
-x,y,-z
1/2+x,1/2+y,1/2+z
1/2-x,1/2-y,1/2+z
1/2+x,1/2-y,1/2-z
1/2-x,1/2+y,1/2-z
loop_
_atom_site_type_symbol
_atom_site_label
_atom_site_fract_x
_atom_site_fract_y
_atom_site_fract_z
Si Si1 0.945499 0.606726 0.826787
Si Si2 0.979089 0.927088 0.750533
Si Si3 0.435891 0.759008 0.893109
Si Si4 0.832289 0.214234 0.718813
Si Si5 0.251310 0.670942 0.853858
Si Si6 0.621421 0.344953 0.617069
Si Si7 0.838378 0.561539 0.129700
Si Si8 0.580841 0.000000 0.000000
O O1 0.940051 0.670441 0.692618
O O2 0.952578 0.548118 0.663022
O O3 0.884481 0.595897 0.964314
O O4 0.000000 0.609302 0.000000
O O5 0.908103 0.907071 0.776977
O O6 0.000000 0.905408 0.500000
O O7 0.000000 0.000000 0.751896
O O8 0.000000 0.903599 0.000000
O O9 0.421808 0.711227 0.697897
O O10 0.500000 0.743490 0.000000
O O11 0.380243 0.748430 0.059343
O O12 0.794424 0.270385 0.831367
O O13 0.781035 0.175451 0.592114
O O14 0.871049 0.164817 0.859477
O O15 0.310632 0.670346 0.700524
O O16 0.214619 0.608280 0.811155
O O17 0.876684 0.541174 0.340863
O O18 0.816706 0.500000 0.000000
#
# Coordination Sequence:
#
# PCOD9331875 Si02
#       8
#     8   8   8   8   8   8   8   4
#     4  11  26  41  66  98 130 181 228 283 345 422
#     4  10  24  47  74 106 146 194 248 309 376 448
#     4  11  27  42  66 104 136 178 230 292 360 435
#     4  11  24  42  68 102 142 180 230 291 369 435
#     4  11  23  43  68 101 135 182 231 289 361 441
#     4  11  25  42  70 101 142 186 231 300 366 444
#     4  10  24  44  66  94 134 179 227 287 342 421
#     4  10  24  47  64  90 134 178 227 280 350 406
#
# _framework density 20.957259000000001
#
# number of rings (size 3 to 8) (size 9 to 14) (size 15 to 20)
#    0.000    1.333    1.333    2.000   13.067    5.067 
#    2.400    1.333    0.000    0.000    0.000    0.000 
#    0.000    0.000    0.000    0.000    0.000    0.000 
#
# Total GULP energy -167377.217628 kJ/mol
# GULP energy per Si atom -5579.240588 kJ/mol
# Density = 2.090956 g / cm^3
# Si number density = 20.957259 Si / 1000 Ang^3
#
#
#
# Elastic Constant Matrix: (Units=GPa)
#
#
# Indices 1 2 3 4 5 6 
#
# 1 78.7908 35.4802 25.2750 0.0000 0.0000 0.0000
# 2 35.4802 99.1527 19.3940 0.0000 0.0000 0.0000
# 3 25.2750 19.3940 102.2930 0.0000 0.0000 0.0000
# 4 0.0000 0.0000 0.0000 46.5595 0.0000 0.0000
# 5 0.0000 0.0000 0.0000 0.0000 -14.3600 0.0000
# 6 0.0000 0.0000 0.0000 0.0000 0.0000 105.9658
#
#
#
# Elastic Compliance Matrix: (Units=1/GPa)
#
#
# Indices 1 2 3 4 5 6 
#
# 1 0.015954 -0.005128 -0.002970 0.000000 0.000000 0.000000
# 2 -0.005128 0.012122 -0.001031 0.000000 0.000000 0.000000
# 3 -0.002970 -0.001031 0.010705 0.000000 0.000000 0.000000
# 4 0.000000 0.000000 0.000000 0.021478 0.000000 0.000000
# 5 0.000000 0.000000 0.000000 0.000000 -0.069638 0.000000
# 6 0.000000 0.000000 0.000000 0.000000 0.000000 0.009437
#
#
# Mechanical properties :
#
#
# Convention : Reuss Voigt Hill
#
# Bulk Modulus (GPa) = 48.72529 48.94830 48.83679
# Shear Modulus (GPa) = 198.75634 40.97223 119.86428
#
# Velocity S-wave (km/s) = 9.74909 4.42638 7.57092
# Velocity P-wave (km/s) = 12.24854 7.03781 9.98893
#
# Compressibility (1/GPa) = 0.02052322
#
# Stress axis : x y z
#
# Youngs Moduli (GPa) = 62.68182 82.49404 93.41328
#
# Poissons Ratio (x) = 0.42302 0.27741
# Poissons Ratio (y) = 0.32142 0.09633
# Poissons Ratio (z) = 0.18614 0.08507
#
# Static dielectric constant tensor:
#      x y z
#    x 1.759380 0.000000 0.000000 
#    y 0.000000 1.748320 0.000000 
#    z 0.000000 0.000000 1.842760 
# 
# From -- ./inp_files/4551.got.cif
#   From: 2010.05.17/outbox.cif.g08.bks.cpg/sg23_3_cif.got.tgz:4551.got - 2010.06.04 12:02:01.
