data_PCOD9331908
_publ_section_title
;
Structure prediction by ZEFSAII (Michael W. Deem and Ramdas Pophale) SiO2 
 PCOD9331908
Probable space group: I 2 2 2
;
_chemical_formula_sum "Si O2"
_cell_formula_units_Z 32
_cell_length_a 5.028412
_cell_length_b 11.342845
_cell_length_c 23.514582
_cell_angle_alpha 90.000000
_cell_angle_beta 90.000000
_cell_angle_gamma 90.000000
_cell_volume 1341.189407
_symmetry_space_group_name_H-M "I 2 2 2"
_symmetry_group_IT_number 23
_symmetry_cell_setting 'orthorhombic'
loop_
_space_group_symop_operation_xyz
x,y,z
-x,-y,z
x,-y,-z
-x,y,-z
1/2+x,1/2+y,1/2+z
1/2-x,1/2-y,1/2+z
1/2+x,1/2-y,1/2-z
1/2-x,1/2+y,1/2-z
loop_
_atom_site_type_symbol
_atom_site_label
_atom_site_fract_x
_atom_site_fract_y
_atom_site_fract_z
Si Si1 0.500000 0.500000 0.000000
Si Si2 0.500000 0.000000 0.000000
Si Si3 0.804323 0.222033 0.714711
Si Si4 0.343258 0.834727 0.421380
Si Si5 0.340960 0.810966 0.087707
Si Si6 0.500000 0.000000 0.677521
O O1 0.695496 0.578532 0.036940
O O2 0.325833 0.079222 0.955566
O O3 0.598501 0.274926 0.760167
O O4 0.784573 0.298717 0.655907
O O5 0.704680 0.087121 0.708003
O O6 0.637151 0.788724 0.434976
O O7 0.349724 0.908375 0.363400
O O8 0.149548 0.723979 0.416309
#
# Coordination Sequence:
#
# PCOD9331908 Si02
#       6
#     2   2   8   8   8   4
#     4  12  22  38  72 108 136 182 222 298 360 430
#     4  12  30  52  76 104 164 212 254 320 392 472
#     4  11  24  45  75 108 143 186 252 316 378 458
#     4  11  25  43  69 103 140 179 242 291 365 450
#     4  11  27  49  70 104 145 199 249 307 377 460
#     4  10  24  46  70 100 142 184 226 316 384 434
#
# _framework density 23.859417000000001
#
# number of rings (size 3 to 8) (size 9 to 14) (size 15 to 20)
#    0.000    1.000    0.000    6.750    0.000   17.500 
#    0.000    5.000    0.000    6.000    0.000    0.000 
#    0.000    0.000    0.000    0.000    0.000    0.000 
#
# Total GULP energy -89428.610035 kJ/mol
# GULP energy per Si atom -5589.288127 kJ/mol
# Density = 2.380511 g / cm^3
# Si number density = 23.859417 Si / 1000 Ang^3
#
#
#
# Elastic Constant Matrix: (Units=GPa)
#
#
# Indices 1 2 3 4 5 6 
#
# 1 80.9271 12.0660 40.4611 0.0000 0.0000 0.0000
# 2 12.0660 110.1144 63.7996 0.0000 0.0000 0.0000
# 3 40.4611 63.7996 144.7101 0.0000 0.0000 0.0000
# 4 0.0000 0.0000 0.0000 78.2397 0.0000 0.0000
# 5 0.0000 0.0000 0.0000 0.0000 43.6899 0.0000
# 6 0.0000 0.0000 0.0000 0.0000 0.0000 33.3751
#
#
#
# Elastic Compliance Matrix: (Units=1/GPa)
#
#
# Indices 1 2 3 4 5 6 
#
# 1 0.014449 0.001017 -0.004489 0.000000 0.000000 0.000000
# 2 0.001017 0.012269 -0.005693 0.000000 0.000000 0.000000
# 3 -0.004489 -0.005693 0.010676 0.000000 0.000000 0.000000
# 4 0.000000 0.000000 0.000000 0.012781 0.000000 0.000000
# 5 0.000000 0.000000 0.000000 0.000000 0.022889 0.000000
# 6 0.000000 0.000000 0.000000 0.000000 0.000000 0.029962
#
#
# Mechanical properties :
#
#
# Convention : Reuss Voigt Hill
#
# Bulk Modulus (GPa) = 52.45458 63.15614 57.80536
# Shear Modulus (GPa) = 39.15124 45.68928 42.42026
#
# Velocity S-wave (km/s) = 4.05521 4.38075 4.22112
# Velocity P-wave (km/s) = 6.63015 7.21911 6.93089
#
# Compressibility (1/GPa) = 0.01906411
#
# Stress axis : x y z
#
# Youngs Moduli (GPa) = 69.20772 81.50788 93.67235
#
# Poissons Ratio (x) = -0.08292 0.42045
# Poissons Ratio (y) = -0.07041 0.53332
# Poissons Ratio (z) = 0.31064 0.46406
#
# Static dielectric constant tensor:
#      x y z
#    x 1.839220 0.000000 0.000000 
#    y 0.000000 1.985440 0.000000 
#    z 0.000000 0.000000 1.961390 
# 
# From -- ./inp_files/27522.got.cif
#   From: 2010.05.17/outbox.cif.g08.bks.cpg/sg23_14_cif.got.tgz:27522.got - 2010.06.04 12:02:01.
