data_PCOD9331926
_publ_section_title
;
Structure prediction by ZEFSAII (Michael W. Deem and Ramdas Pophale) SiO2 
 PCOD9331926
Probable space group: I 2 2 2
;
_chemical_formula_sum "Si O2"
_cell_formula_units_Z 32
_cell_length_a 11.006542
_cell_length_b 5.508242
_cell_length_c 20.908029
_cell_angle_alpha 90.000000
_cell_angle_beta 90.000000
_cell_angle_gamma 90.000000
_cell_volume 1267.584737
_symmetry_space_group_name_H-M "I 2 2 2"
_symmetry_group_IT_number 23
_symmetry_cell_setting 'orthorhombic'
loop_
_space_group_symop_operation_xyz
x,y,z
-x,-y,z
x,-y,-z
-x,y,-z
1/2+x,1/2+y,1/2+z
1/2-x,1/2-y,1/2+z
1/2+x,1/2-y,1/2-z
1/2-x,1/2+y,1/2-z
loop_
_atom_site_type_symbol
_atom_site_label
_atom_site_fract_x
_atom_site_fract_y
_atom_site_fract_z
Si Si1 0.316896 0.000000 0.500000
Si Si2 0.855667 0.375089 0.432980
Si Si3 0.684644 0.403557 0.748991
Si Si4 0.000000 0.000000 0.359707
Si Si5 0.379763 0.655501 0.610766
O O1 0.229313 0.152045 0.546006
O O2 0.386767 0.156906 0.447659
O O3 0.881359 0.500000 0.500000
O O4 0.757288 0.545621 0.397074
O O5 0.972237 0.243647 0.400302
O O6 0.756624 0.162348 0.771425
O O7 0.611268 0.495596 0.810679
O O8 0.614224 0.294012 0.687064
O O9 0.500000 0.500000 0.599311
#
# Coordination Sequence:
#
# PCOD9331926 Si02
#       5
#     4   8   8   4   8
#     4  10  24  48  76 106 160 209 288 341 420 516
#     4  10  24  48  75 113 158 212 283 341 421 510
#     4  12  27  51  80 122 167 217 282 350 433 515
#     4  12  24  51  84 118 167 226 274 366 424 520
#     4  11  24  46  77 118 159 217 278 352 426 508
#
# _framework density 25.244862000000001
#
# number of rings (size 3 to 8) (size 9 to 14) (size 15 to 20)
#    0.000    1.000    3.750    1.500    0.000    8.000 
#    9.000    6.250    0.000    0.000    0.000    0.000 
#    0.000    0.000    0.000    0.000    0.000    0.000 
#
# Total GULP energy -89236.115739 kJ/mol
# GULP energy per Si atom -5577.257234 kJ/mol
# Density = 2.518740 g / cm^3
# Si number density = 25.244862 Si / 1000 Ang^3
#
#
#
# Elastic Constant Matrix: (Units=GPa)
#
#
# Indices 1 2 3 4 5 6 
#
# 1 92.2523 44.2471 53.6958 0.0000 0.0000 0.0000
# 2 44.2471 113.0316 66.7102 0.0000 0.0000 0.0000
# 3 53.6958 66.7102 182.4356 0.0000 0.0000 0.0000
# 4 0.0000 0.0000 0.0000 52.8921 0.0000 0.0000
# 5 0.0000 0.0000 0.0000 0.0000 1486.8166 0.0000
# 6 0.0000 0.0000 0.0000 0.0000 0.0000 47.5594
#
#
#
# Elastic Compliance Matrix: (Units=1/GPa)
#
#
# Indices 1 2 3 4 5 6 
#
# 1 0.014365 -0.003989 -0.002769 0.000000 0.000000 0.000000
# 2 -0.003989 0.012389 -0.003356 0.000000 0.000000 0.000000
# 3 -0.002769 -0.003356 0.007524 0.000000 0.000000 0.000000
# 4 0.000000 0.000000 0.000000 0.018906 0.000000 0.000000
# 5 0.000000 0.000000 0.000000 0.000000 0.000673 0.000000
# 6 0.000000 0.000000 0.000000 0.000000 0.000000 0.021026
#
#
# Mechanical properties :
#
#
# Convention : Reuss Voigt Hill
#
# Bulk Modulus (GPa) = 71.17939 79.66953 75.42446
# Shear Modulus (GPa) = 50.10241 332.32473 191.21357
#
# Velocity S-wave (km/s) = 4.45978 11.48592 8.71252
# Velocity P-wave (km/s) = 7.40110 14.40587 11.45219
#
# Compressibility (1/GPa) = 0.01404901
#
# Stress axis : x y z
#
# Youngs Moduli (GPa) = 69.61398 80.71409 132.91143
#
# Poissons Ratio (x) = 0.32195 0.36809
# Poissons Ratio (y) = 0.27767 0.44610
# Poissons Ratio (z) = 0.19279 0.27091
#
# Static dielectric constant tensor:
#      x y z
#    x 2.045410 0.000000 0.000000 
#    y 0.000000 -15.661290 0.000000 
#    z 0.000000 0.000000 1.976010 
# 
# From -- ./inp_files/26505.got.cif
#   From: 2010.05.17/outbox.cif.g08.bks.cpg/sg23_14_cif.got.tgz:26505.got - 2010.06.04 12:02:01.
