data_PCOD9331116
_publ_section_title
;
Structure prediction by ZEFSAII (Michael W. Deem and Ramdas Pophale) SiO2 
 PCOD9331116
Probable space group: I 2 2 2
;
_chemical_formula_sum "Si O2"
_cell_formula_units_Z 54
_cell_length_a 14.655339
_cell_length_b 12.198432
_cell_length_c 14.385475
_cell_angle_alpha 90.000000
_cell_angle_beta 90.000000
_cell_angle_gamma 90.000000
_cell_volume 2571.722384
_symmetry_space_group_name_H-M "I 2 2 2"
_symmetry_group_IT_number 23
_symmetry_cell_setting 'orthorhombic'
loop_
_space_group_symop_operation_xyz
x,y,z
-x,-y,z
x,-y,-z
-x,y,-z
1/2+x,1/2+y,1/2+z
1/2-x,1/2-y,1/2+z
1/2+x,1/2-y,1/2-z
1/2-x,1/2+y,1/2-z
loop_
_atom_site_type_symbol
_atom_site_label
_atom_site_fract_x
_atom_site_fract_y
_atom_site_fract_z
Si Si1 0.977411 0.621313 0.325287
Si Si2 0.823337 0.781099 0.286828
Si Si3 0.500000 0.000000 0.500000
Si Si4 0.883390 0.274107 0.194982
Si Si5 0.500000 0.719408 0.000000
Si Si6 0.621777 0.804793 0.527508
Si Si7 0.463233 0.617569 0.347461
Si Si8 0.188919 0.872764 0.503277
O O1 0.056552 0.638358 0.249481
O O2 0.984784 0.702221 0.412395
O O3 0.000000 0.500000 0.359585
O O4 0.881577 0.667079 0.282343
O O5 0.717277 0.764099 0.263341
O O6 0.880078 0.869430 0.226024
O O7 0.816948 0.827627 0.391505
O O8 0.433255 0.084568 0.553627
O O9 0.947052 0.167562 0.201535
O O10 0.879760 0.299736 0.084869
O O11 0.413293 0.647761 0.969874
O O12 0.573108 0.700031 0.572538
O O13 0.728978 0.811502 0.549826
O O14 0.500000 0.500000 0.379614
O O15 0.212456 0.000000 0.500000
#
# Coordination Sequence:
#
# PCOD9331116 Si02
#       8
#     8   8   2   8   4   8   8   8
#     4  10  22  40  65  90 128 175 215 276 330 399
#     4   9  23  42  59  96 130 161 230 267 331 407
#     4  12  20  40  66  94 124 162 224 282 316 398
#     4  10  22  41  62  93 128 169 221 269 328 400
#     4  10  22  40  62  94 136 168 228 266 336 412
#     4  11  23  39  66  97 128 172 223 278 338 400
#     4  11  24  43  65  96 138 180 219 280 350 413
#     4  10  21  40  66  96 129 175 225 283 333 398
#
# _framework density 20.997601
#
# number of rings (size 3 to 8) (size 9 to 14) (size 15 to 20)
#    0.000    1.778    2.222    0.444    3.111    5.926 
#    0.000    0.000    0.000    0.000    0.000    0.000 
#    0.000    0.000    0.000    0.000    0.000    0.000 
#
# Total GULP energy -150446.324749 kJ/mol
# GULP energy per Si atom -5572.086102 kJ/mol
# Density = 2.094981 g / cm^3
# Si number density = 20.997601 Si / 1000 Ang^3
#
#
#
# Elastic Constant Matrix: (Units=GPa)
#
#
# Indices 1 2 3 4 5 6 
#
# 1 204.8909 50.8755 29.0743 0.0000 0.0000 0.0000
# 2 50.8755 96.6457 13.8145 0.0000 0.0000 0.0000
# 3 29.0743 13.8145 57.8061 0.0000 0.0000 0.0000
# 4 0.0000 0.0000 0.0000 19.3384 0.0000 0.0000
# 5 0.0000 0.0000 0.0000 0.0000 28.1647 0.0000
# 6 0.0000 0.0000 0.0000 0.0000 0.0000 -0.4368
#
#
#
# Elastic Compliance Matrix: (Units=1/GPa)
#
#
# Indices 1 2 3 4 5 6 
#
# 1 0.005896 -0.002775 -0.002303 0.000000 0.000000 0.000000
# 2 -0.002775 0.012019 -0.001477 0.000000 0.000000 0.000000
# 3 -0.002303 -0.001477 0.018810 0.000000 0.000000 0.000000
# 4 0.000000 0.000000 0.000000 0.051711 0.000000 0.000000
# 5 0.000000 0.000000 0.000000 0.000000 0.035505 0.000000
# 6 0.000000 0.000000 0.000000 0.000000 0.000000 -2.289420
#
#
# Mechanical properties :
#
#
# Convention : Reuss Voigt Hill
#
# Bulk Modulus (GPa) = 42.34156 60.76347 51.55251
# Shear Modulus (GPa) = -2.33155 27.11848 12.39347
#
# Velocity S-wave (km/s) = -1.05489 3.59765 2.43211
# Velocity P-wave (km/s) = 4.32724 6.80136 5.70016
#
# Compressibility (1/GPa) = 0.02361746
#
# Stress axis : x y z
#
# Youngs Moduli (GPa) = 169.59567 83.20269 53.16264
#
# Poissons Ratio (x) = 0.23087 0.12241
# Poissons Ratio (y) = 0.47059 0.07850
# Poissons Ratio (z) = 0.39050 0.12286
#
# Static dielectric constant tensor:
#      x y z
#    x 1.837790 0.000000 0.000000 
#    y 0.000000 1.794380 0.000000 
#    z 0.000000 0.000000 1.813570 
# 
# From -- ./inp_files/21623.got.cif
#   From: 2010.05.17/outbox.cif.g08.bks.cpg/sg23_11_cif.got.tgz:21623.got - 2010.06.04 12:02:01.
