data_PCOD9331151
_publ_section_title
;
Structure prediction by ZEFSAII (Michael W. Deem and Ramdas Pophale) SiO2 
 PCOD9331151
Probable space group: I 2 2 2
;
_chemical_formula_sum "Si O2"
_cell_formula_units_Z 38
_cell_length_a 6.798356
_cell_length_b 21.887349
_cell_length_c 13.309351
_cell_angle_alpha 90.000000
_cell_angle_beta 90.000000
_cell_angle_gamma 90.000000
_cell_volume 1980.404682
_symmetry_space_group_name_H-M "I 2 2 2"
_symmetry_group_IT_number 23
_symmetry_cell_setting 'orthorhombic'
loop_
_space_group_symop_operation_xyz
x,y,z
-x,-y,z
x,-y,-z
-x,y,-z
1/2+x,1/2+y,1/2+z
1/2-x,1/2-y,1/2+z
1/2+x,1/2-y,1/2-z
1/2-x,1/2+y,1/2-z
loop_
_atom_site_type_symbol
_atom_site_label
_atom_site_fract_x
_atom_site_fract_y
_atom_site_fract_z
Si Si1 0.000000 0.000000 0.674027
Si Si2 0.192245 0.458417 0.339483
Si Si3 0.923910 0.719223 0.886556
Si Si4 0.759647 0.325788 0.731148
Si Si5 0.500000 0.500000 0.500000
Si Si6 0.932214 0.866760 0.390053
O O1 0.187043 0.014635 0.744815
O O2 0.944748 0.060185 0.612967
O O3 0.147791 0.388019 0.313165
O O4 0.351563 0.461677 0.429678
O O5 0.000000 0.500000 0.359179
O O6 0.807139 0.780118 0.856045
O O7 0.781692 0.661039 0.874829
O O8 0.095674 0.709457 0.806063
O O9 0.000000 0.722187 0.000000
O O10 0.573998 0.344573 0.800514
O O11 0.000000 0.844812 0.500000
#
# Coordination Sequence:
#
# PCOD9331151 Si02
#       6
#     4   8   8   8   2   8
#     4   9  21  37  63  88 126 166 208 260 324 374
#     4  10  21  41  62  90 126 166 212 266 319 374
#     4  12  24  41  65  97 131 174 218 262 322 384
#     4  11  24  41  64  94 131 169 212 269 317 381
#     4  10  22  40  62  94 118 168 216 268 312 382
#     4  11  21  40  63  92 127 166 212 264 318 379
#
# _framework density 19.187998
#
# number of rings (size 3 to 8) (size 9 to 14) (size 15 to 20)
#    0.000    1.263    4.211    1.895    1.474    0.000 
#    0.000    4.211    0.000    0.000    0.000    0.000 
#    0.000    0.000    0.000    0.000    0.000    0.000 
#
# Total GULP energy -106084.315387 kJ/mol
# GULP energy per Si atom -5583.385020 kJ/mol
# Density = 1.914433 g / cm^3
# Si number density = 19.187998 Si / 1000 Ang^3
#
#
#
# Elastic Constant Matrix: (Units=GPa)
#
#
# Indices 1 2 3 4 5 6 
#
# 1 90.9762 48.8844 34.4972 0.0000 0.0000 0.0000
# 2 48.8844 118.9184 39.0576 0.0000 0.0000 0.0000
# 3 34.4972 39.0576 79.3514 0.0002 0.0000 0.0000
# 4 0.0000 0.0000 0.0002 0.2394 0.0000 0.0000
# 5 0.0000 0.0000 0.0000 0.0000 28.5824 0.0000
# 6 0.0000 0.0000 0.0000 0.0000 0.0000 29.2502
#
#
#
# Elastic Compliance Matrix: (Units=1/GPa)
#
#
# Indices 1 2 3 4 5 6 
#
# 1 0.015205 -0.004866 -0.004215 0.000003 0.000000 0.000000
# 2 -0.004866 0.011588 -0.003588 0.000001 0.000000 0.000000
# 3 -0.004215 -0.003588 0.016201 -0.000011 0.000000 0.000000
# 4 0.000003 0.000001 -0.000011 4.177109 0.000001 0.000000
# 5 0.000000 0.000000 0.000000 0.000001 0.034987 0.000000
# 6 0.000000 0.000000 0.000000 0.000000 0.000000 0.034188
#
#
# Mechanical properties :
#
#
# Convention : Reuss Voigt Hill
#
# Bulk Modulus (GPa) = 56.64123 59.34717 57.99420
# Shear Modulus (GPa) = 1.15727 22.73485 11.94606
#
# Velocity S-wave (km/s) = 0.77745 3.44590 2.49786
# Velocity P-wave (km/s) = 5.51263 6.84315 6.21361
#
# Compressibility (1/GPa) = 0.01765498
#
# Stress axis : x y z
#
# Youngs Moduli (GPa) = 65.76863 86.29667 61.72519
#
# Poissons Ratio (x) = 0.41991 0.26018
# Poissons Ratio (y) = 0.32002 0.22149
# Poissons Ratio (z) = 0.27722 0.30966
#
# Static dielectric constant tensor:
#      x y z
#    x 1.673410 0.000000 0.000000 
#    y 0.000000 1.660800 0.000000 
#    z 0.000000 0.000000 1.646850 
# 
# From -- ./inp_files/4395.got.cif
#   From: 2010.05.17/outbox.cif.g08.bks.cpg/sg23_3_cif.got.tgz:4395.got - 2010.06.04 12:02:01.
