data_PCOD9331199
_publ_section_title
;
Structure prediction by ZEFSAII (Michael W. Deem and Ramdas Pophale) SiO2 
 PCOD9331199
Probable space group: I 2 2 2
;
_chemical_formula_sum "Si O2"
_cell_formula_units_Z 56
_cell_length_a 6.089766
_cell_length_b 29.564035
_cell_length_c 13.722020
_cell_angle_alpha 90.000000
_cell_angle_beta 90.000000
_cell_angle_gamma 90.000000
_cell_volume 2470.485794
_symmetry_space_group_name_H-M "I 2 2 2"
_symmetry_group_IT_number 23
_symmetry_cell_setting 'orthorhombic'
loop_
_space_group_symop_operation_xyz
x,y,z
-x,-y,z
x,-y,-z
-x,y,-z
1/2+x,1/2+y,1/2+z
1/2-x,1/2-y,1/2+z
1/2+x,1/2-y,1/2-z
1/2-x,1/2+y,1/2-z
loop_
_atom_site_type_symbol
_atom_site_label
_atom_site_fract_x
_atom_site_fract_y
_atom_site_fract_z
Si Si1 0.701575 0.135884 0.274848
Si Si2 0.860651 0.229333 0.742619
Si Si3 0.407158 0.403804 0.902039
Si Si4 0.590909 0.452537 0.390578
Si Si5 0.366085 0.182000 0.413328
Si Si6 0.913027 0.452165 0.242491
Si Si7 0.009067 0.846996 0.115563
O O1 0.543167 0.169810 0.330826
O O2 0.585697 0.087749 0.264361
O O3 0.913412 0.124539 0.340796
O O4 0.756059 0.156091 0.169047
O O5 0.617498 0.253311 0.756479
O O6 0.824342 0.211140 0.633163
O O7 0.864695 0.188296 0.822347
O O8 0.234540 0.366476 0.941704
O O9 0.288176 0.436965 0.826573
O O10 0.500000 0.426222 0.000000
O O11 0.500000 0.500000 0.344895
O O12 0.500000 0.454078 0.500000
O O13 0.840967 0.455884 0.355604
O O14 0.542104 0.400164 0.363422
O O15 0.500000 0.204267 0.500000
O O16 0.000000 0.500000 0.208595
O O17 0.000000 0.839404 0.000000
#
# Coordination Sequence:
#
# PCOD9331199 Si02
#       7
#     8   8   8   8   8   8   8
#     4  11  21  43  71 101 140 185 250 313 375 464
#     4  12  28  51  75 111 159 203 260 328 398 488
#     4  11  22  41  73 100 135 188 251 313 375 461
#     4  10  21  42  72 103 143 187 256 317 381 465
#     4  11  23  43  76 106 129 185 248 308 379 455
#     4  11  24  39  66  99 146 197 244 310 394 460
#     4  11  23  47  77 108 152 204 254 319 404 471
#
# _framework density 22.667608000000001
#
# number of rings (size 3 to 8) (size 9 to 14) (size 15 to 20)
#    0.000    1.000    4.286    2.571    0.000    0.571 
#    0.000   25.000    0.000    0.000    0.000    0.000 
#    0.000    0.000    0.000    0.000    0.000    0.000 
#
# Total GULP energy -155952.689431 kJ/mol
# GULP energy per Si atom -5569.738908 kJ/mol
# Density = 2.261602 g / cm^3
# Si number density = 22.667608 Si / 1000 Ang^3
#
#
#
# Elastic Constant Matrix: (Units=GPa)
#
#
# Indices 1 2 3 4 5 6 
#
# 1 107.7490 52.7170 40.1049 0.0000 0.0000 0.0000
# 2 52.7170 106.0300 32.7339 0.0000 0.0000 0.0000
# 3 40.1049 32.7339 131.2442 -0.0001 0.0000 0.0000
# 4 0.0000 0.0000 -0.0001 14.9408 0.0000 0.0000
# 5 0.0000 0.0000 0.0000 0.0000 -17.8660 0.0000
# 6 0.0000 0.0000 0.0000 0.0000 0.0000 36.5245
#
#
#
# Elastic Compliance Matrix: (Units=1/GPa)
#
#
# Indices 1 2 3 4 5 6 
#
# 1 0.013012 -0.005679 -0.002560 0.000000 0.000000 0.000000
# 2 -0.005679 0.012697 -0.001431 0.000000 0.000000 0.000000
# 3 -0.002560 -0.001431 0.008759 0.000000 0.000000 0.000000
# 4 0.000000 0.000000 0.000000 0.066931 0.000000 0.000000
# 5 0.000000 0.000000 0.000000 0.000000 -0.055972 0.000000
# 6 0.000000 0.000000 0.000000 0.000000 0.000000 0.027379
#
#
# Mechanical properties :
#
#
# Convention : Reuss Voigt Hill
#
# Bulk Modulus (GPa) = 66.10697 66.23719 66.17208
# Shear Modulus (GPa) = 51.44679 21.35104 36.39892
#
# Velocity S-wave (km/s) = 4.76922 3.07240 4.01155
# Velocity P-wave (km/s) = 7.71714 6.47076 7.12127
#
# Compressibility (1/GPa) = 0.01512700
#
# Stress axis : x y z
#
# Youngs Moduli (GPa) = 76.85094 78.75970 114.17411
#
# Poissons Ratio (x) = 0.44730 0.29225
# Poissons Ratio (y) = 0.43646 0.16342
# Poissons Ratio (z) = 0.19672 0.11273
#
# Static dielectric constant tensor:
#      x y z
#    x 1.928410 0.000000 0.000000 
#    y 0.000000 2.263140 0.000000 
#    z 0.000000 0.000000 1.873170 
# 
# From -- ./inp_files/19318.got.cif
#   From: 2010.05.17/outbox.cif.g08.bks.cpg/sg23_10_cif.got.tgz:19318.got - 2010.06.04 12:02:01.
