data_PCOD9331431
_publ_section_title
;
Structure prediction by ZEFSAII (Michael W. Deem and Ramdas Pophale) SiO2 
 PCOD9331431
Probable space group: I 2 2 2
;
_chemical_formula_sum "Si O2"
_cell_formula_units_Z 44
_cell_length_a 8.886434
_cell_length_b 27.845878
_cell_length_c 8.321416
_cell_angle_alpha 90.000000
_cell_angle_beta 90.000000
_cell_angle_gamma 90.000000
_cell_volume 2059.139024
_symmetry_space_group_name_H-M "I 2 2 2"
_symmetry_group_IT_number 23
_symmetry_cell_setting 'orthorhombic'
loop_
_space_group_symop_operation_xyz
x,y,z
-x,-y,z
x,-y,-z
-x,y,-z
1/2+x,1/2+y,1/2+z
1/2-x,1/2-y,1/2+z
1/2+x,1/2-y,1/2-z
1/2-x,1/2+y,1/2-z
loop_
_atom_site_type_symbol
_atom_site_label
_atom_site_fract_x
_atom_site_fract_y
_atom_site_fract_z
Si Si1 0.000000 0.807109 0.000000
Si Si2 0.000000 0.424493 0.500000
Si Si3 0.500000 0.693435 0.000000
Si Si4 0.000000 0.570386 0.000000
Si Si5 0.206694 0.654100 0.668070
Si Si6 0.016478 0.267172 0.746137
Si Si7 0.206998 0.346683 0.942246
Si Si8 0.500000 0.000000 0.245725
O O1 0.866104 0.836729 0.917475
O O2 0.063472 0.769412 0.869002
O O3 0.120755 0.390269 0.414031
O O4 0.075483 0.461443 0.627173
O O5 0.587125 0.729340 0.120867
O O6 0.618443 0.660843 0.905380
O O7 0.115434 0.605022 0.093815
O O8 0.081934 0.535869 0.870909
O O9 0.208102 0.650328 0.862186
O O10 0.102363 0.700987 0.649812
O O11 0.120324 0.303493 0.849641
#
# Coordination Sequence:
#
# PCOD9331431 Si02
#       8
#     4   4   4   4   8   8   8   4
#     4  12  25  42  65  97 144 189 233 280 337 396
#     4  11  23  42  71 102 128 164 223 290 353 415
#     4  12  29  38  67  97 144 189 231 288 341 396
#     4  11  21  42  75  98 126 168 219 290 355 417
#     4  12  24  42  64  99 137 182 227 284 338 397
#     4  12  24  41  65  96 137 194 243 274 321 390
#     4  12  23  44  65  97 138 180 230 284 336 406
#     4  10  22  40  72 106 120 158 224 288 350 432
#
# _framework density 21.368155000000002
#
# number of rings (size 3 to 8) (size 9 to 14) (size 15 to 20)
#    0.000    0.364    7.273    1.636    0.000    4.364 
#    0.000    0.000    0.000    6.545    0.000    0.000 
#    0.000    0.000    0.000    0.000    0.000    0.000 
#
# Total GULP energy -122519.093320 kJ/mol
# GULP energy per Si atom -5569.049696 kJ/mol
# Density = 2.131952 g / cm^3
# Si number density = 21.368155 Si / 1000 Ang^3
#
#
#
# Elastic Constant Matrix: (Units=GPa)
#
#
# Indices 1 2 3 4 5 6 
#
# 1 117.8676 54.2016 32.7424 -0.0001 -0.0001 0.0001
# 2 54.2016 139.8947 59.6259 0.0000 0.0000 0.0001
# 3 32.7424 59.6259 93.9843 -0.0009 0.0014 0.0005
# 4 -0.0001 0.0000 -0.0009 67.9086 0.0000 0.0003
# 5 -0.0001 0.0000 0.0014 0.0000 34.5516 0.0001
# 6 0.0001 0.0001 0.0005 0.0003 0.0001 8.3368
#
#
#
# Elastic Compliance Matrix: (Units=1/GPa)
#
#
# Indices 1 2 3 4 5 6 
#
# 1 0.010470 -0.003429 -0.001472 0.000000 0.000000 0.000000
# 2 -0.003429 0.010921 -0.005734 0.000000 0.000000 0.000000
# 3 -0.001472 -0.005734 0.014790 0.000000 -0.000001 -0.000001
# 4 0.000000 0.000000 0.000000 0.014726 0.000000 0.000000
# 5 0.000000 0.000000 -0.000001 0.000000 0.028942 0.000000
# 6 0.000000 0.000000 -0.000001 0.000000 0.000000 0.119950
#
#
# Mechanical properties :
#
#
# Convention : Reuss Voigt Hill
#
# Bulk Modulus (GPa) = 67.06271 71.65404 69.35838
# Shear Modulus (GPa) = 22.12010 35.83785 28.97897
#
# Velocity S-wave (km/s) = 3.22093 4.09976 3.68662
# Velocity P-wave (km/s) = 6.72942 7.48442 7.11694
#
# Compressibility (1/GPa) = 0.01491142
#
# Stress axis : x y z
#
# Youngs Moduli (GPa) = 95.51206 91.56969 67.61103
#
# Poissons Ratio (x) = 0.31400 0.09952
# Poissons Ratio (y) = 0.32752 0.38766
# Poissons Ratio (z) = 0.14059 0.52503
#
# Static dielectric constant tensor:
#      x y z
#    x 1.777620 0.000000 0.000000 
#    y 0.000000 1.771250 0.000000 
#    z 0.000000 0.000000 1.942800 
# 
# From -- ./inp_files/7306.got.cif
#   From: 2010.05.17/outbox.cif.g08.bks.cpg/sg23_4_cif.got.tgz:7306.got - 2010.06.04 12:02:01.
