data_PCOD9331495
_publ_section_title
;
Structure prediction by ZEFSAII (Michael W. Deem and Ramdas Pophale) SiO2 
 PCOD9331495
Probable space group: I 2 2 2
;
_chemical_formula_sum "Si O2"
_cell_formula_units_Z 34
_cell_length_a 8.229542
_cell_length_b 9.313049
_cell_length_c 22.766704
_cell_angle_alpha 90.000000
_cell_angle_beta 90.000000
_cell_angle_gamma 90.000000
_cell_volume 1744.888640
_symmetry_space_group_name_H-M "I 2 2 2"
_symmetry_group_IT_number 23
_symmetry_cell_setting 'orthorhombic'
loop_
_space_group_symop_operation_xyz
x,y,z
-x,-y,z
x,-y,-z
-x,y,-z
1/2+x,1/2+y,1/2+z
1/2-x,1/2-y,1/2+z
1/2+x,1/2-y,1/2-z
1/2-x,1/2+y,1/2-z
loop_
_atom_site_type_symbol
_atom_site_label
_atom_site_fract_x
_atom_site_fract_y
_atom_site_fract_z
Si Si1 0.526764 0.834226 0.796294
Si Si2 0.000000 0.000000 0.000000
Si Si3 0.643216 0.821329 0.325834
Si Si4 0.425088 0.774715 0.440385
Si Si5 0.158007 0.089756 0.633040
O O1 0.482592 0.816735 0.727717
O O2 0.709208 0.786407 0.811745
O O3 0.405940 0.724713 0.829632
O O4 0.500000 0.000000 0.812441
O O5 0.100081 0.891932 0.958586
O O6 0.551742 0.787527 0.386636
O O7 0.728451 0.977570 0.331476
O O8 0.500000 0.837247 0.500000
O O9 0.263298 0.851957 0.420360
O O10 0.000000 0.000000 0.614721
#
# Coordination Sequence:
#
# PCOD9331495 Si02
#       5
#     8   2   8   8   8
#     4  11  23  37  63  92 129 169 211 268 324 389
#     4   8  24  40  66 102 116 172 216 268 318 388
#     4  11  22  40  61  95 126 169 212 265 326 393
#     4  10  22  42  67  88 126 165 218 260 328 386
#     4  10  23  42  63  95 130 166 218 266 326 392
#
# _framework density 19.485484
#
# number of rings (size 3 to 8) (size 9 to 14) (size 15 to 20)
#    0.706    0.941    0.000    4.941    3.294    1.882 
#    6.353    8.235    0.000    7.059    0.000    0.000 
#    0.000    0.000    0.000    0.000    0.000    0.000 
#
# Total GULP energy -94897.204018 kJ/mol
# GULP energy per Si atom -5582.188472 kJ/mol
# Density = 1.944113 g / cm^3
# Si number density = 19.485484 Si / 1000 Ang^3
#
#
#
# Elastic Constant Matrix: (Units=GPa)
#
#
# Indices 1 2 3 4 5 6 
#
# 1 118.6425 58.8993 97.4394 0.0000 0.0000 0.0000
# 2 58.8993 159.6477 66.6316 0.0000 0.0000 0.0000
# 3 97.4394 66.6316 149.7937 0.0000 0.0000 0.0000
# 4 0.0000 0.0000 0.0000 32.2448 0.0000 0.0000
# 5 0.0000 0.0000 0.0000 0.0000 25.3327 0.0000
# 6 0.0000 0.0000 0.0000 0.0000 0.0000 28.3542
#
#
#
# Elastic Compliance Matrix: (Units=1/GPa)
#
#
# Indices 1 2 3 4 5 6 
#
# 1 0.018727 -0.002241 -0.011185 0.000000 0.000000 0.000000
# 2 -0.002241 0.007960 -0.002083 0.000000 0.000000 0.000000
# 3 -0.011185 -0.002083 0.014878 0.000000 0.000000 0.000000
# 4 0.000000 0.000000 0.000000 0.031013 0.000000 0.000000
# 5 0.000000 0.000000 0.000000 0.000000 0.039475 0.000000
# 6 0.000000 0.000000 0.000000 0.000000 0.000000 0.035268
#
#
# Mechanical properties :
#
#
# Convention : Reuss Voigt Hill
#
# Bulk Modulus (GPa) = 94.81066 97.11384 95.96225
# Shear Modulus (GPa) = 27.49438 30.86058 29.17748
#
# Velocity S-wave (km/s) = 3.76043 3.98398 3.87382
# Velocity P-wave (km/s) = 8.22296 8.43268 8.32848
#
# Compressibility (1/GPa) = 0.01054734
#
# Stress axis : x y z
#
# Youngs Moduli (GPa) = 53.39773 125.62931 67.21175
#
# Poissons Ratio (x) = 0.28151 0.75178
# Poissons Ratio (y) = 0.11965 0.14001
# Poissons Ratio (z) = 0.59727 0.26170
#
# Static dielectric constant tensor:
#      x y z
#    x 1.684560 0.000000 0.000000 
#    y 0.000000 1.723740 0.000000 
#    z 0.000000 0.000000 1.659830 
# 
# From -- ./inp_files/11671.got.cif
#   From: 2010.05.17/outbox.cif.g08.bks.cpg/sg23_6_cif.got.tgz:11671.got - 2010.06.04 12:02:01.
