data_PCOD9331260
_publ_section_title
;
Structure prediction by ZEFSAII (Michael W. Deem and Ramdas Pophale) SiO2 
 PCOD9331260
Probable space group: I 2 2 2
;
_chemical_formula_sum "Si O2"
_cell_formula_units_Z 64
_cell_length_a 9.512272
_cell_length_b 15.888895
_cell_length_c 24.192513
_cell_angle_alpha 90.000000
_cell_angle_beta 90.000000
_cell_angle_gamma 90.000000
_cell_volume 3656.444101
_symmetry_space_group_name_H-M "I 2 2 2"
_symmetry_group_IT_number 23
_symmetry_cell_setting 'orthorhombic'
loop_
_space_group_symop_operation_xyz
x,y,z
-x,-y,z
x,-y,-z
-x,y,-z
1/2+x,1/2+y,1/2+z
1/2-x,1/2-y,1/2+z
1/2+x,1/2-y,1/2-z
1/2-x,1/2+y,1/2-z
loop_
_atom_site_type_symbol
_atom_site_label
_atom_site_fract_x
_atom_site_fract_y
_atom_site_fract_z
Si Si1 0.760130 0.576992 0.428720
Si Si2 0.537263 0.617192 0.619907
Si Si3 0.962441 0.306976 0.632936
Si Si4 0.972017 0.259410 0.201376
Si Si5 0.845907 0.978042 0.229942
Si Si6 0.339063 0.320341 0.794297
Si Si7 0.809644 0.388704 0.442974
Si Si8 0.420406 0.087594 0.759519
O O1 0.596551 0.574694 0.410706
O O2 0.827128 0.647016 0.390791
O O3 0.828956 0.484839 0.421251
O O4 0.802776 0.603329 0.491008
O O5 0.492240 0.705841 0.646288
O O6 0.616710 0.565252 0.670154
O O7 0.654073 0.634880 0.574937
O O8 0.918068 0.212542 0.650552
O O9 0.989274 0.359758 0.689538
O O10 0.082995 0.326802 0.588176
O O11 0.805990 0.269086 0.210997
O O12 0.048424 0.203660 0.247652
O O13 0.051997 0.349258 0.208267
O O14 0.791930 0.913323 0.276522
O O15 0.739288 0.056958 0.226790
O O16 0.000000 0.000000 0.251002
O O17 0.500000 0.000000 0.753167
#
# Coordination Sequence:
#
# PCOD9331260 Si02
#       8
#     8   8   8   8   8   8   8   8
#     4  11  21  37  51  74 109 143 187 232 267 305
#     4  11  21  36  53  73 109 149 184 218 275 326
#     4  11  21  34  53  73 107 146 181 221 271 322
#     4  10  22  35  52  75 107 142 181 223 268 324
#     4  11  22  33  53  79 108 141 183 221 269 332
#     4  10  22  36  51  76 106 142 180 223 271 322
#     4  11  23  33  52  78 104 145 189 231 263 312
#     4  11  20  33  53  76 107 140 183 221 264 326
#
# _framework density 17.503344999999999
#
# number of rings (size 3 to 8) (size 9 to 14) (size 15 to 20)
#    0.000    1.250    2.500    5.250   10.500    2.000 
#    0.000    0.000    0.000    0.000    0.000    0.000 
#    0.000   15.000    0.000    0.000    0.000    0.000 
#
# Total GULP energy -178163.227952 kJ/mol
# GULP energy per Si atom -5567.600874 kJ/mol
# Density = 1.746351 g / cm^3
# Si number density = 17.503345 Si / 1000 Ang^3
#
#
#
# Elastic Constant Matrix: (Units=GPa)
#
#
# Indices 1 2 3 4 5 6 
#
# 1 75.7821 5.3402 1.9534 0.0000 0.0000 0.0000
# 2 5.3402 51.6905 32.6596 0.0000 0.0000 0.0000
# 3 1.9534 32.6596 42.0775 0.0000 0.0000 0.0000
# 4 0.0000 0.0000 0.0000 28.1496 0.0000 0.0000
# 5 0.0000 0.0000 0.0000 0.0000 25.4432 0.0000
# 6 0.0000 0.0000 0.0000 0.0000 0.0000 29.8632
#
#
#
# Elastic Compliance Matrix: (Units=1/GPa)
#
#
# Indices 1 2 3 4 5 6 
#
# 1 0.013309 -0.001932 0.000882 0.000000 0.000000 0.000000
# 2 -0.001932 0.038244 -0.029595 0.000000 0.000000 0.000000
# 3 0.000882 -0.029595 0.046695 0.000000 0.000000 0.000000
# 4 0.000000 0.000000 0.000000 0.035525 0.000000 0.000000
# 5 0.000000 0.000000 0.000000 0.000000 0.039303 0.000000
# 6 0.000000 0.000000 0.000000 0.000000 0.000000 0.033486
#
#
# Mechanical properties :
#
#
# Convention : Reuss Voigt Hill
#
# Bulk Modulus (GPa) = 27.05709 27.71741 27.38725
# Shear Modulus (GPa) = 17.84616 25.33099 21.58857
#
# Velocity S-wave (km/s) = 3.19656 3.80835 3.51579
# Velocity P-wave (km/s) = 5.39590 5.93362 5.67114
#
# Compressibility (1/GPa) = 0.03695889
#
# Stress axis : x y z
#
# Youngs Moduli (GPa) = 75.13631 26.14765 21.41537
#
# Poissons Ratio (x) = 0.05052 -0.01888
# Poissons Ratio (y) = 0.14517 0.63378
# Poissons Ratio (z) = -0.06626 0.77383
#
# Static dielectric constant tensor:
#      x y z
#    x 1.653890 0.000000 0.000000 
#    y 0.000000 1.665670 0.000000 
#    z 0.000000 0.000000 1.638270 
# 
# From -- ./inp_files/11413.got.cif
#   From: 2010.05.17/outbox.cif.g08.bks.cpg/sg23_6_cif.got.tgz:11413.got - 2010.06.04 12:02:01.
