data_PCOD9331727
_publ_section_title
;
Structure prediction by ZEFSAII (Michael W. Deem and Ramdas Pophale) SiO2 
 PCOD9331727
Probable space group: I 2 2 2
;
_chemical_formula_sum "Si O2"
_cell_formula_units_Z 30
_cell_length_a 26.859097
_cell_length_b 4.891796
_cell_length_c 9.609877
_cell_angle_alpha 90.000000
_cell_angle_beta 90.000000
_cell_angle_gamma 90.000000
_cell_volume 1262.634275
_symmetry_space_group_name_H-M "I 2 2 2"
_symmetry_group_IT_number 23
_symmetry_cell_setting 'orthorhombic'
loop_
_space_group_symop_operation_xyz
x,y,z
-x,-y,z
x,-y,-z
-x,y,-z
1/2+x,1/2+y,1/2+z
1/2-x,1/2-y,1/2+z
1/2+x,1/2-y,1/2-z
1/2-x,1/2+y,1/2-z
loop_
_atom_site_type_symbol
_atom_site_label
_atom_site_fract_x
_atom_site_fract_y
_atom_site_fract_z
Si Si1 0.083578 0.795563 0.298276
Si Si2 0.111440 0.695148 0.866437
Si Si3 0.500000 0.500000 0.000000
Si Si4 0.831343 0.000000 0.500000
Si Si5 0.717383 0.159328 0.231721
O O1 0.086299 0.483499 0.254348
O O2 0.089391 0.002716 0.164927
O O3 0.036348 0.841531 0.395116
O O4 0.132158 0.857985 0.389687
O O5 0.170833 0.698566 0.836324
O O6 0.103241 0.500000 0.000000
O O7 0.799864 0.781337 0.414813
O O8 0.763638 0.350892 0.274679
#
# Coordination Sequence:
#
# PCOD9331727 Si02
#       5
#     8   8   2   4   8
#     4  10  23  43  72  96 129 172 210 280 334 391
#     4  11  24  45  63  94 138 181 210 263 349 392
#     4  10  24  46  78 110 124 162 236 272 324 412
#     4   9  22  43  60  88 132 162 222 277 336 371
#     4  11  24  40  62  93 124 178 233 281 319 380
#
# _framework density 23.759851000000001
#
# number of rings (size 3 to 8) (size 9 to 14) (size 15 to 20)
#    0.000    1.600    0.000    4.000    1.867   17.067 
#    4.800    4.000    0.000    0.000    0.000    0.000 
#    0.000    0.000    0.000    0.000    0.000    0.000 
#
# Total GULP energy -83922.517542 kJ/mol
# GULP energy per Si atom -5594.834503 kJ/mol
# Density = 2.370577 g / cm^3
# Si number density = 23.759851 Si / 1000 Ang^3
#
#
#
# Elastic Constant Matrix: (Units=GPa)
#
#
# Indices 1 2 3 4 5 6 
#
# 1 110.6039 12.3541 17.8227 0.0000 0.0000 0.0000
# 2 12.3541 108.3919 4.1627 0.0000 0.0000 0.0000
# 3 17.8227 4.1627 84.7625 0.0000 0.0000 0.0000
# 4 0.0000 0.0000 0.0000 19.8355 0.0000 0.0000
# 5 0.0000 0.0000 0.0000 0.0000 14.2707 0.0000
# 6 0.0000 0.0000 0.0000 0.0000 0.0000 15.3738
#
#
#
# Elastic Compliance Matrix: (Units=1/GPa)
#
#
# Indices 1 2 3 4 5 6 
#
# 1 0.009466 -0.001004 -0.001941 0.000000 0.000000 0.000000
# 2 -0.001004 0.009350 -0.000248 0.000000 0.000000 0.000000
# 3 -0.001941 -0.000248 0.012218 0.000000 0.000000 0.000000
# 4 0.000000 0.000000 0.000000 0.050415 0.000000 0.000000
# 5 0.000000 0.000000 0.000000 0.000000 0.070074 0.000000
# 6 0.000000 0.000000 0.000000 0.000000 0.000000 0.065046
#
#
# Mechanical properties :
#
#
# Convention : Reuss Voigt Hill
#
# Bulk Modulus (GPa) = 40.57276 41.38194 40.97735
# Shear Modulus (GPa) = 21.62905 27.85726 24.74316
#
# Velocity S-wave (km/s) = 3.02042 3.42782 3.23055
# Velocity P-wave (km/s) = 5.41084 5.75510 5.58562
#
# Compressibility (1/GPa) = 0.02464708
#
# Stress axis : x y z
#
# Youngs Moduli (GPa) = 105.63849 106.95438 81.84643
#
# Poissons Ratio (x) = 0.10742 0.15887
# Poissons Ratio (y) = 0.10610 0.02030
# Poissons Ratio (z) = 0.20506 0.02652
#
# Static dielectric constant tensor:
#      x y z
#    x 1.875660 0.000000 0.000000 
#    y 0.000000 2.566250 0.000000 
#    z 0.000000 0.000000 1.949460 
# 
# From -- ./inp_files/13173.got.cif
#   From: 2010.05.17/outbox.cif.g08.bks.cpg/sg23_7_cif.got.tgz:13173.got - 2010.06.04 12:02:01.
