data_PCOD9331225
_publ_section_title
;
Structure prediction by ZEFSAII (Michael W. Deem and Ramdas Pophale) SiO2 
 PCOD9331225
Probable space group: I 2 2 2
;
_chemical_formula_sum "Si O2"
_cell_formula_units_Z 60
_cell_length_a 21.545844
_cell_length_b 5.396732
_cell_length_c 25.969211
_cell_angle_alpha 90.000000
_cell_angle_beta 90.000000
_cell_angle_gamma 90.000000
_cell_volume 3019.625733
_symmetry_space_group_name_H-M "I 2 2 2"
_symmetry_group_IT_number 23
_symmetry_cell_setting 'orthorhombic'
loop_
_space_group_symop_operation_xyz
x,y,z
-x,-y,z
x,-y,-z
-x,y,-z
1/2+x,1/2+y,1/2+z
1/2-x,1/2-y,1/2+z
1/2+x,1/2-y,1/2-z
1/2-x,1/2+y,1/2-z
loop_
_atom_site_type_symbol
_atom_site_label
_atom_site_fract_x
_atom_site_fract_y
_atom_site_fract_z
Si Si1 0.393743 0.751164 0.531668
Si Si2 0.561699 0.625039 0.804676
Si Si3 0.754714 0.749484 0.467612
Si Si4 0.311054 0.255705 0.854784
Si Si5 0.264573 0.244894 0.201604
Si Si6 0.500000 0.000000 0.274230
Si Si7 0.348595 0.541228 0.720402
Si Si8 0.440790 0.320267 0.357258
O O1 0.408318 0.500000 0.500000
O O2 0.319683 0.746793 0.543087
O O3 0.431199 0.759435 0.584687
O O4 0.406806 0.000000 0.500000
O O5 0.500000 0.500000 0.828266
O O6 0.614989 0.721750 0.842814
O O7 0.535710 0.823238 0.764485
O O8 0.598282 0.452493 0.764001
O O9 0.768314 0.500000 0.500000
O O10 0.792313 0.751646 0.414473
O O11 0.767256 0.000000 0.500000
O O12 0.281373 0.507034 0.830159
O O13 0.286233 0.999434 0.829709
O O14 0.301135 0.262784 0.255584
O O15 0.192987 0.205502 0.216676
O O16 0.451554 0.110210 0.314975
O O17 0.378055 0.560712 0.664417
O O18 0.500000 0.500000 0.352902
#
# Coordination Sequence:
#
# PCOD9331225 Si02
#       8
#     8   8   8   8   8   4   8   8
#     4  10  25  45  66  90 124 164 213 278 328 373
#     4  11  23  40  60  90 133 171 215 253 312 392
#     4  10  21  43  70  99 128 160 212 277 340 389
#     4  11  24  41  66 100 126 173 216 267 330 403
#     4  11  24  38  62  96 135 168 216 271 330 391
#     4  12  22  42  63  92 127 178 220 258 310 382
#     4  11  21  42  58  93 133 169 216 271 323 386
#     4  12  25  42  63  90 125 175 222 266 317 384
#
# _framework density 19.870013
#
# number of rings (size 3 to 8) (size 9 to 14) (size 15 to 20)
#    0.000    1.067    2.667    4.000    3.733    4.533 
#    0.000    0.000    0.000    0.400    0.000    0.000 
#    0.000    0.000    0.000    0.000    0.000    0.000 
#
# Total GULP energy -167457.161947 kJ/mol
# GULP energy per Si atom -5581.905398 kJ/mol
# Density = 1.982479 g / cm^3
# Si number density = 19.870013 Si / 1000 Ang^3
#
#
#
# Elastic Constant Matrix: (Units=GPa)
#
#
# Indices 1 2 3 4 5 6 
#
# 1 62.3642 31.2651 37.6002 0.0000 0.0000 0.0000
# 2 31.2651 120.3665 62.1194 0.0000 0.0000 0.0000
# 3 37.6002 62.1194 121.7531 0.0000 0.0000 0.0000
# 4 0.0000 0.0000 0.0000 38.0457 0.0000 0.0000
# 5 0.0000 0.0000 0.0000 0.0000 37.5830 0.0000
# 6 0.0000 0.0000 0.0000 0.0000 0.0000 21.8147
#
#
#
# Elastic Compliance Matrix: (Units=1/GPa)
#
#
# Indices 1 2 3 4 5 6 
#
# 1 0.020364 -0.002774 -0.004873 0.000000 0.000000 0.000000
# 2 -0.002774 0.011655 -0.005090 0.000000 0.000000 0.000000
# 3 -0.004873 -0.005090 0.012315 0.000000 0.000000 0.000000
# 4 0.000000 0.000000 0.000000 0.026284 0.000000 0.000000
# 5 0.000000 0.000000 0.000000 0.000000 0.026608 0.000000
# 6 0.000000 0.000000 0.000000 0.000000 0.000000 0.045841
#
#
# Mechanical properties :
#
#
# Convention : Reuss Voigt Hill
#
# Bulk Modulus (GPa) = 53.02419 62.93922 57.98171
# Shear Modulus (GPa) = 28.59938 31.05529 29.82733
#
# Velocity S-wave (km/s) = 3.79796 3.95767 3.87864
# Velocity P-wave (km/s) = 6.78057 7.25455 7.02156
#
# Compressibility (1/GPa) = 0.01885932
#
# Stress axis : x y z
#
# Youngs Moduli (GPa) = 49.10636 85.79688 81.20038
#
# Poissons Ratio (x) = 0.23804 0.39571
# Poissons Ratio (y) = 0.13624 0.41330
# Poissons Ratio (z) = 0.23931 0.43669
#
# Static dielectric constant tensor:
#      x y z
#    x 1.777640 0.000000 0.000000 
#    y 0.000000 1.673120 0.000000 
#    z 0.000000 0.000000 1.669190 
# 
# From -- ./inp_files/28705.got.cif
#   From: 2010.05.17/outbox.cif.g08.bks.cpg/sg23_15_cif.got.tgz:28705.got - 2010.06.04 12:02:01.
