data_PCOD9331173
_publ_section_title
;
Structure prediction by ZEFSAII (Michael W. Deem and Ramdas Pophale) SiO2 
 PCOD9331173
Probable space group: I 2 2 2
;
_chemical_formula_sum "Si O2"
_cell_formula_units_Z 34
_cell_length_a 9.341402
_cell_length_b 15.471437
_cell_length_c 9.459819
_cell_angle_alpha 90.000000
_cell_angle_beta 90.000000
_cell_angle_gamma 90.000000
_cell_volume 1367.179514
_symmetry_space_group_name_H-M "I 2 2 2"
_symmetry_group_IT_number 23
_symmetry_cell_setting 'orthorhombic'
loop_
_space_group_symop_operation_xyz
x,y,z
-x,-y,z
x,-y,-z
-x,y,-z
1/2+x,1/2+y,1/2+z
1/2-x,1/2-y,1/2+z
1/2+x,1/2-y,1/2-z
1/2-x,1/2+y,1/2-z
loop_
_atom_site_type_symbol
_atom_site_label
_atom_site_fract_x
_atom_site_fract_y
_atom_site_fract_z
Si Si1 0.791134 0.333460 0.336150
Si Si2 0.283929 0.506617 0.154124
Si Si3 0.870389 0.115680 0.096641
Si Si4 0.966851 0.706703 0.152758
Si Si5 0.500000 0.000000 0.500000
O O1 0.721105 0.397283 0.218582
O O2 0.762302 0.373709 0.490120
O O3 0.956906 0.331906 0.290287
O O4 0.693250 0.245197 0.336847
O O5 0.346549 0.443444 0.270065
O O6 0.352876 0.500000 0.000000
O O7 0.123071 0.475399 0.118404
O O8 0.928863 0.209645 0.138370
O O9 0.000000 0.084033 0.000000
O O10 0.000000 0.660076 0.000000
#
# Coordination Sequence:
#
# PCOD9331173 Si02
#       5
#     8   8   8   8   2
#     4  10  21  41  69  95 136 182 225 289 339 411
#     4  10  22  41  68  99 130 178 227 288 352 410
#     4   9  21  43  67  98 136 178 232 289 345 410
#     4   9  22  40  63  96 137 182 224 286 339 410
#     4   8  24  40  62  98 128 180 218 280 348 408
#
# _framework density 24.868715999999999
#
# number of rings (size 3 to 8) (size 9 to 14) (size 15 to 20)
#    0.706    2.353    0.000    0.706    1.647   13.176 
#    0.000   30.588    0.000    0.000    0.000    0.000 
#    0.000    0.000    0.000    0.000    0.000    0.000 
#
# Total GULP energy -94754.278961 kJ/mol
# GULP energy per Si atom -5573.781115 kJ/mol
# Density = 2.481211 g / cm^3
# Si number density = 24.868716 Si / 1000 Ang^3
#
#
#
# Elastic Constant Matrix: (Units=GPa)
#
#
# Indices 1 2 3 4 5 6 
#
# 1 123.2504 1.0914 67.9408 0.0000 0.0000 0.0000
# 2 1.0914 -27.7525 1.0661 0.0000 0.0000 -0.0001
# 3 67.9408 1.0661 160.9720 -0.0001 0.0000 -0.0004
# 4 0.0000 0.0000 -0.0001 37.5338 0.0000 -0.0002
# 5 0.0000 0.0000 0.0000 0.0000 75.2099 0.0000
# 6 0.0000 -0.0001 -0.0004 -0.0002 0.0000 130.9079
#
#
#
# Elastic Compliance Matrix: (Units=1/GPa)
#
#
# Indices 1 2 3 4 5 6 
#
# 1 0.010572 0.000244 -0.004464 0.000000 0.000000 0.000000
# 2 0.000244 -0.036018 0.000135 0.000000 0.000000 0.000000
# 3 -0.004464 0.000135 0.008095 0.000000 0.000000 0.000000
# 4 0.000000 0.000000 0.000000 0.026643 0.000000 0.000000
# 5 0.000000 0.000000 0.000000 0.000000 0.013296 0.000000
# 6 0.000000 0.000000 0.000000 0.000000 0.000000 0.007639
#
#
# Mechanical properties :
#
#
# Convention : Reuss Voigt Hill
#
# Bulk Modulus (GPa) = -39.18715 44.07407 2.44346
# Shear Modulus (GPa) = 167.28689 61.15509 114.22099
#
# Velocity S-wave (km/s) = 8.21061 4.96433 6.78449
# Velocity P-wave (km/s) = 8.60776 7.11481 7.89665
#
# Compressibility (1/GPa) = -0.02551857
#
# Stress axis : x y z
#
# Youngs Moduli (GPa) = 94.58969 -27.76392 123.52796
#
# Poissons Ratio (x) = 0.00678 0.55139
# Poissons Ratio (y) = -0.02311 -0.01673
# Poissons Ratio (z) = 0.42222 0.00376
#
# Static dielectric constant tensor:
#      x y z
#    x 1.984120 0.000000 0.000000 
#    y 0.000000 2.084710 0.000000 
#    z 0.000000 0.000000 1.955100 
# 
# From -- ./inp_files/6702.got.cif
#   From: 2010.05.17/outbox.cif.g08.bks.cpg/sg23_4_cif.got.tgz:6702.got - 2010.06.04 12:02:01.
