data_PCOD9331800
_publ_section_title
;
Structure prediction by ZEFSAII (Michael W. Deem and Ramdas Pophale) SiO2 
 PCOD9331800
Probable space group: I 2 2 2
;
_chemical_formula_sum "Si O2"
_cell_formula_units_Z 40
_cell_length_a 9.053880
_cell_length_b 18.533470
_cell_length_c 11.276181
_cell_angle_alpha 90.000000
_cell_angle_beta 90.000000
_cell_angle_gamma 90.000000
_cell_volume 1892.141067
_symmetry_space_group_name_H-M "I 2 2 2"
_symmetry_group_IT_number 23
_symmetry_cell_setting 'orthorhombic'
loop_
_space_group_symop_operation_xyz
x,y,z
-x,-y,z
x,-y,-z
-x,y,-z
1/2+x,1/2+y,1/2+z
1/2-x,1/2-y,1/2+z
1/2+x,1/2-y,1/2-z
1/2-x,1/2+y,1/2-z
loop_
_atom_site_type_symbol
_atom_site_label
_atom_site_fract_x
_atom_site_fract_y
_atom_site_fract_z
Si Si1 0.458317 0.296643 0.126276
Si Si2 0.500000 0.148993 0.500000
Si Si3 0.000000 0.500000 0.500000
Si Si4 0.500000 0.500000 0.500000
Si Si5 0.268205 0.440474 0.104195
Si Si6 0.251767 0.044339 0.173760
Si Si7 0.711572 0.193990 0.702592
O O1 0.390132 0.376628 0.107166
O O2 0.346803 0.249508 0.201217
O O3 0.615886 0.293974 0.187228
O O4 0.500000 0.263904 0.000000
O O5 0.387699 0.098137 0.574004
O O6 0.607173 0.195076 0.586096
O O7 0.110247 0.458705 0.585806
O O8 0.607530 0.544705 0.588495
O O9 0.263222 0.478545 0.232722
O O10 0.296625 0.500000 0.000000
O O11 0.287439 0.112312 0.253772
#
# Coordination Sequence:
#
# PCOD9331800 Si02
#       7
#     8   4   2   2   8   8   8
#     4  12  27  50  71 111 143 198 242 309 374 448
#     4  12  23  46  75 117 144 195 244 312 381 447
#     4  10  24  38  66 106 144 190 238 276 368 434
#     4  10  24  46  68 104 140 190 250 288 380 440
#     4  12  24  46  81 111 149 184 255 317 373 439
#     4  11  23  45  70 103 142 191 238 306 358 450
#     4  12  27  47  74 105 149 191 250 303 381 445
#
# _framework density 21.140073000000001
#
# number of rings (size 3 to 8) (size 9 to 14) (size 15 to 20)
#    0.000    0.400    4.000    3.900    1.400    2.000 
#    7.200    1.000    0.000    0.000    0.000    0.000 
#    0.000    0.000    0.000    0.000    0.000    0.000 
#
# Total GULP energy -111757.741659 kJ/mol
# GULP energy per Si atom -5587.887083 kJ/mol
# Density = 2.109196 g / cm^3
# Si number density = 21.140073 Si / 1000 Ang^3
#
#
#
# Elastic Constant Matrix: (Units=GPa)
#
#
# Indices 1 2 3 4 5 6 
#
# 1 170.6874 40.9792 46.8931 0.0000 0.0000 0.0000
# 2 40.9792 53.7644 18.9582 0.0000 0.0000 0.0000
# 3 46.8931 18.9582 89.0568 -0.0001 0.0000 0.0000
# 4 0.0000 0.0000 -0.0001 60.9628 0.0000 0.0000
# 5 0.0000 0.0000 0.0000 0.0000 36.1937 0.0000
# 6 0.0000 0.0000 0.0000 0.0000 0.0000 15.0930
#
#
#
# Elastic Compliance Matrix: (Units=1/GPa)
#
#
# Indices 1 2 3 4 5 6 
#
# 1 0.007894 -0.004921 -0.003109 0.000000 0.000000 0.000000
# 2 -0.004921 0.023176 -0.002343 0.000000 0.000000 0.000000
# 3 -0.003109 -0.002343 0.013365 0.000000 0.000000 0.000000
# 4 0.000000 0.000000 0.000000 0.016403 0.000000 0.000000
# 5 0.000000 0.000000 0.000000 0.000000 0.027629 0.000000
# 6 0.000000 0.000000 0.000000 0.000000 0.000000 0.066256
#
#
# Mechanical properties :
#
#
# Convention : Reuss Voigt Hill
#
# Bulk Modulus (GPa) = 42.21195 58.57439 50.39317
# Shear Modulus (GPa) = 27.26792 36.22842 31.74817
#
# Velocity S-wave (km/s) = 3.59537 4.14422 3.87951
# Velocity P-wave (km/s) = 6.10301 7.11809 6.63001
#
# Compressibility (1/GPa) = 0.02368997
#
# Stress axis : x y z
#
# Youngs Moduli (GPa) = 126.67493 43.14762 74.82406
#
# Poissons Ratio (x) = 0.21231 0.23265
# Poissons Ratio (y) = 0.62332 0.17529
# Poissons Ratio (z) = 0.39386 0.10108
#
# Static dielectric constant tensor:
#      x y z
#    x 1.655080 0.000000 0.000000 
#    y 0.000000 1.721850 0.000000 
#    z 0.000000 0.000000 1.760510 
# 
# From -- ./inp_files/14653.got.cif
#   From: 2010.05.17/outbox.cif.g08.bks.cpg/sg23_8_cif.got.tgz:14653.got - 2010.06.04 12:02:01.
