data_PCOD9331527
_publ_section_title
;
Structure prediction by ZEFSAII (Michael W. Deem and Ramdas Pophale) SiO2 
 PCOD9331527
Probable space group: I 2 2 2
;
_chemical_formula_sum "Si O2"
_cell_formula_units_Z 36
_cell_length_a 12.040583
_cell_length_b 10.428391
_cell_length_c 11.456022
_cell_angle_alpha 90.000000
_cell_angle_beta 90.000000
_cell_angle_gamma 90.000000
_cell_volume 1438.462885
_symmetry_space_group_name_H-M "I 2 2 2"
_symmetry_group_IT_number 23
_symmetry_cell_setting 'orthorhombic'
loop_
_space_group_symop_operation_xyz
x,y,z
-x,-y,z
x,-y,-z
-x,y,-z
1/2+x,1/2+y,1/2+z
1/2-x,1/2-y,1/2+z
1/2+x,1/2-y,1/2-z
1/2-x,1/2+y,1/2-z
loop_
_atom_site_type_symbol
_atom_site_label
_atom_site_fract_x
_atom_site_fract_y
_atom_site_fract_z
Si Si1 0.000000 0.000000 0.232290
Si Si2 0.685259 0.818518 0.062766
Si Si3 0.553108 0.745976 0.618224
Si Si4 0.813249 0.956504 0.623392
Si Si5 0.629247 0.078235 0.183924
O O1 0.094451 0.045358 0.321032
O O2 0.020452 0.878576 0.150656
O O3 0.620695 0.062005 0.877971
O O4 0.818326 0.803587 0.094351
O O5 0.635925 0.683765 0.102946
O O6 0.950209 0.654886 0.226181
O O7 0.500000 0.801908 0.500000
O O8 0.668779 0.835535 0.924595
O O9 0.726275 0.947360 0.724701
O O10 0.766709 0.000000 0.500000
#
# Coordination Sequence:
#
# PCOD9331527 Si02
#       5
#     4   8   8   8   8
#     4  12  22  40  66 104 142 183 247 326 364 444
#     4  10  22  43  72  97 142 200 237 304 384 451
#     4  11  23  39  71 107 146 185 254 316 370 445
#     4  11  23  38  67  99 139 179 249 309 375 449
#     4  10  22  43  66  98 138 193 241 300 382 454
#
# _framework density 25.026716
#
# number of rings (size 3 to 8) (size 9 to 14) (size 15 to 20)
#    0.000    1.333    2.222    3.333    6.222    0.000 
#    0.000    1.111    9.778    2.667    0.000    0.000 
#    0.000    0.000    0.000    0.000    0.000    0.000 
#
# Total GULP energy -100465.787512 kJ/mol
# GULP energy per Si atom -5581.432640 kJ/mol
# Density = 2.496975 g / cm^3
# Si number density = 25.026716 Si / 1000 Ang^3
#
#
#
# Elastic Constant Matrix: (Units=GPa)
#
#
# Indices 1 2 3 4 5 6 
#
# 1 51.3524 6.1397 39.8992 0.0000 0.0000 0.0000
# 2 6.1397 100.0060 52.9585 0.0000 0.0000 0.0000
# 3 39.8992 52.9585 230.4498 0.0000 0.0000 0.0000
# 4 0.0000 0.0000 0.0000 19.5954 0.0000 0.0000
# 5 0.0000 0.0000 0.0000 0.0000 -109.6808 0.0000
# 6 0.0000 0.0000 0.0000 0.0000 0.0000 31.2097
#
#
#
# Elastic Compliance Matrix: (Units=1/GPa)
#
#
# Indices 1 2 3 4 5 6 
#
# 1 0.022553 0.000778 -0.004083 0.000000 0.000000 0.000000
# 2 0.000778 0.011412 -0.002757 0.000000 0.000000 0.000000
# 3 -0.004083 -0.002757 0.005680 0.000000 0.000000 0.000000
# 4 0.000000 0.000000 0.000000 0.051032 0.000000 0.000000
# 5 0.000000 0.000000 0.000000 0.000000 -0.009117 0.000000
# 6 0.000000 0.000000 0.000000 0.000000 0.000000 0.032041
#
#
# Mechanical properties :
#
#
# Convention : Reuss Voigt Hill
#
# Bulk Modulus (GPa) = 36.33846 64.42256 50.38051
# Shear Modulus (GPa) = 37.06460 7.07892 22.07176
#
# Velocity S-wave (km/s) = 3.85255 1.68365 2.97295
# Velocity P-wave (km/s) = 5.86011 5.43847 5.65323
#
# Compressibility (1/GPa) = 0.02751905
#
# Stress axis : x y z
#
# Youngs Moduli (GPa) = 44.33994 87.62942 176.05823
#
# Poissons Ratio (x) = -0.06816 0.71893
# Poissons Ratio (y) = -0.03449 0.48542
# Poissons Ratio (z) = 0.18106 0.24161
#
# Static dielectric constant tensor:
#      x y z
#    x 2.170570 0.000000 0.000000 
#    y 0.000000 1.998370 0.000000 
#    z 0.000000 0.000000 1.898450 
# 
# From -- ./inp_files/17316.got.cif
#   From: 2010.05.17/outbox.cif.g08.bks.cpg/sg23_9_cif.got.tgz:17316.got - 2010.06.04 12:02:01.
