data_PCOD9331370
_publ_section_title
;
Structure prediction by ZEFSAII (Michael W. Deem and Ramdas Pophale) SiO2 
 PCOD9331370
Probable space group: I 2 2 2
;
_chemical_formula_sum "Si O2"
_cell_formula_units_Z 34
_cell_length_a 12.979247
_cell_length_b 24.048936
_cell_length_c 5.004662
_cell_angle_alpha 90.000000
_cell_angle_beta 90.000000
_cell_angle_gamma 90.000000
_cell_volume 1562.140585
_symmetry_space_group_name_H-M "I 2 2 2"
_symmetry_group_IT_number 23
_symmetry_cell_setting 'orthorhombic'
loop_
_space_group_symop_operation_xyz
x,y,z
-x,-y,z
x,-y,-z
-x,y,-z
1/2+x,1/2+y,1/2+z
1/2-x,1/2-y,1/2+z
1/2+x,1/2-y,1/2-z
1/2-x,1/2+y,1/2-z
loop_
_atom_site_type_symbol
_atom_site_label
_atom_site_fract_x
_atom_site_fract_y
_atom_site_fract_z
Si Si1 0.000000 0.146767 0.500000
Si Si2 0.770863 0.111910 0.463952
Si Si3 0.720980 0.815511 0.034653
Si Si4 0.151164 0.500000 0.000000
Si Si5 0.000000 0.500000 0.500000
Si Si6 0.082456 0.752425 0.821496
O O1 0.104602 0.112558 0.537128
O O2 0.027715 0.190647 0.268802
O O3 0.737681 0.134919 0.176148
O O4 0.722070 0.053691 0.545706
O O5 0.728418 0.157122 0.675924
O O6 0.621982 0.782038 0.932609
O O7 0.816366 0.772357 0.019188
O O8 0.084055 0.483752 0.264644
O O9 0.000000 0.720355 0.000000
#
# Coordination Sequence:
#
# PCOD9331370 Si02
#       6
#     4   8   8   4   2   8
#     4  10  22  39  67 102 144 179 219 272 372 416
#     4  11  24  44  68 102 137 180 233 293 348 420
#     4  11  24  40  64 100 138 182 236 274 345 424
#     4  11  24  49  78  98 138 179 238 303 350 408
#     4  10  24  50  74  92 124 186 226 290 364 388
#     4  11  22  41  64  94 142 194 218 287 344 423
#
# _framework density 21.765006
#
# number of rings (size 3 to 8) (size 9 to 14) (size 15 to 20)
#    0.000    1.176    2.353    4.235    3.294    0.471 
#    8.471    1.176    0.000    4.235    0.000    0.000 
#    0.000    0.000    0.000    0.000    0.000    0.000 
#
# Total GULP energy -94814.578477 kJ/mol
# GULP energy per Si atom -5577.328146 kJ/mol
# Density = 2.171547 g / cm^3
# Si number density = 21.765006 Si / 1000 Ang^3
#
#
#
# Elastic Constant Matrix: (Units=GPa)
#
#
# Indices 1 2 3 4 5 6 
#
# 1 143.6489 50.2697 29.3225 0.0167 -0.0099 0.1198
# 2 50.2697 97.8963 -0.2080 0.0143 -0.0104 0.0075
# 3 29.3225 -0.2080 81.2696 0.0738 0.0040 -0.2897
# 4 0.0167 0.0143 0.0738 20.4144 -0.0205 0.1696
# 5 -0.0099 -0.0104 0.0040 -0.0205 42.6666 -0.0426
# 6 0.1198 0.0075 -0.2897 0.1696 -0.0426 -190.5616
#
#
#
# Elastic Compliance Matrix: (Units=1/GPa)
#
#
# Indices 1 2 3 4 5 6 
#
# 1 0.009330 -0.004798 -0.003379 0.000008 0.000001 0.000011
# 2 -0.004798 0.012683 0.001764 -0.000011 0.000002 -0.000005
# 3 -0.003379 0.001764 0.013528 -0.000047 -0.000002 -0.000023
# 4 0.000008 -0.000011 -0.000047 0.048985 0.000024 0.000044
# 5 0.000001 0.000002 -0.000002 0.000024 0.023438 -0.000005
# 6 0.000011 -0.000005 -0.000023 0.000044 -0.000005 -0.005248
#
#
# Mechanical properties :
#
#
# Convention : Reuss Voigt Hill
#
# Bulk Modulus (GPa) = 44.02458 53.50924 48.76691
# Shear Modulus (GPa) = 40.61285 -9.26742 15.67271
#
# Velocity S-wave (km/s) = 4.32437 -2.06572 2.68636
# Velocity P-wave (km/s) = 6.72345 4.35302 5.66364
#
# Compressibility (1/GPa) = 0.02271458
#
# Stress axis : x y z
#
# Youngs Moduli (GPa) = 107.17872 78.84858 73.91954
#
# Poissons Ratio (x) = 0.37833 0.24975
# Poissons Ratio (y) = 0.51427 -0.13037
# Poissons Ratio (z) = 0.36212 -0.13906
#
# Static dielectric constant tensor:
#      x y z
#    x 1.852520 0.000010 0.000140 
#    y 0.000010 1.763570 0.000000 
#    z 0.000140 0.000000 1.887350 
# 
# From -- ./inp_files/1608.got.cif
#   From: 2010.05.17/outbox.cif.g08.bks.cpg/sg23_1_cif.got.tgz:1608.got - 2010.06.04 12:02:01.
