data_PCOD9331558
_publ_section_title
;
Structure prediction by ZEFSAII (Michael W. Deem and Ramdas Pophale) SiO2 
 PCOD9331558
Probable space group: I 2 2 2
;
_chemical_formula_sum "Si O2"
_cell_formula_units_Z 24
_cell_length_a 8.157362
_cell_length_b 24.094329
_cell_length_c 5.269005
_cell_angle_alpha 90.000000
_cell_angle_beta 90.000000
_cell_angle_gamma 90.000000
_cell_volume 1035.602720
_symmetry_space_group_name_H-M "I 2 2 2"
_symmetry_group_IT_number 23
_symmetry_cell_setting 'orthorhombic'
loop_
_space_group_symop_operation_xyz
x,y,z
-x,-y,z
x,-y,-z
-x,y,-z
1/2+x,1/2+y,1/2+z
1/2-x,1/2-y,1/2+z
1/2+x,1/2-y,1/2-z
1/2-x,1/2+y,1/2-z
loop_
_atom_site_type_symbol
_atom_site_label
_atom_site_fract_x
_atom_site_fract_y
_atom_site_fract_z
Si Si1 0.190905 0.779095 0.922914
Si Si2 0.892249 0.386668 0.251824
Si Si3 0.071109 0.937809 0.745491
O O1 0.214961 0.736887 0.684928
O O2 0.274288 0.834452 0.810082
O O3 0.000000 0.782165 0.000000
O O4 0.765261 0.437334 0.226794
O O5 0.000000 0.394972 0.500000
O O6 0.000000 0.379098 0.000000
O O7 0.000000 0.907678 0.500000
O O8 0.000000 0.000000 0.745007
O O9 0.000000 0.911784 0.000000
#
# Coordination Sequence:
#
# PCOD9331558 Si02
#       3
#     8   8   8
#     4  12  25  43  67  97 137 180 223 272 328 396
#     4  12  25  43  67 100 136 175 223 278 334 397
#     4  10  22  44  68  93 128 171 220 272 334 397
#
# _framework density 23.174909
#
# number of rings (size 3 to 8) (size 9 to 14) (size 15 to 20)
#    0.000    0.667    0.000    9.000    0.000    2.667 
#    0.000   20.000    0.000    0.000    0.000    0.000 
#    0.000    0.000    0.000    0.000    0.000    0.000 
#
# Total GULP energy -67123.937498 kJ/mol
# GULP energy per Si atom -5593.661458 kJ/mol
# Density = 2.312216 g / cm^3
# Si number density = 23.174909 Si / 1000 Ang^3
#
#
#
# Elastic Constant Matrix: (Units=GPa)
#
#
# Indices 1 2 3 4 5 6 
#
# 1 215.5163 65.3449 114.1441 0.1800 -0.0002 -0.0763
# 2 65.3449 74.3147 29.8331 0.0251 0.0098 -0.0212
# 3 114.1441 29.8331 260.4235 0.4076 0.0700 -0.1366
# 4 0.1800 0.0251 0.4076 -31.3214 0.0831 -0.3175
# 5 -0.0002 0.0098 0.0700 0.0831 59.4721 0.0070
# 6 -0.0763 -0.0212 -0.1366 -0.3175 0.0070 34.4248
#
#
#
# Elastic Compliance Matrix: (Units=1/GPa)
#
#
# Indices 1 2 3 4 5 6 
#
# 1 0.007877 -0.005807 -0.002787 0.000004 0.000004 0.000003
# 2 -0.005807 0.018386 0.000439 -0.000013 -0.000004 0.000000
# 3 -0.002787 0.000439 0.005011 0.000049 -0.000006 0.000014
# 4 0.000004 -0.000013 0.000049 -0.031923 0.000045 -0.000294
# 5 0.000004 -0.000004 -0.000006 0.000045 0.016815 -0.000003
# 6 0.000003 0.000000 0.000014 -0.000294 -0.000003 0.029046
#
#
# Mechanical properties :
#
#
# Convention : Reuss Voigt Hill
#
# Bulk Modulus (GPa) = 66.82858 107.65541 87.24200
# Shear Modulus (GPa) = 75.17558 35.24393 55.20976
#
# Velocity S-wave (km/s) = 5.70165 3.90395 4.88618
# Velocity P-wave (km/s) = 8.49966 8.17774 8.34025
#
# Compressibility (1/GPa) = 0.01496366
#
# Stress axis : x y z
#
# Youngs Moduli (GPa) = 126.95124 54.38795 199.55348
#
# Poissons Ratio (x) = 0.31585 0.55621
# Poissons Ratio (y) = 0.73725 -0.08763
# Poissons Ratio (z) = 0.35385 -0.02388
#
# Static dielectric constant tensor:
#      x y z
#    x 1.898490 0.000200 0.000240 
#    y 0.000200 1.924960 -0.000040 
#    z 0.000240 -0.000040 1.885470 
# 
# From -- ./inp_files/424.got.cif
#   From: 2010.05.17/outbox.cif.g08.bks.cpg/sg23_1_cif.got.tgz:424.got - 2010.06.04 12:02:01.
