data_PCOD9331687
_publ_section_title
;
Structure prediction by ZEFSAII (Michael W. Deem and Ramdas Pophale) SiO2 
 PCOD9331687
Probable space group: I 2 2 2
;
_chemical_formula_sum "Si O2"
_cell_formula_units_Z 56
_cell_length_a 8.609506
_cell_length_b 23.340528
_cell_length_c 13.263073
_cell_angle_alpha 90.000000
_cell_angle_beta 90.000000
_cell_angle_gamma 90.000000
_cell_volume 2665.220035
_symmetry_space_group_name_H-M "I 2 2 2"
_symmetry_group_IT_number 23
_symmetry_cell_setting 'orthorhombic'
loop_
_space_group_symop_operation_xyz
x,y,z
-x,-y,z
x,-y,-z
-x,y,-z
1/2+x,1/2+y,1/2+z
1/2-x,1/2-y,1/2+z
1/2+x,1/2-y,1/2-z
1/2-x,1/2+y,1/2-z
loop_
_atom_site_type_symbol
_atom_site_label
_atom_site_fract_x
_atom_site_fract_y
_atom_site_fract_z
Si Si1 0.864815 0.674339 0.318297
Si Si2 0.752141 0.562239 0.022895
Si Si3 0.654343 0.607312 0.811530
Si Si4 0.500000 0.106613 0.000000
Si Si5 0.846808 0.283592 0.189726
Si Si6 0.170318 0.069609 0.747629
Si Si7 0.500000 0.840401 0.500000
Si Si8 0.656345 0.032073 0.829675
O O1 0.902211 0.647928 0.427481
O O2 0.727970 0.721059 0.311896
O O3 0.798404 0.618842 0.260845
O O4 0.024833 0.701321 0.274763
O O5 0.675376 0.550906 0.130992
O O6 0.868064 0.615405 0.035393
O O7 0.823434 0.500000 0.000000
O O8 0.651318 0.582952 0.925842
O O9 0.699252 0.673577 0.808039
O O10 0.502962 0.593973 0.745513
O O11 0.797400 0.576683 0.755930
O O12 0.388467 0.065739 0.068086
O O13 0.935558 0.300648 0.087771
O O14 0.213110 0.017650 0.822787
O O15 0.500000 0.000000 0.798826
#
# Coordination Sequence:
#
# PCOD9331687 Si02
#       8
#     8   8   8   4   8   8   4   8
#     4  12  26  48  76  95 140 186 243 297 353 420
#     4  11  22  36  68 106 149 182 222 287 365 436
#     4  11  24  43  68 108 146 184 232 292 360 426
#     4  12  27  50  72 104 136 198 243 288 356 424
#     4  11  24  48  72 101 134 184 235 297 357 424
#     4  12  24  42  70 110 145 187 228 295 355 426
#     4  10  23  42  66 104 140 173 238 288 352 434
#     4  12  24  44  75  97 145 189 238 288 346 420
#
# _framework density 21.011399000000001
#
# number of rings (size 3 to 8) (size 9 to 14) (size 15 to 20)
#    0.000    0.571    5.714    2.143    2.000    1.714 
#    7.714    0.000    3.143    0.000    0.000    0.000 
#    0.000    0.000    0.000    0.000    0.000    0.000 
#
# Total GULP energy -156264.797895 kJ/mol
# GULP energy per Si atom -5580.885639 kJ/mol
# Density = 2.096358 g / cm^3
# Si number density = 21.011399 Si / 1000 Ang^3
#
#
#
# Elastic Constant Matrix: (Units=GPa)
#
#
# Indices 1 2 3 4 5 6 
#
# 1 80.5868 24.0391 31.1597 0.0000 0.0000 0.0001
# 2 24.0391 125.0654 42.0273 0.0000 0.0000 0.0000
# 3 31.1597 42.0273 98.2582 0.0000 0.0000 0.0006
# 4 0.0000 0.0000 0.0000 23.2354 0.0000 -0.0001
# 5 0.0000 0.0000 0.0000 0.0000 23.1391 0.0000
# 6 0.0001 0.0000 0.0006 -0.0001 0.0000 -148.4199
#
#
#
# Elastic Compliance Matrix: (Units=1/GPa)
#
#
# Indices 1 2 3 4 5 6 
#
# 1 0.014361 -0.001436 -0.003940 0.000000 0.000000 0.000000
# 2 -0.001436 0.009482 -0.003600 0.000000 0.000000 0.000000
# 3 -0.003940 -0.003600 0.012966 0.000000 0.000000 0.000000
# 4 0.000000 0.000000 0.000000 0.043038 0.000000 0.000000
# 5 0.000000 0.000000 0.000000 0.000000 0.043217 0.000000
# 6 0.000000 0.000000 0.000000 0.000000 0.000000 -0.006738
#
#
# Mechanical properties :
#
#
# Convention : Reuss Voigt Hill
#
# Bulk Modulus (GPa) = 53.03174 55.37361 54.20267
# Shear Modulus (GPa) = 35.57102 -6.63014 14.47044
#
# Velocity S-wave (km/s) = 4.11900 -1.77830 2.62715
# Velocity P-wave (km/s) = 6.92213 4.71114 5.92075
#
# Compressibility (1/GPa) = 0.01885663
#
# Stress axis : x y z
#
# Youngs Moduli (GPa) = 69.63402 105.46663 77.12214
#
# Poissons Ratio (x) = 0.15149 0.30384
# Poissons Ratio (y) = 0.10002 0.27764
# Poissons Ratio (z) = 0.27434 0.37968
#
# Static dielectric constant tensor:
#      x y z
#    x 1.792560 0.000000 0.000000 
#    y 0.000000 1.754880 0.000000 
#    z 0.000000 0.000000 1.798090 
# 
# From -- ./inp_files/20227.got.cif
#   From: 2010.05.17/outbox.cif.g08.bks.cpg/sg23_11_cif.got.tgz:20227.got - 2010.06.04 12:02:01.
