data_PCOD9331365
_publ_section_title
;
Structure prediction by ZEFSAII (Michael W. Deem and Ramdas Pophale) SiO2 
 PCOD9331365
Probable space group: I 2 2 2
;
_chemical_formula_sum "Si O2"
_cell_formula_units_Z 32
_cell_length_a 17.078314
_cell_length_b 9.535022
_cell_length_c 7.152884
_cell_angle_alpha 90.000000
_cell_angle_beta 90.000000
_cell_angle_gamma 90.000000
_cell_volume 1164.790650
_symmetry_space_group_name_H-M "I 2 2 2"
_symmetry_group_IT_number 23
_symmetry_cell_setting 'orthorhombic'
loop_
_space_group_symop_operation_xyz
x,y,z
-x,-y,z
x,-y,-z
-x,y,-z
1/2+x,1/2+y,1/2+z
1/2-x,1/2-y,1/2+z
1/2+x,1/2-y,1/2-z
1/2-x,1/2+y,1/2-z
loop_
_atom_site_type_symbol
_atom_site_label
_atom_site_fract_x
_atom_site_fract_y
_atom_site_fract_z
Si Si1 0.597360 0.807426 0.165296
Si Si2 0.804903 0.948330 0.782920
Si Si3 0.052467 0.865817 0.769343
Si Si4 0.371658 0.103519 0.734284
O O1 0.662611 0.707608 0.253327
O O2 0.517911 0.720093 0.175062
O O3 0.585770 0.955035 0.267688
O O4 0.621946 0.842830 0.951443
O O5 0.718058 0.939168 0.702209
O O6 0.869264 0.054979 0.695116
O O7 0.801330 0.000000 0.000000
O O8 0.092636 0.734761 0.878779
O O9 0.000000 0.000000 0.828680
#
# Coordination Sequence:
#
# PCOD9331365 Si02
#       4
#     8   8   8   8
#     4  10  22  39  65  98 135 187 231 297 363 428
#     4  11  23  42  66  98 140 189 235 295 364 441
#     4  10  23  39  66  99 137 180 242 298 367 426
#     4  11  21  41  67  96 140 178 245 299 358 430
#
# _framework density 27.472747999999999
#
# number of rings (size 3 to 8) (size 9 to 14) (size 15 to 20)
#    0.000    1.500    2.500    3.000    0.000   13.500 
#    0.000    1.250    0.000    6.000    0.000    0.000 
#    0.000    0.000    0.000    0.000    0.000    0.000 
#
# Total GULP energy -89284.688381 kJ/mol
# GULP energy per Si atom -5580.293024 kJ/mol
# Density = 2.741022 g / cm^3
# Si number density = 27.472748 Si / 1000 Ang^3
#
#
#
# Elastic Constant Matrix: (Units=GPa)
#
#
# Indices 1 2 3 4 5 6 
#
# 1 225.6976 86.2448 33.6117 0.0000 0.0000 0.0000
# 2 86.2448 292.6985 56.8945 0.0000 0.0000 0.0000
# 3 33.6117 56.8945 87.8033 0.0000 0.0000 0.0000
# 4 0.0000 0.0000 0.0000 23.5131 0.0000 0.0000
# 5 0.0000 0.0000 0.0000 0.0000 6.3650 0.0000
# 6 0.0000 0.0000 0.0000 0.0000 0.0000 229.4801
#
#
#
# Elastic Compliance Matrix: (Units=1/GPa)
#
#
# Indices 1 2 3 4 5 6 
#
# 1 0.005087 -0.001282 -0.001117 0.000000 0.000000 0.000000
# 2 -0.001282 0.004232 -0.002251 0.000000 0.000000 0.000000
# 3 -0.001117 -0.002251 0.013275 0.000000 0.000000 0.000000
# 4 0.000000 0.000000 0.000000 0.042529 0.000000 0.000000
# 5 0.000000 0.000000 0.000000 0.000000 0.157109 0.000000
# 6 0.000000 0.000000 0.000000 0.000000 0.000000 0.004358
#
#
# Mechanical properties :
#
#
# Convention : Reuss Voigt Hill
#
# Bulk Modulus (GPa) = 75.22063 106.63349 90.92706
# Shear Modulus (GPa) = 20.80545 80.50153 50.65349
#
# Velocity S-wave (km/s) = 2.75492 5.41903 4.29858
# Velocity P-wave (km/s) = 6.12854 8.83477 7.60303
#
# Compressibility (1/GPa) = 0.01329423
#
# Stress axis : x y z
#
# Youngs Moduli (GPa) = 196.58678 236.30605 75.32704
#
# Poissons Ratio (x) = 0.30289 0.08412
# Poissons Ratio (y) = 0.25198 0.16959
# Poissons Ratio (z) = 0.21953 0.53203
#
# Static dielectric constant tensor:
#      x y z
#    x 2.113300 0.000000 0.000000 
#    y 0.000000 2.161520 0.000000 
#    z 0.000000 0.000000 2.216000 
# 
# From -- ./inp_files/9402.got.cif
#   From: 2010.05.17/outbox.cif.g08.bks.cpg/sg23_5_cif.got.tgz:9402.got - 2010.06.04 12:02:01.
