data_PCOD9331551
_publ_section_title
;
Structure prediction by ZEFSAII (Michael W. Deem and Ramdas Pophale) SiO2 
 PCOD9331551
Probable space group: I 2 2 2
;
_chemical_formula_sum "Si O2"
_cell_formula_units_Z 64
_cell_length_a 11.330594
_cell_length_b 8.440001
_cell_length_c 33.866529
_cell_angle_alpha 90.000000
_cell_angle_beta 90.000000
_cell_angle_gamma 90.000000
_cell_volume 3238.663778
_symmetry_space_group_name_H-M "I 2 2 2"
_symmetry_group_IT_number 23
_symmetry_cell_setting 'orthorhombic'
loop_
_space_group_symop_operation_xyz
x,y,z
-x,-y,z
x,-y,-z
-x,y,-z
1/2+x,1/2+y,1/2+z
1/2-x,1/2-y,1/2+z
1/2+x,1/2-y,1/2-z
1/2-x,1/2+y,1/2-z
loop_
_atom_site_type_symbol
_atom_site_label
_atom_site_fract_x
_atom_site_fract_y
_atom_site_fract_z
Si Si1 0.567734 0.230104 0.312901
Si Si2 0.525165 0.311303 0.851488
Si Si3 0.912220 0.852087 0.272745
Si Si4 0.644937 0.811775 0.457774
Si Si5 0.817166 0.607801 0.823001
Si Si6 0.308627 0.201954 0.891672
Si Si7 0.236076 0.152186 0.126107
Si Si8 0.626333 0.191926 0.450473
O O1 0.603846 0.261161 0.267938
O O2 0.426383 0.223026 0.313413
O O3 0.626393 0.349299 0.343711
O O4 0.621802 0.062312 0.326910
O O5 0.500000 0.500000 0.852190
O O6 0.474587 0.257240 0.808800
O O7 0.446600 0.236645 0.886163
O O8 0.659598 0.262255 0.856480
O O9 0.784927 0.900262 0.290098
O O10 0.000000 0.000000 0.265094
O O11 0.748633 0.731518 0.433507
O O12 0.512242 0.768676 0.444095
O O13 0.654028 0.768615 0.503939
O O14 0.647024 0.001764 0.450317
O O15 0.755696 0.673966 0.862197
O O16 0.283585 0.024366 0.878361
O O17 0.197866 0.222755 0.083852
#
# Coordination Sequence:
#
# PCOD9331551 Si02
#       8
#     8   8   8   8   8   8   8   8
#     4  11  24  39  62  84 117 161 205 257 305 375
#     4  10  22  44  65  85 117 165 209 256 311 381
#     4  10  23  39  64  85 117 153 204 264 319 363
#     4   9  18  37  63  89 128 159 207 249 302 373
#     4  10  24  42  57  87 117 161 210 249 308 372
#     4  11  23  39  60  90 126 162 202 256 311 374
#     4  12  24  37  62  92 126 159 205 259 317 368
#     4   9  19  36  62  94 120 166 202 252 305 368
#
# _framework density 19.761237999999999
#
# number of rings (size 3 to 8) (size 9 to 14) (size 15 to 20)
#    0.000    1.750    0.000    5.625    5.250    5.000 
#    4.500    1.875    0.000    3.750    0.000    0.000 
#    0.000    0.000    0.000    0.000    0.000    0.000 
#
# Total GULP energy -178693.129295 kJ/mol
# GULP energy per Si atom -5584.160290 kJ/mol
# Density = 1.971626 g / cm^3
# Si number density = 19.761238 Si / 1000 Ang^3
#
#
#
# Elastic Constant Matrix: (Units=GPa)
#
#
# Indices 1 2 3 4 5 6 
#
# 1 100.4683 18.9756 27.7628 0.0000 0.0000 0.0000
# 2 18.9756 44.6438 18.4950 0.0000 0.0000 0.0000
# 3 27.7628 18.4950 65.9608 0.0000 0.0000 0.0000
# 4 0.0000 0.0000 0.0000 24.2366 0.0000 0.0000
# 5 0.0000 0.0000 0.0000 0.0000 29.8087 0.0000
# 6 0.0000 0.0000 0.0000 0.0000 0.0000 21.4929
#
#
#
# Elastic Compliance Matrix: (Units=1/GPa)
#
#
# Indices 1 2 3 4 5 6 
#
# 1 0.011681 -0.003313 -0.003988 0.000000 0.000000 0.000000
# 2 -0.003313 0.026283 -0.005975 0.000000 0.000000 0.000000
# 3 -0.003988 -0.005975 0.018514 0.000000 0.000000 0.000000
# 4 0.000000 0.000000 0.000000 0.041260 0.000000 0.000000
# 5 0.000000 0.000000 0.000000 0.000000 0.033547 0.000000
# 6 0.000000 0.000000 0.000000 0.000000 0.000000 0.046527
#
#
# Mechanical properties :
#
#
# Convention : Reuss Voigt Hill
#
# Bulk Modulus (GPa) = 33.41477 37.94886 35.68182
# Shear Modulus (GPa) = 23.32746 24.83027 24.07887
#
# Velocity S-wave (km/s) = 3.43952 3.54858 3.49447
# Velocity P-wave (km/s) = 5.72011 6.00294 5.86323
#
# Compressibility (1/GPa) = 0.02992689
#
# Stress axis : x y z
#
# Youngs Moduli (GPa) = 85.60901 38.04731 54.01229
#
# Poissons Ratio (x) = 0.12605 0.21538
# Poissons Ratio (y) = 0.28362 0.32273
# Poissons Ratio (z) = 0.34137 0.22734
#
# Static dielectric constant tensor:
#      x y z
#    x 1.701980 0.000000 0.000000 
#    y 0.000000 1.718350 0.000000 
#    z 0.000000 0.000000 1.688920 
# 
# From -- ./inp_files/30471.got.cif
#   From: 2010.05.17/outbox.cif.g08.bks.cpg/sg23_16_cif.got.tgz:30471.got - 2010.06.04 12:02:01.
