data_PCOD9331425
_publ_section_title
;
Structure prediction by ZEFSAII (Michael W. Deem and Ramdas Pophale) SiO2 
 PCOD9331425
Probable space group: I 2 2 2
;
_chemical_formula_sum "Si O2"
_cell_formula_units_Z 34
_cell_length_a 16.757177
_cell_length_b 16.247161
_cell_length_c 4.918106
_cell_angle_alpha 90.000000
_cell_angle_beta 90.000000
_cell_angle_gamma 90.000000
_cell_volume 1338.986585
_symmetry_space_group_name_H-M "I 2 2 2"
_symmetry_group_IT_number 23
_symmetry_cell_setting 'orthorhombic'
loop_
_space_group_symop_operation_xyz
x,y,z
-x,-y,z
x,-y,-z
-x,y,-z
1/2+x,1/2+y,1/2+z
1/2-x,1/2-y,1/2+z
1/2+x,1/2-y,1/2-z
1/2-x,1/2+y,1/2-z
loop_
_atom_site_type_symbol
_atom_site_label
_atom_site_fract_x
_atom_site_fract_y
_atom_site_fract_z
Si Si1 0.800298 0.409295 0.050637
Si Si2 0.642220 0.580088 0.320515
Si Si3 0.203344 0.290581 0.533190
Si Si4 0.591413 0.244499 0.568435
Si Si5 0.500000 0.500000 0.000000
O O1 0.714287 0.407654 0.897788
O O2 0.863023 0.337980 0.953187
O O3 0.832388 0.500000 0.000000
O O4 0.792411 0.385540 0.371615
O O5 0.659445 0.500000 0.500000
O O6 0.624362 0.663395 0.490464
O O7 0.559505 0.557114 0.171964
O O8 0.246613 0.250008 0.284058
O O9 0.113774 0.262922 0.607808
O O10 0.500000 0.239975 0.500000
#
# Coordination Sequence:
#
# PCOD9331425 Si02
#       5
#     8   8   8   8   2
#     4  10  22  40  68  97 134 191 234 293 355 445
#     4  12  25  43  70 103 145 183 240 312 375 449
#     4  10  22  42  67  98 133 185 240 288 362 431
#     4  10  22  43  64 102 137 189 235 307 353 445
#     4  12  26  44  68 110 138 190 238 316 388 442
#
# _framework density 25.392339
#
# number of rings (size 3 to 8) (size 9 to 14) (size 15 to 20)
#    1.412    0.000    3.529    1.765    3.294    2.353 
#    0.000    0.000    0.000    0.000    0.000    0.000 
#    0.000    0.000    0.000    0.000    0.000    0.000 
#
# Total GULP energy -94834.349964 kJ/mol
# GULP energy per Si atom -5578.491174 kJ/mol
# Density = 2.533454 g / cm^3
# Si number density = 25.392339 Si / 1000 Ang^3
#
#
#
# Elastic Constant Matrix: (Units=GPa)
#
#
# Indices 1 2 3 4 5 6 
#
# 1 169.3232 84.4410 25.6851 0.0000 0.0000 0.0000
# 2 84.4410 235.5653 19.7266 0.0000 0.0000 0.0000
# 3 25.6851 19.7266 58.9446 0.0000 0.0000 0.0000
# 4 0.0000 0.0000 0.0000 52.5256 0.0000 0.0000
# 5 0.0000 0.0000 0.0000 0.0000 32.8145 0.0000
# 6 0.0000 0.0000 0.0000 0.0000 0.0000 52.4671
#
#
#
# Elastic Compliance Matrix: (Units=1/GPa)
#
#
# Indices 1 2 3 4 5 6 
#
# 1 0.007518 -0.002491 -0.002443 0.000000 0.000000 0.000000
# 2 -0.002491 0.005192 -0.000653 0.000000 0.000000 0.000000
# 3 -0.002443 -0.000653 0.018248 0.000000 0.000000 0.000000
# 4 0.000000 0.000000 0.000000 0.019038 0.000000 0.000000
# 5 0.000000 0.000000 0.000000 0.000000 0.030474 0.000000
# 6 0.000000 0.000000 0.000000 0.000000 0.000000 0.019060
#
#
# Mechanical properties :
#
#
# Convention : Reuss Voigt Hill
#
# Bulk Modulus (GPa) = 50.53717 80.39313 65.46515
# Shear Modulus (GPa) = 42.62644 49.82680 46.22662
#
# Velocity S-wave (km/s) = 4.10165 4.43457 4.27135
# Velocity P-wave (km/s) = 6.50977 7.61246 7.08261
#
# Compressibility (1/GPa) = 0.01978742
#
# Stress axis : x y z
#
# Youngs Moduli (GPa) = 133.00696 192.58554 54.80100
#
# Poissons Ratio (x) = 0.47963 0.13386
# Poissons Ratio (y) = 0.33125 0.03576
# Poissons Ratio (z) = 0.32489 0.12566
#
# Static dielectric constant tensor:
#      x y z
#    x 2.039680 0.000000 0.000000 
#    y 0.000000 2.146250 0.000000 
#    z 0.000000 0.000000 2.536580 
# 
# From -- ./inp_files/2302.got.cif
#   From: 2010.05.17/outbox.cif.g08.bks.cpg/sg23_2_cif.got.tgz:2302.got - 2010.06.04 12:02:01.
