data_PCOD9331030
_publ_section_title
;
Structure prediction by ZEFSAII (Michael W. Deem and Ramdas Pophale) SiO2 
 PCOD9331030
Probable space group: I 2 2 2
;
_chemical_formula_sum "Si O2"
_cell_formula_units_Z 64
_cell_length_a 12.069870
_cell_length_b 8.548391
_cell_length_c 28.285756
_cell_angle_alpha 90.000000
_cell_angle_beta 90.000000
_cell_angle_gamma 90.000000
_cell_volume 2918.466830
_symmetry_space_group_name_H-M "I 2 2 2"
_symmetry_group_IT_number 23
_symmetry_cell_setting 'orthorhombic'
loop_
_space_group_symop_operation_xyz
x,y,z
-x,-y,z
x,-y,-z
-x,y,-z
1/2+x,1/2+y,1/2+z
1/2-x,1/2-y,1/2+z
1/2+x,1/2-y,1/2-z
1/2-x,1/2+y,1/2-z
loop_
_atom_site_type_symbol
_atom_site_label
_atom_site_fract_x
_atom_site_fract_y
_atom_site_fract_z
Si Si1 0.786728 0.784067 0.691899
Si Si2 0.102668 0.283964 0.853117
Si Si3 0.777663 0.150321 0.715281
Si Si4 0.486432 0.309187 0.846826
Si Si5 0.953455 0.822297 0.547603
Si Si6 0.703306 0.740933 0.528479
Si Si7 0.866513 0.376727 0.883835
Si Si8 0.377520 0.424987 0.439300
O O1 0.716724 0.687876 0.729620
O O2 0.734461 0.785652 0.639733
O O3 0.914291 0.740720 0.684864
O O4 0.779184 0.964255 0.708702
O O5 0.161066 0.278898 0.802894
O O6 0.153238 0.439920 0.877567
O O7 0.125091 0.137926 0.886446
O O8 0.973048 0.321986 0.854366
O O9 0.871228 0.219246 0.680190
O O10 0.500000 0.500000 0.847166
O O11 0.505099 0.258093 0.901469
O O12 0.821583 0.820403 0.537810
O O13 0.000000 0.742192 0.500000
O O14 0.000000 0.000000 0.548091
O O15 0.618167 0.834190 0.561807
O O16 0.657163 0.711652 0.475976
O O17 0.705569 0.566339 0.550293
O O18 0.500000 0.500000 0.447941
#
# Coordination Sequence:
#
# PCOD9331030 Si02
#       8
#     8   8   8   8   8   8   8   8
#     4  10  21  41  62  89 126 162 212 268 334 395
#     4  10  23  39  62  95 127 165 219 276 330 394
#     4  10  23  39  64  90 125 164 208 277 331 400
#     4   9  19  39  62  90 122 160 209 262 323 384
#     4  10  22  38  67  97 122 167 221 271 323 389
#     4  11  22  40  65  91 130 178 210 269 334 396
#     4  10  21  39  64  94 124 166 221 277 327 390
#     4  11  24  42  64  93 142 178 215 269 341 414
#
# _framework density 21.929321000000002
#
# number of rings (size 3 to 8) (size 9 to 14) (size 15 to 20)
#    0.000    1.875    2.500    0.750    5.250    2.500 
#    0.000    2.500    0.000    0.000    0.000    0.000 
#    0.000    0.000    0.000    0.000    0.000    0.000 
#
# Total GULP energy -178439.224178 kJ/mol
# GULP energy per Si atom -5576.225756 kJ/mol
# Density = 2.187941 g / cm^3
# Si number density = 21.929321 Si / 1000 Ang^3
#
#
#
# Elastic Constant Matrix: (Units=GPa)
#
#
# Indices 1 2 3 4 5 6 
#
# 1 87.6841 3.7389 7.0685 0.0000 0.0000 0.0000
# 2 3.7389 24.7840 10.6129 0.0000 0.0000 0.0000
# 3 7.0685 10.6129 85.6164 0.0000 0.0000 0.0000
# 4 0.0000 0.0000 0.0000 26.0372 0.0000 0.0000
# 5 0.0000 0.0000 0.0000 0.0000 25.6148 0.0000
# 6 0.0000 0.0000 0.0000 0.0000 0.0000 19.4074
#
#
#
# Elastic Compliance Matrix: (Units=1/GPa)
#
#
# Indices 1 2 3 4 5 6 
#
# 1 0.011527 -0.001406 -0.000777 0.000000 0.000000 0.000000
# 2 -0.001406 0.042782 -0.005187 0.000000 0.000000 0.000000
# 3 -0.000777 -0.005187 0.012387 0.000000 0.000000 0.000000
# 4 0.000000 0.000000 0.000000 0.038407 0.000000 0.000000
# 5 0.000000 0.000000 0.000000 0.000000 0.039040 0.000000
# 6 0.000000 0.000000 0.000000 0.000000 0.000000 0.051527
#
#
# Mechanical properties :
#
#
# Convention : Reuss Voigt Hill
#
# Bulk Modulus (GPa) = 19.24738 26.76944 23.00841
# Shear Modulus (GPa) = 21.95592 25.98950 23.97271
#
# Velocity S-wave (km/s) = 3.16763 3.44633 3.30992
# Velocity P-wave (km/s) = 4.70899 5.29811 5.01221
#
# Compressibility (1/GPa) = 0.05195511
#
# Stress axis : x y z
#
# Youngs Moduli (GPa) = 86.75130 23.37438 80.72868
#
# Poissons Ratio (x) = 0.03287 0.06276
# Poissons Ratio (y) = 0.12198 0.41875
# Poissons Ratio (z) = 0.06744 0.12125
#
# Static dielectric constant tensor:
#      x y z
#    x 1.852910 0.000000 0.000000 
#    y 0.000000 1.903290 0.000000 
#    z 0.000000 0.000000 1.794820 
# 
# From -- ./inp_files/30486.got.cif
#   From: 2010.05.17/outbox.cif.g08.bks.cpg/sg23_16_cif.got.tgz:30486.got - 2010.06.04 12:02:01.
