data_PCOD9331539
_publ_section_title
;
Structure prediction by ZEFSAII (Michael W. Deem and Ramdas Pophale) SiO2 
 PCOD9331539
Probable space group: I 2 2 2
;
_chemical_formula_sum "Si O2"
_cell_formula_units_Z 58
_cell_length_a 26.657210
_cell_length_b 5.913795
_cell_length_c 17.907308
_cell_angle_alpha 90.000000
_cell_angle_beta 90.000000
_cell_angle_gamma 90.000000
_cell_volume 2823.002498
_symmetry_space_group_name_H-M "I 2 2 2"
_symmetry_group_IT_number 23
_symmetry_cell_setting 'orthorhombic'
loop_
_space_group_symop_operation_xyz
x,y,z
-x,-y,z
x,-y,-z
-x,y,-z
1/2+x,1/2+y,1/2+z
1/2-x,1/2-y,1/2+z
1/2+x,1/2-y,1/2-z
1/2-x,1/2+y,1/2-z
loop_
_atom_site_type_symbol
_atom_site_label
_atom_site_fract_x
_atom_site_fract_y
_atom_site_fract_z
Si Si1 0.164683 0.500655 0.088033
Si Si2 0.441692 0.960436 0.189548
Si Si3 0.135670 0.129835 0.687225
Si Si4 0.575653 0.337601 0.570850
Si Si5 0.600992 0.350097 0.318304
Si Si6 0.945940 0.908342 0.416242
Si Si7 0.746413 0.445285 0.792918
Si Si8 0.000000 0.500000 0.000000
O O1 0.127851 0.716432 0.090964
O O2 0.130178 0.293614 0.118939
O O3 0.210714 0.493533 0.145456
O O4 0.179136 0.500000 0.000000
O O5 0.425426 0.798220 0.256415
O O6 0.443555 0.854340 0.105736
O O7 0.500000 0.000000 0.205287
O O8 0.397440 0.144308 0.192918
O O9 0.102160 0.996975 0.627823
O O10 0.193972 0.123954 0.667697
O O11 0.135859 0.010306 0.768064
O O12 0.580621 0.500000 0.500000
O O13 0.561719 0.491974 0.640038
O O14 0.535404 0.151301 0.550831
O O15 0.943597 0.000000 0.500000
O O16 0.000000 0.000000 0.386058
O O17 0.741939 0.700515 0.751794
#
# Coordination Sequence:
#
# PCOD9331539 Si02
#       8
#     8   8   8   8   8   8   8   2
#     4  12  25  48  75 107 143 197 260 320 389 467
#     4  11  23  44  68 107 143 191 253 302 373 467
#     4  11  24  45  71 104 146 191 254 307 374 467
#     4  12  24  47  67  98 145 196 249 312 381 463
#     4  11  23  45  66  98 142 188 243 313 367 453
#     4  10  22  43  71 105 149 193 236 304 384 454
#     4  12  27  49  79 110 148 205 260 327 402 462
#     4  12  26  48  64 102 152 192 250 306 394 466
#
# _framework density 20.545501999999999
#
# number of rings (size 3 to 8) (size 9 to 14) (size 15 to 20)
#    0.000    0.690    4.828    2.690    1.931    1.103 
#   18.621    0.000    3.034    0.000    0.000    0.000 
#    0.000    0.000    0.000    0.000    0.000    0.000 
#
# Total GULP energy -161479.532269 kJ/mol
# GULP energy per Si atom -5568.259733 kJ/mol
# Density = 2.049874 g / cm^3
# Si number density = 20.545502 Si / 1000 Ang^3
#
#
#
# Elastic Constant Matrix: (Units=GPa)
#
#
# Indices 1 2 3 4 5 6 
#
# 1 160.4846 55.4261 46.1193 0.0000 0.0000 0.0000
# 2 55.4261 105.3800 44.2649 0.0000 0.0000 0.0000
# 3 46.1193 44.2649 101.2409 0.0000 0.0000 0.0000
# 4 0.0000 0.0000 0.0000 15.0010 0.0000 0.0000
# 5 0.0000 0.0000 0.0000 0.0000 89.0992 0.0000
# 6 0.0000 0.0000 0.0000 0.0000 0.0000 -28.7571
#
#
#
# Elastic Compliance Matrix: (Units=1/GPa)
#
#
# Indices 1 2 3 4 5 6 
#
# 1 0.007999 -0.003279 -0.002210 0.000000 0.000000 0.000000
# 2 -0.003279 0.012968 -0.004176 0.000000 0.000000 0.000000
# 3 -0.002210 -0.004176 0.012710 0.000000 0.000000 0.000000
# 4 0.000000 0.000000 0.000000 0.066662 0.000000 0.000000
# 5 0.000000 0.000000 0.000000 0.000000 0.011223 0.000000
# 6 0.000000 0.000000 0.000000 0.000000 0.000000 -0.034774
#
#
# Mechanical properties :
#
#
# Convention : Reuss Voigt Hill
#
# Bulk Modulus (GPa) = 69.70295 73.19179 71.44737
# Shear Modulus (GPa) = 49.55333 29.82164 39.68749
#
# Velocity S-wave (km/s) = 4.91642 3.81398 4.39986
# Velocity P-wave (km/s) = 8.13806 7.42272 7.78861
#
# Compressibility (1/GPa) = 0.01434660
#
# Stress axis : x y z
#
# Youngs Moduli (GPa) = 125.02190 77.11156 78.67612
#
# Poissons Ratio (x) = 0.25282 0.17389
# Poissons Ratio (y) = 0.40989 0.32859
# Poissons Ratio (z) = 0.27632 0.32206
#
# Static dielectric constant tensor:
#      x y z
#    x 1.803200 0.000000 0.000000 
#    y 0.000000 1.843870 0.000000 
#    z 0.000000 0.000000 1.751450 
# 
# From -- ./inp_files/25437.got.cif
#   From: 2010.05.17/outbox.cif.g08.bks.cpg/sg23_13_cif.got.tgz:25437.got - 2010.06.04 12:02:01.
