data_PCOD9331462
_publ_section_title
;
Structure prediction by ZEFSAII (Michael W. Deem and Ramdas Pophale) SiO2 
 PCOD9331462
Probable space group: I 2 2 2
;
_chemical_formula_sum "Si O2"
_cell_formula_units_Z 58
_cell_length_a 9.496303
_cell_length_b 15.802062
_cell_length_c 17.873855
_cell_angle_alpha 90.000000
_cell_angle_beta 90.000000
_cell_angle_gamma 90.000000
_cell_volume 2682.171572
_symmetry_space_group_name_H-M "I 2 2 2"
_symmetry_group_IT_number 23
_symmetry_cell_setting 'orthorhombic'
loop_
_space_group_symop_operation_xyz
x,y,z
-x,-y,z
x,-y,-z
-x,y,-z
1/2+x,1/2+y,1/2+z
1/2-x,1/2-y,1/2+z
1/2+x,1/2-y,1/2-z
1/2-x,1/2+y,1/2-z
loop_
_atom_site_type_symbol
_atom_site_label
_atom_site_fract_x
_atom_site_fract_y
_atom_site_fract_z
Si Si1 0.500000 0.500000 0.000000
Si Si2 0.384098 0.431713 0.221697
Si Si3 0.070002 0.585511 0.823109
Si Si4 0.418340 0.638357 0.116159
Si Si5 0.143862 0.308534 0.474762
Si Si6 0.834712 0.760532 0.112522
Si Si7 0.311376 0.180507 0.266718
Si Si8 0.381908 0.655414 0.632308
O O1 0.415379 0.563726 0.054423
O O2 0.500000 0.500000 0.198043
O O3 0.218684 0.442103 0.211593
O O4 0.436488 0.359261 0.163668
O O5 0.408275 0.417569 0.308755
O O6 0.110575 0.663945 0.876999
O O7 0.000000 0.500000 0.855422
O O8 0.957222 0.627652 0.765187
O O9 0.400335 0.726582 0.073654
O O10 0.295208 0.631996 0.177663
O O11 0.226164 0.273278 0.546272
O O12 0.254779 0.359146 0.424254
O O13 0.000000 0.352994 0.500000
O O14 0.767354 0.796571 0.189906
O O15 0.974122 0.815180 0.094910
O O16 0.341848 0.267331 0.311172
#
# Coordination Sequence:
#
# PCOD9331462 Si02
#       8
#     2   8   8   8   8   8   8   8
#     4  12  24  36  68  94 148 178 220 260 344 432
#     4  12  23  41  68  94 138 181 233 275 347 418
#     4  11  25  38  63 104 139 173 231 285 342 407
#     4  11  23  40  63  99 135 186 220 269 337 430
#     4  11  24  38  65 100 136 169 227 291 357 399
#     4  11  22  42  69  94 139 181 227 290 344 423
#     4  10  22  41  67  96 133 181 235 280 335 413
#     4  10  23  40  65  96 131 176 233 284 340 420
#
# _framework density 21.624268000000001
#
# number of rings (size 3 to 8) (size 9 to 14) (size 15 to 20)
#    0.000    1.103    4.138    2.069    1.931    0.000 
#    0.000    0.000    0.000    9.931    0.000    1.931 
#    0.000    0.000    0.000    0.000    0.000    0.000 
#
# Total GULP energy -161903.795552 kJ/mol
# GULP energy per Si atom -5582.889502 kJ/mol
# Density = 2.157505 g / cm^3
# Si number density = 21.624268 Si / 1000 Ang^3
#
#
#
# Elastic Constant Matrix: (Units=GPa)
#
#
# Indices 1 2 3 4 5 6 
#
# 1 157.2263 31.2876 51.3264 0.0000 0.0000 0.0000
# 2 31.2876 20.8547 27.4900 0.0000 0.0000 0.0000
# 3 51.3264 27.4900 114.9336 0.0000 0.0000 0.0000
# 4 0.0000 0.0000 0.0000 23.2995 0.0000 0.0000
# 5 0.0000 0.0000 0.0000 0.0000 37.2794 0.0000
# 6 0.0000 0.0000 0.0000 0.0000 0.0000 33.7425
#
#
#
# Elastic Compliance Matrix: (Units=1/GPa)
#
#
# Indices 1 2 3 4 5 6 
#
# 1 0.009175 -0.012215 -0.001176 0.000000 0.000000 0.000000
# 2 -0.012215 0.086292 -0.015185 0.000000 0.000000 0.000000
# 3 -0.001176 -0.015185 0.012858 0.000000 0.000000 0.000000
# 4 0.000000 0.000000 0.000000 0.042919 0.000000 0.000000
# 5 0.000000 0.000000 0.000000 0.000000 0.026824 0.000000
# 6 0.000000 0.000000 0.000000 0.000000 0.000000 0.029636
#
#
# Mechanical properties :
#
#
# Convention : Reuss Voigt Hill
#
# Bulk Modulus (GPa) = 19.54110 57.02473 38.28292
# Shear Modulus (GPa) = 17.73597 31.05832 24.39714
#
# Velocity S-wave (km/s) = 2.86700 3.79393 3.36256
# Velocity P-wave (km/s) = 4.47391 6.75424 5.72869
#
# Compressibility (1/GPa) = 0.05117418
#
# Stress axis : x y z
#
# Youngs Moduli (GPa) = 108.99434 11.58854 77.77522
#
# Poissons Ratio (x) = 0.14155 0.09144
# Poissons Ratio (y) = 1.33136 1.18099
# Poissons Ratio (z) = 0.12814 0.17597
#
# Static dielectric constant tensor:
#      x y z
#    x 1.813140 0.000000 0.000000 
#    y 0.000000 1.916120 0.000000 
#    z 0.000000 0.000000 1.763250 
# 
# From -- ./inp_files/23882.got.cif
#   From: 2010.05.17/outbox.cif.g08.bks.cpg/sg23_12_cif.got.tgz:23882.got - 2010.06.04 12:02:01.
