data_PCOD9331150
_publ_section_title
;
Structure prediction by ZEFSAII (Michael W. Deem and Ramdas Pophale) SiO2 
 PCOD9331150
Probable space group: I 2 2 2
;
_chemical_formula_sum "Si O2"
_cell_formula_units_Z 52
_cell_length_a 17.575664
_cell_length_b 9.186416
_cell_length_c 16.087303
_cell_angle_alpha 90.000000
_cell_angle_beta 90.000000
_cell_angle_gamma 90.000000
_cell_volume 2597.413488
_symmetry_space_group_name_H-M "I 2 2 2"
_symmetry_group_IT_number 23
_symmetry_cell_setting 'orthorhombic'
loop_
_space_group_symop_operation_xyz
x,y,z
-x,-y,z
x,-y,-z
-x,y,-z
1/2+x,1/2+y,1/2+z
1/2-x,1/2-y,1/2+z
1/2+x,1/2-y,1/2-z
1/2-x,1/2+y,1/2-z
loop_
_atom_site_type_symbol
_atom_site_label
_atom_site_fract_x
_atom_site_fract_y
_atom_site_fract_z
Si Si1 0.198879 0.000000 0.000000
Si Si2 0.134151 0.539930 0.234859
Si Si3 0.000000 0.500000 0.876977
Si Si4 0.721187 0.139647 0.150767
Si Si5 0.262763 0.536717 0.094663
Si Si6 0.434608 0.299986 0.564533
Si Si7 0.855407 0.849993 0.711981
Si Si8 0.000000 0.000000 0.792291
O O1 0.252444 0.035605 0.922943
O O2 0.143534 0.863238 0.974628
O O3 0.058050 0.576198 0.185509
O O4 0.147756 0.402591 0.294365
O O5 0.193381 0.521784 0.159361
O O6 0.146926 0.676734 0.294400
O O7 0.049602 0.626223 0.922459
O O8 0.712483 0.297575 0.110384
O O9 0.792897 0.127474 0.214405
O O10 0.326608 0.428747 0.129619
O O11 0.243018 0.500000 0.000000
O O12 0.500000 0.341305 0.500000
O O13 0.453728 0.386797 0.648778
O O14 0.936103 0.914301 0.740524
#
# Coordination Sequence:
#
# PCOD9331150 Si02
#       8
#     4   8   4   8   8   8   8   4
#     4  12  23  38  68  93 140 172 218 260 332 395
#     4  10  24  42  61  92 129 172 219 261 332 393
#     4  12  27  38  64  95 134 166 220 272 329 390
#     4  10  23  39  62  92 125 175 217 261 322 388
#     4  10  24  41  63  92 126 164 220 277 321 385
#     4  12  23  38  60  97 134 166 205 263 327 398
#     4  10  21  41  62  88 126 172 215 260 321 393
#     4  12  19  40  65  88 124 174 212 258 325 407
#
# _framework density 20.019915999999998
#
# number of rings (size 3 to 8) (size 9 to 14) (size 15 to 20)
#    0.000    1.231    4.615    0.231    8.615    1.231 
#    0.000    0.385    0.000    0.462    0.000    0.000 
#    0.000    0.000    0.000    0.000    0.000    0.000 
#
# Total GULP energy -144962.996793 kJ/mol
# GULP energy per Si atom -5575.499877 kJ/mol
# Density = 1.997435 g / cm^3
# Si number density = 20.019916 Si / 1000 Ang^3
#
#
#
# Elastic Constant Matrix: (Units=GPa)
#
#
# Indices 1 2 3 4 5 6 
#
# 1 40.0375 11.8786 17.1282 0.0000 0.0000 0.0000
# 2 11.8786 97.3327 58.2188 0.0000 0.0000 0.0000
# 3 17.1282 58.2188 57.0163 0.0000 0.0000 0.0000
# 4 0.0000 0.0000 0.0000 -35.0834 0.0000 0.0000
# 5 0.0000 0.0000 0.0000 0.0000 -4.8119 0.0000
# 6 0.0000 0.0000 0.0000 0.0000 0.0000 20.5332
#
#
#
# Elastic Compliance Matrix: (Units=1/GPa)
#
#
# Indices 1 2 3 4 5 6 
#
# 1 0.029359 0.004348 -0.013259 0.000000 0.000000 0.000000
# 2 0.004348 0.027039 -0.028915 0.000000 0.000000 0.000000
# 3 -0.013259 -0.028915 0.051047 0.000000 0.000000 0.000000
# 4 0.000000 0.000000 0.000000 -0.028504 0.000000 0.000000
# 5 0.000000 0.000000 0.000000 0.000000 -0.207820 0.000000
# 6 0.000000 0.000000 0.000000 0.000000 0.000000 0.048702
#
#
# Mechanical properties :
#
#
# Convention : Reuss Voigt Hill
#
# Bulk Modulus (GPa) = 31.45474 40.98196 36.21835
# Shear Modulus (GPa) = 823.17999 3.27164 413.22582
#
# Velocity S-wave (km/s) = 20.29959 1.27974 14.38247
# Velocity P-wave (km/s) = 23.77345 4.76431 17.14461
#
# Compressibility (1/GPa) = 0.03179171
#
# Stress axis : x y z
#
# Youngs Moduli (GPa) = 34.06108 36.98369 19.58966
#
# Poissons Ratio (x) = -0.16080 0.25975
# Poissons Ratio (y) = -0.14810 0.56644
# Poissons Ratio (z) = 0.45163 1.06940
#
# Static dielectric constant tensor:
#      x y z
#    x 1.804890 0.000000 0.000000 
#    y 0.000000 1.769570 0.000000 
#    z 0.000000 0.000000 1.724010 
# 
# From -- ./inp_files/22371.got.cif
#   From: 2010.05.17/outbox.cif.g08.bks.cpg/sg23_12_cif.got.tgz:22371.got - 2010.06.04 12:02:01.
