data_PCOD9331736
_publ_section_title
;
Structure prediction by ZEFSAII (Michael W. Deem and Ramdas Pophale) SiO2 
 PCOD9331736
Probable space group: I 2 2 2
;
_chemical_formula_sum "Si O2"
_cell_formula_units_Z 58
_cell_length_a 9.321187
_cell_length_b 21.682900
_cell_length_c 14.499754
_cell_angle_alpha 90.000000
_cell_angle_beta 90.000000
_cell_angle_gamma 90.000000
_cell_volume 2930.550582
_symmetry_space_group_name_H-M "I 2 2 2"
_symmetry_group_IT_number 23
_symmetry_cell_setting 'orthorhombic'
loop_
_space_group_symop_operation_xyz
x,y,z
-x,-y,z
x,-y,-z
-x,y,-z
1/2+x,1/2+y,1/2+z
1/2-x,1/2-y,1/2+z
1/2+x,1/2-y,1/2-z
1/2-x,1/2+y,1/2-z
loop_
_atom_site_type_symbol
_atom_site_label
_atom_site_fract_x
_atom_site_fract_y
_atom_site_fract_z
Si Si1 0.210038 0.132678 0.609404
Si Si2 0.964841 0.092140 0.899889
Si Si3 0.752116 0.018887 0.128275
Si Si4 0.000000 0.500000 0.500000
Si Si5 0.234200 0.134558 0.401152
Si Si6 0.489775 0.214598 0.603646
Si Si7 0.670189 0.999238 0.338047
Si Si8 0.468531 0.316715 0.755045
O O1 0.165554 0.137342 0.502420
O O2 0.338403 0.181601 0.618027
O O3 0.096648 0.152272 0.686801
O O4 0.261612 0.062367 0.623669
O O5 0.119739 0.068066 0.864431
O O6 0.909597 0.138661 0.824663
O O7 0.845009 0.039059 0.910343
O O8 0.000000 0.117524 0.000000
O O9 0.691903 0.002206 0.228079
O O10 0.613897 0.035212 0.065800
O O11 0.394861 0.160154 0.403157
O O12 0.248563 0.062939 0.370925
O O13 0.154098 0.181779 0.332473
O O14 0.500000 0.244085 0.500000
O O15 0.513091 0.257908 0.693335
O O16 0.500000 0.000000 0.360808
#
# Coordination Sequence:
#
# PCOD9331736 Si02
#       8
#     8   8   8   2   8   8   8   8
#     4  11  24  41  65  94 129 163 210 261 316 372
#     4  11  21  37  57  85 120 164 208 249 306 370
#     4  11  21  35  55  85 123 160 205 258 308 365
#     4  12  20  34  60  80 122 166 208 260 312 352
#     4  11  24  41  65  94 129 163 210 261 316 372
#     4  10  23  44  66  92 119 168 217 256 305 375
#     4  12  22  38  65  96 126 166 208 255 323 377
#     4  12  23  40  64  94 127 165 203 264 308 372
#
# _framework density 19.791502999999999
#
# number of rings (size 3 to 8) (size 9 to 14) (size 15 to 20)
#    0.000    0.828    6.207    2.483    0.000    1.103 
#    0.000    1.379    0.000    0.000    0.000    0.000 
#    0.000    0.000    0.000    0.000    0.000    0.000 
#
# Total GULP energy -161582.260279 kJ/mol
# GULP energy per Si atom -5571.802079 kJ/mol
# Density = 1.974646 g / cm^3
# Si number density = 19.791503 Si / 1000 Ang^3
#
#
#
# Elastic Constant Matrix: (Units=GPa)
#
#
# Indices 1 2 3 4 5 6 
#
# 1 71.1369 -4.2439 11.8534 0.0000 0.0000 0.0000
# 2 -4.2439 63.9208 29.2981 0.0000 0.0000 0.0000
# 3 11.8534 29.2981 140.8870 0.0000 0.0000 0.0000
# 4 0.0000 0.0000 0.0000 7.2997 0.0000 0.0000
# 5 0.0000 0.0000 0.0000 0.0000 33.2757 0.0000
# 6 0.0000 0.0000 0.0000 0.0000 0.0000 10.6963
#
#
#
# Elastic Compliance Matrix: (Units=1/GPa)
#
#
# Indices 1 2 3 4 5 6 
#
# 1 0.014417 0.001673 -0.001561 0.000000 0.000000 0.000000
# 2 0.001673 0.017487 -0.003777 0.000000 0.000000 0.000000
# 3 -0.001561 -0.003777 0.008015 0.000000 0.000000 0.000000
# 4 0.000000 0.000000 0.000000 0.136991 0.000000 0.000000
# 5 0.000000 0.000000 0.000000 0.000000 0.030052 0.000000
# 6 0.000000 0.000000 0.000000 0.000000 0.000000 0.093490
#
#
# Mechanical properties :
#
#
# Convention : Reuss Voigt Hill
#
# Bulk Modulus (GPa) = 30.68626 38.86223 34.77425
# Shear Modulus (GPa) = 15.69141 26.19015 20.94078
#
# Velocity S-wave (km/s) = 2.81879 3.64167 3.25633
# Velocity P-wave (km/s) = 5.11200 6.11235 5.63442
#
# Compressibility (1/GPa) = 0.03258787
#
# Stress axis : x y z
#
# Youngs Moduli (GPa) = 69.36131 57.18642 124.77096
#
# Poissons Ratio (x) = -0.09565 0.19474
# Poissons Ratio (y) = -0.11601 0.47128
# Poissons Ratio (z) = 0.10826 0.21600
#
# Static dielectric constant tensor:
#      x y z
#    x 1.689590 0.000000 0.000000 
#    y 0.000000 1.699820 0.000000 
#    z 0.000000 0.000000 1.734520 
# 
# From -- ./inp_files/20307.got.cif
#   From: 2010.05.17/outbox.cif.g08.bks.cpg/sg23_11_cif.got.tgz:20307.got - 2010.06.04 12:02:01.
