data_PCOD9331710
_publ_section_title
;
Structure prediction by ZEFSAII (Michael W. Deem and Ramdas Pophale) SiO2 
 PCOD9331710
Probable space group: I 2 2 2
;
_chemical_formula_sum "Si O2"
_cell_formula_units_Z 56
_cell_length_a 9.605334
_cell_length_b 19.203665
_cell_length_c 13.999670
_cell_angle_alpha 90.000000
_cell_angle_beta 90.000000
_cell_angle_gamma 90.000000
_cell_volume 2582.345758
_symmetry_space_group_name_H-M "I 2 2 2"
_symmetry_group_IT_number 23
_symmetry_cell_setting 'orthorhombic'
loop_
_space_group_symop_operation_xyz
x,y,z
-x,-y,z
x,-y,-z
-x,y,-z
1/2+x,1/2+y,1/2+z
1/2-x,1/2-y,1/2+z
1/2+x,1/2-y,1/2-z
1/2-x,1/2+y,1/2-z
loop_
_atom_site_type_symbol
_atom_site_label
_atom_site_fract_x
_atom_site_fract_y
_atom_site_fract_z
Si Si1 0.086416 0.669789 0.408192
Si Si2 0.620930 0.887196 0.685607
Si Si3 0.773907 0.500000 0.500000
Si Si4 0.178596 0.730609 0.677553
Si Si5 0.825651 0.375475 0.195496
Si Si6 0.500000 0.000000 0.162769
Si Si7 0.837412 0.993467 0.614324
Si Si8 0.157270 0.847169 0.025088
O O1 0.131527 0.634901 0.307304
O O2 0.232824 0.689282 0.453863
O O3 0.000000 0.635512 0.500000
O O4 0.970496 0.725134 0.375563
O O5 0.655480 0.810432 0.724082
O O6 0.470263 0.879034 0.635767
O O7 0.574923 0.942719 0.769315
O O8 0.753677 0.922829 0.638388
O O9 0.873616 0.515519 0.589741
O O10 0.686286 0.430087 0.518490
O O11 0.234196 0.807873 0.675983
O O12 0.292855 0.681890 0.625994
O O13 0.741931 0.444517 0.169608
O O14 0.828525 0.000000 0.500000
O O15 0.000000 0.000000 0.641189
O O16 0.000000 0.832010 0.000000
#
# Coordination Sequence:
#
# PCOD9331710 Si02
#       8
#     8   8   4   8   8   4   8   8
#     4   9  22  43  68  96 145 193 232 295 380 455
#     4  11  22  44  73  98 134 182 242 301 366 449
#     4  11  21  34  66  94 142 188 222 290 364 452
#     4  10  23  43  64 105 140 182 240 303 379 444
#     4  11  23  45  75 104 138 187 250 309 376 447
#     4  11  20  38  71  98 128 188 241 280 371 458
#     4  11  27  50  70 102 141 196 258 313 373 437
#     4  11  23  38  57  99 146 179 236 291 358 446
#
# _framework density 21.685708999999999
#
# number of rings (size 3 to 8) (size 9 to 14) (size 15 to 20)
#    0.000    1.429    2.857    1.929    4.000    6.857 
#   15.429    0.000    0.000    0.000    0.000    0.000 
#    0.000    0.000    0.000    0.000    0.000    0.000 
#
# Total GULP energy -155968.069813 kJ/mol
# GULP energy per Si atom -5570.288208 kJ/mol
# Density = 2.163635 g / cm^3
# Si number density = 21.685709 Si / 1000 Ang^3
#
#
#
# Elastic Constant Matrix: (Units=GPa)
#
#
# Indices 1 2 3 4 5 6 
#
# 1 192.9937 40.1493 28.3369 0.0000 0.0000 0.0000
# 2 40.1493 95.2913 4.5323 0.0000 0.0000 0.0000
# 3 28.3369 4.5323 44.1933 0.0000 0.0000 0.0000
# 4 0.0000 0.0000 0.0000 15.7928 0.0000 0.0000
# 5 0.0000 0.0000 0.0000 0.0000 12.2602 0.0000
# 6 0.0000 0.0000 0.0000 0.0000 0.0000 36.1141
#
#
#
# Elastic Compliance Matrix: (Units=1/GPa)
#
#
# Indices 1 2 3 4 5 6 
#
# 1 0.006242 -0.002452 -0.003751 0.000000 0.000000 0.000000
# 2 -0.002452 0.011508 0.000392 0.000000 0.000000 0.000000
# 3 -0.003751 0.000392 0.024993 0.000000 0.000000 0.000000
# 4 0.000000 0.000000 0.000000 0.063320 0.000000 0.000000
# 5 0.000000 0.000000 0.000000 0.000000 0.081564 0.000000
# 6 0.000000 0.000000 0.000000 0.000000 0.000000 0.027690
#
#
# Mechanical properties :
#
#
# Convention : Reuss Voigt Hill
#
# Bulk Modulus (GPa) = 32.13205 53.16837 42.65021
# Shear Modulus (GPa) = 21.06913 30.13076 25.59994
#
# Velocity S-wave (km/s) = 3.12038 3.73155 3.43957
# Velocity P-wave (km/s) = 5.27557 6.56787 5.95687
#
# Compressibility (1/GPa) = 0.03112157
#
# Stress axis : x y z
#
# Youngs Moduli (GPa) = 160.19664 86.89251 40.01131
#
# Poissons Ratio (x) = 0.21303 0.15009
# Poissons Ratio (y) = 0.39275 -0.01568
# Poissons Ratio (z) = 0.60093 -0.03404
#
# Static dielectric constant tensor:
#      x y z
#    x 1.794010 0.000000 0.000000 
#    y 0.000000 1.917260 0.000000 
#    z 0.000000 0.000000 1.857030 
# 
# From -- ./inp_files/20249.got.cif
#   From: 2010.05.17/outbox.cif.g08.bks.cpg/sg23_11_cif.got.tgz:20249.got - 2010.06.04 12:02:01.
