data_PCOD9331353
_publ_section_title
;
Structure prediction by ZEFSAII (Michael W. Deem and Ramdas Pophale) SiO2 
 PCOD9331353
Probable space group: I 2 2 2
;
_chemical_formula_sum "Si O2"
_cell_formula_units_Z 56
_cell_length_a 13.368890
_cell_length_b 13.197538
_cell_length_c 15.954740
_cell_angle_alpha 90.000000
_cell_angle_beta 90.000000
_cell_angle_gamma 90.000000
_cell_volume 2814.997428
_symmetry_space_group_name_H-M "I 2 2 2"
_symmetry_group_IT_number 23
_symmetry_cell_setting 'orthorhombic'
loop_
_space_group_symop_operation_xyz
x,y,z
-x,-y,z
x,-y,-z
-x,y,-z
1/2+x,1/2+y,1/2+z
1/2-x,1/2-y,1/2+z
1/2+x,1/2-y,1/2-z
1/2-x,1/2+y,1/2-z
loop_
_atom_site_type_symbol
_atom_site_label
_atom_site_fract_x
_atom_site_fract_y
_atom_site_fract_z
Si Si1 0.193244 0.878038 0.675108
Si Si2 0.515497 0.301661 0.905122
Si Si3 0.785596 0.886193 0.675240
Si Si4 0.359187 0.115219 0.020657
Si Si5 0.480311 0.392066 0.402462
Si Si6 0.315319 0.689687 0.365232
Si Si7 0.262221 0.320381 0.365164
O O1 0.204606 0.856296 0.773682
O O2 0.271656 0.800782 0.634703
O O3 0.085886 0.833777 0.643776
O O4 0.214168 0.994817 0.656774
O O5 0.602567 0.349553 0.847862
O O6 0.562013 0.187860 0.928624
O O7 0.500000 0.344396 0.000000
O O8 0.718902 0.805832 0.624069
O O9 0.751303 0.863940 0.771025
O O10 0.254457 0.123736 0.072487
O O11 0.327407 0.156256 0.929028
O O12 0.388535 0.000000 0.000000
O O13 0.500000 0.500000 0.358793
O O14 0.500000 0.401585 0.500000
O O15 0.565920 0.316666 0.373415
O O16 0.366495 0.365090 0.393127
#
# Coordination Sequence:
#
# PCOD9331353 Si02
#       7
#     8   8   8   8   8   8   8
#     4  11  22  41  61  87 127 166 210 254 319 376
#     4  11  23  41  59  95 125 168 217 262 305 389
#     4  10  23  39  64  87 125 170 208 259 319 372
#     4  11  21  39  66  93 128 161 206 264 331 375
#     4  11  20  33  60  89 117 150 194 251 308 354
#     4  10  22  39  61  95 125 157 214 262 310 388
#     4  11  22  39  62  93 123 158 209 264 311 386
#
# _framework density 19.893446999999998
#
# number of rings (size 3 to 8) (size 9 to 14) (size 15 to 20)
#    0.000    1.286    2.857    3.857    0.000    1.429 
#    0.000    0.714    0.000    0.857    0.000    0.000 
#    0.000    0.000    0.000    0.000    0.000    0.000 
#
# Total GULP energy -155880.646454 kJ/mol
# GULP energy per Si atom -5567.165945 kJ/mol
# Density = 1.984817 g / cm^3
# Si number density = 19.893447 Si / 1000 Ang^3
#
#
#
# Elastic Constant Matrix: (Units=GPa)
#
#
# Indices 1 2 3 4 5 6 
#
# 1 67.7866 45.8636 1.1020 0.0000 0.0000 0.0000
# 2 45.8636 177.5923 16.6051 0.0000 0.0000 0.0000
# 3 1.1020 16.6051 64.7234 0.0000 0.0000 0.0000
# 4 0.0000 0.0000 0.0000 23.5960 0.0000 0.0000
# 5 0.0000 0.0000 0.0000 0.0000 38.1673 0.0000
# 6 0.0000 0.0000 0.0000 0.0000 0.0000 33.6250
#
#
#
# Elastic Compliance Matrix: (Units=1/GPa)
#
#
# Indices 1 2 3 4 5 6 
#
# 1 0.017927 -0.004714 0.000904 0.000000 0.000000 0.000000
# 2 -0.004714 0.007009 -0.001718 0.000000 0.000000 0.000000
# 3 0.000904 -0.001718 0.015876 0.000000 0.000000 0.000000
# 4 0.000000 0.000000 0.000000 0.042380 0.000000 0.000000
# 5 0.000000 0.000000 0.000000 0.000000 0.026200 0.000000
# 6 0.000000 0.000000 0.000000 0.000000 0.000000 0.029740
#
#
# Mechanical properties :
#
#
# Convention : Reuss Voigt Hill
#
# Bulk Modulus (GPa) = 33.60681 48.58264 41.09473
# Shear Modulus (GPa) = 31.22920 35.51310 33.37115
#
# Velocity S-wave (km/s) = 3.96640 4.22971 4.10017
# Velocity P-wave (km/s) = 6.15683 6.95186 6.56639
#
# Compressibility (1/GPa) = 0.02975587
#
# Stress axis : x y z
#
# Youngs Moduli (GPa) = 55.78151 142.67433 62.98934
#
# Poissons Ratio (x) = 0.67260 -0.05696
# Poissons Ratio (y) = 0.26297 0.10821
# Poissons Ratio (z) = -0.05044 0.24510
#
# Static dielectric constant tensor:
#      x y z
#    x 1.706630 0.000000 0.000000 
#    y 0.000000 1.726750 0.000000 
#    z 0.000000 0.000000 1.748290 
# 
# From -- ./inp_files/21588.got.cif
#   From: 2010.05.17/outbox.cif.g08.bks.cpg/sg23_11_cif.got.tgz:21588.got - 2010.06.04 12:02:01.
