data_PCOD9331645
_publ_section_title
;
Structure prediction by ZEFSAII (Michael W. Deem and Ramdas Pophale) SiO2 
 PCOD9331645
Probable space group: I 2 2 2
;
_chemical_formula_sum "Si O2"
_cell_formula_units_Z 48
_cell_length_a 18.729824
_cell_length_b 20.362472
_cell_length_c 5.803766
_cell_angle_alpha 90.000000
_cell_angle_beta 90.000000
_cell_angle_gamma 90.000000
_cell_volume 2213.472295
_symmetry_space_group_name_H-M "I 2 2 2"
_symmetry_group_IT_number 23
_symmetry_cell_setting 'orthorhombic'
loop_
_space_group_symop_operation_xyz
x,y,z
-x,-y,z
x,-y,-z
-x,y,-z
1/2+x,1/2+y,1/2+z
1/2-x,1/2-y,1/2+z
1/2+x,1/2-y,1/2-z
1/2-x,1/2+y,1/2-z
loop_
_atom_site_type_symbol
_atom_site_label
_atom_site_fract_x
_atom_site_fract_y
_atom_site_fract_z
Si Si1 0.429524 0.334304 0.618194
Si Si2 0.068847 0.291111 0.394403
Si Si3 0.325250 0.748303 0.711937
Si Si4 0.202049 0.488946 0.248562
Si Si5 0.138974 0.033350 0.252318
Si Si6 0.301542 0.156258 0.647197
O O1 0.500000 0.363557 0.500000
O O2 0.370457 0.298537 0.458741
O O3 0.391158 0.392974 0.751826
O O4 0.459625 0.272383 0.759448
O O5 0.124120 0.260219 0.573742
O O6 0.118073 0.337014 0.239982
O O7 0.000000 0.325313 0.500000
O O8 0.308153 0.821092 0.615992
O O9 0.251521 0.711738 0.758101
O O10 0.167085 0.500000 0.500000
O O11 0.274615 0.531582 0.249180
O O12 0.226642 0.413458 0.224509
O O13 0.163824 0.500000 0.000000
O O14 0.117811 0.000000 0.500000
O O15 0.118820 0.000000 0.000000
#
# Coordination Sequence:
#
# PCOD9331645 Si02
#       6
#     8   8   8   8   8   8
#     4  11  24  40  64  94 138 186 225 280 348 427
#     4  11  24  42  66  98 136 175 217 284 359 421
#     4  11  22  39  64 101 132 172 226 286 354 411
#     4  10  23  40  65  97 135 177 226 287 342 397
#     4  10  23  40  61  91 129 184 231 276 324 398
#     4  11  24  38  68 100 134 174 230 289 343 417
#
# _framework density 21.685383999999999
#
# number of rings (size 3 to 8) (size 9 to 14) (size 15 to 20)
#    0.000    1.333    3.333    2.000    9.333    0.333 
#    0.000    0.833    0.000    0.500    0.000    0.000 
#    0.000    0.000    0.000    0.000    0.000    0.000 
#
# Total GULP energy -133791.831676 kJ/mol
# GULP energy per Si atom -5574.659653 kJ/mol
# Density = 2.163603 g / cm^3
# Si number density = 21.685384 Si / 1000 Ang^3
#
#
#
# Elastic Constant Matrix: (Units=GPa)
#
#
# Indices 1 2 3 4 5 6 
#
# 1 74.5276 -3.6008 -4.9320 0.0000 0.0000 0.0000
# 2 -3.6008 44.2958 10.2144 0.0000 0.0000 0.0000
# 3 -4.9320 10.2144 105.2786 0.0000 0.0000 0.0000
# 4 0.0000 0.0000 0.0000 -7.5924 0.0000 0.0000
# 5 0.0000 0.0000 0.0000 0.0000 16.1325 0.0000
# 6 0.0000 0.0000 0.0000 0.0000 0.0000 8.0814
#
#
#
# Elastic Compliance Matrix: (Units=1/GPa)
#
#
# Indices 1 2 3 4 5 6 
#
# 1 0.013500 0.000973 0.000538 0.000000 0.000000 0.000000
# 2 0.000973 0.023162 -0.002202 0.000000 0.000000 0.000000
# 3 0.000538 -0.002202 0.009737 0.000000 0.000000 0.000000
# 4 0.000000 0.000000 0.000000 -0.131711 0.000000 0.000000
# 5 0.000000 0.000000 0.000000 0.000000 0.061987 0.000000
# 6 0.000000 0.000000 0.000000 0.000000 0.000000 0.123740
#
#
# Mechanical properties :
#
#
# Convention : Reuss Voigt Hill
#
# Bulk Modulus (GPa) = 22.21249 25.27391 23.74320
# Shear Modulus (GPa) = 42.80696 18.15233 30.47964
#
# Velocity S-wave (km/s) = 4.44779 2.89637 3.75312
# Velocity P-wave (km/s) = 6.05330 4.78177 5.45471
#
# Compressibility (1/GPa) = 0.04501971
#
# Stress axis : x y z
#
# Youngs Moduli (GPa) = 74.07139 43.17354 102.69659
#
# Poissons Ratio (x) = -0.04202 -0.05525
# Poissons Ratio (y) = -0.07210 0.22610
# Poissons Ratio (z) = -0.03985 0.09505
#
# Static dielectric constant tensor:
#      x y z
#    x 1.797480 0.000000 0.000000 
#    y 0.000000 1.772190 0.000000 
#    z 0.000000 0.000000 1.949070 
# 
# From -- ./inp_files/3871.got.cif
#   From: 2010.05.17/outbox.cif.g08.bks.cpg/sg23_2_cif.got.tgz:3871.got - 2010.06.04 12:02:01.
