data_PCOD9331919
_publ_section_title
;
Structure prediction by ZEFSAII (Michael W. Deem and Ramdas Pophale) SiO2 
 PCOD9331919
Probable space group: I 2 2 2
;
_chemical_formula_sum "Si O2"
_cell_formula_units_Z 40
_cell_length_a 15.549128
_cell_length_b 15.575423
_cell_length_c 7.557241
_cell_angle_alpha 90.000000
_cell_angle_beta 90.000000
_cell_angle_gamma 90.000000
_cell_volume 1830.244713
_symmetry_space_group_name_H-M "I 2 2 2"
_symmetry_group_IT_number 23
_symmetry_cell_setting 'orthorhombic'
loop_
_space_group_symop_operation_xyz
x,y,z
-x,-y,z
x,-y,-z
-x,y,-z
1/2+x,1/2+y,1/2+z
1/2-x,1/2-y,1/2+z
1/2+x,1/2-y,1/2-z
1/2-x,1/2+y,1/2-z
loop_
_atom_site_type_symbol
_atom_site_label
_atom_site_fract_x
_atom_site_fract_y
_atom_site_fract_z
Si Si1 0.316230 0.852616 0.611984
Si Si2 0.970575 0.776671 0.303884
Si Si3 0.807299 0.000000 0.500000
Si Si4 0.918384 0.937095 0.823028
Si Si5 0.500000 0.859133 0.500000
Si Si6 0.311533 0.671519 0.401973
O O1 0.409532 0.895054 0.571717
O O2 0.312253 0.757326 0.524132
O O3 0.281852 0.845561 0.815061
O O4 0.250451 0.916465 0.520446
O O5 0.976024 0.698832 0.168519
O O6 0.874963 0.811862 0.265977
O O7 0.000000 0.753964 0.500000
O O8 0.037339 0.848974 0.240488
O O9 0.863965 0.981372 0.670737
O O10 0.856267 0.904618 0.983211
O O11 0.000000 0.000000 0.842824
#
# Coordination Sequence:
#
# PCOD9331919 Si02
#       6
#     8   8   4   8   4   8
#     4  11  24  44  66 100 137 197 247 296 362 433
#     4  11  21  39  66 101 138 184 232 292 372 439
#     4  12  27  41  68 108 144 196 244 305 363 440
#     4  12  23  42  66 109 152 183 231 305 386 442
#     4  10  24  47  65  98 134 198 250 290 359 421
#     4  11  24  42  70 100 149 193 239 304 367 461
#
# _framework density 21.854998999999999
#
# number of rings (size 3 to 8) (size 9 to 14) (size 15 to 20)
#    0.000    0.800    4.000    5.100    2.800    6.000 
#    0.000    0.000    0.000    0.000    0.000    0.000 
#    0.000    0.000    0.000    0.000    0.000    0.000 
#
# Total GULP energy -111618.555461 kJ/mol
# GULP energy per Si atom -5580.927773 kJ/mol
# Density = 2.180526 g / cm^3
# Si number density = 21.854999 Si / 1000 Ang^3
#
#
#
# Elastic Constant Matrix: (Units=GPa)
#
#
# Indices 1 2 3 4 5 6 
#
# 1 163.8348 42.9691 61.8022 0.0000 0.0000 0.0000
# 2 42.9691 85.7110 26.6245 0.0000 0.0000 0.0000
# 3 61.8022 26.6245 118.4437 0.0000 0.0000 0.0000
# 4 0.0000 0.0000 0.0000 26.8197 0.0000 0.0000
# 5 0.0000 0.0000 0.0000 0.0000 39.7189 0.0000
# 6 0.0000 0.0000 0.0000 0.0000 0.0000 60.8635
#
#
#
# Elastic Compliance Matrix: (Units=1/GPa)
#
#
# Indices 1 2 3 4 5 6 
#
# 1 0.008266 -0.003015 -0.003635 0.000000 0.000000 0.000000
# 2 -0.003015 0.013642 -0.001494 0.000000 0.000000 0.000000
# 3 -0.003635 -0.001494 0.010675 0.000000 0.000000 0.000000
# 4 0.000000 0.000000 0.000000 0.037286 0.000000 0.000000
# 5 0.000000 0.000000 0.000000 0.000000 0.025177 0.000000
# 6 0.000000 0.000000 0.000000 0.000000 0.000000 0.016430
#
#
# Mechanical properties :
#
#
# Convention : Reuss Voigt Hill
#
# Bulk Modulus (GPa) = 61.36301 70.08678 65.72489
# Shear Modulus (GPa) = 37.53877 41.25334 39.39606
#
# Velocity S-wave (km/s) = 4.14892 4.34936 4.25032
# Velocity P-wave (km/s) = 7.14771 7.57371 7.36379
#
# Compressibility (1/GPa) = 0.01629646
#
# Stress axis : x y z
#
# Youngs Moduli (GPa) = 120.98276 73.30106 93.67322
#
# Poissons Ratio (x) = 0.22097 0.34053
# Poissons Ratio (y) = 0.36471 0.13992
# Poissons Ratio (z) = 0.43980 0.10949
#
# Static dielectric constant tensor:
#      x y z
#    x 1.864610 0.000000 0.000000 
#    y 0.000000 1.824490 0.000000 
#    z 0.000000 0.000000 1.427290 
# 
# From -- ./inp_files/9639.got.cif
#   From: 2010.05.17/outbox.cif.g08.bks.cpg/sg23_5_cif.got.tgz:9639.got - 2010.06.04 12:02:01.
