data_PCOD9331460
_publ_section_title
;
Structure prediction by ZEFSAII (Michael W. Deem and Ramdas Pophale) SiO2 
 PCOD9331460
Probable space group: I 2 2 2
;
_chemical_formula_sum "Si O2"
_cell_formula_units_Z 28
_cell_length_a 5.230703
_cell_length_b 18.317955
_cell_length_c 11.889032
_cell_angle_alpha 90.000000
_cell_angle_beta 90.000000
_cell_angle_gamma 90.000000
_cell_volume 1139.156900
_symmetry_space_group_name_H-M "I 2 2 2"
_symmetry_group_IT_number 23
_symmetry_cell_setting 'orthorhombic'
loop_
_space_group_symop_operation_xyz
x,y,z
-x,-y,z
x,-y,-z
-x,y,-z
1/2+x,1/2+y,1/2+z
1/2-x,1/2-y,1/2+z
1/2+x,1/2-y,1/2-z
1/2-x,1/2+y,1/2-z
loop_
_atom_site_type_symbol
_atom_site_label
_atom_site_fract_x
_atom_site_fract_y
_atom_site_fract_z
Si Si1 0.739949 0.206658 0.774359
Si Si2 0.004455 0.411783 0.128089
Si Si3 0.000000 0.346833 0.500000
Si Si4 0.744869 0.550152 0.335181
O O1 0.520658 0.259772 0.724659
O O2 0.706462 0.132576 0.700229
O O3 0.643319 0.194890 0.901197
O O4 0.240219 0.407255 0.215904
O O5 0.000000 0.500000 0.115766
O O6 0.000000 0.383299 0.000000
O O7 0.212350 0.395432 0.437153
O O8 0.500000 0.500000 0.343626
O O9 0.000000 0.500000 0.340135
#
# Coordination Sequence:
#
# PCOD9331460 Si02
#       4
#     8   8   4   8
#     4  11  27  46  70 104 147 198 254 309 377 452
#     4   9  21  44  72 105 145 192 247 308 373 445
#     4  10  25  44  70 104 145 196 248 308 378 444
#     4  10  22  41  67 104 142 183 236 304 374 443
#
# _framework density 24.57958
#
# number of rings (size 3 to 8) (size 9 to 14) (size 15 to 20)
#    0.000    2.000    0.000    0.429    4.000   19.429 
#    0.000   20.000    0.000    0.000    0.000    0.000 
#    0.000    0.000    0.000    0.000    0.000    0.000 
#
# Total GULP energy -78192.101721 kJ/mol
# GULP energy per Si atom -5585.150123 kJ/mol
# Density = 2.452364 g / cm^3
# Si number density = 24.579580 Si / 1000 Ang^3
#
#
#
# Elastic Constant Matrix: (Units=GPa)
#
#
# Indices 1 2 3 4 5 6 
#
# 1 142.7018 45.2444 8.8042 0.0000 0.0000 0.0000
# 2 45.2444 80.8754 24.4442 0.0000 0.0000 0.0000
# 3 8.8042 24.4442 194.6939 0.0000 0.0000 0.0000
# 4 0.0000 0.0000 0.0000 32.0811 0.0000 0.0000
# 5 0.0000 0.0000 0.0000 0.0000 0.3900 0.0000
# 6 0.0000 0.0000 0.0000 0.0000 0.0000 53.7332
#
#
#
# Elastic Compliance Matrix: (Units=1/GPa)
#
#
# Indices 1 2 3 4 5 6 
#
# 1 0.008528 -0.004838 0.000222 0.000000 0.000000 0.000000
# 2 -0.004838 0.015597 -0.001739 0.000000 0.000000 0.000000
# 3 0.000222 -0.001739 0.005345 0.000000 0.000000 0.000000
# 4 0.000000 0.000000 0.000000 0.031171 0.000001 0.000000
# 5 0.000000 0.000000 0.000000 0.000001 2.564198 0.000000
# 6 0.000000 0.000000 0.000000 0.000000 0.000000 0.018610
#
#
# Mechanical properties :
#
#
# Convention : Reuss Voigt Hill
#
# Bulk Modulus (GPa) = 59.67171 63.91743 61.79457
# Shear Modulus (GPa) = 1.87847 39.89273 20.88560
#
# Velocity S-wave (km/s) = 0.87516 4.03302 2.91815
# Velocity P-wave (km/s) = 5.03496 6.90997 6.04560
#
# Compressibility (1/GPa) = 0.01675836
#
# Stress axis : x y z
#
# Youngs Moduli (GPa) = 117.26391 64.11557 187.10366
#
# Poissons Ratio (x) = 0.31017 -0.04149
# Poissons Ratio (y) = 0.56729 0.32546
# Poissons Ratio (z) = -0.02600 0.11153
#
# Static dielectric constant tensor:
#      x y z
#    x 1.934160 0.000000 0.000000 
#    y 0.000000 2.260120 0.000000 
#    z 0.000000 0.000000 2.000120 
# 
# From -- ./inp_files/13717.got.cif
#   From: 2010.05.17/outbox.cif.g08.bks.cpg/sg23_7_cif.got.tgz:13717.got - 2010.06.04 12:02:01.
