data_PCOD9331192
_publ_section_title
;
Structure prediction by ZEFSAII (Michael W. Deem and Ramdas Pophale) SiO2 
 PCOD9331192
Probable space group: I 2 2 2
;
_chemical_formula_sum "Si O2"
_cell_formula_units_Z 38
_cell_length_a 11.676307
_cell_length_b 5.112694
_cell_length_c 26.060094
_cell_angle_alpha 90.000000
_cell_angle_beta 90.000000
_cell_angle_gamma 90.000000
_cell_volume 1555.719458
_symmetry_space_group_name_H-M "I 2 2 2"
_symmetry_group_IT_number 23
_symmetry_cell_setting 'orthorhombic'
loop_
_space_group_symop_operation_xyz
x,y,z
-x,-y,z
x,-y,-z
-x,y,-z
1/2+x,1/2+y,1/2+z
1/2-x,1/2-y,1/2+z
1/2+x,1/2-y,1/2-z
1/2-x,1/2+y,1/2-z
loop_
_atom_site_type_symbol
_atom_site_label
_atom_site_fract_x
_atom_site_fract_y
_atom_site_fract_z
Si Si1 0.500000 0.000000 0.500000
Si Si2 0.000000 0.000000 0.787986
Si Si3 0.946312 0.751119 0.557341
Si Si4 0.320638 0.283434 0.572413
Si Si5 0.175619 0.717581 0.136783
Si Si6 0.188690 0.298829 0.270779
O O1 0.416399 0.183593 0.533463
O O2 0.071658 0.804596 0.752398
O O3 0.921183 0.826505 0.825344
O O4 0.809810 0.755385 0.553595
O O5 0.000000 0.500000 0.583594
O O6 0.000000 0.750627 0.500000
O O7 0.000000 0.000000 0.584217
O O8 0.330472 0.585735 0.588554
O O9 0.334917 0.082983 0.620410
O O10 0.291633 0.763438 0.168772
O O11 0.220974 0.592682 0.255052
#
# Coordination Sequence:
#
# PCOD9331192 Si02
#       6
#     2   4   8   8   8   8
#     4  12  28  46  74 110 148 206 228 300 380 442
#     4  10  22  44  74  97 142 195 216 284 364 438
#     4  10  21  42  69  91 126 185 237 288 347 408
#     4  12  26  45  70 106 146 183 245 295 359 430
#     4  11  24  44  68 107 142 178 236 297 343 423
#     4  10  22  41  69 100 134 184 231 271 350 427
#
# _framework density 24.425996999999999
#
# number of rings (size 3 to 8) (size 9 to 14) (size 15 to 20)
#    0.000    1.263    0.000    6.316    0.000   10.105 
#    5.684    0.000    4.632    0.000    0.000    0.000 
#    0.000    0.000    0.000    0.000    0.000    0.000 
#
# Total GULP energy -106390.580279 kJ/mol
# GULP energy per Si atom -5599.504225 kJ/mol
# Density = 2.437040 g / cm^3
# Si number density = 24.425997 Si / 1000 Ang^3
#
#
#
# Elastic Constant Matrix: (Units=GPa)
#
#
# Indices 1 2 3 4 5 6 
#
# 1 177.8157 16.1677 40.1375 0.0000 0.0000 0.0000
# 2 16.1677 115.6397 -2.2649 0.0000 0.0000 0.0000
# 3 40.1375 -2.2649 64.0617 0.0000 0.0000 0.0000
# 4 0.0000 0.0000 0.0000 26.4802 0.0000 0.0000
# 5 0.0000 0.0000 0.0000 0.0000 41.1617 0.0000
# 6 0.0000 0.0000 0.0000 0.0000 0.0000 36.3974
#
#
#
# Elastic Compliance Matrix: (Units=1/GPa)
#
#
# Indices 1 2 3 4 5 6 
#
# 1 0.006667 -0.001015 -0.004213 0.000000 0.000000 0.000000
# 2 -0.001015 0.008808 0.000947 0.000000 0.000000 0.000000
# 3 -0.004213 0.000947 0.018283 0.000000 0.000000 0.000000
# 4 0.000000 0.000000 0.000000 0.037764 0.000000 0.000000
# 5 0.000000 0.000000 0.000000 0.000000 0.024294 0.000000
# 6 0.000000 0.000000 0.000000 0.000000 0.000000 0.027474
#
#
# Mechanical properties :
#
#
# Convention : Reuss Voigt Hill
#
# Bulk Modulus (GPa) = 39.68739 51.73309 45.71024
# Shear Modulus (GPa) = 35.65031 41.03965 38.34498
#
# Velocity S-wave (km/s) = 3.82452 4.10343 3.96642
# Velocity P-wave (km/s) = 5.98213 6.60880 6.30326
#
# Compressibility (1/GPa) = 0.02519692
#
# Stress axis : x y z
#
# Youngs Moduli (GPa) = 149.99130 113.53372 54.69528
#
# Poissons Ratio (x) = 0.11520 0.23044
# Poissons Ratio (y) = 0.15219 -0.05180
# Poissons Ratio (z) = 0.63192 -0.10753
#
# Static dielectric constant tensor:
#      x y z
#    x 1.968790 0.000000 0.000000 
#    y 0.000000 1.333260 0.000000 
#    z 0.000000 0.000000 1.908190 
# 
# From -- ./inp_files/29374.got.cif
#   From: 2010.05.17/outbox.cif.g08.bks.cpg/sg23_15_cif.got.tgz:29374.got - 2010.06.04 12:02:01.
