data_PCOD9331341
_publ_section_title
;
Structure prediction by ZEFSAII (Michael W. Deem and Ramdas Pophale) SiO2 
 PCOD9331341
Probable space group: I 2 2 2
;
_chemical_formula_sum "Si O2"
_cell_formula_units_Z 40
_cell_length_a 16.010851
_cell_length_b 15.014910
_cell_length_c 8.559227
_cell_angle_alpha 90.000000
_cell_angle_beta 90.000000
_cell_angle_gamma 90.000000
_cell_volume 2057.650897
_symmetry_space_group_name_H-M "I 2 2 2"
_symmetry_group_IT_number 23
_symmetry_cell_setting 'orthorhombic'
loop_
_space_group_symop_operation_xyz
x,y,z
-x,-y,z
x,-y,-z
-x,y,-z
1/2+x,1/2+y,1/2+z
1/2-x,1/2-y,1/2+z
1/2+x,1/2-y,1/2-z
1/2-x,1/2+y,1/2-z
loop_
_atom_site_type_symbol
_atom_site_label
_atom_site_fract_x
_atom_site_fract_y
_atom_site_fract_z
Si Si1 0.858297 0.000000 0.500000
Si Si2 0.675336 0.307181 0.955457
Si Si3 0.000000 0.712859 0.500000
Si Si4 0.500000 0.500000 0.253321
Si Si5 0.530959 0.898560 0.319814
Si Si6 0.500000 0.344957 0.500000
Si Si7 0.158839 0.740116 0.113554
O O1 0.810212 0.908259 0.492628
O O2 0.919121 0.008760 0.352786
O O3 0.584311 0.271922 0.009033
O O4 0.672620 0.295317 0.770740
O O5 0.755389 0.256238 0.020388
O O6 0.998037 0.656808 0.663923
O O7 0.508634 0.411397 0.354893
O O8 0.500000 0.884397 0.500000
O O9 0.625651 0.859083 0.337681
O O10 0.500000 0.000000 0.288145
O O11 0.582413 0.286085 0.522044
#
# Coordination Sequence:
#
# PCOD9331341 Si02
#       7
#     4   8   4   4   8   4   8
#     4  11  22  40  64  99 128 166 218 273 328 387
#     4  11  26  42  67  98 132 173 222 271 336 396
#     4  10  23  45  68  92 132 182 216 275 331 398
#     4  10  22  38  72  94 128 168 218 270 338 392
#     4  10  22  40  68  95 126 175 223 270 329 383
#     4  11  22  44  67  94 134 172 215 274 332 393
#     4  11  25  43  66  98 129 178 218 271 332 398
#
# _framework density 19.439644000000001
#
# number of rings (size 3 to 8) (size 9 to 14) (size 15 to 20)
#    0.000    1.400    3.000    1.500    8.400    1.600 
#    0.000    0.000    4.400    0.000    0.000    0.000 
#    0.000    0.000    0.000    0.000    0.000    0.000 
#
# Total GULP energy -111397.772995 kJ/mol
# GULP energy per Si atom -5569.888650 kJ/mol
# Density = 1.939540 g / cm^3
# Si number density = 19.439644 Si / 1000 Ang^3
#
#
#
# Elastic Constant Matrix: (Units=GPa)
#
#
# Indices 1 2 3 4 5 6 
#
# 1 137.0017 52.3298 45.0051 0.0000 0.0000 0.0000
# 2 52.3298 116.9953 39.1152 0.0000 0.0000 0.0000
# 3 45.0051 39.1152 108.8613 0.0000 0.0000 0.0000
# 4 0.0000 0.0000 0.0000 8.7509 0.0000 0.0000
# 5 0.0000 0.0000 0.0000 0.0000 19.2433 0.0000
# 6 0.0000 0.0000 0.0000 0.0000 0.0000 19.7180
#
#
#
# Elastic Compliance Matrix: (Units=1/GPa)
#
#
# Indices 1 2 3 4 5 6 
#
# 1 0.009461 -0.003323 -0.002717 0.000000 0.000000 0.000000
# 2 -0.003323 0.010882 -0.002536 0.000000 0.000000 0.000000
# 3 -0.002717 -0.002536 0.011221 0.000000 0.000000 0.000000
# 4 0.000000 0.000000 0.000000 0.114273 0.000000 0.000000
# 5 0.000000 0.000000 0.000000 0.000000 0.051966 0.000000
# 6 0.000000 0.000000 0.000000 0.000000 0.000000 0.050715
#
#
# Mechanical properties :
#
#
# Convention : Reuss Voigt Hill
#
# Bulk Modulus (GPa) = 69.39529 70.63984 70.01756
# Shear Modulus (GPa) = 18.48601 24.63633 21.56117
#
# Velocity S-wave (km/s) = 3.08708 3.56381 3.33398
# Velocity P-wave (km/s) = 6.96291 7.30419 7.13559
#
# Compressibility (1/GPa) = 0.01441020
#
# Stress axis : x y z
#
# Youngs Moduli (GPa) = 105.69460 91.89758 89.12187
#
# Poissons Ratio (x) = 0.30541 0.24217
# Poissons Ratio (y) = 0.35126 0.22601
# Poissons Ratio (z) = 0.28720 0.23305
#
# Static dielectric constant tensor:
#      x y z
#    x 1.717950 0.000000 0.000000 
#    y 0.000000 1.719400 0.000000 
#    z 0.000000 0.000000 1.680470 
# 
# From -- ./inp_files/9649.got.cif
#   From: 2010.05.17/outbox.cif.g08.bks.cpg/sg23_5_cif.got.tgz:9649.got - 2010.06.04 12:02:01.
