data_PCOD9331403
_publ_section_title
;
Structure prediction by ZEFSAII (Michael W. Deem and Ramdas Pophale) SiO2 
 PCOD9331403
Probable space group: I 2 2 2
;
_chemical_formula_sum "Si O2"
_cell_formula_units_Z 64
_cell_length_a 18.834864
_cell_length_b 10.893989
_cell_length_c 14.581576
_cell_angle_alpha 90.000000
_cell_angle_beta 90.000000
_cell_angle_gamma 90.000000
_cell_volume 2991.946936
_symmetry_space_group_name_H-M "I 2 2 2"
_symmetry_group_IT_number 23
_symmetry_cell_setting 'orthorhombic'
loop_
_space_group_symop_operation_xyz
x,y,z
-x,-y,z
x,-y,-z
-x,y,-z
1/2+x,1/2+y,1/2+z
1/2-x,1/2-y,1/2+z
1/2+x,1/2-y,1/2-z
1/2-x,1/2+y,1/2-z
loop_
_atom_site_type_symbol
_atom_site_label
_atom_site_fract_x
_atom_site_fract_y
_atom_site_fract_z
Si Si1 0.934903 0.739110 0.889932
Si Si2 0.145983 0.685668 0.757178
Si Si3 0.161509 0.035800 0.898182
Si Si4 0.450270 0.386343 0.700619
Si Si5 0.833085 0.641167 0.028026
Si Si6 0.574136 0.065101 0.783573
Si Si7 0.921210 0.645138 0.523591
Si Si8 0.218839 0.300107 0.415887
O O1 0.873020 0.836422 0.867136
O O2 0.935448 0.635794 0.811962
O O3 0.004071 0.824358 0.881018
O O4 0.909193 0.678939 0.984068
O O5 0.075236 0.769085 0.741440
O O6 0.165137 0.672423 0.864415
O O7 0.128555 0.546739 0.727045
O O8 0.205504 0.738887 0.689264
O O9 0.244198 0.065476 0.906778
O O10 0.125544 0.938158 0.832339
O O11 0.136196 0.000000 0.000000
O O12 0.500000 0.500000 0.734573
O O13 0.821857 0.500000 0.000000
O O14 0.772135 0.719632 0.977240
O O15 0.592690 0.153721 0.867646
O O16 0.500000 0.000000 0.807896
O O17 0.920953 0.500000 0.500000
O O18 0.857085 0.699699 0.465086
O O19 0.000000 0.693029 0.500000
#
# Coordination Sequence:
#
# PCOD9331403 Si02
#       8
#     8   8   8   8   8   8   8   8
#     4  10  22  40  64  96 133 178 218 277 338 412
#     4  12  24  40  69  98 131 185 226 282 348 424
#     4  10  22  41  62  92 133 177 222 270 332 407
#     4  10  22  40  65  97 136 173 225 276 337 409
#     4  11  25  45  64 100 143 181 227 281 356 426
#     4  12  21  39  67 101 138 171 228 286 356 410
#     4  11  21  39  69  99 126 170 234 303 339 395
#     4  11  25  43  69  96 135 180 237 285 347 419
#
# _framework density 21.390754999999999
#
# number of rings (size 3 to 8) (size 9 to 14) (size 15 to 20)
#    0.000    1.125    5.000    1.875    0.000    7.750 
#    0.000    2.500    0.000    0.000    0.000    0.000 
#    0.000    0.000    0.000    0.000    0.000    0.000 
#
# Total GULP energy -178464.666020 kJ/mol
# GULP energy per Si atom -5577.020813 kJ/mol
# Density = 2.134207 g / cm^3
# Si number density = 21.390755 Si / 1000 Ang^3
#
#
#
# Elastic Constant Matrix: (Units=GPa)
#
#
# Indices 1 2 3 4 5 6 
#
# 1 105.7150 33.1903 36.5087 0.0000 0.0000 0.0000
# 2 33.1903 74.0748 20.9871 0.0000 0.0000 0.0000
# 3 36.5087 20.9871 131.7768 0.0000 0.0000 0.0000
# 4 0.0000 0.0000 0.0000 15.0436 0.0000 0.0000
# 5 0.0000 0.0000 0.0000 0.0000 33.6246 0.0000
# 6 0.0000 0.0000 0.0000 0.0000 0.0000 27.9310
#
#
#
# Elastic Compliance Matrix: (Units=1/GPa)
#
#
# Indices 1 2 3 4 5 6 
#
# 1 0.011764 -0.004553 -0.002534 0.000000 0.000000 0.000000
# 2 -0.004553 0.015900 -0.001271 0.000000 0.000000 0.000000
# 3 -0.002534 -0.001271 0.008493 0.000000 0.000000 0.000000
# 4 0.000000 0.000000 0.000000 0.066474 0.000000 0.000000
# 5 0.000000 0.000000 0.000000 0.000000 0.029740 0.000000
# 6 0.000000 0.000000 0.000000 0.000000 0.000000 0.035802
#
#
# Mechanical properties :
#
#
# Convention : Reuss Voigt Hill
#
# Bulk Modulus (GPa) = 51.43751 54.77098 53.10425
# Shear Modulus (GPa) = 26.12746 30.04522 28.08634
#
# Velocity S-wave (km/s) = 3.49870 3.75185 3.62748
# Velocity P-wave (km/s) = 6.35767 6.66551 6.51341
#
# Compressibility (1/GPa) = 0.01944106
#
# Stress axis : x y z
#
# Youngs Moduli (GPa) = 85.00487 62.89306 117.74328
#
# Poissons Ratio (x) = 0.28636 0.29837
# Poissons Ratio (y) = 0.38703 0.14963
# Poissons Ratio (z) = 0.21541 0.07993
#
# Static dielectric constant tensor:
#      x y z
#    x 1.832940 0.000000 0.000000 
#    y 0.000000 1.801850 0.000000 
#    z 0.000000 0.000000 1.806690 
# 
# From -- ./inp_files/22173.got.cif
#   From: 2010.05.17/outbox.cif.g08.bks.cpg/sg23_12_cif.got.tgz:22173.got - 2010.06.04 12:02:01.
