data_PCOD9331554
_publ_section_title
;
Structure prediction by ZEFSAII (Michael W. Deem and Ramdas Pophale) SiO2 
 PCOD9331554
Probable space group: I 2 2 2
;
_chemical_formula_sum "Si O2"
_cell_formula_units_Z 32
_cell_length_a 9.190536
_cell_length_b 12.026660
_cell_length_c 11.847083
_cell_angle_alpha 90.000000
_cell_angle_beta 90.000000
_cell_angle_gamma 90.000000
_cell_volume 1309.475282
_symmetry_space_group_name_H-M "I 2 2 2"
_symmetry_group_IT_number 23
_symmetry_cell_setting 'orthorhombic'
loop_
_space_group_symop_operation_xyz
x,y,z
-x,-y,z
x,-y,-z
-x,y,-z
1/2+x,1/2+y,1/2+z
1/2-x,1/2-y,1/2+z
1/2+x,1/2-y,1/2-z
1/2-x,1/2+y,1/2-z
loop_
_atom_site_type_symbol
_atom_site_label
_atom_site_fract_x
_atom_site_fract_y
_atom_site_fract_z
Si Si1 0.484379 0.715059 0.876382
Si Si2 0.821361 0.703268 0.830578
Si Si3 0.000000 0.000000 0.279361
Si Si4 0.241756 0.051607 0.878540
Si Si5 0.500000 0.000000 0.709106
O O1 0.648961 0.692898 0.837733
O O2 0.379688 0.782535 0.796534
O O3 0.426918 0.589734 0.862741
O O4 0.500000 0.762053 0.000000
O O5 0.836362 0.826265 0.887093
O O6 0.915346 0.594754 0.863793
O O7 0.872137 0.976020 0.189313
O O8 0.381042 0.056022 0.794535
O O9 0.275739 0.000000 0.000000
#
# Coordination Sequence:
#
# PCOD9331554 Si02
#       5
#     8   8   4   8   4
#     4  11  24  44  72 104 155 213 262 329 409 476
#     4  11  25  44  72 116 156 211 272 337 395 492
#     4  10  22  44  66  98 146 198 264 318 386 474
#     4  11  24  42  74 112 154 211 265 334 404 476
#     4  12  23  44  74 111 166 206 259 346 399 478
#
# _framework density 24.437269000000001
#
# number of rings (size 3 to 8) (size 9 to 14) (size 15 to 20)
#    0.000    1.000    5.000    1.125    3.500    0.000 
#    0.000    1.250    0.000    6.000    0.000    0.000 
#    0.000    0.000    0.000    0.000    0.000    0.000 
#
# Total GULP energy -89128.397109 kJ/mol
# GULP energy per Si atom -5570.524819 kJ/mol
# Density = 2.438165 g / cm^3
# Si number density = 24.437269 Si / 1000 Ang^3
#
#
#
# Elastic Constant Matrix: (Units=GPa)
#
#
# Indices 1 2 3 4 5 6 
#
# 1 144.1703 17.8282 42.1463 0.0000 0.0000 0.0000
# 2 17.8282 127.0452 16.6128 0.0000 0.0000 0.0000
# 3 42.1463 16.6128 70.6814 0.0000 0.0000 0.0000
# 4 0.0000 0.0000 0.0000 0.6039 0.0000 0.0000
# 5 0.0000 0.0000 0.0000 0.0000 12.9469 0.0000
# 6 0.0000 0.0000 0.0000 0.0000 0.0000 38.6132
#
#
#
# Elastic Compliance Matrix: (Units=1/GPa)
#
#
# Indices 1 2 3 4 5 6 
#
# 1 0.008437 -0.000543 -0.004903 0.000000 0.000000 0.000000
# 2 -0.000543 0.008156 -0.001593 0.000000 0.000000 0.000000
# 3 -0.004903 -0.001593 0.017446 0.000000 0.000000 0.000000
# 4 0.000000 0.000000 0.000000 1.655961 0.000000 0.000000
# 5 0.000000 0.000000 0.000000 0.000000 0.077238 0.000000
# 6 0.000000 0.000000 0.000000 0.000000 0.000000 0.025898
#
#
# Mechanical properties :
#
#
# Convention : Reuss Voigt Hill
#
# Bulk Modulus (GPa) = 50.09951 55.00794 52.55372
# Shear Modulus (GPa) = 2.75654 28.12011 15.43832
#
# Velocity S-wave (km/s) = 1.06323 3.39589 2.51620
# Velocity P-wave (km/s) = 4.69607 6.15912 5.47667
#
# Compressibility (1/GPa) = 0.01996028
#
# Stress axis : x y z
#
# Youngs Moduli (GPa) = 118.52947 122.61330 57.31932
#
# Poissons Ratio (x) = 0.06655 0.28104
# Poissons Ratio (y) = 0.06434 0.09132
# Poissons Ratio (z) = 0.58116 0.19535
#
# Static dielectric constant tensor:
#      x y z
#    x 1.987110 0.000000 0.000000 
#    y 0.000000 2.364600 0.000000 
#    z 0.000000 0.000000 1.937960 
# 
# From -- ./inp_files/14321.got.cif
#   From: 2010.05.17/outbox.cif.g08.bks.cpg/sg23_8_cif.got.tgz:14321.got - 2010.06.04 12:02:01.
