data_PCOD9331629
_publ_section_title
;
Structure prediction by ZEFSAII (Michael W. Deem and Ramdas Pophale) SiO2 
 PCOD9331629
Probable space group: I 2 2 2
;
_chemical_formula_sum "Si O2"
_cell_formula_units_Z 56
_cell_length_a 9.580014
_cell_length_b 18.151757
_cell_length_c 14.204445
_cell_angle_alpha 90.000000
_cell_angle_beta 90.000000
_cell_angle_gamma 90.000000
_cell_volume 2470.068983
_symmetry_space_group_name_H-M "I 2 2 2"
_symmetry_group_IT_number 23
_symmetry_cell_setting 'orthorhombic'
loop_
_space_group_symop_operation_xyz
x,y,z
-x,-y,z
x,-y,-z
-x,y,-z
1/2+x,1/2+y,1/2+z
1/2-x,1/2-y,1/2+z
1/2+x,1/2-y,1/2-z
1/2-x,1/2+y,1/2-z
loop_
_atom_site_type_symbol
_atom_site_label
_atom_site_fract_x
_atom_site_fract_y
_atom_site_fract_z
Si Si1 0.754582 0.420634 0.551679
Si Si2 0.000000 0.679079 0.500000
Si Si3 0.494709 0.873202 0.613337
Si Si4 0.353469 0.030576 0.759253
Si Si5 0.000000 0.161615 0.000000
Si Si6 0.681155 0.749550 0.642917
Si Si7 0.209148 0.883924 0.717409
Si Si8 0.469784 0.678813 0.898006
O O1 0.755343 0.500000 0.500000
O O2 0.864345 0.371281 0.492280
O O3 0.807077 0.415859 0.658758
O O4 0.597642 0.391191 0.559842
O O5 0.974137 0.737209 0.414825
O O6 0.500000 0.870371 0.500000
O O7 0.596232 0.935499 0.659428
O O8 0.551163 0.801368 0.669120
O O9 0.333021 0.880101 0.640665
O O10 0.500000 0.000000 0.797987
O O11 0.239307 0.965371 0.756706
O O12 0.113242 0.211166 0.052125
O O13 0.727216 0.683872 0.710577
O O14 0.808470 0.804931 0.622132
O O15 0.056615 0.867966 0.675791
O O16 0.500000 0.643559 0.000000
#
# Coordination Sequence:
#
# PCOD9331629 Si02
#       8
#     8   4   8   8   4   8   8   8
#     4  12  24  42  70 106 151 199 243 306 387 474
#     4  10  23  38  72  98 139 188 240 298 364 439
#     4  11  25  46  74 105 145 197 259 311 379 452
#     4  10  25  43  70 106 146 196 252 305 377 460
#     4  12  25  44  68 106 149 188 246 310 390 457
#     4  12  24  43  70 106 139 188 242 312 379 439
#     4  11  25  44  70 102 145 185 245 306 367 454
#     4  10  23  42  66  99 134 180 238 301 362 419
#
# _framework density 22.671430999999998
#
# number of rings (size 3 to 8) (size 9 to 14) (size 15 to 20)
#    0.429    0.571    2.143    3.857    8.000    3.714 
#    0.000    2.143    0.000    0.857    0.000    0.000 
#    0.000    0.000    0.000    0.000    0.000    0.000 
#
# Total GULP energy -156052.311496 kJ/mol
# GULP energy per Si atom -5573.296839 kJ/mol
# Density = 2.261983 g / cm^3
# Si number density = 22.671431 Si / 1000 Ang^3
#
#
#
# Elastic Constant Matrix: (Units=GPa)
#
#
# Indices 1 2 3 4 5 6 
#
# 1 105.4842 18.3500 22.1981 0.0000 0.0000 0.0002
# 2 18.3500 68.6825 4.9356 0.0000 0.0000 0.0000
# 3 22.1981 4.9356 86.6313 0.0000 0.0000 0.0002
# 4 0.0000 0.0000 0.0000 -4.8979 0.0000 -0.0001
# 5 0.0000 0.0000 0.0000 0.0000 -44.7257 -0.0002
# 6 0.0002 0.0000 0.0002 -0.0001 -0.0002-1017.6568
#
#
#
# Elastic Compliance Matrix: (Units=1/GPa)
#
#
# Indices 1 2 3 4 5 6 
#
# 1 0.010468 -0.002615 -0.002533 0.000000 0.000000 0.000000
# 2 -0.002615 0.015273 -0.000200 0.000000 0.000000 0.000000
# 3 -0.002533 -0.000200 0.012204 0.000000 0.000000 0.000000
# 4 0.000000 0.000000 0.000000 -0.204167 0.000000 0.000000
# 5 0.000000 0.000000 0.000000 0.000000 -0.022359 0.000000
# 6 0.000000 0.000000 0.000000 0.000000 0.000000 -0.000983
#
#
# Mechanical properties :
#
#
# Convention : Reuss Voigt Hill
#
# Bulk Modulus (GPa) = 36.69980 39.08504 37.89242
# Shear Modulus (GPa) = -29.44903 -199.10180 -114.27542
#
# Velocity S-wave (km/s) = -3.60800 -9.38143 -7.10735
# Velocity P-wave (km/s) = 1.06494 10.00355 7.11355
#
# Compressibility (1/GPa) = 0.02724810
#
# Stress axis : x y z
#
# Youngs Moduli (GPa) = 95.52865 65.47631 81.94230
#
# Poissons Ratio (x) = 0.17120 0.20759
# Poissons Ratio (y) = 0.24978 0.01640
# Poissons Ratio (z) = 0.24201 0.01310
#
# Static dielectric constant tensor:
#      x y z
#    x 1.923800 0.000000 0.000000 
#    y 0.000000 1.931550 0.000000 
#    z 0.000000 0.000000 2.172700 
# 
# From -- ./inp_files/20244.got.cif
#   From: 2010.05.17/outbox.cif.g08.bks.cpg/sg23_11_cif.got.tgz:20244.got - 2010.06.04 12:02:01.
