data_PCOD9331690
_publ_section_title
;
Structure prediction by ZEFSAII (Michael W. Deem and Ramdas Pophale) SiO2 
 PCOD9331690
Probable space group: I 2 2 2
;
_chemical_formula_sum "Si O2"
_cell_formula_units_Z 36
_cell_length_a 7.475047
_cell_length_b 10.191034
_cell_length_c 21.727055
_cell_angle_alpha 90.000000
_cell_angle_beta 90.000000
_cell_angle_gamma 90.000000
_cell_volume 1655.133550
_symmetry_space_group_name_H-M "I 2 2 2"
_symmetry_group_IT_number 23
_symmetry_cell_setting 'orthorhombic'
loop_
_space_group_symop_operation_xyz
x,y,z
-x,-y,z
x,-y,-z
-x,y,-z
1/2+x,1/2+y,1/2+z
1/2-x,1/2-y,1/2+z
1/2+x,1/2-y,1/2-z
1/2-x,1/2+y,1/2-z
loop_
_atom_site_type_symbol
_atom_site_label
_atom_site_fract_x
_atom_site_fract_y
_atom_site_fract_z
Si Si1 0.872777 0.809361 0.372663
Si Si2 0.345195 0.891358 0.235072
Si Si3 0.500000 0.500000 0.332215
Si Si4 0.737420 0.892581 0.625035
Si Si5 0.527234 0.286827 0.568808
O O1 0.877496 0.736271 0.306917
O O2 0.787030 0.954121 0.369670
O O3 0.736391 0.730047 0.415637
O O4 0.076937 0.822969 0.393532
O O5 0.162732 0.954859 0.210067
O O6 0.324995 0.855123 0.306240
O O7 0.500000 0.000000 0.228192
O O8 0.450100 0.616351 0.379257
O O9 0.582709 0.847928 0.578931
O O10 0.500000 0.334186 0.500000
#
# Coordination Sequence:
#
# PCOD9331690 Si02
#       5
#     8   8   4   8   8
#     4  10  24  40  60  94 126 168 216 274 336 391
#     4  11  23  38  65  94 130 168 217 276 340 405
#     4  10  23  42  66  96 130 175 220 284 330 392
#     4  11  24  39  62  93 131 170 215 275 337 402
#     4  11  24  43  66  93 130 178 227 270 331 404
#
# _framework density 21.750510999999999
#
# number of rings (size 3 to 8) (size 9 to 14) (size 15 to 20)
#    0.000    1.333    0.000    5.000   12.444    2.667 
#    0.000    2.222    0.000    4.000    0.000    0.000 
#    0.000    0.000    0.000    0.000    0.000    0.000 
#
# Total GULP energy -100702.954190 kJ/mol
# GULP energy per Si atom -5594.608566 kJ/mol
# Density = 2.170101 g / cm^3
# Si number density = 21.750511 Si / 1000 Ang^3
#
#
#
# Elastic Constant Matrix: (Units=GPa)
#
#
# Indices 1 2 3 4 5 6 
#
# 1 89.0654 15.0691 12.0788 0.0000 0.0000 0.0000
# 2 15.0691 65.0805 2.4564 0.0000 0.0000 0.0000
# 3 12.0788 2.4564 80.0916 0.0000 0.0000 0.0000
# 4 0.0000 0.0000 0.0000 -9.3937 0.0000 0.0000
# 5 0.0000 0.0000 0.0000 0.0000 17.6261 0.0000
# 6 0.0000 0.0000 0.0000 0.0000 0.0000 17.8663
#
#
#
# Elastic Compliance Matrix: (Units=1/GPa)
#
#
# Indices 1 2 3 4 5 6 
#
# 1 0.011916 -0.002694 -0.001714 0.000000 0.000000 0.000000
# 2 -0.002694 0.015993 -0.000084 0.000000 0.000000 0.000000
# 3 -0.001714 -0.000084 0.012747 0.000000 0.000000 0.000000
# 4 0.000000 0.000000 0.000000 -0.106455 0.000000 0.000000
# 5 0.000000 0.000000 0.000000 0.000000 0.056734 0.000000
# 6 0.000000 0.000000 0.000000 0.000000 0.000000 0.055971
#
#
# Mechanical properties :
#
#
# Convention : Reuss Voigt Hill
#
# Bulk Modulus (GPa) = 31.57607 32.60513 32.09060
# Shear Modulus (GPa) = 75.24590 18.86196 47.05393
#
# Velocity S-wave (km/s) = 5.88813 2.94801 4.65623
# Velocity P-wave (km/s) = 7.79588 5.15856 6.61009
#
# Compressibility (1/GPa) = 0.03166955
#
# Stress axis : x y z
#
# Youngs Moduli (GPa) = 83.92017 62.52873 78.45081
#
# Poissons Ratio (x) = 0.16848 0.13450
# Poissons Ratio (y) = 0.22612 0.00660
# Poissons Ratio (z) = 0.14388 0.00526
#
# Static dielectric constant tensor:
#      x y z
#    x 1.775200 0.000000 0.000000 
#    y 0.000000 1.865700 0.000000 
#    z 0.000000 0.000000 1.724540 
# 
# From -- ./inp_files/27574.got.cif
#   From: 2010.05.17/outbox.cif.g08.bks.cpg/sg23_14_cif.got.tgz:27574.got - 2010.06.04 12:02:01.
