data_PCOD9331255
_publ_section_title
;
Structure prediction by ZEFSAII (Michael W. Deem and Ramdas Pophale) SiO2 
 PCOD9331255
Probable space group: I 2 2 2
;
_chemical_formula_sum "Si O2"
_cell_formula_units_Z 46
_cell_length_a 15.833145
_cell_length_b 16.543038
_cell_length_c 8.001977
_cell_angle_alpha 90.000000
_cell_angle_beta 90.000000
_cell_angle_gamma 90.000000
_cell_volume 2095.944387
_symmetry_space_group_name_H-M "I 2 2 2"
_symmetry_group_IT_number 23
_symmetry_cell_setting 'orthorhombic'
loop_
_space_group_symop_operation_xyz
x,y,z
-x,-y,z
x,-y,-z
-x,y,-z
1/2+x,1/2+y,1/2+z
1/2-x,1/2-y,1/2+z
1/2+x,1/2-y,1/2-z
1/2-x,1/2+y,1/2-z
loop_
_atom_site_type_symbol
_atom_site_label
_atom_site_fract_x
_atom_site_fract_y
_atom_site_fract_z
Si Si1 0.165277 0.727629 0.281588
Si Si2 0.500000 0.500000 0.000000
Si Si3 0.709044 0.000000 0.500000
Si Si4 0.984594 0.258990 0.811396
Si Si5 0.057066 0.076968 0.198837
Si Si6 0.317214 0.822594 0.403179
Si Si7 0.244051 0.937277 0.861062
O O1 0.222011 0.803375 0.341216
O O2 0.206930 0.647028 0.357570
O O3 0.064303 0.722581 0.305849
O O4 0.176058 0.722940 0.080806
O O5 0.561255 0.440861 0.103143
O O6 0.664656 0.916490 0.557500
O O7 0.752696 0.973829 0.326187
O O8 0.985879 0.162389 0.822432
O O9 0.888660 0.287756 0.777321
O O10 0.000000 0.292293 0.000000
O O11 0.145555 0.078984 0.107264
O O12 0.000000 0.000000 0.156998
O O13 0.275834 0.000000 0.000000
#
# Coordination Sequence:
#
# PCOD9331255 Si02
#       7
#     8   2   4   8   8   8   8
#     4  10  23  41  65  97 133 175 225 280 344 409
#     4   8  22  36  50  90 140 170 216 282 338 430
#     4  10  25  42  68  95 132 180 222 283 341 390
#     4  10  22  40  64  93 129 177 227 279 340 416
#     4  10  22  34  58  93 134 175 216 278 347 410
#     4  10  22  43  66  97 133 177 231 282 346 409
#     4  11  24  41  67  98 131 177 225 280 342 409
#
# _framework density 21.947146
#
# number of rings (size 3 to 8) (size 9 to 14) (size 15 to 20)
#    0.522    1.391    1.739    0.522    7.304    1.391 
#    0.000   10.870    0.000    1.043    0.000    0.000 
#    0.000    0.000    0.000    0.000    0.000    0.000 
#
# Total GULP energy -128118.829150 kJ/mol
# GULP energy per Si atom -5570.383876 kJ/mol
# Density = 2.189719 g / cm^3
# Si number density = 21.947146 Si / 1000 Ang^3
#
#
#
# Elastic Constant Matrix: (Units=GPa)
#
#
# Indices 1 2 3 4 5 6 
#
# 1 120.2848 51.8226 19.4747 0.0000 0.0000 0.0000
# 2 51.8226 120.1621 21.6806 0.0000 0.0000 0.0000
# 3 19.4747 21.6806 44.2503 0.0000 0.0000 0.0000
# 4 0.0000 0.0000 0.0000 63.1880 0.0000 0.0000
# 5 0.0000 0.0000 0.0000 0.0000 5.9481 0.0000
# 6 0.0000 0.0000 0.0000 0.0000 0.0000 20.8906
#
#
#
# Elastic Compliance Matrix: (Units=1/GPa)
#
#
# Indices 1 2 3 4 5 6 
#
# 1 0.010483 -0.004046 -0.002631 0.000000 0.000000 0.000000
# 2 -0.004046 0.010691 -0.003457 0.000000 0.000000 0.000000
# 3 -0.002631 -0.003457 0.025451 0.000000 0.000000 0.000000
# 4 0.000000 0.000000 0.000000 0.015826 0.000000 0.000000
# 5 0.000000 0.000000 0.000000 0.000000 0.168121 0.000000
# 6 0.000000 0.000000 0.000000 0.000000 0.000000 0.047868
#
#
# Mechanical properties :
#
#
# Convention : Reuss Voigt Hill
#
# Bulk Modulus (GPa) = 37.94324 52.29476 45.11900
# Shear Modulus (GPa) = 16.26047 30.78663 23.52355
#
# Velocity S-wave (km/s) = 2.72489 3.74941 3.27743
# Velocity P-wave (km/s) = 5.21785 6.52866 5.90971
#
# Compressibility (1/GPa) = 0.02635516
#
# Stress axis : x y z
#
# Youngs Moduli (GPa) = 95.39403 93.53741 39.29185
#
# Poissons Ratio (x) = 0.37847 0.10338
# Poissons Ratio (y) = 0.38599 0.13584
# Poissons Ratio (z) = 0.25099 0.32339
#
# Static dielectric constant tensor:
#      x y z
#    x 1.856820 0.000000 0.000000 
#    y 0.000000 1.806800 0.000000 
#    z 0.000000 0.000000 2.025180 
# 
# From -- ./inp_files/11017.got.cif
#   From: 2010.05.17/outbox.cif.g08.bks.cpg/sg23_6_cif.got.tgz:11017.got - 2010.06.04 12:02:01.
