data_PCOD9331740
_publ_section_title
;
Structure prediction by ZEFSAII (Michael W. Deem and Ramdas Pophale) SiO2 
 PCOD9331740
Probable space group: I 2 2 2
;
_chemical_formula_sum "Si O2"
_cell_formula_units_Z 50
_cell_length_a 9.887475
_cell_length_b 7.461127
_cell_length_c 29.255756
_cell_angle_alpha 90.000000
_cell_angle_beta 90.000000
_cell_angle_gamma 90.000000
_cell_volume 2158.247050
_symmetry_space_group_name_H-M "I 2 2 2"
_symmetry_group_IT_number 23
_symmetry_cell_setting 'orthorhombic'
loop_
_space_group_symop_operation_xyz
x,y,z
-x,-y,z
x,-y,-z
-x,y,-z
1/2+x,1/2+y,1/2+z
1/2-x,1/2-y,1/2+z
1/2+x,1/2-y,1/2-z
1/2-x,1/2+y,1/2-z
loop_
_atom_site_type_symbol
_atom_site_label
_atom_site_fract_x
_atom_site_fract_y
_atom_site_fract_z
Si Si1 0.955917 0.708535 0.354036
Si Si2 0.502366 0.784970 0.353088
Si Si3 0.608470 0.337996 0.554046
Si Si4 0.236859 0.216723 0.684637
Si Si5 0.080077 0.685373 0.543552
Si Si6 0.783293 0.316787 0.213135
Si Si7 0.000000 0.500000 0.000000
O O1 0.925060 0.772699 0.405808
O O2 0.836510 0.731328 0.317124
O O3 0.000000 0.500000 0.354844
O O4 0.090215 0.804051 0.336385
O O5 0.591551 0.695353 0.392107
O O6 0.348853 0.714234 0.350919
O O7 0.573531 0.742439 0.304705
O O8 0.500000 0.000000 0.362382
O O9 0.500000 0.500000 0.544900
O O10 0.762178 0.365978 0.538074
O O11 0.575475 0.144145 0.531741
O O12 0.232466 0.316646 0.732774
O O13 0.287132 0.021815 0.698427
O O14 0.000000 0.500000 0.548449
O O15 0.000000 0.773312 0.500000
#
# Coordination Sequence:
#
# PCOD9331740 Si02
#       7
#     8   8   8   8   8   8   2
#     4  11  23  41  65  97 141 186 231 294 351 429
#     4  10  23  44  67 100 145 185 242 305 365 438
#     4  12  27  49  82 109 148 202 243 313 376 446
#     4  11  24  38  70  98 142 186 236 301 361 436
#     4  10  25  47  74 108 148 186 250 302 363 453
#     4  11  22  43  64 102 140 187 238 297 367 431
#     4  12  30  48  78 118 152 180 268 304 376 446
#
# _framework density 23.16695
#
# number of rings (size 3 to 8) (size 9 to 14) (size 15 to 20)
#    0.000    1.120    2.400    2.640    8.960    2.560 
#    0.000    0.400    0.000    0.000    0.000    0.000 
#    0.000    0.000    0.000    0.000    0.000    0.000 
#
# Total GULP energy -139510.715948 kJ/mol
# GULP energy per Si atom -5580.428638 kJ/mol
# Density = 2.311422 g / cm^3
# Si number density = 23.166950 Si / 1000 Ang^3
#
#
#
# Elastic Constant Matrix: (Units=GPa)
#
#
# Indices 1 2 3 4 5 6 
#
# 1 174.5125 23.2072 45.9962 0.0000 0.0000 0.0000
# 2 23.2072 68.5785 5.1118 0.0000 0.0000 0.0000
# 3 45.9962 5.1118 124.4273 0.0000 0.0000 0.0000
# 4 0.0000 0.0000 0.0000 40.7393 0.0000 0.0000
# 5 0.0000 0.0000 0.0000 0.0000 43.3696 0.0000
# 6 0.0000 0.0000 0.0000 0.0000 0.0000 23.7743
#
#
#
# Elastic Compliance Matrix: (Units=1/GPa)
#
#
# Indices 1 2 3 4 5 6 
#
# 1 0.006629 -0.002067 -0.002365 0.000000 0.000000 0.000000
# 2 -0.002067 0.015271 0.000137 0.000000 0.000000 0.000000
# 3 -0.002365 0.000137 0.008906 0.000000 0.000000 0.000000
# 4 0.000000 0.000000 0.000000 0.024546 0.000000 0.000000
# 5 0.000000 0.000000 0.000000 0.000000 0.023058 0.000000
# 6 0.000000 0.000000 0.000000 0.000000 0.000000 0.042062
#
#
# Mechanical properties :
#
#
# Convention : Reuss Voigt Hill
#
# Bulk Modulus (GPa) = 45.01654 57.34986 51.18320
# Shear Modulus (GPa) = 36.63884 41.12352 38.88118
#
# Velocity S-wave (km/s) = 3.98114 4.21776 4.10116
# Velocity P-wave (km/s) = 6.37230 6.96621 6.67586
#
# Compressibility (1/GPa) = 0.02221406
#
# Stress axis : x y z
#
# Youngs Moduli (GPa) = 150.86248 65.48336 112.28871
#
# Poissons Ratio (x) = 0.13534 0.26561
# Poissons Ratio (y) = 0.31180 -0.01534
# Poissons Ratio (z) = 0.35685 -0.00895
#
# Static dielectric constant tensor:
#      x y z
#    x 1.928140 0.000000 0.000000 
#    y 0.000000 1.943790 0.000000 
#    z 0.000000 0.000000 2.005430 
# 
# From -- ./inp_files/30266.got.cif
#   From: 2010.05.17/outbox.cif.g08.bks.cpg/sg23_16_cif.got.tgz:30266.got - 2010.06.04 12:02:01.
