data_PCOD9331414
_publ_section_title
;
Structure prediction by ZEFSAII (Michael W. Deem and Ramdas Pophale) SiO2 
 PCOD9331414
Probable space group: I 2 2 2
;
_chemical_formula_sum "Si O2"
_cell_formula_units_Z 36
_cell_length_a 10.652531
_cell_length_b 7.199717
_cell_length_c 18.072351
_cell_angle_alpha 90.000000
_cell_angle_beta 90.000000
_cell_angle_gamma 90.000000
_cell_volume 1386.062729
_symmetry_space_group_name_H-M "I 2 2 2"
_symmetry_group_IT_number 23
_symmetry_cell_setting 'orthorhombic'
loop_
_space_group_symop_operation_xyz
x,y,z
-x,-y,z
x,-y,-z
-x,y,-z
1/2+x,1/2+y,1/2+z
1/2-x,1/2-y,1/2+z
1/2+x,1/2-y,1/2-z
1/2-x,1/2+y,1/2-z
loop_
_atom_site_type_symbol
_atom_site_label
_atom_site_fract_x
_atom_site_fract_y
_atom_site_fract_z
Si Si1 0.190485 0.415689 0.581617
Si Si2 0.460041 0.799944 0.800017
Si Si3 0.218279 0.236164 0.823964
Si Si4 0.000000 0.000000 0.798805
Si Si5 0.645480 0.063306 0.417403
O O1 0.181543 0.500000 0.500000
O O2 0.071621 0.299411 0.613392
O O3 0.188233 0.588993 0.639837
O O4 0.309701 0.276596 0.587800
O O5 0.324651 0.754007 0.760965
O O6 0.552924 0.651066 0.761398
O O7 0.500000 0.000000 0.769895
O O8 0.222206 0.433750 0.861564
O O9 0.089872 0.124145 0.847822
O O10 0.500000 0.000000 0.407261
O O11 0.679066 0.000000 0.500000
#
# Coordination Sequence:
#
# PCOD9331414 Si02
#       5
#     8   8   8   4   8
#     4  12  26  44  67 105 141 180 231 290 354 424
#     4  10  25  43  70  95 136 182 236 288 347 404
#     4  10  22  40  65  99 131 173 231 284 342 413
#     4   8  22  42  67 101 122 184 236 284 348 404
#     4  11  23  41  63  95 141 183 217 275 352 424
#
# _framework density 25.972850000000001
#
# number of rings (size 3 to 8) (size 9 to 14) (size 15 to 20)
#    1.333    0.222    2.222    2.000    6.222    2.222 
#    0.000    0.000    0.000    0.000    0.000    0.000 
#    0.000    0.000    0.000    0.000    0.000    0.000 
#
# Total GULP energy -100282.561452 kJ/mol
# GULP energy per Si atom -5571.253414 kJ/mol
# Density = 2.591373 g / cm^3
# Si number density = 25.972850 Si / 1000 Ang^3
#
#
#
# Elastic Constant Matrix: (Units=GPa)
#
#
# Indices 1 2 3 4 5 6 
#
# 1 84.8561 12.9453 26.5062 0.0000 0.0000 0.0000
# 2 12.9453 176.5186 49.6742 0.0000 0.0000 0.0000
# 3 26.5062 49.6742 103.3029 0.0000 0.0000 0.0000
# 4 0.0000 0.0000 0.0000 49.3722 0.0000 0.0000
# 5 0.0000 0.0000 0.0000 0.0000 21.3079 0.0000
# 6 0.0000 0.0000 0.0000 0.0000 0.0000 14.7660
#
#
#
# Elastic Compliance Matrix: (Units=1/GPa)
#
#
# Indices 1 2 3 4 5 6 
#
# 1 0.012812 -0.000017 -0.003279 0.000000 0.000000 0.000000
# 2 -0.000017 0.006552 -0.003146 0.000000 0.000000 0.000000
# 3 -0.003279 -0.003146 0.012035 0.000000 0.000000 0.000000
# 4 0.000000 0.000000 0.000000 0.020254 0.000000 0.000000
# 5 0.000000 0.000000 0.000000 0.000000 0.046931 0.000000
# 6 0.000000 0.000000 0.000000 0.000000 0.000000 0.067723
#
#
# Mechanical properties :
#
#
# Convention : Reuss Voigt Hill
#
# Bulk Modulus (GPa) = 54.01456 60.32546 57.17001
# Shear Modulus (GPa) = 26.97428 35.45934 31.21681
#
# Velocity S-wave (km/s) = 3.22616 3.69893 3.47061
# Velocity P-wave (km/s) = 5.89230 6.44357 6.17409
#
# Compressibility (1/GPa) = 0.01851353
#
# Stress axis : x y z
#
# Youngs Moduli (GPa) = 78.05465 152.63172 83.09415
#
# Poissons Ratio (x) = 0.00256 0.27248
# Poissons Ratio (y) = 0.00131 0.26143
# Poissons Ratio (z) = 0.25596 0.48020
#
# Static dielectric constant tensor:
#      x y z
#    x 2.389330 0.000000 0.000000 
#    y 0.000000 2.107060 0.000000 
#    z 0.000000 0.000000 1.962970 
# 
# From -- ./inp_files/28459.got.cif
#   From: 2010.05.17/outbox.cif.g08.bks.cpg/sg23_15_cif.got.tgz:28459.got - 2010.06.04 12:02:01.
