data_PCOD9331879
_publ_section_title
;
Structure prediction by ZEFSAII (Michael W. Deem and Ramdas Pophale) SiO2 
 PCOD9331879
Probable space group: I 2 2 2
;
_chemical_formula_sum "Si O2"
_cell_formula_units_Z 46
_cell_length_a 7.670766
_cell_length_b 15.244384
_cell_length_c 19.477811
_cell_angle_alpha 90.000000
_cell_angle_beta 90.000000
_cell_angle_gamma 90.000000
_cell_volume 2277.659303
_symmetry_space_group_name_H-M "I 2 2 2"
_symmetry_group_IT_number 23
_symmetry_cell_setting 'orthorhombic'
loop_
_space_group_symop_operation_xyz
x,y,z
-x,-y,z
x,-y,-z
-x,y,-z
1/2+x,1/2+y,1/2+z
1/2-x,1/2-y,1/2+z
1/2+x,1/2-y,1/2-z
1/2-x,1/2+y,1/2-z
loop_
_atom_site_type_symbol
_atom_site_label
_atom_site_fract_x
_atom_site_fract_y
_atom_site_fract_z
Si Si1 0.743408 0.824068 0.797525
Si Si2 0.000000 0.500000 0.500000
Si Si3 0.363254 0.653769 0.283315
Si Si4 0.309362 0.455212 0.933302
Si Si5 0.801654 0.491616 0.786308
Si Si6 0.000000 0.201140 0.500000
Si Si7 0.427902 0.850992 0.897961
O O1 0.678892 0.728787 0.772924
O O2 0.738587 0.891204 0.732483
O O3 0.615094 0.855119 0.858484
O O4 0.947611 0.826507 0.814653
O O5 0.902022 0.433952 0.448167
O O6 0.331886 0.557950 0.250587
O O7 0.216501 0.657167 0.340612
O O8 0.500000 0.500000 0.922154
O O9 0.205784 0.476531 0.864866
O O10 0.361559 0.358346 0.958394
O O11 0.226916 0.500000 0.000000
O O12 0.000000 0.500000 0.760342
O O13 0.916686 0.264725 0.444298
#
# Coordination Sequence:
#
# PCOD9331879 Si02
#       7
#     8   2   8   8   8   4   8
#     4  12  24  41  69 100 134 172 220 286 333 400
#     4  10  24  44  68  92 138 190 212 288 314 426
#     4  12  24  41  66 102 135 171 222 282 338 397
#     4   9  20  36  59  85 121 168 209 247 322 383
#     4  12  23  40  63  97 134 171 218 276 332 395
#     4   9  21  39  65  86 126 176 205 273 307 401
#     4  11  22  43  67  94 132 171 231 257 344 382
#
# _framework density 20.196172000000001
#
# number of rings (size 3 to 8) (size 9 to 14) (size 15 to 20)
#    0.000    1.217    3.478    3.652    4.870    0.348 
#    0.000    4.348    7.652    0.000    0.000    0.000 
#    0.000    0.000    0.000    0.000    0.000    0.000 
#
# Total GULP energy -128324.276440 kJ/mol
# GULP energy per Si atom -5579.316367 kJ/mol
# Density = 2.015021 g / cm^3
# Si number density = 20.196172 Si / 1000 Ang^3
#
#
#
# Elastic Constant Matrix: (Units=GPa)
#
#
# Indices 1 2 3 4 5 6 
#
# 1 111.2669 6.0396 7.5556 0.0000 0.0000 0.0000
# 2 6.0396 111.3605 20.7851 0.0000 0.0000 0.0000
# 3 7.5556 20.7851 74.4539 0.0000 0.0000 0.0000
# 4 0.0000 0.0000 0.0000 36.1000 0.0000 0.0000
# 5 0.0000 0.0000 0.0000 0.0000 4.7614 0.0000
# 6 0.0000 0.0000 0.0000 0.0000 0.0000 31.8548
#
#
#
# Elastic Compliance Matrix: (Units=1/GPa)
#
#
# Indices 1 2 3 4 5 6 
#
# 1 0.009062 -0.000337 -0.000825 0.000000 0.000000 0.000000
# 2 -0.000337 0.009486 -0.002614 0.000000 0.000000 0.000000
# 3 -0.000825 -0.002614 0.014245 0.000000 0.000000 0.000000
# 4 0.000000 0.000000 0.000000 0.027701 0.000000 0.000000
# 5 0.000000 0.000000 0.000000 0.000000 0.210022 0.000000
# 6 0.000000 0.000000 0.000000 0.000000 0.000000 0.031392
#
#
# Mechanical properties :
#
#
# Convention : Reuss Voigt Hill
#
# Bulk Modulus (GPa) = 39.62137 40.64910 40.13523
# Shear Modulus (GPa) = 15.72948 32.05664 23.89306
#
# Velocity S-wave (km/s) = 2.79379 3.98837 3.44328
# Velocity P-wave (km/s) = 5.48342 6.43275 5.97696
#
# Compressibility (1/GPa) = 0.02523891
#
# Stress axis : x y z
#
# Youngs Moduli (GPa) = 110.35387 105.41823 70.20195
#
# Poissons Ratio (x) = 0.03557 0.05794
# Poissons Ratio (y) = 0.03723 0.18350
# Poissons Ratio (z) = 0.09109 0.27556
#
# Static dielectric constant tensor:
#      x y z
#    x 1.716590 0.000000 0.000000 
#    y 0.000000 1.757240 0.000000 
#    z 0.000000 0.000000 1.740540 
# 
# From -- ./inp_files/26182.got.cif
#   From: 2010.05.17/outbox.cif.g08.bks.cpg/sg23_14_cif.got.tgz:26182.got - 2010.06.04 12:02:01.
