data_PCOD9331124
_publ_section_title
;
Structure prediction by ZEFSAII (Michael W. Deem and Ramdas Pophale) SiO2 
 PCOD9331124
Probable space group: I 2 2 2
;
_chemical_formula_sum "Si O2"
_cell_formula_units_Z 58
_cell_length_a 27.649834
_cell_length_b 11.401018
_cell_length_c 9.467620
_cell_angle_alpha 90.000000
_cell_angle_beta 90.000000
_cell_angle_gamma 90.000000
_cell_volume 2984.537074
_symmetry_space_group_name_H-M "I 2 2 2"
_symmetry_group_IT_number 23
_symmetry_cell_setting 'orthorhombic'
loop_
_space_group_symop_operation_xyz
x,y,z
-x,-y,z
x,-y,-z
-x,y,-z
1/2+x,1/2+y,1/2+z
1/2-x,1/2-y,1/2+z
1/2+x,1/2-y,1/2-z
1/2-x,1/2+y,1/2-z
loop_
_atom_site_type_symbol
_atom_site_label
_atom_site_fract_x
_atom_site_fract_y
_atom_site_fract_z
Si Si1 0.607758 0.891857 0.316577
Si Si2 0.444215 0.131753 0.044507
Si Si3 0.304418 0.722506 0.704753
Si Si4 0.210651 0.793610 0.870433
Si Si5 0.422452 0.336886 0.855229
Si Si6 0.000000 0.000000 0.500000
Si Si7 0.108400 0.333703 0.136567
Si Si8 0.325610 0.487148 0.838837
O O1 0.566766 0.853179 0.208051
O O2 0.660443 0.835423 0.285870
O O3 0.596493 0.846627 0.472524
O O4 0.608135 0.032927 0.309435
O O5 0.500000 0.145391 0.000000
O O6 0.414618 0.232740 0.967321
O O7 0.429777 0.000000 0.000000
O O8 0.258149 0.734949 0.805721
O O9 0.288681 0.697275 0.541677
O O10 0.333314 0.612537 0.767316
O O11 0.162469 0.716873 0.843761
O O12 0.204853 0.911293 0.775311
O O13 0.467102 0.415844 0.903342
O O14 0.426004 0.260416 0.712579
O O15 0.376152 0.419848 0.852300
O O16 0.305501 0.500000 0.000000
#
# Coordination Sequence:
#
# PCOD9331124 Si02
#       8
#     8   8   8   8   8   2   8   8
#     4  10  21  40  67  93 126 174 206 275 334 397
#     4  11  22  39  67  97 129 158 216 277 327 392
#     4  11  23  39  62  94 128 171 225 271 330 393
#     4  10  23  40  61  93 131 173 224 276 324 396
#     4  11  22  41  64  97 125 175 213 274 323 396
#     4  12  24  40  74  94 140 164 234 270 332 384
#     4   9  21  42  65  90 133 169 216 261 342 394
#     4  11  22  39  62  88 131 175 218 268 332 387
#
# _framework density 19.433499999999999
#
# number of rings (size 3 to 8) (size 9 to 14) (size 15 to 20)
#    0.000    1.517    2.759    2.069    1.931    1.103 
#    0.000    0.690    0.000    0.828    0.000    0.000 
#    0.000    0.000    0.000    0.000    0.000    0.000 
#
# Total GULP energy -161745.592810 kJ/mol
# GULP energy per Si atom -5577.434235 kJ/mol
# Density = 1.938927 g / cm^3
# Si number density = 19.433500 Si / 1000 Ang^3
#
#
#
# Elastic Constant Matrix: (Units=GPa)
#
#
# Indices 1 2 3 4 5 6 
#
# 1 71.0442 44.5206 58.8338 0.0000 0.0000 0.0000
# 2 44.5206 108.0282 54.9990 0.0000 0.0000 0.0000
# 3 58.8338 54.9990 139.3184 0.0000 0.0000 0.0000
# 4 0.0000 0.0000 0.0000 34.8856 0.0000 0.0000
# 5 0.0000 0.0000 0.0000 0.0000 30.0389 0.0000
# 6 0.0000 0.0000 0.0000 0.0000 0.0000 7.1186
#
#
#
# Elastic Compliance Matrix: (Units=1/GPa)
#
#
# Indices 1 2 3 4 5 6 
#
# 1 0.024423 -0.006025 -0.007935 0.000000 0.000000 0.000000
# 2 -0.006025 0.013072 -0.002616 0.000000 0.000000 0.000000
# 3 -0.007935 -0.002616 0.011561 0.000000 0.000000 0.000000
# 4 0.000000 0.000000 0.000000 0.028665 0.000000 0.000000
# 5 0.000000 0.000000 0.000000 0.000000 0.033290 0.000000
# 6 0.000000 0.000000 0.000000 0.000000 0.000000 0.140477
#
#
# Mechanical properties :
#
#
# Convention : Reuss Voigt Hill
#
# Bulk Modulus (GPa) = 62.87912 70.56640 66.72276
# Shear Modulus (GPa) = 17.24483 25.07779 21.16131
#
# Velocity S-wave (km/s) = 2.98212 3.59617 3.30344
# Velocity P-wave (km/s) = 6.65460 7.32351 6.99705
#
# Compressibility (1/GPa) = 0.01590353
#
# Stress axis : x y z
#
# Youngs Moduli (GPa) = 40.94533 76.50066 86.49422
#
# Poissons Ratio (x) = 0.46094 0.68634
# Poissons Ratio (y) = 0.24671 0.22626
# Poissons Ratio (z) = 0.32490 0.20012
#
# Static dielectric constant tensor:
#      x y z
#    x 1.661850 0.000000 0.000000 
#    y 0.000000 1.694380 0.000000 
#    z 0.000000 0.000000 1.745470 
# 
# From -- ./inp_files/8865.got.cif
#   From: 2010.05.17/outbox.cif.g08.bks.cpg/sg23_5_cif.got.tgz:8865.got - 2010.06.04 12:02:01.
