data_PCOD9331023
_publ_section_title
;
Structure prediction by ZEFSAII (Michael W. Deem and Ramdas Pophale) SiO2 
 PCOD9331023
Probable space group: I 2 2 2
;
_chemical_formula_sum "Si O2"
_cell_formula_units_Z 48
_cell_length_a 13.006783
_cell_length_b 9.870640
_cell_length_c 15.784426
_cell_angle_alpha 90.000000
_cell_angle_beta 90.000000
_cell_angle_gamma 90.000000
_cell_volume 2026.487834
_symmetry_space_group_name_H-M "I 2 2 2"
_symmetry_group_IT_number 23
_symmetry_cell_setting 'orthorhombic'
loop_
_space_group_symop_operation_xyz
x,y,z
-x,-y,z
x,-y,-z
-x,y,-z
1/2+x,1/2+y,1/2+z
1/2-x,1/2-y,1/2+z
1/2+x,1/2-y,1/2-z
1/2-x,1/2+y,1/2-z
loop_
_atom_site_type_symbol
_atom_site_label
_atom_site_fract_x
_atom_site_fract_y
_atom_site_fract_z
Si Si1 0.307943 0.523605 0.268264
Si Si2 0.921250 0.126495 0.090768
Si Si3 0.906669 0.579554 0.334796
Si Si4 0.296883 0.158174 0.987502
Si Si5 0.415106 0.796523 0.337282
Si Si6 0.718519 0.583552 0.086336
O O1 0.366889 0.407419 0.320501
O O2 0.189934 0.507418 0.299011
O O3 0.351726 0.664019 0.304462
O O4 0.325052 0.491597 0.169446
O O5 0.827095 0.153345 0.027107
O O6 0.993002 0.254134 0.102625
O O7 0.000000 0.000000 0.078828
O O8 0.856092 0.686633 0.399768
O O9 0.954504 0.643465 0.250538
O O10 0.000000 0.500000 0.377091
O O11 0.322195 0.266260 0.059834
O O12 0.322307 0.000000 0.000000
O O13 0.336049 0.892119 0.385434
O O14 0.709939 0.500000 0.000000
#
# Coordination Sequence:
#
# PCOD9331023 Si02
#       6
#     8   8   8   8   8   8
#     4   9  20  41  63  86 121 169 217 253 296 370
#     4   9  19  37  63  86 111 162 219 252 291 369
#     4  10  22  37  58  86 117 160 211 250 298 371
#     4  11  23  40  61  89 127 165 200 251 316 372
#     4  10  21  39  64  88 118 163 208 257 310 361
#     4  11  23  38  62  96 132 163 200 259 322 371
#
# _framework density 23.686302000000001
#
# number of rings (size 3 to 8) (size 9 to 14) (size 15 to 20)
#    0.000    2.000    0.000    4.000    0.000   10.667 
#    0.000    4.167    0.000   14.500    0.000    0.000 
#    0.000    0.000    0.000    0.000    0.000    0.000 
#
# Total GULP energy -134046.629331 kJ/mol
# GULP energy per Si atom -5585.276222 kJ/mol
# Density = 2.363239 g / cm^3
# Si number density = 23.686302 Si / 1000 Ang^3
#
#
#
# Elastic Constant Matrix: (Units=GPa)
#
#
# Indices 1 2 3 4 5 6 
#
# 1 79.1037 11.5618 26.0792 0.0000 0.0000 0.0000
# 2 11.5618 60.7944 27.7114 0.0000 0.0000 0.0000
# 3 26.0792 27.7114 140.2738 0.0000 0.0000 0.0000
# 4 0.0000 0.0000 0.0000 22.8738 0.0000 0.0000
# 5 0.0000 0.0000 0.0000 0.0000 23.8954 0.0000
# 6 0.0000 0.0000 0.0000 0.0000 0.0000 14.6267
#
#
#
# Elastic Compliance Matrix: (Units=1/GPa)
#
#
# Indices 1 2 3 4 5 6 
#
# 1 0.013603 -0.001576 -0.002218 0.000000 0.000000 0.000000
# 2 -0.001576 0.018259 -0.003314 0.000000 0.000000 0.000000
# 3 -0.002218 -0.003314 0.008196 0.000000 0.000000 0.000000
# 4 0.000000 0.000000 0.000000 0.043718 0.000000 0.000000
# 5 0.000000 0.000000 0.000000 0.000000 0.041849 0.000000
# 6 0.000000 0.000000 0.000000 0.000000 0.000000 0.068368
#
#
# Mechanical properties :
#
#
# Convention : Reuss Voigt Hill
#
# Bulk Modulus (GPa) = 38.69605 45.65297 42.17451
# Shear Modulus (GPa) = 23.06021 26.60049 24.83035
#
# Velocity S-wave (km/s) = 3.12359 3.35480 3.24126
# Velocity P-wave (km/s) = 5.42046 5.85851 5.64374
#
# Compressibility (1/GPa) = 0.02584243
#
# Stress axis : x y z
#
# Youngs Moduli (GPa) = 73.51248 54.76668 122.01179
#
# Poissons Ratio (x) = 0.08632 0.27058
# Poissons Ratio (y) = 0.11587 0.40436
# Poissons Ratio (z) = 0.16303 0.18150
#
# Static dielectric constant tensor:
#      x y z
#    x 1.878790 0.000000 0.000000 
#    y 0.000000 1.985130 0.000000 
#    z 0.000000 0.000000 1.950230 
# 
# From -- ./inp_files/24727.got.cif
#   From: 2010.05.17/outbox.cif.g08.bks.cpg/sg23_13_cif.got.tgz:24727.got - 2010.06.04 12:02:01.
