data_PCOD9331819
_publ_section_title
;
Structure prediction by ZEFSAII (Michael W. Deem and Ramdas Pophale) SiO2 
 PCOD9331819
Probable space group: I 2 2 2
;
_chemical_formula_sum "Si O2"
_cell_formula_units_Z 30
_cell_length_a 10.893599
_cell_length_b 7.935120
_cell_length_c 18.587377
_cell_angle_alpha 90.000000
_cell_angle_beta 90.000000
_cell_angle_gamma 90.000000
_cell_volume 1606.730327
_symmetry_space_group_name_H-M "I 2 2 2"
_symmetry_group_IT_number 23
_symmetry_cell_setting 'orthorhombic'
loop_
_space_group_symop_operation_xyz
x,y,z
-x,-y,z
x,-y,-z
-x,y,-z
1/2+x,1/2+y,1/2+z
1/2-x,1/2-y,1/2+z
1/2+x,1/2-y,1/2-z
1/2-x,1/2+y,1/2-z
loop_
_atom_site_type_symbol
_atom_site_label
_atom_site_fract_x
_atom_site_fract_y
_atom_site_fract_z
Si Si1 0.333873 0.240915 0.593006
Si Si2 0.000000 0.500000 0.377429
Si Si3 0.908198 0.147212 0.322341
Si Si4 0.192385 0.500000 0.500000
Si Si5 0.500000 0.500000 0.316644
Si Si6 0.000000 0.500000 0.000000
O O1 0.225352 0.158152 0.641081
O O2 0.271021 0.347294 0.529399
O O3 0.418665 0.370166 0.638014
O O4 0.416705 0.107444 0.553262
O O5 0.035828 0.666318 0.333626
O O6 0.109015 0.450475 0.432023
O O7 0.909446 0.100080 0.238045
O O8 0.000000 0.000000 0.353255
#
# Coordination Sequence:
#
# PCOD9331819 Si02
#       6
#     8   4   8   4   4   2
#     4  11  23  42  62  92 133 166 214 265 321 391
#     4   9  18  39  66  97 120 157 212 256 334 363
#     4   9  23  42  66  98 121 171 215 272 314 379
#     4   9  20  37  64  88 124 165 193 274 310 376
#     4  10  24  41  60  95 126 172 214 264 324 378
#     4  12  28  36  62  98 120 182 200 264 334 384
#
# _framework density 18.67146
#
# number of rings (size 3 to 8) (size 9 to 14) (size 15 to 20)
#    0.800    1.333    0.000    1.600    3.733    7.467 
#    0.000    0.000    0.000    0.000    0.000    0.000 
#    0.000    0.000    0.000    0.000    0.000    0.000 
#
# Total GULP energy -83586.209844 kJ/mol
# GULP energy per Si atom -5572.413990 kJ/mol
# Density = 1.862896 g / cm^3
# Si number density = 18.671460 Si / 1000 Ang^3
#
#
#
# Elastic Constant Matrix: (Units=GPa)
#
#
# Indices 1 2 3 4 5 6 
#
# 1 142.1973 97.6976 65.2538 0.0000 0.0000 0.0000
# 2 97.6976 134.6558 95.0990 0.0000 0.0000 0.0000
# 3 65.2538 95.0990 100.0641 0.0000 0.0000 0.0000
# 4 0.0000 0.0000 0.0000 11.3221 0.0000 0.0000
# 5 0.0000 0.0000 0.0000 0.0000 30.0300 0.0000
# 6 0.0000 0.0000 0.0000 0.0000 0.0000 40.0814
#
#
#
# Elastic Compliance Matrix: (Units=1/GPa)
#
#
# Indices 1 2 3 4 5 6 
#
# 1 0.014107 -0.011369 0.001605 0.000000 0.000000 0.000000
# 2 -0.011369 0.031748 -0.022759 0.000000 0.000000 0.000000
# 3 0.001605 -0.022759 0.030576 0.000000 0.000000 0.000000
# 4 0.000000 0.000000 0.000000 0.088323 0.000000 0.000000
# 5 0.000000 0.000000 0.000000 0.000000 0.033300 0.000000
# 6 0.000000 0.000000 0.000000 0.000000 0.000000 0.024949
#
#
# Mechanical properties :
#
#
# Convention : Reuss Voigt Hill
#
# Bulk Modulus (GPa) = 87.82346 99.22422 93.52384
# Shear Modulus (GPa) = 17.13252 24.21114 20.67183
#
# Velocity S-wave (km/s) = 3.03244 3.60487 3.33097
# Velocity P-wave (km/s) = 7.70709 8.40145 8.06175
#
# Compressibility (1/GPa) = 0.01138648
#
# Stress axis : x y z
#
# Youngs Moduli (GPa) = 70.88809 31.49826 32.70508
#
# Poissons Ratio (x) = 0.35809 -0.05250
# Poissons Ratio (y) = 0.80590 0.74433
# Poissons Ratio (z) = -0.11379 0.71686
#
# Static dielectric constant tensor:
#      x y z
#    x 1.794930 0.000000 0.000000 
#    y 0.000000 1.513280 0.000000 
#    z 0.000000 0.000000 1.626820 
# 
# From -- ./inp_files/3687.got.cif
#   From: 2010.05.17/outbox.cif.g08.bks.cpg/sg23_2_cif.got.tgz:3687.got - 2010.06.04 12:02:01.
