data_PCOD9331680
_publ_section_title
;
Structure prediction by ZEFSAII (Michael W. Deem and Ramdas Pophale) SiO2 
 PCOD9331680
Probable space group: I 2 2 2
;
_chemical_formula_sum "Si O2"
_cell_formula_units_Z 30
_cell_length_a 16.401972
_cell_length_b 5.488762
_cell_length_c 16.882285
_cell_angle_alpha 90.000000
_cell_angle_beta 90.000000
_cell_angle_gamma 90.000000
_cell_volume 1519.853379
_symmetry_space_group_name_H-M "I 2 2 2"
_symmetry_group_IT_number 23
_symmetry_cell_setting 'orthorhombic'
loop_
_space_group_symop_operation_xyz
x,y,z
-x,-y,z
x,-y,-z
-x,y,-z
1/2+x,1/2+y,1/2+z
1/2-x,1/2-y,1/2+z
1/2+x,1/2-y,1/2-z
1/2-x,1/2+y,1/2-z
loop_
_atom_site_type_symbol
_atom_site_label
_atom_site_fract_x
_atom_site_fract_y
_atom_site_fract_z
Si Si1 0.213755 0.500000 0.000000
Si Si2 0.053328 0.750451 0.294781
Si Si3 0.916103 0.652513 0.879263
Si Si4 0.500000 0.500000 0.500000
Si Si5 0.127848 0.249436 0.536452
O O1 0.157598 0.516765 0.077618
O O2 0.277262 0.279305 0.012006
O O3 0.098567 0.739435 0.209919
O O4 0.112251 0.754341 0.370231
O O5 0.000000 0.500000 0.301140
O O6 0.000000 0.000000 0.295554
O O7 0.000000 0.500000 0.875626
O O8 0.940446 0.858208 0.941502
O O9 0.095777 0.500000 0.500000
O O10 0.091205 0.000000 0.500000
#
# Coordination Sequence:
#
# PCOD9331680 Si02
#       5
#     4   8   8   2   8
#     4  10  23  42  61  92 136 168 214 258 327 402
#     4  11  24  43  67  98 128 163 225 275 319 384
#     4  11  22  39  63  97 125 168 211 271 318 381
#     4  12  18  36  68  90 130 152 228 240 346 364
#     4  10  24  44  63  97 127 177 214 259 337 378
#
# _framework density 19.738745000000002
#
# number of rings (size 3 to 8) (size 9 to 14) (size 15 to 20)
#    0.800    0.533    4.000    1.600    1.867    3.200 
#    4.800    0.000    0.000    0.000    0.000    0.000 
#    0.000    0.000    0.000    0.000    0.000    0.000 
#
# Total GULP energy -83588.484765 kJ/mol
# GULP energy per Si atom -5572.565651 kJ/mol
# Density = 1.969382 g / cm^3
# Si number density = 19.738745 Si / 1000 Ang^3
#
#
#
# Elastic Constant Matrix: (Units=GPa)
#
#
# Indices 1 2 3 4 5 6 
#
# 1 77.3328 19.0043 31.0140 0.0000 0.0000 0.0000
# 2 19.0043 126.3287 42.9660 0.0000 0.0000 0.0000
# 3 31.0140 42.9660 189.7446 0.0000 0.0000 0.0000
# 4 0.0000 0.0000 0.0000 36.1898 0.0000 0.0000
# 5 0.0000 0.0000 0.0000 0.0000 34.3312 0.0000
# 6 0.0000 0.0000 0.0000 0.0000 0.0000-1436.2146
#
#
#
# Elastic Compliance Matrix: (Units=1/GPa)
#
#
# Indices 1 2 3 4 5 6 
#
# 1 0.014078 -0.001447 -0.001974 0.000000 0.000000 0.000000
# 2 -0.001447 0.008725 -0.001739 0.000000 0.000000 0.000000
# 3 -0.001974 -0.001739 0.005987 0.000000 0.000000 0.000000
# 4 0.000000 0.000000 0.000000 0.027632 0.000000 0.000000
# 5 0.000000 0.000000 0.000000 0.000000 0.029128 0.000000
# 6 0.000000 0.000000 0.000000 0.000000 0.000000 -0.000696
#
#
# Mechanical properties :
#
#
# Convention : Reuss Voigt Hill
#
# Bulk Modulus (GPa) = 54.13893 64.37498 59.25696
# Shear Modulus (GPa) = 49.34404 -253.11059 -101.88328
#
# Velocity S-wave (km/s) = 5.00528 -11.33617 -7.19221
# Velocity P-wave (km/s) = 7.80327 11.77543 6.23577
#
# Compressibility (1/GPa) = 0.01847100
#
# Stress axis : x y z
#
# Youngs Moduli (GPa) = 71.03230 114.61293 167.03830
#
# Poissons Ratio (x) = 0.16580 0.32965
# Poissons Ratio (y) = 0.10276 0.29052
# Poissons Ratio (z) = 0.14018 0.19934
#
# Static dielectric constant tensor:
#      x y z
#    x 1.764490 0.000000 0.000000 
#    y 0.000000 1.772530 0.000000 
#    z 0.000000 0.000000 1.756540 
# 
# From -- ./inp_files/18981.got.cif
#   From: 2010.05.17/outbox.cif.g08.bks.cpg/sg23_10_cif.got.tgz:18981.got - 2010.06.04 12:02:01.
