data_PCOD9331354
_publ_section_title
;
Structure prediction by ZEFSAII (Michael W. Deem and Ramdas Pophale) SiO2 
 PCOD9331354
Probable space group: I 2 2 2
;
_chemical_formula_sum "Si O2"
_cell_formula_units_Z 58
_cell_length_a 9.566511
_cell_length_b 16.253057
_cell_length_c 17.643193
_cell_angle_alpha 90.000000
_cell_angle_beta 90.000000
_cell_angle_gamma 90.000000
_cell_volume 2743.252721
_symmetry_space_group_name_H-M "I 2 2 2"
_symmetry_group_IT_number 23
_symmetry_cell_setting 'orthorhombic'
loop_
_space_group_symop_operation_xyz
x,y,z
-x,-y,z
x,-y,-z
-x,y,-z
1/2+x,1/2+y,1/2+z
1/2-x,1/2-y,1/2+z
1/2+x,1/2-y,1/2-z
1/2-x,1/2+y,1/2-z
loop_
_atom_site_type_symbol
_atom_site_label
_atom_site_fract_x
_atom_site_fract_y
_atom_site_fract_z
Si Si1 0.797361 0.666236 0.250780
Si Si2 0.751016 0.580945 0.409127
Si Si3 0.950247 0.085666 0.322565
Si Si4 0.110637 0.328868 0.722760
Si Si5 0.365019 0.297161 0.537418
Si Si6 0.000000 0.500000 0.500000
Si Si7 0.857809 0.921521 0.174051
Si Si8 0.079097 0.762172 0.423789
O O1 0.778897 0.636834 0.336578
O O2 0.711568 0.601509 0.199023
O O3 0.712773 0.752370 0.243639
O O4 0.963104 0.671166 0.234007
O O5 0.680369 0.634205 0.475445
O O6 0.893838 0.548357 0.445680
O O7 0.660534 0.503874 0.376379
O O8 0.982654 0.160198 0.379065
O O9 0.030952 0.086896 0.241818
O O10 0.000000 0.000000 0.357343
O O11 0.209320 0.408037 0.717542
O O12 0.071812 0.311575 0.635407
O O13 0.500000 0.257211 0.500000
O O14 0.387505 0.347739 0.615137
O O15 0.242015 0.233036 0.554247
O O16 0.000000 0.744691 0.500000
#
# Coordination Sequence:
#
# PCOD9331354 Si02
#       8
#     8   8   8   8   8   2   8   8
#     4  11  22  38  62  90 128 177 225 281 333 409
#     4  12  23  37  64  90 137 179 220 275 341 413
#     4  11  23  42  65  92 128 173 226 283 340 400
#     4  10  22  39  62  93 130 173 225 275 343 410
#     4  11  24  38  61  95 135 171 216 273 347 407
#     4  12  24  40  54 100 132 184 218 272 344 424
#     4  11  22  41  60  97 134 176 227 271 340 419
#     4  10  23  42  64  92 125 170 227 279 335 406
#
# _framework density 21.142783999999999
#
# number of rings (size 3 to 8) (size 9 to 14) (size 15 to 20)
#    0.000    1.103    2.759    4.138    2.897    3.034 
#    0.000    0.000    0.000    0.000    0.000    0.966 
#    0.000    0.000    0.000    0.000    0.000    0.000 
#
# Total GULP energy -161979.895816 kJ/mol
# GULP energy per Si atom -5585.513649 kJ/mol
# Density = 2.109466 g / cm^3
# Si number density = 21.142784 Si / 1000 Ang^3
#
#
#
# Elastic Constant Matrix: (Units=GPa)
#
#
# Indices 1 2 3 4 5 6 
#
# 1 125.8068 22.0016 17.7107 0.0000 0.0000 0.0000
# 2 22.0016 55.7588 21.0581 0.0000 0.0000 0.0000
# 3 17.7107 21.0581 71.1041 0.0000 0.0000 0.0000
# 4 0.0000 0.0000 0.0000 15.4531 0.0000 0.0000
# 5 0.0000 0.0000 0.0000 0.0000 38.0342 0.0000
# 6 0.0000 0.0000 0.0000 0.0000 0.0000 20.5544
#
#
#
# Elastic Compliance Matrix: (Units=1/GPa)
#
#
# Indices 1 2 3 4 5 6 
#
# 1 0.008641 -0.002924 -0.001286 0.000000 0.000000 0.000000
# 2 -0.002924 0.021182 -0.005545 0.000000 0.000000 0.000000
# 3 -0.001286 -0.005545 0.016027 0.000000 0.000000 0.000000
# 4 0.000000 0.000000 0.000000 0.064712 0.000000 0.000000
# 5 0.000000 0.000000 0.000000 0.000000 0.026292 0.000000
# 6 0.000000 0.000000 0.000000 0.000000 0.000000 0.048651
#
#
# Mechanical properties :
#
#
# Convention : Reuss Voigt Hill
#
# Bulk Modulus (GPa) = 37.96608 41.57897 39.77253
# Shear Modulus (GPa) = 23.38684 27.60163 25.49423
#
# Velocity S-wave (km/s) = 3.32947 3.61707 3.47625
# Velocity P-wave (km/s) = 5.72508 6.09531 5.91309
#
# Compressibility (1/GPa) = 0.02633930
#
# Stress axis : x y z
#
# Youngs Moduli (GPa) = 115.72571 47.20938 62.39657
#
# Poissons Ratio (x) = 0.13803 0.08027
# Poissons Ratio (y) = 0.33836 0.34599
# Poissons Ratio (z) = 0.14887 0.26178
#
# Static dielectric constant tensor:
#      x y z
#    x 1.886940 0.000000 0.000000 
#    y 0.000000 1.822430 0.000000 
#    z 0.000000 0.000000 1.734270 
# 
# From -- ./inp_files/11293.got.cif
#   From: 2010.05.17/outbox.cif.g08.bks.cpg/sg23_6_cif.got.tgz:11293.got - 2010.06.04 12:02:01.
