data_PCOD9331931
_publ_section_title
;
Structure prediction by ZEFSAII (Michael W. Deem and Ramdas Pophale) SiO2 
 PCOD9331931
Probable space group: I 2 2 2
;
_chemical_formula_sum "Si O2"
_cell_formula_units_Z 32
_cell_length_a 6.743679
_cell_length_b 9.191054
_cell_length_c 22.575127
_cell_angle_alpha 90.000000
_cell_angle_beta 90.000000
_cell_angle_gamma 90.000000
_cell_volume 1399.240637
_symmetry_space_group_name_H-M "I 2 2 2"
_symmetry_group_IT_number 23
_symmetry_cell_setting 'orthorhombic'
loop_
_space_group_symop_operation_xyz
x,y,z
-x,-y,z
x,-y,-z
-x,y,-z
1/2+x,1/2+y,1/2+z
1/2-x,1/2-y,1/2+z
1/2+x,1/2-y,1/2-z
1/2-x,1/2+y,1/2-z
loop_
_atom_site_type_symbol
_atom_site_label
_atom_site_fract_x
_atom_site_fract_y
_atom_site_fract_z
Si Si1 0.000000 0.000000 0.000000
Si Si2 0.000000 0.500000 0.000000
Si Si3 0.695812 0.905045 0.701320
Si Si4 0.576388 0.645755 0.322790
Si Si5 0.000000 0.000000 0.601771
Si Si6 0.255420 0.740723 0.063595
O O1 0.160639 0.883045 0.030048
O O2 0.878655 0.392239 0.041426
O O3 0.612405 0.746813 0.686539
O O4 0.825165 0.893002 0.760426
O O5 0.500000 0.000000 0.712686
O O6 0.819308 0.966514 0.646560
O O7 0.500000 0.500000 0.352666
O O8 0.726878 0.720295 0.367483
O O9 0.965110 0.150640 0.564956
#
# Coordination Sequence:
#
# PCOD9331931 Si02
#       6
#     2   2   8   8   4   8
#     4  10  24  48  80 112 152 194 256 346 390 412
#     4  10  24  48  80  98 142 210 264 308 372 464
#     4  12  24  45  70 110 156 196 242 296 366 479
#     4  12  23  41  71 107 148 191 236 301 378 438
#     4  12  24  46  80 112 142 212 252 288 384 478
#     4  11  23  45  77 107 144 198 255 315 379 442
#
# _framework density 22.869547000000001
#
# number of rings (size 3 to 8) (size 9 to 14) (size 15 to 20)
#    0.000    0.500    5.000    4.500    0.000    0.500 
#    0.000    0.000   11.000    0.000    0.000    0.000 
#    0.000    0.000    0.000    0.000    0.000    0.000 
#
# Total GULP energy -89199.807064 kJ/mol
# GULP energy per Si atom -5574.987941 kJ/mol
# Density = 2.281749 g / cm^3
# Si number density = 22.869547 Si / 1000 Ang^3
#
#
#
# Elastic Constant Matrix: (Units=GPa)
#
#
# Indices 1 2 3 4 5 6 
#
# 1 66.4057 48.4780 27.2189 0.0000 0.0000 0.0000
# 2 48.4780 191.6442 48.8125 0.0000 0.0000 0.0000
# 3 27.2189 48.8125 107.0651 0.0000 0.0000 0.0000
# 4 0.0000 0.0000 0.0000 37.7911 0.0000 0.0000
# 5 0.0000 0.0000 0.0000 0.0000 25.2758 0.0000
# 6 0.0000 0.0000 0.0000 0.0000 0.0000 33.3679
#
#
#
# Elastic Compliance Matrix: (Units=1/GPa)
#
#
# Indices 1 2 3 4 5 6 
#
# 1 0.019303 -0.004110 -0.003033 0.000000 0.000000 0.000000
# 2 -0.004110 0.006779 -0.002046 0.000000 0.000000 0.000000
# 3 -0.003033 -0.002046 0.011044 0.000000 0.000000 0.000000
# 4 0.000000 0.000000 0.000000 0.026461 0.000000 0.000000
# 5 0.000000 0.000000 0.000000 0.000000 0.039564 0.000000
# 6 0.000000 0.000000 0.000000 0.000000 0.000000 0.029969
#
#
# Mechanical properties :
#
#
# Convention : Reuss Voigt Hill
#
# Bulk Modulus (GPa) = 53.34165 68.23710 60.78937
# Shear Modulus (GPa) = 31.69639 35.32734 33.51186
#
# Velocity S-wave (km/s) = 3.72689 3.93457 3.83214
# Velocity P-wave (km/s) = 6.47260 7.10939 6.79846
#
# Compressibility (1/GPa) = 0.01874708
#
# Stress axis : x y z
#
# Youngs Moduli (GPa) = 51.80573 147.52020 90.54763
#
# Poissons Ratio (x) = 0.60634 0.27467
# Poissons Ratio (y) = 0.21293 0.18522
# Poissons Ratio (z) = 0.15715 0.30177
#
# Static dielectric constant tensor:
#      x y z
#    x 1.893610 0.000000 0.000000 
#    y 0.000000 1.986940 0.000000 
#    z 0.000000 0.000000 1.895090 
# 
# From -- ./inp_files/29813.got.cif
#   From: 2010.05.17/outbox.cif.g08.bks.cpg/sg23_15_cif.got.tgz:29813.got - 2010.06.04 12:02:01.
