data_PCOD9331513
_publ_section_title
;
Structure prediction by ZEFSAII (Michael W. Deem and Ramdas Pophale) SiO2 
 PCOD9331513
Probable space group: I 2 2 2
;
_chemical_formula_sum "Si O2"
_cell_formula_units_Z 28
_cell_length_a 7.438675
_cell_length_b 10.442500
_cell_length_c 15.402164
_cell_angle_alpha 90.000000
_cell_angle_beta 90.000000
_cell_angle_gamma 90.000000
_cell_volume 1196.414897
_symmetry_space_group_name_H-M "I 2 2 2"
_symmetry_group_IT_number 23
_symmetry_cell_setting 'orthorhombic'
loop_
_space_group_symop_operation_xyz
x,y,z
-x,-y,z
x,-y,-z
-x,y,-z
1/2+x,1/2+y,1/2+z
1/2-x,1/2-y,1/2+z
1/2+x,1/2-y,1/2-z
1/2-x,1/2+y,1/2-z
loop_
_atom_site_type_symbol
_atom_site_label
_atom_site_fract_x
_atom_site_fract_y
_atom_site_fract_z
Si Si1 0.805435 0.179507 0.014734
Si Si2 0.000000 0.500000 0.219200
Si Si3 0.215924 0.931990 0.590883
Si Si4 0.512948 0.801713 0.131629
O O1 0.691114 0.192615 0.926641
O O2 0.844596 0.315574 0.060622
O O3 0.653176 0.125851 0.081038
O O4 0.000000 0.123228 0.000000
O O5 0.824461 0.514014 0.159529
O O6 0.029933 0.625520 0.278356
O O7 0.051866 0.847478 0.630356
O O8 0.177691 0.000000 0.500000
#
# Coordination Sequence:
#
# PCOD9331513 Si02
#       4
#     8   4   8   8
#     4   9  19  43  72  92 138 187 240 274 361 437
#     4  12  23  43  74 108 150 178 238 327 349 404
#     4  10  22  42  71  98 138 196 231 281 358 439
#     4   9  24  42  68 106 135 185 242 298 353 425
#
# _framework density 23.403254
#
# number of rings (size 3 to 8) (size 9 to 14) (size 15 to 20)
#    1.714    0.571    0.000    2.143    0.000    9.143 
#    0.000    2.857    6.286    0.000    0.000    0.000 
#    0.000    0.000    0.000    0.000    0.000    0.000 
#
# Total GULP energy -78003.497076 kJ/mol
# GULP energy per Si atom -5571.678363 kJ/mol
# Density = 2.334999 g / cm^3
# Si number density = 23.403254 Si / 1000 Ang^3
#
#
#
# Elastic Constant Matrix: (Units=GPa)
#
#
# Indices 1 2 3 4 5 6 
#
# 1 183.5972 3.0524 52.3998 0.0000 0.0000 0.0000
# 2 3.0524 57.3439 25.8819 0.0000 0.0000 0.0000
# 3 52.3998 25.8819 133.7813 0.0000 0.0000 0.0000
# 4 0.0000 0.0000 0.0000 49.6415 0.0000 0.0000
# 5 0.0000 0.0000 0.0000 0.0000 20.2333 0.0000
# 6 0.0000 0.0000 0.0000 0.0000 0.0000 -18.6064
#
#
#
# Elastic Compliance Matrix: (Units=1/GPa)
#
#
# Indices 1 2 3 4 5 6 
#
# 1 0.006169 0.000835 -0.002578 0.000000 0.000000 0.000000
# 2 0.000835 0.019220 -0.004045 0.000000 0.000000 0.000000
# 3 -0.002578 -0.004045 0.009267 0.000000 0.000000 0.000000
# 4 0.000000 0.000000 0.000000 0.020144 0.000000 0.000000
# 5 0.000000 0.000000 0.000000 0.000000 0.049423 0.000000
# 6 0.000000 0.000000 0.000000 0.000000 0.000000 -0.053745
#
#
# Mechanical properties :
#
#
# Convention : Reuss Voigt Hill
#
# Bulk Modulus (GPa) = 43.32824 59.71006 51.51915
# Shear Modulus (GPa) = 71.68663 29.81290 50.74977
#
# Velocity S-wave (km/s) = 5.54054 3.57302 4.66176
# Velocity P-wave (km/s) = 7.71259 6.52617 7.14405
#
# Compressibility (1/GPa) = 0.02307964
#
# Stress axis : x y z
#
# Youngs Moduli (GPa) = 162.11394 52.02885 107.90789
#
# Poissons Ratio (x) = -0.04345 0.27815
# Poissons Ratio (y) = -0.13537 0.43654
# Poissons Ratio (z) = 0.41787 0.21048
#
# Static dielectric constant tensor:
#      x y z
#    x 1.850080 0.000000 0.000000 
#    y 0.000000 1.953320 0.000000 
#    z 0.000000 0.000000 1.828400 
# 
# From -- ./inp_files/14229.got.cif
#   From: 2010.05.17/outbox.cif.g08.bks.cpg/sg23_8_cif.got.tgz:14229.got - 2010.06.04 12:02:01.
