data_PCOD9331987
_publ_section_title
;
Structure prediction by ZEFSAII (Michael W. Deem and Ramdas Pophale) SiO2 
 PCOD9331987
Probable space group: I 2 2 2
;
_chemical_formula_sum "Si O2"
_cell_formula_units_Z 30
_cell_length_a 14.801687
_cell_length_b 10.910407
_cell_length_c 8.038681
_cell_angle_alpha 90.000000
_cell_angle_beta 90.000000
_cell_angle_gamma 90.000000
_cell_volume 1298.186124
_symmetry_space_group_name_H-M "I 2 2 2"
_symmetry_group_IT_number 23
_symmetry_cell_setting 'orthorhombic'
loop_
_space_group_symop_operation_xyz
x,y,z
-x,-y,z
x,-y,-z
-x,y,-z
1/2+x,1/2+y,1/2+z
1/2-x,1/2-y,1/2+z
1/2+x,1/2-y,1/2-z
1/2-x,1/2+y,1/2-z
loop_
_atom_site_type_symbol
_atom_site_label
_atom_site_fract_x
_atom_site_fract_y
_atom_site_fract_z
Si Si1 0.196873 0.901262 0.850934
Si Si2 0.878041 0.736310 0.587547
Si Si3 0.330369 0.500000 0.000000
Si Si4 0.444511 0.199392 0.733217
Si Si5 0.000000 0.500000 0.000000
O O1 0.276829 0.803583 0.876060
O O2 0.105198 0.821134 0.832977
O O3 0.217102 0.965806 0.673638
O O4 0.192904 0.000000 0.000000
O O5 0.886091 0.879383 0.545629
O O6 0.905011 0.670157 0.415558
O O7 0.948494 0.712994 0.733696
O O8 0.436952 0.086798 0.610410
#
# Coordination Sequence:
#
# PCOD9331987 Si02
#       5
#     8   8   4   8   2
#     4  11  27  47  78 112 150 200 255 314 381 468
#     4  10  25  50  73 110 149 200 250 311 392 456
#     4  10  26  48  80 102 156 192 248 312 384 458
#     4  10  27  48  75 107 151 198 251 318 392 459
#     4  12  28  44  74 110 152 192 260 316 386 470
#
# _framework density 23.109169000000001
#
# number of rings (size 3 to 8) (size 9 to 14) (size 15 to 20)
#    0.000    1.600    0.000    0.000   14.933   11.733 
#    0.000    0.000    0.000    0.000    0.000    0.000 
#    0.000    0.000    0.000    0.000    0.000    0.000 
#
# Total GULP energy -83871.616873 kJ/mol
# GULP energy per Si atom -5591.441125 kJ/mol
# Density = 2.305657 g / cm^3
# Si number density = 23.109169 Si / 1000 Ang^3
#
#
#
# Elastic Constant Matrix: (Units=GPa)
#
#
# Indices 1 2 3 4 5 6 
#
# 1 72.1116 44.6236 38.5308 0.0000 0.0000 0.0000
# 2 44.6236 126.8452 85.2171 0.0000 0.0000 0.0000
# 3 38.5308 85.2171 132.1747 0.0000 0.0000 0.0000
# 4 0.0000 0.0000 0.0000 48.3974 0.0000 0.0000
# 5 0.0000 0.0000 0.0000 0.0000 17.4466 0.0000
# 6 0.0000 0.0000 0.0000 0.0000 0.0000 -94.2695
#
#
#
# Elastic Compliance Matrix: (Units=1/GPa)
#
#
# Indices 1 2 3 4 5 6 
#
# 1 0.018038 -0.004963 -0.002059 0.000000 0.000000 0.000000
# 2 -0.004963 0.015273 -0.008400 0.000000 0.000000 0.000000
# 3 -0.002059 -0.008400 0.013582 0.000000 0.000000 0.000000
# 4 0.000000 0.000000 0.000000 0.020662 0.000000 0.000000
# 5 0.000000 0.000000 0.000000 0.000000 0.057318 0.000000
# 6 0.000000 0.000000 0.000000 0.000000 0.000000 -0.010608
#
#
# Mechanical properties :
#
#
# Convention : Reuss Voigt Hill
#
# Bulk Modulus (GPa) = 62.30667 74.20828 68.25747
# Shear Modulus (GPa) = 33.23165 5.16555 19.19860
#
# Velocity S-wave (km/s) = 3.79625 1.49671 2.88545
# Velocity P-wave (km/s) = 6.79969 5.93031 6.37983
#
# Compressibility (1/GPa) = 0.01604965
#
# Stress axis : x y z
#
# Youngs Moduli (GPa) = 55.43706 65.47539 73.62774
#
# Poissons Ratio (x) = 0.32493 0.15159
# Poissons Ratio (y) = 0.27511 0.61849
# Poissons Ratio (z) = 0.11414 0.55001
#
# Static dielectric constant tensor:
#      x y z
#    x 1.841680 0.000000 0.000000 
#    y 0.000000 1.849030 0.000000 
#    z 0.000000 0.000000 1.923330 
# 
# From -- ./inp_files/9257.got.cif
#   From: 2010.05.17/outbox.cif.g08.bks.cpg/sg23_5_cif.got.tgz:9257.got - 2010.06.04 12:02:01.
