data_PCOD9331346
_publ_section_title
;
Structure prediction by ZEFSAII (Michael W. Deem and Ramdas Pophale) SiO2 
 PCOD9331346
Probable space group: I 2 2 2
;
_chemical_formula_sum "Si O2"
_cell_formula_units_Z 20
_cell_length_a 9.797659
_cell_length_b 16.103517
_cell_length_c 5.011579
_cell_angle_alpha 90.000000
_cell_angle_beta 90.000000
_cell_angle_gamma 90.000000
_cell_volume 790.710739
_symmetry_space_group_name_H-M "I 2 2 2"
_symmetry_group_IT_number 23
_symmetry_cell_setting 'orthorhombic'
loop_
_space_group_symop_operation_xyz
x,y,z
-x,-y,z
x,-y,-z
-x,y,-z
1/2+x,1/2+y,1/2+z
1/2-x,1/2-y,1/2+z
1/2+x,1/2-y,1/2-z
1/2-x,1/2+y,1/2-z
loop_
_atom_site_type_symbol
_atom_site_label
_atom_site_fract_x
_atom_site_fract_y
_atom_site_fract_z
Si Si1 0.166406 0.736578 0.693251
Si Si2 0.277469 0.055300 0.763717
Si Si3 0.500000 0.631467 0.500000
O O1 0.205096 0.740755 0.384254
O O2 0.139463 0.641021 0.767030
O O3 0.063818 0.807520 0.779840
O O4 0.875280 0.918261 0.864957
O O5 0.269151 0.000000 0.500000
O O6 0.336419 0.000000 0.000000
#
# Coordination Sequence:
#
# PCOD9331346 Si02
#       3
#     8   8   4
#     4  10  22  39  59  88 122 156 194 240 294 355
#     4  11  23  39  61  92 121 150 196 254 293 335
#     4  10  23  40  65  86 116 164 200 232 293 362
#
# _framework density 25.293700000000001
#
# number of rings (size 3 to 8) (size 9 to 14) (size 15 to 20)
#    0.000    1.600    0.000    5.400    0.000   19.200 
#    0.000    1.000    0.000   12.000    0.000    0.000 
#    0.000    0.000    0.000    0.000    0.000    0.000 
#
# Total GULP energy -55996.828017 kJ/mol
# GULP energy per Si atom -5599.682802 kJ/mol
# Density = 2.523613 g / cm^3
# Si number density = 25.293700 Si / 1000 Ang^3
#
#
#
# Elastic Constant Matrix: (Units=GPa)
#
#
# Indices 1 2 3 4 5 6 
#
# 1 55.0554 7.4419 25.5903 0.0001 -0.0001 0.0005
# 2 7.4419 191.5809 54.7385 0.0001 0.0000 0.0005
# 3 25.5903 54.7385 129.2679 0.0014 0.0010 0.0080
# 4 0.0001 0.0001 0.0014 64.3835 0.0003 0.0025
# 5 -0.0001 0.0000 0.0010 0.0003 17.0881 0.0021
# 6 0.0005 0.0005 0.0080 0.0025 0.0021 10.8787
#
#
#
# Elastic Compliance Matrix: (Units=1/GPa)
#
#
# Indices 1 2 3 4 5 6 
#
# 1 0.020032 0.000404 -0.004137 0.000000 0.000000 0.000002
# 2 0.000404 0.005946 -0.002598 0.000000 0.000000 0.000002
# 3 -0.004137 -0.002598 0.009655 0.000000 -0.000001 -0.000007
# 4 0.000000 0.000000 0.000000 0.015532 0.000000 -0.000004
# 5 0.000000 0.000000 -0.000001 0.000000 0.058520 -0.000011
# 6 0.000002 0.000002 -0.000007 -0.000004 -0.000011 0.091923
#
#
# Mechanical properties :
#
#
# Convention : Reuss Voigt Hill
#
# Bulk Modulus (GPa) = 43.53223 61.27176 52.40199
# Shear Modulus (GPa) = 22.52999 37.67896 30.10448
#
# Velocity S-wave (km/s) = 2.98776 3.86380 3.45367
# Velocity P-wave (km/s) = 5.39910 6.64695 6.05526
#
# Compressibility (1/GPa) = 0.02297149
#
# Stress axis : x y z
#
# Youngs Moduli (GPa) = 49.92105 168.17145 103.57512
#
# Poissons Ratio (x) = -0.06790 0.42844
# Poissons Ratio (y) = -0.02016 0.26908
# Poissons Ratio (z) = 0.20650 0.43689
#
# Static dielectric constant tensor:
#      x y z
#    x 2.113360 0.000000 0.000000 
#    y 0.000000 1.984940 0.000000 
#    z 0.000000 0.000000 1.984450 
# 
# From -- ./inp_files/1040.got.cif
#   From: 2010.05.17/outbox.cif.g08.bks.cpg/sg23_1_cif.got.tgz:1040.got - 2010.06.04 12:02:01.
