data_PCOD9331022
_publ_section_title
;
Structure prediction by ZEFSAII (Michael W. Deem and Ramdas Pophale) SiO2 
 PCOD9331022
Probable space group: I 2 2 2
;
_chemical_formula_sum "Si O2"
_cell_formula_units_Z 48
_cell_length_a 28.323401
_cell_length_b 10.521583
_cell_length_c 8.597456
_cell_angle_alpha 90.000000
_cell_angle_beta 90.000000
_cell_angle_gamma 90.000000
_cell_volume 2562.102195
_symmetry_space_group_name_H-M "I 2 2 2"
_symmetry_group_IT_number 23
_symmetry_cell_setting 'orthorhombic'
loop_
_space_group_symop_operation_xyz
x,y,z
-x,-y,z
x,-y,-z
-x,y,-z
1/2+x,1/2+y,1/2+z
1/2-x,1/2-y,1/2+z
1/2+x,1/2-y,1/2-z
1/2-x,1/2+y,1/2-z
loop_
_atom_site_type_symbol
_atom_site_label
_atom_site_fract_x
_atom_site_fract_y
_atom_site_fract_z
Si Si1 0.793205 0.868760 0.405435
Si Si2 0.513386 0.353409 0.333275
Si Si3 0.779365 0.381453 0.379266
Si Si4 0.876977 0.514064 0.686939
Si Si5 0.892956 0.230675 0.685842
Si Si6 0.543573 0.817148 0.100877
O O1 0.783273 0.746635 0.517171
O O2 0.760207 0.869483 0.252866
O O3 0.846894 0.851055 0.347134
O O4 0.787299 0.000000 0.500000
O O5 0.500000 0.500000 0.332455
O O6 0.500000 0.297903 0.500000
O O7 0.568171 0.332146 0.295411
O O8 0.481634 0.286804 0.204575
O O9 0.771603 0.500000 0.500000
O O10 0.828664 0.409998 0.286883
O O11 0.876093 0.500000 0.500000
O O12 0.878155 0.370659 0.749155
O O13 0.926093 0.587883 0.708702
O O14 0.919948 0.256651 0.522382
O O15 0.500000 0.871781 0.000000
#
# Coordination Sequence:
#
# PCOD9331022 Si02
#       6
#     8   8   8   8   8   8
#     4  12  25  40  69 100 128 171 230 273 340 399
#     4  10  23  40  56  85 131 162 200 266 334 386
#     4  11  22  46  64  93 138 170 216 284 330 397
#     4   9  17  37  63  86 119 158 201 259 312 379
#     4  10  21  39  64  87 119 165 212 257 316 394
#     4   9  18  34  63  87 108 154 206 246 301 386
#
# _framework density 18.734615999999999
#
# number of rings (size 3 to 8) (size 9 to 14) (size 15 to 20)
#    0.000    1.833    5.000    1.000    2.333   10.000 
#    6.000    1.667    0.000    0.000    0.000    0.000 
#    0.000    0.000    0.000    0.000    0.000    0.000 
#
# Total GULP energy -133760.992463 kJ/mol
# GULP energy per Si atom -5573.374686 kJ/mol
# Density = 1.869197 g / cm^3
# Si number density = 18.734616 Si / 1000 Ang^3
#
#
#
# Elastic Constant Matrix: (Units=GPa)
#
#
# Indices 1 2 3 4 5 6 
#
# 1 152.6672 51.5883 59.7399 0.0000 0.0000 0.0000
# 2 51.5883 115.1706 46.3739 0.0000 0.0000 0.0000
# 3 59.7399 46.3739 71.5355 0.0000 0.0000 0.0000
# 4 0.0000 0.0000 0.0000 24.0558 0.0000 0.0000
# 5 0.0000 0.0000 0.0000 0.0000 16.5947 0.0000
# 6 0.0000 0.0000 0.0000 0.0000 0.0000 14.6843
#
#
#
# Elastic Compliance Matrix: (Units=1/GPa)
#
#
# Indices 1 2 3 4 5 6 
#
# 1 0.009917 -0.001499 -0.007310 0.000000 0.000000 0.000000
# 2 -0.001499 0.011976 -0.006512 0.000000 0.000000 0.000000
# 3 -0.007310 -0.006512 0.024306 0.000000 0.000000 0.000000
# 4 0.000000 0.000000 0.000000 0.041570 0.000000 0.000000
# 5 0.000000 0.000000 0.000000 0.000000 0.060260 0.000000
# 6 0.000000 0.000000 0.000000 0.000000 0.000000 0.068100
#
#
# Mechanical properties :
#
#
# Convention : Reuss Voigt Hill
#
# Bulk Modulus (GPa) = 64.28160 72.75305 68.51732
# Shear Modulus (GPa) = 19.84462 23.17838 21.51150
#
# Velocity S-wave (km/s) = 3.25814 3.52119 3.39222
# Velocity P-wave (km/s) = 6.96708 7.44644 7.21074
#
# Compressibility (1/GPa) = 0.01555655
#
# Stress axis : x y z
#
# Youngs Moduli (GPa) = 100.83448 83.49870 41.14260
#
# Poissons Ratio (x) = 0.12514 0.30077
# Poissons Ratio (y) = 0.15112 0.26793
# Poissons Ratio (z) = 0.73714 0.54376
#
# Static dielectric constant tensor:
#      x y z
#    x 1.706450 0.000000 0.000000 
#    y 0.000000 1.685810 0.000000 
#    z 0.000000 0.000000 1.639960 
# 
# From -- ./inp_files/12975.got.cif
#   From: 2010.05.17/outbox.cif.g08.bks.cpg/sg23_7_cif.got.tgz:12975.got - 2010.06.04 12:02:01.
