data_PCOD9331312
_publ_section_title
;
Structure prediction by ZEFSAII (Michael W. Deem and Ramdas Pophale) SiO2 
 PCOD9331312
Probable space group: I 2 2 2
;
_chemical_formula_sum "Si O2"
_cell_formula_units_Z 32
_cell_length_a 9.582517
_cell_length_b 4.874212
_cell_length_c 26.752809
_cell_angle_alpha 90.000000
_cell_angle_beta 90.000000
_cell_angle_gamma 90.000000
_cell_volume 1249.549318
_symmetry_space_group_name_H-M "I 2 2 2"
_symmetry_group_IT_number 23
_symmetry_cell_setting 'orthorhombic'
loop_
_space_group_symop_operation_xyz
x,y,z
-x,-y,z
x,-y,-z
-x,y,-z
1/2+x,1/2+y,1/2+z
1/2-x,1/2-y,1/2+z
1/2+x,1/2-y,1/2-z
1/2-x,1/2+y,1/2-z
loop_
_atom_site_type_symbol
_atom_site_label
_atom_site_fract_x
_atom_site_fract_y
_atom_site_fract_z
Si Si1 0.000000 0.500000 0.000000
Si Si2 0.000000 0.000000 0.500000
Si Si3 0.240605 0.831028 0.435136
Si Si4 0.754927 0.319254 0.633021
Si Si5 0.671044 0.684356 0.760295
Si Si6 0.000000 0.500000 0.179293
O O1 0.888762 0.664459 0.035045
O O2 0.892173 0.799930 0.529460
O O3 0.250075 0.623762 0.388464
O O4 0.205038 0.129872 0.412983
O O5 0.850038 0.272559 0.682348
O O6 0.606588 0.183624 0.647924
O O7 0.690689 0.360823 0.754946
O O8 0.577126 0.793440 0.716309
#
# Coordination Sequence:
#
# PCOD9331312 Si02
#       6
#     2   2   8   8   8   4
#     4  10  26  44  68 104 132 172 232 320 374 408
#     4  10  28  52  72 100 144 192 232 308 376 436
#     4  11  26  46  72 101 140 182 242 298 367 435
#     4  11  24  43  69 102 135 187 240 289 351 437
#     4  10  22  38  59  93 135 177 220 271 340 412
#     4  10  23  42  66  99 146 181 228 300 355 402
#
# _framework density 25.609234000000001
#
# number of rings (size 3 to 8) (size 9 to 14) (size 15 to 20)
#    0.000    1.500    0.000    3.750    0.000   23.000 
#    0.000    0.000    0.000    0.000    0.000    0.000 
#    0.000    0.000    0.000    0.000    0.000    0.000 
#
# Total GULP energy -89436.544548 kJ/mol
# GULP energy per Si atom -5589.784034 kJ/mol
# Density = 2.555095 g / cm^3
# Si number density = 25.609234 Si / 1000 Ang^3
#
#
#
# Elastic Constant Matrix: (Units=GPa)
#
#
# Indices 1 2 3 4 5 6 
#
# 1 125.4663 22.0085 54.1040 0.0000 0.0000 0.0000
# 2 22.0085 73.5007 8.7183 0.0000 0.0000 0.0000
# 3 54.1040 8.7183 137.0021 0.0000 0.0000 0.0000
# 4 0.0000 0.0000 0.0000 29.1931 0.0000 0.0000
# 5 0.0000 0.0000 0.0000 0.0000 43.4029 0.0000
# 6 0.0000 0.0000 0.0000 0.0000 0.0000 18.2987
#
#
#
# Elastic Compliance Matrix: (Units=1/GPa)
#
#
# Indices 1 2 3 4 5 6 
#
# 1 0.010063 -0.002561 -0.003811 0.000000 0.000000 0.000000
# 2 -0.002561 0.014361 0.000098 0.000000 0.000000 0.000000
# 3 -0.003811 0.000098 0.008798 0.000000 0.000000 0.000000
# 4 0.000000 0.000000 0.000000 0.034255 0.000000 0.000000
# 5 0.000000 0.000000 0.000000 0.000000 0.023040 0.000000
# 6 0.000000 0.000000 0.000000 0.000000 0.000000 0.054649
#
#
# Mechanical properties :
#
#
# Convention : Reuss Voigt Hill
#
# Bulk Modulus (GPa) = 48.37372 56.18120 52.27746
# Shear Modulus (GPa) = 30.37580 34.92150 32.64865
#
# Velocity S-wave (km/s) = 3.44776 3.69674 3.57442
# Velocity P-wave (km/s) = 5.89742 6.34087 6.12316
#
# Compressibility (1/GPa) = 0.02067238
#
# Stress axis : x y z
#
# Youngs Moduli (GPa) = 99.37474 69.63491 113.66262
#
# Poissons Ratio (x) = 0.17834 0.43317
# Poissons Ratio (y) = 0.25451 -0.01109
# Poissons Ratio (z) = 0.37872 -0.00679
#
# Static dielectric constant tensor:
#      x y z
#    x 2.157040 0.000000 0.000000 
#    y 0.000000 1.945150 0.000000 
#    z 0.000000 0.000000 2.021830 
# 
# From -- ./inp_files/30123.got.cif
#   From: 2010.05.17/outbox.cif.g08.bks.cpg/sg23_16_cif.got.tgz:30123.got - 2010.06.04 12:02:01.
