data_PCOD9331989
_publ_section_title
;
Structure prediction by ZEFSAII (Michael W. Deem and Ramdas Pophale) SiO2 
 PCOD9331989
Probable space group: I 2 2 2
;
_chemical_formula_sum "Si O2"
_cell_formula_units_Z 54
_cell_length_a 5.978266
_cell_length_b 21.144943
_cell_length_c 18.561868
_cell_angle_alpha 90.000000
_cell_angle_beta 90.000000
_cell_angle_gamma 90.000000
_cell_volume 2346.407475
_symmetry_space_group_name_H-M "I 2 2 2"
_symmetry_group_IT_number 23
_symmetry_cell_setting 'orthorhombic'
loop_
_space_group_symop_operation_xyz
x,y,z
-x,-y,z
x,-y,-z
-x,y,-z
1/2+x,1/2+y,1/2+z
1/2-x,1/2-y,1/2+z
1/2+x,1/2-y,1/2-z
1/2-x,1/2+y,1/2-z
loop_
_atom_site_type_symbol
_atom_site_label
_atom_site_fract_x
_atom_site_fract_y
_atom_site_fract_z
Si Si1 0.752711 0.478339 0.418433
Si Si2 0.603096 0.647679 0.628899
Si Si3 0.661623 0.593449 0.245229
Si Si4 0.491097 0.802695 0.777972
Si Si5 0.178259 0.739564 0.129620
Si Si6 0.500000 0.500000 0.000000
Si Si7 0.209748 0.904474 0.617523
Si Si8 0.500000 0.000000 0.699153
O O1 0.500000 0.500000 0.393024
O O2 0.759912 0.500000 0.500000
O O3 0.734492 0.402122 0.419032
O O4 0.000000 0.500000 0.387338
O O5 0.419152 0.609765 0.674753
O O6 0.773247 0.663524 0.693091
O O7 0.485723 0.709009 0.593427
O O8 0.483234 0.597670 0.179882
O O9 0.845916 0.648169 0.239326
O O10 0.785713 0.526061 0.241394
O O11 0.582884 0.769196 0.849933
O O12 0.419459 0.759726 0.711605
O O13 0.215563 0.668282 0.101459
O O14 0.629689 0.549627 0.947450
O O15 0.417464 0.942246 0.650750
#
# Coordination Sequence:
#
# PCOD9331989 Si02
#       8
#     8   8   8   8   8   2   8   4
#     4  10  25  50  76 102 149 204 253 306 362 439
#     4  11  24  40  70 114 142 191 236 298 383 461
#     4  11  22  39  63 106 146 175 232 303 381 448
#     4  11  20  37  66 102 147 178 218 293 382 451
#     4  11  21  38  67 103 145 184 229 299 375 455
#     4  12  28  50  72  96 142 204 272 306 372 448
#     4  12  25  46  68  96 140 197 246 311 366 446
#     4  12  22  41  68  96 141 188 234 310 376 446
#
# _framework density 23.013905000000001
#
# number of rings (size 3 to 8) (size 9 to 14) (size 15 to 20)
#    0.000    0.889    5.926    0.889    4.148    2.667 
#    1.333    0.000    6.519    0.000    0.000    0.000 
#    0.000    0.000    0.000    0.000    0.000    0.000 
#
# Total GULP energy -150391.254591 kJ/mol
# GULP energy per Si atom -5570.046466 kJ/mol
# Density = 2.296152 g / cm^3
# Si number density = 23.013905 Si / 1000 Ang^3
#
#
#
# Elastic Constant Matrix: (Units=GPa)
#
#
# Indices 1 2 3 4 5 6 
#
# 1 98.9242 52.1973 15.9664 0.0000 0.0000 0.0000
# 2 52.1973 182.8491 45.2148 0.0000 0.0000 0.0000
# 3 15.9664 45.2148 55.4407 0.0000 0.0000 0.0000
# 4 0.0000 0.0000 0.0000 25.0040 0.0000 0.0000
# 5 0.0000 0.0000 0.0000 0.0000 16.4283 0.0000
# 6 0.0000 0.0000 0.0000 0.0000 0.0000 24.8577
#
#
#
# Elastic Compliance Matrix: (Units=1/GPa)
#
#
# Indices 1 2 3 4 5 6 
#
# 1 0.011931 -0.003202 -0.000825 0.000000 0.000000 0.000000
# 2 -0.003202 0.007710 -0.005366 0.000000 0.000000 0.000000
# 3 -0.000825 -0.005366 0.022651 0.000000 0.000000 0.000000
# 4 0.000000 0.000000 0.000000 0.039994 0.000000 0.000000
# 5 0.000000 0.000000 0.000000 0.000000 0.060871 0.000000
# 6 0.000000 0.000000 0.000000 0.000000 0.000000 0.040229
#
#
# Mechanical properties :
#
#
# Convention : Reuss Voigt Hill
#
# Bulk Modulus (GPa) = 42.54004 62.66343 52.60173
# Shear Modulus (GPa) = 23.80887 28.18038 25.99463
#
# Velocity S-wave (km/s) = 3.21992 3.50307 3.36448
# Velocity P-wave (km/s) = 5.68757 6.60679 6.16434
#
# Compressibility (1/GPa) = 0.02350727
#
# Stress axis : x y z
#
# Youngs Moduli (GPa) = 83.81224 129.70340 44.14861
#
# Poissons Ratio (x) = 0.41532 0.03641
# Poissons Ratio (y) = 0.26838 0.23689
# Poissons Ratio (z) = 0.06912 0.69594
#
# Static dielectric constant tensor:
#      x y z
#    x 1.993770 0.000000 0.000000 
#    y 0.000000 1.990070 0.000000 
#    z 0.000000 0.000000 2.031780 
# 
# From -- ./inp_files/25750.got.cif
#   From: 2010.05.17/outbox.cif.g08.bks.cpg/sg23_13_cif.got.tgz:25750.got - 2010.06.04 12:02:01.
