data_PCOD9331224
_publ_section_title
;
Structure prediction by ZEFSAII (Michael W. Deem and Ramdas Pophale) SiO2 
 PCOD9331224
Probable space group: I 2 2 2
;
_chemical_formula_sum "Si O2"
_cell_formula_units_Z 48
_cell_length_a 11.014723
_cell_length_b 14.193681
_cell_length_c 13.750285
_cell_angle_alpha 90.000000
_cell_angle_beta 90.000000
_cell_angle_gamma 90.000000
_cell_volume 2149.712195
_symmetry_space_group_name_H-M "I 2 2 2"
_symmetry_group_IT_number 23
_symmetry_cell_setting 'orthorhombic'
loop_
_space_group_symop_operation_xyz
x,y,z
-x,-y,z
x,-y,-z
-x,y,-z
1/2+x,1/2+y,1/2+z
1/2-x,1/2-y,1/2+z
1/2+x,1/2-y,1/2-z
1/2-x,1/2+y,1/2-z
loop_
_atom_site_type_symbol
_atom_site_label
_atom_site_fract_x
_atom_site_fract_y
_atom_site_fract_z
Si Si1 0.500000 0.000000 0.267933
Si Si2 0.762072 0.188030 0.981259
Si Si3 0.500000 0.248776 0.000000
Si Si4 0.581144 0.152228 0.409443
Si Si5 0.776713 0.374157 0.280253
Si Si6 0.541059 0.597084 0.836282
Si Si7 0.894881 0.801996 0.820187
O O1 0.584977 0.067722 0.334135
O O2 0.401587 0.066535 0.215804
O O3 0.618859 0.186791 0.991544
O O4 0.802119 0.295641 0.953346
O O5 0.786922 0.127243 0.885392
O O6 0.826865 0.164608 0.082323
O O7 0.478350 0.315567 0.907574
O O8 0.500000 0.119256 0.500000
O O9 0.503729 0.234894 0.357779
O O10 0.679074 0.407881 0.201212
O O11 0.811483 0.267759 0.245097
O O12 0.500000 0.500000 0.883073
O O13 0.452139 0.617192 0.745134
#
# Coordination Sequence:
#
# PCOD9331224 Si02
#       7
#     4   8   4   8   8   8   8
#     4  10  23  38  64 105 136 178 216 281 349 398
#     4  11  22  41  72  98 129 181 234 273 325 422
#     4  12  25  42  68 103 138 172 226 287 346 396
#     4   9  19  37  65  95 130 172 225 274 324 403
#     4  11  23  43  69  99 139 178 229 275 347 408
#     4  12  26  45  68 103 139 177 222 289 346 407
#     4  10  21  43  70  94 132 180 226 272 338 408
#
# _framework density 22.328569000000002
#
# number of rings (size 3 to 8) (size 9 to 14) (size 15 to 20)
#    0.000    1.333    5.000    0.500    2.333    0.000 
#    3.000    1.667    0.000    0.000    0.000    0.000 
#    0.000    0.000    0.000    0.000    0.000    0.000 
#
# Total GULP energy -134110.504316 kJ/mol
# GULP energy per Si atom -5587.937680 kJ/mol
# Density = 2.227775 g / cm^3
# Si number density = 22.328569 Si / 1000 Ang^3
#
#
#
# Elastic Constant Matrix: (Units=GPa)
#
#
# Indices 1 2 3 4 5 6 
#
# 1 85.3793 -0.2558 13.3986 0.0000 0.0000 0.0000
# 2 -0.2558 24.5289 4.8930 0.0000 0.0000 0.0000
# 3 13.3986 4.8930 105.6419 0.0000 0.0000 0.0000
# 4 0.0000 0.0000 0.0000 -7.9528 0.0000 0.0000
# 5 0.0000 0.0000 0.0000 0.0000 30.6100 0.0000
# 6 0.0000 0.0000 0.0000 0.0000 0.0000 28.2570
#
#
#
# Elastic Compliance Matrix: (Units=1/GPa)
#
#
# Indices 1 2 3 4 5 6 
#
# 1 0.011955 0.000431 -0.001536 0.000000 0.000000 0.000000
# 2 0.000431 0.041164 -0.001961 0.000000 0.000000 0.000000
# 3 -0.001536 -0.001961 0.009752 0.000000 0.000000 0.000000
# 4 0.000000 0.000000 0.000000 -0.125742 0.000000 0.000000
# 5 0.000000 0.000000 0.000000 0.000000 0.032669 0.000000
# 6 0.000000 0.000000 0.000000 0.000000 0.000000 0.035390
#
#
# Mechanical properties :
#
#
# Convention : Reuss Voigt Hill
#
# Bulk Modulus (GPa) = 17.62497 27.95797 22.79147
# Shear Modulus (GPa) = 165.38620 23.35045 94.36833
#
# Velocity S-wave (km/s) = 8.61569 3.23734 6.50809
# Velocity P-wave (km/s) = 10.33848 5.14997 8.16720
#
# Compressibility (1/GPa) = 0.05673770
#
# Stress axis : x y z
#
# Youngs Moduli (GPa) = 83.64832 24.29310 102.54711
#
# Poissons Ratio (x) = -0.01047 0.15753
# Poissons Ratio (y) = -0.03606 0.20112
# Poissons Ratio (z) = 0.12850 0.04765
#
# Static dielectric constant tensor:
#      x y z
#    x 1.817990 0.000000 0.000000 
#    y 0.000000 1.806010 0.000000 
#    z 0.000000 0.000000 1.853150 
# 
# From -- ./inp_files/16727.got.cif
#   From: 2010.05.17/outbox.cif.g08.bks.cpg/sg23_9_cif.got.tgz:16727.got - 2010.06.04 12:02:01.
