data_PCOD9331589
_publ_section_title
;
Structure prediction by ZEFSAII (Michael W. Deem and Ramdas Pophale) SiO2 
 PCOD9331589
Probable space group: I 2 2 2
;
_chemical_formula_sum "Si O2"
_cell_formula_units_Z 60
_cell_length_a 20.361837
_cell_length_b 5.348326
_cell_length_c 22.656408
_cell_angle_alpha 90.000000
_cell_angle_beta 90.000000
_cell_angle_gamma 90.000000
_cell_volume 2467.322304
_symmetry_space_group_name_H-M "I 2 2 2"
_symmetry_group_IT_number 23
_symmetry_cell_setting 'orthorhombic'
loop_
_space_group_symop_operation_xyz
x,y,z
-x,-y,z
x,-y,-z
-x,y,-z
1/2+x,1/2+y,1/2+z
1/2-x,1/2-y,1/2+z
1/2+x,1/2-y,1/2-z
1/2-x,1/2+y,1/2-z
loop_
_atom_site_type_symbol
_atom_site_label
_atom_site_fract_x
_atom_site_fract_y
_atom_site_fract_z
Si Si1 0.841991 0.164919 0.942593
Si Si2 0.828272 0.280354 0.284789
Si Si3 0.718594 0.417333 0.900632
Si Si4 0.072810 0.395420 0.144161
Si Si5 0.000000 0.500000 0.363085
Si Si6 0.410724 0.714604 0.227351
Si Si7 0.808782 0.210887 0.157458
Si Si8 0.068617 0.112522 0.565980
O O1 0.772189 0.309240 0.946182
O O2 0.905295 0.320012 0.922423
O O3 0.834709 0.011621 0.881847
O O4 0.851335 0.000000 0.000000
O O5 0.783610 0.255205 0.342162
O O6 0.858957 0.555963 0.280977
O O7 0.791128 0.191189 0.225823
O O8 0.883634 0.059501 0.289346
O O9 0.748861 0.674536 0.878597
O O10 0.643607 0.445096 0.918417
O O11 0.071794 0.217656 0.202886
O O12 0.130143 0.594827 0.158839
O O13 0.000000 0.500000 0.141853
O O14 0.032122 0.304448 0.316715
O O15 0.055838 0.606225 0.408459
O O16 0.066821 0.000000 0.500000
O O17 0.000000 0.000000 0.589840
#
# Coordination Sequence:
#
# PCOD9331589 Si02
#       8
#     8   8   8   8   4   8   8   8
#     4  11  26  48  71 109 153 207 266 319 394 493
#     4  11  24  44  73 115 161 197 265 334 403 474
#     4  11  26  44  74 105 148 213 259 324 406 470
#     4  10  22  46  72 113 151 207 253 330 403 477
#     4  12  24  45  76 116 156 211 264 340 412 488
#     4  11  23  42  76 116 162 201 260 331 413 486
#     4  10  25  42  71 108 153 194 254 324 391 475
#     4  11  27  50  72 107 152 203 273 335 392 484
#
# _framework density 24.317861000000001
#
# number of rings (size 3 to 8) (size 9 to 14) (size 15 to 20)
#    0.000    1.200    3.333    0.800    5.600    4.267 
#    2.400    2.000    0.000    0.000    0.000    0.000 
#    0.000    0.000    0.000    0.000    0.000    0.000 
#
# Total GULP energy -167393.561194 kJ/mol
# GULP energy per Si atom -5579.785373 kJ/mol
# Density = 2.426251 g / cm^3
# Si number density = 24.317861 Si / 1000 Ang^3
#
#
#
# Elastic Constant Matrix: (Units=GPa)
#
#
# Indices 1 2 3 4 5 6 
#
# 1 118.6837 26.0599 73.6267 0.0000 0.0000 0.0000
# 2 26.0599 38.3093 19.2906 0.0000 0.0000 0.0000
# 3 73.6267 19.2906 137.1195 0.0000 0.0000 0.0000
# 4 0.0000 0.0000 0.0000 34.7412 0.0000 0.0000
# 5 0.0000 0.0000 0.0000 0.0000 -10.3682 0.0000
# 6 0.0000 0.0000 0.0000 0.0000 0.0000 29.1667
#
#
#
# Elastic Compliance Matrix: (Units=1/GPa)
#
#
# Indices 1 2 3 4 5 6 
#
# 1 0.013846 -0.006108 -0.006575 0.000000 0.000000 0.000000
# 2 -0.006108 0.030788 -0.001052 0.000000 0.000000 0.000000
# 3 -0.006575 -0.001052 0.010972 0.000000 0.000000 0.000000
# 4 0.000000 0.000000 0.000000 0.028784 0.000000 0.000000
# 5 0.000000 0.000000 0.000000 0.000000 -0.096449 0.000000
# 6 0.000000 0.000000 0.000000 0.000000 0.000000 0.034286
#
#
# Mechanical properties :
#
#
# Convention : Reuss Voigt Hill
#
# Bulk Modulus (GPa) = 35.54230 59.11853 47.33042
# Shear Modulus (GPa) = 84.63930 22.38363 53.51147
#
# Velocity S-wave (km/s) = 5.90601 3.03720 4.69604
# Velocity P-wave (km/s) = 7.82019 6.05500 6.99351
#
# Compressibility (1/GPa) = 0.02813549
#
# Stress axis : x y z
#
# Youngs Moduli (GPa) = 72.22331 32.48047 91.14492
#
# Poissons Ratio (x) = 0.19838 0.59931
# Poissons Ratio (y) = 0.44112 0.09587
# Poissons Ratio (z) = 0.47489 0.03416
#
# Static dielectric constant tensor:
#      x y z
#    x 2.008480 0.000000 0.000000 
#    y 0.000000 2.301090 0.000000 
#    z 0.000000 0.000000 1.980940 
# 
# From -- ./inp_files/28698.got.cif
#   From: 2010.05.17/outbox.cif.g08.bks.cpg/sg23_15_cif.got.tgz:28698.got - 2010.06.04 12:02:01.
