data_PCOD9331679
_publ_section_title
;
Structure prediction by ZEFSAII (Michael W. Deem and Ramdas Pophale) SiO2 
 PCOD9331679
Probable space group: I 2 2 2
;
_chemical_formula_sum "Si O2"
_cell_formula_units_Z 58
_cell_length_a 23.550832
_cell_length_b 9.688912
_cell_length_c 12.431807
_cell_angle_alpha 90.000000
_cell_angle_beta 90.000000
_cell_angle_gamma 90.000000
_cell_volume 2836.713824
_symmetry_space_group_name_H-M "I 2 2 2"
_symmetry_group_IT_number 23
_symmetry_cell_setting 'orthorhombic'
loop_
_space_group_symop_operation_xyz
x,y,z
-x,-y,z
x,-y,-z
-x,y,-z
1/2+x,1/2+y,1/2+z
1/2-x,1/2-y,1/2+z
1/2+x,1/2-y,1/2-z
1/2-x,1/2+y,1/2-z
loop_
_atom_site_type_symbol
_atom_site_label
_atom_site_fract_x
_atom_site_fract_y
_atom_site_fract_z
Si Si1 0.185891 0.284882 0.552658
Si Si2 0.346461 0.528359 0.796629
Si Si3 0.905068 0.664595 0.123598
Si Si4 0.705568 0.141894 0.533837
Si Si5 0.000000 0.500000 0.000000
Si Si6 0.781977 0.487022 0.260754
Si Si7 0.858623 0.293156 0.667456
Si Si8 0.934035 0.018233 0.872674
O O1 0.162810 0.148909 0.615814
O O2 0.247252 0.253881 0.495566
O O3 0.196703 0.404821 0.636832
O O4 0.144308 0.329041 0.456981
O O5 0.285329 0.498145 0.745052
O O6 0.363171 0.373808 0.836841
O O7 0.392276 0.567778 0.704522
O O8 0.899524 0.625264 0.249930
O O9 0.915525 0.824981 0.138147
O O10 0.850771 0.650882 0.041555
O O11 0.958279 0.592594 0.070408
O O12 0.695408 0.104524 0.658828
O O13 0.736227 0.000000 0.500000
O O14 0.801951 0.647009 0.272445
O O15 0.000000 0.000000 0.843722
O O16 0.927779 0.000000 0.000000
#
# Coordination Sequence:
#
# PCOD9331679 Si02
#       8
#     8   8   8   8   2   8   8   8
#     4  12  24  38  63  96 135 175 211 255 327 408
#     4  11  22  39  62  90 124 175 214 248 329 391
#     4  11  23  39  67  92 129 167 220 270 334 382
#     4  12  21  39  61  94 136 164 209 264 325 395
#     4  12  20  40  66 104 114 180 220 274 328 376
#     4  12  23  37  61  98 132 169 214 258 322 397
#     4  11  22  42  58  91 132 169 208 267 313 391
#     4  10  23  42  60  91 128 159 213 286 324 368
#
# _framework density 20.446193999999998
#
# number of rings (size 3 to 8) (size 9 to 14) (size 15 to 20)
#    0.000    0.690    4.828    4.138    1.931    1.103 
#    2.483    0.000    0.000    6.621    0.000    0.000 
#    0.000    0.000    0.000    0.000    0.000    0.000 
#
# Total GULP energy -161492.927945 kJ/mol
# GULP energy per Si atom -5568.721653 kJ/mol
# Density = 2.039966 g / cm^3
# Si number density = 20.446194 Si / 1000 Ang^3
#
#
#
# Elastic Constant Matrix: (Units=GPa)
#
#
# Indices 1 2 3 4 5 6 
#
# 1 82.6655 9.3647 61.9961 0.0000 0.0000 0.0000
# 2 9.3647 42.7475 20.7468 0.0000 0.0000 0.0000
# 3 61.9961 20.7468 160.5411 0.0000 0.0000 0.0000
# 4 0.0000 0.0000 0.0000 44.2697 0.0000 0.0000
# 5 0.0000 0.0000 0.0000 0.0000 28.4166 0.0000
# 6 0.0000 0.0000 0.0000 0.0000 0.0000 5.5615
#
#
#
# Elastic Compliance Matrix: (Units=1/GPa)
#
#
# Indices 1 2 3 4 5 6 
#
# 1 0.017042 -0.000575 -0.006507 0.000000 0.000000 0.000000
# 2 -0.000575 0.024978 -0.003006 0.000000 0.000000 0.000000
# 3 -0.006507 -0.003006 0.009130 0.000000 0.000000 0.000000
# 4 0.000000 0.000000 0.000000 0.022589 0.000000 0.000000
# 5 0.000000 0.000000 0.000000 0.000000 0.035191 0.000000
# 6 0.000000 0.000000 0.000000 0.000000 0.000000 0.179808
#
#
# Mechanical properties :
#
#
# Convention : Reuss Voigt Hill
#
# Bulk Modulus (GPa) = 32.28483 52.24100 42.26291
# Shear Modulus (GPa) = 15.66228 28.57265 22.11747
#
# Velocity S-wave (km/s) = 2.77072 3.74231 3.29255
# Velocity P-wave (km/s) = 5.10492 6.65426 5.93040
#
# Compressibility (1/GPa) = 0.03097430
#
# Stress axis : x y z
#
# Youngs Moduli (GPa) = 58.67878 40.03521 109.52832
#
# Poissons Ratio (x) = 0.02304 0.71267
# Poissons Ratio (y) = 0.03377 0.32921
# Poissons Ratio (z) = 0.38181 0.12033
#
# Static dielectric constant tensor:
#      x y z
#    x 1.504140 0.000000 0.000000 
#    y 0.000000 1.780650 0.000000 
#    z 0.000000 0.000000 1.995680 
# 
# From -- ./inp_files/18616.got.cif
#   From: 2010.05.17/outbox.cif.g08.bks.cpg/sg23_10_cif.got.tgz:18616.got - 2010.06.04 12:02:01.
