data_PCOD9331028
_publ_section_title
;
Structure prediction by ZEFSAII (Michael W. Deem and Ramdas Pophale) SiO2 
 PCOD9331028
Probable space group: I 2 2 2
;
_chemical_formula_sum "Si O2"
_cell_formula_units_Z 56
_cell_length_a 9.061262
_cell_length_b 20.822968
_cell_length_c 12.958037
_cell_angle_alpha 90.000000
_cell_angle_beta 90.000000
_cell_angle_gamma 90.000000
_cell_volume 2444.953114
_symmetry_space_group_name_H-M "I 2 2 2"
_symmetry_group_IT_number 23
_symmetry_cell_setting 'orthorhombic'
loop_
_space_group_symop_operation_xyz
x,y,z
-x,-y,z
x,-y,-z
-x,y,-z
1/2+x,1/2+y,1/2+z
1/2-x,1/2-y,1/2+z
1/2+x,1/2-y,1/2-z
1/2-x,1/2+y,1/2-z
loop_
_atom_site_type_symbol
_atom_site_label
_atom_site_fract_x
_atom_site_fract_y
_atom_site_fract_z
Si Si1 0.381086 0.946481 0.868911
Si Si2 0.918660 0.791613 0.279186
Si Si3 0.628625 0.626017 0.085261
Si Si4 0.837233 0.969059 0.749905
Si Si5 0.273270 0.248545 0.990458
Si Si6 0.109827 0.313306 0.687706
Si Si7 0.159843 0.890856 0.040105
O O1 0.457709 0.882814 0.824349
O O2 0.500000 0.000000 0.892041
O O3 0.273804 0.974795 0.782051
O O4 0.283493 0.922662 0.965970
O O5 0.835665 0.763645 0.378674
O O6 0.784422 0.817844 0.212426
O O7 0.034838 0.842963 0.320089
O O8 0.016223 0.732398 0.237215
O O9 0.696019 0.563983 0.139878
O O10 0.743331 0.679296 0.040275
O O11 0.500000 0.613521 0.000000
O O12 0.824011 0.918479 0.844985
O O13 0.000000 0.000000 0.746638
O O14 0.385000 0.220265 0.076176
O O15 0.169071 0.186701 0.971159
O O16 0.000000 0.911888 0.000000
#
# Coordination Sequence:
#
# PCOD9331028 Si02
#       7
#     8   8   8   8   8   8   8
#     4  11  26  43  61 100 147 191 234 281 361 442
#     4  10  21  39  64  92 127 164 216 282 339 401
#     4   9  21  43  66  97 133 177 237 296 347 411
#     4  12  24  41  68  98 139 192 241 291 344 429
#     4   9  22  39  62  95 128 167 218 280 351 398
#     4  10  22  40  63  95 131 171 220 278 338 411
#     4  11  24  42  65 100 143 180 229 298 355 423
#
# _framework density 22.904326000000001
#
# number of rings (size 3 to 8) (size 9 to 14) (size 15 to 20)
#    0.000    1.714    1.429    2.571    8.000    1.429 
#    2.571    0.000    0.000    0.000    0.000    9.000 
#    0.000    0.000    0.000    0.000    0.000    0.000 
#
# Total GULP energy -156261.318332 kJ/mol
# GULP energy per Si atom -5580.761369 kJ/mol
# Density = 2.285219 g / cm^3
# Si number density = 22.904326 Si / 1000 Ang^3
#
#
#
# Elastic Constant Matrix: (Units=GPa)
#
#
# Indices 1 2 3 4 5 6 
#
# 1 43.8711 10.3999 -9.0689 0.0000 0.0000 0.0000
# 2 10.3999 94.6796 40.1793 0.0000 0.0000 0.0000
# 3 -9.0689 40.1793 48.3587 -0.0001 0.0000 0.0000
# 4 0.0000 0.0000 -0.0001 23.1790 0.0000 0.0000
# 5 0.0000 0.0000 0.0000 0.0000 9.4632 0.0000
# 6 0.0000 0.0000 0.0000 0.0000 0.0000 42.0806
#
#
#
# Elastic Compliance Matrix: (Units=1/GPa)
#
#
# Indices 1 2 3 4 5 6 
#
# 1 0.027084 -0.007924 0.011663 0.000000 0.000000 0.000000
# 2 -0.007924 0.018633 -0.016967 0.000000 0.000000 0.000000
# 3 0.011663 -0.016967 0.036964 0.000000 0.000000 0.000000
# 4 0.000000 0.000000 0.000000 0.043143 0.000000 0.000000
# 5 0.000000 0.000000 0.000000 0.000000 0.105672 0.000000
# 6 0.000000 0.000000 0.000000 0.000000 0.000000 0.023764
#
#
# Mechanical properties :
#
#
# Convention : Reuss Voigt Hill
#
# Bulk Modulus (GPa) = 17.78642 29.99224 23.88933
# Shear Modulus (GPa) = 16.64132 24.63782 20.63957
#
# Velocity S-wave (km/s) = 2.69840 3.28332 3.00512
# Velocity P-wave (km/s) = 4.18221 5.24372 4.74275
#
# Compressibility (1/GPa) = 0.05622268
#
# Stress axis : x y z
#
# Youngs Moduli (GPa) = 36.92273 53.66854 27.05362
#
# Poissons Ratio (x) = 0.42530 -0.31553
# Poissons Ratio (y) = 0.29259 0.45903
# Poissons Ratio (z) = -0.43064 0.91062
#
# Static dielectric constant tensor:
#      x y z
#    x 1.901060 0.000000 0.000000 
#    y 0.000000 1.942960 0.000000 
#    z 0.000000 0.000000 1.860940 
# 
# From -- ./inp_files/20197.got.cif
#   From: 2010.05.17/outbox.cif.g08.bks.cpg/sg23_11_cif.got.tgz:20197.got - 2010.06.04 12:02:01.
