data_PCOD9331988
_publ_section_title
;
Structure prediction by ZEFSAII (Michael W. Deem and Ramdas Pophale) SiO2 
 PCOD9331988
Probable space group: I 2 2 2
;
_chemical_formula_sum "Si O2"
_cell_formula_units_Z 44
_cell_length_a 23.487568
_cell_length_b 5.774107
_cell_length_c 14.423438
_cell_angle_alpha 90.000000
_cell_angle_beta 90.000000
_cell_angle_gamma 90.000000
_cell_volume 1956.102779
_symmetry_space_group_name_H-M "I 2 2 2"
_symmetry_group_IT_number 23
_symmetry_cell_setting 'orthorhombic'
loop_
_space_group_symop_operation_xyz
x,y,z
-x,-y,z
x,-y,-z
-x,y,-z
1/2+x,1/2+y,1/2+z
1/2-x,1/2-y,1/2+z
1/2+x,1/2-y,1/2-z
1/2-x,1/2+y,1/2-z
loop_
_atom_site_type_symbol
_atom_site_label
_atom_site_fract_x
_atom_site_fract_y
_atom_site_fract_z
Si Si1 0.715941 0.500000 0.500000
Si Si2 0.899418 0.855456 0.268690
Si Si3 0.435462 0.748767 0.034915
Si Si4 0.364760 0.125272 0.594653
Si Si5 0.213473 0.635382 0.654261
Si Si6 0.172295 0.747860 0.242491
O O1 0.675793 0.660245 0.564122
O O2 0.758146 0.332217 0.555705
O O3 0.937462 0.774759 0.353332
O O4 0.908342 0.729087 0.170682
O O5 0.835962 0.799874 0.310166
O O6 0.888028 0.122933 0.246628
O O7 0.409355 0.500000 0.000000
O O8 0.500000 0.748569 0.000000
O O9 0.411255 0.000000 0.000000
O O10 0.384328 0.000000 0.500000
O O11 0.332588 0.936577 0.657996
O O12 0.183306 0.386857 0.662735
O O13 0.268485 0.625370 0.720536
#
# Coordination Sequence:
#
# PCOD9331988 Si02
#       6
#     4   8   8   8   8   8
#     4  12  22  34  50  78 121 189 224 272 328 386
#     4  11  24  37  62  91 128 176 234 287 352 431
#     4  10  25  50  75 102 135 167 225 304 379 435
#     4  11  21  36  56  83 130 177 231 277 335 413
#     4  11  21  32  51  79 123 175 226 279 321 393
#     4  11  20  36  52  79 126 177 231 277 335 392
#
# _framework density 22.493706
#
# number of rings (size 3 to 8) (size 9 to 14) (size 15 to 20)
#    0.000    1.091    5.455    1.091    6.364    0.000 
#    0.000    0.000    0.000    0.000    0.000    2.545 
#    0.000    0.000    0.000    0.000    0.000    0.000 
#
# Total GULP energy -122469.287165 kJ/mol
# GULP energy per Si atom -5566.785780 kJ/mol
# Density = 2.244251 g / cm^3
# Si number density = 22.493706 Si / 1000 Ang^3
#
#
#
# Elastic Constant Matrix: (Units=GPa)
#
#
# Indices 1 2 3 4 5 6 
#
# 1 35.1274 4.7201 29.2257 0.0000 0.0000 0.0000
# 2 4.7201 101.7542 31.3852 0.0000 0.0000 0.0000
# 3 29.2257 31.3852 151.5931 0.0000 0.0000 0.0000
# 4 0.0000 0.0000 0.0000 43.6722 0.0000 0.0000
# 5 0.0000 0.0000 0.0000 0.0000 39.7339 0.0000
# 6 0.0000 0.0000 0.0000 0.0000 0.0000 7.4208
#
#
#
# Elastic Compliance Matrix: (Units=1/GPa)
#
#
# Indices 1 2 3 4 5 6 
#
# 1 0.033928 0.000474 -0.006639 0.000000 0.000000 0.000000
# 2 0.000474 0.010505 -0.002266 0.000000 0.000000 0.000000
# 3 -0.006639 -0.002266 0.008346 0.000000 0.000000 0.000000
# 4 0.000000 0.000000 0.000000 0.022898 0.000000 0.000000
# 5 0.000000 0.000000 0.000000 0.000000 0.025167 0.000000
# 6 0.000000 0.000000 0.000000 0.000000 0.000000 0.134757
#
#
# Mechanical properties :
#
#
# Convention : Reuss Voigt Hill
#
# Bulk Modulus (GPa) = 27.84320 46.57075 37.20698
# Shear Modulus (GPa) = 18.90828 33.04162 25.97495
#
# Velocity S-wave (km/s) = 2.90246 3.83682 3.40187
# Velocity P-wave (km/s) = 4.86184 6.35430 5.65750
#
# Compressibility (1/GPa) = 0.03591542
#
# Stress axis : x y z
#
# Youngs Moduli (GPa) = 29.47441 95.19634 119.82159
#
# Poissons Ratio (x) = -0.04512 0.79550
# Poissons Ratio (y) = -0.01397 0.27154
# Poissons Ratio (z) = 0.19568 0.21573
#
# Static dielectric constant tensor:
#      x y z
#    x 1.776620 0.000000 0.000000 
#    y 0.000000 2.211660 0.000000 
#    z 0.000000 0.000000 1.901640 
# 
# From -- ./inp_files/22677.got.cif
#   From: 2010.05.17/outbox.cif.g08.bks.cpg/sg23_12_cif.got.tgz:22677.got - 2010.06.04 12:02:01.
