data_PCOD9331058
_publ_section_title
;
Structure prediction by ZEFSAII (Michael W. Deem and Ramdas Pophale) SiO2 
 PCOD9331058
Probable space group: I 2 2 2
;
_chemical_formula_sum "Si O2"
_cell_formula_units_Z 64
_cell_length_a 11.643315
_cell_length_b 14.670424
_cell_length_c 15.785690
_cell_angle_alpha 90.000000
_cell_angle_beta 90.000000
_cell_angle_gamma 90.000000
_cell_volume 2696.391087
_symmetry_space_group_name_H-M "I 2 2 2"
_symmetry_group_IT_number 23
_symmetry_cell_setting 'orthorhombic'
loop_
_space_group_symop_operation_xyz
x,y,z
-x,-y,z
x,-y,-z
-x,y,-z
1/2+x,1/2+y,1/2+z
1/2-x,1/2-y,1/2+z
1/2+x,1/2-y,1/2-z
1/2-x,1/2+y,1/2-z
loop_
_atom_site_type_symbol
_atom_site_label
_atom_site_fract_x
_atom_site_fract_y
_atom_site_fract_z
Si Si1 0.569060 0.845202 0.245813
Si Si2 0.562334 0.745983 0.409329
Si Si3 0.167810 0.045173 0.910847
Si Si4 0.556478 0.403400 0.113455
Si Si5 0.212379 0.196856 0.488695
Si Si6 0.322223 0.322922 0.172475
Si Si7 0.271111 0.476459 0.756643
Si Si8 0.918190 0.374938 0.576693
O O1 0.509374 0.800000 0.328943
O O2 0.666841 0.767712 0.227441
O O3 0.641919 0.938080 0.256486
O O4 0.486581 0.860982 0.164577
O O5 0.500000 0.744376 0.500000
O O6 0.601736 0.640570 0.393343
O O7 0.677114 0.803064 0.430600
O O8 0.305065 0.064264 0.912399
O O9 0.161088 0.976443 0.832692
O O10 0.134672 0.000000 0.000000
O O11 0.500000 0.500000 0.111031
O O12 0.625248 0.384613 0.027877
O O13 0.455416 0.337388 0.143531
O O14 0.655526 0.411777 0.182986
O O15 0.244089 0.200223 0.586395
O O16 0.136507 0.281530 0.458280
O O17 0.278631 0.417201 0.213197
O O18 0.000000 0.404869 0.500000
#
# Coordination Sequence:
#
# PCOD9331058 Si02
#       8
#     8   8   8   8   8   8   8   8
#     4  12  23  45  72 103 153 194 243 299 373 449
#     4  11  27  49  70 104 148 205 243 294 378 462
#     4  11  26  46  68 101 147 188 251 305 358 442
#     4  10  21  39  67 103 137 172 235 305 361 417
#     4  11  21  44  70 107 140 177 246 306 369 436
#     4  11  23  42  72 105 140 184 241 311 366 427
#     4  11  25  42  67 105 145 190 235 304 373 436
#     4  11  22  41  74 107 136 183 241 308 374 426
#
# _framework density 23.735430999999998
#
# number of rings (size 3 to 8) (size 9 to 14) (size 15 to 20)
#    0.000    1.000    5.000    1.125    1.750    7.500 
#    2.250    0.000    0.000    0.000    0.000    0.000 
#    0.000    0.000    0.000    0.000    0.000    0.000 
#
# Total GULP energy -178868.513061 kJ/mol
# GULP energy per Si atom -5589.641033 kJ/mol
# Density = 2.368141 g / cm^3
# Si number density = 23.735431 Si / 1000 Ang^3
#
#
#
# Elastic Constant Matrix: (Units=GPa)
#
#
# Indices 1 2 3 4 5 6 
#
# 1 70.5707 34.0368 31.1315 0.0000 0.0000 0.0000
# 2 34.0368 49.1878 26.8632 0.0000 0.0000 0.0000
# 3 31.1315 26.8632 157.7797 0.0000 0.0000 0.0000
# 4 0.0000 0.0000 0.0000 33.0700 0.0000 0.0000
# 5 0.0000 0.0000 0.0000 0.0000 29.7941 0.0000
# 6 0.0000 0.0000 0.0000 0.0000 0.0000 21.9006
#
#
#
# Elastic Compliance Matrix: (Units=1/GPa)
#
#
# Indices 1 2 3 4 5 6 
#
# 1 0.021778 -0.014027 -0.001909 0.000000 0.000000 0.000000
# 2 -0.014027 0.031449 -0.002587 0.000000 0.000000 0.000000
# 3 -0.001909 -0.002587 0.007155 0.000000 0.000000 0.000000
# 4 0.000000 0.000000 0.000000 0.030239 0.000000 0.000000
# 5 0.000000 0.000000 0.000000 0.000000 0.033564 0.000000
# 6 0.000000 0.000000 0.000000 0.000000 0.000000 0.045661
#
#
# Mechanical properties :
#
#
# Convention : Reuss Voigt Hill
#
# Bulk Modulus (GPa) = 42.85100 51.28902 47.07001
# Shear Modulus (GPa) = 23.29160 29.32006 26.30583
#
# Velocity S-wave (km/s) = 3.13597 3.51848 3.33272
# Velocity P-wave (km/s) = 5.58616 6.17752 5.88927
#
# Compressibility (1/GPa) = 0.02333668
#
# Stress axis : x y z
#
# Youngs Moduli (GPa) = 45.91872 31.79708 139.76282
#
# Poissons Ratio (x) = 0.44602 0.26677
# Poissons Ratio (y) = 0.64411 0.36154
# Poissons Ratio (z) = 0.08765 0.08225
#
# Static dielectric constant tensor:
#      x y z
#    x 1.922840 0.000000 0.000000 
#    y 0.000000 2.092210 0.000000 
#    z 0.000000 0.000000 1.946350 
# 
# From -- ./inp_files/21072.got.cif
#   From: 2010.05.17/outbox.cif.g08.bks.cpg/sg23_11_cif.got.tgz:21072.got - 2010.06.04 12:02:01.
