data_PCOD9331631
_publ_section_title
;
Structure prediction by ZEFSAII (Michael W. Deem and Ramdas Pophale) SiO2 
 PCOD9331631
Probable space group: I 2 2 2
;
_chemical_formula_sum "Si O2"
_cell_formula_units_Z 48
_cell_length_a 30.207613
_cell_length_b 10.180810
_cell_length_c 8.660742
_cell_angle_alpha 90.000000
_cell_angle_beta 90.000000
_cell_angle_gamma 90.000000
_cell_volume 2663.507000
_symmetry_space_group_name_H-M "I 2 2 2"
_symmetry_group_IT_number 23
_symmetry_cell_setting 'orthorhombic'
loop_
_space_group_symop_operation_xyz
x,y,z
-x,-y,z
x,-y,-z
-x,y,-z
1/2+x,1/2+y,1/2+z
1/2-x,1/2-y,1/2+z
1/2+x,1/2-y,1/2-z
1/2-x,1/2+y,1/2-z
loop_
_atom_site_type_symbol
_atom_site_label
_atom_site_fract_x
_atom_site_fract_y
_atom_site_fract_z
Si Si1 0.253408 0.881924 0.613569
Si Si2 0.605491 0.000000 0.000000
Si Si3 0.873603 0.000000 0.000000
Si Si4 0.050811 0.769332 0.507962
Si Si5 0.551678 0.499981 0.755511
Si Si6 0.844458 0.482164 0.826683
Si Si7 0.301844 0.295159 0.602510
O O1 0.302331 0.920996 0.671995
O O2 0.262932 0.750641 0.514599
O O3 0.220150 0.868343 0.753732
O O4 0.239376 0.000000 0.500000
O O5 0.579327 0.138372 0.001244
O O6 0.630273 0.001044 0.833586
O O7 0.907960 0.985123 0.860569
O O8 0.840235 0.121234 0.977059
O O9 0.057851 0.860353 0.658363
O O10 0.000000 0.726377 0.500000
O O11 0.055898 0.876955 0.372006
O O12 0.500000 0.500000 0.698919
O O13 0.824052 0.336862 0.832788
O O14 0.866292 0.500000 0.000000
#
# Coordination Sequence:
#
# PCOD9331631 Si02
#       7
#     8   4   4   8   8   8   8
#     4   9  22  42  58  78 120 159 196 251 308 354
#     4  12  21  35  70  86 120 164 200 247 313 352
#     4  12  23  33  64  96 112 152 212 245 293 378
#     4   9  20  39  61  87 118 158 200 238 296 383
#     4   9  20  41  61  87 129 155 187 255 320 354
#     4   9  23  41  55  88 122 154 198 255 307 356
#     4  10  23  39  58  85 119 152 206 252 295 369
#
# _framework density 18.021353999999999
#
# number of rings (size 3 to 8) (size 9 to 14) (size 15 to 20)
#    0.000    2.667    0.000    2.500   11.667    0.000 
#    6.000    0.000    0.000    1.000    0.000    0.000 
#    0.000    0.000    0.000    0.000    0.000    0.000 
#
# Total GULP energy -133622.631742 kJ/mol
# GULP energy per Si atom -5567.609656 kJ/mol
# Density = 1.798034 g / cm^3
# Si number density = 18.021354 Si / 1000 Ang^3
#
#
#
# Elastic Constant Matrix: (Units=GPa)
#
#
# Indices 1 2 3 4 5 6 
#
# 1 63.3309 35.2431 58.8175 0.0000 0.0000 0.0000
# 2 35.2431 72.7123 32.4131 0.0000 0.0000 0.0000
# 3 58.8175 32.4131 107.7868 0.0000 0.0000 0.0000
# 4 0.0000 0.0000 0.0000 11.2418 0.0000 0.0000
# 5 0.0000 0.0000 0.0000 0.0000 36.9453 0.0000
# 6 0.0000 0.0000 0.0000 0.0000 0.0000 26.6920
#
#
#
# Elastic Compliance Matrix: (Units=1/GPa)
#
#
# Indices 1 2 3 4 5 6 
#
# 1 0.037965 -0.010585 -0.017534 0.000000 0.000000 0.000000
# 2 -0.010585 0.018833 0.000113 0.000000 0.000000 0.000000
# 3 -0.017534 0.000113 0.018811 0.000000 0.000000 0.000000
# 4 0.000000 0.000000 0.000000 0.088954 0.000000 0.000000
# 5 0.000000 0.000000 0.000000 0.000000 0.027067 0.000000
# 6 0.000000 0.000000 0.000000 0.000000 0.000000 0.037464
#
#
# Mechanical properties :
#
#
# Convention : Reuss Voigt Hill
#
# Bulk Modulus (GPa) = 51.02761 55.19747 53.11254
# Shear Modulus (GPa) = 17.14448 22.79958 19.97203
#
# Velocity S-wave (km/s) = 3.08773 3.56074 3.33264
# Velocity P-wave (km/s) = 6.41004 6.89932 6.65918
#
# Compressibility (1/GPa) = 0.01959723
#
# Stress axis : x y z
#
# Youngs Moduli (GPa) = 26.34026 53.09792 53.15916
#
# Poissons Ratio (x) = 0.56205 0.93207
# Poissons Ratio (y) = 0.27882 -0.00600
# Poissons Ratio (z) = 0.46184 -0.00599
#
# Static dielectric constant tensor:
#      x y z
#    x 1.604440 0.000000 0.000000 
#    y 0.000000 1.645470 0.000000 
#    z 0.000000 0.000000 1.678950 
# 
# From -- ./inp_files/13385.got.cif
#   From: 2010.05.17/outbox.cif.g08.bks.cpg/sg23_7_cif.got.tgz:13385.got - 2010.06.04 12:02:01.
