data_PCOD9331707
_publ_section_title
;
Structure prediction by ZEFSAII (Michael W. Deem and Ramdas Pophale) SiO2 
 PCOD9331707
Probable space group: I 2 2 2
;
_chemical_formula_sum "Si O2"
_cell_formula_units_Z 26
_cell_length_a 27.049740
_cell_length_b 8.979187
_cell_length_c 5.165767
_cell_angle_alpha 90.000000
_cell_angle_beta 90.000000
_cell_angle_gamma 90.000000
_cell_volume 1254.685633
_symmetry_space_group_name_H-M "I 2 2 2"
_symmetry_group_IT_number 23
_symmetry_cell_setting 'orthorhombic'
loop_
_space_group_symop_operation_xyz
x,y,z
-x,-y,z
x,-y,-z
-x,y,-z
1/2+x,1/2+y,1/2+z
1/2-x,1/2-y,1/2+z
1/2+x,1/2-y,1/2-z
1/2-x,1/2+y,1/2-z
loop_
_atom_site_type_symbol
_atom_site_label
_atom_site_fract_x
_atom_site_fract_y
_atom_site_fract_z
Si Si1 0.500000 0.500000 0.000000
Si Si2 0.095073 0.096287 0.258683
Si Si3 0.830298 0.330208 0.934437
Si Si4 0.776373 0.104723 0.250435
O O1 0.536876 0.397752 0.169062
O O2 0.125700 0.244850 0.209266
O O3 0.115023 0.000000 0.500000
O O4 0.099629 0.000000 0.000000
O O5 0.779296 0.331477 0.770817
O O6 0.842596 0.500000 0.000000
O O7 0.814422 0.237846 0.191528
O O8 0.781764 0.000000 0.500000
O O9 0.780579 0.000000 0.000000
#
# Coordination Sequence:
#
# PCOD9331707 Si02
#       4
#     2   8   8   8
#     4   8  22  48  74  98 126 168 252 276 342 410
#     4  10  23  42  73  99 127 174 233 279 340 411
#     4  11  24  41  66 106 143 181 225 283 336 392
#     4  11  25  43  63  93 150 198 227 259 321 418
#
# _framework density 20.722321000000001
#
# number of rings (size 3 to 8) (size 9 to 14) (size 15 to 20)
#    0.923    0.615    0.000    5.077    0.000   16.000 
#    0.000    0.000    0.000    5.538    0.000    0.000 
#    0.000    0.000    0.000    0.000    0.000    0.000 
#
# Total GULP energy -72648.293074 kJ/mol
# GULP energy per Si atom -5588.330236 kJ/mol
# Density = 2.067516 g / cm^3
# Si number density = 20.722321 Si / 1000 Ang^3
#
#
#
# Elastic Constant Matrix: (Units=GPa)
#
#
# Indices 1 2 3 4 5 6 
#
# 1 170.4233 84.1269 40.5256 0.0003 0.0000 0.0129
# 2 84.1269 189.0162 77.8561 0.0022 -0.0004 0.1221
# 3 40.5256 77.8561 159.4333 0.0034 0.0000 0.0997
# 4 0.0003 0.0022 0.0034 23.5421 -0.0002 0.1189
# 5 0.0000 -0.0004 0.0000 -0.0002 0.5778 -0.0637
# 6 0.0129 0.1221 0.0997 0.1189 -0.0637-4039.0260
#
#
#
# Elastic Compliance Matrix: (Units=1/GPa)
#
#
# Indices 1 2 3 4 5 6 
#
# 1 0.007535 -0.003211 -0.000348 0.000000 -0.000002 0.000000
# 2 -0.003211 0.007991 -0.003086 0.000000 0.000005 0.000000
# 3 -0.000348 -0.003086 0.007868 -0.000001 -0.000002 0.000000
# 4 0.000000 0.000000 -0.000001 0.042477 0.000012 0.000001
# 5 -0.000002 0.000005 -0.000002 0.000012 1.730813 -0.000027
# 6 0.000000 0.000000 0.000000 0.000001 -0.000027 -0.000248
#
#
# Mechanical properties :
#
#
# Convention : Reuss Voigt Hill
#
# Bulk Modulus (GPa) = 98.95897 102.65442 100.80670
# Shear Modulus (GPa) = 2.75772 -781.89028 -389.56628
#
# Velocity S-wave (km/s) = 1.15485 -19.44575 -13.72595
# Velocity P-wave (km/s) = 7.04533 21.31988 14.22850
#
# Compressibility (1/GPa) = 0.01010520
#
# Stress axis : x y z
#
# Youngs Moduli (GPa) = 132.70940 125.14622 127.10486
#
# Poissons Ratio (x) = 0.40180 0.04417
# Poissons Ratio (y) = 0.42608 0.39224
# Poissons Ratio (z) = 0.04612 0.38620
#
# Static dielectric constant tensor:
#      x y z
#    x 1.802730 0.000000 -0.000050 
#    y 0.000000 1.746910 0.000110 
#    z -0.000050 0.000110 6.238480 
# 
# From -- ./inp_files/4692.got.cif
#   From: 2010.05.17/outbox.cif.g08.bks.cpg/sg23_3_cif.got.tgz:4692.got - 2010.06.04 12:02:01.
