data_PCOD9331005
_publ_section_title
;
Structure prediction by ZEFSAII (Michael W. Deem and Ramdas Pophale) SiO2 
 PCOD9331005
Probable space group: I 2 2 2
;
_chemical_formula_sum "Si O2"
_cell_formula_units_Z 54
_cell_length_a 8.687014
_cell_length_b 11.652548
_cell_length_c 23.466410
_cell_angle_alpha 90.000000
_cell_angle_beta 90.000000
_cell_angle_gamma 90.000000
_cell_volume 2375.407243
_symmetry_space_group_name_H-M "I 2 2 2"
_symmetry_group_IT_number 23
_symmetry_cell_setting 'orthorhombic'
loop_
_space_group_symop_operation_xyz
x,y,z
-x,-y,z
x,-y,-z
-x,y,-z
1/2+x,1/2+y,1/2+z
1/2-x,1/2-y,1/2+z
1/2+x,1/2-y,1/2-z
1/2-x,1/2+y,1/2-z
loop_
_atom_site_type_symbol
_atom_site_label
_atom_site_fract_x
_atom_site_fract_y
_atom_site_fract_z
Si Si1 0.131658 0.079508 0.406786
Si Si2 0.000000 0.500000 0.000000
Si Si3 0.062195 0.753825 0.690949
Si Si4 0.824646 0.531791 0.365858
Si Si5 0.824097 0.263620 0.496586
Si Si6 0.819019 0.631312 0.096498
Si Si7 0.251590 0.000000 0.000000
Si Si8 0.797471 0.187595 0.811878
O O1 0.063486 0.143340 0.353397
O O2 0.191832 0.170663 0.453251
O O3 0.257674 0.991108 0.382717
O O4 0.000000 0.000000 0.434540
O O5 0.920282 0.411313 0.956455
O O6 0.176835 0.658358 0.662143
O O7 0.122757 0.795786 0.751533
O O8 0.884635 0.715249 0.695230
O O9 0.814039 0.518291 0.434537
O O10 0.706661 0.440622 0.338353
O O11 0.000000 0.500000 0.351813
O O12 0.813237 0.203139 0.435925
O O13 0.700777 0.366756 0.494745
O O14 0.000000 0.312196 0.500000
O O15 0.871542 0.718055 0.145097
#
# Coordination Sequence:
#
# PCOD9331005 Si02
#       8
#     8   2   8   8   8   8   4   8
#     4  12  22  38  67  97 131 171 230 284 335 404
#     4  12  28  44  66 102 144 176 216 288 374 428
#     4  11  25  43  68 100 136 184 239 287 343 404
#     4  10  21  39  62 100 136 171 222 283 350 409
#     4  12  20  35  64 101 134 168 213 275 339 406
#     4  12  25  42  64  98 137 176 223 280 349 421
#     4  12  21  34  66 103 136 167 212 284 351 410
#     4  11  25  45  68  96 137 184 235 289 339 416
#
# _framework density 22.732942999999999
#
# number of rings (size 3 to 8) (size 9 to 14) (size 15 to 20)
#    0.000    0.593    7.407    1.333    2.074    1.185 
#    1.333    0.000    0.000    0.444    0.000    0.000 
#    0.000    0.000    0.000    0.000    0.000    0.000 
#
# Total GULP energy -150373.412912 kJ/mol
# GULP energy per Si atom -5569.385663 kJ/mol
# Density = 2.268120 g / cm^3
# Si number density = 22.732943 Si / 1000 Ang^3
#
#
#
# Elastic Constant Matrix: (Units=GPa)
#
#
# Indices 1 2 3 4 5 6 
#
# 1 28.9166 12.0238 25.6159 0.0000 0.0000 0.0000
# 2 12.0238 122.4707 50.0629 0.0000 0.0000 0.0000
# 3 25.6159 50.0629 149.1928 0.0000 0.0000 0.0000
# 4 0.0000 0.0000 0.0000 21.5289 0.0000 0.0000
# 5 0.0000 0.0000 0.0000 0.0000 29.0818 0.0000
# 6 0.0000 0.0000 0.0000 0.0000 0.0000 5.3908
#
#
#
# Elastic Compliance Matrix: (Units=1/GPa)
#
#
# Indices 1 2 3 4 5 6 
#
# 1 0.040971 -0.001329 -0.006589 0.000000 0.000000 0.000000
# 2 -0.001329 0.009506 -0.002962 0.000000 0.000000 0.000000
# 3 -0.006589 -0.002962 0.008828 0.000000 0.000000 0.000000
# 4 0.000000 0.000000 0.000000 0.046449 0.000000 0.000000
# 5 0.000000 0.000000 0.000000 0.000000 0.034386 0.000000
# 6 0.000000 0.000000 0.000000 0.000000 0.000000 0.185500
#
#
# Mechanical properties :
#
#
# Convention : Reuss Voigt Hill
#
# Bulk Modulus (GPa) = 26.63359 52.88727 39.76043
# Shear Modulus (GPa) = 13.89215 25.39213 19.64214
#
# Velocity S-wave (km/s) = 2.47473 3.34574 2.94264
# Velocity P-wave (km/s) = 4.46173 6.18388 5.39201
#
# Compressibility (1/GPa) = 0.03754657
#
# Stress axis : x y z
#
# Youngs Moduli (GPa) = 24.40721 105.19232 113.27817
#
# Poissons Ratio (x) = 0.13982 0.74635
# Poissons Ratio (y) = 0.03244 0.33550
# Poissons Ratio (z) = 0.16081 0.31155
#
# Static dielectric constant tensor:
#      x y z
#    x 1.984680 0.000000 0.000000 
#    y 0.000000 1.955040 0.000000 
#    z 0.000000 0.000000 1.785370 
# 
# From -- ./inp_files/26727.got.cif
#   From: 2010.05.17/outbox.cif.g08.bks.cpg/sg23_14_cif.got.tgz:26727.got - 2010.06.04 12:02:01.
