data_PCOD9331120
_publ_section_title
;
Structure prediction by ZEFSAII (Michael W. Deem and Ramdas Pophale) SiO2 
 PCOD9331120
Probable space group: I 2 2 2
;
_chemical_formula_sum "Si O2"
_cell_formula_units_Z 56
_cell_length_a 15.409863
_cell_length_b 15.561989
_cell_length_c 11.890694
_cell_angle_alpha 90.000000
_cell_angle_beta 90.000000
_cell_angle_gamma 90.000000
_cell_volume 2851.484956
_symmetry_space_group_name_H-M "I 2 2 2"
_symmetry_group_IT_number 23
_symmetry_cell_setting 'orthorhombic'
loop_
_space_group_symop_operation_xyz
x,y,z
-x,-y,z
x,-y,-z
-x,y,-z
1/2+x,1/2+y,1/2+z
1/2-x,1/2-y,1/2+z
1/2+x,1/2-y,1/2-z
1/2-x,1/2+y,1/2-z
loop_
_atom_site_type_symbol
_atom_site_label
_atom_site_fract_x
_atom_site_fract_y
_atom_site_fract_z
Si Si1 0.078062 0.544757 0.878371
Si Si2 0.428311 0.201505 0.909544
Si Si3 0.723869 0.515731 0.176405
Si Si4 0.769428 0.426345 0.588771
Si Si5 0.304067 0.355861 0.981250
Si Si6 0.517652 0.764658 0.661144
Si Si7 0.353416 0.274744 0.487992
O O1 0.172575 0.528485 0.832981
O O2 0.047694 0.642086 0.883949
O O3 0.000000 0.500000 0.810870
O O4 0.082685 0.500000 0.000000
O O5 0.357240 0.127544 0.881954
O O6 0.375534 0.283156 0.959192
O O7 0.474516 0.230897 0.794385
O O8 0.500000 0.173169 0.000000
O O9 0.714480 0.533195 0.307850
O O10 0.700213 0.424092 0.121646
O O11 0.682804 0.588201 0.094540
O O12 0.791709 0.500000 0.500000
O O13 0.706800 0.355237 0.535862
O O14 0.211765 0.306787 0.993062
O O15 0.591835 0.708254 0.601342
O O16 0.424412 0.741436 0.610127
#
# Coordination Sequence:
#
# PCOD9331120 Si02
#       7
#     8   8   8   8   8   8   8
#     4  11  18  30  60  96 124 149 205 272 316 360
#     4  11  26  44  64  95 133 172 210 260 335 398
#     4  11  20  40  62  95 121 165 216 263 313 374
#     4  11  26  43  63  94 132 173 208 259 329 400
#     4  10  21  40  69  92 123 167 219 267 309 378
#     4  11  21  40  62  96 124 167 215 267 312 375
#     4  10  21  40  67  91 125 168 219 260 315 370
#
# _framework density 19.638891000000001
#
# number of rings (size 3 to 8) (size 9 to 14) (size 15 to 20)
#    0.000    1.286    4.286    2.571    4.000    2.571 
#    0.000    2.857    0.000    0.000    0.000    0.000 
#    0.000    0.000    0.000    0.000    0.000    0.000 
#
# Total GULP energy -156176.728585 kJ/mol
# GULP energy per Si atom -5577.740307 kJ/mol
# Density = 1.959419 g / cm^3
# Si number density = 19.638891 Si / 1000 Ang^3
#
#
#
# Elastic Constant Matrix: (Units=GPa)
#
#
# Indices 1 2 3 4 5 6 
#
# 1 45.9256 3.3069 0.5570 0.0000 0.0000 0.0000
# 2 3.3069 68.4335 4.9721 0.0000 0.0000 0.0000
# 3 0.5570 4.9721 97.6542 0.0000 0.0000 0.0000
# 4 0.0000 0.0000 0.0000 7.6326 0.0000 0.0000
# 5 0.0000 0.0000 0.0000 0.0000 14.8537 0.0000
# 6 0.0000 0.0000 0.0000 0.0000 0.0000 22.3732
#
#
#
# Elastic Compliance Matrix: (Units=1/GPa)
#
#
# Indices 1 2 3 4 5 6 
#
# 1 0.021851 -0.001051 -0.000071 0.000000 0.000000 0.000000
# 2 -0.001051 0.014718 -0.000743 0.000000 0.000000 0.000000
# 3 -0.000071 -0.000743 0.010278 0.000000 0.000000 0.000000
# 4 0.000000 0.000000 0.000000 0.131017 0.000000 0.000000
# 5 0.000000 0.000000 0.000000 0.000000 0.067323 0.000000
# 6 0.000000 0.000000 0.000000 0.000000 0.000000 0.044696
#
#
# Mechanical properties :
#
#
# Convention : Reuss Voigt Hill
#
# Bulk Modulus (GPa) = 23.19303 25.52060 24.35681
# Shear Modulus (GPa) = 16.23448 22.51705 19.37577
#
# Velocity S-wave (km/s) = 2.87827 3.38975 3.14443
# Velocity P-wave (km/s) = 4.78344 5.32388 5.06088
#
# Compressibility (1/GPa) = 0.04311641
#
# Stress axis : x y z
#
# Youngs Moduli (GPa) = 45.76474 67.94631 97.29077
#
# Poissons Ratio (x) = 0.07139 0.00692
# Poissons Ratio (y) = 0.04809 0.07232
# Poissons Ratio (z) = 0.00326 0.05051
#
# Static dielectric constant tensor:
#      x y z
#    x 1.707170 0.000000 0.000000 
#    y 0.000000 1.714850 0.000000 
#    z 0.000000 0.000000 1.513920 
# 
# From -- ./inp_files/16776.got.cif
#   From: 2010.05.17/outbox.cif.g08.bks.cpg/sg23_9_cif.got.tgz:16776.got - 2010.06.04 12:02:01.
