data_PCOD9331734
_publ_section_title
;
Structure prediction by ZEFSAII (Michael W. Deem and Ramdas Pophale) SiO2 
 PCOD9331734
Probable space group: I 2 2 2
;
_chemical_formula_sum "Si O2"
_cell_formula_units_Z 58
_cell_length_a 8.180451
_cell_length_b 27.340334
_cell_length_c 11.497031
_cell_angle_alpha 90.000000
_cell_angle_beta 90.000000
_cell_angle_gamma 90.000000
_cell_volume 2571.382985
_symmetry_space_group_name_H-M "I 2 2 2"
_symmetry_group_IT_number 23
_symmetry_cell_setting 'orthorhombic'
loop_
_space_group_symop_operation_xyz
x,y,z
-x,-y,z
x,-y,-z
-x,y,-z
1/2+x,1/2+y,1/2+z
1/2-x,1/2-y,1/2+z
1/2+x,1/2-y,1/2-z
1/2-x,1/2+y,1/2-z
loop_
_atom_site_type_symbol
_atom_site_label
_atom_site_fract_x
_atom_site_fract_y
_atom_site_fract_z
Si Si1 0.745826 0.957813 0.323170
Si Si2 0.375349 0.933409 0.303481
Si Si3 0.500000 0.500000 0.000000
Si Si4 0.763155 0.343934 0.928934
Si Si5 0.320693 0.371719 0.654767
Si Si6 0.880957 0.800969 0.785806
Si Si7 0.343216 0.867783 0.077980
Si Si8 0.382515 0.813571 0.667351
O O1 0.562847 0.936530 0.351261
O O2 0.823678 0.922092 0.227085
O O3 0.698144 0.012944 0.287036
O O4 0.879690 0.966671 0.422171
O O5 0.264209 0.900556 0.389531
O O6 0.373846 0.907805 0.177463
O O7 0.639201 0.313351 0.850143
O O8 0.941246 0.328548 0.880208
O O9 0.759871 0.330877 0.064113
O O10 0.472554 0.335173 0.669686
O O11 0.288076 0.382631 0.520223
O O12 0.174792 0.340968 0.717048
O O13 0.723007 0.820708 0.854664
O O14 0.892293 0.744060 0.811243
O O15 0.500000 0.858866 0.000000
#
# Coordination Sequence:
#
# PCOD9331734 Si02
#       8
#     8   8   2   8   8   8   8   8
#     4  11  26  47  73 106 141 188 237 296 366 436
#     4  10  23  49  74 102 138 198 242 290 354 450
#     4  12  32  42  76 110 156 178 232 308 382 418
#     4  10  23  44  66 100 140 190 250 287 356 446
#     4  12  25  45  71 108 145 181 244 304 368 433
#     4  11  26  42  69 103 148 188 235 309 377 425
#     4  11  23  46  73 101 139 188 245 297 354 441
#     4  11  24  42  70  99 142 196 246 296 358 450
#
# _framework density 22.555956999999999
#
# number of rings (size 3 to 8) (size 9 to 14) (size 15 to 20)
#    0.000    1.103    2.759    2.069   11.586    2.207 
#    0.000    0.000    0.000    0.000    0.000    0.000 
#    0.000    0.000    0.000    0.000    0.000    0.000 
#
# Total GULP energy -162157.879262 kJ/mol
# GULP energy per Si atom -5591.651009 kJ/mol
# Density = 2.250462 g / cm^3
# Si number density = 22.555957 Si / 1000 Ang^3
#
#
#
# Elastic Constant Matrix: (Units=GPa)
#
#
# Indices 1 2 3 4 5 6 
#
# 1 68.4409 29.3538 44.5024 0.0000 0.0001 0.0000
# 2 29.3538 167.5437 50.6153 0.0001 0.0000 0.0000
# 3 44.5024 50.6153 145.5925 0.0006 0.0002 -0.0001
# 4 0.0000 0.0001 0.0006 21.5606 0.0001 -0.0001
# 5 0.0001 0.0000 0.0002 0.0001 30.0238 0.0000
# 6 0.0000 0.0000 -0.0001 -0.0001 0.0000 8.0125
#
#
#
# Elastic Compliance Matrix: (Units=1/GPa)
#
#
# Indices 1 2 3 4 5 6 
#
# 1 0.018673 -0.001729 -0.005107 0.000000 0.000000 0.000000
# 2 -0.001729 0.006829 -0.001846 0.000000 0.000000 0.000000
# 3 -0.005107 -0.001846 0.009071 0.000000 0.000000 0.000000
# 4 0.000000 0.000000 0.000000 0.046381 0.000000 0.000000
# 5 0.000000 0.000000 0.000000 0.000000 0.033307 0.000000
# 6 0.000000 0.000000 0.000000 0.000000 0.000000 0.124805
#
#
# Mechanical properties :
#
#
# Convention : Reuss Voigt Hill
#
# Bulk Modulus (GPa) = 58.10272 70.05781 64.08027
# Shear Modulus (GPa) = 19.07195 29.05976 24.06586
#
# Velocity S-wave (km/s) = 2.91097 3.59324 3.26995
# Velocity P-wave (km/s) = 6.09209 6.95285 6.53666
#
# Compressibility (1/GPa) = 0.01721090
#
# Stress axis : x y z
#
# Youngs Moduli (GPa) = 53.55282 146.43286 110.24047
#
# Poissons Ratio (x) = 0.25315 0.56296
# Poissons Ratio (y) = 0.09258 0.20347
# Poissons Ratio (z) = 0.27348 0.27027
#
# Static dielectric constant tensor:
#      x y z
#    x 1.957430 0.000000 0.000000 
#    y 0.000000 1.816570 0.000000 
#    z 0.000000 0.000000 1.838900 
# 
# From -- ./inp_files/14896.got.cif
#   From: 2010.05.17/outbox.cif.g08.bks.cpg/sg23_8_cif.got.tgz:14896.got - 2010.06.04 12:02:01.
