data_PCOD9331998
_publ_section_title
;
Structure prediction by ZEFSAII (Michael W. Deem and Ramdas Pophale) SiO2 
 PCOD9331998
Probable space group: I 2 2 2
;
_chemical_formula_sum "Si O2"
_cell_formula_units_Z 38
_cell_length_a 5.494192
_cell_length_b 13.145469
_cell_length_c 26.620408
_cell_angle_alpha 90.000000
_cell_angle_beta 90.000000
_cell_angle_gamma 90.000000
_cell_volume 1922.625176
_symmetry_space_group_name_H-M "I 2 2 2"
_symmetry_group_IT_number 23
_symmetry_cell_setting 'orthorhombic'
loop_
_space_group_symop_operation_xyz
x,y,z
-x,-y,z
x,-y,-z
-x,y,-z
1/2+x,1/2+y,1/2+z
1/2-x,1/2-y,1/2+z
1/2+x,1/2-y,1/2-z
1/2-x,1/2+y,1/2-z
loop_
_atom_site_type_symbol
_atom_site_label
_atom_site_fract_x
_atom_site_fract_y
_atom_site_fract_z
Si Si1 0.811808 0.091075 0.414436
Si Si2 0.470250 0.379697 0.658631
Si Si3 0.472639 0.771377 0.136757
Si Si4 0.500000 0.000000 0.674975
Si Si5 0.000000 0.500000 0.000000
Si Si6 0.606733 0.386978 0.224753
O O1 0.963165 0.193930 0.408131
O O2 0.650497 0.068941 0.364863
O O3 0.653126 0.073680 0.463711
O O4 0.000000 0.000000 0.414853
O O5 0.500000 0.500000 0.651404
O O6 0.706835 0.323165 0.635715
O O7 0.461782 0.360689 0.718782
O O8 0.205171 0.345188 0.639560
O O9 0.471858 0.699966 0.186513
O O10 0.615518 0.084685 0.711783
O O11 0.500000 0.500000 0.213567
#
# Coordination Sequence:
#
# PCOD9331998 Si02
#       6
#     8   8   8   4   2   8
#     4  11  22  40  65  98 137 170 208 271 357 443
#     4  11  27  39  57  85 132 178 243 284 308 355
#     4  12  22  41  62  89 124 180 225 272 337 395
#     4  11  18  35  60  86 136 174 216 266 341 397
#     4  10  26  40  68 102 154 156 202 276 374 442
#     4  11  22  34  57  88 127 176 225 277 323 385
#
# _framework density 19.764641000000001
#
# number of rings (size 3 to 8) (size 9 to 14) (size 15 to 20)
#    0.000    0.842    4.211    3.474    8.842    0.000 
#    0.000    0.000    0.000    0.000    0.000    0.737 
#    0.000    0.000    0.000    0.000    0.000    0.000 
#
# Total GULP energy -106023.895505 kJ/mol
# GULP energy per Si atom -5580.205027 kJ/mol
# Density = 1.971966 g / cm^3
# Si number density = 19.764641 Si / 1000 Ang^3
#
#
#
# Elastic Constant Matrix: (Units=GPa)
#
#
# Indices 1 2 3 4 5 6 
#
# 1 116.1474 46.5539 34.4908 0.0000 0.0000 0.0000
# 2 46.5539 80.7379 26.0123 0.0000 0.0000 0.0000
# 3 34.4908 26.0123 65.6265 0.0000 0.0000 0.0000
# 4 0.0000 0.0000 0.0000 70.4368 0.0000 0.0000
# 5 0.0000 0.0000 0.0000 0.0000 39.6801 0.0000
# 6 0.0000 0.0000 0.0000 0.0000 0.0000 56.5567
#
#
#
# Elastic Compliance Matrix: (Units=1/GPa)
#
#
# Indices 1 2 3 4 5 6 
#
# 1 0.012097 -0.005648 -0.004119 0.000000 0.000000 0.000000
# 2 -0.005648 0.016836 -0.003705 0.000000 0.000000 0.000000
# 3 -0.004119 -0.003705 0.018871 0.000000 0.000000 0.000000
# 4 0.000000 0.000000 0.000000 0.014197 0.000000 0.000000
# 5 0.000000 0.000000 0.000000 0.000000 0.025202 0.000000
# 6 0.000000 0.000000 0.000000 0.000000 0.000000 0.017681
#
#
# Mechanical properties :
#
#
# Convention : Reuss Voigt Hill
#
# Bulk Modulus (GPa) = 47.93824 52.95843 50.44834
# Shear Modulus (GPa) = 36.02802 43.69837 39.86320
#
# Velocity S-wave (km/s) = 4.27412 4.70716 4.49586
# Velocity P-wave (km/s) = 6.97601 7.50972 7.24778
#
# Compressibility (1/GPa) = 0.02086017
#
# Stress axis : x y z
#
# Youngs Moduli (GPa) = 82.66723 59.39619 52.99135
#
# Poissons Ratio (x) = 0.33547 0.21826
# Poissons Ratio (y) = 0.46690 0.19633
# Poissons Ratio (z) = 0.34050 0.22006
#
# Static dielectric constant tensor:
#      x y z
#    x 1.895580 0.000000 0.000000 
#    y 0.000000 1.706430 0.000000 
#    z 0.000000 0.000000 1.600930 
# 
# From -- ./inp_files/1757.got.cif
#   From: 2010.05.17/outbox.cif.g08.bks.cpg/sg23_1_cif.got.tgz:1757.got - 2010.06.04 12:02:01.
