data_PCOD9331169
_publ_section_title
;
Structure prediction by ZEFSAII (Michael W. Deem and Ramdas Pophale) SiO2 
 PCOD9331169
Probable space group: I 2 2 2
;
_chemical_formula_sum "Si O2"
_cell_formula_units_Z 52
_cell_length_a 18.271073
_cell_length_b 15.269290
_cell_length_c 8.839692
_cell_angle_alpha 90.000000
_cell_angle_beta 90.000000
_cell_angle_gamma 90.000000
_cell_volume 2466.153072
_symmetry_space_group_name_H-M "I 2 2 2"
_symmetry_group_IT_number 23
_symmetry_cell_setting 'orthorhombic'
loop_
_space_group_symop_operation_xyz
x,y,z
-x,-y,z
x,-y,-z
-x,y,-z
1/2+x,1/2+y,1/2+z
1/2-x,1/2-y,1/2+z
1/2+x,1/2-y,1/2-z
1/2-x,1/2+y,1/2-z
loop_
_atom_site_type_symbol
_atom_site_label
_atom_site_fract_x
_atom_site_fract_y
_atom_site_fract_z
Si Si1 0.000000 0.000000 0.000000
Si Si2 0.080510 0.751089 0.468095
Si Si3 0.184356 0.790411 0.733030
Si Si4 0.000000 0.500000 0.500000
Si Si5 0.603612 0.381244 0.707240
Si Si6 0.621945 0.910555 0.213040
Si Si7 0.835431 0.713318 0.952372
Si Si8 0.721834 0.516135 0.677363
O O1 0.049579 0.942316 0.112491
O O2 0.116445 0.776495 0.624362
O O3 0.073629 0.833926 0.356893
O O4 0.131877 0.678419 0.387490
O O5 0.000000 0.714515 0.500000
O O6 0.257732 0.782853 0.633587
O O7 0.185835 0.890011 0.790695
O O8 0.179662 0.721564 0.870024
O O9 0.055726 0.454756 0.621823
O O10 0.623517 0.301332 0.596846
O O11 0.675334 0.438208 0.750860
O O12 0.619361 0.868801 0.382317
O O13 0.692533 0.973208 0.214858
O O14 0.717422 0.500000 0.500000
#
# Coordination Sequence:
#
# PCOD9331169 Si02
#       8
#     2   8   8   2   8   8   8   8
#     4  12  24  38  66  96 144 188 222 276 356 392
#     4  11  26  43  64 101 137 183 234 286 350 428
#     4  11  22  41  68 100 131 175 235 290 335 411
#     4  12  20  42  72 106 140 176 234 296 364 428
#     4  11  24  40  63  98 136 181 229 275 345 421
#     4  10  23  41  70 101 130 182 228 283 353 417
#     4  10  21  41  68  97 131 177 234 280 342 413
#     4  11  20  38  65  97 128 180 223 278 343 405
#
# _framework density 21.085471999999999
#
# number of rings (size 3 to 8) (size 9 to 14) (size 15 to 20)
#    0.000    1.231    3.846    2.769    4.308    0.615 
#    0.000    0.000    0.000    1.846    0.000    0.000 
#    0.000    0.000    0.000    0.000    0.000    0.000 
#
# Total GULP energy -145117.620527 kJ/mol
# GULP energy per Si atom -5581.446943 kJ/mol
# Density = 2.103748 g / cm^3
# Si number density = 21.085472 Si / 1000 Ang^3
#
#
#
# Elastic Constant Matrix: (Units=GPa)
#
#
# Indices 1 2 3 4 5 6 
#
# 1 101.5852 36.2333 29.2426 0.0000 0.0000 0.0000
# 2 36.2333 44.2785 14.0192 0.0000 0.0000 0.0000
# 3 29.2426 14.0192 108.8979 0.0000 0.0000 0.0000
# 4 0.0000 0.0000 0.0000 20.6849 0.0000 0.0000
# 5 0.0000 0.0000 0.0000 0.0000 27.3018 0.0000
# 6 0.0000 0.0000 0.0000 0.0000 0.0000 24.2618
#
#
#
# Elastic Compliance Matrix: (Units=1/GPa)
#
#
# Indices 1 2 3 4 5 6 
#
# 1 0.014511 -0.011093 -0.002469 0.000000 0.000000 0.000000
# 2 -0.011093 0.032024 -0.001144 0.000000 0.000000 0.000000
# 3 -0.002469 -0.001144 0.009993 0.000000 0.000000 0.000000
# 4 0.000000 0.000000 0.000000 0.048344 0.000000 0.000000
# 5 0.000000 0.000000 0.000000 0.000000 0.036628 0.000000
# 6 0.000000 0.000000 0.000000 0.000000 0.000000 0.041217
#
#
# Mechanical properties :
#
#
# Convention : Reuss Voigt Hill
#
# Bulk Modulus (GPa) = 36.87686 45.97242 41.42464
# Shear Modulus (GPa) = 22.60731 26.13414 24.37073
#
# Velocity S-wave (km/s) = 3.27796 3.52438 3.40340
# Velocity P-wave (km/s) = 5.64393 6.19774 5.92730
#
# Compressibility (1/GPa) = 0.02711728
#
# Stress axis : x y z
#
# Youngs Moduli (GPa) = 68.91212 31.22663 100.06926
#
# Poissons Ratio (x) = 0.34640 0.24704
# Poissons Ratio (y) = 0.76444 0.11446
# Poissons Ratio (z) = 0.17012 0.03572
#
# Static dielectric constant tensor:
#      x y z
#    x 1.779950 0.000000 0.000000 
#    y 0.000000 1.795190 0.000000 
#    z 0.000000 0.000000 1.770530 
# 
# From -- ./inp_files/12027.got.cif
#   From: 2010.05.17/outbox.cif.g08.bks.cpg/sg23_7_cif.got.tgz:12027.got - 2010.06.04 12:02:01.
