data_PCOD9331016
_publ_section_title
;
Structure prediction by ZEFSAII (Michael W. Deem and Ramdas Pophale) SiO2 
 PCOD9331016
Probable space group: I 2 2 2
;
_chemical_formula_sum "Si O2"
_cell_formula_units_Z 54
_cell_length_a 8.170679
_cell_length_b 20.413119
_cell_length_c 17.263695
_cell_angle_alpha 90.000000
_cell_angle_beta 90.000000
_cell_angle_gamma 90.000000
_cell_volume 2879.395163
_symmetry_space_group_name_H-M "I 2 2 2"
_symmetry_group_IT_number 23
_symmetry_cell_setting 'orthorhombic'
loop_
_space_group_symop_operation_xyz
x,y,z
-x,-y,z
x,-y,-z
-x,y,-z
1/2+x,1/2+y,1/2+z
1/2-x,1/2-y,1/2+z
1/2+x,1/2-y,1/2-z
1/2-x,1/2+y,1/2-z
loop_
_atom_site_type_symbol
_atom_site_label
_atom_site_fract_x
_atom_site_fract_y
_atom_site_fract_z
Si Si1 0.661447 0.852365 0.643951
Si Si2 0.619345 0.101253 0.753600
Si Si3 0.852056 0.219300 0.775020
Si Si4 0.673560 0.084415 0.125767
Si Si5 0.500000 0.194061 0.500000
Si Si6 0.500000 0.000000 0.000000
Si Si7 0.821664 0.973277 0.728149
Si Si8 0.185397 0.224669 0.867088
O O1 0.486924 0.864578 0.686569
O O2 0.716795 0.781153 0.675314
O O3 0.622881 0.847688 0.553499
O O4 0.771948 0.911909 0.674280
O O5 0.754736 0.151775 0.783861
O O6 0.488895 0.088448 0.820948
O O7 0.696523 0.034126 0.722928
O O8 0.823347 0.239203 0.685199
O O9 0.035320 0.211925 0.807022
O O10 0.804776 0.050751 0.182917
O O11 0.738373 0.156220 0.106604
O O12 0.618648 0.043679 0.052525
O O13 0.393332 0.237151 0.439557
O O14 0.000000 0.000000 0.710653
#
# Coordination Sequence:
#
# PCOD9331016 Si02
#       8
#     8   8   8   8   4   2   8   8
#     4  10  21  39  63  93 125 168 210 259 323 380
#     4  11  20  37  67  91 122 168 221 256 306 381
#     4  11  19  36  66  96 120 163 217 268 303 382
#     4  11  22  43  60  92 128 175 209 257 314 382
#     4  10  22  40  63  97 132 160 210 270 332 376
#     4  12  24  40  62  88 148 166 210 246 336 384
#     4  11  22  40  66  97 119 162 223 266 307 384
#     4  11  21  39  66  97 128 164 217 263 325 375
#
# _framework density 18.75394
#
# number of rings (size 3 to 8) (size 9 to 14) (size 15 to 20)
#    0.000    1.185    7.407    2.222    0.000    2.370 
#    2.667    1.481    0.000    5.333    3.852    0.000 
#    0.000    0.000    0.000    0.000    0.000    0.000 
#
# Total GULP energy -150659.433047 kJ/mol
# GULP energy per Si atom -5579.979002 kJ/mol
# Density = 1.871126 g / cm^3
# Si number density = 18.753940 Si / 1000 Ang^3
#
#
#
# Elastic Constant Matrix: (Units=GPa)
#
#
# Indices 1 2 3 4 5 6 
#
# 1 74.6553 33.8245 35.8765 0.0000 0.0000 0.0000
# 2 33.8245 99.7483 36.2102 0.0000 0.0000 0.0000
# 3 35.8765 36.2102 121.0952 0.0000 0.0000 0.0000
# 4 0.0000 0.0000 0.0000 28.4522 0.0000 0.0000
# 5 0.0000 0.0000 0.0000 0.0000 20.5405 0.0000
# 6 0.0000 0.0000 0.0000 0.0000 0.0000 36.6711
#
#
#
# Elastic Compliance Matrix: (Units=1/GPa)
#
#
# Indices 1 2 3 4 5 6 
#
# 1 0.017233 -0.004476 -0.003767 0.000000 0.000000 0.000000
# 2 -0.004476 0.012409 -0.002384 0.000000 0.000000 0.000000
# 3 -0.003767 -0.002384 0.010087 0.000000 0.000000 0.000000
# 4 0.000000 0.000000 0.000000 0.035147 0.000000 0.000000
# 5 0.000000 0.000000 0.000000 0.000000 0.048684 0.000000
# 6 0.000000 0.000000 0.000000 0.000000 0.000000 0.027269
#
#
# Mechanical properties :
#
#
# Convention : Reuss Voigt Hill
#
# Bulk Modulus (GPa) = 54.13141 56.36902 55.25021
# Shear Modulus (GPa) = 28.05165 29.77194 28.91180
#
# Velocity S-wave (km/s) = 3.87172 3.98867 3.93063
# Velocity P-wave (km/s) = 6.99383 7.16485 7.07986
#
# Compressibility (1/GPa) = 0.01847356
#
# Stress axis : x y z
#
# Youngs Moduli (GPa) = 58.02712 80.58881 99.13738
#
# Poissons Ratio (x) = 0.36074 0.37347
# Poissons Ratio (y) = 0.25974 0.23637
# Poissons Ratio (z) = 0.21860 0.19215
#
# Static dielectric constant tensor:
#      x y z
#    x 1.668590 0.000000 0.000000 
#    y 0.000000 1.699360 0.000000 
#    z 0.000000 0.000000 1.647390 
# 
# From -- ./inp_files/23968.got.cif
#   From: 2010.05.17/outbox.cif.g08.bks.cpg/sg23_12_cif.got.tgz:23968.got - 2010.06.04 12:02:01.
