data_PCOD9331057
_publ_section_title
;
Structure prediction by ZEFSAII (Michael W. Deem and Ramdas Pophale) SiO2 
 PCOD9331057
Probable space group: I 2 2 2
;
_chemical_formula_sum "Si O2"
_cell_formula_units_Z 56
_cell_length_a 14.405549
_cell_length_b 15.103787
_cell_length_c 12.542142
_cell_angle_alpha 90.000000
_cell_angle_beta 90.000000
_cell_angle_gamma 90.000000
_cell_volume 2728.898483
_symmetry_space_group_name_H-M "I 2 2 2"
_symmetry_group_IT_number 23
_symmetry_cell_setting 'orthorhombic'
loop_
_space_group_symop_operation_xyz
x,y,z
-x,-y,z
x,-y,-z
-x,y,-z
1/2+x,1/2+y,1/2+z
1/2-x,1/2-y,1/2+z
1/2+x,1/2-y,1/2-z
1/2-x,1/2+y,1/2-z
loop_
_atom_site_type_symbol
_atom_site_label
_atom_site_fract_x
_atom_site_fract_y
_atom_site_fract_z
Si Si1 0.111336 0.600191 0.510267
Si Si2 0.808798 0.675932 0.272299
Si Si3 0.602805 0.411839 0.450942
Si Si4 0.527319 0.690983 0.717768
Si Si5 0.265281 0.899742 0.457875
Si Si6 0.410923 0.283788 0.075328
Si Si7 0.643921 0.749010 0.412451
O O1 0.146539 0.500000 0.500000
O O2 0.146263 0.627271 0.626798
O O3 0.131829 0.683478 0.430072
O O4 0.000000 0.593957 0.500000
O O5 0.886625 0.747051 0.243099
O O6 0.790141 0.616031 0.167591
O O7 0.716288 0.723633 0.318347
O O8 0.646129 0.500000 0.500000
O O9 0.500000 0.410753 0.500000
O O10 0.576537 0.397745 0.327787
O O11 0.655033 0.326883 0.497127
O O12 0.456395 0.682812 0.815155
O O13 0.460692 0.738386 0.630605
O O14 0.165693 0.851205 0.467329
O O15 0.333311 0.841718 0.532749
O O16 0.263694 0.000000 0.500000
O O17 0.500000 0.280317 0.000000
#
# Coordination Sequence:
#
# PCOD9331057 Si02
#       7
#     8   8   8   8   8   8   8
#     4  10  21  39  67 103 135 175 231 283 338 421
#     4  12  23  44  69 101 139 185 231 283 360 417
#     4   9  20  40  65  97 130 167 228 281 341 417
#     4  11  21  41  75  96 135 184 226 284 358 417
#     4  12  27  47  65 103 147 185 244 289 350 441
#     4  11  21  44  71  99 141 185 229 294 360 410
#     4  11  23  43  66  95 137 182 220 287 349 412
#
# _framework density 20.521101999999999
#
# number of rings (size 3 to 8) (size 9 to 14) (size 15 to 20)
#    0.000    1.143    7.143    0.000    0.000    2.000 
#    5.143    3.571    0.000    0.000    0.000    0.000 
#    0.000    0.000    0.000    0.000    0.000    0.000 
#
# Total GULP energy -155998.000244 kJ/mol
# GULP energy per Si atom -5571.357152 kJ/mol
# Density = 2.047439 g / cm^3
# Si number density = 20.521102 Si / 1000 Ang^3
#
#
#
# Elastic Constant Matrix: (Units=GPa)
#
#
# Indices 1 2 3 4 5 6 
#
# 1 96.5804 21.4195 12.7091 0.0000 0.0000 0.0000
# 2 21.4195 155.8072 38.3139 0.0000 0.0000 0.0000
# 3 12.7091 38.3139 91.3926 0.0000 0.0000 0.0000
# 4 0.0000 0.0000 0.0000 7.4896 0.0000 0.0000
# 5 0.0000 0.0000 0.0000 0.0000 39.0426 0.0000
# 6 0.0000 0.0000 0.0000 0.0000 0.0000 17.5959
#
#
#
# Elastic Compliance Matrix: (Units=1/GPa)
#
#
# Indices 1 2 3 4 5 6 
#
# 1 0.010757 -0.001239 -0.000977 0.000000 0.000000 0.000000
# 2 -0.001239 0.007299 -0.002887 0.000000 0.000000 0.000000
# 3 -0.000977 -0.002887 0.012288 0.000000 0.000000 0.000000
# 4 0.000000 0.000000 0.000000 0.133518 0.000000 0.000000
# 5 0.000000 0.000000 0.000000 0.000000 0.025613 0.000000
# 6 0.000000 0.000000 0.000000 0.000000 0.000000 0.056831
#
#
# Mechanical properties :
#
#
# Convention : Reuss Voigt Hill
#
# Bulk Modulus (GPa) = 49.65647 54.29615 51.97631
# Shear Modulus (GPa) = 18.99520 30.91481 24.95501
#
# Velocity S-wave (km/s) = 3.04574 3.88556 3.49100
# Velocity P-wave (km/s) = 6.05136 6.82981 6.45233
#
# Compressibility (1/GPa) = 0.02013836
#
# Stress axis : x y z
#
# Youngs Moduli (GPa) = 92.96010 137.01409 81.37953
#
# Poissons Ratio (x) = 0.16972 0.07948
# Poissons Ratio (y) = 0.11515 0.23498
# Poissons Ratio (z) = 0.09079 0.39562
#
# Static dielectric constant tensor:
#      x y z
#    x 1.773590 0.000000 0.000000 
#    y 0.000000 1.806340 0.000000 
#    z 0.000000 0.000000 1.863810 
# 
# From -- ./inp_files/16788.got.cif
#   From: 2010.05.17/outbox.cif.g08.bks.cpg/sg23_9_cif.got.tgz:16788.got - 2010.06.04 12:02:01.
