data_PCOD9331459
_publ_section_title
;
Structure prediction by ZEFSAII (Michael W. Deem and Ramdas Pophale) SiO2 
 PCOD9331459
Probable space group: I 2 2 2
;
_chemical_formula_sum "Si O2"
_cell_formula_units_Z 32
_cell_length_a 7.419684
_cell_length_b 20.494812
_cell_length_c 9.349743
_cell_angle_alpha 90.000000
_cell_angle_beta 90.000000
_cell_angle_gamma 90.000000
_cell_volume 1421.768937
_symmetry_space_group_name_H-M "I 2 2 2"
_symmetry_group_IT_number 23
_symmetry_cell_setting 'orthorhombic'
loop_
_space_group_symop_operation_xyz
x,y,z
-x,-y,z
x,-y,-z
-x,y,-z
1/2+x,1/2+y,1/2+z
1/2-x,1/2-y,1/2+z
1/2+x,1/2-y,1/2-z
1/2-x,1/2+y,1/2-z
loop_
_atom_site_type_symbol
_atom_site_label
_atom_site_fract_x
_atom_site_fract_y
_atom_site_fract_z
Si Si1 0.682994 0.703889 0.592416
Si Si2 0.699146 0.562446 0.567326
Si Si3 0.813476 0.459675 0.127768
Si Si4 0.676683 0.326656 0.072843
O O1 0.500000 0.704597 0.500000
O O2 0.778801 0.634889 0.554700
O O3 0.652147 0.700609 0.764317
O O4 0.781456 0.767641 0.535184
O O5 0.794352 0.500000 0.500000
O O6 0.500000 0.566422 0.500000
O O7 0.692295 0.545008 0.733085
O O8 0.826326 0.383579 0.083182
O O9 0.000000 0.500000 0.157268
O O10 0.728867 0.500000 0.000000
O O11 0.500000 0.357832 0.000000
#
# Coordination Sequence:
#
# PCOD9331459 Si02
#       4
#     8   8   8   8
#     4  10  22  41  66  99 139 184 235 288 357 425
#     4   9  20  41  66  97 138 183 234 285 350 417
#     4  10  24  43  66 102 138 186 235 296 355 418
#     4  11  24  43  67 102 142 188 237 296 357 427
#
# _framework density 22.507173000000002
#
# number of rings (size 3 to 8) (size 9 to 14) (size 15 to 20)
#    0.000    2.000    0.000    1.500    3.500   13.000 
#    9.000    0.000    0.000    0.000    0.000    0.000 
#    0.000    0.000    0.000    0.000    0.000    0.000 
#
# Total GULP energy -89131.017785 kJ/mol
# GULP energy per Si atom -5570.688612 kJ/mol
# Density = 2.245595 g / cm^3
# Si number density = 22.507173 Si / 1000 Ang^3
#
#
#
# Elastic Constant Matrix: (Units=GPa)
#
#
# Indices 1 2 3 4 5 6 
#
# 1 84.0129 29.8929 46.0241 0.0000 0.0000 0.0000
# 2 29.8929 163.8898 64.8464 -0.0001 -0.0001 0.0000
# 3 46.0241 64.8464 173.2001 0.0002 0.0000 -0.0002
# 4 0.0000 -0.0001 0.0002 42.4074 -0.0001 0.0000
# 5 0.0000 -0.0001 0.0000 -0.0001 26.7421 0.0001
# 6 0.0000 0.0000 -0.0002 0.0000 0.0001 24.0246
#
#
#
# Elastic Compliance Matrix: (Units=1/GPa)
#
#
# Indices 1 2 3 4 5 6 
#
# 1 0.014157 -0.001284 -0.003281 0.000000 0.000000 0.000000
# 2 -0.001284 0.007279 -0.002384 0.000000 0.000000 0.000000
# 3 -0.003281 -0.002384 0.007538 0.000000 0.000000 0.000000
# 4 0.000000 0.000000 0.000000 0.023581 0.000000 0.000000
# 5 0.000000 0.000000 0.000000 0.000000 0.037394 0.000000
# 6 0.000000 0.000000 0.000000 0.000000 0.000000 0.041624
#
#
# Mechanical properties :
#
#
# Convention : Reuss Voigt Hill
#
# Bulk Modulus (GPa) = 66.33068 78.06997 72.20032
# Shear Modulus (GPa) = 33.22307 37.32412 35.27360
#
# Velocity S-wave (km/s) = 3.84619 4.07667 3.96310
# Velocity P-wave (km/s) = 7.01848 7.54460 7.28629
#
# Compressibility (1/GPa) = 0.01507598
#
# Stress axis : x y z
#
# Youngs Moduli (GPa) = 70.63472 137.37796 132.65704
#
# Poissons Ratio (x) = 0.17638 0.43529
# Poissons Ratio (y) = 0.09069 0.31628
# Poissons Ratio (z) = 0.23177 0.32753
#
# Static dielectric constant tensor:
#      x y z
#    x 1.838540 0.000000 0.000000 
#    y 0.000000 1.918540 0.000000 
#    z 0.000000 0.000000 1.841070 
# 
# From -- ./inp_files/6584.got.cif
#   From: 2010.05.17/outbox.cif.g08.bks.cpg/sg23_4_cif.got.tgz:6584.got - 2010.06.04 12:02:01.
