data_PCOD9331453
_publ_section_title
;
Structure prediction by ZEFSAII (Michael W. Deem and Ramdas Pophale) SiO2 
 PCOD9331453
Probable space group: I 2 2 2
;
_chemical_formula_sum "Si O2"
_cell_formula_units_Z 42
_cell_length_a 19.618585
_cell_length_b 8.887305
_cell_length_c 12.064676
_cell_angle_alpha 90.000000
_cell_angle_beta 90.000000
_cell_angle_gamma 90.000000
_cell_volume 2103.552854
_symmetry_space_group_name_H-M "I 2 2 2"
_symmetry_group_IT_number 23
_symmetry_cell_setting 'orthorhombic'
loop_
_space_group_symop_operation_xyz
x,y,z
-x,-y,z
x,-y,-z
-x,y,-z
1/2+x,1/2+y,1/2+z
1/2-x,1/2-y,1/2+z
1/2+x,1/2-y,1/2-z
1/2-x,1/2+y,1/2-z
loop_
_atom_site_type_symbol
_atom_site_label
_atom_site_fract_x
_atom_site_fract_y
_atom_site_fract_z
Si Si1 0.500000 0.500000 0.000000
Si Si2 0.575690 0.992284 0.130933
Si Si3 0.167008 0.745366 0.260550
Si Si4 0.582243 0.512447 0.371400
Si Si5 0.255196 0.514536 0.120560
Si Si6 0.391886 0.673826 0.156307
O O1 0.453914 0.605441 0.081454
O O2 0.615808 0.841534 0.158464
O O3 0.500000 0.000000 0.181412
O O4 0.610840 0.147626 0.163646
O O5 0.569672 0.000000 0.000000
O O6 0.118310 0.839002 0.177737
O O7 0.208693 0.614781 0.199732
O O8 0.218232 0.860627 0.322347
O O9 0.500000 0.500000 0.368224
O O10 0.602925 0.500000 0.500000
O O11 0.605211 0.388476 0.281656
O O12 0.323966 0.610086 0.101338
O O13 0.221658 0.500000 0.000000
#
# Coordination Sequence:
#
# PCOD9331453 Si02
#       6
#     2   8   8   8   8   8
#     4  12  20  36  72 100 128 168 208 282 316 388
#     4  11  23  37  63  98 131 159 207 274 333 382
#     4  11  25  42  62  93 126 169 218 260 321 395
#     4  10  22  41  65  91 125 168 217 266 320 382
#     4  11  24  42  64  87 127 169 211 263 320 389
#     4  11  22  38  66  96 128 166 212 264 328 376
#
# _framework density 19.96622
#
# number of rings (size 3 to 8) (size 9 to 14) (size 15 to 20)
#    0.000    1.143    1.905    4.571    5.333    4.571 
#    0.000    1.905    0.000    3.429    0.000    0.000 
#    0.000    0.000    0.000    0.000    0.000    0.000 
#
# Total GULP energy -117245.338495 kJ/mol
# GULP energy per Si atom -5583.111357 kJ/mol
# Density = 1.992078 g / cm^3
# Si number density = 19.966220 Si / 1000 Ang^3
#
#
#
# Elastic Constant Matrix: (Units=GPa)
#
#
# Indices 1 2 3 4 5 6 
#
# 1 63.6112 28.6568 23.2510 0.0000 0.0000 0.0000
# 2 28.6568 130.7848 53.8289 0.0000 0.0000 0.0000
# 3 23.2510 53.8289 118.6241 0.0000 0.0000 0.0000
# 4 0.0000 0.0000 0.0000 21.9095 0.0000 0.0000
# 5 0.0000 0.0000 0.0000 0.0000 25.7254 0.0000
# 6 0.0000 0.0000 0.0000 0.0000 0.0000 47.7616
#
#
#
# Elastic Compliance Matrix: (Units=1/GPa)
#
#
# Indices 1 2 3 4 5 6 
#
# 1 0.017866 -0.003041 -0.002122 0.000000 0.000000 0.000000
# 2 -0.003041 0.009920 -0.003905 0.000000 0.000000 0.000000
# 3 -0.002122 -0.003905 0.010618 0.000000 0.000000 0.000000
# 4 0.000000 0.000000 0.000000 0.045642 0.000000 0.000000
# 5 0.000000 0.000000 0.000000 0.000000 0.038872 0.000000
# 6 0.000000 0.000000 0.000000 0.000000 0.000000 0.020937
#
#
# Mechanical properties :
#
#
# Convention : Reuss Voigt Hill
#
# Bulk Modulus (GPa) = 49.34094 58.27707 53.80900
# Shear Modulus (GPa) = 29.62990 32.89820 31.26405
#
# Velocity S-wave (km/s) = 3.85645 4.06358 3.96137
# Velocity P-wave (km/s) = 6.67799 7.16018 6.92328
#
# Compressibility (1/GPa) = 0.02026714
#
# Stress axis : x y z
#
# Youngs Moduli (GPa) = 55.97162 100.80709 94.17970
#
# Poissons Ratio (x) = 0.30660 0.19982
# Poissons Ratio (y) = 0.17024 0.36780
# Poissons Ratio (z) = 0.11876 0.39368
#
# Static dielectric constant tensor:
#      x y z
#    x 1.751170 0.000000 0.000000 
#    y 0.000000 1.703650 0.000000 
#    z 0.000000 0.000000 1.715310 
# 
# From -- ./inp_files/17888.got.cif
#   From: 2010.05.17/outbox.cif.g08.bks.cpg/sg23_9_cif.got.tgz:17888.got - 2010.06.04 12:02:01.
