data_PCOD9331906
_publ_section_title
;
Structure prediction by ZEFSAII (Michael W. Deem and Ramdas Pophale) SiO2 
 PCOD9331906
Probable space group: I 2 2 2
;
_chemical_formula_sum "Si O2"
_cell_formula_units_Z 60
_cell_length_a 20.949987
_cell_length_b 23.668933
_cell_length_c 5.426462
_cell_angle_alpha 90.000000
_cell_angle_beta 90.000000
_cell_angle_gamma 90.000000
_cell_volume 2690.786278
_symmetry_space_group_name_H-M "I 2 2 2"
_symmetry_group_IT_number 23
_symmetry_cell_setting 'orthorhombic'
loop_
_space_group_symop_operation_xyz
x,y,z
-x,-y,z
x,-y,-z
-x,y,-z
1/2+x,1/2+y,1/2+z
1/2-x,1/2-y,1/2+z
1/2+x,1/2-y,1/2-z
1/2-x,1/2+y,1/2-z
loop_
_atom_site_type_symbol
_atom_site_label
_atom_site_fract_x
_atom_site_fract_y
_atom_site_fract_z
Si Si1 0.740106 0.653809 0.253184
Si Si2 0.538586 0.378684 0.238337
Si Si3 0.946775 0.756021 0.192598
Si Si4 0.500000 0.843585 0.000000
Si Si5 0.361257 0.135927 0.077855
Si Si6 0.318129 0.228083 0.417867
Si Si7 0.835868 0.065492 0.944671
Si Si8 0.704132 0.035507 0.745135
O O1 0.807262 0.632327 0.368356
O O2 0.713303 0.710834 0.382898
O O3 0.763786 0.682810 0.998103
O O4 0.689145 0.604432 0.323112
O O5 0.500000 0.385391 0.500000
O O6 0.558160 0.314165 0.156845
O O7 0.605342 0.407446 0.304561
O O8 0.500000 0.401569 0.000000
O O9 0.876811 0.737919 0.104466
O O10 0.981407 0.700623 0.289728
O O11 0.000000 0.775797 0.000000
O O12 0.565462 0.876267 0.024189
O O13 0.352832 0.199168 0.184552
O O14 0.342761 0.088047 0.270628
O O15 0.774470 0.061556 0.768991
O O16 0.850711 0.000000 0.000000
O O17 0.699394 0.000000 0.500000
O O18 0.693813 0.000000 0.000000
#
# Coordination Sequence:
#
# PCOD9331906 Si02
#       8
#     8   8   8   4   8   8   8   8
#     4  11  23  40  63 103 141 177 234 293 361 424
#     4  11  25  45  70  99 139 192 248 296 352 420
#     4  11  22  38  62  96 143 186 225 283 357 427
#     4  12  22  40  63  98 140 181 228 282 356 436
#     4  11  25  39  68 101 136 184 231 294 360 435
#     4  12  22  38  64 100 142 181 231 296 359 431
#     4  10  24  46  69 101 138 191 239 301 359 428
#     4  10  25  48  74 101 139 183 236 299 362 426
#
# _framework density 22.298314000000001
#
# number of rings (size 3 to 8) (size 9 to 14) (size 15 to 20)
#    0.000    1.067    6.000    0.000    5.600    2.400 
#    4.800    1.000    0.000    0.800    1.733    0.000 
#    0.000    0.000    0.000    0.000    0.000    0.000 
#
# Total GULP energy -167191.242332 kJ/mol
# GULP energy per Si atom -5573.041411 kJ/mol
# Density = 2.224756 g / cm^3
# Si number density = 22.298314 Si / 1000 Ang^3
#
#
#
# Elastic Constant Matrix: (Units=GPa)
#
#
# Indices 1 2 3 4 5 6 
#
# 1 96.4547 29.0365 15.1371 0.0000 0.0000 0.0000
# 2 29.0365 100.9031 13.0208 0.0000 0.0000 0.0000
# 3 15.1371 13.0208 62.4386 0.0000 0.0000 0.0000
# 4 0.0000 0.0000 0.0000 28.1404 0.0000 0.0000
# 5 0.0000 0.0000 0.0000 0.0000 18.0780 0.0000
# 6 0.0000 0.0000 0.0000 0.0000 0.0000 24.9486
#
#
#
# Elastic Compliance Matrix: (Units=1/GPa)
#
#
# Indices 1 2 3 4 5 6 
#
# 1 0.011633 -0.003066 -0.002181 0.000000 0.000000 0.000000
# 2 -0.003066 0.010993 -0.001549 0.000000 0.000000 0.000000
# 3 -0.002181 -0.001549 0.016867 0.000000 0.000000 0.000000
# 4 0.000000 0.000000 0.000000 0.035536 0.000000 0.000000
# 5 0.000000 0.000000 0.000000 0.000000 0.055316 0.000000
# 6 0.000000 0.000000 0.000000 0.000000 0.000000 0.040082
#
#
# Mechanical properties :
#
#
# Convention : Reuss Voigt Hill
#
# Bulk Modulus (GPa) = 38.60842 41.57614 40.09228
# Shear Modulus (GPa) = 25.95339 27.74019 26.84679
#
# Velocity S-wave (km/s) = 3.41532 3.53093 3.47361
# Velocity P-wave (km/s) = 5.73626 5.94216 5.84012
#
# Compressibility (1/GPa) = 0.02590109
#
# Stress axis : x y z
#
# Youngs Moduli (GPa) = 85.96369 90.96930 59.28571
#
# Poissons Ratio (x) = 0.27892 0.12929
# Poissons Ratio (y) = 0.26357 0.09184
# Poissons Ratio (z) = 0.18747 0.14092
#
# Static dielectric constant tensor:
#      x y z
#    x 1.797440 0.000000 0.000000 
#    y 0.000000 1.897940 0.000000 
#    z 0.000000 0.000000 1.966040 
# 
# From -- ./inp_files/4046.got.cif
#   From: 2010.05.17/outbox.cif.g08.bks.cpg/sg23_3_cif.got.tgz:4046.got - 2010.06.04 12:02:01.
