data_PCOD9331444
_publ_section_title
;
Structure prediction by ZEFSAII (Michael W. Deem and Ramdas Pophale) SiO2 
 PCOD9331444
Probable space group: I 2 2 2
;
_chemical_formula_sum "Si O2"
_cell_formula_units_Z 48
_cell_length_a 12.262463
_cell_length_b 10.813129
_cell_length_c 18.147119
_cell_angle_alpha 90.000000
_cell_angle_beta 90.000000
_cell_angle_gamma 90.000000
_cell_volume 2406.228028
_symmetry_space_group_name_H-M "I 2 2 2"
_symmetry_group_IT_number 23
_symmetry_cell_setting 'orthorhombic'
loop_
_space_group_symop_operation_xyz
x,y,z
-x,-y,z
x,-y,-z
-x,y,-z
1/2+x,1/2+y,1/2+z
1/2-x,1/2-y,1/2+z
1/2+x,1/2-y,1/2-z
1/2-x,1/2+y,1/2-z
loop_
_atom_site_type_symbol
_atom_site_label
_atom_site_fract_x
_atom_site_fract_y
_atom_site_fract_z
Si Si1 0.932789 0.814198 0.811054
Si Si2 0.373725 0.630702 0.025096
Si Si3 0.487327 0.136200 0.815364
Si Si4 0.840418 0.913429 0.174494
Si Si5 0.787093 0.211038 0.672648
Si Si6 0.845251 0.384135 0.445933
O O1 0.961000 0.743195 0.735155
O O2 0.837169 0.736429 0.849672
O O3 0.050282 0.837304 0.847387
O O4 0.880546 0.950019 0.802733
O O5 0.354225 0.635125 0.112322
O O6 0.325240 0.500000 0.000000
O O7 0.500000 0.631066 0.000000
O O8 0.326679 0.756748 0.990314
O O9 0.359490 0.164597 0.822719
O O10 0.549250 0.134051 0.893415
O O11 0.500000 0.000000 0.781704
O O12 0.790138 0.850712 0.247250
O O13 0.754815 0.911339 0.108755
O O14 0.859640 0.500000 0.500000
#
# Coordination Sequence:
#
# PCOD9331444 Si02
#       6
#     8   8   8   8   8   8
#     4  10  22  41  63  94 128 171 230 268 334 405
#     4  11  25  40  62  96 134 177 214 277 349 410
#     4  11  22  37  63  99 131 169 216 287 337 398
#     4  10  23  41  68  93 127 185 226 276 331 417
#     4  11  22  39  65  94 132 169 221 273 338 401
#     4  12  24  43  68 100 137 173 232 284 348 415
#
# _framework density 19.948233999999999
#
# number of rings (size 3 to 8) (size 9 to 14) (size 15 to 20)
#    0.000    1.167    3.333    3.000    2.333    1.333 
#    3.000    5.833    0.000    1.000    0.000    0.000 
#    0.000    0.000    0.000    0.000    0.000    0.000 
#
# Total GULP energy -133997.938372 kJ/mol
# GULP energy per Si atom -5583.247432 kJ/mol
# Density = 1.990283 g / cm^3
# Si number density = 19.948234 Si / 1000 Ang^3
#
#
#
# Elastic Constant Matrix: (Units=GPa)
#
#
# Indices 1 2 3 4 5 6 
#
# 1 87.0814 11.7460 41.6289 0.0000 0.0000 0.0000
# 2 11.7460 107.5933 35.5158 0.0000 0.0000 0.0000
# 3 41.6289 35.5158 86.9087 0.0000 0.0000 0.0000
# 4 0.0000 0.0000 0.0000 25.5043 0.0000 0.0000
# 5 0.0000 0.0000 0.0000 0.0000 28.9838 0.0000
# 6 0.0000 0.0000 0.0000 0.0000 0.0000 17.8339
#
#
#
# Elastic Compliance Matrix: (Units=1/GPa)
#
#
# Indices 1 2 3 4 5 6 
#
# 1 0.014960 0.000846 -0.007512 0.000000 0.000000 0.000000
# 2 0.000846 0.010791 -0.004815 0.000000 0.000000 0.000000
# 3 -0.007512 -0.004815 0.017072 0.000000 0.000000 0.000000
# 4 0.000000 0.000000 0.000000 0.039209 0.000000 0.000000
# 5 0.000000 0.000000 0.000000 0.000000 0.034502 0.000000
# 6 0.000000 0.000000 0.000000 0.000000 0.000000 0.056073
#
#
# Mechanical properties :
#
#
# Convention : Reuss Voigt Hill
#
# Bulk Modulus (GPa) = 50.34645 51.04053 50.69349
# Shear Modulus (GPa) = 24.72916 27.31058 26.01987
#
# Velocity S-wave (km/s) = 3.52471 3.70411 3.61552
# Velocity P-wave (km/s) = 6.46978 6.62842 6.54958
#
# Compressibility (1/GPa) = 0.01986237
#
# Stress axis : x y z
#
# Youngs Moduli (GPa) = 66.84343 92.66662 58.57453
#
# Poissons Ratio (x) = -0.07843 0.44000
# Poissons Ratio (y) = -0.05657 0.28206
# Poissons Ratio (z) = 0.50211 0.44622
#
# Static dielectric constant tensor:
#      x y z
#    x 1.722660 0.000000 0.000000 
#    y 0.000000 1.759640 0.000000 
#    z 0.000000 0.000000 1.683120 
# 
# From -- ./inp_files/24298.got.cif
#   From: 2010.05.17/outbox.cif.g08.bks.cpg/sg23_13_cif.got.tgz:24298.got - 2010.06.04 12:02:01.
