data_PCOD9331874
_publ_section_title
;
Structure prediction by ZEFSAII (Michael W. Deem and Ramdas Pophale) SiO2 
 PCOD9331874
Probable space group: I 2 2 2
;
_chemical_formula_sum "Si O2"
_cell_formula_units_Z 40
_cell_length_a 24.110817
_cell_length_b 8.046991
_cell_length_c 10.303678
_cell_angle_alpha 90.000000
_cell_angle_beta 90.000000
_cell_angle_gamma 90.000000
_cell_volume 1999.114736
_symmetry_space_group_name_H-M "I 2 2 2"
_symmetry_group_IT_number 23
_symmetry_cell_setting 'orthorhombic'
loop_
_space_group_symop_operation_xyz
x,y,z
-x,-y,z
x,-y,-z
-x,y,-z
1/2+x,1/2+y,1/2+z
1/2-x,1/2-y,1/2+z
1/2+x,1/2-y,1/2-z
1/2-x,1/2+y,1/2-z
loop_
_atom_site_type_symbol
_atom_site_label
_atom_site_fract_x
_atom_site_fract_y
_atom_site_fract_z
Si Si1 0.405952 0.500000 0.000000
Si Si2 0.227102 0.344598 0.101917
Si Si3 0.115384 0.508164 0.844645
Si Si4 0.342027 0.347760 0.243514
Si Si5 0.500000 0.000000 0.783590
Si Si6 0.000000 0.246172 0.500000
Si Si7 0.810580 0.000000 0.000000
O O1 0.371388 0.573409 0.881487
O O2 0.448382 0.639970 0.048907
O O3 0.168418 0.372364 0.175224
O O4 0.277590 0.338241 0.201810
O O5 0.233445 0.500000 0.000000
O O6 0.223690 0.168647 0.027543
O O7 0.133790 0.331505 0.783578
O O8 0.054569 0.554497 0.793746
O O9 0.110779 0.500000 0.000000
O O10 0.345868 0.460808 0.371646
O O11 0.519611 0.143986 0.880401
#
# Coordination Sequence:
#
# PCOD9331874 Si02
#       7
#     4   8   8   8   4   4   4
#     4  11  24  44  72 100 142 185 236 292 362 423
#     4  11  24  46  67 104 144 182 241 291 355 442
#     4  11  23  46  68  99 143 183 236 297 350 431
#     4  12  24  46  71 103 145 190 232 303 363 429
#     4  11  23  44  68  98 131 191 236 286 364 403
#     4  10  24  44  66 100 136 176 242 300 332 436
#     4  12  26  42  70  99 144 191 230 296 360 422
#
# _framework density 20.008856000000002
#
# number of rings (size 3 to 8) (size 9 to 14) (size 15 to 20)
#    0.000    0.800    7.000    1.500    2.800    0.000 
#    3.600    0.000    0.000    1.200    0.000    0.000 
#    0.000    0.000    0.000    0.000    0.000    0.000 
#
# Total GULP energy -111624.326017 kJ/mol
# GULP energy per Si atom -5581.216301 kJ/mol
# Density = 1.996331 g / cm^3
# Si number density = 20.008856 Si / 1000 Ang^3
#
#
#
# Elastic Constant Matrix: (Units=GPa)
#
#
# Indices 1 2 3 4 5 6 
#
# 1 132.0719 26.1575 48.7038 0.0000 0.0000 0.0000
# 2 26.1575 112.0622 36.6094 0.0000 0.0000 0.0000
# 3 48.7038 36.6094 109.2602 0.0000 0.0000 0.0000
# 4 0.0000 0.0000 0.0000 22.4027 0.0000 0.0000
# 5 0.0000 0.0000 0.0000 0.0000 -68.7365 0.0000
# 6 0.0000 0.0000 0.0000 0.0000 0.0000 11.1138
#
#
#
# Elastic Compliance Matrix: (Units=1/GPa)
#
#
# Indices 1 2 3 4 5 6 
#
# 1 0.009141 -0.000901 -0.003773 0.000000 0.000000 0.000000
# 2 -0.000901 0.010109 -0.002986 0.000000 0.000000 0.000000
# 3 -0.003773 -0.002986 0.011835 0.000000 0.000000 0.000000
# 4 0.000000 0.000000 0.000000 0.044638 0.000000 0.000000
# 5 0.000000 0.000000 0.000000 0.000000 -0.014548 0.000000
# 6 0.000000 0.000000 0.000000 0.000000 0.000000 0.089978
#
#
# Mechanical properties :
#
#
# Convention : Reuss Voigt Hill
#
# Bulk Modulus (GPa) = 63.42762 64.03730 63.73246
# Shear Modulus (GPa) = 29.11593 9.08425 19.10009
#
# Velocity S-wave (km/s) = 3.81878 2.13307 3.09298
# Velocity P-wave (km/s) = 7.15631 6.17581 6.68406
#
# Compressibility (1/GPa) = 0.01576600
#
# Stress axis : x y z
#
# Youngs Moduli (GPa) = 109.39180 98.91859 84.49776
#
# Poissons Ratio (x) = 0.08915 0.31880
# Poissons Ratio (y) = 0.09859 0.25227
# Poissons Ratio (z) = 0.41273 0.29533
#
# Static dielectric constant tensor:
#      x y z
#    x 1.732360 0.000000 0.000000 
#    y 0.000000 1.742370 0.000000 
#    z 0.000000 0.000000 1.722250 
# 
# From -- ./inp_files/12461.got.cif
#   From: 2010.05.17/outbox.cif.g08.bks.cpg/sg23_7_cif.got.tgz:12461.got - 2010.06.04 12:02:01.
