data_PCOD9331367
_publ_section_title
;
Structure prediction by ZEFSAII (Michael W. Deem and Ramdas Pophale) SiO2 
 PCOD9331367
Probable space group: I 2 2 2
;
_chemical_formula_sum "Si O2"
_cell_formula_units_Z 32
_cell_length_a 22.035031
_cell_length_b 7.362893
_cell_length_c 8.155417
_cell_angle_alpha 90.000000
_cell_angle_beta 90.000000
_cell_angle_gamma 90.000000
_cell_volume 1323.147703
_symmetry_space_group_name_H-M "I 2 2 2"
_symmetry_group_IT_number 23
_symmetry_cell_setting 'orthorhombic'
loop_
_space_group_symop_operation_xyz
x,y,z
-x,-y,z
x,-y,-z
-x,y,-z
1/2+x,1/2+y,1/2+z
1/2-x,1/2-y,1/2+z
1/2+x,1/2-y,1/2-z
1/2-x,1/2+y,1/2-z
loop_
_atom_site_type_symbol
_atom_site_label
_atom_site_fract_x
_atom_site_fract_y
_atom_site_fract_z
Si Si1 0.342778 0.678141 0.562492
Si Si2 0.621932 0.015128 0.762855
Si Si3 0.252822 0.879762 0.341494
Si Si4 0.428303 0.288581 0.966049
O O1 0.376527 0.500000 0.500000
O O2 0.382894 0.854462 0.601918
O O3 0.291216 0.718732 0.426202
O O4 0.304276 0.647845 0.727808
O O5 0.602320 0.155354 0.902807
O O6 0.693355 0.968842 0.765241
O O7 0.588479 0.821411 0.797513
O O8 0.236538 0.000000 0.500000
O O9 0.410747 0.500000 0.000000
O O10 0.500000 0.280224 0.000000
#
# Coordination Sequence:
#
# PCOD9331367 Si02
#       4
#     8   8   8   8
#     4  11  23  38  61  97 148 194 245 278 341 420
#     4  10  22  39  65  99 138 176 226 291 352 402
#     4  10  23  39  59  96 142 195 241 283 333 413
#     4  10  23  44  75 107 128 172 243 308 371 433
#
# _framework density 24.184753000000001
#
# number of rings (size 3 to 8) (size 9 to 14) (size 15 to 20)
#    0.000    1.750    0.000    4.500   14.000    1.000 
#    0.000    0.000    0.000   27.000    0.000    0.000 
#    0.000    0.000    0.000    0.000    0.000    0.000 
#
# Total GULP energy -89201.558574 kJ/mol
# GULP energy per Si atom -5575.097411 kJ/mol
# Density = 2.412971 g / cm^3
# Si number density = 24.184753 Si / 1000 Ang^3
#
#
#
# Elastic Constant Matrix: (Units=GPa)
#
#
# Indices 1 2 3 4 5 6 
#
# 1 87.7820 47.0724 42.9060 0.0000 0.0000 0.0000
# 2 47.0724 231.6569 82.2061 0.0000 0.0000 0.0000
# 3 42.9060 82.2061 83.2351 0.0000 0.0000 0.0000
# 4 0.0000 0.0000 0.0000 44.1320 0.0000 0.0000
# 5 0.0000 0.0000 0.0000 0.0000 9.7740 0.0000
# 6 0.0000 0.0000 0.0000 0.0000 0.0000 102.2614
#
#
#
# Elastic Compliance Matrix: (Units=1/GPa)
#
#
# Indices 1 2 3 4 5 6 
#
# 1 0.015263 -0.000476 -0.007397 0.000000 0.000000 0.000000
# 2 -0.000476 0.006661 -0.006333 0.000000 0.000000 0.000000
# 3 -0.007397 -0.006333 0.022082 0.000000 0.000000 0.000000
# 4 0.000000 0.000000 0.000000 0.022659 0.000000 0.000000
# 5 0.000000 0.000000 0.000000 0.000000 0.102313 0.000000
# 6 0.000000 0.000000 0.000000 0.000000 0.000000 0.009779
#
#
# Mechanical properties :
#
#
# Convention : Reuss Voigt Hill
#
# Bulk Modulus (GPa) = 64.13300 83.00476 73.56888
# Shear Modulus (GPa) = 23.54414 46.59944 35.07179
#
# Velocity S-wave (km/s) = 3.12350 4.39431 3.81223
# Velocity P-wave (km/s) = 6.29157 7.75514 7.06138
#
# Compressibility (1/GPa) = 0.01559260
#
# Stress axis : x y z
#
# Youngs Moduli (GPa) = 65.51825 150.13109 45.28596
#
# Poissons Ratio (x) = 0.07153 0.33499
# Poissons Ratio (y) = 0.03121 0.28679
# Poissons Ratio (z) = 0.48465 0.95077
#
# Static dielectric constant tensor:
#      x y z
#    x 1.849260 0.000000 0.000000 
#    y 0.000000 2.174180 0.000000 
#    z 0.000000 0.000000 1.987810 
# 
# From -- ./inp_files/12375.got.cif
#   From: 2010.05.17/outbox.cif.g08.bks.cpg/sg23_7_cif.got.tgz:12375.got - 2010.06.04 12:02:01.
