data_PCOD9331643
_publ_section_title
;
Structure prediction by ZEFSAII (Michael W. Deem and Ramdas Pophale) SiO2 
 PCOD9331643
Probable space group: I 2 2 2
;
_chemical_formula_sum "Si O2"
_cell_formula_units_Z 26
_cell_length_a 4.927695
_cell_length_b 16.417278
_cell_length_c 16.221670
_cell_angle_alpha 90.000000
_cell_angle_beta 90.000000
_cell_angle_gamma 90.000000
_cell_volume 1312.322376
_symmetry_space_group_name_H-M "I 2 2 2"
_symmetry_group_IT_number 23
_symmetry_cell_setting 'orthorhombic'
loop_
_space_group_symop_operation_xyz
x,y,z
-x,-y,z
x,-y,-z
-x,y,-z
1/2+x,1/2+y,1/2+z
1/2-x,1/2-y,1/2+z
1/2+x,1/2-y,1/2-z
1/2-x,1/2+y,1/2-z
loop_
_atom_site_type_symbol
_atom_site_label
_atom_site_fract_x
_atom_site_fract_y
_atom_site_fract_z
Si Si1 0.850550 0.227980 0.296730
Si Si2 0.615580 0.869638 0.086550
Si Si3 0.000000 0.000000 0.000000
Si Si4 0.263831 0.943701 0.235909
O O1 0.669080 0.260472 0.220310
O O2 0.764524 0.290766 0.367843
O O3 0.794819 0.132338 0.295489
O O4 0.395185 0.907426 0.150678
O O5 0.500000 0.840276 0.000000
O O6 0.817411 0.940987 0.056882
O O7 0.500000 0.000000 0.271081
O O8 0.000000 0.000000 0.224434
#
# Coordination Sequence:
#
# PCOD9331643 Si02
#       4
#     8   8   2   8
#     4  10  23  40  59  88 125 164 205 247 301 363
#     4  11  26  38  63  93 132 159 197 250 317 370
#     4  12  26  40  58  96 128 164 192 248 318 380
#     4  11  23  40  65  91 122 162 212 254 297 361
#
# _framework density 19.812207000000001
#
# number of rings (size 3 to 8) (size 9 to 14) (size 15 to 20)
#    0.000    1.231    0.000    6.000   21.538    0.000 
#    0.000    0.000    0.000    0.923    0.000    0.000 
#    0.000    0.000    0.000    0.000    0.000    0.000 
#
# Total GULP energy -72530.188082 kJ/mol
# GULP energy per Si atom -5579.245237 kJ/mol
# Density = 1.976711 g / cm^3
# Si number density = 19.812207 Si / 1000 Ang^3
#
#
#
# Elastic Constant Matrix: (Units=GPa)
#
#
# Indices 1 2 3 4 5 6 
#
# 1 105.0119 65.7199 27.6989 0.0000 0.0000 0.0000
# 2 65.7199 203.9868 81.1421 0.0000 0.0000 0.0000
# 3 27.6989 81.1421 75.8922 0.0000 0.0000 0.0000
# 4 0.0000 0.0000 0.0000 22.9648 0.0000 0.0000
# 5 0.0000 0.0000 0.0000 0.0000 23.4418 0.0000
# 6 0.0000 0.0000 0.0000 0.0000 0.0000 39.8188
#
#
#
# Elastic Compliance Matrix: (Units=1/GPa)
#
#
# Indices 1 2 3 4 5 6 
#
# 1 0.011936 -0.003676 -0.000426 0.000000 0.000000 0.000000
# 2 -0.003676 0.009662 -0.008989 0.000000 0.000000 0.000000
# 3 -0.000426 -0.008989 0.022943 0.000000 0.000000 0.000000
# 4 0.000000 0.000000 0.000000 0.043545 0.000000 0.000000
# 5 0.000000 0.000000 0.000000 0.000000 0.042659 0.000000
# 6 0.000000 0.000000 0.000000 0.000000 0.000000 0.025114
#
#
# Mechanical properties :
#
#
# Convention : Reuss Voigt Hill
#
# Bulk Modulus (GPa) = 54.46963 81.55698 68.01330
# Shear Modulus (GPa) = 26.57317 31.26708 28.92013
#
# Velocity S-wave (km/s) = 3.66628 3.97693 3.82476
# Velocity P-wave (km/s) = 6.74350 7.89572 7.34225
#
# Compressibility (1/GPa) = 0.01835886
#
# Stress axis : x y z
#
# Youngs Moduli (GPa) = 83.78292 103.49583 43.58652
#
# Poissons Ratio (x) = 0.38044 0.01857
# Poissons Ratio (y) = 0.30798 0.39180
# Poissons Ratio (z) = 0.03569 0.93032
#
# Static dielectric constant tensor:
#      x y z
#    x 1.777270 0.000000 0.000000 
#    y 0.000000 1.740330 0.000000 
#    z 0.000000 0.000000 1.697000 
# 
# From -- ./inp_files/22905.got.cif
#   From: 2010.05.17/outbox.cif.g08.bks.cpg/sg23_12_cif.got.tgz:22905.got - 2010.06.04 12:02:01.
