data_PCOD9331610
_publ_section_title
;
Structure prediction by ZEFSAII (Michael W. Deem and Ramdas Pophale) SiO2 
 PCOD9331610
Probable space group: I 2 2 2
;
_chemical_formula_sum "Si O2"
_cell_formula_units_Z 60
_cell_length_a 21.392476
_cell_length_b 12.182116
_cell_length_c 10.993315
_cell_angle_alpha 90.000000
_cell_angle_beta 90.000000
_cell_angle_gamma 90.000000
_cell_volume 2864.919717
_symmetry_space_group_name_H-M "I 2 2 2"
_symmetry_group_IT_number 23
_symmetry_cell_setting 'orthorhombic'
loop_
_space_group_symop_operation_xyz
x,y,z
-x,-y,z
x,-y,-z
-x,y,-z
1/2+x,1/2+y,1/2+z
1/2-x,1/2-y,1/2+z
1/2+x,1/2-y,1/2-z
1/2-x,1/2+y,1/2-z
loop_
_atom_site_type_symbol
_atom_site_label
_atom_site_fract_x
_atom_site_fract_y
_atom_site_fract_z
Si Si1 0.500000 0.266683 0.000000
Si Si2 0.952298 0.600903 0.182755
Si Si3 0.814770 0.399764 0.911725
Si Si4 0.889830 0.620513 0.449023
Si Si5 0.398784 0.497055 0.354740
Si Si6 0.002552 0.832912 0.228759
Si Si7 0.264383 0.490380 0.310324
Si Si8 0.741905 0.819357 0.014361
O O1 0.441926 0.185680 0.023167
O O2 0.493267 0.332901 0.875069
O O3 0.890023 0.608510 0.100270
O O4 0.921001 0.601392 0.317703
O O5 0.992818 0.711184 0.178905
O O6 0.000000 0.500000 0.163834
O O7 0.781731 0.437334 0.786548
O O8 0.781695 0.288102 0.956803
O O9 0.800513 0.500000 0.000000
O O10 0.875041 0.500000 0.500000
O O11 0.827623 0.693919 0.459719
O O12 0.388399 0.500000 0.500000
O O13 0.448048 0.592496 0.326605
O O14 0.432302 0.385640 0.311821
O O15 0.335835 0.516044 0.277745
O O16 0.273043 0.397725 0.414101
O O17 0.237242 0.602803 0.366498
#
# Coordination Sequence:
#
# PCOD9331610 Si02
#       8
#     4   8   8   8   8   8   8   8
#     4  10  23  35  62 102 140 178 210 288 356 406
#     4  11  24  45  67  99 141 181 222 291 347 419
#     4  12  29  45  68 109 141 183 233 294 362 424
#     4  11  19  40  69  99 132 180 234 275 345 421
#     4  11  23  44  68  94 122 179 233 279 330 415
#     4  10  23  41  66  97 135 173 229 276 339 415
#     4  11  24  47  71 100 132 183 235 283 359 419
#     4  11  23  44  73  95 138 187 228 297 343 433
#
# _framework density 20.942995
#
# number of rings (size 3 to 8) (size 9 to 14) (size 15 to 20)
#    0.000    1.067    4.000    3.400    3.733    4.533 
#    2.400    0.000    0.000    0.000    0.000    0.000 
#    0.000    0.000    0.000    0.000    0.000    0.000 
#
# Total GULP energy -167507.055808 kJ/mol
# GULP energy per Si atom -5583.568527 kJ/mol
# Density = 2.089533 g / cm^3
# Si number density = 20.942995 Si / 1000 Ang^3
#
#
#
# Elastic Constant Matrix: (Units=GPa)
#
#
# Indices 1 2 3 4 5 6 
#
# 1 130.9989 37.5490 18.3679 0.0000 0.0000 0.0000
# 2 37.5490 135.5104 42.3236 0.0000 0.0000 0.0000
# 3 18.3679 42.3236 64.9871 0.0000 0.0000 0.0000
# 4 0.0000 0.0000 0.0000 22.9295 0.0000 0.0000
# 5 0.0000 0.0000 0.0000 0.0000 19.0228 0.0000
# 6 0.0000 0.0000 0.0000 0.0000 0.0000 30.5251
#
#
#
# Elastic Compliance Matrix: (Units=1/GPa)
#
#
# Indices 1 2 3 4 5 6 
#
# 1 0.008351 -0.001980 -0.001071 0.000000 0.000000 0.000000
# 2 -0.001980 0.009733 -0.005779 0.000000 0.000000 0.000000
# 3 -0.001071 -0.005779 0.019454 0.000000 0.000000 0.000000
# 4 0.000000 0.000000 0.000000 0.043612 0.000000 0.000000
# 5 0.000000 0.000000 0.000000 0.000000 0.052569 0.000000
# 6 0.000000 0.000000 0.000000 0.000000 0.000000 0.032760
#
#
# Mechanical properties :
#
#
# Convention : Reuss Voigt Hill
#
# Bulk Modulus (GPa) = 50.30544 58.66415 54.48480
# Shear Modulus (GPa) = 26.21024 30.04587 28.12806
#
# Velocity S-wave (km/s) = 3.54150 3.79179 3.66878
# Velocity P-wave (km/s) = 6.38712 6.87331 6.63467
#
# Compressibility (1/GPa) = 0.01987857
#
# Stress axis : x y z
#
# Youngs Moduli (GPa) = 119.74255 102.74291 51.40265
#
# Poissons Ratio (x) = 0.20338 0.05506
# Poissons Ratio (y) = 0.23703 0.29707
# Poissons Ratio (z) = 0.12827 0.59378
#
# Static dielectric constant tensor:
#      x y z
#    x 1.805700 0.000000 0.000000 
#    y 0.000000 1.734710 0.000000 
#    z 0.000000 0.000000 1.805620 
# 
# From -- ./inp_files/18039.got.cif
#   From: 2010.05.17/outbox.cif.g08.bks.cpg/sg23_10_cif.got.tgz:18039.got - 2010.06.04 12:02:01.
