data_PCOD9331974
_publ_section_title
;
Structure prediction by ZEFSAII (Michael W. Deem and Ramdas Pophale) SiO2 
 PCOD9331974
Probable space group: I 2 2 2
;
_chemical_formula_sum "Si O2"
_cell_formula_units_Z 58
_cell_length_a 18.448278
_cell_length_b 8.875388
_cell_length_c 16.727590
_cell_angle_alpha 90.000000
_cell_angle_beta 90.000000
_cell_angle_gamma 90.000000
_cell_volume 2738.902406
_symmetry_space_group_name_H-M "I 2 2 2"
_symmetry_group_IT_number 23
_symmetry_cell_setting 'orthorhombic'
loop_
_space_group_symop_operation_xyz
x,y,z
-x,-y,z
x,-y,-z
-x,y,-z
1/2+x,1/2+y,1/2+z
1/2-x,1/2-y,1/2+z
1/2+x,1/2-y,1/2-z
1/2-x,1/2+y,1/2-z
loop_
_atom_site_type_symbol
_atom_site_label
_atom_site_fract_x
_atom_site_fract_y
_atom_site_fract_z
Si Si1 0.781117 0.480644 0.241265
Si Si2 0.281081 0.872568 0.565178
Si Si3 0.130723 0.711812 0.553716
Si Si4 0.138462 0.848407 0.962407
Si Si5 0.000000 0.000000 0.000000
Si Si6 0.612358 0.876595 0.124862
Si Si7 0.477423 0.327611 0.826081
Si Si8 0.343736 0.703016 0.281280
O O1 0.801750 0.436394 0.151192
O O2 0.825511 0.386302 0.307684
O O3 0.696264 0.446378 0.250439
O O4 0.800586 0.653963 0.251781
O O5 0.211752 0.763628 0.574698
O O6 0.346711 0.779774 0.526244
O O7 0.261512 0.000000 0.500000
O O8 0.107912 0.549375 0.591592
O O9 0.128672 0.709520 0.457800
O O10 0.072870 0.821225 0.594675
O O11 0.164929 0.801217 0.876261
O O12 0.173973 0.000000 0.000000
O O13 0.054918 0.895850 0.951640
O O14 0.542263 0.793040 0.161987
O O15 0.500000 0.500000 0.813942
O O16 0.424434 0.284738 0.752625
#
# Coordination Sequence:
#
# PCOD9331974 Si02
#       8
#     8   8   8   8   2   8   8   8
#     4  12  26  46  72 106 147 188 245 302 363 435
#     4  12  25  44  73 108 144 186 245 316 362 429
#     4  11  25  47  71 103 145 193 245 286 363 446
#     4  10  25  46  74 103 138 193 245 295 368 440
#     4   8  24  44  74  96 136 184 246 292 352 452
#     4  11  26  45  75 101 143 200 237 294 358 449
#     4  12  28  45  71 110 149 188 238 308 369 437
#     4  12  27  46  72 108 146 187 243 301 366 436
#
# _framework density 21.176366999999999
#
# number of rings (size 3 to 8) (size 9 to 14) (size 15 to 20)
#    0.414    0.276    4.138    1.655   10.621    2.759 
#    0.000    0.345    0.000    0.000    0.000    0.000 
#    0.000    0.000    0.000    0.000    0.000    0.000 
#
# Total GULP energy -161917.460380 kJ/mol
# GULP energy per Si atom -5583.360703 kJ/mol
# Density = 2.112817 g / cm^3
# Si number density = 21.176367 Si / 1000 Ang^3
#
#
#
# Elastic Constant Matrix: (Units=GPa)
#
#
# Indices 1 2 3 4 5 6 
#
# 1 84.8695 30.6420 7.1234 0.0000 0.0000 0.0000
# 2 30.6420 62.1620 -2.3717 0.0000 0.0000 0.0000
# 3 7.1234 -2.3717 110.8109 0.0000 0.0000 0.0000
# 4 0.0000 0.0000 0.0000 28.2150 0.0000 0.0000
# 5 0.0000 0.0000 0.0000 0.0000 8.1943 0.0000
# 6 0.0000 0.0000 0.0000 0.0000 0.0000 35.1646
#
#
#
# Elastic Compliance Matrix: (Units=1/GPa)
#
#
# Indices 1 2 3 4 5 6 
#
# 1 0.014463 -0.007170 -0.001083 0.000000 0.000000 0.000000
# 2 -0.007170 0.019655 0.000882 0.000000 0.000000 0.000000
# 3 -0.001083 0.000882 0.009113 0.000000 0.000000 0.000000
# 4 0.000000 0.000000 0.000000 0.035442 0.000000 0.000000
# 5 0.000000 0.000000 0.000000 0.000000 0.122036 0.000000
# 6 0.000000 0.000000 0.000000 0.000000 0.000000 0.028438
#
#
# Mechanical properties :
#
#
# Convention : Reuss Voigt Hill
#
# Bulk Modulus (GPa) = 35.10417 36.51442 35.80930
# Shear Modulus (GPa) = 19.73272 29.14469 24.43871
#
# Velocity S-wave (km/s) = 3.05590 3.71385 3.40082
# Velocity P-wave (km/s) = 5.39114 5.97250 5.68925
#
# Compressibility (1/GPa) = 0.02848664
#
# Stress axis : x y z
#
# Youngs Moduli (GPa) = 69.14389 50.87702 109.73472
#
# Poissons Ratio (x) = 0.36481 0.11886
# Poissons Ratio (y) = 0.49580 -0.09675
# Poissons Ratio (z) = 0.07490 -0.04485
#
# Static dielectric constant tensor:
#      x y z
#    x 1.776720 0.000000 0.000000 
#    y 0.000000 1.791200 0.000000 
#    z 0.000000 0.000000 1.758990 
# 
# From -- ./inp_files/25076.got.cif
#   From: 2010.05.17/outbox.cif.g08.bks.cpg/sg23_13_cif.got.tgz:25076.got - 2010.06.04 12:02:01.
