data_PCOD9331622
_publ_section_title
;
Structure prediction by ZEFSAII (Michael W. Deem and Ramdas Pophale) SiO2 
 PCOD9331622
Probable space group: I 2 2 2
;
_chemical_formula_sum "Si O2"
_cell_formula_units_Z 40
_cell_length_a 26.258870
_cell_length_b 8.308436
_cell_length_c 8.005666
_cell_angle_alpha 90.000000
_cell_angle_beta 90.000000
_cell_angle_gamma 90.000000
_cell_volume 1746.597279
_symmetry_space_group_name_H-M "I 2 2 2"
_symmetry_group_IT_number 23
_symmetry_cell_setting 'orthorhombic'
loop_
_space_group_symop_operation_xyz
x,y,z
-x,-y,z
x,-y,-z
-x,y,-z
1/2+x,1/2+y,1/2+z
1/2-x,1/2-y,1/2+z
1/2+x,1/2-y,1/2-z
1/2-x,1/2+y,1/2-z
loop_
_atom_site_type_symbol
_atom_site_label
_atom_site_fract_x
_atom_site_fract_y
_atom_site_fract_z
Si Si1 0.940458 0.229058 0.761317
Si Si2 0.416672 0.000000 0.500000
Si Si3 0.343895 0.439200 0.813785
Si Si4 0.000000 0.000000 0.000000
Si Si5 0.000000 0.000000 0.500000
Si Si6 0.834007 0.254983 0.139004
Si Si7 0.251394 0.348649 0.618292
O O1 0.946082 0.404701 0.850065
O O2 0.880721 0.209038 0.724266
O O3 0.966638 0.131152 0.605484
O O4 0.962744 0.115315 0.901880
O O5 0.379248 0.873519 0.592738
O O6 0.356074 0.578649 0.679165
O O7 0.285422 0.398783 0.777572
O O8 0.351959 0.500000 0.000000
O O9 0.801245 0.287244 0.307298
O O10 0.792006 0.253267 0.990481
O O11 0.240633 0.500000 0.500000
#
# Coordination Sequence:
#
# PCOD9331622 Si02
#       7
#     8   4   8   2   2   8   8
#     4  11  23  46  75 107 132 183 237 299 367 449
#     4  12  26  41  73 108 152 176 239 305 368 412
#     4  11  22  41  70  93 135 186 242 281 347 438
#     4  10  24  44  84  90 136 180 240 274 384 484
#     4  10  24  50  82 108 136 192 242 298 384 472
#     4  11  24  39  64  99 144 190 237 294 341 414
#     4  10  23  38  60  96 139 194 243 281 343 411
#
# _framework density 22.901675000000001
#
# number of rings (size 3 to 8) (size 9 to 14) (size 15 to 20)
#    0.000    1.200    3.000    2.400    8.400    2.000 
#    0.000    0.000    4.400    0.000    0.000    0.000 
#    0.000    0.000    0.000    0.000    0.000    0.000 
#
# Total GULP energy -111471.904049 kJ/mol
# GULP energy per Si atom -5573.595202 kJ/mol
# Density = 2.284955 g / cm^3
# Si number density = 22.901675 Si / 1000 Ang^3
#
#
#
# Elastic Constant Matrix: (Units=GPa)
#
#
# Indices 1 2 3 4 5 6 
#
# 1 58.0520 35.0105 40.0147 0.0000 0.0000 0.0000
# 2 35.0105 86.7716 34.4651 0.0000 0.0000 0.0000
# 3 40.0147 34.4651 112.5596 0.0000 0.0000 0.0000
# 4 0.0000 0.0000 0.0000 36.8412 0.0000 0.0000
# 5 0.0000 0.0000 0.0000 0.0000 -3.9821 0.0000
# 6 0.0000 0.0000 0.0000 0.0000 0.0000 8.2305
#
#
#
# Elastic Compliance Matrix: (Units=1/GPa)
#
#
# Indices 1 2 3 4 5 6 
#
# 1 0.027004 -0.008063 -0.007131 0.000000 0.000000 0.000000
# 2 -0.008063 0.015528 -0.001888 0.000000 0.000000 0.000000
# 3 -0.007131 -0.001888 0.011997 0.000000 0.000000 0.000000
# 4 0.000000 0.000000 0.000000 0.027144 0.000000 0.000000
# 5 0.000000 0.000000 0.000000 0.000000 -0.251126 0.000000
# 6 0.000000 0.000000 0.000000 0.000000 0.000000 0.121500
#
#
# Mechanical properties :
#
#
# Convention : Reuss Voigt Hill
#
# Bulk Modulus (GPa) = 49.10457 52.92930 51.01693
# Shear Modulus (GPa) = -714.22521 18.07745 -348.07388
#
# Velocity S-wave (km/s) = -17.67888 2.81259 -12.34164
# Velocity P-wave (km/s) = 19.88054 5.80597 13.44483
#
# Compressibility (1/GPa) = 0.02036471
#
# Stress axis : x y z
#
# Youngs Moduli (GPa) = 37.03144 64.40083 83.35174
#
# Poissons Ratio (x) = 0.51928 0.59438
# Poissons Ratio (y) = 0.29859 0.15737
# Poissons Ratio (z) = 0.26407 0.12159
#
# Static dielectric constant tensor:
#      x y z
#    x 1.875140 0.000000 0.000000 
#    y 0.000000 1.978110 0.000000 
#    z 0.000000 0.000000 2.154020 
# 
# From -- ./inp_files/12941.got.cif
#   From: 2010.05.17/outbox.cif.g08.bks.cpg/sg23_7_cif.got.tgz:12941.got - 2010.06.04 12:02:01.
