data_PCOD9331948
_publ_section_title
;
Structure prediction by ZEFSAII (Michael W. Deem and Ramdas Pophale) SiO2 
 PCOD9331948
Probable space group: I 2 2 2
;
_chemical_formula_sum "Si O2"
_cell_formula_units_Z 40
_cell_length_a 24.660306
_cell_length_b 8.085643
_cell_length_c 10.006472
_cell_angle_alpha 90.000000
_cell_angle_beta 90.000000
_cell_angle_gamma 90.000000
_cell_volume 1995.234787
_symmetry_space_group_name_H-M "I 2 2 2"
_symmetry_group_IT_number 23
_symmetry_cell_setting 'orthorhombic'
loop_
_space_group_symop_operation_xyz
x,y,z
-x,-y,z
x,-y,-z
-x,y,-z
1/2+x,1/2+y,1/2+z
1/2-x,1/2-y,1/2+z
1/2+x,1/2-y,1/2-z
1/2-x,1/2+y,1/2-z
loop_
_atom_site_type_symbol
_atom_site_label
_atom_site_fract_x
_atom_site_fract_y
_atom_site_fract_z
Si Si1 0.191509 0.858867 0.320832
Si Si2 0.500000 0.500000 0.193113
Si Si3 0.525436 0.168183 0.646135
Si Si4 0.098736 0.000000 0.500000
Si Si5 0.712901 0.370901 0.389593
Si Si6 0.351384 0.832533 0.567718
O O1 0.244773 0.778749 0.384182
O O2 0.178921 0.736540 0.197242
O O3 0.140900 0.878827 0.422242
O O4 0.203305 0.035040 0.249496
O O5 0.516517 0.663251 0.274097
O O6 0.554115 0.445207 0.110524
O O7 0.500000 0.189094 0.500000
O O8 0.588344 0.140243 0.618619
O O9 0.500000 0.000000 0.707093
O O10 0.734600 0.500000 0.500000
O O11 0.656676 0.304354 0.452071
O O12 0.331633 0.000000 0.500000
#
# Coordination Sequence:
#
# PCOD9331948 Si02
#       6
#     8   4   8   4   8   8
#     4  11  24  44  66 100 132 181 218 274 344 411
#     4  11  25  48  64  96 141 181 224 286 322 423
#     4  11  23  42  70 102 130 173 230 287 345 388
#     4  11  26  42  68  92 136 186 223 258 354 406
#     4  10  25  41  67  98 132 173 224 273 338 397
#     4  11  22  43  68  98 130 169 225 285 335 399
#
# _framework density 20.047765999999999
#
# number of rings (size 3 to 8) (size 9 to 14) (size 15 to 20)
#    0.000    1.200    4.000    1.500    9.800    1.600 
#    3.600    2.000    0.000    0.000    0.000    0.000 
#    0.000    0.000    0.000    0.000    0.000    0.000 
#
# Total GULP energy -111466.611527 kJ/mol
# GULP energy per Si atom -5573.330576 kJ/mol
# Density = 2.000214 g / cm^3
# Si number density = 20.047766 Si / 1000 Ang^3
#
#
#
# Elastic Constant Matrix: (Units=GPa)
#
#
# Indices 1 2 3 4 5 6 
#
# 1 112.1868 47.0640 25.1532 0.0000 0.0000 0.0000
# 2 47.0640 123.7746 53.1594 0.0000 0.0000 0.0000
# 3 25.1532 53.1594 68.7473 0.0000 0.0000 0.0000
# 4 0.0000 0.0000 0.0000 28.3035 0.0000 0.0000
# 5 0.0000 0.0000 0.0000 0.0000 15.3828 0.0000
# 6 0.0000 0.0000 0.0000 0.0000 0.0000 32.5558
#
#
#
# Elastic Compliance Matrix: (Units=1/GPa)
#
#
# Indices 1 2 3 4 5 6 
#
# 1 0.010666 -0.003563 -0.001147 0.000000 0.000000 0.000000
# 2 -0.003563 0.013287 -0.008970 0.000000 0.000000 0.000000
# 3 -0.001147 -0.008970 0.021902 0.000000 0.000000 0.000000
# 4 0.000000 0.000000 0.000000 0.035331 0.000000 0.000000
# 5 0.000000 0.000000 0.000000 0.000000 0.065008 0.000000
# 6 0.000000 0.000000 0.000000 0.000000 0.000000 0.030716
#
#
# Mechanical properties :
#
#
# Convention : Reuss Voigt Hill
#
# Bulk Modulus (GPa) = 54.07352 61.71801 57.89576
# Shear Modulus (GPa) = 23.76027 27.20390 25.48208
#
# Velocity S-wave (km/s) = 3.44638 3.68768 3.56907
# Velocity P-wave (km/s) = 6.54734 6.99888 6.77687
#
# Compressibility (1/GPa) = 0.01849334
#
# Stress axis : x y z
#
# Youngs Moduli (GPa) = 93.75976 75.26427 45.65729
#
# Poissons Ratio (x) = 0.26814 0.05239
# Poissons Ratio (y) = 0.33403 0.40956
# Poissons Ratio (z) = 0.10759 0.67515
#
# Static dielectric constant tensor:
#      x y z
#    x 1.741810 0.000000 0.000000 
#    y 0.000000 1.718920 0.000000 
#    z 0.000000 0.000000 1.697780 
# 
# From -- ./inp_files/17882.got.cif
#   From: 2010.05.17/outbox.cif.g08.bks.cpg/sg23_9_cif.got.tgz:17882.got - 2010.06.04 12:02:01.
