data_PCOD9331506
_publ_section_title
;
Structure prediction by ZEFSAII (Michael W. Deem and Ramdas Pophale) SiO2 
 PCOD9331506
Probable space group: I 2 2 2
;
_chemical_formula_sum "Si O2"
_cell_formula_units_Z 56
_cell_length_a 19.355715
_cell_length_b 15.500078
_cell_length_c 9.012771
_cell_angle_alpha 90.000000
_cell_angle_beta 90.000000
_cell_angle_gamma 90.000000
_cell_volume 2703.967323
_symmetry_space_group_name_H-M "I 2 2 2"
_symmetry_group_IT_number 23
_symmetry_cell_setting 'orthorhombic'
loop_
_space_group_symop_operation_xyz
x,y,z
-x,-y,z
x,-y,-z
-x,y,-z
1/2+x,1/2+y,1/2+z
1/2-x,1/2-y,1/2+z
1/2+x,1/2-y,1/2-z
1/2-x,1/2+y,1/2-z
loop_
_atom_site_type_symbol
_atom_site_label
_atom_site_fract_x
_atom_site_fract_y
_atom_site_fract_z
Si Si1 0.298456 0.492228 0.164497
Si Si2 0.601091 0.808652 0.824682
Si Si3 0.863263 0.518644 0.167957
Si Si4 0.474437 0.737551 0.659588
Si Si5 0.114907 0.909257 0.082766
Si Si6 0.862780 0.661863 0.662081
Si Si7 0.701812 0.676572 0.675638
O O1 0.218903 0.461924 0.156453
O O2 0.339433 0.430499 0.273897
O O3 0.300379 0.588187 0.230976
O O4 0.327634 0.500000 0.000000
O O5 0.599599 0.899751 0.739458
O O6 0.534491 0.754101 0.776947
O O7 0.666187 0.753979 0.764103
O O8 0.605877 0.827047 0.998724
O O9 0.867746 0.435721 0.275504
O O10 0.887532 0.500000 0.000000
O O11 0.500000 0.771931 0.500000
O O12 0.453984 0.638590 0.633673
O O13 0.405790 0.782679 0.720396
O O14 0.157624 0.846251 0.971763
O O15 0.103326 0.000000 0.000000
O O16 0.782946 0.690582 0.648787
#
# Coordination Sequence:
#
# PCOD9331506 Si02
#       7
#     8   8   8   8   8   8   8
#     4   9  20  39  66 105 135 173 227 290 347 411
#     4  12  25  43  67 101 143 180 232 289 345 418
#     4  10  22  42  69 100 140 183 230 281 356 418
#     4  12  26  45  67  98 139 183 235 269 352 412
#     4  10  22  44  69  97 139 183 228 286 343 422
#     4  11  26  43  70 102 137 184 233 293 344 409
#     4  10  23  41  69 103 133 180 228 286 351 404
#
# _framework density 20.71031
#
# number of rings (size 3 to 8) (size 9 to 14) (size 15 to 20)
#    0.000    1.429    1.429    2.571    6.000    4.286 
#    0.000    2.857    0.000    0.857    0.000    0.000 
#    0.000    0.000    0.000    0.000    0.000    0.000 
#
# Total GULP energy -156555.826912 kJ/mol
# GULP energy per Si atom -5591.279533 kJ/mol
# Density = 2.066317 g / cm^3
# Si number density = 20.710310 Si / 1000 Ang^3
#
#
#
# Elastic Constant Matrix: (Units=GPa)
#
#
# Indices 1 2 3 4 5 6 
#
# 1 80.3380 47.4478 43.0536 0.0000 0.0000 0.0000
# 2 47.4478 43.1113 56.1033 0.0000 0.0000 0.0000
# 3 43.0536 56.1033 155.7953 0.0000 0.0000 0.0000
# 4 0.0000 0.0000 0.0000 23.5866 0.0000 0.0000
# 5 0.0000 0.0000 0.0000 0.0000 32.6918 0.0000
# 6 0.0000 0.0000 0.0000 0.0000 0.0000 38.0674
#
#
#
# Elastic Compliance Matrix: (Units=1/GPa)
#
#
# Indices 1 2 3 4 5 6 
#
# 1 0.041847 -0.058353 0.009449 0.000000 0.000000 0.000000
# 2 -0.058353 0.125023 -0.028896 0.000000 0.000000 0.000000
# 3 0.009449 -0.028896 0.014213 0.000000 0.000000 0.000000
# 4 0.000000 0.000000 0.000000 0.042397 0.000000 0.000000
# 5 0.000000 0.000000 0.000000 0.000000 0.030589 0.000000
# 6 0.000000 0.000000 0.000000 0.000000 0.000000 0.026269
#
#
# Mechanical properties :
#
#
# Convention : Reuss Voigt Hill
#
# Bulk Modulus (GPa) = 39.24210 63.60601 51.42405
# Shear Modulus (GPa) = 11.25031 27.71182 19.48106
#
# Velocity S-wave (km/s) = 2.33324 3.66193 3.07032
# Velocity P-wave (km/s) = 5.12327 6.97557 6.11991
#
# Compressibility (1/GPa) = 0.02548283
#
# Stress axis : x y z
#
# Youngs Moduli (GPa) = 23.89651 7.99855 70.35742
#
# Poissons Ratio (x) = 0.46674 -0.66482
# Poissons Ratio (y) = 1.39444 2.03305
# Poissons Ratio (z) = -0.22580 0.23113
#
# Static dielectric constant tensor:
#      x y z
#    x 1.756770 0.000000 0.000000 
#    y 0.000000 1.728130 0.000000 
#    z 0.000000 0.000000 1.722680 
# 
# From -- ./inp_files/12075.got.cif
#   From: 2010.05.17/outbox.cif.g08.bks.cpg/sg23_7_cif.got.tgz:12075.got - 2010.06.04 12:02:01.
