data_PCOD9331291
_publ_section_title
;
Structure prediction by ZEFSAII (Michael W. Deem and Ramdas Pophale) SiO2 
 PCOD9331291
Probable space group: I 2 2 2
;
_chemical_formula_sum "Si O2"
_cell_formula_units_Z 58
_cell_length_a 7.879005
_cell_length_b 11.776802
_cell_length_c 30.383549
_cell_angle_alpha 90.000000
_cell_angle_beta 90.000000
_cell_angle_gamma 90.000000
_cell_volume 2819.273768
_symmetry_space_group_name_H-M "I 2 2 2"
_symmetry_group_IT_number 23
_symmetry_cell_setting 'orthorhombic'
loop_
_space_group_symop_operation_xyz
x,y,z
-x,-y,z
x,-y,-z
-x,y,-z
1/2+x,1/2+y,1/2+z
1/2-x,1/2-y,1/2+z
1/2+x,1/2-y,1/2-z
1/2-x,1/2+y,1/2-z
loop_
_atom_site_type_symbol
_atom_site_label
_atom_site_fract_x
_atom_site_fract_y
_atom_site_fract_z
Si Si1 0.699426 0.693051 0.698629
Si Si2 0.805241 0.461084 0.660058
Si Si3 0.308216 0.962784 0.933401
Si Si4 0.393307 0.116841 0.379151
Si Si5 0.266737 0.226097 0.608561
Si Si6 0.000000 0.000000 0.000000
Si Si7 0.313191 0.233520 0.296406
Si Si8 0.799796 0.994320 0.549475
O O1 0.699055 0.565336 0.680047
O O2 0.787111 0.769570 0.660163
O O3 0.511465 0.739270 0.703407
O O4 0.773375 0.696264 0.747246
O O5 0.766152 0.454004 0.607892
O O6 0.779684 0.347248 0.687358
O O7 0.000000 0.500000 0.663140
O O8 0.315087 0.837280 0.912472
O O9 0.146177 0.953490 0.966001
O O10 0.500000 0.000000 0.949000
O O11 0.527361 0.218079 0.388287
O O12 0.288554 0.141958 0.335172
O O13 0.500000 0.000000 0.372447
O O14 0.277850 0.094763 0.421337
O O15 0.230084 0.119951 0.577341
O O16 0.727035 0.000000 0.500000
O O17 0.000000 0.000000 0.545957
#
# Coordination Sequence:
#
# PCOD9331291 Si02
#       8
#     8   8   8   8   8   2   8   8
#     4  10  22  37  60  90 124 164 214 259 318 394
#     4  10  22  40  62  87 128 167 213 268 321 384
#     4  10  24  44  64  96 133 170 220 273 328 396
#     4   9  21  39  63  90 125 165 213 262 314 388
#     4   9  21  43  63  87 126 171 207 269 326 379
#     4  12  26  40  68  94 130 164 230 264 332 382
#     4  11  22  38  63  92 124 169 211 259 326 382
#     4  10  22  40  60  94 125 162 213 266 320 386
#
# _framework density 20.572673000000002
#
# number of rings (size 3 to 8) (size 9 to 14) (size 15 to 20)
#    0.000    2.069    0.000    1.448    5.793   11.862 
#    4.966    0.000    0.000    0.000    0.000    0.000 
#    0.000    0.000    0.000    0.000    0.000    0.000 
#
# Total GULP energy -161496.869444 kJ/mol
# GULP energy per Si atom -5568.857567 kJ/mol
# Density = 2.052585 g / cm^3
# Si number density = 20.572673 Si / 1000 Ang^3
#
#
#
# Elastic Constant Matrix: (Units=GPa)
#
#
# Indices 1 2 3 4 5 6 
#
# 1 59.7752 13.9010 50.0608 0.0000 0.0000 0.0000
# 2 13.9010 44.3244 34.8375 0.0000 0.0000 0.0000
# 3 50.0608 34.8375 177.3391 0.0000 0.0000 0.0000
# 4 0.0000 0.0000 0.0000 -6.7490 0.0000 0.0000
# 5 0.0000 0.0000 0.0000 0.0000 30.8183 0.0000
# 6 0.0000 0.0000 0.0000 0.0000 0.0000 28.5972
#
#
#
# Elastic Compliance Matrix: (Units=1/GPa)
#
#
# Indices 1 2 3 4 5 6 
#
# 1 0.022123 -0.002400 -0.005773 0.000000 0.000000 0.000000
# 2 -0.002400 0.026941 -0.004615 0.000000 0.000000 0.000000
# 3 -0.005773 -0.004615 0.008175 0.000000 0.000000 0.000000
# 4 0.000000 0.000000 0.000000 -0.148170 0.000000 0.000000
# 5 0.000000 0.000000 0.000000 0.000000 0.032448 0.000000
# 6 0.000000 0.000000 0.000000 0.000000 0.000000 0.034968
#
#
# Mechanical properties :
#
#
# Convention : Reuss Voigt Hill
#
# Bulk Modulus (GPa) = 31.58405 53.22635 42.40520
# Shear Modulus (GPa) = 396.30348 22.70927 209.50638
#
# Velocity S-wave (km/s) = 13.89439 3.32604 10.10239
# Velocity P-wave (km/s) = 16.51639 6.37797 12.51938
#
# Compressibility (1/GPa) = 0.03166155
#
# Stress axis : x y z
#
# Youngs Moduli (GPa) = 45.20241 37.11837 122.32047
#
# Poissons Ratio (x) = 0.08910 0.70621
# Poissons Ratio (y) = 0.10850 0.56449
# Poissons Ratio (z) = 0.26097 0.17129
#
# Static dielectric constant tensor:
#      x y z
#    x 1.776050 0.000000 0.000000 
#    y 0.000000 1.745630 0.000000 
#    z 0.000000 0.000000 1.824230 
# 
# From -- ./inp_files/29285.got.cif
#   From: 2010.05.17/outbox.cif.g08.bks.cpg/sg23_15_cif.got.tgz:29285.got - 2010.06.04 12:02:01.
