data_PCOD9331656
_publ_section_title
;
Structure prediction by ZEFSAII (Michael W. Deem and Ramdas Pophale) SiO2 
 PCOD9331656
Probable space group: I 2 2 2
;
_chemical_formula_sum "Si O2"
_cell_formula_units_Z 38
_cell_length_a 11.038126
_cell_length_b 9.170101
_cell_length_c 17.437943
_cell_angle_alpha 90.000000
_cell_angle_beta 90.000000
_cell_angle_gamma 90.000000
_cell_volume 1765.081325
_symmetry_space_group_name_H-M "I 2 2 2"
_symmetry_group_IT_number 23
_symmetry_cell_setting 'orthorhombic'
loop_
_space_group_symop_operation_xyz
x,y,z
-x,-y,z
x,-y,-z
-x,y,-z
1/2+x,1/2+y,1/2+z
1/2-x,1/2-y,1/2+z
1/2+x,1/2-y,1/2-z
1/2-x,1/2+y,1/2-z
loop_
_atom_site_type_symbol
_atom_site_label
_atom_site_fract_x
_atom_site_fract_y
_atom_site_fract_z
Si Si1 0.000000 0.000000 0.000000
Si Si2 0.619816 0.100073 0.142586
Si Si3 0.630790 0.578037 0.920312
Si Si4 0.500000 0.500000 0.736524
Si Si5 0.773209 0.111339 0.300028
Si Si6 0.818685 0.121040 0.886763
O O1 0.914649 0.891557 0.046653
O O2 0.608440 0.249406 0.093182
O O3 0.681738 0.119778 0.227939
O O4 0.500000 0.000000 0.149308
O O5 0.718771 0.001035 0.100097
O O6 0.500000 0.500000 0.909392
O O7 0.720191 0.537319 0.849686
O O8 0.673506 0.500000 0.000000
O O9 0.414167 0.623713 0.774027
O O10 0.399029 0.420465 0.686983
O O11 0.743680 0.230659 0.363624
#
# Coordination Sequence:
#
# PCOD9331656 Si02
#       6
#     2   8   8   4   8   8
#     4  10  24  48  62 106 138 188 246 296 366 448
#     4  11  24  43  73 109 134 186 255 294 362 451
#     4  11  25  44  65  98 151 189 229 307 370 428
#     4   9  20  41  65 102 139 172 244 300 353 428
#     4  11  22  42  72 103 139 192 235 307 359 425
#     4  10  23  40  73  96 139 186 234 307 356 428
#
# _framework density 21.528752000000001
#
# number of rings (size 3 to 8) (size 9 to 14) (size 15 to 20)
#    0.000    1.474    1.053    3.789    5.895    0.000 
#    3.789    0.000    0.000    1.263    0.000    0.000 
#    0.000    0.000    0.000    0.000    0.000    0.000 
#
# Total GULP energy -105776.595548 kJ/mol
# GULP energy per Si atom -5567.189239 kJ/mol
# Density = 2.147975 g / cm^3
# Si number density = 21.528752 Si / 1000 Ang^3
#
#
#
# Elastic Constant Matrix: (Units=GPa)
#
#
# Indices 1 2 3 4 5 6 
#
# 1 133.3558 68.2187 49.4465 0.0000 0.0000 0.0000
# 2 68.2187 147.6034 40.2612 0.0000 0.0000 0.0000
# 3 49.4465 40.2612 107.0278 0.0000 0.0000 0.0000
# 4 0.0000 0.0000 0.0000 38.1242 0.0000 0.0000
# 5 0.0000 0.0000 0.0000 0.0000 51.1926 0.0000
# 6 0.0000 0.0000 0.0000 0.0000 0.0000 34.8946
#
#
#
# Elastic Compliance Matrix: (Units=1/GPa)
#
#
# Indices 1 2 3 4 5 6 
#
# 1 0.010878 -0.004075 -0.003493 0.000000 0.000000 0.000000
# 2 -0.004075 0.009076 -0.001532 0.000000 0.000000 0.000000
# 3 -0.003493 -0.001532 0.011533 0.000000 0.000000 0.000000
# 4 0.000000 0.000000 0.000000 0.026230 0.000000 0.000000
# 5 0.000000 0.000000 0.000000 0.000000 0.019534 0.000000
# 6 0.000000 0.000000 0.000000 0.000000 0.000000 0.028658
#
#
# Mechanical properties :
#
#
# Convention : Reuss Voigt Hill
#
# Bulk Modulus (GPa) = 75.25133 78.20442 76.72788
# Shear Modulus (GPa) = 38.89901 40.17965 39.53933
#
# Velocity S-wave (km/s) = 4.25531 4.32479 4.29019
# Velocity P-wave (km/s) = 7.69242 7.83216 7.76260
#
# Compressibility (1/GPa) = 0.01328880
#
# Stress axis : x y z
#
# Youngs Moduli (GPa) = 91.92498 110.18026 86.70629
#
# Poissons Ratio (x) = 0.44899 0.30286
# Poissons Ratio (y) = 0.37460 0.13279
# Poissons Ratio (z) = 0.32108 0.16874
#
# Static dielectric constant tensor:
#      x y z
#    x 1.659430 0.000000 0.000000 
#    y 0.000000 1.808370 0.000000 
#    z 0.000000 0.000000 1.951290 
# 
# From -- ./inp_files/26562.got.cif
#   From: 2010.05.17/outbox.cif.g08.bks.cpg/sg23_14_cif.got.tgz:26562.got - 2010.06.04 12:02:01.
