data_PCOD9331502
_publ_section_title
;
Structure prediction by ZEFSAII (Michael W. Deem and Ramdas Pophale) SiO2 
 PCOD9331502
Probable space group: I 2 2 2
;
_chemical_formula_sum "Si O2"
_cell_formula_units_Z 32
_cell_length_a 8.249637
_cell_length_b 32.561242
_cell_length_c 5.347724
_cell_angle_alpha 90.000000
_cell_angle_beta 90.000000
_cell_angle_gamma 90.000000
_cell_volume 1436.497208
_symmetry_space_group_name_H-M "I 2 2 2"
_symmetry_group_IT_number 23
_symmetry_cell_setting 'orthorhombic'
loop_
_space_group_symop_operation_xyz
x,y,z
-x,-y,z
x,-y,-z
-x,y,-z
1/2+x,1/2+y,1/2+z
1/2-x,1/2-y,1/2+z
1/2+x,1/2-y,1/2-z
1/2-x,1/2+y,1/2-z
loop_
_atom_site_type_symbol
_atom_site_label
_atom_site_fract_x
_atom_site_fract_y
_atom_site_fract_z
Si Si1 0.315473 0.314970 0.918380
Si Si2 0.688024 0.018073 0.750431
Si Si3 0.396952 0.771503 0.249404
Si Si4 0.614441 0.598730 0.748618
O O1 0.301161 0.271425 0.777765
O O2 0.298967 0.356652 0.767429
O O3 0.500000 0.314949 0.000000
O O4 0.212389 0.310070 0.171138
O O5 0.739218 0.065559 0.752633
O O6 0.500000 0.000000 0.750529
O O7 0.762230 0.000000 0.500000
O O8 0.763415 0.000000 0.000000
O O9 0.500000 0.765649 0.500000
O O10 0.500000 0.778537 0.000000
O O11 0.500000 0.596189 0.500000
O O12 0.500000 0.593865 0.000000
#
# Coordination Sequence:
#
# PCOD9331502 Si02
#       4
#     8   8   8   8
#     4  10  22  42  68  95 142 184 237 299 343 408
#     4  10  22  43  69  95 135 180 215 281 361 423
#     4  11  23  40  65  98 135 190 242 286 358 417
#     4  11  24  41  69 105 134 180 237 291 343 417
#
# _framework density 22.276409999999998
#
# number of rings (size 3 to 8) (size 9 to 14) (size 15 to 20)
#    0.000    1.500    0.000    5.250    0.000    9.000 
#    4.500    0.000   11.000    0.000    0.000    0.000 
#    0.000    0.000    0.000    0.000    0.000    0.000 
#
# Total GULP energy -89114.980770 kJ/mol
# GULP energy per Si atom -5569.686298 kJ/mol
# Density = 2.222571 g / cm^3
# Si number density = 22.276410 Si / 1000 Ang^3
#
#
#
# Elastic Constant Matrix: (Units=GPa)
#
#
# Indices 1 2 3 4 5 6 
#
# 1 95.6727 67.9400 55.8134 -0.0027 0.0009 0.0001
# 2 67.9400 142.5127 53.5425 -0.0058 0.0293 -0.0265
# 3 55.8134 53.5425 196.1706 -0.0287 0.0275 -0.0451
# 4 -0.0027 -0.0058 -0.0287 35.5822 0.0113 0.0129
# 5 0.0009 0.0293 0.0275 0.0113 4.9830 -0.0062
# 6 0.0001 -0.0265 -0.0451 0.0129 -0.0062 12.7363
#
#
#
# Elastic Compliance Matrix: (Units=1/GPa)
#
#
# Indices 1 2 3 4 5 6 
#
# 1 0.017220 -0.007096 -0.002962 -0.000002 0.000055 -0.000025
# 2 -0.007096 0.010743 -0.000913 0.000000 -0.000057 0.000019
# 3 -0.002962 -0.000913 0.006190 0.000005 -0.000028 0.000020
# 4 -0.000002 0.000000 0.000005 0.028104 -0.000064 -0.000028
# 5 0.000055 -0.000057 -0.000028 -0.000064 0.200682 0.000097
# 6 -0.000025 0.000019 0.000020 -0.000028 0.000097 0.078516
#
#
# Mechanical properties :
#
#
# Convention : Reuss Voigt Hill
#
# Bulk Modulus (GPa) = 81.90821 87.66085 84.78453
# Shear Modulus (GPa) = 13.60662 27.79762 20.70212
#
# Velocity S-wave (km/s) = 2.47414 3.53632 3.05180
# Velocity P-wave (km/s) = 6.70900 7.49073 7.11061
#
# Compressibility (1/GPa) = 0.01220879
#
# Stress axis : x y z
#
# Youngs Moduli (GPa) = 58.07287 93.08409 161.55800
#
# Poissons Ratio (x) = 0.66054 0.47861
# Poissons Ratio (y) = 0.41209 0.14753
# Poissons Ratio (z) = 0.17204 0.08500
#
# Static dielectric constant tensor:
#      x y z
#    x 1.867480 0.000000 0.000030 
#    y 0.000000 1.901450 0.000030 
#    z 0.000030 0.000030 1.878480 
# 
# From -- ./inp_files/814.got.cif
#   From: 2010.05.17/outbox.cif.g08.bks.cpg/sg23_1_cif.got.tgz:814.got - 2010.06.04 12:02:01.
