data_PCOD9331951
_publ_section_title
;
Structure prediction by ZEFSAII (Michael W. Deem and Ramdas Pophale) SiO2 
 PCOD9331951
Probable space group: I 2 2 2
;
_chemical_formula_sum "Si O2"
_cell_formula_units_Z 48
_cell_length_a 8.729417
_cell_length_b 10.564780
_cell_length_c 23.740368
_cell_angle_alpha 90.000000
_cell_angle_beta 90.000000
_cell_angle_gamma 90.000000
_cell_volume 2189.440486
_symmetry_space_group_name_H-M "I 2 2 2"
_symmetry_group_IT_number 23
_symmetry_cell_setting 'orthorhombic'
loop_
_space_group_symop_operation_xyz
x,y,z
-x,-y,z
x,-y,-z
-x,y,-z
1/2+x,1/2+y,1/2+z
1/2-x,1/2-y,1/2+z
1/2+x,1/2-y,1/2-z
1/2-x,1/2+y,1/2-z
loop_
_atom_site_type_symbol
_atom_site_label
_atom_site_fract_x
_atom_site_fract_y
_atom_site_fract_z
Si Si1 0.025983 0.649842 0.276104
Si Si2 0.397457 0.623307 0.077400
Si Si3 0.721774 0.233875 0.673579
Si Si4 0.341423 0.183921 0.105679
Si Si5 0.667102 0.437346 0.577817
Si Si6 0.329368 0.213840 0.510203
O O1 0.093479 0.690007 0.216514
O O2 0.141776 0.685193 0.327266
O O3 0.000000 0.500000 0.278410
O O4 0.867369 0.718522 0.290694
O O5 0.500000 0.500000 0.079754
O O6 0.283533 0.627211 0.130726
O O7 0.502840 0.750200 0.082952
O O8 0.298518 0.633048 0.021194
O O9 0.670395 0.346123 0.632083
O O10 0.209342 0.265768 0.075363
O O11 0.300175 0.041394 0.086603
O O12 0.500000 0.500000 0.575337
O O13 0.683277 0.348692 0.522978
O O14 0.500000 0.166424 0.500000
#
# Coordination Sequence:
#
# PCOD9331951 Si02
#       6
#     8   8   8   8   8   8
#     4  11  24  43  65 101 137 178 230 279 344 419
#     4  10  25  49  67  96 144 190 241 279 341 422
#     4  10  25  42  69  98 133 182 230 287 350 402
#     4  11  23  42  69 101 140 180 224 281 346 413
#     4  11  22  42  70 104 143 170 224 292 353 407
#     4  11  23  40  72 107 138 179 228 286 355 409
#
# _framework density 21.923407999999998
#
# number of rings (size 3 to 8) (size 9 to 14) (size 15 to 20)
#    0.000    1.333    3.333    1.000    2.333    4.000 
#    3.000    1.667    0.000    0.000    0.000    0.000 
#    0.000    0.000    0.000    0.000    0.000    0.000 
#
# Total GULP energy -134263.877759 kJ/mol
# GULP energy per Si atom -5594.328240 kJ/mol
# Density = 2.187351 g / cm^3
# Si number density = 21.923408 Si / 1000 Ang^3
#
#
#
# Elastic Constant Matrix: (Units=GPa)
#
#
# Indices 1 2 3 4 5 6 
#
# 1 61.1155 34.7019 39.0560 0.0000 0.0000 0.0000
# 2 34.7019 90.8099 43.0525 0.0000 0.0000 0.0000
# 3 39.0560 43.0525 124.8494 0.0000 0.0000 0.0000
# 4 0.0000 0.0000 0.0000 24.4744 0.0000 0.0000
# 5 0.0000 0.0000 0.0000 0.0000 44.9219 0.0000
# 6 0.0000 0.0000 0.0000 0.0000 0.0000 34.8841
#
#
#
# Elastic Compliance Matrix: (Units=1/GPa)
#
#
# Indices 1 2 3 4 5 6 
#
# 1 0.023276 -0.006506 -0.005038 0.000000 0.000000 0.000000
# 2 -0.006506 0.014983 -0.003131 0.000000 0.000000 0.000000
# 3 -0.005038 -0.003131 0.010665 0.000000 0.000000 0.000000
# 4 0.000000 0.000000 0.000000 0.040859 0.000000 0.000000
# 5 0.000000 0.000000 0.000000 0.000000 0.022261 0.000000
# 6 0.000000 0.000000 0.000000 0.000000 0.000000 0.028666
#
#
# Mechanical properties :
#
#
# Convention : Reuss Voigt Hill
#
# Bulk Modulus (GPa) = 51.08904 56.71063 53.89984
# Shear Modulus (GPa) = 28.31481 31.52037 29.91759
#
# Velocity S-wave (km/s) = 3.59769 3.79588 3.69811
# Velocity P-wave (km/s) = 6.37274 6.71829 6.54779
#
# Compressibility (1/GPa) = 0.01957367
#
# Stress axis : x y z
#
# Youngs Moduli (GPa) = 42.96231 66.74295 93.76144
#
# Poissons Ratio (x) = 0.43425 0.47235
# Poissons Ratio (y) = 0.27953 0.29359
# Poissons Ratio (z) = 0.21643 0.20899
#
# Static dielectric constant tensor:
#      x y z
#    x 1.809180 0.000000 0.000000 
#    y 0.000000 1.830810 0.000000 
#    z 0.000000 0.000000 1.780420 
# 
# From -- ./inp_files/27989.got.cif
#   From: 2010.05.17/outbox.cif.g08.bks.cpg/sg23_14_cif.got.tgz:27989.got - 2010.06.04 12:02:01.
