data_PCOD9331806
_publ_section_title
;
Structure prediction by ZEFSAII (Michael W. Deem and Ramdas Pophale) SiO2 
 PCOD9331806
Probable space group: I 2 2 2
;
_chemical_formula_sum "Si O2"
_cell_formula_units_Z 64
_cell_length_a 12.521932
_cell_length_b 9.407685
_cell_length_c 27.827039
_cell_angle_alpha 90.000000
_cell_angle_beta 90.000000
_cell_angle_gamma 90.000000
_cell_volume 3278.091752
_symmetry_space_group_name_H-M "I 2 2 2"
_symmetry_group_IT_number 23
_symmetry_cell_setting 'orthorhombic'
loop_
_space_group_symop_operation_xyz
x,y,z
-x,-y,z
x,-y,-z
-x,y,-z
1/2+x,1/2+y,1/2+z
1/2-x,1/2-y,1/2+z
1/2+x,1/2-y,1/2-z
1/2-x,1/2+y,1/2-z
loop_
_atom_site_type_symbol
_atom_site_label
_atom_site_fract_x
_atom_site_fract_y
_atom_site_fract_z
Si Si1 0.302426 0.530704 0.313156
Si Si2 0.589761 0.415135 0.773425
Si Si3 0.235081 0.494970 0.844402
Si Si4 0.398000 0.908161 0.745330
Si Si5 0.276585 0.712957 0.609629
Si Si6 0.373719 0.009889 0.057585
Si Si7 0.704063 0.266495 0.400237
Si Si8 0.490189 0.832718 0.557582
O O1 0.388362 0.518214 0.271577
O O2 0.193066 0.546914 0.283376
O O3 0.307716 0.392073 0.346735
O O4 0.315449 0.660153 0.348955
O O5 0.500000 0.500000 0.802057
O O6 0.691173 0.420112 0.807592
O O7 0.576354 0.256885 0.754278
O O8 0.138668 0.443590 0.809352
O O9 0.278333 0.349117 0.866262
O O10 0.221569 0.601342 0.888702
O O11 0.500000 0.000000 0.756377
O O12 0.193749 0.622597 0.578166
O O13 0.380550 0.767601 0.579793
O O14 0.500000 0.000000 0.072617
O O15 0.303402 0.147596 0.075649
O O16 0.371913 0.000000 0.000000
O O17 0.590720 0.265015 0.427023
O O18 0.500000 0.834504 0.500000
O O19 0.500000 0.000000 0.573359
#
# Coordination Sequence:
#
# PCOD9331806 Si02
#       8
#     8   8   8   8   8   8   8   8
#     4  10  24  40  59  89 124 167 223 263 326 382
#     4  11  25  39  59  90 128 172 223 280 322 384
#     4  11  24  41  60  95 129 173 227 267 327 387
#     4  11  25  40  62  85 132 178 219 278 327 386
#     4  11  23  42  69  97 131 173 219 274 326 410
#     4  10  24  47  72  97 129 170 216 273 341 404
#     4  11  23  42  70  95 133 172 220 272 328 409
#     4  11  24  41  67 104 138 170 209 275 347 400
#
# _framework density 19.523551999999999
#
# number of rings (size 3 to 8) (size 9 to 14) (size 15 to 20)
#    0.000    1.250    3.750    0.750    7.000    4.500 
#    0.000    3.125    0.000    1.500    0.000    0.000 
#    0.000    0.000    0.000    0.000    0.000    0.000 
#
# Total GULP energy -178330.713503 kJ/mol
# GULP energy per Si atom -5572.834797 kJ/mol
# Density = 1.947912 g / cm^3
# Si number density = 19.523552 Si / 1000 Ang^3
#
#
#
# Elastic Constant Matrix: (Units=GPa)
#
#
# Indices 1 2 3 4 5 6 
#
# 1 123.0865 48.1782 29.9458 0.0000 0.0000 0.0000
# 2 48.1782 107.7909 17.0472 0.0000 0.0000 0.0000
# 3 29.9458 17.0472 67.7302 0.0000 0.0000 0.0000
# 4 0.0000 0.0000 0.0000 3.6990 0.0000 0.0000
# 5 0.0000 0.0000 0.0000 0.0000 -18.0794 0.0000
# 6 0.0000 0.0000 0.0000 0.0000 0.0000 28.5975
#
#
#
# Elastic Compliance Matrix: (Units=1/GPa)
#
#
# Indices 1 2 3 4 5 6 
#
# 1 0.010651 -0.004182 -0.003657 0.000000 0.000000 0.000000
# 2 -0.004182 0.011304 -0.000996 0.000000 0.000000 0.000000
# 3 -0.003657 -0.000996 0.016632 0.000000 0.000000 0.000000
# 4 0.000000 0.000000 0.000000 0.270347 0.000000 0.000000
# 5 0.000000 0.000000 0.000000 0.000000 -0.055312 0.000000
# 6 0.000000 0.000000 0.000000 0.000000 0.000000 0.034968
#
#
# Mechanical properties :
#
#
# Convention : Reuss Voigt Hill
#
# Bulk Modulus (GPa) = 47.80747 54.32779 51.06763
# Shear Modulus (GPa) = 15.96260 16.40584 16.18422
#
# Velocity S-wave (km/s) = 2.86249 2.90196 2.88229
# Velocity P-wave (km/s) = 5.95528 6.25425 6.10659
#
# Compressibility (1/GPa) = 0.02091723
#
# Stress axis : x y z
#
# Youngs Moduli (GPa) = 93.88807 88.46384 60.12568
#
# Poissons Ratio (x) = 0.36998 0.21985
# Poissons Ratio (y) = 0.39267 0.05989
# Poissons Ratio (z) = 0.34330 0.08811
#
# Static dielectric constant tensor:
#      x y z
#    x 1.863530 0.000000 0.000000 
#    y 0.000000 1.686320 0.000000 
#    z 0.000000 0.000000 1.708420 
# 
# From -- ./inp_files/30502.got.cif
#   From: 2010.05.17/outbox.cif.g08.bks.cpg/sg23_16_cif.got.tgz:30502.got - 2010.06.04 12:02:01.
