data_PCOD9331277
_publ_section_title
;
Structure prediction by ZEFSAII (Michael W. Deem and Ramdas Pophale) SiO2 
 PCOD9331277
Probable space group: I 2 2 2
;
_chemical_formula_sum "Si O2"
_cell_formula_units_Z 56
_cell_length_a 23.323270
_cell_length_b 11.097816
_cell_length_c 10.731841
_cell_angle_alpha 90.000000
_cell_angle_beta 90.000000
_cell_angle_gamma 90.000000
_cell_volume 2777.801381
_symmetry_space_group_name_H-M "I 2 2 2"
_symmetry_group_IT_number 23
_symmetry_cell_setting 'orthorhombic'
loop_
_space_group_symop_operation_xyz
x,y,z
-x,-y,z
x,-y,-z
-x,y,-z
1/2+x,1/2+y,1/2+z
1/2-x,1/2-y,1/2+z
1/2+x,1/2-y,1/2-z
1/2-x,1/2+y,1/2-z
loop_
_atom_site_type_symbol
_atom_site_label
_atom_site_fract_x
_atom_site_fract_y
_atom_site_fract_z
Si Si1 0.967795 0.211506 0.133045
Si Si2 0.916380 0.242366 0.754192
Si Si3 0.245293 0.304028 0.968513
Si Si4 0.120817 0.361059 0.991752
Si Si5 0.371428 0.487083 0.351530
Si Si6 0.665409 0.104035 0.094618
Si Si7 0.744501 0.525792 0.207388
O O1 0.923040 0.107259 0.165737
O O2 0.015194 0.228596 0.238895
O O3 0.929626 0.329584 0.104187
O O4 0.000000 0.181515 0.000000
O O5 0.902020 0.323238 0.874346
O O6 0.885620 0.308832 0.640245
O O7 0.889803 0.112272 0.786228
O O8 0.285298 0.188455 0.965253
O O9 0.258825 0.393141 0.853319
O O10 0.177172 0.283030 0.963045
O O11 0.255188 0.378752 0.094982
O O12 0.137695 0.500000 0.000000
O O13 0.365095 0.500000 0.500000
O O14 0.311026 0.452330 0.291376
O O15 0.697976 0.043931 0.212532
O O16 0.647335 0.000000 0.000000
#
# Coordination Sequence:
#
# PCOD9331277 Si02
#       7
#     8   8   8   8   8   8   8
#     4  10  22  36  66 102 135 173 220 285 339 394
#     4  11  23  40  61  98 140 170 224 283 333 414
#     4  11  23  44  62  97 138 170 227 275 339 422
#     4  11  20  38  61  94 136 173 217 280 344 396
#     4  12  21  39  66 105 137 172 221 286 350 403
#     4  12  26  40  67  99 140 185 222 275 348 425
#     4  11  24  40  66  97 134 179 216 282 344 410
#
# _framework density 20.159828999999998
#
# number of rings (size 3 to 8) (size 9 to 14) (size 15 to 20)
#    0.000    0.857    7.143    1.714    4.000    2.571 
#    2.571    0.000    0.000    0.857    3.714    0.000 
#    0.000    0.000    0.000    0.000    0.000    0.000 
#
# Total GULP energy -156535.117091 kJ/mol
# GULP energy per Si atom -5590.539896 kJ/mol
# Density = 2.011394 g / cm^3
# Si number density = 20.159829 Si / 1000 Ang^3
#
#
#
# Elastic Constant Matrix: (Units=GPa)
#
#
# Indices 1 2 3 4 5 6 
#
# 1 129.0228 23.9215 44.8948 0.0000 0.0000 0.0000
# 2 23.9215 86.1653 33.7172 0.0000 0.0000 0.0000
# 3 44.8948 33.7172 61.1383 0.0000 0.0000 0.0000
# 4 0.0000 0.0000 0.0000 29.2933 0.0000 0.0000
# 5 0.0000 0.0000 0.0000 0.0000 24.8019 0.0000
# 6 0.0000 0.0000 0.0000 0.0000 0.0000 33.3406
#
#
#
# Elastic Compliance Matrix: (Units=1/GPa)
#
#
# Indices 1 2 3 4 5 6 
#
# 1 0.010412 0.000129 -0.007717 0.000000 0.000000 0.000000
# 2 0.000129 0.014801 -0.008257 0.000000 0.000000 0.000000
# 3 -0.007717 -0.008257 0.026577 0.000000 0.000000 0.000000
# 4 0.000000 0.000000 0.000000 0.034138 0.000000 0.000000
# 5 0.000000 0.000000 0.000000 0.000000 0.040319 0.000000
# 6 0.000000 0.000000 0.000000 0.000000 0.000000 0.029993
#
#
# Mechanical properties :
#
#
# Convention : Reuss Voigt Hill
#
# Bulk Modulus (GPa) = 49.75266 53.48816 51.62041
# Shear Modulus (GPa) = 25.68982 29.07336 27.38159
#
# Velocity S-wave (km/s) = 3.57362 3.80168 3.68941
# Velocity P-wave (km/s) = 6.46222 6.77200 6.61892
#
# Compressibility (1/GPa) = 0.02009943
#
# Stress axis : x y z
#
# Youngs Moduli (GPa) = 96.04545 67.56326 37.62692
#
# Poissons Ratio (x) = -0.00872 0.29036
# Poissons Ratio (y) = -0.01240 0.31070
# Poissons Ratio (z) = 0.74115 0.55789
#
# Static dielectric constant tensor:
#      x y z
#    x 1.730900 0.000000 0.000000 
#    y 0.000000 1.745730 0.000000 
#    z 0.000000 0.000000 1.702070 
# 
# From -- ./inp_files/17988.got.cif
#   From: 2010.05.17/outbox.cif.g08.bks.cpg/sg23_9_cif.got.tgz:17988.got - 2010.06.04 12:02:01.
