data_PCOD9331676
_publ_section_title
;
Structure prediction by ZEFSAII (Michael W. Deem and Ramdas Pophale) SiO2 
 PCOD9331676
Probable space group: I 2 2 2
;
_chemical_formula_sum "Si O2"
_cell_formula_units_Z 58
_cell_length_a 16.427912
_cell_length_b 11.653738
_cell_length_c 14.355271
_cell_angle_alpha 90.000000
_cell_angle_beta 90.000000
_cell_angle_gamma 90.000000
_cell_volume 2748.267571
_symmetry_space_group_name_H-M "I 2 2 2"
_symmetry_group_IT_number 23
_symmetry_cell_setting 'orthorhombic'
loop_
_space_group_symop_operation_xyz
x,y,z
-x,-y,z
x,-y,-z
-x,y,-z
1/2+x,1/2+y,1/2+z
1/2-x,1/2-y,1/2+z
1/2+x,1/2-y,1/2-z
1/2-x,1/2+y,1/2-z
loop_
_atom_site_type_symbol
_atom_site_label
_atom_site_fract_x
_atom_site_fract_y
_atom_site_fract_z
Si Si1 0.818854 0.219736 0.154184
Si Si2 0.300051 0.962960 0.095422
Si Si3 0.601728 0.159735 0.359258
Si Si4 0.500000 0.000000 0.500000
Si Si5 0.369187 0.211758 0.141024
Si Si6 0.503819 0.372682 0.610154
Si Si7 0.758724 0.135512 0.481790
Si Si8 0.956881 0.620688 0.348328
O O1 0.764557 0.105162 0.155084
O O2 0.829848 0.261321 0.258798
O O3 0.910920 0.190098 0.126654
O O4 0.777966 0.303544 0.075949
O O5 0.378948 0.879532 0.083789
O O6 0.336715 0.082524 0.127730
O O7 0.257199 0.000000 0.000000
O O8 0.569243 0.289774 0.360479
O O9 0.691473 0.150145 0.400093
O O10 0.583139 0.118804 0.254633
O O11 0.551000 0.081940 0.431926
O O12 0.335383 0.297634 0.062303
O O13 0.468321 0.209431 0.145026
O O14 0.500000 0.500000 0.652818
O O15 0.500000 0.384098 0.500000
O O16 0.771809 0.000000 0.500000
O O17 0.000000 0.500000 0.365533
#
# Coordination Sequence:
#
# PCOD9331676 Si02
#       8
#     8   8   8   2   8   8   8   8
#     4  12  25  46  67 103 145 182 235 286 360 424
#     4  11  25  47  73 101 133 189 242 296 342 412
#     4  12  21  39  64 103 136 179 222 285 349 424
#     4  12  20  32  62 100 134 172 222 274 368 404
#     4  11  26  45  70 102 140 182 236 297 351 419
#     4  11  24  38  64  98 139 184 219 279 356 435
#     4  12  27  43  70 104 143 183 229 289 362 427
#     4  10  23  41  70 100 133 171 238 289 339 395
#
# _framework density 21.104203999999999
#
# number of rings (size 3 to 8) (size 9 to 14) (size 15 to 20)
#    0.000    0.690    6.207    0.828    9.655    2.483 
#    0.000    0.000    0.000    0.828    0.000    0.000 
#    0.000    0.000    0.000    0.000    0.000    0.000 
#
# Total GULP energy -161880.558702 kJ/mol
# GULP energy per Si atom -5582.088231 kJ/mol
# Density = 2.105617 g / cm^3
# Si number density = 21.104204 Si / 1000 Ang^3
#
#
#
# Elastic Constant Matrix: (Units=GPa)
#
#
# Indices 1 2 3 4 5 6 
#
# 1 74.7806 41.7493 34.0359 0.0000 0.0000 0.0000
# 2 41.7493 107.5196 44.0424 0.0000 0.0000 0.0000
# 3 34.0359 44.0424 80.9861 0.0000 0.0000 0.0000
# 4 0.0000 0.0000 0.0000 21.8997 0.0000 0.0000
# 5 0.0000 0.0000 0.0000 0.0000 29.7243 0.0000
# 6 0.0000 0.0000 0.0000 0.0000 0.0000 29.9209
#
#
#
# Elastic Compliance Matrix: (Units=1/GPa)
#
#
# Indices 1 2 3 4 5 6 
#
# 1 0.018514 -0.005149 -0.004981 0.000000 0.000000 0.000000
# 2 -0.005149 0.013398 -0.005122 0.000000 0.000000 0.000000
# 3 -0.004981 -0.005122 0.017227 0.000000 0.000000 0.000000
# 4 0.000000 0.000000 0.000000 0.045663 0.000000 0.000000
# 5 0.000000 0.000000 0.000000 0.000000 0.033642 0.000000
# 6 0.000000 0.000000 0.000000 0.000000 0.000000 0.033421
#
#
# Mechanical properties :
#
#
# Convention : Reuss Voigt Hill
#
# Bulk Modulus (GPa) = 53.66250 55.88240 54.77245
# Shear Modulus (GPa) = 25.17868 25.87291 25.52580
#
# Velocity S-wave (km/s) = 3.45782 3.50517 3.48158
# Velocity P-wave (km/s) = 6.43620 6.55121 6.49396
#
# Compressibility (1/GPa) = 0.01863499
#
# Stress axis : x y z
#
# Youngs Moduli (GPa) = 54.01365 74.63775 58.04893
#
# Poissons Ratio (x) = 0.38428 0.28913
# Poissons Ratio (y) = 0.27809 0.29735
# Poissons Ratio (z) = 0.26904 0.38233
#
# Static dielectric constant tensor:
#      x y z
#    x 1.802490 0.000000 0.000000 
#    y 0.000000 1.771240 0.000000 
#    z 0.000000 0.000000 1.798460 
# 
# From -- ./inp_files/16948.got.cif
#   From: 2010.05.17/outbox.cif.g08.bks.cpg/sg23_9_cif.got.tgz:16948.got - 2010.06.04 12:02:01.
