data_PCOD9331816
_publ_section_title
;
Structure prediction by ZEFSAII (Michael W. Deem and Ramdas Pophale) SiO2 
 PCOD9331816
Probable space group: I 2 2 2
;
_chemical_formula_sum "Si O2"
_cell_formula_units_Z 52
_cell_length_a 23.840957
_cell_length_b 6.175291
_cell_length_c 17.213241
_cell_angle_alpha 90.000000
_cell_angle_beta 90.000000
_cell_angle_gamma 90.000000
_cell_volume 2534.216776
_symmetry_space_group_name_H-M "I 2 2 2"
_symmetry_group_IT_number 23
_symmetry_cell_setting 'orthorhombic'
loop_
_space_group_symop_operation_xyz
x,y,z
-x,-y,z
x,-y,-z
-x,y,-z
1/2+x,1/2+y,1/2+z
1/2-x,1/2-y,1/2+z
1/2+x,1/2-y,1/2-z
1/2-x,1/2+y,1/2-z
loop_
_atom_site_type_symbol
_atom_site_label
_atom_site_fract_x
_atom_site_fract_y
_atom_site_fract_z
Si Si1 0.327995 0.974496 0.679635
Si Si2 0.500000 0.500000 0.850011
Si Si3 0.403732 0.799188 0.206066
Si Si4 0.560822 0.888207 0.077540
Si Si5 0.224155 0.301283 0.669708
Si Si6 0.333558 0.540157 0.079522
Si Si7 0.225293 0.168134 0.929567
O O1 0.379874 0.119450 0.711129
O O2 0.275793 0.137275 0.673813
O O3 0.309757 0.824687 0.751507
O O4 0.324823 0.822080 0.603049
O O5 0.461101 0.340068 0.798430
O O6 0.542192 0.358186 0.903785
O O7 0.360176 0.659126 0.153873
O O8 0.411350 0.012805 0.153974
O O9 0.500000 0.000000 0.076544
O O10 0.588149 0.000000 0.000000
O O11 0.250880 0.522005 0.640249
O O12 0.182855 0.197917 0.607394
O O13 0.278286 0.675823 0.054778
O O14 0.367109 0.500000 0.000000
O O15 0.212832 0.000000 0.000000
#
# Coordination Sequence:
#
# PCOD9331816 Si02
#       7
#     8   4   8   8   8   8   8
#     4  11  22  35  57  83 112 158 215 255 314 384
#     4  10  24  41  56  76 116 160 217 278 336 366
#     4  11  24  36  55  84 113 164 218 272 316 387
#     4   9  21  38  55  76 109 152 206 263 320 367
#     4  11  20  36  54  82 117 156 204 248 304 372
#     4  11  23  33  54  87 116 159 216 254 307 380
#     4  11  22  38  56  80 122 161 207 265 310 372
#
# _framework density 20.519159999999999
#
# number of rings (size 3 to 8) (size 9 to 14) (size 15 to 20)
#    0.000    1.385    4.615    0.923    4.308    4.923 
#    0.000    0.000    0.000    0.000    0.000    0.000 
#    0.000    0.000    0.000   80.308    0.923   11.231 
#
# Total GULP energy -144889.827156 kJ/mol
# GULP energy per Si atom -5572.685660 kJ/mol
# Density = 2.047246 g / cm^3
# Si number density = 20.519160 Si / 1000 Ang^3
#
#
#
# Elastic Constant Matrix: (Units=GPa)
#
#
# Indices 1 2 3 4 5 6 
#
# 1 67.1515 37.1891 34.8863 0.0000 0.0000 0.0000
# 2 37.1891 103.5378 32.3163 0.0000 0.0000 0.0000
# 3 34.8863 32.3163 69.6902 0.0000 0.0000 0.0000
# 4 0.0000 0.0000 0.0000 43.3288 0.0000 0.0000
# 5 0.0000 0.0000 0.0000 0.0000 22.1403 0.0000
# 6 0.0000 0.0000 0.0000 0.0000 0.0000 41.8113
#
#
#
# Elastic Compliance Matrix: (Units=1/GPa)
#
#
# Indices 1 2 3 4 5 6 
#
# 1 0.022370 -0.005308 -0.008737 0.000000 0.000000 0.000000
# 2 -0.005308 0.012552 -0.003163 0.000000 0.000000 0.000000
# 3 -0.008737 -0.003163 0.020190 0.000000 0.000000 0.000000
# 4 0.000000 0.000000 0.000000 0.023079 0.000000 0.000000
# 5 0.000000 0.000000 0.000000 0.000000 0.045166 0.000000
# 6 0.000000 0.000000 0.000000 0.000000 0.000000 0.023917
#
#
# Mechanical properties :
#
#
# Convention : Reuss Voigt Hill
#
# Bulk Modulus (GPa) = 48.31996 49.90699 49.11347
# Shear Modulus (GPa) = 26.51242 30.52194 28.51718
#
# Velocity S-wave (km/s) = 3.59845 3.86098 3.73202
# Velocity P-wave (km/s) = 6.39257 6.65215 6.52365
#
# Compressibility (1/GPa) = 0.02069538
#
# Stress axis : x y z
#
# Youngs Moduli (GPa) = 44.70196 79.66688 49.52980
#
# Poissons Ratio (x) = 0.42288 0.43274
# Poissons Ratio (y) = 0.23728 0.15669
# Poissons Ratio (z) = 0.39056 0.25203
#
# Static dielectric constant tensor:
#      x y z
#    x 1.816310 0.000000 0.000000 
#    y 0.000000 1.877010 0.000000 
#    z 0.000000 0.000000 1.815660 
# 
# From -- ./inp_files/25467.got.cif
#   From: 2010.05.17/outbox.cif.g08.bks.cpg/sg23_13_cif.got.tgz:25467.got - 2010.06.04 12:02:01.
