data_PCOD9331801
_publ_section_title
;
Structure prediction by ZEFSAII (Michael W. Deem and Ramdas Pophale) SiO2 
 PCOD9331801
Probable space group: I 2 2 2
;
_chemical_formula_sum "Si O2"
_cell_formula_units_Z 36
_cell_length_a 8.741420
_cell_length_b 9.194428
_cell_length_c 21.107555
_cell_angle_alpha 90.000000
_cell_angle_beta 90.000000
_cell_angle_gamma 90.000000
_cell_volume 1696.463942
_symmetry_space_group_name_H-M "I 2 2 2"
_symmetry_group_IT_number 23
_symmetry_cell_setting 'orthorhombic'
loop_
_space_group_symop_operation_xyz
x,y,z
-x,-y,z
x,-y,-z
-x,y,-z
1/2+x,1/2+y,1/2+z
1/2-x,1/2-y,1/2+z
1/2+x,1/2-y,1/2-z
1/2-x,1/2+y,1/2-z
loop_
_atom_site_type_symbol
_atom_site_label
_atom_site_fract_x
_atom_site_fract_y
_atom_site_fract_z
Si Si1 0.478381 0.329923 0.424961
Si Si2 0.500000 0.000000 0.000000
Si Si3 0.556580 0.335952 0.791302
Si Si4 0.000000 0.000000 0.500000
Si Si5 0.635073 0.249855 0.086131
Si Si6 0.411638 0.152286 0.679916
O O1 0.500000 0.500000 0.409409
O O2 0.500000 0.314203 0.500000
O O3 0.314643 0.269037 0.401899
O O4 0.598076 0.232623 0.387459
O O5 0.404861 0.107662 0.955368
O O6 0.500000 0.500000 0.787531
O O7 0.472041 0.262495 0.851988
O O8 0.506930 0.248404 0.729482
O O9 0.738335 0.350608 0.796441
O O10 0.900317 0.893221 0.455704
O O11 0.500000 0.000000 0.674389
#
# Coordination Sequence:
#
# PCOD9331801 Si02
#       6
#     8   2   8   2   8   8
#     4  11  26  45  70 103 147 185 236 289 357 421
#     4  10  24  38  70 102 144 186 236 278 360 414
#     4  12  26  48  72 100 141 182 240 292 357 430
#     4  10  24  42  70 106 144 182 244 282 364 414
#     4  11  24  43  72 103 145 189 238 294 355 426
#     4  12  28  46  73 103 137 185 234 294 360 422
#
# _framework density 21.220611000000002
#
# number of rings (size 3 to 8) (size 9 to 14) (size 15 to 20)
#    0.000    0.667    1.111    6.000   10.889    0.444 
#    0.000    0.000    0.000    0.000    0.000    0.000 
#    0.000    0.000    0.000    0.000    0.000    0.000 
#
# Total GULP energy -100739.021845 kJ/mol
# GULP energy per Si atom -5596.612325 kJ/mol
# Density = 2.117231 g / cm^3
# Si number density = 21.220611 Si / 1000 Ang^3
#
#
#
# Elastic Constant Matrix: (Units=GPa)
#
#
# Indices 1 2 3 4 5 6 
#
# 1 131.3399 50.8055 20.1607 0.0000 0.0000 0.0000
# 2 50.8055 142.0454 61.0187 0.0000 0.0000 0.0000
# 3 20.1607 61.0187 94.2077 0.0000 0.0000 0.0000
# 4 0.0000 0.0000 0.0000 21.9651 0.0000 0.0000
# 5 0.0000 0.0000 0.0000 0.0000 22.3874 0.0000
# 6 0.0000 0.0000 0.0000 0.0000 0.0000 21.8620
#
#
#
# Elastic Compliance Matrix: (Units=1/GPa)
#
#
# Indices 1 2 3 4 5 6 
#
# 1 0.008840 -0.003255 0.000216 0.000000 0.000000 0.000000
# 2 -0.003255 0.010952 -0.006397 0.000000 0.000000 0.000000
# 3 0.000216 -0.006397 0.014712 0.000000 0.000000 0.000000
# 4 0.000000 0.000000 0.000000 0.045527 0.000000 0.000000
# 5 0.000000 0.000000 0.000000 0.000000 0.044668 0.000000
# 6 0.000000 0.000000 0.000000 0.000000 0.000000 0.045741
#
#
# Mechanical properties :
#
#
# Convention : Reuss Voigt Hill
#
# Bulk Modulus (GPa) = 63.96828 70.17365 67.07096
# Shear Modulus (GPa) = 25.70405 28.95012 27.32708
#
# Velocity S-wave (km/s) = 3.48412 3.69758 3.59243
# Velocity P-wave (km/s) = 6.81141 7.16728 6.99161
#
# Compressibility (1/GPa) = 0.01563275
#
# Stress axis : x y z
#
# Youngs Moduli (GPa) = 113.12759 91.30626 67.97136
#
# Poissons Ratio (x) = 0.29716 -0.01470
# Poissons Ratio (y) = 0.36818 0.43483
# Poissons Ratio (z) = -0.02447 0.58411
#
# Static dielectric constant tensor:
#      x y z
#    x 1.822250 0.000000 0.000000 
#    y 0.000000 1.721520 0.000000 
#    z 0.000000 0.000000 1.768670 
# 
# From -- ./inp_files/6742.got.cif
#   From: 2010.05.17/outbox.cif.g08.bks.cpg/sg23_4_cif.got.tgz:6742.got - 2010.06.04 12:02:01.
