data_PCOD9331469
_publ_section_title
;
Structure prediction by ZEFSAII (Michael W. Deem and Ramdas Pophale) SiO2 
 PCOD9331469
Probable space group: I 2 2 2
;
_chemical_formula_sum "Si O2"
_cell_formula_units_Z 40
_cell_length_a 13.093439
_cell_length_b 12.703003
_cell_length_c 10.352147
_cell_angle_alpha 90.000000
_cell_angle_beta 90.000000
_cell_angle_gamma 90.000000
_cell_volume 1721.831149
_symmetry_space_group_name_H-M "I 2 2 2"
_symmetry_group_IT_number 23
_symmetry_cell_setting 'orthorhombic'
loop_
_space_group_symop_operation_xyz
x,y,z
-x,-y,z
x,-y,-z
-x,y,-z
1/2+x,1/2+y,1/2+z
1/2-x,1/2-y,1/2+z
1/2+x,1/2-y,1/2-z
1/2-x,1/2+y,1/2-z
loop_
_atom_site_type_symbol
_atom_site_label
_atom_site_fract_x
_atom_site_fract_y
_atom_site_fract_z
Si Si1 0.765286 0.568703 0.868696
Si Si2 0.431703 0.704835 0.128800
Si Si3 0.300599 0.123073 0.763436
Si Si4 0.613236 0.774640 0.510019
Si Si5 0.932487 0.894554 0.838512
O O1 0.649348 0.609017 0.857035
O O2 0.826937 0.498639 0.765415
O O3 0.824797 0.676242 0.892385
O O4 0.770598 0.500000 0.000000
O O5 0.366238 0.813684 0.130934
O O6 0.503529 0.690417 0.254435
O O7 0.500000 0.695078 0.000000
O O8 0.326599 0.194062 0.637666
O O9 0.179184 0.103535 0.773743
O O10 0.500000 0.822465 0.500000
O O11 0.599424 0.651693 0.479292
O O12 0.000000 0.000000 0.838876
#
# Coordination Sequence:
#
# PCOD9331469 Si02
#       5
#     8   8   8   8   8
#     4  10  22  41  71 100 138 190 251 296 351 440
#     4  12  24  42  71 110 144 192 241 309 364 438
#     4  11  24  44  69 110 146 189 245 304 364 439
#     4  11  23  44  68 105 137 191 244 301 360 431
#     4  12  25  43  73 105 147 192 240 302 371 439
#
# _framework density 23.231082000000001
#
# number of rings (size 3 to 8) (size 9 to 14) (size 15 to 20)
#    0.000    0.800    6.000    2.400    0.000    4.000 
#    0.000    0.000    0.000    2.400    0.000    0.000 
#    0.000    0.000    0.000    0.000    0.000    0.000 
#
# Total GULP energy -111443.920335 kJ/mol
# GULP energy per Si atom -5572.196017 kJ/mol
# Density = 2.317821 g / cm^3
# Si number density = 23.231082 Si / 1000 Ang^3
#
#
#
# Elastic Constant Matrix: (Units=GPa)
#
#
# Indices 1 2 3 4 5 6 
#
# 1 120.5949 39.5099 43.9869 0.0000 0.0000 0.0000
# 2 39.5099 94.8364 38.6617 0.0000 0.0000 0.0000
# 3 43.9869 38.6617 65.3223 0.0000 0.0000 0.0000
# 4 0.0000 0.0000 0.0000 24.8170 0.0000 0.0000
# 5 0.0000 0.0000 0.0000 0.0000 35.8415 0.0000
# 6 0.0000 0.0000 0.0000 0.0000 0.0000 48.7075
#
#
#
# Elastic Compliance Matrix: (Units=1/GPa)
#
#
# Indices 1 2 3 4 5 6 
#
# 1 0.011306 -0.002117 -0.006360 0.000000 0.000000 0.000000
# 2 -0.002117 0.014294 -0.007034 0.000000 0.000000 0.000000
# 3 -0.006360 -0.007034 0.023755 0.000000 0.000000 0.000000
# 4 0.000000 0.000000 0.000000 0.040295 0.000000 0.000000
# 5 0.000000 0.000000 0.000000 0.000000 0.027901 0.000000
# 6 0.000000 0.000000 0.000000 0.000000 0.000000 0.020531
#
#
# Mechanical properties :
#
#
# Convention : Reuss Voigt Hill
#
# Bulk Modulus (GPa) = 54.55128 58.34121 56.44625
# Shear Modulus (GPa) = 28.53642 32.44622 30.49132
#
# Velocity S-wave (km/s) = 3.50862 3.74126 3.62681
# Velocity P-wave (km/s) = 6.32035 6.62047 6.47215
#
# Compressibility (1/GPa) = 0.01833137
#
# Stress axis : x y z
#
# Youngs Moduli (GPa) = 88.45113 69.95791 42.09689
#
# Poissons Ratio (x) = 0.14813 0.26773
# Poissons Ratio (y) = 0.18728 0.29613
# Poissons Ratio (z) = 0.56254 0.49211
#
# Static dielectric constant tensor:
#      x y z
#    x 1.980650 0.000000 0.000000 
#    y 0.000000 1.912950 0.000000 
#    z 0.000000 0.000000 2.033200 
# 
# From -- ./inp_files/20683.got.cif
#   From: 2010.05.17/outbox.cif.g08.bks.cpg/sg23_11_cif.got.tgz:20683.got - 2010.06.04 12:02:01.
