data_PCOD9331797
_publ_section_title
;
Structure prediction by ZEFSAII (Michael W. Deem and Ramdas Pophale) SiO2 
 PCOD9331797
Probable space group: I 2 2 2
;
_chemical_formula_sum "Si O2"
_cell_formula_units_Z 38
_cell_length_a 4.775527
_cell_length_b 19.230575
_cell_length_c 18.547082
_cell_angle_alpha 90.000000
_cell_angle_beta 90.000000
_cell_angle_gamma 90.000000
_cell_volume 1703.292236
_symmetry_space_group_name_H-M "I 2 2 2"
_symmetry_group_IT_number 23
_symmetry_cell_setting 'orthorhombic'
loop_
_space_group_symop_operation_xyz
x,y,z
-x,-y,z
x,-y,-z
-x,y,-z
1/2+x,1/2+y,1/2+z
1/2-x,1/2-y,1/2+z
1/2+x,1/2-y,1/2-z
1/2-x,1/2+y,1/2-z
loop_
_atom_site_type_symbol
_atom_site_label
_atom_site_fract_x
_atom_site_fract_y
_atom_site_fract_z
Si Si1 0.881687 0.926771 0.109900
Si Si2 0.109556 0.659891 0.573651
Si Si3 0.608062 0.208852 0.229497
Si Si4 0.810772 0.430516 0.230738
Si Si5 0.500000 0.500000 0.105283
Si Si6 0.500000 0.000000 0.500000
O O1 0.570365 0.910646 0.084411
O O2 0.876432 0.926084 0.196933
O O3 0.072710 0.864886 0.079530
O O4 0.000000 0.000000 0.085913
O O5 0.047275 0.703535 0.644724
O O6 0.000000 0.692298 0.500000
O O7 0.430318 0.273145 0.259578
O O8 0.503977 0.137992 0.266832
O O9 0.628808 0.441851 0.158864
O O10 0.000000 0.500000 0.237677
O O11 0.762054 0.528359 0.057010
#
# Coordination Sequence:
#
# PCOD9331797 Si02
#       6
#     8   8   8   8   4   2
#     4  11  21  35  60  99 131 166 220 258 316 391
#     4  11  24  40  61  88 134 178 210 268 335 395
#     4  11  25  43  68  98 131 174 229 280 329 403
#     4  11  23  40  73 102 132 172 231 285 336 389
#     4  11  22  40  68  96 139 170 218 284 357 412
#     4  10  24  38  60 102 136 178 202 286 378 422
#
# _framework density 22.309736000000001
#
# number of rings (size 3 to 8) (size 9 to 14) (size 15 to 20)
#    0.000    1.053    2.105    6.316    2.947    2.526 
#    0.000    0.000    9.263    0.000    0.000    0.000 
#    0.000    0.000    0.000    0.000    0.000    0.000 
#
# Total GULP energy -106113.073975 kJ/mol
# GULP energy per Si atom -5584.898630 kJ/mol
# Density = 2.225896 g / cm^3
# Si number density = 22.309736 Si / 1000 Ang^3
#
#
#
# Elastic Constant Matrix: (Units=GPa)
#
#
# Indices 1 2 3 4 5 6 
#
# 1 97.9617 10.1406 33.9535 0.0000 0.0000 0.0000
# 2 10.1406 70.1143 17.9017 0.0000 0.0000 0.0000
# 3 33.9535 17.9017 160.5202 0.0000 0.0000 0.0000
# 4 0.0000 0.0000 0.0000 3.8364 0.0000 0.0000
# 5 0.0000 0.0000 0.0000 0.0000 42.8604 0.0000
# 6 0.0000 0.0000 0.0000 0.0000 0.0000 34.9835
#
#
#
# Elastic Compliance Matrix: (Units=1/GPa)
#
#
# Indices 1 2 3 4 5 6 
#
# 1 0.011088 -0.001034 -0.002230 0.000000 0.000000 0.000000
# 2 -0.001034 0.014777 -0.001429 0.000000 0.000000 0.000000
# 3 -0.002230 -0.001429 0.006861 0.000000 0.000000 0.000000
# 4 0.000000 0.000000 0.000000 0.260662 0.000000 0.000000
# 5 0.000000 0.000000 0.000000 0.000000 0.023332 0.000000
# 6 0.000000 0.000000 0.000000 0.000000 0.000000 0.028585
#
#
# Mechanical properties :
#
#
# Convention : Reuss Voigt Hill
#
# Bulk Modulus (GPa) = 42.84708 50.28752 46.56730
# Shear Modulus (GPa) = 13.79421 34.10943 23.95182
#
# Velocity S-wave (km/s) = 2.48927 3.91436 3.28014
# Velocity P-wave (km/s) = 5.24492 6.55890 5.93837
#
# Compressibility (1/GPa) = 0.02333881
#
# Stress axis : x y z
#
# Youngs Moduli (GPa) = 90.18715 67.67315 145.75495
#
# Poissons Ratio (x) = 0.06999 0.32504
# Poissons Ratio (y) = 0.09328 0.20831
# Poissons Ratio (z) = 0.20112 0.09672
#
# Static dielectric constant tensor:
#      x y z
#    x 1.851860 0.000000 0.000000 
#    y 0.000000 1.800580 0.000000 
#    z 0.000000 0.000000 1.874020 
# 
# From -- ./inp_files/23043.got.cif
#   From: 2010.05.17/outbox.cif.g08.bks.cpg/sg23_12_cif.got.tgz:23043.got - 2010.06.04 12:02:01.
