data_PCOD9331263
_publ_section_title
;
Structure prediction by ZEFSAII (Michael W. Deem and Ramdas Pophale) SiO2 
 PCOD9331263
Probable space group: I 2 2 2
;
_chemical_formula_sum "Si O2"
_cell_formula_units_Z 38
_cell_length_a 6.045621
_cell_length_b 27.986443
_cell_length_c 11.554923
_cell_angle_alpha 90.000000
_cell_angle_beta 90.000000
_cell_angle_gamma 90.000000
_cell_volume 1955.040137
_symmetry_space_group_name_H-M "I 2 2 2"
_symmetry_group_IT_number 23
_symmetry_cell_setting 'orthorhombic'
loop_
_space_group_symop_operation_xyz
x,y,z
-x,-y,z
x,-y,-z
-x,y,-z
1/2+x,1/2+y,1/2+z
1/2-x,1/2-y,1/2+z
1/2+x,1/2-y,1/2-z
1/2-x,1/2+y,1/2-z
loop_
_atom_site_type_symbol
_atom_site_label
_atom_site_fract_x
_atom_site_fract_y
_atom_site_fract_z
Si Si1 0.500000 0.500000 0.500000
Si Si2 0.693541 0.208718 0.175880
Si Si3 0.037167 0.814615 0.634825
Si Si4 0.890997 0.547278 0.373698
Si Si5 0.500000 0.652097 0.500000
Si Si6 0.331714 0.133379 0.190744
O O1 0.645151 0.532577 0.412213
O O2 0.806236 0.194952 0.297950
O O3 0.667041 0.264664 0.154255
O O4 0.854768 0.185400 0.082260
O O5 0.459211 0.182623 0.163987
O O6 0.000000 0.823329 0.500000
O O7 0.178333 0.856057 0.698426
O O8 0.000000 0.500000 0.318777
O O9 0.000000 0.553054 0.500000
O O10 0.974905 0.593541 0.304568
O O11 0.665604 0.623735 0.583949
#
# Coordination Sequence:
#
# PCOD9331263 Si02
#       6
#     2   8   8   8   4   8
#     4   8  18  34  56  86 128 168 192 248 302 374
#     4  11  22  37  57  84 114 162 208 256 301 354
#     4  11  24  38  57  84 121 164 212 257 305 360
#     4   9  19  34  58  89 128 160 199 249 307 369
#     4  10  22  35  60  83 122 156 207 246 301 370
#     4  11  22  37  57  89 123 167 202 252 309 363
#
# _framework density 19.43694
#
# number of rings (size 3 to 8) (size 9 to 14) (size 15 to 20)
#    0.000    1.895    2.105    3.158    2.947   11.789 
#    0.000    0.000    0.000    0.000    0.000    4.421 
#    0.000    5.053    0.000    0.000    0.000    0.000 
#
# Total GULP energy -105987.640221 kJ/mol
# GULP energy per Si atom -5578.296854 kJ/mol
# Density = 1.939270 g / cm^3
# Si number density = 19.436940 Si / 1000 Ang^3
#
#
#
# Elastic Constant Matrix: (Units=GPa)
#
#
# Indices 1 2 3 4 5 6 
#
# 1 107.2691 35.5193 43.3907 0.0000 0.0000 0.0000
# 2 35.5193 103.0685 28.5855 0.0000 0.0000 0.0000
# 3 43.3907 28.5855 118.7970 -0.0001 0.0000 0.0000
# 4 0.0000 0.0000 -0.0001 8.4732 0.0000 0.0000
# 5 0.0000 0.0000 0.0000 0.0000 21.7467 0.0000
# 6 0.0000 0.0000 0.0000 0.0000 0.0000 41.7871
#
#
#
# Elastic Compliance Matrix: (Units=1/GPa)
#
#
# Indices 1 2 3 4 5 6 
#
# 1 0.011781 -0.003072 -0.003564 0.000000 0.000000 0.000000
# 2 -0.003072 0.011197 -0.001572 0.000000 0.000000 0.000000
# 3 -0.003564 -0.001572 0.010098 0.000000 0.000000 0.000000
# 4 0.000000 0.000000 0.000000 0.118019 0.000000 0.000000
# 5 0.000000 0.000000 0.000000 0.000000 0.045984 0.000000
# 6 0.000000 0.000000 0.000000 0.000000 0.000000 0.023931
#
#
# Mechanical properties :
#
#
# Convention : Reuss Voigt Hill
#
# Bulk Modulus (GPa) = 60.02389 60.45842 60.24116
# Shear Modulus (GPa) = 20.57793 29.17734 24.87763
#
# Velocity S-wave (km/s) = 3.25730 3.87864 3.58147
# Velocity P-wave (km/s) = 6.71529 7.15758 6.93996
#
# Compressibility (1/GPa) = 0.01666003
#
# Stress axis : x y z
#
# Youngs Moduli (GPa) = 84.88225 89.31063 99.03143
#
# Poissons Ratio (x) = 0.27432 0.35294
# Poissons Ratio (y) = 0.26072 0.15571
# Poissons Ratio (z) = 0.30252 0.14043
#
# Static dielectric constant tensor:
#      x y z
#    x 1.760970 0.000000 0.000000 
#    y 0.000000 1.759850 0.000000 
#    z 0.000000 0.000000 1.655730 
# 
# From -- ./inp_files/1741.got.cif
#   From: 2010.05.17/outbox.cif.g08.bks.cpg/sg23_1_cif.got.tgz:1741.got - 2010.06.04 12:02:01.
