data_PCOD9331666
_publ_section_title
;
Structure prediction by ZEFSAII (Michael W. Deem and Ramdas Pophale) SiO2 
 PCOD9331666
Probable space group: I 2 2 2
;
_chemical_formula_sum "Si O2"
_cell_formula_units_Z 40
_cell_length_a 10.945536
_cell_length_b 5.569761
_cell_length_c 27.539600
_cell_angle_alpha 90.000000
_cell_angle_beta 90.000000
_cell_angle_gamma 90.000000
_cell_volume 1678.924712
_symmetry_space_group_name_H-M "I 2 2 2"
_symmetry_group_IT_number 23
_symmetry_cell_setting 'orthorhombic'
loop_
_space_group_symop_operation_xyz
x,y,z
-x,-y,z
x,-y,-z
-x,y,-z
1/2+x,1/2+y,1/2+z
1/2-x,1/2-y,1/2+z
1/2+x,1/2-y,1/2-z
1/2-x,1/2+y,1/2-z
loop_
_atom_site_type_symbol
_atom_site_label
_atom_site_fract_x
_atom_site_fract_y
_atom_site_fract_z
Si Si1 0.000000 0.500000 0.174538
Si Si2 0.882159 0.866791 0.636187
Si Si3 0.666804 0.784377 0.403082
Si Si4 0.727303 0.743387 0.723176
Si Si5 0.171295 0.384023 0.549376
Si Si6 0.346165 0.000000 0.500000
O O1 0.068096 0.690635 0.139193
O O2 0.097203 0.348043 0.205374
O O3 0.818335 0.710609 0.677504
O O4 0.922810 0.728323 0.587321
O O5 0.775268 0.043640 0.617258
O O6 0.000000 0.000000 0.656270
O O7 0.739773 0.547918 0.418026
O O8 0.600477 0.854129 0.454362
O O9 0.720667 0.481091 0.748240
O O10 0.124128 0.500000 0.500000
O O11 0.259527 0.183427 0.527671
#
# Coordination Sequence:
#
# PCOD9331666 Si02
#       6
#     4   8   8   8   8   4
#     4  10  24  45  72 102 140 174 235 296 364 436
#     4  10  23  41  65  99 141 184 241 295 358 425
#     4   9  19  39  62  99 133 183 227 284 347 422
#     4  11  28  50  74 106 141 183 240 303 373 437
#     4   9  18  38  66  96 144 185 236 285 350 421
#     4   8  16  35  59  96 138 178 227 279 332 422
#
# _framework density 23.824776
#
# number of rings (size 3 to 8) (size 9 to 14) (size 15 to 20)
#    0.000    2.400    0.000    0.000    8.400    1.200 
#    7.200   23.000    0.000   18.000    0.000    0.000 
#    0.000    0.000    0.000    0.000    0.000    0.000 
#
# Total GULP energy -111527.771514 kJ/mol
# GULP energy per Si atom -5576.388576 kJ/mol
# Density = 2.377055 g / cm^3
# Si number density = 23.824776 Si / 1000 Ang^3
#
#
#
# Elastic Constant Matrix: (Units=GPa)
#
#
# Indices 1 2 3 4 5 6 
#
# 1 71.4515 -13.7111 15.4126 0.0000 0.0000 0.0000
# 2 -13.7111 64.9095 22.7094 0.0000 0.0000 0.0000
# 3 15.4126 22.7094 108.1041 0.0000 0.0000 0.0000
# 4 0.0000 0.0000 0.0000 48.9573 0.0000 0.0000
# 5 0.0000 0.0000 0.0000 0.0000 -28.6080 0.0000
# 6 0.0000 0.0000 0.0000 0.0000 0.0000 17.1382
#
#
#
# Elastic Compliance Matrix: (Units=1/GPa)
#
#
# Indices 1 2 3 4 5 6 
#
# 1 0.015509 0.004371 -0.003129 0.000000 0.000000 0.000000
# 2 0.004371 0.017860 -0.004375 0.000000 0.000000 0.000000
# 3 -0.003129 -0.004375 0.010616 0.000000 0.000000 0.000000
# 4 0.000000 0.000000 0.000000 0.020426 0.000000 0.000000
# 5 0.000000 0.000000 0.000000 0.000000 -0.034955 0.000000
# 6 0.000000 0.000000 0.000000 0.000000 0.000000 0.058349
#
#
# Mechanical properties :
#
#
# Convention : Reuss Voigt Hill
#
# Bulk Modulus (GPa) = 26.51259 32.58745 29.55002
# Shear Modulus (GPa) = 46.88476 22.16777 34.52627
#
# Velocity S-wave (km/s) = 4.44091 3.05364 3.81093
# Velocity P-wave (km/s) = 6.11947 5.11279 5.63864
#
# Compressibility (1/GPa) = 0.03771792
#
# Stress axis : x y z
#
# Youngs Moduli (GPa) = 64.47744 55.99102 94.20124
#
# Poissons Ratio (x) = -0.24473 0.29479
# Poissons Ratio (y) = -0.28183 0.41213
# Poissons Ratio (z) = 0.20178 0.24496
#
# Static dielectric constant tensor:
#      x y z
#    x 1.909460 0.000000 0.000000 
#    y 0.000000 2.021650 0.000000 
#    z 0.000000 0.000000 1.733610 
# 
# From -- ./inp_files/29382.got.cif
#   From: 2010.05.17/outbox.cif.g08.bks.cpg/sg23_15_cif.got.tgz:29382.got - 2010.06.04 12:02:01.
