data_PCOD9331962
_publ_section_title
;
Structure prediction by ZEFSAII (Michael W. Deem and Ramdas Pophale) SiO2 
 PCOD9331962
Probable space group: I 2 2 2
;
_chemical_formula_sum "Si O2"
_cell_formula_units_Z 46
_cell_length_a 11.703464
_cell_length_b 7.966124
_cell_length_c 23.582420
_cell_angle_alpha 90.000000
_cell_angle_beta 90.000000
_cell_angle_gamma 90.000000
_cell_volume 2198.618387
_symmetry_space_group_name_H-M "I 2 2 2"
_symmetry_group_IT_number 23
_symmetry_cell_setting 'orthorhombic'
loop_
_space_group_symop_operation_xyz
x,y,z
-x,-y,z
x,-y,-z
-x,y,-z
1/2+x,1/2+y,1/2+z
1/2-x,1/2-y,1/2+z
1/2+x,1/2-y,1/2-z
1/2-x,1/2+y,1/2-z
loop_
_atom_site_type_symbol
_atom_site_label
_atom_site_fract_x
_atom_site_fract_y
_atom_site_fract_z
Si Si1 0.361200 0.251568 0.421198
Si Si2 0.000000 0.000000 0.359021
Si Si3 0.000000 0.000000 0.154349
Si Si4 0.284324 0.000000 0.000000
Si Si5 0.087250 0.350213 0.602919
Si Si6 0.000000 0.500000 0.000000
Si Si7 0.747647 0.569027 0.816748
Si Si8 0.216443 0.806059 0.803795
O O1 0.455731 0.353000 0.386305
O O2 0.291617 0.381333 0.460041
O O3 0.420672 0.115232 0.460814
O O4 0.283445 0.165188 0.373380
O O5 0.887158 0.967725 0.322248
O O6 0.027054 0.830881 0.393807
O O7 0.106536 0.075542 0.188701
O O8 0.360785 0.887178 0.958569
O O9 0.189811 0.352344 0.648733
O O10 0.000000 0.500000 0.616578
O O11 0.810958 0.390025 0.812860
O O12 0.767169 0.670697 0.759074
#
# Coordination Sequence:
#
# PCOD9331962 Si02
#       8
#     8   4   4   4   8   2   8   8
#     4  12  26  45  73 103 145 191 241 300 361 436
#     4  10  25  44  73 102 150 181 247 296 364 434
#     4  12  23  47  72 104 142 193 233 292 374 426
#     4  12  25  47  74 100 146 191 243 302 366 436
#     4  11  25  48  72 107 141 196 239 301 366 433
#     4  12  28  42  68 106 140 190 252 294 360 436
#     4  11  25  46  70 109 139 188 239 297 360 440
#     4  11  25  45  72 104 147 183 240 295 368 433
#
# _framework density 20.922232000000001
#
# number of rings (size 3 to 8) (size 9 to 14) (size 15 to 20)
#    0.000    0.696    1.739    4.957    7.304    1.391 
#    1.565    5.217    0.000    0.000    0.000    0.000 
#    0.000    0.000    0.000    0.000    0.000    0.000 
#
# Total GULP energy -128752.301554 kJ/mol
# GULP energy per Si atom -5597.926155 kJ/mol
# Density = 2.087461 g / cm^3
# Si number density = 20.922232 Si / 1000 Ang^3
#
#
#
# Elastic Constant Matrix: (Units=GPa)
#
#
# Indices 1 2 3 4 5 6 
#
# 1 72.9269 43.9726 38.1967 0.0000 0.0000 0.0000
# 2 43.9726 134.8977 69.0542 0.0000 0.0000 0.0000
# 3 38.1967 69.0542 151.4714 0.0000 0.0000 0.0000
# 4 0.0000 0.0000 0.0000 42.1863 0.0000 0.0000
# 5 0.0000 0.0000 0.0000 0.0000 -46.5197 0.0000
# 6 0.0000 0.0000 0.0000 0.0000 0.0000 45.0558
#
#
#
# Elastic Compliance Matrix: (Units=1/GPa)
#
#
# Indices 1 2 3 4 5 6 
#
# 1 0.017707 -0.004548 -0.002392 0.000000 0.000000 0.000000
# 2 -0.004548 0.010838 -0.003794 0.000000 0.000000 0.000000
# 3 -0.002392 -0.003794 0.008935 0.000000 0.000000 0.000000
# 4 0.000000 0.000000 0.000000 0.023704 0.000000 0.000000
# 5 0.000000 0.000000 0.000000 0.000000 -0.021496 0.000000
# 6 0.000000 0.000000 0.000000 0.000000 0.000000 0.022195
#
#
# Mechanical properties :
#
#
# Convention : Reuss Voigt Hill
#
# Bulk Modulus (GPa) = 62.45163 73.52699 67.98931
# Shear Modulus (GPa) = 56.37806 22.01597 39.19701
#
# Velocity S-wave (km/s) = 5.19663 3.24740 4.33305
# Velocity P-wave (km/s) = 8.11917 7.01998 7.58950
#
# Compressibility (1/GPa) = 0.01601239
#
# Stress axis : x y z
#
# Youngs Moduli (GPa) = 56.47392 92.27207 111.92255
#
# Poissons Ratio (x) = 0.41961 0.26773
# Poissons Ratio (y) = 0.25682 0.42463
# Poissons Ratio (z) = 0.13509 0.35008
#
# Static dielectric constant tensor:
#      x y z
#    x 1.733710 0.000000 0.000000 
#    y 0.000000 1.749030 0.000000 
#    z 0.000000 0.000000 1.719400 
# 
# From -- ./inp_files/28320.got.cif
#   From: 2010.05.17/outbox.cif.g08.bks.cpg/sg23_15_cif.got.tgz:28320.got - 2010.06.04 12:02:01.
