data_PCOD9331878
_publ_section_title
;
Structure prediction by ZEFSAII (Michael W. Deem and Ramdas Pophale) SiO2 
 PCOD9331878
Probable space group: I 2 2 2
;
_chemical_formula_sum "Si O2"
_cell_formula_units_Z 38
_cell_length_a 15.944501
_cell_length_b 18.791870
_cell_length_c 4.849470
_cell_angle_alpha 90.000000
_cell_angle_beta 90.000000
_cell_angle_gamma 90.000000
_cell_volume 1453.032099
_symmetry_space_group_name_H-M "I 2 2 2"
_symmetry_group_IT_number 23
_symmetry_cell_setting 'orthorhombic'
loop_
_space_group_symop_operation_xyz
x,y,z
-x,-y,z
x,-y,-z
-x,y,-z
1/2+x,1/2+y,1/2+z
1/2-x,1/2-y,1/2+z
1/2+x,1/2-y,1/2-z
1/2-x,1/2+y,1/2-z
loop_
_atom_site_type_symbol
_atom_site_label
_atom_site_fract_x
_atom_site_fract_y
_atom_site_fract_z
Si Si1 0.331995 0.691789 0.229786
Si Si2 0.616962 0.000000 0.000000
Si Si3 0.769937 0.500000 0.000000
Si Si4 0.500000 0.500000 0.000000
Si Si5 0.359503 0.428240 0.339866
Si Si6 0.500000 0.123488 0.000000
Si Si7 0.136340 0.721014 0.222991
O O1 0.365571 0.628200 0.416726
O O2 0.231158 0.692530 0.267186
O O3 0.362015 0.707435 0.918823
O O4 0.366434 0.759989 0.401710
O O5 0.672758 0.026815 0.748756
O O6 0.564110 0.065359 0.128133
O O7 0.714228 0.433080 0.890464
O O8 0.444190 0.552049 0.815526
O O9 0.337282 0.500000 0.500000
O O10 0.559621 0.172213 0.813214
#
# Coordination Sequence:
#
# PCOD9331878 Si02
#       7
#     8   4   4   2   8   4   8
#     4  10  24  45  71  96 135 186 237 280 341 418
#     4  11  26  44  72 109 148 178 232 299 358 438
#     4  11  24  42  72 111 134 190 228 291 358 440
#     4  10  26  42  64 110 144 168 232 314 348 402
#     4  11  24  45  72 103 137 185 236 297 354 414
#     4  11  26  47  70 107 147 186 230 298 371 420
#     4  10  24  44  68 101 137 183 232 284 337 432
#
# _framework density 26.152208999999999
#
# number of rings (size 3 to 8) (size 9 to 14) (size 15 to 20)
#    0.000    1.474    1.053    1.579    5.895   10.105 
#    3.789    0.000    0.000    0.000    0.000    0.000 
#    0.000    0.000    0.000    0.000    0.000    0.000 
#
# Total GULP energy -106314.127327 kJ/mol
# GULP energy per Si atom -5595.480386 kJ/mol
# Density = 2.609269 g / cm^3
# Si number density = 26.152209 Si / 1000 Ang^3
#
#
#
# Elastic Constant Matrix: (Units=GPa)
#
#
# Indices 1 2 3 4 5 6 
#
# 1 108.1145 20.0845 29.9867 0.0000 0.0000 0.0000
# 2 20.0845 64.9926 -5.4086 0.0000 0.0000 0.0000
# 3 29.9867 -5.4086 121.6208 0.0000 0.0000 0.0000
# 4 0.0000 0.0000 0.0000 26.9005 0.0000 0.0000
# 5 0.0000 0.0000 0.0000 0.0000 15.5736 0.0000
# 6 0.0000 0.0000 0.0000 0.0000 0.0000 30.5412
#
#
#
# Elastic Compliance Matrix: (Units=1/GPa)
#
#
# Indices 1 2 3 4 5 6 
#
# 1 0.010680 -0.003532 -0.002790 0.000000 0.000000 0.000000
# 2 -0.003532 0.016612 0.001610 0.000000 0.000000 0.000000
# 3 -0.002790 0.001610 0.008982 0.000000 0.000000 0.000000
# 4 0.000000 0.000000 0.000000 0.037174 0.000000 0.000000
# 5 0.000000 0.000000 0.000000 0.000000 0.064211 0.000000
# 6 0.000000 0.000000 0.000000 0.000000 0.000000 0.032743
#
#
# Mechanical properties :
#
#
# Convention : Reuss Voigt Hill
#
# Bulk Modulus (GPa) = 37.24761 42.67255 39.96008
# Shear Modulus (GPa) = 26.48634 31.27408 28.88021
#
# Velocity S-wave (km/s) = 3.18587 3.46186 3.32673
# Velocity P-wave (km/s) = 5.27319 5.68610 5.48353
#
# Compressibility (1/GPa) = 0.02684736
#
# Stress axis : x y z
#
# Youngs Moduli (GPa) = 93.63656 60.19754 111.33598
#
# Poissons Ratio (x) = 0.21265 0.31065
# Poissons Ratio (y) = 0.33077 -0.17922
# Poissons Ratio (z) = 0.26127 -0.09690
#
# Static dielectric constant tensor:
#      x y z
#    x 2.055190 0.000000 0.000000 
#    y 0.000000 2.277570 0.000000 
#    z 0.000000 0.000000 2.163020 
# 
# From -- ./inp_files/3170.got.cif
#   From: 2010.05.17/outbox.cif.g08.bks.cpg/sg23_2_cif.got.tgz:3170.got - 2010.06.04 12:02:01.
