data_PCOD9331642
_publ_section_title
;
Structure prediction by ZEFSAII (Michael W. Deem and Ramdas Pophale) SiO2 
 PCOD9331642
Probable space group: I 2 2 2
;
_chemical_formula_sum "Si O2"
_cell_formula_units_Z 46
_cell_length_a 21.370548
_cell_length_b 10.026589
_cell_length_c 11.373934
_cell_angle_alpha 90.000000
_cell_angle_beta 90.000000
_cell_angle_gamma 90.000000
_cell_volume 2437.134939
_symmetry_space_group_name_H-M "I 2 2 2"
_symmetry_group_IT_number 23
_symmetry_cell_setting 'orthorhombic'
loop_
_space_group_symop_operation_xyz
x,y,z
-x,-y,z
x,-y,-z
-x,y,-z
1/2+x,1/2+y,1/2+z
1/2-x,1/2-y,1/2+z
1/2+x,1/2-y,1/2-z
1/2-x,1/2+y,1/2-z
loop_
_atom_site_type_symbol
_atom_site_label
_atom_site_fract_x
_atom_site_fract_y
_atom_site_fract_z
Si Si1 0.436115 0.649370 0.052334
Si Si2 0.273742 0.000000 0.000000
Si Si3 0.164840 0.656407 0.981799
Si Si4 0.171988 0.125470 0.832742
Si Si5 0.500000 0.500000 0.500000
Si Si6 0.090740 0.856479 0.824396
Si Si7 0.808415 0.227601 0.428383
O O1 0.436082 0.658493 0.193372
O O2 0.437640 0.500000 0.000000
O O3 0.500000 0.714276 0.000000
O O4 0.367781 0.695759 0.009514
O O5 0.308028 0.887541 0.927012
O O6 0.232517 0.080545 0.906002
O O7 0.130899 0.730171 0.871510
O O8 0.240541 0.671959 0.969468
O O9 0.150160 0.500000 0.000000
O O10 0.145070 0.751164 0.091526
O O11 0.182966 0.171566 0.701394
O O12 0.133051 0.989614 0.826580
O O13 0.538399 0.400118 0.416854
#
# Coordination Sequence:
#
# PCOD9331642 Si02
#       7
#     8   4   8   8   2   8   8
#     4  11  24  41  63 100 128 171 223 270 326 401
#     4  10  23  40  59 103 129 176 220 272 338 405
#     4  11  25  39  63 102 132 172 220 278 338 388
#     4  11  21  41  62  96 130 171 224 267 332 398
#     4  12  22  44  72  92 118 188 212 282 324 386
#     4  12  23  43  70  96 132 168 229 274 325 400
#     4  11  24  38  68  91 140 173 215 276 340 388
#
# _framework density 18.874621999999999
#
# number of rings (size 3 to 8) (size 9 to 14) (size 15 to 20)
#    0.000    0.870    6.957    1.565    7.304    0.000 
#    0.000    0.870    0.000    2.087    0.000    0.000 
#    0.000    0.000    0.000    0.000    0.000    0.000 
#
# Total GULP energy -128188.197814 kJ/mol
# GULP energy per Si atom -5573.399905 kJ/mol
# Density = 1.883166 g / cm^3
# Si number density = 18.874622 Si / 1000 Ang^3
#
#
#
# Elastic Constant Matrix: (Units=GPa)
#
#
# Indices 1 2 3 4 5 6 
#
# 1 93.6292 37.0096 57.8497 0.0000 0.0000 0.0000
# 2 37.0096 149.2300 47.1266 0.0000 0.0000 0.0000
# 3 57.8497 47.1266 153.3531 0.0000 0.0000 0.0000
# 4 0.0000 0.0000 0.0000 3.7201 0.0000 0.0000
# 5 0.0000 0.0000 0.0000 0.0000 240.5089 0.0000
# 6 0.0000 0.0000 0.0000 0.0000 0.0000 13.6689
#
#
#
# Elastic Compliance Matrix: (Units=1/GPa)
#
#
# Indices 1 2 3 4 5 6 
#
# 1 0.014480 -0.002067 -0.004827 0.000000 0.000000 0.000000
# 2 -0.002067 0.007716 -0.001592 0.000000 0.000000 0.000000
# 3 -0.004827 -0.001592 0.008831 0.000000 0.000000 0.000000
# 4 0.000000 0.000000 0.000000 0.268811 0.000000 0.000000
# 5 0.000000 0.000000 0.000000 0.000000 0.004158 0.000000
# 6 0.000000 0.000000 0.000000 0.000000 0.000000 0.073159
#
#
# Mechanical properties :
#
#
# Convention : Reuss Voigt Hill
#
# Bulk Modulus (GPa) = 71.14331 75.57602 73.35967
# Shear Modulus (GPa) = 12.53727 68.52801 40.53264
#
# Velocity S-wave (km/s) = 2.58008 6.03206 4.63911
# Velocity P-wave (km/s) = 6.83009 9.41501 8.22474
#
# Compressibility (1/GPa) = 0.01405614
#
# Stress axis : x y z
#
# Youngs Moduli (GPa) = 69.06157 129.59677 113.23762
#
# Poissons Ratio (x) = 0.26783 0.54662
# Poissons Ratio (y) = 0.14273 0.18024
# Poissons Ratio (z) = 0.33337 0.20627
#
# Static dielectric constant tensor:
#      x y z
#    x 1.736580 0.000000 0.000000 
#    y 0.000000 1.215260 0.000000 
#    z 0.000000 0.000000 1.629320 
# 
# From -- ./inp_files/18328.got.cif
#   From: 2010.05.17/outbox.cif.g08.bks.cpg/sg23_10_cif.got.tgz:18328.got - 2010.06.04 12:02:01.
