data_PCOD9331061
_publ_section_title
;
Structure prediction by ZEFSAII (Michael W. Deem and Ramdas Pophale) SiO2 
 PCOD9331061
Probable space group: I 2 2 2
;
_chemical_formula_sum "Si O2"
_cell_formula_units_Z 26
_cell_length_a 11.178093
_cell_length_b 19.500353
_cell_length_c 5.069495
_cell_angle_alpha 90.000000
_cell_angle_beta 90.000000
_cell_angle_gamma 90.000000
_cell_volume 1105.032092
_symmetry_space_group_name_H-M "I 2 2 2"
_symmetry_group_IT_number 23
_symmetry_cell_setting 'orthorhombic'
loop_
_space_group_symop_operation_xyz
x,y,z
-x,-y,z
x,-y,-z
-x,y,-z
1/2+x,1/2+y,1/2+z
1/2-x,1/2-y,1/2+z
1/2+x,1/2-y,1/2-z
1/2-x,1/2+y,1/2-z
loop_
_atom_site_type_symbol
_atom_site_label
_atom_site_fract_x
_atom_site_fract_y
_atom_site_fract_z
Si Si1 0.000000 0.500000 0.500000
Si Si2 0.639769 0.190842 0.836510
Si Si3 0.646620 0.891030 0.675060
Si Si4 0.625654 0.337129 0.598300
O O1 0.086202 0.456768 0.305474
O O2 0.617205 0.131244 0.620649
O O3 0.603730 0.266094 0.751558
O O4 0.603164 0.170543 0.132119
O O5 0.785403 0.186911 0.863240
O O6 0.789603 0.887807 0.731276
O O7 0.500000 0.365369 0.500000
#
# Coordination Sequence:
#
# PCOD9331061 Si02
#       4
#     2   8   8   8
#     4  12  28  46  74  86 152 186 240 282 324 418
#     4  10  21  40  61 101 132 165 227 276 347 397
#     4  10  24  41  59  99 126 182 229 271 337 394
#     4  10  21  39  67  98 135 176 218 288 348 402
#
# _framework density 23.528727
#
# number of rings (size 3 to 8) (size 9 to 14) (size 15 to 20)
#    1.846    0.000    3.077    0.000    4.308    3.692 
#    0.000    0.769    0.000    0.000    8.000    0.000 
#    0.000    0.000    0.000    0.000    0.000    0.000 
#
# Total GULP energy -72580.711831 kJ/mol
# GULP energy per Si atom -5583.131679 kJ/mol
# Density = 2.347517 g / cm^3
# Si number density = 23.528727 Si / 1000 Ang^3
#
#
#
# Elastic Constant Matrix: (Units=GPa)
#
#
# Indices 1 2 3 4 5 6 
#
# 1 121.4438 32.3623 26.1760 -0.0038 0.0027 -0.0011
# 2 32.3623 98.3489 36.6069 -0.0005 0.0002 0.0003
# 3 26.1760 36.6069 123.3865 0.0196 -0.0102 0.0103
# 4 -0.0038 -0.0005 0.0196 35.5874 -0.0054 0.0058
# 5 0.0027 0.0002 -0.0102 -0.0054 50.3997 -0.0040
# 6 -0.0011 0.0003 0.0103 0.0058 -0.0040 33.3909
#
#
#
# Elastic Compliance Matrix: (Units=1/GPa)
#
#
# Indices 1 2 3 4 5 6 
#
# 1 0.009176 -0.002580 -0.001181 0.000002 -0.000001 0.000001
# 2 -0.002580 0.012155 -0.003059 0.000002 -0.000001 0.000001
# 3 -0.001181 -0.003059 0.009263 -0.000005 0.000002 -0.000003
# 4 0.000002 0.000002 -0.000005 0.028100 0.000003 -0.000005
# 5 -0.000001 -0.000001 0.000002 0.000003 0.019841 0.000002
# 6 0.000001 0.000001 -0.000003 -0.000005 0.000002 0.029948
#
#
# Mechanical properties :
#
#
# Convention : Reuss Voigt Hill
#
# Bulk Modulus (GPa) = 58.98250 59.27442 59.12846
# Shear Modulus (GPa) = 39.13104 40.41121 39.77112
#
# Velocity S-wave (km/s) = 4.08256 4.14880 4.11581
# Velocity P-wave (km/s) = 6.88083 6.94241 6.91169
#
# Compressibility (1/GPa) = 0.01695418
#
# Stress axis : x y z
#
# Youngs Moduli (GPa) = 108.97563 82.26797 107.95872
#
# Poissons Ratio (x) = 0.21224 0.12754
# Poissons Ratio (y) = 0.28114 0.33025
# Poissons Ratio (z) = 0.12874 0.25166
#
# Static dielectric constant tensor:
#      x y z
#    x 2.232220 0.000010 0.000000 
#    y 0.000010 1.843570 0.000000 
#    z 0.000000 0.000000 1.901540 
# 
# From -- ./inp_files/2241.got.cif
#   From: 2010.05.17/outbox.cif.g08.bks.cpg/sg23_2_cif.got.tgz:2241.got - 2010.06.04 12:02:01.
