data_PCOD9331240
_publ_section_title
;
Structure prediction by ZEFSAII (Michael W. Deem and Ramdas Pophale) SiO2 
 PCOD9331240
Probable space group: I 2 2 2
;
_chemical_formula_sum "Si O2"
_cell_formula_units_Z 48
_cell_length_a 6.328738
_cell_length_b 17.123319
_cell_length_c 14.922309
_cell_angle_alpha 90.000000
_cell_angle_beta 90.000000
_cell_angle_gamma 90.000000
_cell_volume 1617.115699
_symmetry_space_group_name_H-M "I 2 2 2"
_symmetry_group_IT_number 23
_symmetry_cell_setting 'orthorhombic'
loop_
_space_group_symop_operation_xyz
x,y,z
-x,-y,z
x,-y,-z
-x,y,-z
1/2+x,1/2+y,1/2+z
1/2-x,1/2-y,1/2+z
1/2+x,1/2-y,1/2-z
1/2-x,1/2+y,1/2-z
loop_
_atom_site_type_symbol
_atom_site_label
_atom_site_fract_x
_atom_site_fract_y
_atom_site_fract_z
Si Si1 0.794131 0.847107 0.664157
Si Si2 0.758998 0.475660 0.142406
Si Si3 0.758481 0.323795 0.032144
Si Si4 0.523740 0.308429 0.648197
Si Si5 0.311240 0.919928 0.056305
Si Si6 0.598914 0.130300 0.787233
O O1 0.847257 0.812350 0.565880
O O2 0.920765 0.814919 0.747623
O O3 0.553142 0.837712 0.704986
O O4 0.838981 0.939274 0.652110
O O5 0.703622 0.407732 0.072854
O O6 0.000000 0.500000 0.119635
O O7 0.760681 0.433922 0.238115
O O8 0.804487 0.251889 0.100328
O O9 0.000000 0.335458 0.000000
O O10 0.590843 0.382362 0.586905
O O11 0.766097 0.184323 0.841638
O O12 0.433273 0.915337 0.151270
O O13 0.500000 0.877004 0.000000
O O14 0.282378 0.000000 0.000000
#
# Coordination Sequence:
#
# PCOD9331240 Si02
#       6
#     8   8   8   8   8   8
#     4  10  24  50  80 114 153 212 272 328 407 486
#     4  10  21  44  82 111 145 209 269 328 390 487
#     4  12  24  47  81 116 157 212 271 329 419 490
#     4  11  28  49  74 122 167 206 261 349 412 483
#     4  10  25  47  74 105 154 217 276 319 394 485
#     4  10  23  46  76 111 158 201 266 330 402 470
#
# _framework density 29.682479000000001
#
# number of rings (size 3 to 8) (size 9 to 14) (size 15 to 20)
#    0.000    1.500    3.333    0.500   14.000    2.667 
#    0.000    4.167    0.000    6.000    0.000    0.000 
#    0.000    0.000    0.000    0.000    0.000    0.000 
#
# Total GULP energy -133991.076990 kJ/mol
# GULP energy per Si atom -5582.961541 kJ/mol
# Density = 2.961492 g / cm^3
# Si number density = 29.682479 Si / 1000 Ang^3
#
#
#
# Elastic Constant Matrix: (Units=GPa)
#
#
# Indices 1 2 3 4 5 6 
#
# 1 81.4767 16.0558 39.9854 0.0000 0.0000 0.0000
# 2 16.0558 149.1396 108.0739 0.0000 0.0000 0.0000
# 3 39.9854 108.0739 260.0949 0.0000 0.0000 0.0000
# 4 0.0000 0.0000 0.0000 70.7759 0.0000 0.0000
# 5 0.0000 0.0000 0.0000 0.0000 93.6964 0.0000
# 6 0.0000 0.0000 0.0000 0.0000 0.0000 22.7156
#
#
#
# Elastic Compliance Matrix: (Units=1/GPa)
#
#
# Indices 1 2 3 4 5 6 
#
# 1 0.013276 0.000071 -0.002070 0.000000 0.000000 0.000000
# 2 0.000071 0.009594 -0.003998 0.000000 0.000000 0.000000
# 3 -0.002070 -0.003998 0.005824 0.000000 0.000000 0.000000
# 4 0.000000 0.000000 0.000000 0.014129 0.000000 0.000000
# 5 0.000000 0.000000 0.000000 0.000000 0.010673 0.000000
# 6 0.000000 0.000000 0.000000 0.000000 0.000000 0.044023
#
#
# Mechanical properties :
#
#
# Convention : Reuss Voigt Hill
#
# Bulk Modulus (GPa) = 59.87936 90.99350 75.43643
# Shear Modulus (GPa) = 43.44849 59.21065 51.32957
#
# Velocity S-wave (km/s) = 3.83008 4.47117 4.16298
# Velocity P-wave (km/s) = 6.30686 7.57478 6.96971
#
# Compressibility (1/GPa) = 0.01670024
#
# Stress axis : x y z
#
# Youngs Moduli (GPa) = 75.32658 104.22883 171.70046
#
# Poissons Ratio (x) = -0.00742 0.35550
# Poissons Ratio (y) = -0.00536 0.68638
# Poissons Ratio (z) = 0.15596 0.41666
#
# Static dielectric constant tensor:
#      x y z
#    x 2.764710 0.000000 0.000000 
#    y 0.000000 2.346790 0.000000 
#    z 0.000000 0.000000 2.332250 
# 
# From -- ./inp_files/20848.got.cif
#   From: 2010.05.17/outbox.cif.g08.bks.cpg/sg23_11_cif.got.tgz:20848.got - 2010.06.04 12:02:01.
