data_PCOD9331421
_publ_section_title
;
Structure prediction by ZEFSAII (Michael W. Deem and Ramdas Pophale) SiO2 
 PCOD9331421
Probable space group: I 2 2 2
;
_chemical_formula_sum "Si O2"
_cell_formula_units_Z 64
_cell_length_a 14.813012
_cell_length_b 11.136405
_cell_length_c 16.577631
_cell_angle_alpha 90.000000
_cell_angle_beta 90.000000
_cell_angle_gamma 90.000000
_cell_volume 2734.707362
_symmetry_space_group_name_H-M "I 2 2 2"
_symmetry_group_IT_number 23
_symmetry_cell_setting 'orthorhombic'
loop_
_space_group_symop_operation_xyz
x,y,z
-x,-y,z
x,-y,-z
-x,y,-z
1/2+x,1/2+y,1/2+z
1/2-x,1/2-y,1/2+z
1/2+x,1/2-y,1/2-z
1/2-x,1/2+y,1/2-z
loop_
_atom_site_type_symbol
_atom_site_label
_atom_site_fract_x
_atom_site_fract_y
_atom_site_fract_z
Si Si1 0.591320 0.556119 0.208941
Si Si2 0.217448 0.388673 0.635244
Si Si3 0.120722 0.478877 0.089587
Si Si4 0.756262 0.852934 0.826721
Si Si5 0.446380 0.883326 0.742243
Si Si6 0.406607 0.289309 0.043104
Si Si7 0.201533 0.107710 0.398063
Si Si8 0.616360 0.760955 0.696779
O O1 0.500000 0.500000 0.242884
O O2 0.653547 0.619789 0.275569
O O3 0.578047 0.634671 0.126232
O O4 0.643205 0.436197 0.177426
O O5 0.230290 0.530000 0.622043
O O6 0.146024 0.370670 0.708803
O O7 0.165906 0.313775 0.566194
O O8 0.315858 0.339994 0.662327
O O9 0.080413 0.572040 0.153421
O O10 0.227396 0.502048 0.091226
O O11 0.102672 0.346381 0.119686
O O12 0.091232 0.500000 0.000000
O O13 0.753240 0.731340 0.877873
O O14 0.678844 0.833970 0.759596
O O15 0.515968 0.771062 0.737313
O O16 0.500000 0.000000 0.777858
O O17 0.500000 0.246901 0.000000
O O18 0.361107 0.369554 0.974185
#
# Coordination Sequence:
#
# PCOD9331421 Si02
#       8
#     8   8   8   8   8   8   8   8
#     4  12  24  45  77 109 145 187 250 313 371 440
#     4  12  24  45  67  99 151 192 242 292 371 452
#     4  11  21  41  69  99 133 174 235 301 364 417
#     4  12  25  44  67 102 143 200 235 293 366 443
#     4  10  22  40  66  99 135 182 236 295 350 436
#     4  12  27  43  73 108 147 191 240 309 377 446
#     4  12  25  44  67 103 144 189 241 298 373 431
#     4  11  22  40  66  99 131 186 229 302 356 411
#
# _framework density 23.40287
#
# number of rings (size 3 to 8) (size 9 to 14) (size 15 to 20)
#    0.000    0.500    6.250    3.375    1.750    3.750 
#    0.000    0.625    0.000    0.000    0.000    0.875 
#    0.000    0.000    0.000    0.000    0.000    0.000 
#
# Total GULP energy -178890.880110 kJ/mol
# GULP energy per Si atom -5590.340003 kJ/mol
# Density = 2.334960 g / cm^3
# Si number density = 23.402870 Si / 1000 Ang^3
#
#
#
# Elastic Constant Matrix: (Units=GPa)
#
#
# Indices 1 2 3 4 5 6 
#
# 1 115.8243 -3.6912 8.8114 0.0000 0.0000 0.0000
# 2 -3.6912 89.9447 -4.1606 0.0000 0.0000 0.0000
# 3 8.8114 -4.1606 75.7850 0.0000 0.0000 0.0000
# 4 0.0000 0.0000 0.0000 30.4009 0.0000 0.0000
# 5 0.0000 0.0000 0.0000 0.0000 27.2929 0.0000
# 6 0.0000 0.0000 0.0000 0.0000 0.0000 32.0143
#
#
#
# Elastic Compliance Matrix: (Units=1/GPa)
#
#
# Indices 1 2 3 4 5 6 
#
# 1 0.008720 0.000312 -0.000997 0.000000 0.000000 0.000000
# 2 0.000312 0.011157 0.000576 0.000000 0.000000 0.000000
# 3 -0.000997 0.000576 0.013343 0.000000 0.000000 0.000000
# 4 0.000000 0.000000 0.000000 0.032894 0.000000 0.000000
# 5 0.000000 0.000000 0.000000 0.000000 0.036640 0.000000
# 6 0.000000 0.000000 0.000000 0.000000 0.000000 0.031236
#
#
# Mechanical properties :
#
#
# Convention : Reuss Voigt Hill
#
# Bulk Modulus (GPa) = 30.30087 31.49702 30.89895
# Shear Modulus (GPa) = 34.43358 36.64792 35.54075
#
# Velocity S-wave (km/s) = 3.83997 3.96151 3.90121
# Velocity P-wave (km/s) = 5.71280 5.86623 5.79002
#
# Compressibility (1/GPa) = 0.03300235
#
# Stress axis : x y z
#
# Youngs Moduli (GPa) = 114.68511 89.62666 74.94707
#
# Poissons Ratio (x) = -0.02794 0.07470
# Poissons Ratio (y) = -0.03575 -0.04319
# Poissons Ratio (z) = 0.11431 -0.05165
#
# Static dielectric constant tensor:
#      x y z
#    x 1.960510 0.000000 0.000000 
#    y 0.000000 1.980770 0.000000 
#    z 0.000000 0.000000 1.879020 
# 
# From -- ./inp_files/24867.got.cif
#   From: 2010.05.17/outbox.cif.g08.bks.cpg/sg23_13_cif.got.tgz:24867.got - 2010.06.04 12:02:01.
