data_PCOD9331104
_publ_section_title
;
Structure prediction by ZEFSAII (Michael W. Deem and Ramdas Pophale) SiO2 
 PCOD9331104
Probable space group: I 2 2 2
;
_chemical_formula_sum "Si O2"
_cell_formula_units_Z 56
_cell_length_a 16.293706
_cell_length_b 11.204176
_cell_length_c 14.044563
_cell_angle_alpha 90.000000
_cell_angle_beta 90.000000
_cell_angle_gamma 90.000000
_cell_volume 2563.941008
_symmetry_space_group_name_H-M "I 2 2 2"
_symmetry_group_IT_number 23
_symmetry_cell_setting 'orthorhombic'
loop_
_space_group_symop_operation_xyz
x,y,z
-x,-y,z
x,-y,-z
-x,y,-z
1/2+x,1/2+y,1/2+z
1/2-x,1/2-y,1/2+z
1/2+x,1/2-y,1/2-z
1/2-x,1/2+y,1/2-z
loop_
_atom_site_type_symbol
_atom_site_label
_atom_site_fract_x
_atom_site_fract_y
_atom_site_fract_z
Si Si1 0.485029 0.243857 0.300686
Si Si2 0.795416 0.329462 0.652063
Si Si3 0.320530 0.757570 0.945128
Si Si4 0.088750 0.548923 0.316585
Si Si5 0.340806 0.706335 0.334131
Si Si6 0.122577 0.949129 0.106299
Si Si7 0.531249 0.366435 0.897783
O O1 0.429103 0.128095 0.278362
O O2 0.574613 0.220102 0.343592
O O3 0.442005 0.350144 0.359317
O O4 0.498796 0.292978 0.193051
O O5 0.830133 0.268587 0.557537
O O6 0.851750 0.436645 0.690652
O O7 0.792163 0.237129 0.738060
O O8 0.709902 0.386025 0.619706
O O9 0.368283 0.866743 0.894531
O O10 0.225623 0.768163 0.915860
O O11 0.369752 0.644386 0.903500
O O12 0.000000 0.500000 0.347652
O O13 0.371130 0.569718 0.332282
O O14 0.108595 0.000000 0.000000
O O15 0.500000 0.500000 0.888286
O O16 0.500000 0.319801 0.000000
#
# Coordination Sequence:
#
# PCOD9331104 Si02
#       7
#     8   8   8   8   8   8   8
#     4  11  25  42  70 105 142 196 244 295 369 432
#     4  12  23  44  71 103 145 184 243 307 364 437
#     4  11  24  41  66 107 138 186 245 294 365 436
#     4  11  22  43  68 105 137 185 237 297 366 439
#     4  12  24  43  66 106 145 187 242 302 364 431
#     4  12  25  47  73 105 144 191 255 304 360 442
#     4  10  21  40  64  99 143 184 232 296 375 442
#
# _framework density 21.841376
#
# number of rings (size 3 to 8) (size 9 to 14) (size 15 to 20)
#    0.000    0.714    4.286    4.286    2.000    2.857 
#    0.000    0.000    0.000    2.571    0.000    0.000 
#    0.000    0.000    0.000    0.000    0.000    0.000 
#
# Total GULP energy -156504.346829 kJ/mol
# GULP energy per Si atom -5589.440958 kJ/mol
# Density = 2.179166 g / cm^3
# Si number density = 21.841376 Si / 1000 Ang^3
#
#
#
# Elastic Constant Matrix: (Units=GPa)
#
#
# Indices 1 2 3 4 5 6 
#
# 1 130.2131 27.8388 34.4465 0.0000 0.0000 0.0000
# 2 27.8388 70.8454 47.4540 0.0000 0.0000 0.0000
# 3 34.4465 47.4540 98.9069 0.0000 0.0000 0.0000
# 4 0.0000 0.0000 0.0000 23.0240 0.0000 0.0000
# 5 0.0000 0.0000 0.0000 0.0000 15.1362 0.0000
# 6 0.0000 0.0000 0.0000 0.0000 0.0000 40.8889
#
#
#
# Elastic Compliance Matrix: (Units=1/GPa)
#
#
# Indices 1 2 3 4 5 6 
#
# 1 0.008654 -0.002036 -0.002037 0.000000 0.000000 0.000000
# 2 -0.002036 0.021279 -0.009500 0.000000 0.000000 0.000000
# 3 -0.002037 -0.009500 0.015378 0.000000 0.000000 0.000000
# 4 0.000000 0.000000 0.000000 0.043433 0.000000 0.000000
# 5 0.000000 0.000000 0.000000 0.000000 0.066067 0.000000
# 6 0.000000 0.000000 0.000000 0.000000 0.000000 0.024457
#
#
# Mechanical properties :
#
#
# Convention : Reuss Voigt Hill
#
# Bulk Modulus (GPa) = 55.05354 57.71603 56.38478
# Shear Modulus (GPa) = 23.53295 28.49156 26.01225
#
# Velocity S-wave (km/s) = 3.28601 3.61567 3.45478
# Velocity P-wave (km/s) = 6.29746 6.62671 6.46418
#
# Compressibility (1/GPa) = 0.01816414
#
# Stress axis : x y z
#
# Youngs Moduli (GPa) = 115.55482 46.99531 65.02821
#
# Poissons Ratio (x) = 0.09569 0.13246
# Poissons Ratio (y) = 0.23528 0.61777
# Poissons Ratio (z) = 0.23539 0.44646
#
# Static dielectric constant tensor:
#      x y z
#    x 1.855720 0.000000 0.000000 
#    y 0.000000 1.822550 0.000000 
#    z 0.000000 0.000000 1.797920 
# 
# From -- ./inp_files/21599.got.cif
#   From: 2010.05.17/outbox.cif.g08.bks.cpg/sg23_11_cif.got.tgz:21599.got - 2010.06.04 12:02:01.
