data_PCOD9331691
_publ_section_title
;
Structure prediction by ZEFSAII (Michael W. Deem and Ramdas Pophale) SiO2 
 PCOD9331691
Probable space group: I 2 2 2
;
_chemical_formula_sum "Si O2"
_cell_formula_units_Z 28
_cell_length_a 8.154761
_cell_length_b 8.071938
_cell_length_c 21.111985
_cell_angle_alpha 90.000000
_cell_angle_beta 90.000000
_cell_angle_gamma 90.000000
_cell_volume 1389.690611
_symmetry_space_group_name_H-M "I 2 2 2"
_symmetry_group_IT_number 23
_symmetry_cell_setting 'orthorhombic'
loop_
_space_group_symop_operation_xyz
x,y,z
-x,-y,z
x,-y,-z
-x,y,-z
1/2+x,1/2+y,1/2+z
1/2-x,1/2-y,1/2+z
1/2+x,1/2-y,1/2-z
1/2-x,1/2+y,1/2-z
loop_
_atom_site_type_symbol
_atom_site_label
_atom_site_fract_x
_atom_site_fract_y
_atom_site_fract_z
Si Si1 0.188239 0.552172 0.427989
Si Si2 0.409843 0.827660 0.266759
Si Si3 0.500000 0.500000 0.654970
Si Si4 0.083706 0.171597 0.656913
O O1 0.224749 0.500000 0.500000
O O2 0.335736 0.478299 0.386587
O O3 0.171572 0.741700 0.402870
O O4 0.000000 0.500000 0.417907
O O5 0.469518 0.665620 0.304703
O O6 0.224222 0.852075 0.289701
O O7 0.448636 0.783799 0.193688
O O8 0.500000 0.000000 0.281230
O O9 0.000000 0.000000 0.639630
#
# Coordination Sequence:
#
# PCOD9331691 Si02
#       4
#     8   8   4   8
#     4  10  23  42  67  91 125 181 222 269 326 390
#     4  11  23  37  63 101 134 172 207 277 347 392
#     4  10  23  42  66  96 134 167 228 270 332 406
#     4  11  23  39  64  98 135 171 219 277 332 407
#
# _framework density 20.14837
#
# number of rings (size 3 to 8) (size 9 to 14) (size 15 to 20)
#    0.000    1.429    1.429    3.000   12.000    0.000 
#    0.000    2.857    0.000    1.714    0.000    0.000 
#    0.000    0.000    0.000    0.000    0.000    0.000 
#
# Total GULP energy -78046.808392 kJ/mol
# GULP energy per Si atom -5574.772028 kJ/mol
# Density = 2.010251 g / cm^3
# Si number density = 20.148370 Si / 1000 Ang^3
#
#
#
# Elastic Constant Matrix: (Units=GPa)
#
#
# Indices 1 2 3 4 5 6 
#
# 1 94.5190 28.6352 27.9875 0.0000 0.0000 0.0000
# 2 28.6352 105.3319 46.0281 0.0000 0.0000 0.0000
# 3 27.9875 46.0281 119.2355 0.0000 0.0000 0.0000
# 4 0.0000 0.0000 0.0000 20.1750 0.0000 0.0000
# 5 0.0000 0.0000 0.0000 0.0000 -8.7497 0.0000
# 6 0.0000 0.0000 0.0000 0.0000 0.0000 17.7308
#
#
#
# Elastic Compliance Matrix: (Units=1/GPa)
#
#
# Indices 1 2 3 4 5 6 
#
# 1 0.011860 -0.002415 -0.001851 0.000000 0.000000 0.000000
# 2 -0.002415 0.011912 -0.004031 0.000000 0.000000 0.000000
# 3 -0.001851 -0.004031 0.010378 0.000000 0.000000 0.000000
# 4 0.000000 0.000000 0.000000 0.049566 0.000000 0.000000
# 5 0.000000 0.000000 0.000000 0.000000 -0.114289 0.000000
# 6 0.000000 0.000000 0.000000 0.000000 0.000000 0.056399
#
#
# Mechanical properties :
#
#
# Convention : Reuss Voigt Hill
#
# Bulk Modulus (GPa) = 56.96936 58.26534 57.61735
# Shear Modulus (GPa) = 103.57784 20.26025 61.91904
#
# Velocity S-wave (km/s) = 7.17768 3.17449 5.54962
# Velocity P-wave (km/s) = 9.85031 6.51286 8.35003
#
# Compressibility (1/GPa) = 0.01755330
#
# Stress axis : x y z
#
# Youngs Moduli (GPa) = 84.31852 83.94867 96.36122
#
# Poissons Ratio (x) = 0.20274 0.17841
# Poissons Ratio (y) = 0.20364 0.38848
# Poissons Ratio (z) = 0.15612 0.33844
#
# Static dielectric constant tensor:
#      x y z
#    x 1.742070 0.000000 0.000000 
#    y 0.000000 1.751750 0.000000 
#    z 0.000000 0.000000 1.736890 
# 
# From -- ./inp_files/6525.got.cif
#   From: 2010.05.17/outbox.cif.g08.bks.cpg/sg23_4_cif.got.tgz:6525.got - 2010.06.04 12:02:01.
