data_PCOD9331042
_publ_section_title
;
Structure prediction by ZEFSAII (Michael W. Deem and Ramdas Pophale) SiO2 
 PCOD9331042
Probable space group: I 2 2 2
;
_chemical_formula_sum "Si O2"
_cell_formula_units_Z 58
_cell_length_a 11.773921
_cell_length_b 29.167074
_cell_length_c 7.603993
_cell_angle_alpha 90.000000
_cell_angle_beta 90.000000
_cell_angle_gamma 90.000000
_cell_volume 2611.293510
_symmetry_space_group_name_H-M "I 2 2 2"
_symmetry_group_IT_number 23
_symmetry_cell_setting 'orthorhombic'
loop_
_space_group_symop_operation_xyz
x,y,z
-x,-y,z
x,-y,-z
-x,y,-z
1/2+x,1/2+y,1/2+z
1/2-x,1/2-y,1/2+z
1/2+x,1/2-y,1/2-z
1/2-x,1/2+y,1/2-z
loop_
_atom_site_type_symbol
_atom_site_label
_atom_site_fract_x
_atom_site_fract_y
_atom_site_fract_z
Si Si1 0.062545 0.681829 0.232573
Si Si2 0.672178 0.487279 0.202931
Si Si3 0.260064 0.108633 0.377481
Si Si4 0.984835 0.133484 0.693275
Si Si5 0.913017 0.785706 0.847693
Si Si6 0.000000 0.000000 0.000000
Si Si7 0.706445 0.589509 0.281979
Si Si8 0.669743 0.169438 0.106272
O O1 0.128928 0.638678 0.153564
O O2 0.086296 0.731230 0.151358
O O3 0.114108 0.685537 0.427337
O O4 0.927777 0.674773 0.248161
O O5 0.756620 0.444573 0.181113
O O6 0.579950 0.474519 0.354296
O O7 0.718493 0.535302 0.276698
O O8 0.632841 0.500000 0.000000
O O9 0.149809 0.130897 0.279546
O O10 0.236311 0.107881 0.586427
O O11 0.000000 0.111314 0.500000
O O12 0.031573 0.185484 0.688873
O O13 0.076527 0.106210 0.811654
O O14 0.784326 0.802599 0.860800
O O15 0.000000 0.801298 0.000000
O O16 0.790873 0.616643 0.407679
#
# Coordination Sequence:
#
# PCOD9331042 Si02
#       8
#     8   8   8   8   8   2   8   8
#     4  11  26  41  63  90 126 171 218 279 339 400
#     4  10  22  40  62 100 141 179 233 289 348 418
#     4  10  21  39  65  93 133 175 220 274 340 410
#     4   9  19  36  60  92 127 168 211 266 338 394
#     4  11  25  40  65  92 124 171 219 273 334 415
#     4  12  22  32  68 102 130 192 222 288 362 418
#     4   9  20  41  65  91 132 175 217 282 336 400
#     4  10  25  44  62  92 131 166 218 283 334 406
#
# _framework density 22.211213999999998
#
# number of rings (size 3 to 8) (size 9 to 14) (size 15 to 20)
#    0.000    1.931    0.000    1.862    9.655    3.310 
#    6.207    0.690    0.000    4.138    0.000    0.000 
#    0.000    0.000    0.000    0.000    0.000    0.000 
#
# Total GULP energy -161771.907911 kJ/mol
# GULP energy per Si atom -5578.341652 kJ/mol
# Density = 2.216066 g / cm^3
# Si number density = 22.211214 Si / 1000 Ang^3
#
#
#
# Elastic Constant Matrix: (Units=GPa)
#
#
# Indices 1 2 3 4 5 6 
#
# 1 153.9285 68.5919 38.4915 0.0006 -0.0004 0.0003
# 2 68.5919 142.4764 27.9964 0.0022 -0.0003 -0.0007
# 3 38.4915 27.9964 66.8346 0.0018 -0.0043 -0.0038
# 4 0.0006 0.0022 0.0018 27.6351 0.0000 -0.0017
# 5 -0.0004 -0.0003 -0.0043 0.0000 33.0479 0.0004
# 6 0.0003 -0.0007 -0.0038 -0.0017 0.0004 33.6654
#
#
#
# Elastic Compliance Matrix: (Units=1/GPa)
#
#
# Indices 1 2 3 4 5 6 
#
# 1 0.009033 -0.003625 -0.003684 0.000000 0.000000 -0.000001
# 2 -0.003625 0.009103 -0.001725 -0.000001 0.000000 0.000000
# 3 -0.003684 -0.001725 0.017807 -0.000001 0.000002 0.000002
# 4 0.000000 -0.000001 -0.000001 0.036186 0.000000 0.000002
# 5 0.000000 0.000000 0.000002 0.000000 0.030259 0.000000
# 6 -0.000001 0.000000 0.000002 0.000002 0.000000 0.029704
#
#
# Mechanical properties :
#
#
# Convention : Reuss Voigt Hill
#
# Bulk Modulus (GPa) = 55.94665 70.37766 63.16216
# Shear Modulus (GPa) = 32.02705 34.08033 33.05369
#
# Velocity S-wave (km/s) = 3.80140 3.92136 3.86184
# Velocity P-wave (km/s) = 6.67163 7.22891 6.95585
#
# Compressibility (1/GPa) = 0.01787417
#
# Stress axis : x y z
#
# Youngs Moduli (GPa) = 110.70549 109.85575 56.15857
#
# Poissons Ratio (x) = 0.39821 0.20688
# Poissons Ratio (y) = 0.40129 0.09690
# Poissons Ratio (z) = 0.40783 0.18955
#
# Static dielectric constant tensor:
#      x y z
#    x 1.817950 0.000000 0.000000 
#    y 0.000000 1.808460 0.000000 
#    z 0.000000 0.000000 1.939740 
# 
# From -- ./inp_files/8933.got.cif
#   From: 2010.05.17/outbox.cif.g08.bks.cpg/sg23_5_cif.got.tgz:8933.got - 2010.06.04 12:02:01.
