data_PCOD9331020
_publ_section_title
;
Structure prediction by ZEFSAII (Michael W. Deem and Ramdas Pophale) SiO2 
 PCOD9331020
Probable space group: I 2 2 2
;
_chemical_formula_sum "Si O2"
_cell_formula_units_Z 56
_cell_length_a 19.058730
_cell_length_b 11.598147
_cell_length_c 11.314106
_cell_angle_alpha 90.000000
_cell_angle_beta 90.000000
_cell_angle_gamma 90.000000
_cell_volume 2500.937334
_symmetry_space_group_name_H-M "I 2 2 2"
_symmetry_group_IT_number 23
_symmetry_cell_setting 'orthorhombic'
loop_
_space_group_symop_operation_xyz
x,y,z
-x,-y,z
x,-y,-z
-x,y,-z
1/2+x,1/2+y,1/2+z
1/2-x,1/2-y,1/2+z
1/2+x,1/2-y,1/2-z
1/2-x,1/2+y,1/2-z
loop_
_atom_site_type_symbol
_atom_site_label
_atom_site_fract_x
_atom_site_fract_y
_atom_site_fract_z
Si Si1 0.541122 0.620954 0.888899
Si Si2 0.648438 0.754806 0.002851
Si Si3 0.332797 0.868522 0.239181
Si Si4 0.923183 0.544486 0.866583
Si Si5 0.431834 0.272026 0.240142
Si Si6 0.195805 0.179947 0.082006
Si Si7 0.320252 0.428119 0.330816
O O1 0.500000 0.500000 0.877613
O O2 0.620194 0.636873 0.936735
O O3 0.513149 0.695912 0.779911
O O4 0.500000 0.675843 0.000000
O O5 0.639072 0.841613 0.892350
O O6 0.604490 0.778869 0.121626
O O7 0.729056 0.765793 0.043753
O O8 0.345413 0.773169 0.340760
O O9 0.248931 0.871506 0.223735
O O10 0.364266 0.986286 0.286543
O O11 0.922242 0.680752 0.844423
O O12 0.000000 0.500000 0.828351
O O13 0.913095 0.500000 0.000000
O O14 0.388449 0.390298 0.259362
O O15 0.197370 0.062892 0.159576
O O16 0.167290 0.128768 0.959173
#
# Coordination Sequence:
#
# PCOD9331020 Si02
#       7
#     8   8   8   8   8   8   8
#     4   9  20  37  60  93 133 174 217 273 342 416
#     4  10  21  39  63  97 135 172 223 279 346 417
#     4  11  22  39  64  93 127 174 220 277 343 416
#     4  11  25  44  66  93 129 183 235 285 337 415
#     4  11  21  41  64  96 135 172 221 289 347 409
#     4  10  21  40  60  92 132 174 224 274 347 412
#     4  10  22  38  62  93 131 172 217 290 341 412
#
# _framework density 22.391604999999998
#
# number of rings (size 3 to 8) (size 9 to 14) (size 15 to 20)
#    0.000    1.714    1.429    2.571    2.000    1.714 
#    0.000    0.714    0.000    0.000    0.000    0.000 
#    0.000    0.000    0.000    0.000    0.000    0.000 
#
# Total GULP energy -155928.679637 kJ/mol
# GULP energy per Si atom -5568.881416 kJ/mol
# Density = 2.234064 g / cm^3
# Si number density = 22.391605 Si / 1000 Ang^3
#
#
#
# Elastic Constant Matrix: (Units=GPa)
#
#
# Indices 1 2 3 4 5 6 
#
# 1 79.6556 26.9015 28.3908 0.0000 0.0000 0.0000
# 2 26.9015 99.8519 31.8973 0.0000 0.0000 0.0000
# 3 28.3908 31.8973 75.2787 0.0000 0.0000 0.0000
# 4 0.0000 0.0000 0.0000 24.4719 0.0000 0.0000
# 5 0.0000 0.0000 0.0000 0.0000 9.4290 0.0000
# 6 0.0000 0.0000 0.0000 0.0000 0.0000 12.5724
#
#
#
# Elastic Compliance Matrix: (Units=1/GPa)
#
#
# Indices 1 2 3 4 5 6 
#
# 1 0.015063 -0.002595 -0.004582 0.000000 0.000000 0.000000
# 2 -0.002595 0.012030 -0.004119 0.000000 0.000000 0.000000
# 3 -0.004582 -0.004119 0.016757 0.000000 0.000000 0.000000
# 4 0.000000 0.000000 0.000000 0.040863 0.000000 0.000000
# 5 0.000000 0.000000 0.000000 0.000000 0.106056 0.000000
# 6 0.000000 0.000000 0.000000 0.000000 0.000000 0.079539
#
#
# Mechanical properties :
#
#
# Convention : Reuss Voigt Hill
#
# Bulk Modulus (GPa) = 47.03650 47.68505 47.36078
# Shear Modulus (GPa) = 16.66752 20.46777 18.56764
#
# Velocity S-wave (km/s) = 2.73126 3.02666 2.88275
# Velocity P-wave (km/s) = 5.56761 5.79279 5.68132
#
# Compressibility (1/GPa) = 0.02126008
#
# Stress axis : x y z
#
# Youngs Moduli (GPa) = 66.38652 83.12857 59.67641
#
# Poissons Ratio (x) = 0.21569 0.27341
# Poissons Ratio (y) = 0.17225 0.24578
# Poissons Ratio (z) = 0.30415 0.34238
#
# Static dielectric constant tensor:
#      x y z
#    x 1.863990 0.000000 0.000000 
#    y 0.000000 1.904520 0.000000 
#    z 0.000000 0.000000 1.853500 
# 
# From -- ./inp_files/17990.got.cif
#   From: 2010.05.17/outbox.cif.g08.bks.cpg/sg23_9_cif.got.tgz:17990.got - 2010.06.04 12:02:01.
