data_PCOD9331899
_publ_section_title
;
Structure prediction by ZEFSAII (Michael W. Deem and Ramdas Pophale) SiO2 
 PCOD9331899
Probable space group: I 2 2 2
;
_chemical_formula_sum "Si O2"
_cell_formula_units_Z 50
_cell_length_a 9.640141
_cell_length_b 7.767374
_cell_length_c 29.242984
_cell_angle_alpha 90.000000
_cell_angle_beta 90.000000
_cell_angle_gamma 90.000000
_cell_volume 2189.673133
_symmetry_space_group_name_H-M "I 2 2 2"
_symmetry_group_IT_number 23
_symmetry_cell_setting 'orthorhombic'
loop_
_space_group_symop_operation_xyz
x,y,z
-x,-y,z
x,-y,-z
-x,y,-z
1/2+x,1/2+y,1/2+z
1/2-x,1/2-y,1/2+z
1/2+x,1/2-y,1/2-z
1/2-x,1/2+y,1/2-z
loop_
_atom_site_type_symbol
_atom_site_label
_atom_site_fract_x
_atom_site_fract_y
_atom_site_fract_z
Si Si1 0.030596 0.702486 0.357377
Si Si2 0.577301 0.677648 0.340839
Si Si3 0.609561 0.334474 0.553437
Si Si4 0.303715 0.194499 0.685433
Si Si5 0.070463 0.686759 0.544432
Si Si6 0.683443 0.329290 0.214028
Si Si7 0.000000 0.500000 0.000000
O O1 0.194892 0.728208 0.350924
O O2 0.000000 0.500000 0.353802
O O3 0.967606 0.767627 0.405866
O O4 0.956610 0.790956 0.313849
O O5 0.500000 0.500000 0.332785
O O6 0.628186 0.677990 0.392398
O O7 0.455851 0.816051 0.335354
O O8 0.702331 0.700617 0.306508
O O9 0.500000 0.500000 0.546564
O O10 0.767317 0.349831 0.535857
O O11 0.564720 0.146835 0.533929
O O12 0.321879 0.301832 0.732159
O O13 0.241793 0.013719 0.700610
O O14 0.000000 0.500000 0.547908
O O15 0.000000 0.774036 0.500000
#
# Coordination Sequence:
#
# PCOD9331899 Si02
#       7
#     8   8   8   8   8   8   2
#     4  11  23  43  68 101 141 184 237 291 355 432
#     4  11  24  44  71  99 141 188 237 290 365 434
#     4  11  27  50  78 111 152 199 244 312 373 449
#     4  12  26  40  71  99 142 189 235 304 356 438
#     4  10  24  45  78 106 144 196 246 296 373 447
#     4  12  24  45  65 103 142 186 242 294 367 432
#     4  12  30  44  82 114 152 184 268 300 376 450
#
# _framework density 22.834458999999999
#
# number of rings (size 3 to 8) (size 9 to 14) (size 15 to 20)
#    0.000    0.800    1.600    5.040   13.440    0.000 
#    0.000    0.400    0.000    0.000    0.000    0.000 
#    0.000    0.000    0.000    0.000    0.000    0.000 
#
# Total GULP energy -139616.379163 kJ/mol
# GULP energy per Si atom -5584.655167 kJ/mol
# Density = 2.278249 g / cm^3
# Si number density = 22.834459 Si / 1000 Ang^3
#
#
#
# Elastic Constant Matrix: (Units=GPa)
#
#
# Indices 1 2 3 4 5 6 
#
# 1 131.6264 15.7258 32.7843 0.0000 0.0000 0.0000
# 2 15.7258 109.0687 18.0995 0.0000 0.0000 0.0000
# 3 32.7843 18.0995 109.2364 0.0000 0.0000 0.0000
# 4 0.0000 0.0000 0.0000 -2.9106 0.0000 0.0000
# 5 0.0000 0.0000 0.0000 0.0000 39.2845 0.0000
# 6 0.0000 0.0000 0.0000 0.0000 0.0000 34.6978
#
#
#
# Elastic Compliance Matrix: (Units=1/GPa)
#
#
# Indices 1 2 3 4 5 6 
#
# 1 0.008279 -0.000803 -0.002352 0.000000 0.000000 0.000000
# 2 -0.000803 0.009506 -0.001334 0.000000 0.000000 0.000000
# 3 -0.002352 -0.001334 0.010081 0.000000 0.000000 0.000000
# 4 0.000000 0.000000 0.000000 -0.343573 0.000000 0.000000
# 5 0.000000 0.000000 0.000000 0.000000 0.025455 0.000000
# 6 0.000000 0.000000 0.000000 0.000000 0.000000 0.028820
#
#
# Mechanical properties :
#
#
# Convention : Reuss Voigt Hill
#
# Bulk Modulus (GPa) = 52.94338 53.68342 53.31340
# Shear Modulus (GPa) = -20.31218 33.10246 6.39514
#
# Velocity S-wave (km/s) = -2.98575 3.81159 1.67533
# Velocity P-wave (km/s) = 3.36894 6.55223 5.20968
#
# Compressibility (1/GPa) = 0.01888810
#
# Stress axis : x y z
#
# Youngs Moduli (GPa) = 120.78806 105.19969 99.19417
#
# Poissons Ratio (x) = 0.08452 0.23326
# Poissons Ratio (y) = 0.09705 0.13231
# Poissons Ratio (z) = 0.28404 0.14032
#
# Static dielectric constant tensor:
#      x y z
#    x 2.038250 0.000000 0.000000 
#    y 0.000000 1.889470 0.000000 
#    z 0.000000 0.000000 1.895700 
# 
# From -- ./inp_files/30265.got.cif
#   From: 2010.05.17/outbox.cif.g08.bks.cpg/sg23_16_cif.got.tgz:30265.got - 2010.06.04 12:02:01.
