data_PCOD9331822
_publ_section_title
;
Structure prediction by ZEFSAII (Michael W. Deem and Ramdas Pophale) SiO2 
 PCOD9331822
Probable space group: I 2 2 2
;
_chemical_formula_sum "Si O2"
_cell_formula_units_Z 56
_cell_length_a 14.231071
_cell_length_b 7.949018
_cell_length_c 21.782679
_cell_angle_alpha 90.000000
_cell_angle_beta 90.000000
_cell_angle_gamma 90.000000
_cell_volume 2464.122858
_symmetry_space_group_name_H-M "I 2 2 2"
_symmetry_group_IT_number 23
_symmetry_cell_setting 'orthorhombic'
loop_
_space_group_symop_operation_xyz
x,y,z
-x,-y,z
x,-y,-z
-x,y,-z
1/2+x,1/2+y,1/2+z
1/2-x,1/2-y,1/2+z
1/2+x,1/2-y,1/2-z
1/2-x,1/2+y,1/2-z
loop_
_atom_site_type_symbol
_atom_site_label
_atom_site_fract_x
_atom_site_fract_y
_atom_site_fract_z
Si Si1 0.363744 0.670512 0.195757
Si Si2 0.158465 0.181690 0.973386
Si Si3 0.053841 0.322926 0.737486
Si Si4 0.472508 0.308088 0.357430
Si Si5 0.238059 0.465025 0.693702
Si Si6 0.189582 0.056506 0.432069
Si Si7 0.838294 0.723031 0.104810
O O1 0.470196 0.698825 0.218474
O O2 0.304176 0.563600 0.246184
O O3 0.372871 0.601251 0.126468
O O4 0.306125 0.848490 0.191941
O O5 0.080325 0.186490 0.921582
O O6 0.247605 0.281463 0.948629
O O7 0.123173 0.266141 0.035789
O O8 0.183946 0.000000 0.000000
O O9 0.090336 0.267755 0.804208
O O10 0.146182 0.344837 0.697207
O O11 0.000000 0.500000 0.738790
O O12 0.500000 0.500000 0.344262
O O13 0.567572 0.196655 0.356422
O O14 0.294264 0.392965 0.634645
O O15 0.152409 0.000000 0.500000
O O16 0.259968 0.917706 0.402788
#
# Coordination Sequence:
#
# PCOD9331822 Si02
#       7
#     8   8   8   8   8   8   8
#     4  11  22  42  66  96 133 177 222 276 341 400
#     4  11  22  39  60  88 130 177 222 270 322 400
#     4  10  25  42  64  98 134 173 222 277 339 403
#     4  12  24  36  59  94 134 172 221 266 324 396
#     4  11  23  40  67  96 134 179 220 277 336 407
#     4  10  24  41  64  93 129 173 226 274 341 397
#     4  11  23  39  58  91 130 174 218 271 328 396
#
# _framework density 22.726137000000001
#
# number of rings (size 3 to 8) (size 9 to 14) (size 15 to 20)
#    0.000    1.143    2.857    3.000    6.000    1.143 
#    0.000    2.143    0.000    6.000    0.000   13.000 
#    0.000    0.000    0.000    0.000    0.000    0.000 
#
# Total GULP energy -156413.504168 kJ/mol
# GULP energy per Si atom -5586.196577 kJ/mol
# Density = 2.267441 g / cm^3
# Si number density = 22.726137 Si / 1000 Ang^3
#
#
#
# Elastic Constant Matrix: (Units=GPa)
#
#
# Indices 1 2 3 4 5 6 
#
# 1 61.3820 9.7328 46.4870 0.0000 0.0000 0.0000
# 2 9.7328 38.8197 19.1258 0.0000 0.0000 0.0000
# 3 46.4870 19.1258 138.3594 0.0000 0.0000 0.0000
# 4 0.0000 0.0000 0.0000 74.1144 0.0000 0.0000
# 5 0.0000 0.0000 0.0000 0.0000 35.8446 0.0000
# 6 0.0000 0.0000 0.0000 0.0000 0.0000 17.1894
#
#
#
# Elastic Compliance Matrix: (Units=1/GPa)
#
#
# Indices 1 2 3 4 5 6 
#
# 1 0.021997 -0.002011 -0.007113 0.000000 0.000000 0.000000
# 2 -0.002011 0.027827 -0.003171 0.000000 0.000000 0.000000
# 3 -0.007113 -0.003171 0.010056 0.000000 0.000000 0.000000
# 4 0.000000 0.000000 0.000000 0.013493 0.000000 0.000000
# 5 0.000000 0.000000 0.000000 0.000000 0.027898 0.000000
# 6 0.000000 0.000000 0.000000 0.000000 0.000000 0.058176
#
#
# Mechanical properties :
#
#
# Convention : Reuss Voigt Hill
#
# Bulk Modulus (GPa) = 28.33636 43.25025 35.79330
# Shear Modulus (GPa) = 25.53653 36.31071 30.92362
#
# Velocity S-wave (km/s) = 3.35575 4.00152 3.69278
# Velocity P-wave (km/s) = 5.24504 6.35783 5.82805
#
# Compressibility (1/GPa) = 0.03529035
#
# Stress axis : x y z
#
# Youngs Moduli (GPa) = 45.46067 35.93692 99.44626
#
# Poissons Ratio (x) = 0.07226 0.70734
# Poissons Ratio (y) = 0.09141 0.31534
# Poissons Ratio (z) = 0.32335 0.11395
#
# Static dielectric constant tensor:
#      x y z
#    x -1.394840 0.000000 0.000000 
#    y 0.000000 1.929810 0.000000 
#    z 0.000000 0.000000 1.842970 
# 
# From -- ./inp_files/26978.got.cif
#   From: 2010.05.17/outbox.cif.g08.bks.cpg/sg23_14_cif.got.tgz:26978.got - 2010.06.04 12:02:01.
