data_PCOD9331179
_publ_section_title
;
Structure prediction by ZEFSAII (Michael W. Deem and Ramdas Pophale) SiO2 
 PCOD9331179
Probable space group: I 2 2 2
;
_chemical_formula_sum "Si O2"
_cell_formula_units_Z 34
_cell_length_a 13.643578
_cell_length_b 14.852016
_cell_length_c 8.060538
_cell_angle_alpha 90.000000
_cell_angle_beta 90.000000
_cell_angle_gamma 90.000000
_cell_volume 1633.344206
_symmetry_space_group_name_H-M "I 2 2 2"
_symmetry_group_IT_number 23
_symmetry_cell_setting 'orthorhombic'
loop_
_space_group_symop_operation_xyz
x,y,z
-x,-y,z
x,-y,-z
-x,y,-z
1/2+x,1/2+y,1/2+z
1/2-x,1/2-y,1/2+z
1/2+x,1/2-y,1/2-z
1/2-x,1/2+y,1/2-z
loop_
_atom_site_type_symbol
_atom_site_label
_atom_site_fract_x
_atom_site_fract_y
_atom_site_fract_z
Si Si1 0.188272 0.302480 0.307156
Si Si2 0.229704 0.371680 0.679451
Si Si3 0.000000 0.000000 0.500000
Si Si4 0.808080 0.044769 0.334681
Si Si5 0.010122 0.397722 0.701556
O O1 0.215130 0.336139 0.492090
O O2 0.202503 0.197216 0.279720
O O3 0.264868 0.358268 0.197317
O O4 0.080523 0.334935 0.252173
O O5 0.275215 0.471804 0.696109
O O6 0.118871 0.368111 0.748485
O O7 0.923470 0.050494 0.378942
O O8 0.763391 0.000000 0.500000
O O9 0.000000 0.500000 0.761892
O O10 0.000000 0.401141 0.500000
#
# Coordination Sequence:
#
# PCOD9331179 Si02
#       5
#     8   8   2   8   8
#     4  11  22  39  64  95 128 165 209 259 317 384
#     4  11  22  39  64  95 128 165 209 259 317 384
#     4   8  24  40  66  78 128 174 210 252 356 362
#     4  10  21  42  62  86 120 170 211 258 312 377
#     4   9  18  37  64  89 121 165 202 251 319 373
#
# _framework density 20.816188
#
# number of rings (size 3 to 8) (size 9 to 14) (size 15 to 20)
#    0.706    1.176    2.353    2.118    0.000    1.882 
#    4.235   10.588    0.000    0.000    0.000    0.000 
#    0.000    0.000    0.000    0.000    0.000    0.000 
#
# Total GULP energy -94755.300260 kJ/mol
# GULP energy per Si atom -5573.841192 kJ/mol
# Density = 2.076881 g / cm^3
# Si number density = 20.816188 Si / 1000 Ang^3
#
#
#
# Elastic Constant Matrix: (Units=GPa)
#
#
# Indices 1 2 3 4 5 6 
#
# 1 146.3726 22.1533 1.7800 0.0000 0.0000 0.0000
# 2 22.1533 71.9935 -5.0773 0.0000 0.0000 0.0000
# 3 1.7800 -5.0773 40.4369 0.0000 0.0000 0.0000
# 4 0.0000 0.0000 0.0000 26.8016 0.0000 0.0000
# 5 0.0000 0.0000 0.0000 0.0000 13.7443 0.0000
# 6 0.0000 0.0000 0.0000 0.0000 0.0000 32.1936
#
#
#
# Elastic Compliance Matrix: (Units=1/GPa)
#
#
# Indices 1 2 3 4 5 6 
#
# 1 0.007180 -0.002252 -0.000599 0.000000 0.000000 0.000000
# 2 -0.002252 0.014720 0.001947 0.000000 0.000000 0.000000
# 3 -0.000599 0.001947 0.025001 0.000000 0.000000 0.000000
# 4 0.000000 0.000000 0.000000 0.037311 0.000000 0.000000
# 5 0.000000 0.000000 0.000000 0.000000 0.072757 0.000000
# 6 0.000000 0.000000 0.000000 0.000000 0.000000 0.031062
#
#
# Mechanical properties :
#
#
# Convention : Reuss Voigt Hill
#
# Bulk Modulus (GPa) = 22.17534 32.94611 27.56072
# Shear Modulus (GPa) = 24.40581 30.54436 27.47509
#
# Velocity S-wave (km/s) = 3.42781 3.83474 3.63697
# Velocity P-wave (km/s) = 5.13250 5.95554 5.55927
#
# Compressibility (1/GPa) = 0.04509515
#
# Stress axis : x y z
#
# Youngs Moduli (GPa) = 139.27699 67.93326 39.99878
#
# Poissons Ratio (x) = 0.15296 0.02395
# Poissons Ratio (y) = 0.31359 -0.07789
# Poissons Ratio (z) = 0.08339 -0.13229
#
# Static dielectric constant tensor:
#      x y z
#    x 1.742470 0.000000 0.000000 
#    y 0.000000 1.713610 0.000000 
#    z 0.000000 0.000000 1.828900 
# 
# From -- ./inp_files/9405.got.cif
#   From: 2010.05.17/outbox.cif.g08.bks.cpg/sg23_5_cif.got.tgz:9405.got - 2010.06.04 12:02:01.
