data_PCOD9331909
_publ_section_title
;
Structure prediction by ZEFSAII (Michael W. Deem and Ramdas Pophale) SiO2 
 PCOD9331909
Probable space group: I 2 2 2
;
_chemical_formula_sum "Si O2"
_cell_formula_units_Z 64
_cell_length_a 12.626637
_cell_length_b 14.141229
_cell_length_c 17.943550
_cell_angle_alpha 90.000000
_cell_angle_beta 90.000000
_cell_angle_gamma 90.000000
_cell_volume 3203.931480
_symmetry_space_group_name_H-M "I 2 2 2"
_symmetry_group_IT_number 23
_symmetry_cell_setting 'orthorhombic'
loop_
_space_group_symop_operation_xyz
x,y,z
-x,-y,z
x,-y,-z
-x,y,-z
1/2+x,1/2+y,1/2+z
1/2-x,1/2-y,1/2+z
1/2+x,1/2-y,1/2-z
1/2-x,1/2+y,1/2-z
loop_
_atom_site_type_symbol
_atom_site_label
_atom_site_fract_x
_atom_site_fract_y
_atom_site_fract_z
Si Si1 0.731175 0.826724 0.171750
Si Si2 0.369178 0.770300 0.671903
Si Si3 0.885896 0.470590 0.087892
Si Si4 0.199853 0.775867 0.561023
Si Si5 0.760618 0.139394 0.412315
Si Si6 0.465168 0.605143 0.298514
Si Si7 0.378437 0.900807 0.971162
Si Si8 0.998742 0.107968 0.620942
O O1 0.663399 0.799516 0.244641
O O2 0.776061 0.729776 0.134520
O O3 0.839280 0.882928 0.189240
O O4 0.653033 0.881867 0.114688
O O5 0.262813 0.735021 0.631381
O O6 0.462548 0.692094 0.669670
O O7 0.382068 0.865293 0.622079
O O8 0.790503 0.540543 0.114017
O O9 0.000000 0.500000 0.118821
O O10 0.891458 0.500000 0.000000
O O11 0.257856 0.843830 0.500392
O O12 0.173274 0.686070 0.512484
O O13 0.096295 0.832116 0.586939
O O14 0.886526 0.144328 0.401470
O O15 0.500000 0.500000 0.324871
O O16 0.485988 0.608970 0.209787
O O17 0.500000 0.898830 0.000000
O O18 0.334121 0.000000 0.000000
O O19 0.000000 0.000000 0.594442
#
# Coordination Sequence:
#
# PCOD9331909 Si02
#       8
#     8   8   8   8   8   8   8   8
#     4  11  24  44  70  97 143 177 243 297 353 419
#     4  12  24  43  69 102 135 186 230 291 359 426
#     4  11  24  43  66  96 136 178 229 285 359 430
#     4  11  22  40  68  99 138 179 228 289 358 424
#     4  11  22  41  65  98 137 179 228 288 346 428
#     4  11  26  44  66 102 141 187 235 291 350 427
#     4  10  24  46  70  98 134 186 238 294 353 423
#     4  11  22  37  65 103 141 176 225 286 354 423
#
# _framework density 19.975458
#
# number of rings (size 3 to 8) (size 9 to 14) (size 15 to 20)
#    0.000    1.000    3.750    3.375    3.500    0.500 
#    2.250    0.000    0.000    0.000    0.000    0.000 
#    0.000    0.000    0.000    0.000    0.000    0.000 
#
# Total GULP energy -178284.300619 kJ/mol
# GULP energy per Si atom -5571.384394 kJ/mol
# Density = 1.992999 g / cm^3
# Si number density = 19.975458 Si / 1000 Ang^3
#
#
#
# Elastic Constant Matrix: (Units=GPa)
#
#
# Indices 1 2 3 4 5 6 
#
# 1 80.3454 35.0156 38.2956 0.0000 0.0000 0.0000
# 2 35.0156 123.6710 34.9220 0.0000 0.0000 0.0000
# 3 38.2956 34.9220 103.5740 0.0000 0.0000 0.0000
# 4 0.0000 0.0000 0.0000 23.6480 0.0000 0.0000
# 5 0.0000 0.0000 0.0000 0.0000 25.1651 0.0000
# 6 0.0000 0.0000 0.0000 0.0000 0.0000 41.9774
#
#
#
# Elastic Compliance Matrix: (Units=1/GPa)
#
#
# Indices 1 2 3 4 5 6 
#
# 1 0.016176 -0.003195 -0.004904 0.000000 0.000000 0.000000
# 2 -0.003195 0.009568 -0.002045 0.000000 0.000000 0.000000
# 3 -0.004904 -0.002045 0.012157 0.000000 0.000000 0.000000
# 4 0.000000 0.000000 0.000000 0.042287 0.000000 0.000000
# 5 0.000000 0.000000 0.000000 0.000000 0.039738 0.000000
# 6 0.000000 0.000000 0.000000 0.000000 0.000000 0.023822
#
#
# Mechanical properties :
#
#
# Convention : Reuss Voigt Hill
#
# Bulk Modulus (GPa) = 56.77173 58.22855 57.50014
# Shear Modulus (GPa) = 29.42792 31.44860 30.43826
#
# Velocity S-wave (km/s) = 3.84240 3.97213 3.90780
# Velocity P-wave (km/s) = 6.94030 7.08875 7.01492
#
# Compressibility (1/GPa) = 0.01761440
#
# Stress axis : x y z
#
# Youngs Moduli (GPa) = 61.81971 104.51472 82.25465
#
# Poissons Ratio (x) = 0.33396 0.40334
# Poissons Ratio (y) = 0.19754 0.16818
# Poissons Ratio (z) = 0.30314 0.21369
#
# Static dielectric constant tensor:
#      x y z
#    x 1.692830 0.000000 0.000000 
#    y 0.000000 1.776360 0.000000 
#    z 0.000000 0.000000 1.672980 
# 
# From -- ./inp_files/24446.got.cif
#   From: 2010.05.17/outbox.cif.g08.bks.cpg/sg23_13_cif.got.tgz:24446.got - 2010.06.04 12:02:01.
