data_PCOD9331211
_publ_section_title
;
Structure prediction by ZEFSAII (Michael W. Deem and Ramdas Pophale) SiO2 
 PCOD9331211
Probable space group: I 2 2 2
;
_chemical_formula_sum "Si O2"
_cell_formula_units_Z 64
_cell_length_a 9.012951
_cell_length_b 26.123848
_cell_length_c 13.593059
_cell_angle_alpha 90.000000
_cell_angle_beta 90.000000
_cell_angle_gamma 90.000000
_cell_volume 3200.526004
_symmetry_space_group_name_H-M "I 2 2 2"
_symmetry_group_IT_number 23
_symmetry_cell_setting 'orthorhombic'
loop_
_space_group_symop_operation_xyz
x,y,z
-x,-y,z
x,-y,-z
-x,y,-z
1/2+x,1/2+y,1/2+z
1/2-x,1/2-y,1/2+z
1/2+x,1/2-y,1/2-z
1/2-x,1/2+y,1/2-z
loop_
_atom_site_type_symbol
_atom_site_label
_atom_site_fract_x
_atom_site_fract_y
_atom_site_fract_z
Si Si1 0.321827 0.792146 0.124796
Si Si2 0.347265 0.308327 0.764659
Si Si3 0.930396 0.555547 0.398576
Si Si4 0.135714 0.866717 0.269746
Si Si5 0.553068 0.852279 0.221637
Si Si6 0.923730 0.055427 0.100852
Si Si7 0.156655 0.238798 0.051048
Si Si8 0.117584 0.646543 0.918192
O O1 0.290135 0.734903 0.161385
O O2 0.227687 0.831199 0.192625
O O3 0.489651 0.808391 0.149515
O O4 0.273417 0.793659 0.012316
O O5 0.497966 0.332546 0.804126
O O6 0.227772 0.351299 0.736189
O O7 0.364308 0.278141 0.662514
O O8 0.754107 0.550890 0.412602
O O9 0.000000 0.500000 0.380188
O O10 0.000000 0.575502 0.500000
O O11 0.983197 0.594800 0.315680
O O12 0.067834 0.911030 0.200152
O O13 0.245603 0.881697 0.360374
O O14 0.489296 0.839566 0.328130
O O15 0.000000 0.000000 0.114113
O O16 0.000000 0.077078 0.000000
O O17 0.185483 0.299662 0.045635
O O18 0.000000 0.229579 0.000000
O O19 0.000000 0.625097 0.000000
#
# Coordination Sequence:
#
# PCOD9331211 Si02
#       8
#     8   8   8   8   8   8   8   8
#     4  11  22  40  54  89 130 175 223 267 318 398
#     4  12  23  36  59  88 133 168 224 270 316 387
#     4  11  24  42  64  94 135 168 216 272 336 416
#     4  11  23  39  63  93 128 174 228 269 332 410
#     4  11  24  39  60  93 128 172 219 275 328 399
#     4  11  24  42  67  98 134 168 217 273 342 412
#     4  11  21  34  59  82 120 179 213 267 320 374
#     4  10  21  43  63  84 126 170 220 273 327 381
#
# _framework density 19.996714999999998
#
# number of rings (size 3 to 8) (size 9 to 14) (size 15 to 20)
#    0.000    1.000    6.250    3.750    7.000    0.000 
#    0.000    1.875    0.000    0.375    0.000    0.000 
#    0.000    0.000    0.000    0.000    0.000    0.000 
#
# Total GULP energy -178468.997755 kJ/mol
# GULP energy per Si atom -5577.156180 kJ/mol
# Density = 1.995120 g / cm^3
# Si number density = 19.996715 Si / 1000 Ang^3
#
#
#
# Elastic Constant Matrix: (Units=GPa)
#
#
# Indices 1 2 3 4 5 6 
#
# 1 99.8385 24.8573 26.4927 0.0000 0.0000 0.0000
# 2 24.8573 49.8371 27.9272 0.0000 0.0000 0.0000
# 3 26.4927 27.9272 92.8724 0.0000 0.0000 -0.0001
# 4 0.0000 0.0000 0.0000 30.8715 0.0000 0.0000
# 5 0.0000 0.0000 0.0000 0.0000 37.1484 0.0000
# 6 0.0000 0.0000 -0.0001 0.0000 0.0000 26.0713
#
#
#
# Elastic Compliance Matrix: (Units=1/GPa)
#
#
# Indices 1 2 3 4 5 6 
#
# 1 0.011710 -0.004773 -0.001905 0.000000 0.000000 0.000000
# 2 -0.004773 0.026077 -0.006480 0.000000 0.000000 0.000000
# 3 -0.001905 -0.006480 0.013259 0.000000 0.000000 0.000000
# 4 0.000000 0.000000 0.000000 0.032392 0.000000 0.000000
# 5 0.000000 0.000000 0.000000 0.000000 0.026919 0.000000
# 6 0.000000 0.000000 0.000000 0.000000 0.000000 0.038356
#
#
# Mechanical properties :
#
#
# Convention : Reuss Voigt Hill
#
# Bulk Modulus (GPa) = 40.43601 44.56692 42.50146
# Shear Modulus (GPa) = 27.28149 29.70297 28.49223
#
# Velocity S-wave (km/s) = 3.69765 3.85826 3.77881
# Velocity P-wave (km/s) = 6.20446 6.49490 6.35134
#
# Compressibility (1/GPa) = 0.02473043
#
# Stress axis : x y z
#
# Youngs Moduli (GPa) = 85.39643 38.34758 75.41777
#
# Poissons Ratio (x) = 0.18304 0.14368
# Poissons Ratio (y) = 0.40761 0.48871
# Poissons Ratio (z) = 0.16269 0.24849
#
# Static dielectric constant tensor:
#      x y z
#    x 1.753540 0.000000 0.000000 
#    y 0.000000 1.708080 0.000000 
#    z 0.000000 0.000000 1.743470 
# 
# From -- ./inp_files/14974.got.cif
#   From: 2010.05.17/outbox.cif.g08.bks.cpg/sg23_8_cif.got.tgz:14974.got - 2010.06.04 12:02:01.
