data_PCOD9331811
_publ_section_title
;
Structure prediction by ZEFSAII (Michael W. Deem and Ramdas Pophale) SiO2 
 PCOD9331811
Probable space group: I 2 2 2
;
_chemical_formula_sum "Si O2"
_cell_formula_units_Z 38
_cell_length_a 10.779512
_cell_length_b 16.931271
_cell_length_c 11.288418
_cell_angle_alpha 90.000000
_cell_angle_beta 90.000000
_cell_angle_gamma 90.000000
_cell_volume 2060.258639
_symmetry_space_group_name_H-M "I 2 2 2"
_symmetry_group_IT_number 23
_symmetry_cell_setting 'orthorhombic'
loop_
_space_group_symop_operation_xyz
x,y,z
-x,-y,z
x,-y,-z
-x,y,-z
1/2+x,1/2+y,1/2+z
1/2-x,1/2-y,1/2+z
1/2+x,1/2-y,1/2-z
1/2-x,1/2+y,1/2-z
loop_
_atom_site_type_symbol
_atom_site_label
_atom_site_fract_x
_atom_site_fract_y
_atom_site_fract_z
Si Si1 0.424226 0.858128 0.623520
Si Si2 0.232831 0.037652 0.875357
Si Si3 0.539161 0.325178 0.637693
Si Si4 0.500000 0.000000 0.201296
Si Si5 0.344880 0.593598 0.187150
Si Si6 0.500000 0.500000 0.000000
O O1 0.500000 0.870362 0.500000
O O2 0.446034 0.767752 0.660854
O O3 0.275166 0.866772 0.627414
O O4 0.466818 0.925704 0.714727
O O5 0.163237 0.120624 0.852238
O O6 0.382223 0.032447 0.872079
O O7 0.195005 0.979007 0.770520
O O8 0.189659 0.000000 0.000000
O O9 0.500000 0.333790 0.500000
O O10 0.433146 0.355013 0.727623
O O11 0.420934 0.556385 0.081894
#
# Coordination Sequence:
#
# PCOD9331811 Si02
#       6
#     8   8   8   4   8   2
#     4  10  25  42  66  93 132 175 215 263 335 391
#     4  11  21  40  68  91 129 166 218 268 328 393
#     4  11  22  42  69  95 126 171 218 278 324 382
#     4  10  24  40  64  96 130 175 215 270 332 398
#     4  11  24  41  64  97 125 170 217 259 329 392
#     4  12  24  40  64  96 124 166 216 264 312 392
#
# _framework density 18.444285000000001
#
# number of rings (size 3 to 8) (size 9 to 14) (size 15 to 20)
#    0.000    1.263    4.211    0.632    8.842    0.000 
#    3.789    0.000    0.000    0.000    0.000    0.000 
#    0.000    0.000    0.000    0.000    0.000    0.000 
#
# Total GULP energy -105911.058978 kJ/mol
# GULP energy per Si atom -5574.266262 kJ/mol
# Density = 1.840231 g / cm^3
# Si number density = 18.444285 Si / 1000 Ang^3
#
#
#
# Elastic Constant Matrix: (Units=GPa)
#
#
# Indices 1 2 3 4 5 6 
#
# 1 135.7734 66.3634 56.5367 0.0001 0.0001 0.0000
# 2 66.3634 131.3664 37.2945 0.0001 0.0001 0.0000
# 3 56.5367 37.2945 94.7231 0.0002 0.0003 0.0000
# 4 0.0001 0.0001 0.0002 17.7469 0.0002 0.0000
# 5 0.0001 0.0001 0.0003 0.0002 50.9243 0.0000
# 6 0.0000 0.0000 0.0000 0.0000 0.0000 16.0860
#
#
#
# Elastic Compliance Matrix: (Units=1/GPa)
#
#
# Indices 1 2 3 4 5 6 
#
# 1 0.011715 -0.004428 -0.005249 0.000000 0.000000 0.000000
# 2 -0.004428 0.010244 -0.001390 0.000000 0.000000 0.000000
# 3 -0.005249 -0.001390 0.014237 0.000000 0.000000 0.000000
# 4 0.000000 0.000000 0.000000 0.056348 0.000000 0.000000
# 5 0.000000 0.000000 0.000000 0.000000 0.019637 0.000000
# 6 0.000000 0.000000 0.000000 0.000000 0.000000 0.062166
#
#
# Mechanical properties :
#
#
# Convention : Reuss Voigt Hill
#
# Bulk Modulus (GPa) = 71.11423 75.80579 73.46001
# Shear Modulus (GPa) = 24.85469 30.39601 27.62535
#
# Velocity S-wave (km/s) = 3.67489 4.06395 3.87431
# Velocity P-wave (km/s) = 7.52638 7.95047 7.74133
#
# Compressibility (1/GPa) = 0.01406188
#
# Stress axis : x y z
#
# Youngs Moduli (GPa) = 85.35849 97.61823 70.23755
#
# Poissons Ratio (x) = 0.43227 0.36868
# Poissons Ratio (y) = 0.37798 0.09765
# Poissons Ratio (z) = 0.44804 0.13572
#
# Static dielectric constant tensor:
#      x y z
#    x 1.710630 0.000000 0.000000 
#    y 0.000000 1.584090 0.000000 
#    z 0.000000 0.000000 1.607900 
# 
# From -- ./inp_files/8245.got.cif
#   From: 2010.05.17/outbox.cif.g08.bks.cpg/sg23_5_cif.got.tgz:8245.got - 2010.06.04 12:02:01.
