data_PCOD9331569
_publ_section_title
;
Structure prediction by ZEFSAII (Michael W. Deem and Ramdas Pophale) SiO2 
 PCOD9331569
Probable space group: I 2 2 2
;
_chemical_formula_sum "Si O2"
_cell_formula_units_Z 34
_cell_length_a 14.925345
_cell_length_b 8.641364
_cell_length_c 11.167717
_cell_angle_alpha 90.000000
_cell_angle_beta 90.000000
_cell_angle_gamma 90.000000
_cell_volume 1440.360086
_symmetry_space_group_name_H-M "I 2 2 2"
_symmetry_group_IT_number 23
_symmetry_cell_setting 'orthorhombic'
loop_
_space_group_symop_operation_xyz
x,y,z
-x,-y,z
x,-y,-z
-x,y,-z
1/2+x,1/2+y,1/2+z
1/2-x,1/2-y,1/2+z
1/2+x,1/2-y,1/2-z
1/2-x,1/2+y,1/2-z
loop_
_atom_site_type_symbol
_atom_site_label
_atom_site_fract_x
_atom_site_fract_y
_atom_site_fract_z
Si Si1 0.062624 0.779548 0.298921
Si Si2 0.638533 0.664058 0.450231
Si Si3 0.500000 0.500000 0.000000
Si Si4 0.722080 0.099781 0.713388
Si Si5 0.120881 0.718465 0.801326
O O1 0.056690 0.892784 0.410511
O O2 0.147937 0.667526 0.305928
O O3 0.966634 0.696549 0.279909
O O4 0.078846 0.859691 0.168615
O O5 0.672502 0.500000 0.500000
O O6 0.709228 0.790792 0.402771
O O7 0.592858 0.252808 0.437277
O O8 0.821215 0.136003 0.755755
O O9 0.690064 0.925156 0.696871
#
# Coordination Sequence:
#
# PCOD9331569 Si02
#       5
#     8   8   2   8   8
#     4  10  26  43  72 102 142 196 240 290 375 414
#     4  10  22  44  73 108 142 184 249 295 356 430
#     4  12  24  48  76 100 148 190 242 306 352 448
#     4  10  26  42  70 114 142 195 237 294 371 418
#     4  12  22  47  72 104 154 185 246 300 355 434
#
# _framework density 23.605207
#
# number of rings (size 3 to 8) (size 9 to 14) (size 15 to 20)
#    1.412    0.000    0.000    4.941    3.294    2.824 
#    4.235    4.706    0.000    0.000    0.000    0.000 
#    0.000    0.000    0.000    0.000    0.000    0.000 
#
# Total GULP energy -94846.820008 kJ/mol
# GULP energy per Si atom -5579.224706 kJ/mol
# Density = 2.355148 g / cm^3
# Si number density = 23.605207 Si / 1000 Ang^3
#
#
#
# Elastic Constant Matrix: (Units=GPa)
#
#
# Indices 1 2 3 4 5 6 
#
# 1 88.9162 14.7349 10.8159 0.0000 0.0000 0.0000
# 2 14.7349 111.1421 28.0172 0.0000 0.0000 0.0000
# 3 10.8159 28.0172 118.9999 0.0000 0.0000 0.0000
# 4 0.0000 0.0000 0.0000 44.5180 0.0000 0.0000
# 5 0.0000 0.0000 0.0000 0.0000 35.0566 0.0000
# 6 0.0000 0.0000 0.0000 0.0000 0.0000 35.8813
#
#
#
# Elastic Compliance Matrix: (Units=1/GPa)
#
#
# Indices 1 2 3 4 5 6 
#
# 1 0.011559 -0.001348 -0.000733 0.000000 0.000000 0.000000
# 2 -0.001348 0.009722 -0.002167 0.000000 0.000000 0.000000
# 3 -0.000733 -0.002167 0.008980 0.000000 0.000000 0.000000
# 4 0.000000 0.000000 0.000000 0.022463 0.000000 0.000000
# 5 0.000000 0.000000 0.000000 0.000000 0.028525 0.000000
# 6 0.000000 0.000000 0.000000 0.000000 0.000000 0.027870
#
#
# Mechanical properties :
#
#
# Convention : Reuss Voigt Hill
#
# Bulk Modulus (GPa) = 45.94204 47.35491 46.64847
# Shear Modulus (GPa) = 40.04173 40.79052 40.41612
#
# Velocity S-wave (km/s) = 4.12310 4.16147 4.14233
# Velocity P-wave (km/s) = 6.49396 6.57230 6.53325
#
# Compressibility (1/GPa) = 0.02176656
#
# Stress axis : x y z
#
# Youngs Moduli (GPa) = 86.51221 102.85632 111.35732
#
# Poissons Ratio (x) = 0.13861 0.08166
# Poissons Ratio (y) = 0.11658 0.24126
# Poissons Ratio (z) = 0.06344 0.22284
#
# Static dielectric constant tensor:
#      x y z
#    x 1.911360 0.000000 0.000000 
#    y 0.000000 1.918010 0.000000 
#    z 0.000000 0.000000 1.904430 
# 
# From -- ./inp_files/17215.got.cif
#   From: 2010.05.17/outbox.cif.g08.bks.cpg/sg23_9_cif.got.tgz:17215.got - 2010.06.04 12:02:01.
