data_PCOD9331144
_publ_section_title
;
Structure prediction by ZEFSAII (Michael W. Deem and Ramdas Pophale) SiO2 
 PCOD9331144
Probable space group: I 2 2 2
;
_chemical_formula_sum "Si O2"
_cell_formula_units_Z 56
_cell_length_a 16.791998
_cell_length_b 12.031904
_cell_length_c 14.437852
_cell_angle_alpha 90.000000
_cell_angle_beta 90.000000
_cell_angle_gamma 90.000000
_cell_volume 2917.019401
_symmetry_space_group_name_H-M "I 2 2 2"
_symmetry_group_IT_number 23
_symmetry_cell_setting 'orthorhombic'
loop_
_space_group_symop_operation_xyz
x,y,z
-x,-y,z
x,-y,-z
-x,y,-z
1/2+x,1/2+y,1/2+z
1/2-x,1/2-y,1/2+z
1/2+x,1/2-y,1/2-z
1/2-x,1/2+y,1/2-z
loop_
_atom_site_type_symbol
_atom_site_label
_atom_site_fract_x
_atom_site_fract_y
_atom_site_fract_z
Si Si1 0.238771 0.765350 0.097358
Si Si2 0.665052 0.860596 0.728301
Si Si3 0.976599 0.872245 0.598603
Si Si4 0.304707 0.281152 0.104450
Si Si5 0.070491 0.883926 0.057138
Si Si6 0.991453 0.230265 0.784499
Si Si7 0.145556 0.381112 0.765911
O O1 0.294980 0.823906 0.173919
O O2 0.158162 0.833918 0.070674
O O3 0.205084 0.657568 0.152007
O O4 0.284258 0.744645 0.001626
O O5 0.733469 0.846949 0.652267
O O6 0.592992 0.783480 0.691626
O O7 0.638441 0.987511 0.738469
O O8 0.883266 0.855291 0.611509
O O9 0.000000 0.823336 0.500000
O O10 0.019780 0.809112 0.680096
O O11 0.000000 0.000000 0.600614
O O12 0.321708 0.173512 0.170028
O O13 0.028140 0.873262 0.157597
O O14 0.000000 0.819949 0.000000
O O15 0.079138 0.000000 0.000000
O O16 0.060950 0.322622 0.786412
#
# Coordination Sequence:
#
# PCOD9331144 Si02
#       7
#     8   8   8   8   8   8   8
#     4  10  22  40  60  91 128 159 211 266 315 379
#     4  11  22  38  65  88 120 169 199 261 325 370
#     4  10  22  38  59  85 118 163 203 250 312 374
#     4  10  22  39  57  91 122 151 211 263 300 383
#     4  10  22  38  59  92 122 165 207 260 319 376
#     4  10  21  41  59  87 125 159 211 259 308 389
#     4   9  22  39  58  88 122 159 211 253 316 384
#
# _framework density 19.197678
#
# number of rings (size 3 to 8) (size 9 to 14) (size 15 to 20)
#    0.000    2.000    0.000    3.000    4.000    5.143 
#    2.571    0.000    0.000    5.143    0.000    0.000 
#    0.000    0.000    0.000    0.000    0.000    0.000 
#
# Total GULP energy -156024.681382 kJ/mol
# GULP energy per Si atom -5572.310049 kJ/mol
# Density = 1.915398 g / cm^3
# Si number density = 19.197678 Si / 1000 Ang^3
#
#
#
# Elastic Constant Matrix: (Units=GPa)
#
#
# Indices 1 2 3 4 5 6 
#
# 1 68.0512 34.5708 10.2924 0.0000 0.0000 0.0000
# 2 34.5708 75.6735 23.7287 0.0000 0.0000 0.0000
# 3 10.2924 23.7287 87.3989 0.0000 0.0000 0.0000
# 4 0.0000 0.0000 0.0000 10.3829 0.0000 0.0000
# 5 0.0000 0.0000 0.0000 0.0000 91.4373 0.0000
# 6 0.0000 0.0000 0.0000 0.0000 0.0000 17.1503
#
#
#
# Elastic Compliance Matrix: (Units=1/GPa)
#
#
# Indices 1 2 3 4 5 6 
#
# 1 0.019137 -0.008784 0.000131 0.000000 0.000000 0.000000
# 2 -0.008784 0.018476 -0.003982 0.000000 0.000000 0.000000
# 3 0.000131 -0.003982 0.012507 0.000000 0.000000 0.000000
# 4 0.000000 0.000000 0.000000 0.096312 0.000000 0.000000
# 5 0.000000 0.000000 0.000000 0.000000 0.010936 0.000000
# 6 0.000000 0.000000 0.000000 0.000000 0.000000 0.058308
#
#
# Mechanical properties :
#
#
# Convention : Reuss Voigt Hill
#
# Bulk Modulus (GPa) = 40.23868 40.92305 40.58086
# Shear Modulus (GPa) = 20.06180 34.62956 27.34568
#
# Velocity S-wave (km/s) = 3.23617 4.25177 3.77825
# Velocity P-wave (km/s) = 5.91349 6.74288 6.34176
#
# Compressibility (1/GPa) = 0.02485171
#
# Stress axis : x y z
#
# Youngs Moduli (GPa) = 52.25404 54.12409 79.95261
#
# Poissons Ratio (x) = 0.47542 -0.01048
# Poissons Ratio (y) = 0.45899 0.31836
# Poissons Ratio (z) = -0.00685 0.21551
#
# Static dielectric constant tensor:
#      x y z
#    x 1.700790 0.000000 0.000000 
#    y 0.000000 1.608500 0.000000 
#    z 0.000000 0.000000 1.716730 
# 
# From -- ./inp_files/21615.got.cif
#   From: 2010.05.17/outbox.cif.g08.bks.cpg/sg23_11_cif.got.tgz:21615.got - 2010.06.04 12:02:01.
