data_PCOD9331975
_publ_section_title
;
Structure prediction by ZEFSAII (Michael W. Deem and Ramdas Pophale) SiO2 
 PCOD9331975
Probable space group: I 2 2 2
;
_chemical_formula_sum "Si O2"
_cell_formula_units_Z 38
_cell_length_a 10.172161
_cell_length_b 16.424254
_cell_length_c 9.546177
_cell_angle_alpha 90.000000
_cell_angle_beta 90.000000
_cell_angle_gamma 90.000000
_cell_volume 1594.881281
_symmetry_space_group_name_H-M "I 2 2 2"
_symmetry_group_IT_number 23
_symmetry_cell_setting 'orthorhombic'
loop_
_space_group_symop_operation_xyz
x,y,z
-x,-y,z
x,-y,-z
-x,y,-z
1/2+x,1/2+y,1/2+z
1/2-x,1/2-y,1/2+z
1/2+x,1/2-y,1/2-z
1/2-x,1/2+y,1/2-z
loop_
_atom_site_type_symbol
_atom_site_label
_atom_site_fract_x
_atom_site_fract_y
_atom_site_fract_z
Si Si1 0.145348 0.614311 0.983915
Si Si2 0.000000 0.810255 0.500000
Si Si3 0.347893 0.594977 0.224440
Si Si4 0.258635 0.067784 0.820730
Si Si5 0.270371 0.710591 0.473328
Si Si6 0.000000 0.500000 0.500000
O O1 0.206347 0.596256 0.834003
O O2 0.142216 0.711295 0.999432
O O3 0.237807 0.581583 0.105721
O O4 0.000000 0.583173 0.000000
O O5 0.030446 0.869594 0.633222
O O6 0.124383 0.750648 0.478315
O O7 0.338578 0.510275 0.310411
O O8 0.300573 0.666342 0.327558
O O9 0.396728 0.046164 0.899175
O O10 0.204927 0.143087 0.908990
#
# Coordination Sequence:
#
# PCOD9331975 Si02
#       6
#     8   4   8   8   8   2
#     4  11  25  42  71 104 147 189 250 307 373 448
#     4  10  25  46  74 111 154 202 242 316 388 450
#     4  11  24  45  74 107 146 199 246 311 381 450
#     4  12  24  44  71 109 148 190 250 310 373 448
#     4  11  24  45  75 107 148 198 252 308 377 457
#     4  12  22  40  78 102 146 184 240 320 366 426
#
# _framework density 23.826225999999998
#
# number of rings (size 3 to 8) (size 9 to 14) (size 15 to 20)
#    0.000    0.842    2.105    5.053    5.895    0.842 
#    0.000    8.421    0.000    1.263    0.000    0.000 
#    0.000    0.000    0.000    0.000    0.000    0.000 
#
# Total GULP energy -106345.842159 kJ/mol
# GULP energy per Si atom -5597.149587 kJ/mol
# Density = 2.377200 g / cm^3
# Si number density = 23.826226 Si / 1000 Ang^3
#
#
#
# Elastic Constant Matrix: (Units=GPa)
#
#
# Indices 1 2 3 4 5 6 
#
# 1 99.6714 41.0368 28.2932 0.0000 0.0000 0.0000
# 2 41.0368 204.7454 62.6842 0.0000 0.0000 0.0000
# 3 28.2932 62.6842 126.7499 0.0001 0.0000 0.0000
# 4 0.0000 0.0000 0.0001 66.5080 0.0000 0.0000
# 5 0.0000 0.0000 0.0000 0.0000 29.4754 0.0000
# 6 0.0000 0.0000 0.0000 0.0000 0.0000 -7.7774
#
#
#
# Elastic Compliance Matrix: (Units=1/GPa)
#
#
# Indices 1 2 3 4 5 6 
#
# 1 0.011218 -0.001746 -0.001640 0.000000 0.000000 0.000000
# 2 -0.001746 0.006027 -0.002591 0.000000 0.000000 0.000000
# 3 -0.001640 -0.002591 0.009537 0.000000 0.000000 0.000000
# 4 0.000000 0.000000 0.000000 0.015036 0.000000 0.000000
# 5 0.000000 0.000000 0.000000 0.000000 0.033927 0.000000
# 6 0.000000 0.000000 0.000000 0.000000 0.000000 -0.128578
#
#
# Mechanical properties :
#
#
# Convention : Reuss Voigt Hill
#
# Bulk Modulus (GPa) = 67.44531 77.24389 72.34460
# Shear Modulus (GPa) = -139.13490 37.58469 -50.77510
#
# Velocity S-wave (km/s) = -7.65000 3.97602 -4.62135
# Velocity P-wave (km/s) = 7.04708 7.31904 1.39769
#
# Compressibility (1/GPa) = 0.01482683
#
# Stress axis : x y z
#
# Youngs Moduli (GPa) = 89.14614 165.91035 104.85311
#
# Poissons Ratio (x) = 0.28969 0.17201
# Poissons Ratio (y) = 0.15566 0.27168
# Poissons Ratio (z) = 0.14624 0.42989
#
# Static dielectric constant tensor:
#      x y z
#    x 1.928900 0.000000 0.000000 
#    y 0.000000 1.920960 0.000000 
#    z 0.000000 0.000000 1.952330 
# 
# From -- ./inp_files/8233.got.cif
#   From: 2010.05.17/outbox.cif.g08.bks.cpg/sg23_5_cif.got.tgz:8233.got - 2010.06.04 12:02:01.
