data_PCOD9331635
_publ_section_title
;
Structure prediction by ZEFSAII (Michael W. Deem and Ramdas Pophale) SiO2 
 PCOD9331635
Probable space group: I 2 2 2
;
_chemical_formula_sum "Si O2"
_cell_formula_units_Z 58
_cell_length_a 11.407451
_cell_length_b 15.889170
_cell_length_c 14.663604
_cell_angle_alpha 90.000000
_cell_angle_beta 90.000000
_cell_angle_gamma 90.000000
_cell_volume 2657.850490
_symmetry_space_group_name_H-M "I 2 2 2"
_symmetry_group_IT_number 23
_symmetry_cell_setting 'orthorhombic'
loop_
_space_group_symop_operation_xyz
x,y,z
-x,-y,z
x,-y,-z
-x,y,-z
1/2+x,1/2+y,1/2+z
1/2-x,1/2-y,1/2+z
1/2+x,1/2-y,1/2-z
1/2-x,1/2+y,1/2-z
loop_
_atom_site_type_symbol
_atom_site_label
_atom_site_fract_x
_atom_site_fract_y
_atom_site_fract_z
Si Si1 0.365507 0.346867 0.974310
Si Si2 0.616892 0.896628 0.195410
Si Si3 0.597085 0.436171 0.770740
Si Si4 0.303424 0.017957 0.376753
Si Si5 0.500000 0.000000 0.500000
Si Si6 0.269494 0.534186 0.596245
Si Si7 0.205325 0.214625 0.672346
Si Si8 0.868647 0.313221 0.657107
O O1 0.280777 0.420295 0.935839
O O2 0.377845 0.274201 0.897587
O O3 0.500000 0.373818 0.000000
O O4 0.305111 0.309160 0.065660
O O5 0.630978 0.926982 0.299757
O O6 0.694609 0.814423 0.179989
O O7 0.488902 0.864458 0.168537
O O8 0.668894 0.971830 0.134930
O O9 0.500000 0.500000 0.806489
O O10 0.714686 0.457060 0.826198
O O11 0.625894 0.462466 0.668490
O O12 0.592709 0.335983 0.783067
O O13 0.402817 0.965139 0.430058
O O14 0.307421 0.500000 0.500000
O O15 0.215656 0.627140 0.596976
O O16 0.311162 0.195115 0.742562
#
# Coordination Sequence:
#
# PCOD9331635 Si02
#       8
#     8   8   8   8   2   8   8   8
#     4  12  23  41  69  97 131 174 222 272 322 392
#     4  11  23  41  65  90 135 175 211 276 331 389
#     4  10  23  43  68  92 131 175 219 273 326 393
#     4  11  26  43  65 100 131 171 218 269 336 398
#     4  12  28  44  70  96 134 168 218 278 336 396
#     4  10  23  39  64  98 130 168 221 269 325 397
#     4  11  23  40  63  96 128 167 221 272 330 384
#     4  11  24  41  62  97 133 171 219 272 330 391
#
# _framework density 21.822146
#
# number of rings (size 3 to 8) (size 9 to 14) (size 15 to 20)
#    0.000    1.103    2.759    2.897    7.724    0.828 
#    0.000    1.379    0.000    1.655    0.000    0.000 
#    0.000    0.000    0.000    0.000    0.000    0.000 
#
# Total GULP energy -161785.825635 kJ/mol
# GULP energy per Si atom -5578.821574 kJ/mol
# Density = 2.177248 g / cm^3
# Si number density = 21.822146 Si / 1000 Ang^3
#
#
#
# Elastic Constant Matrix: (Units=GPa)
#
#
# Indices 1 2 3 4 5 6 
#
# 1 67.2481 20.3929 27.8940 0.0000 0.0000 0.0000
# 2 20.3929 82.6118 20.3324 0.0000 0.0000 0.0000
# 3 27.8940 20.3324 135.8108 0.0000 0.0000 0.0000
# 4 0.0000 0.0000 0.0000 34.9398 0.0000 0.0000
# 5 0.0000 0.0000 0.0000 0.0000 19.4127 0.0000
# 6 0.0000 0.0000 0.0000 0.0000 0.0000 16.7940
#
#
#
# Elastic Compliance Matrix: (Units=1/GPa)
#
#
# Indices 1 2 3 4 5 6 
#
# 1 0.017178 -0.003501 -0.003004 0.000000 0.000000 0.000000
# 2 -0.003501 0.013281 -0.001269 0.000000 0.000000 0.000000
# 3 -0.003004 -0.001269 0.008170 0.000000 0.000000 0.000000
# 4 0.000000 0.000000 0.000000 0.028621 0.000000 0.000000
# 5 0.000000 0.000000 0.000000 0.000000 0.051513 0.000000
# 6 0.000000 0.000000 0.000000 0.000000 0.000000 0.059545
#
#
# Mechanical properties :
#
#
# Convention : Reuss Voigt Hill
#
# Bulk Modulus (GPa) = 43.32588 46.98991 45.15790
# Shear Modulus (GPa) = 24.80765 28.69939 26.75352
#
# Velocity S-wave (km/s) = 3.37532 3.63043 3.50520
# Velocity P-wave (km/s) = 5.92348 6.25726 6.09265
#
# Compressibility (1/GPa) = 0.02308089
#
# Stress axis : x y z
#
# Youngs Moduli (GPa) = 58.21386 75.29294 122.39598
#
# Poissons Ratio (x) = 0.26361 0.36768
# Poissons Ratio (y) = 0.20381 0.15536
# Poissons Ratio (z) = 0.17488 0.09557
#
# Static dielectric constant tensor:
#      x y z
#    x 1.838190 0.000000 0.000000 
#    y 0.000000 1.841120 0.000000 
#    z 0.000000 0.000000 1.829980 
# 
# From -- ./inp_files/21009.got.cif
#   From: 2010.05.17/outbox.cif.g08.bks.cpg/sg23_11_cif.got.tgz:21009.got - 2010.06.04 12:02:01.
