data_PCOD9331075
_publ_section_title
;
Structure prediction by ZEFSAII (Michael W. Deem and Ramdas Pophale) SiO2 
 PCOD9331075
Probable space group: I 2 2 2
;
_chemical_formula_sum "Si O2"
_cell_formula_units_Z 48
_cell_length_a 5.428009
_cell_length_b 16.655901
_cell_length_c 22.317522
_cell_angle_alpha 90.000000
_cell_angle_beta 90.000000
_cell_angle_gamma 90.000000
_cell_volume 2017.691021
_symmetry_space_group_name_H-M "I 2 2 2"
_symmetry_group_IT_number 23
_symmetry_cell_setting 'orthorhombic'
loop_
_space_group_symop_operation_xyz
x,y,z
-x,-y,z
x,-y,-z
-x,y,-z
1/2+x,1/2+y,1/2+z
1/2-x,1/2-y,1/2+z
1/2+x,1/2-y,1/2-z
1/2-x,1/2+y,1/2-z
loop_
_atom_site_type_symbol
_atom_site_label
_atom_site_fract_x
_atom_site_fract_y
_atom_site_fract_z
Si Si1 0.110377 0.772290 0.778771
Si Si2 0.502675 0.389170 0.433335
Si Si3 0.678268 0.772397 0.397768
Si Si4 0.752387 0.047130 0.757271
Si Si5 0.249586 0.453463 0.888717
Si Si6 0.992148 0.363762 0.574183
O O1 0.361871 0.723520 0.763229
O O2 0.216253 0.862380 0.781125
O O3 0.975601 0.734526 0.836508
O O4 0.500000 0.419946 0.500000
O O5 0.475753 0.291726 0.437013
O O6 0.761213 0.404444 0.405480
O O7 0.247061 0.412221 0.404751
O O8 0.726085 0.863306 0.414122
O O9 0.939098 0.724118 0.398788
O O10 0.753602 0.053836 0.684047
O O11 0.500000 0.000000 0.772620
O O12 0.000000 0.000000 0.774554
O O13 0.500000 0.500000 0.906330
O O14 0.000000 0.500000 0.905179
O O15 0.000000 0.359758 0.500000
#
# Coordination Sequence:
#
# PCOD9331075 Si02
#       6
#     8   8   8   8   8   8
#     4  12  25  36  56  88 114 142 197 254 288 336
#     4   8  16  29  50  73  98 137 174 228 293 329
#     4  10  22  33  58  76 110 138 192 245 283 324
#     4  10  21  40  55  71 111 156 188 227 289 351
#     4  10  22  34  50  71 101 147 191 224 276 339
#     4   8  16  30  49  73 100 138 175 226 295 333
#
# _framework density 23.789567999999999
#
# number of rings (size 3 to 8) (size 9 to 14) (size 15 to 20)
#    1.000    1.333    1.667    1.000    9.333    0.000 
#    0.000    0.000    0.000    3.000    0.000    0.000 
#    0.000    0.667    0.000    5.167    0.000    1.667 
#
# Total GULP energy -133621.144393 kJ/mol
# GULP energy per Si atom -5567.547683 kJ/mol
# Density = 2.373542 g / cm^3
# Si number density = 23.789568 Si / 1000 Ang^3
#
#
#
# Elastic Constant Matrix: (Units=GPa)
#
#
# Indices 1 2 3 4 5 6 
#
# 1 253.4272 73.6645 12.2264 0.0000 0.0000 0.0000
# 2 73.6645 192.9667 1.3300 0.0000 0.0000 0.0000
# 3 12.2264 1.3300 43.4484 0.0000 0.0000 0.0000
# 4 0.0000 0.0000 0.0000 69.4796 0.0000 0.0000
# 5 0.0000 0.0000 0.0000 0.0000 17.7438 0.0000
# 6 0.0000 0.0000 0.0000 0.0000 0.0000 -398.0534
#
#
#
# Elastic Compliance Matrix: (Units=1/GPa)
#
#
# Indices 1 2 3 4 5 6 
#
# 1 0.004502 -0.001710 -0.001214 0.000000 0.000000 0.000000
# 2 -0.001710 0.005833 0.000303 0.000000 0.000000 0.000000
# 3 -0.001214 0.000303 0.023348 0.000000 0.000000 0.000000
# 4 0.000000 0.000000 0.000000 0.014393 0.000000 0.000000
# 5 0.000000 0.000000 0.000000 0.000000 0.056358 0.000000
# 6 0.000000 0.000000 0.000000 0.000000 0.000000 -0.002512
#
#
# Mechanical properties :
#
#
# Convention : Reuss Voigt Hill
#
# Bulk Modulus (GPa) = 35.16276 73.80935 54.48606
# Shear Modulus (GPa) = 42.86534 -35.32457 3.77038
#
# Velocity S-wave (km/s) = 4.24943 -3.85759 1.26029
# Velocity P-wave (km/s) = 6.23616 3.35439 5.00708
#
# Compressibility (1/GPa) = 0.02843918
#
# Stress axis : x y z
#
# Youngs Moduli (GPa) = 222.14460 171.43894 42.82973
#
# Poissons Ratio (x) = 0.29318 0.05201
# Poissons Ratio (y) = 0.37989 -0.01296
# Poissons Ratio (z) = 0.26977 -0.05189
#
# Static dielectric constant tensor:
#      x y z
#    x 1.986490 0.000000 0.000000 
#    y 0.000000 1.901070 0.000000 
#    z 0.000000 0.000000 2.089140 
# 
# From -- ./inp_files/28942.got.cif
#   From: 2010.05.17/outbox.cif.g08.bks.cpg/sg23_15_cif.got.tgz:28942.got - 2010.06.04 12:02:01.
