data_PCOD9331742
_publ_section_title
;
Structure prediction by ZEFSAII (Michael W. Deem and Ramdas Pophale) SiO2 
 PCOD9331742
Probable space group: I 2 2 2
;
_chemical_formula_sum "Si O2"
_cell_formula_units_Z 36
_cell_length_a 8.267246
_cell_length_b 23.107254
_cell_length_c 8.584556
_cell_angle_alpha 90.000000
_cell_angle_beta 90.000000
_cell_angle_gamma 90.000000
_cell_volume 1639.936518
_symmetry_space_group_name_H-M "I 2 2 2"
_symmetry_group_IT_number 23
_symmetry_cell_setting 'orthorhombic'
loop_
_space_group_symop_operation_xyz
x,y,z
-x,-y,z
x,-y,-z
-x,y,-z
1/2+x,1/2+y,1/2+z
1/2-x,1/2-y,1/2+z
1/2+x,1/2-y,1/2-z
1/2-x,1/2+y,1/2-z
loop_
_atom_site_type_symbol
_atom_site_label
_atom_site_fract_x
_atom_site_fract_y
_atom_site_fract_z
Si Si1 0.000000 0.000000 0.239446
Si Si2 0.000000 0.599974 0.500000
Si Si3 0.185137 0.700463 0.977879
Si Si4 0.277188 0.325113 0.668703
Si Si5 0.929497 0.124503 0.329637
Si Si6 0.231617 0.500000 0.500000
O O1 0.072889 0.944875 0.326245
O O2 0.147743 0.022372 0.132784
O O3 0.876595 0.638219 0.603926
O O4 0.874440 0.552309 0.428988
O O5 0.209499 0.766698 0.929225
O O6 0.263423 0.659882 0.843248
O O7 0.248656 0.692124 0.152403
O O8 0.000000 0.685486 0.000000
O O9 0.453825 0.355390 0.689029
O O10 0.000000 0.139316 0.500000
#
# Coordination Sequence:
#
# PCOD9331742 Si02
#       6
#     4   4   8   8   8   4
#     4  11  21  44  68 100 137 189 236 314 356 440
#     4  11  24  44  68 102 144 191 240 306 356 445
#     4  11  26  43  70 107 140 189 238 301 367 442
#     4  11  25  44  71  99 148 190 235 302 364 437
#     4  10  23  44  68 100 140 188 240 292 372 433
#     4  10  24  40  68 102 136 184 250 290 372 422
#
# _framework density 21.952069999999999
#
# number of rings (size 3 to 8) (size 9 to 14) (size 15 to 20)
#    0.000    1.333    2.222    1.667   10.889    1.778 
#    0.000    0.000    0.000    1.333    0.000    0.000 
#    0.000    0.000    0.000    0.000    0.000    0.000 
#
# Total GULP energy -100276.483022 kJ/mol
# GULP energy per Si atom -5570.915723 kJ/mol
# Density = 2.190211 g / cm^3
# Si number density = 21.952070 Si / 1000 Ang^3
#
#
#
# Elastic Constant Matrix: (Units=GPa)
#
#
# Indices 1 2 3 4 5 6 
#
# 1 142.6146 80.3945 44.6967 -0.0014 0.0000 -0.0001
# 2 80.3945 162.3542 49.2208 -0.0003 0.0000 -0.0001
# 3 44.6967 49.2208 78.2324 -0.0076 0.0012 -0.0013
# 4 -0.0014 -0.0003 -0.0076 -19.6855 -0.0008 -0.0019
# 5 0.0000 0.0000 0.0012 -0.0008 17.9813 0.0000
# 6 -0.0001 -0.0001 -0.0013 -0.0019 0.0000 33.3521
#
#
#
# Elastic Compliance Matrix: (Units=1/GPa)
#
#
# Indices 1 2 3 4 5 6 
#
# 1 0.010386 -0.004132 -0.003334 0.000001 0.000000 0.000000
# 2 -0.004132 0.009255 -0.003462 0.000001 0.000000 0.000000
# 3 -0.003334 -0.003462 0.016866 -0.000006 -0.000001 0.000001
# 4 0.000001 0.000001 -0.000006 -0.050799 -0.000002 -0.000003
# 5 0.000000 0.000000 -0.000001 -0.000002 0.055613 0.000000
# 6 0.000000 0.000000 0.000001 -0.000003 0.000000 0.029983
#
#
# Mechanical properties :
#
#
# Convention : Reuss Voigt Hill
#
# Bulk Modulus (GPa) = 68.25950 81.31391 74.78670
# Shear Modulus (GPa) = 50.99693 20.25552 35.62623
#
# Velocity S-wave (km/s) = 4.82509 3.04092 4.03291
# Velocity P-wave (km/s) = 7.88697 7.03218 7.47181
#
# Compressibility (1/GPa) = 0.01464998
#
# Stress axis : x y z
#
# Youngs Moduli (GPa) = 96.28063 108.04737 59.29238
#
# Poissons Ratio (x) = 0.44648 0.19769
# Poissons Ratio (y) = 0.39786 0.20528
# Poissons Ratio (z) = 0.32102 0.37407
#
# Static dielectric constant tensor:
#      x y z
#    x 2.269600 0.000010 -0.000010 
#    y 0.000010 1.842970 0.000000 
#    z -0.000010 0.000000 1.859480 
# 
# From -- ./inp_files/6749.got.cif
#   From: 2010.05.17/outbox.cif.g08.bks.cpg/sg23_4_cif.got.tgz:6749.got - 2010.06.04 12:02:01.
