data_PCOD9331963
_publ_section_title
;
Structure prediction by ZEFSAII (Michael W. Deem and Ramdas Pophale) SiO2 
 PCOD9331963
Probable space group: I 2 2 2
;
_chemical_formula_sum "Si O2"
_cell_formula_units_Z 22
_cell_length_a 5.631255
_cell_length_b 16.120526
_cell_length_c 11.165919
_cell_angle_alpha 90.000000
_cell_angle_beta 90.000000
_cell_angle_gamma 90.000000
_cell_volume 1013.628646
_symmetry_space_group_name_H-M "I 2 2 2"
_symmetry_group_IT_number 23
_symmetry_cell_setting 'orthorhombic'
loop_
_space_group_symop_operation_xyz
x,y,z
-x,-y,z
x,-y,-z
-x,y,-z
1/2+x,1/2+y,1/2+z
1/2-x,1/2-y,1/2+z
1/2+x,1/2-y,1/2-z
1/2-x,1/2+y,1/2-z
loop_
_atom_site_type_symbol
_atom_site_label
_atom_site_fract_x
_atom_site_fract_y
_atom_site_fract_z
Si Si1 0.000000 0.711857 0.500000
Si Si2 0.500000 0.500000 0.500000
Si Si3 0.752138 0.872211 0.450529
Si Si4 0.850598 0.416586 0.315566
O O1 0.781717 0.776222 0.491682
O O2 0.998409 0.654225 0.616606
O O3 0.656769 0.443580 0.413075
O O4 0.500000 0.903504 0.500000
O O5 0.750931 0.882962 0.308213
O O6 0.000000 0.909471 0.500000
O O7 0.000000 0.500000 0.291392
#
# Coordination Sequence:
#
# PCOD9331963 Si02
#       4
#     4   2   8   8
#     4  10  25  44  74 111 142 202 246 308 371 448
#     4  12  26  44  74 102 148 196 256 306 378 436
#     4  10  28  47  75 108 149 197 245 308 380 448
#     4  12  26  47  73 110 150 195 256 312 375 452
#
# _framework density 21.704201999999999
#
# number of rings (size 3 to 8) (size 9 to 14) (size 15 to 20)
#    1.091    0.000    3.636    0.000   12.727    0.727 
#    0.000    0.000    0.000    0.000    0.000    0.000 
#    0.000    0.000    0.000    0.000    0.000    0.000 
#
# Total GULP energy -61404.514150 kJ/mol
# GULP energy per Si atom -5582.228559 kJ/mol
# Density = 2.165480 g / cm^3
# Si number density = 21.704202 Si / 1000 Ang^3
#
#
#
# Elastic Constant Matrix: (Units=GPa)
#
#
# Indices 1 2 3 4 5 6 
#
# 1 125.2847 11.9029 32.7511 0.0000 0.0000 0.0000
# 2 11.9029 108.7296 8.9149 0.0001 0.0000 0.0000
# 3 32.7511 8.9149 135.9096 0.0002 0.0000 0.0000
# 4 0.0000 0.0001 0.0002 -23.3341 0.0000 -0.0001
# 5 0.0000 0.0000 0.0000 0.0000 44.3131 0.0000
# 6 0.0000 0.0000 0.0000 -0.0001 0.0000 215.9774
#
#
#
# Elastic Compliance Matrix: (Units=1/GPa)
#
#
# Indices 1 2 3 4 5 6 
#
# 1 0.008583 -0.000774 -0.002017 0.000000 0.000000 0.000000
# 2 -0.000774 0.009317 -0.000425 0.000000 0.000000 0.000000
# 3 -0.002017 -0.000425 0.007872 0.000000 0.000000 0.000000
# 4 0.000000 0.000000 0.000000 -0.042856 0.000000 0.000000
# 5 0.000000 0.000000 0.000000 0.000000 0.022567 0.000000
# 6 0.000000 0.000000 0.000000 0.000000 0.000000 0.004630
#
#
# Mechanical properties :
#
#
# Convention : Reuss Voigt Hill
#
# Bulk Modulus (GPa) = 51.70925 53.00686 52.35805
# Shear Modulus (GPa) = 217.47629 68.48163 142.97896
#
# Velocity S-wave (km/s) = 10.02086 5.62323 8.12522
# Velocity P-wave (km/s) = 12.56051 8.16311 10.59252
#
# Compressibility (1/GPa) = 0.01933890
#
# Stress axis : x y z
#
# Youngs Moduli (GPa) = 116.51256 107.33431 127.03502
#
# Poissons Ratio (x) = 0.08309 0.25629
# Poissons Ratio (y) = 0.09020 0.05393
# Poissons Ratio (z) = 0.23506 0.04557
#
# Static dielectric constant tensor:
#      x y z
#    x 1.841940 0.000000 0.000000 
#    y 0.000000 1.853660 0.000000 
#    z 0.000000 0.000000 1.703810 
# 
# From -- ./inp_files/1904.got.cif
#   From: 2010.05.17/outbox.cif.g08.bks.cpg/sg23_1_cif.got.tgz:1904.got - 2010.06.04 12:02:01.
