data_PCOD9331618
_publ_section_title
;
Structure prediction by ZEFSAII (Michael W. Deem and Ramdas Pophale) SiO2 
 PCOD9331618
Probable space group: I 2 2 2
;
_chemical_formula_sum "Si O2"
_cell_formula_units_Z 58
_cell_length_a 5.439061
_cell_length_b 17.937682
_cell_length_c 28.947571
_cell_angle_alpha 90.000000
_cell_angle_beta 90.000000
_cell_angle_gamma 90.000000
_cell_volume 2824.245061
_symmetry_space_group_name_H-M "I 2 2 2"
_symmetry_group_IT_number 23
_symmetry_cell_setting 'orthorhombic'
loop_
_space_group_symop_operation_xyz
x,y,z
-x,-y,z
x,-y,-z
-x,y,-z
1/2+x,1/2+y,1/2+z
1/2-x,1/2-y,1/2+z
1/2+x,1/2-y,1/2-z
1/2-x,1/2+y,1/2-z
loop_
_atom_site_type_symbol
_atom_site_label
_atom_site_fract_x
_atom_site_fract_y
_atom_site_fract_z
Si Si1 0.930527 0.914643 0.803169
Si Si2 0.358927 0.300682 0.628941
Si Si3 0.319772 0.155843 0.380705
Si Si4 0.751395 0.711925 0.525826
Si Si5 0.479045 0.813536 0.198599
Si Si6 0.308241 0.626015 0.936081
Si Si7 0.686377 0.654921 0.778436
Si Si8 0.500000 0.500000 0.000000
O O1 0.676035 0.881048 0.822320
O O2 0.101415 0.873532 0.840485
O O3 0.965389 0.881822 0.750955
O O4 0.000000 0.000000 0.802098
O O5 0.586505 0.242823 0.623968
O O6 0.261610 0.316514 0.578253
O O7 0.148160 0.267339 0.662193
O O8 0.568321 0.120387 0.402863
O O9 0.251860 0.127735 0.329380
O O10 0.072073 0.143199 0.410873
O O11 0.500000 0.691445 0.500000
O O12 0.757427 0.801757 0.532119
O O13 0.000000 0.689144 0.500000
O O14 0.326751 0.744658 0.218903
O O15 0.600941 0.855057 0.241523
O O16 0.341272 0.553515 0.967176
#
# Coordination Sequence:
#
# PCOD9331618 Si02
#       8
#     8   8   8   8   8   8   8   2
#     4  11  25  41  63 100 138 182 225 281 351 418
#     4  10  23  37  67  98 129 172 224 285 340 414
#     4  11  23  42  67 102 128 174 243 288 334 391
#     4  11  22  39  67 102 125 160 224 294 332 387
#     4  11  20  37  67  97 131 182 228 278 339 409
#     4  11  26  42  67  96 134 182 228 290 343 422
#     4  11  20  37  67  96 132 179 231 287 328 413
#     4  12  28  50  68  94 148 194 230 282 376 450
#
# _framework density 20.536460999999999
#
# number of rings (size 3 to 8) (size 9 to 14) (size 15 to 20)
#    0.000    1.103    3.448    4.138    3.862    3.310 
#    1.241    1.379    0.000    0.414    0.000    0.000 
#    0.000    0.000    0.000    0.000    0.000    0.000 
#
# Total GULP energy -161492.006731 kJ/mol
# GULP energy per Si atom -5568.689887 kJ/mol
# Density = 2.048972 g / cm^3
# Si number density = 20.536461 Si / 1000 Ang^3
#
#
#
# Elastic Constant Matrix: (Units=GPa)
#
#
# Indices 1 2 3 4 5 6 
#
# 1 122.6497 23.5943 51.0038 0.0000 0.0000 0.0000
# 2 23.5943 73.3442 32.0065 0.0000 0.0000 0.0000
# 3 51.0038 32.0065 125.5872 0.0000 0.0000 0.0000
# 4 0.0000 0.0000 0.0000 18.4898 0.0000 0.0000
# 5 0.0000 0.0000 0.0000 0.0000 28.1722 0.0000
# 6 0.0000 0.0000 0.0000 0.0000 0.0000 8.6503
#
#
#
# Elastic Compliance Matrix: (Units=1/GPa)
#
#
# Indices 1 2 3 4 5 6 
#
# 1 0.009979 -0.001622 -0.003639 0.000000 0.000000 0.000000
# 2 -0.001622 0.015604 -0.003318 0.000000 0.000000 0.000000
# 3 -0.003639 -0.003318 0.010286 0.000000 0.000000 0.000000
# 4 0.000000 0.000000 0.000000 0.054084 0.000000 0.000000
# 5 0.000000 0.000000 0.000000 0.000000 0.035496 0.000000
# 6 0.000000 0.000000 0.000000 0.000000 0.000000 0.115602
#
#
# Mechanical properties :
#
#
# Convention : Reuss Voigt Hill
#
# Bulk Modulus (GPa) = 53.44597 59.42114 56.43356
# Shear Modulus (GPa) = 18.90742 25.39424 22.15083
#
# Velocity S-wave (km/s) = 3.03756 3.52027 3.28778
# Velocity P-wave (km/s) = 6.19546 6.74687 6.47704
#
# Compressibility (1/GPa) = 0.01871049
#
# Stress axis : x y z
#
# Youngs Moduli (GPa) = 100.21367 64.08582 97.21780
#
# Poissons Ratio (x) = 0.10394 0.35380
# Poissons Ratio (y) = 0.16254 0.32257
# Poissons Ratio (z) = 0.36470 0.21264
#
# Static dielectric constant tensor:
#      x y z
#    x 1.940380 0.000000 0.000000 
#    y 0.000000 1.713280 0.000000 
#    z 0.000000 0.000000 1.773380 
# 
# From -- ./inp_files/29022.got.cif
#   From: 2010.05.17/outbox.cif.g08.bks.cpg/sg23_15_cif.got.tgz:29022.got - 2010.06.04 12:02:01.
