data_PCOD9331719
_publ_section_title
;
Structure prediction by ZEFSAII (Michael W. Deem and Ramdas Pophale) SiO2 
 PCOD9331719
Probable space group: I 2 2 2
;
_chemical_formula_sum "Si O2"
_cell_formula_units_Z 36
_cell_length_a 8.391012
_cell_length_b 8.562169
_cell_length_c 22.291522
_cell_angle_alpha 90.000000
_cell_angle_beta 90.000000
_cell_angle_gamma 90.000000
_cell_volume 1601.540257
_symmetry_space_group_name_H-M "I 2 2 2"
_symmetry_group_IT_number 23
_symmetry_cell_setting 'orthorhombic'
loop_
_space_group_symop_operation_xyz
x,y,z
-x,-y,z
x,-y,-z
-x,y,-z
1/2+x,1/2+y,1/2+z
1/2-x,1/2-y,1/2+z
1/2+x,1/2-y,1/2-z
1/2-x,1/2+y,1/2-z
loop_
_atom_site_type_symbol
_atom_site_label
_atom_site_fract_x
_atom_site_fract_y
_atom_site_fract_z
Si Si1 0.500000 0.000000 0.000000
Si Si2 0.000000 0.500000 0.000000
Si Si3 0.438981 0.165930 0.391772
Si Si4 0.741087 0.149340 0.901821
Si Si5 0.291348 0.139668 0.810636
Si Si6 0.907465 0.158920 0.309573
O O1 0.625416 0.093172 0.956067
O O2 0.891360 0.393994 0.042284
O O3 0.573286 0.298547 0.406312
O O4 0.302588 0.235175 0.351329
O O5 0.500000 0.000000 0.364224
O O6 0.671511 0.305984 0.872825
O O7 0.729146 0.017369 0.849603
O O8 0.210599 0.141375 0.745955
O O9 0.469187 0.199231 0.800449
O O10 0.000000 0.000000 0.311854
#
# Coordination Sequence:
#
# PCOD9331719 Si02
#       6
#     2   2   8   8   8   8
#     4  12  28  48  74 108 160 208 260 298 376 468
#     4   8  24  40  64 102 132 180 234 300 356 432
#     4  10  23  43  69 101 138 185 243 297 372 432
#     4  12  26  48  72 105 148 198 251 303 373 452
#     4  12  24  45  72 107 141 192 241 314 378 447
#     4  12  25  43  70 104 142 184 242 304 381 437
#
# _framework density 22.478361
#
# number of rings (size 3 to 8) (size 9 to 14) (size 15 to 20)
#    0.667    0.000    2.222    6.000    3.111    1.778 
#    0.000    0.000    0.000    0.000    0.000    0.000 
#    0.000    0.000    0.000    0.000    0.000    0.000 
#
# Total GULP energy -100420.794723 kJ/mol
# GULP energy per Si atom -5578.933040 kJ/mol
# Density = 2.242720 g / cm^3
# Si number density = 22.478361 Si / 1000 Ang^3
#
#
#
# Elastic Constant Matrix: (Units=GPa)
#
#
# Indices 1 2 3 4 5 6 
#
# 1 81.2725 26.1373 37.1725 0.0000 0.0000 0.0000
# 2 26.1373 73.9261 15.6519 0.0000 0.0000 0.0000
# 3 37.1725 15.6519 118.8179 0.0000 0.0000 0.0000
# 4 0.0000 0.0000 0.0000 9.1720 0.0000 0.0000
# 5 0.0000 0.0000 0.0000 0.0000 25.0740 0.0000
# 6 0.0000 0.0000 0.0000 0.0000 0.0000 69.0475
#
#
#
# Elastic Compliance Matrix: (Units=1/GPa)
#
#
# Indices 1 2 3 4 5 6 
#
# 1 0.015782 -0.004664 -0.004323 0.000000 0.000000 0.000000
# 2 -0.004664 0.015294 -0.000555 0.000000 0.000000 0.000000
# 3 -0.004323 -0.000555 0.009842 0.000000 0.000000 0.000000
# 4 0.000000 0.000000 0.000000 0.109028 0.000000 0.000000
# 5 0.000000 0.000000 0.000000 0.000000 0.039882 0.000000
# 6 0.000000 0.000000 0.000000 0.000000 0.000000 0.014483
#
#
# Mechanical properties :
#
#
# Convention : Reuss Voigt Hill
#
# Bulk Modulus (GPa) = 45.80478 47.99332 46.89905
# Shear Modulus (GPa) = 21.67578 33.66234 27.66906
#
# Velocity S-wave (km/s) = 3.10868 3.87401 3.51225
# Velocity P-wave (km/s) = 5.77120 6.43489 6.11206
#
# Compressibility (1/GPa) = 0.02183178
#
# Stress axis : x y z
#
# Youngs Moduli (GPa) = 63.36505 65.38608 101.60723
#
# Poissons Ratio (x) = 0.30499 0.43923
# Poissons Ratio (y) = 0.29556 0.05643
# Poissons Ratio (z) = 0.27392 0.03631
#
# Static dielectric constant tensor:
#      x y z
#    x 1.938010 0.000000 0.000000 
#    y 0.000000 2.099620 0.000000 
#    z 0.000000 0.000000 1.758340 
# 
# From -- ./inp_files/25992.got.cif
#   From: 2010.05.17/outbox.cif.g08.bks.cpg/sg23_13_cif.got.tgz:25992.got - 2010.06.04 12:02:01.
