data_PCOD9331112
_publ_section_title
;
Structure prediction by ZEFSAII (Michael W. Deem and Ramdas Pophale) SiO2 
 PCOD9331112
Probable space group: I 2 2 2
;
_chemical_formula_sum "Si O2"
_cell_formula_units_Z 58
_cell_length_a 18.344691
_cell_length_b 6.868157
_cell_length_c 17.031508
_cell_angle_alpha 90.000000
_cell_angle_beta 90.000000
_cell_angle_gamma 90.000000
_cell_volume 2145.871530
_symmetry_space_group_name_H-M "I 2 2 2"
_symmetry_group_IT_number 23
_symmetry_cell_setting 'orthorhombic'
loop_
_space_group_symop_operation_xyz
x,y,z
-x,-y,z
x,-y,-z
-x,y,-z
1/2+x,1/2+y,1/2+z
1/2-x,1/2-y,1/2+z
1/2+x,1/2-y,1/2-z
1/2-x,1/2+y,1/2-z
loop_
_atom_site_type_symbol
_atom_site_label
_atom_site_fract_x
_atom_site_fract_y
_atom_site_fract_z
Si Si1 0.482518 0.730109 0.588083
Si Si2 0.404920 0.577881 0.863335
Si Si3 0.774238 0.349357 0.597420
Si Si4 0.377145 0.194186 0.678111
Si Si5 0.751308 0.807717 0.567309
Si Si6 0.854897 0.842749 0.802030
Si Si7 0.572636 0.868063 0.841328
Si Si8 0.500000 0.500000 0.000000
O O1 0.500000 0.500000 0.588631
O O2 0.500000 0.793333 0.500000
O O3 0.542781 0.821607 0.643142
O O4 0.403624 0.742704 0.627226
O O5 0.322161 0.589993 0.895472
O O6 0.394269 0.693247 0.781864
O O7 0.560839 0.633070 0.839421
O O8 0.449316 0.628569 0.942858
O O9 0.753264 0.573809 0.583694
O O10 0.750106 0.205383 0.527076
O O11 0.729322 0.292328 0.677145
O O12 0.862044 0.369331 0.595998
O O13 0.319211 0.125608 0.614754
O O14 0.360533 0.421982 0.693643
O O15 0.383264 0.089865 0.761116
O O16 0.500000 0.000000 0.850798
#
# Coordination Sequence:
#
# PCOD9331112 Si02
#       8
#     8   8   8   8   8   8   8   2
#     4   9  16  29  56  97 135 179 233 304 377 453
#     4  11  25  43  65  96 138 197 251 314 393 470
#     4  10  21  40  66 102 137 189 240 318 378 462
#     4   9  19  36  63  95 138 183 232 314 380 466
#     4  10  21  41  67  99 140 184 246 302 388 477
#     4   9  19  35  64  97 141 188 248 305 386 479
#     4  11  25  43  65  98 140 185 254 318 392 464
#     4  12  28  40  66  96 134 188 244 316 372 470
#
# _framework density 27.028644
#
# number of rings (size 3 to 8) (size 9 to 14) (size 15 to 20)
#    0.000    2.069    0.000    2.483    6.759    3.310 
#    0.000    1.379    0.000    2.069    0.000    0.000 
#    0.000    0.000    0.000    0.000    0.000    0.000 
#
# Total GULP energy -162026.970101 kJ/mol
# GULP energy per Si atom -5587.136900 kJ/mol
# Density = 2.696713 g / cm^3
# Si number density = 27.028644 Si / 1000 Ang^3
#
#
#
# Elastic Constant Matrix: (Units=GPa)
#
#
# Indices 1 2 3 4 5 6 
#
# 1 184.3611 46.3214 69.6498 0.0000 0.0000 0.0000
# 2 46.3214 144.2486 38.2620 0.0000 0.0000 0.0000
# 3 69.6498 38.2620 144.6813 0.0000 0.0000 0.0000
# 4 0.0000 0.0000 0.0000 6.4264 0.0000 0.0000
# 5 0.0000 0.0000 0.0000 0.0000 43.5372 0.0000
# 6 0.0000 0.0000 0.0000 0.0000 0.0000 11.3589
#
#
#
# Elastic Compliance Matrix: (Units=1/GPa)
#
#
# Indices 1 2 3 4 5 6 
#
# 1 0.006895 -0.001434 -0.002940 0.000000 0.000000 0.000000
# 2 -0.001434 0.007754 -0.001360 0.000000 0.000000 0.000000
# 3 -0.002940 -0.001360 0.008687 0.000000 0.000000 0.000000
# 4 0.000000 0.000000 0.000000 0.155609 0.000000 0.000000
# 5 0.000000 0.000000 0.000000 0.000000 0.022969 0.000000
# 6 0.000000 0.000000 0.000000 0.000000 0.000000 0.088036
#
#
# Mechanical properties :
#
#
# Convention : Reuss Voigt Hill
#
# Bulk Modulus (GPa) = 84.26796 86.86194 85.56495
# Shear Modulus (GPa) = 16.37333 33.53501 24.95417
#
# Velocity S-wave (km/s) = 2.46392 3.52621 3.04180
# Velocity P-wave (km/s) = 6.27212 6.98467 6.63796
#
# Compressibility (1/GPa) = 0.01186691
#
# Stress axis : x y z
#
# Youngs Moduli (GPa) = 145.02731 128.96840 115.11765
#
# Poissons Ratio (x) = 0.18499 0.33845
# Poissons Ratio (y) = 0.20802 0.15657
# Poissons Ratio (z) = 0.42639 0.17540
#
# Static dielectric constant tensor:
#      x y z
#    x 2.111430 0.000000 0.000000 
#    y 0.000000 2.247960 0.000000 
#    z 0.000000 0.000000 2.319110 
# 
# From -- ./inp_files/16929.got.cif
#   From: 2010.05.17/outbox.cif.g08.bks.cpg/sg23_9_cif.got.tgz:16929.got - 2010.06.04 12:02:01.
