data_PCOD9331505
_publ_section_title
;
Structure prediction by ZEFSAII (Michael W. Deem and Ramdas Pophale) SiO2 
 PCOD9331505
Probable space group: I 2 2 2
;
_chemical_formula_sum "Si O2"
_cell_formula_units_Z 36
_cell_length_a 7.669060
_cell_length_b 9.071780
_cell_length_c 24.554861
_cell_angle_alpha 90.000000
_cell_angle_beta 90.000000
_cell_angle_gamma 90.000000
_cell_volume 1708.331406
_symmetry_space_group_name_H-M "I 2 2 2"
_symmetry_group_IT_number 23
_symmetry_cell_setting 'orthorhombic'
loop_
_space_group_symop_operation_xyz
x,y,z
-x,-y,z
x,-y,-z
-x,y,-z
1/2+x,1/2+y,1/2+z
1/2-x,1/2-y,1/2+z
1/2+x,1/2-y,1/2-z
1/2-x,1/2+y,1/2-z
loop_
_atom_site_type_symbol
_atom_site_label
_atom_site_fract_x
_atom_site_fract_y
_atom_site_fract_z
Si Si1 0.208125 0.504834 0.561471
Si Si2 0.000000 0.000000 0.677906
Si Si3 0.910722 0.839539 0.844900
Si Si4 0.234197 0.750691 0.358633
Si Si5 0.836106 0.386271 0.242146
O O1 0.277653 0.500000 0.500000
O O2 0.285363 0.628797 0.603179
O O3 0.245212 0.349293 0.588795
O O4 0.000000 0.500000 0.559922
O O5 0.910290 0.875642 0.640832
O O6 0.161284 0.951624 0.715530
O O7 0.836528 0.773042 0.789191
O O8 0.060622 0.715034 0.853261
O O9 0.000000 0.000000 0.837144
O O10 0.183138 0.652788 0.305706
O O11 0.000000 0.500000 0.237268
#
# Coordination Sequence:
#
# PCOD9331505 Si02
#       5
#     8   4   8   8   8
#     4  10  22  42  69 100 132 179 239 293 341 415
#     4  12  26  40  66 101 145 186 230 284 350 428
#     4  10  23  41  67  99 136 179 231 286 351 413
#     4  11  24  38  66  97 140 179 232 285 348 418
#     4  12  25  41  64  98 143 184 224 283 348 421
#
# _framework density 21.073193
#
# number of rings (size 3 to 8) (size 9 to 14) (size 15 to 20)
#    0.000    1.111    2.222    3.333   12.444    4.000 
#    0.000    0.000    0.000   10.667    0.000    0.000 
#    0.000    0.000    0.000    0.000    0.000    0.000 
#
# Total GULP energy -100267.804915 kJ/mol
# GULP energy per Si atom -5570.433606 kJ/mol
# Density = 2.102523 g / cm^3
# Si number density = 21.073193 Si / 1000 Ang^3
#
#
#
# Elastic Constant Matrix: (Units=GPa)
#
#
# Indices 1 2 3 4 5 6 
#
# 1 114.3678 43.2932 28.2912 0.0000 0.0000 0.0000
# 2 43.2932 78.4297 59.5390 0.0000 0.0000 0.0000
# 3 28.2912 59.5390 154.0789 0.0000 0.0000 0.0000
# 4 0.0000 0.0000 0.0000 -20.6388 0.0000 0.0000
# 5 0.0000 0.0000 0.0000 0.0000 20.3746 0.0000
# 6 0.0000 0.0000 0.0000 0.0000 0.0000 38.2025
#
#
#
# Elastic Compliance Matrix: (Units=1/GPa)
#
#
# Indices 1 2 3 4 5 6 
#
# 1 0.011077 -0.006468 0.000465 0.000000 0.000000 0.000000
# 2 -0.006468 0.021820 -0.007244 0.000000 0.000000 0.000000
# 3 0.000465 -0.007244 0.009204 0.000000 0.000000 0.000000
# 4 0.000000 0.000000 0.000000 -0.048453 0.000000 0.000000
# 5 0.000000 0.000000 0.000000 0.000000 0.049081 0.000000
# 6 0.000000 0.000000 0.000000 0.000000 0.000000 0.026176
#
#
# Mechanical properties :
#
#
# Convention : Reuss Voigt Hill
#
# Bulk Modulus (GPa) = 64.07036 67.68036 65.87536
# Shear Modulus (GPa) = 49.70166 21.97119 35.83643
#
# Velocity S-wave (km/s) = 4.86173 3.23246 4.12827
# Velocity P-wave (km/s) = 7.87306 6.79104 7.35198
#
# Compressibility (1/GPa) = 0.01560784
#
# Stress axis : x y z
#
# Youngs Moduli (GPa) = 90.27777 45.83033 108.64925
#
# Poissons Ratio (x) = 0.29642 -0.05056
# Poissons Ratio (y) = 0.58389 0.78705
# Poissons Ratio (z) = -0.04201 0.33199
#
# Static dielectric constant tensor:
#      x y z
#    x 22.376660 0.000000 0.000000 
#    y 0.000000 1.870380 0.000000 
#    z 0.000000 0.000000 1.809630 
# 
# From -- ./inp_files/25973.got.cif
#   From: 2010.05.17/outbox.cif.g08.bks.cpg/sg23_13_cif.got.tgz:25973.got - 2010.06.04 12:02:01.
