data_PCOD9331972
_publ_section_title
;
Structure prediction by ZEFSAII (Michael W. Deem and Ramdas Pophale) SiO2 
 PCOD9331972
Probable space group: I 2 2 2
;
_chemical_formula_sum "Si O2"
_cell_formula_units_Z 40
_cell_length_a 18.100876
_cell_length_b 5.483672
_cell_length_c 16.958277
_cell_angle_alpha 90.000000
_cell_angle_beta 90.000000
_cell_angle_gamma 90.000000
_cell_volume 1683.266143
_symmetry_space_group_name_H-M "I 2 2 2"
_symmetry_group_IT_number 23
_symmetry_cell_setting 'orthorhombic'
loop_
_space_group_symop_operation_xyz
x,y,z
-x,-y,z
x,-y,-z
-x,y,-z
1/2+x,1/2+y,1/2+z
1/2-x,1/2-y,1/2+z
1/2+x,1/2-y,1/2-z
1/2-x,1/2+y,1/2-z
loop_
_atom_site_type_symbol
_atom_site_label
_atom_site_fract_x
_atom_site_fract_y
_atom_site_fract_z
Si Si1 0.695571 0.910769 0.327825
Si Si2 0.084020 0.249278 0.466763
Si Si3 0.641772 0.771323 0.794636
Si Si4 0.803518 0.755023 0.043592
Si Si5 0.587106 0.502943 0.638984
O O1 0.773176 0.781359 0.316179
O O2 0.637238 0.739459 0.374339
O O3 0.649729 0.970341 0.248986
O O4 0.721314 0.167131 0.368701
O O5 0.116701 0.500000 0.500000
O O6 0.092652 0.257040 0.372841
O O7 0.000000 0.246427 0.500000
O O8 0.119188 0.000000 0.500000
O O9 0.610922 0.597220 0.725935
O O10 0.887149 0.817217 0.068996
O O11 0.792090 0.500000 0.000000
O O12 0.775371 0.000000 0.000000
O O13 0.500000 0.500000 0.638027
#
# Coordination Sequence:
#
# PCOD9331972 Si02
#       5
#     8   8   8   8   8
#     4  11  24  47  75 113 147 208 254 319 393 452
#     4  10  25  46  71 108 149 199 244 306 387 447
#     4  11  25  45  78 107 159 191 265 312 377 478
#     4  11  24  49  73 106 151 189 249 311 380 459
#     4  11  26  46  77 111 143 204 251 316 391 450
#
# _framework density 23.763325999999999
#
# number of rings (size 3 to 8) (size 9 to 14) (size 15 to 20)
#    0.000    1.200    4.000    0.000    5.600    6.000 
#    7.200    0.000    0.000    0.000    0.000    0.000 
#    0.000    0.000    0.000    0.000    0.000    0.000 
#
# Total GULP energy -111455.063537 kJ/mol
# GULP energy per Si atom -5572.753177 kJ/mol
# Density = 2.370924 g / cm^3
# Si number density = 23.763326 Si / 1000 Ang^3
#
#
#
# Elastic Constant Matrix: (Units=GPa)
#
#
# Indices 1 2 3 4 5 6 
#
# 1 147.5021 37.0048 22.1951 0.0000 0.0000 0.0000
# 2 37.0048 150.5951 43.2171 0.0000 0.0000 0.0000
# 3 22.1951 43.2171 124.1293 0.0000 0.0000 0.0000
# 4 0.0000 0.0000 0.0000 64.2669 0.0000 0.0000
# 5 0.0000 0.0000 0.0000 0.0000 15.1847 0.0000
# 6 0.0000 0.0000 0.0000 0.0000 0.0000 6.2132
#
#
#
# Elastic Compliance Matrix: (Units=1/GPa)
#
#
# Indices 1 2 3 4 5 6 
#
# 1 0.007288 -0.001574 -0.000755 0.000000 0.000000 0.000000
# 2 -0.001574 0.007717 -0.002405 0.000000 0.000000 0.000000
# 3 -0.000755 -0.002405 0.009029 0.000000 0.000000 0.000000
# 4 0.000000 0.000000 0.000000 0.015560 0.000000 0.000000
# 5 0.000000 0.000000 0.000000 0.000000 0.065856 0.000000
# 6 0.000000 0.000000 0.000000 0.000000 0.000000 0.160948
#
#
# Mechanical properties :
#
#
# Convention : Reuss Voigt Hill
#
# Bulk Modulus (GPa) = 68.65896 69.67340 69.16618
# Shear Modulus (GPa) = 17.81121 38.45360 28.13241
#
# Velocity S-wave (km/s) = 2.74072 4.02704 3.44446
# Velocity P-wave (km/s) = 6.24267 7.14185 6.70735
#
# Compressibility (1/GPa) = 0.01456474
#
# Stress axis : x y z
#
# Youngs Moduli (GPa) = 137.20988 129.57676 110.75893
#
# Poissons Ratio (x) = 0.20398 0.08363
# Poissons Ratio (y) = 0.21599 0.26642
# Poissons Ratio (z) = 0.10361 0.31169
#
# Static dielectric constant tensor:
#      x y z
#    x 1.907970 0.000000 0.000000 
#    y 0.000000 2.037390 0.000000 
#    z 0.000000 0.000000 2.116710 
# 
# From -- ./inp_files/24964.got.cif
#   From: 2010.05.17/outbox.cif.g08.bks.cpg/sg23_13_cif.got.tgz:24964.got - 2010.06.04 12:02:01.
