data_PCOD9331488
_publ_section_title
;
Structure prediction by ZEFSAII (Michael W. Deem and Ramdas Pophale) SiO2 
 PCOD9331488
Probable space group: I 2 2 2
;
_chemical_formula_sum "Si O2"
_cell_formula_units_Z 26
_cell_length_a 9.040478
_cell_length_b 15.205627
_cell_length_c 9.683164
_cell_angle_alpha 90.000000
_cell_angle_beta 90.000000
_cell_angle_gamma 90.000000
_cell_volume 1331.107143
_symmetry_space_group_name_H-M "I 2 2 2"
_symmetry_group_IT_number 23
_symmetry_cell_setting 'orthorhombic'
loop_
_space_group_symop_operation_xyz
x,y,z
-x,-y,z
x,-y,-z
-x,y,-z
1/2+x,1/2+y,1/2+z
1/2-x,1/2-y,1/2+z
1/2+x,1/2-y,1/2-z
1/2-x,1/2+y,1/2-z
loop_
_atom_site_type_symbol
_atom_site_label
_atom_site_fract_x
_atom_site_fract_y
_atom_site_fract_z
Si Si1 0.161327 0.503657 0.233011
Si Si2 0.327378 0.321275 0.181390
Si Si3 0.000000 0.500000 0.500000
Si Si4 0.326417 0.670916 0.143671
O O1 0.239618 0.408799 0.231223
O O2 0.265604 0.573169 0.162308
O O3 0.000000 0.500000 0.163059
O O4 0.113761 0.539644 0.386744
O O5 0.504208 0.328691 0.194066
O O6 0.265821 0.239754 0.266960
O O7 0.307849 0.307016 0.017526
#
# Coordination Sequence:
#
# PCOD9331488 Si02
#       4
#     8   8   2   8
#     4  10  22  42  66  90 128 166 204 258 319 367
#     4  11  25  42  64  93 129 166 212 262 313 374
#     4   8  24  40  68  92 136 154 208 272 312 368
#     4  11  25  42  64  93 129 166 212 262 313 374
#
# _framework density 19.532613999999999
#
# number of rings (size 3 to 8) (size 9 to 14) (size 15 to 20)
#    0.923    0.615    0.000    3.692    4.308    8.615 
#    0.000    1.538    0.000    0.000    0.000    0.000 
#    0.000    0.000    0.000    0.000    0.000    0.000 
#
# Total GULP energy -72430.152394 kJ/mol
# GULP energy per Si atom -5571.550184 kJ/mol
# Density = 1.948816 g / cm^3
# Si number density = 19.532614 Si / 1000 Ang^3
#
#
#
# Elastic Constant Matrix: (Units=GPa)
#
#
# Indices 1 2 3 4 5 6 
#
# 1 104.0317 17.4153 40.5796 0.0000 0.0000 0.0000
# 2 17.4153 76.4508 1.6816 0.0000 0.0000 0.0000
# 3 40.5796 1.6816 60.5208 0.0001 0.0000 0.0000
# 4 0.0000 0.0000 0.0001 16.9427 0.0000 0.0000
# 5 0.0000 0.0000 0.0000 0.0000 24.5025 0.0000
# 6 0.0000 0.0000 0.0000 0.0000 0.0000 33.1125
#
#
#
# Elastic Compliance Matrix: (Units=1/GPa)
#
#
# Indices 1 2 3 4 5 6 
#
# 1 0.013633 -0.002906 -0.009060 0.000000 0.000000 0.000000
# 2 -0.002906 0.013708 0.001568 0.000000 0.000000 0.000000
# 3 -0.009060 0.001568 0.022555 0.000000 0.000000 0.000000
# 4 0.000000 0.000000 0.000000 0.059022 0.000000 0.000000
# 5 0.000000 0.000000 0.000000 0.000000 0.040812 0.000000
# 6 0.000000 0.000000 0.000000 0.000000 0.000000 0.030200
#
#
# Mechanical properties :
#
#
# Convention : Reuss Voigt Hill
#
# Bulk Modulus (GPa) = 34.36658 40.03957 37.20307
# Shear Modulus (GPa) = 23.76117 27.00001 25.38059
#
# Velocity S-wave (km/s) = 3.49160 3.72197 3.60862
# Velocity P-wave (km/s) = 5.82131 6.24612 6.03746
#
# Compressibility (1/GPa) = 0.02909804
#
# Stress axis : x y z
#
# Youngs Moduli (GPa) = 73.35062 72.95079 44.33661
#
# Poissons Ratio (x) = 0.21202 0.40171
# Poissons Ratio (y) = 0.21318 -0.06951
# Poissons Ratio (z) = 0.66458 -0.11437
#
# Static dielectric constant tensor:
#      x y z
#    x 1.673730 0.000000 0.000000 
#    y 0.000000 1.633750 0.000000 
#    z 0.000000 0.000000 1.729530 
# 
# From -- ./inp_files/9196.got.cif
#   From: 2010.05.17/outbox.cif.g08.bks.cpg/sg23_5_cif.got.tgz:9196.got - 2010.06.04 12:02:01.
