data_PCOD9331182
_publ_section_title
;
Structure prediction by ZEFSAII (Michael W. Deem and Ramdas Pophale) SiO2 
 PCOD9331182
Probable space group: I 2 2 2
;
_chemical_formula_sum "Si O2"
_cell_formula_units_Z 58
_cell_length_a 12.067634
_cell_length_b 8.716652
_cell_length_c 25.786287
_cell_angle_alpha 90.000000
_cell_angle_beta 90.000000
_cell_angle_gamma 90.000000
_cell_volume 2712.443182
_symmetry_space_group_name_H-M "I 2 2 2"
_symmetry_group_IT_number 23
_symmetry_cell_setting 'orthorhombic'
loop_
_space_group_symop_operation_xyz
x,y,z
-x,-y,z
x,-y,-z
-x,y,-z
1/2+x,1/2+y,1/2+z
1/2-x,1/2-y,1/2+z
1/2+x,1/2-y,1/2-z
1/2-x,1/2+y,1/2-z
loop_
_atom_site_type_symbol
_atom_site_label
_atom_site_fract_x
_atom_site_fract_y
_atom_site_fract_z
Si Si1 0.360063 0.554027 0.594379
Si Si2 0.826835 0.429628 0.841783
Si Si3 0.449239 0.240079 0.315467
Si Si4 0.500000 0.500000 0.500000
Si Si5 0.078334 0.853722 0.299314
Si Si6 0.229202 0.274504 0.062699
Si Si7 0.481640 0.684834 0.907791
Si Si8 0.175985 0.659820 0.533294
O O1 0.417692 0.621834 0.645036
O O2 0.427813 0.593468 0.541575
O O3 0.335972 0.373129 0.585534
O O4 0.239888 0.625400 0.586472
O O5 0.871891 0.597109 0.830245
O O6 0.704453 0.394722 0.817958
O O7 0.818646 0.412870 0.904169
O O8 0.922552 0.312968 0.821682
O O9 0.421785 0.273920 0.255935
O O10 0.016442 0.768767 0.347154
O O11 0.000000 0.000000 0.291293
O O12 0.358389 0.269010 0.077066
O O13 0.245021 0.268882 0.001344
O O14 0.500000 0.500000 0.909994
O O15 0.563872 0.763805 0.947893
O O16 0.165426 0.500000 0.500000
#
# Coordination Sequence:
#
# PCOD9331182 Si02
#       8
#     8   8   8   2   8   8   8   8
#     4  11  24  38  70  96 137 182 230 284 351 432
#     4  10  25  47  66 102 146 172 242 297 352 441
#     4  11  26  44  73 101 136 192 233 299 364 426
#     4  12  20  44  56  96 128 172 228 278 338 422
#     4  10  25  43  73 102 136 185 239 298 366 431
#     4  10  21  42  63  99 137 183 226 287 347 434
#     4  10  23  42  68  99 143 185 233 298 365 431
#     4  10  22  41  65 105 140 185 236 290 355 435
#
# _framework density 21.382935
#
# number of rings (size 3 to 8) (size 9 to 14) (size 15 to 20)
#    0.000    1.655    2.069    1.241   10.621    6.069 
#    0.000    8.276    0.000    0.000    0.000    0.000 
#    0.000    0.000    0.000    0.000    0.000    0.000 
#
# Total GULP energy -161575.111505 kJ/mol
# GULP energy per Si atom -5571.555569 kJ/mol
# Density = 2.133427 g / cm^3
# Si number density = 21.382935 Si / 1000 Ang^3
#
#
#
# Elastic Constant Matrix: (Units=GPa)
#
#
# Indices 1 2 3 4 5 6 
#
# 1 127.8415 49.8152 48.6202 0.0000 0.0000 0.0000
# 2 49.8152 52.3678 50.0218 0.0000 0.0000 0.0000
# 3 48.6202 50.0218 128.1307 0.0000 0.0000 0.0000
# 4 0.0000 0.0000 0.0000 32.9513 0.0000 0.0000
# 5 0.0000 0.0000 0.0000 0.0000 62.4919 0.0000
# 6 0.0000 0.0000 0.0000 0.0000 0.0000 33.1656
#
#
#
# Elastic Compliance Matrix: (Units=1/GPa)
#
#
# Indices 1 2 3 4 5 6 
#
# 1 0.012431 -0.011672 -0.000160 0.000000 0.000000 0.000000
# 2 -0.011672 0.041411 -0.011737 0.000000 0.000000 0.000000
# 3 -0.000160 -0.011737 0.012448 0.000000 0.000000 0.000000
# 4 0.000000 0.000000 0.000000 0.030348 0.000000 0.000000
# 5 0.000000 0.000000 0.000000 0.000000 0.016002 0.000000
# 6 0.000000 0.000000 0.000000 0.000000 0.000000 0.030152
#
#
# Mechanical properties :
#
#
# Convention : Reuss Voigt Hill
#
# Bulk Modulus (GPa) = 52.22065 67.25050 59.73557
# Shear Modulus (GPa) = 25.46930 36.38061 30.92495
#
# Velocity S-wave (km/s) = 3.45498 4.12926 3.80708
# Velocity P-wave (km/s) = 6.35535 7.36568 6.87909
#
# Compressibility (1/GPa) = 0.01914951
#
# Stress axis : x y z
#
# Youngs Moduli (GPa) = 80.44102 24.14838 80.33648
#
# Poissons Ratio (x) = 0.28187 0.01289
# Poissons Ratio (y) = 0.93893 0.94294
# Poissons Ratio (z) = 0.01290 0.28344
#
# Static dielectric constant tensor:
#      x y z
#    x 1.841130 0.000000 0.000000 
#    y 0.000000 1.718390 0.000000 
#    z 0.000000 0.000000 1.828020 
# 
# From -- ./inp_files/29480.got.cif
#   From: 2010.05.17/outbox.cif.g08.bks.cpg/sg23_15_cif.got.tgz:29480.got - 2010.06.04 12:02:01.
