data_PCOD9331900
_publ_section_title
;
Structure prediction by ZEFSAII (Michael W. Deem and Ramdas Pophale) SiO2 
 PCOD9331900
Probable space group: I 2 2 2
;
_chemical_formula_sum "Si O2"
_cell_formula_units_Z 52
_cell_length_a 25.934239
_cell_length_b 5.832873
_cell_length_c 16.373744
_cell_angle_alpha 90.000000
_cell_angle_beta 90.000000
_cell_angle_gamma 90.000000
_cell_volume 2476.874633
_symmetry_space_group_name_H-M "I 2 2 2"
_symmetry_group_IT_number 23
_symmetry_cell_setting 'orthorhombic'
loop_
_space_group_symop_operation_xyz
x,y,z
-x,-y,z
x,-y,-z
-x,y,-z
1/2+x,1/2+y,1/2+z
1/2-x,1/2-y,1/2+z
1/2+x,1/2-y,1/2-z
1/2-x,1/2+y,1/2-z
loop_
_atom_site_type_symbol
_atom_site_label
_atom_site_fract_x
_atom_site_fract_y
_atom_site_fract_z
Si Si1 0.417328 0.794951 0.556203
Si Si2 0.000000 0.500000 0.227843
Si Si3 0.000000 0.000000 0.867598
Si Si4 0.806398 0.185101 0.060711
Si Si5 0.193721 0.798568 0.344657
Si Si6 0.193221 0.130991 0.210643
Si Si7 0.724338 0.500000 0.000000
Si Si8 0.112238 0.522229 0.236281
O O1 0.451365 0.571676 0.576968
O O2 0.360830 0.746945 0.519936
O O3 0.404074 0.880630 0.647494
O O4 0.440570 0.000000 0.500000
O O5 0.993194 0.752707 0.180231
O O6 0.945233 0.496978 0.274354
O O7 0.816746 0.076783 0.148270
O O8 0.765185 0.385010 0.062355
O O9 0.782187 0.000000 0.000000
O O10 0.249470 0.706972 0.314620
O O11 0.192428 0.830173 0.442099
O O12 0.148687 0.655544 0.300326
O O13 0.190859 0.046603 0.302933
O O14 0.147623 0.311752 0.206833
#
# Coordination Sequence:
#
# PCOD9331900 Si02
#       8
#     8   4   4   8   8   8   4   8
#     4  11  22  42  67  95 135 187 242 296 348 418
#     4  10  24  46  73  96 141 184 252 302 352 426
#     4  10  24  46  63  98 140 189 244 300 348 405
#     4  12  22  38  61  90 135 181 230 274 346 425
#     4  12  24  40  65  98 143 176 236 283 366 436
#     4  12  22  39  65  98 137 187 224 293 351 438
#     4  12  26  40  60 102 140 180 216 292 360 442
#     4  11  24  43  65  98 132 182 237 293 354 422
#
# _framework density 20.994198999999998
#
# number of rings (size 3 to 8) (size 9 to 14) (size 15 to 20)
#    0.000    0.615    5.385    3.692    2.154    1.231 
#    0.000   15.769    0.000    0.000    0.000    3.231 
#    0.000    0.000    0.000    0.000    0.000    0.000 
#
# Total GULP energy -144806.358125 kJ/mol
# GULP energy per Si atom -5569.475313 kJ/mol
# Density = 2.094642 g / cm^3
# Si number density = 20.994199 Si / 1000 Ang^3
#
#
#
# Elastic Constant Matrix: (Units=GPa)
#
#
# Indices 1 2 3 4 5 6 
#
# 1 159.4336 58.1285 45.6042 0.0000 0.0000 0.0000
# 2 58.1285 91.4705 33.4895 0.0000 0.0000 0.0000
# 3 45.6042 33.4895 77.1311 0.0000 0.0000 0.0000
# 4 0.0000 0.0000 0.0000 31.0739 0.0000 0.0000
# 5 0.0000 0.0000 0.0000 0.0000 16.1288 0.0000
# 6 0.0000 0.0000 0.0000 0.0000 0.0000 45.9064
#
#
#
# Elastic Compliance Matrix: (Units=1/GPa)
#
#
# Indices 1 2 3 4 5 6 
#
# 1 0.008820 -0.004394 -0.003307 0.000000 0.000000 0.000000
# 2 -0.004394 0.015188 -0.003996 0.000000 0.000000 0.000000
# 3 -0.003307 -0.003996 0.016655 0.000000 0.000000 0.000000
# 4 0.000000 0.000000 0.000000 0.032181 0.000000 0.000000
# 5 0.000000 0.000000 0.000000 0.000000 0.062001 0.000000
# 6 0.000000 0.000000 0.000000 0.000000 0.000000 0.021783
#
#
# Mechanical properties :
#
#
# Convention : Reuss Voigt Hill
#
# Bulk Modulus (GPa) = 57.90942 66.94216 62.42579
# Shear Modulus (GPa) = 26.91331 31.34268 29.12799
#
# Velocity S-wave (km/s) = 3.58430 3.86803 3.72886
# Velocity P-wave (km/s) = 6.69127 7.20445 6.95259
#
# Compressibility (1/GPa) = 0.01726835
#
# Stress axis : x y z
#
# Youngs Moduli (GPa) = 113.37444 65.84029 60.04046
#
# Poissons Ratio (x) = 0.28933 0.19856
# Poissons Ratio (y) = 0.49822 0.23994
# Poissons Ratio (z) = 0.37493 0.26312
#
# Static dielectric constant tensor:
#      x y z
#    x 1.909450 0.000000 0.000000 
#    y 0.000000 1.952780 0.000000 
#    z 0.000000 0.000000 1.837200 
# 
# From -- ./inp_files/25428.got.cif
#   From: 2010.05.17/outbox.cif.g08.bks.cpg/sg23_13_cif.got.tgz:25428.got - 2010.06.04 12:02:01.
