data_PCOD9331796
_publ_section_title
;
Structure prediction by ZEFSAII (Michael W. Deem and Ramdas Pophale) SiO2 
 PCOD9331796
Probable space group: I 2 2 2
;
_chemical_formula_sum "Si O2"
_cell_formula_units_Z 44
_cell_length_a 7.301315
_cell_length_b 15.034102
_cell_length_c 18.900393
_cell_angle_alpha 90.000000
_cell_angle_beta 90.000000
_cell_angle_gamma 90.000000
_cell_volume 2074.671842
_symmetry_space_group_name_H-M "I 2 2 2"
_symmetry_group_IT_number 23
_symmetry_cell_setting 'orthorhombic'
loop_
_space_group_symop_operation_xyz
x,y,z
-x,-y,z
x,-y,-z
-x,y,-z
1/2+x,1/2+y,1/2+z
1/2-x,1/2-y,1/2+z
1/2+x,1/2-y,1/2-z
1/2-x,1/2+y,1/2-z
loop_
_atom_site_type_symbol
_atom_site_label
_atom_site_fract_x
_atom_site_fract_y
_atom_site_fract_z
Si Si1 0.500000 0.000000 0.500000
Si Si2 0.962147 0.287126 0.581633
Si Si3 0.733231 0.890280 0.403264
Si Si4 0.000000 0.000000 0.500000
Si Si5 0.794294 0.157618 0.193968
Si Si6 0.788167 0.472043 0.250939
Si Si7 0.800832 0.209191 0.822264
O O1 0.453980 0.076946 0.439308
O O2 0.814047 0.207666 0.588112
O O3 0.857516 0.356481 0.632853
O O4 0.000000 0.310525 0.500000
O O5 0.156228 0.260490 0.617955
O O6 0.750087 0.926895 0.324519
O O7 0.870985 0.944116 0.451790
O O8 0.722412 0.225695 0.254503
O O9 0.982497 0.200083 0.164283
O O10 0.822667 0.061979 0.231267
O O11 0.755479 0.391860 0.304780
O O12 0.000000 0.500000 0.250411
#
# Coordination Sequence:
#
# PCOD9331796 Si02
#       7
#     2   8   8   2   8   8   8
#     4  10  24  38  64 102 144 190 240 282 370 460
#     4  12  27  47  69 106 148 191 240 307 375 441
#     4  11  23  41  63 101 142 188 230 297 363 451
#     4  10  24  38  56  98 148 180 222 278 388 438
#     4  12  25  44  75 104 141 193 242 306 368 438
#     4  12  23  43  73 102 136 185 246 306 361 435
#     4  12  25  46  70 106 140 185 252 304 365 443
#
# _framework density 21.208172000000001
#
# number of rings (size 3 to 8) (size 9 to 14) (size 15 to 20)
#    0.000    0.364    7.273    0.545    5.091    2.182 
#    0.000    1.818    0.000    2.182    0.000    0.000 
#    0.000    0.000    0.000    0.000    0.000    0.000 
#
# Total GULP energy -122602.757152 kJ/mol
# GULP energy per Si atom -5572.852598 kJ/mol
# Density = 2.115990 g / cm^3
# Si number density = 21.208172 Si / 1000 Ang^3
#
#
#
# Elastic Constant Matrix: (Units=GPa)
#
#
# Indices 1 2 3 4 5 6 
#
# 1 61.2211 -7.8669 35.7650 0.0000 0.0000 0.0000
# 2 -7.8669 69.0049 -6.5550 0.0000 0.0000 0.0000
# 3 35.7650 -6.5550 107.1941 0.0000 0.0000 0.0000
# 4 0.0000 0.0000 0.0000 25.2852 0.0000 0.0000
# 5 0.0000 0.0000 0.0000 0.0000 32.0242 0.0000
# 6 0.0000 0.0000 0.0000 0.0000 0.0000 38.0128
#
#
#
# Elastic Compliance Matrix: (Units=1/GPa)
#
#
# Indices 1 2 3 4 5 6 
#
# 1 0.020484 0.001696 -0.006731 0.000000 0.000000 0.000000
# 2 0.001696 0.014717 0.000334 0.000000 0.000000 0.000000
# 3 -0.006731 0.000334 0.011595 0.000000 0.000000 0.000000
# 4 0.000000 0.000000 0.000000 0.039549 0.000000 0.000000
# 5 0.000000 0.000000 0.000000 0.000000 0.031226 0.000000
# 6 0.000000 0.000000 0.000000 0.000000 0.000000 0.026307
#
#
# Mechanical properties :
#
#
# Convention : Reuss Voigt Hill
#
# Bulk Modulus (GPa) = 26.74188 31.12293 28.93241
# Shear Modulus (GPa) = 30.16689 33.46958 31.81824
#
# Velocity S-wave (km/s) = 3.77559 3.97690 3.87755
# Velocity P-wave (km/s) = 5.62524 5.98285 5.80680
#
# Compressibility (1/GPa) = 0.03739453
#
# Stress axis : x y z
#
# Youngs Moduli (GPa) = 48.81797 67.94953 86.24394
#
# Poissons Ratio (x) = -0.11524 0.58049
# Poissons Ratio (y) = -0.08279 -0.02881
# Poissons Ratio (z) = 0.32858 -0.02270
#
# Static dielectric constant tensor:
#      x y z
#    x 1.897320 0.000000 0.000000 
#    y 0.000000 1.785570 0.000000 
#    z 0.000000 0.000000 1.765070 
# 
# From -- ./inp_files/23712.got.cif
#   From: 2010.05.17/outbox.cif.g08.bks.cpg/sg23_12_cif.got.tgz:23712.got - 2010.06.04 12:02:01.
