data_PCOD9331405
_publ_section_title
;
Structure prediction by ZEFSAII (Michael W. Deem and Ramdas Pophale) SiO2 
 PCOD9331405
Probable space group: I 2 2 2
;
_chemical_formula_sum "Si O2"
_cell_formula_units_Z 64
_cell_length_a 9.181242
_cell_length_b 13.736921
_cell_length_c 23.670632
_cell_angle_alpha 90.000000
_cell_angle_beta 90.000000
_cell_angle_gamma 90.000000
_cell_volume 2985.387355
_symmetry_space_group_name_H-M "I 2 2 2"
_symmetry_group_IT_number 23
_symmetry_cell_setting 'orthorhombic'
loop_
_space_group_symop_operation_xyz
x,y,z
-x,-y,z
x,-y,-z
-x,y,-z
1/2+x,1/2+y,1/2+z
1/2-x,1/2-y,1/2+z
1/2+x,1/2-y,1/2-z
1/2-x,1/2+y,1/2-z
loop_
_atom_site_type_symbol
_atom_site_label
_atom_site_fract_x
_atom_site_fract_y
_atom_site_fract_z
Si Si1 0.919432 0.700069 0.261324
Si Si2 0.815983 0.915950 0.607618
Si Si3 0.083146 0.090681 0.859588
Si Si4 0.388191 0.626487 0.770612
Si Si5 0.580010 0.902314 0.873217
Si Si6 0.539381 0.197351 0.365245
Si Si7 0.071092 0.794542 0.557373
Si Si8 0.861813 0.588243 0.953807
O O1 0.975528 0.803643 0.283918
O O2 0.989005 0.681399 0.200770
O O3 0.749468 0.696008 0.244832
O O4 0.954461 0.618859 0.307339
O O5 0.847061 0.939359 0.674722
O O6 0.704496 0.825067 0.615686
O O7 0.730989 0.990480 0.564962
O O8 0.969370 0.881612 0.581735
O O9 0.082995 0.082492 0.790990
O O10 0.248367 0.083887 0.877875
O O11 0.010759 0.192815 0.876423
O O12 0.000000 0.000000 0.884456
O O13 0.557314 0.798183 0.902425
O O14 0.500000 0.000000 0.892824
O O15 0.443716 0.119437 0.397550
O O16 0.232348 0.832901 0.540943
O O17 0.000000 0.761521 0.500000
O O18 0.000000 0.592103 0.000000
#
# Coordination Sequence:
#
# PCOD9331405 Si02
#       8
#     8   8   8   8   8   8   8   8
#     4   9  19  37  61  93 137 170 220 279 338 401
#     4  11  23  38  65  96 129 176 222 276 347 411
#     4  10  22  40  64  98 139 176 223 278 342 412
#     4   9  19  36  57  96 129 178 219 270 341 403
#     4  11  24  41  69  97 130 183 224 276 344 411
#     4  10  23  42  65  98 139 176 225 287 337 413
#     4  12  25  46  65  96 134 165 225 288 334 402
#     4  12  25  45  67  98 133 178 227 282 349 403
#
# _framework density 21.437756
#
# number of rings (size 3 to 8) (size 9 to 14) (size 15 to 20)
#    0.000    1.500    3.750    0.750    1.750    6.250 
#    0.000    0.000    0.000    0.000    0.000    0.000 
#    0.000    0.000    0.000    0.000    0.000    0.000 
#
# Total GULP energy -178238.932332 kJ/mol
# GULP energy per Si atom -5569.966635 kJ/mol
# Density = 2.138896 g / cm^3
# Si number density = 21.437756 Si / 1000 Ang^3
#
#
#
# Elastic Constant Matrix: (Units=GPa)
#
#
# Indices 1 2 3 4 5 6 
#
# 1 90.3248 65.9306 22.7841 0.0000 0.0000 0.0000
# 2 65.9306 105.7787 37.4109 0.0000 0.0000 0.0000
# 3 22.7841 37.4109 61.9214 0.0000 0.0000 0.0000
# 4 0.0000 0.0000 0.0000 14.5275 0.0000 0.0000
# 5 0.0000 0.0000 0.0000 0.0000 23.4083 0.0000
# 6 0.0000 0.0000 0.0000 0.0000 0.0000 33.8912
#
#
#
# Elastic Compliance Matrix: (Units=1/GPa)
#
#
# Indices 1 2 3 4 5 6 
#
# 1 0.020315 -0.012741 0.000223 0.000000 0.000000 0.000000
# 2 -0.012741 0.020013 -0.007403 0.000000 0.000000 0.000000
# 3 0.000223 -0.007403 0.020540 0.000000 0.000000 0.000000
# 4 0.000000 0.000000 0.000000 0.068835 0.000000 0.000000
# 5 0.000000 0.000000 0.000000 0.000000 0.042720 0.000000
# 6 0.000000 0.000000 0.000000 0.000000 0.000000 0.029506
#
#
# Mechanical properties :
#
#
# Convention : Reuss Voigt Hill
#
# Bulk Modulus (GPa) = 47.56104 56.69735 52.12919
# Shear Modulus (GPa) = 20.09803 23.15870 21.62836
#
# Velocity S-wave (km/s) = 3.06519 3.29032 3.17975
# Velocity P-wave (km/s) = 5.89585 6.39842 6.15227
#
# Compressibility (1/GPa) = 0.02102561
#
# Stress axis : x y z
#
# Youngs Moduli (GPa) = 49.22515 49.96695 48.68448
#
# Poissons Ratio (x) = 0.63662 -0.01084
# Poissons Ratio (y) = 0.62717 0.36043
# Poissons Ratio (z) = -0.01096 0.36992
#
# Static dielectric constant tensor:
#      x y z
#    x 1.827370 0.000000 0.000000 
#    y 0.000000 1.938670 0.000000 
#    z 0.000000 0.000000 1.839070 
# 
# From -- ./inp_files/28095.got.cif
#   From: 2010.05.17/outbox.cif.g08.bks.cpg/sg23_15_cif.got.tgz:28095.got - 2010.06.04 12:02:01.
