data_PCOD9331083
_publ_section_title
;
Structure prediction by ZEFSAII (Michael W. Deem and Ramdas Pophale) SiO2 
 PCOD9331083
Probable space group: I 2 2 2
;
_chemical_formula_sum "Si O2"
_cell_formula_units_Z 56
_cell_length_a 8.207025
_cell_length_b 17.022915
_cell_length_c 18.353054
_cell_angle_alpha 90.000000
_cell_angle_beta 90.000000
_cell_angle_gamma 90.000000
_cell_volume 2564.059089
_symmetry_space_group_name_H-M "I 2 2 2"
_symmetry_group_IT_number 23
_symmetry_cell_setting 'orthorhombic'
loop_
_space_group_symop_operation_xyz
x,y,z
-x,-y,z
x,-y,-z
-x,y,-z
1/2+x,1/2+y,1/2+z
1/2-x,1/2-y,1/2+z
1/2+x,1/2-y,1/2-z
1/2-x,1/2+y,1/2-z
loop_
_atom_site_type_symbol
_atom_site_label
_atom_site_fract_x
_atom_site_fract_y
_atom_site_fract_z
Si Si1 0.202626 0.831975 0.570065
Si Si2 0.350908 0.612398 0.769949
Si Si3 0.894939 0.578956 0.651276
Si Si4 0.298592 0.161733 0.883169
Si Si5 0.214483 0.069925 0.295087
Si Si6 0.310665 0.697720 0.914925
Si Si7 0.319347 0.632928 0.466708
O O1 0.269220 0.748346 0.599005
O O2 0.251938 0.899741 0.624851
O O3 0.248147 0.849830 0.486873
O O4 0.007338 0.814147 0.576568
O O5 0.290019 0.629704 0.688539
O O6 0.547009 0.613781 0.772393
O O7 0.309097 0.523199 0.791468
O O8 0.277467 0.668032 0.833221
O O9 0.845691 0.589053 0.734475
O O10 0.737823 0.576400 0.598521
O O11 0.000000 0.500000 0.642881
O O12 0.010692 0.652432 0.633136
O O13 0.283634 0.117608 0.960304
O O14 0.230161 0.781888 0.933763
O O15 0.500000 0.629110 0.500000
#
# Coordination Sequence:
#
# PCOD9331083 Si02
#       7
#     8   8   8   8   8   8   8
#     4   9  19  37  64  92 125 167 220 268 328 402
#     4  10  21  40  61  91 134 168 215 277 331 392
#     4  12  24  43  64  91 131 175 220 269 338 408
#     4  11  22  40  62  90 126 170 214 276 337 395
#     4  10  22  38  60  94 127 170 222 268 326 400
#     4   9  19  39  63  93 127 166 212 273 332 394
#     4  11  24  43  65  96 128 168 223 279 339 410
#
# _framework density 21.84037
#
# number of rings (size 3 to 8) (size 9 to 14) (size 15 to 20)
#    0.000    1.714    2.857    1.286    2.000    1.714 
#    5.143    3.571    0.000    0.000    0.000    0.000 
#    0.000    0.000    0.000    0.000    0.000    0.000 
#
# Total GULP energy -156133.989799 kJ/mol
# GULP energy per Si atom -5576.213921 kJ/mol
# Density = 2.179066 g / cm^3
# Si number density = 21.840370 Si / 1000 Ang^3
#
#
#
# Elastic Constant Matrix: (Units=GPa)
#
#
# Indices 1 2 3 4 5 6 
#
# 1 48.7453 2.8102 15.6505 0.0000 0.0000 0.0000
# 2 2.8102 36.7228 39.5669 0.0000 0.0000 0.0000
# 3 15.6505 39.5669 123.5827 0.0000 0.0000 0.0000
# 4 0.0000 0.0000 0.0000 35.8051 0.0000 0.0000
# 5 0.0000 0.0000 0.0000 0.0000 31.5241 0.0000
# 6 0.0000 0.0000 0.0000 0.0000 0.0000 18.9110
#
#
#
# Elastic Compliance Matrix: (Units=1/GPa)
#
#
# Indices 1 2 3 4 5 6 
#
# 1 0.021477 0.001965 -0.003349 0.000000 0.000000 0.000000
# 2 0.001965 0.041751 -0.013616 0.000000 0.000000 0.000000
# 3 -0.003349 -0.013616 0.012875 0.000000 0.000000 0.000000
# 4 0.000000 0.000000 0.000000 0.027929 0.000000 0.000000
# 5 0.000000 0.000000 0.000000 0.000000 0.031722 0.000000
# 6 0.000000 0.000000 0.000000 0.000000 0.000000 0.052879
#
#
# Mechanical properties :
#
#
# Convention : Reuss Voigt Hill
#
# Bulk Modulus (GPa) = 21.69064 36.12287 28.90676
# Shear Modulus (GPa) = 21.36737 27.31624 24.34181
#
# Velocity S-wave (km/s) = 3.13124 3.54039 3.34208
# Velocity P-wave (km/s) = 4.79853 5.76957 5.30631
#
# Compressibility (1/GPa) = 0.04610283
#
# Stress axis : x y z
#
# Youngs Moduli (GPa) = 46.56201 23.95130 77.66829
#
# Poissons Ratio (x) = -0.04706 0.26010
# Poissons Ratio (y) = -0.09148 1.05754
# Poissons Ratio (z) = 0.15593 0.32612
#
# Static dielectric constant tensor:
#      x y z
#    x 1.855830 0.000000 0.000000 
#    y 0.000000 1.850070 0.000000 
#    z 0.000000 0.000000 1.790380 
# 
# From -- ./inp_files/20199.got.cif
#   From: 2010.05.17/outbox.cif.g08.bks.cpg/sg23_11_cif.got.tgz:20199.got - 2010.06.04 12:02:01.
