data_PCOD9331015
_publ_section_title
;
Structure prediction by ZEFSAII (Michael W. Deem and Ramdas Pophale) SiO2 
 PCOD9331015
Probable space group: I 2 2 2
;
_chemical_formula_sum "Si O2"
_cell_formula_units_Z 64
_cell_length_a 14.551195
_cell_length_b 9.393632
_cell_length_c 20.501494
_cell_angle_alpha 90.000000
_cell_angle_beta 90.000000
_cell_angle_gamma 90.000000
_cell_volume 2802.319918
_symmetry_space_group_name_H-M "I 2 2 2"
_symmetry_group_IT_number 23
_symmetry_cell_setting 'orthorhombic'
loop_
_space_group_symop_operation_xyz
x,y,z
-x,-y,z
x,-y,-z
-x,y,-z
1/2+x,1/2+y,1/2+z
1/2-x,1/2-y,1/2+z
1/2+x,1/2-y,1/2-z
1/2-x,1/2+y,1/2-z
loop_
_atom_site_type_symbol
_atom_site_label
_atom_site_fract_x
_atom_site_fract_y
_atom_site_fract_z
Si Si1 0.629847 0.448508 0.810060
Si Si2 0.133606 0.894901 0.559333
Si Si3 0.351238 0.958267 0.298129
Si Si4 0.511808 0.330759 0.574170
Si Si5 0.662289 0.867733 0.179335
Si Si6 0.880731 0.159527 0.802281
Si Si7 0.102102 0.563383 0.564258
Si Si8 0.144906 0.414411 0.933688
O O1 0.602764 0.543044 0.871482
O O2 0.740461 0.454012 0.801430
O O3 0.614116 0.284816 0.830503
O O4 0.596395 0.525028 0.743487
O O5 0.101796 0.732335 0.555757
O O6 0.245295 0.895521 0.560651
O O7 0.106809 0.000000 0.500000
O O8 0.386526 0.811914 0.266720
O O9 0.373062 0.085475 0.250094
O O10 0.380987 0.987017 0.372013
O O11 0.500000 0.500000 0.567999
O O12 0.500000 0.276541 0.500000
O O13 0.441218 0.313020 0.633691
O O14 0.604134 0.240393 0.586987
O O15 0.772987 0.851221 0.179097
O O16 0.644978 0.993699 0.128358
O O17 0.151225 0.500000 0.500000
O O18 0.000000 0.500000 0.565252
O O19 0.117163 0.500000 0.000000
#
# Coordination Sequence:
#
# PCOD9331015 Si02
#       8
#     8   8   8   8   8   8   8   8
#     4   9  19  37  64  96 130 165 225 282 338 413
#     4  10  21  42  73 103 133 176 231 284 351 426
#     4   9  19  36  63  94 124 168 226 286 336 407
#     4  11  26  41  57  94 142 178 235 288 346 414
#     4  10  21  40  67  95 129 174 229 286 350 421
#     4  10  21  39  63  91 131 183 228 281 356 406
#     4  11  25  44  65  96 134 167 218 282 355 421
#     4  10  22  41  68  98 136 185 235 287 350 415
#
# _framework density 22.838218999999999
#
# number of rings (size 3 to 8) (size 9 to 14) (size 15 to 20)
#    0.000    2.000    0.000    2.250    3.500    6.750 
#    4.500    4.375    0.000    0.000    0.000    0.000 
#    0.000    0.000    0.000    0.000    0.000    0.000 
#
# Total GULP energy -178359.841346 kJ/mol
# GULP energy per Si atom -5573.745042 kJ/mol
# Density = 2.278624 g / cm^3
# Si number density = 22.838219 Si / 1000 Ang^3
#
#
#
# Elastic Constant Matrix: (Units=GPa)
#
#
# Indices 1 2 3 4 5 6 
#
# 1 73.9163 42.2370 31.5124 0.0000 0.0000 0.0000
# 2 42.2370 168.9277 52.4010 0.0000 0.0000 0.0000
# 3 31.5124 52.4010 143.1346 0.0000 0.0000 0.0000
# 4 0.0000 0.0000 0.0000 36.2000 0.0000 0.0000
# 5 0.0000 0.0000 0.0000 0.0000 10.8705 0.0000
# 6 0.0000 0.0000 0.0000 0.0000 0.0000 24.5780
#
#
#
# Elastic Compliance Matrix: (Units=1/GPa)
#
#
# Indices 1 2 3 4 5 6 
#
# 1 0.016479 -0.003378 -0.002391 0.000000 0.000000 0.000000
# 2 -0.003378 0.007371 -0.001955 0.000000 0.000000 0.000000
# 3 -0.002391 -0.001955 0.008228 0.000000 0.000000 0.000000
# 4 0.000000 0.000000 0.000000 0.027624 0.000000 0.000000
# 5 0.000000 0.000000 0.000000 0.000000 0.091992 0.000000
# 6 0.000000 0.000000 0.000000 0.000000 0.000000 0.040687
#
#
# Mechanical properties :
#
#
# Convention : Reuss Voigt Hill
#
# Bulk Modulus (GPa) = 60.13390 70.91992 65.52691
# Shear Modulus (GPa) = 23.43323 31.65159 27.54241
#
# Velocity S-wave (km/s) = 3.20668 3.72681 3.47649
# Velocity P-wave (km/s) = 6.33229 7.04553 6.69841
#
# Compressibility (1/GPa) = 0.01662955
#
# Stress axis : x y z
#
# Youngs Moduli (GPa) = 60.68437 135.67199 121.52996
#
# Poissons Ratio (x) = 0.45836 0.29059
# Poissons Ratio (y) = 0.20502 0.23754
# Poissons Ratio (z) = 0.14510 0.26518
#
# Static dielectric constant tensor:
#      x y z
#    x 1.917350 0.000000 0.000000 
#    y 0.000000 1.830620 0.000000 
#    z 0.000000 0.000000 1.896340 
# 
# From -- ./inp_files/27185.got.cif
#   From: 2010.05.17/outbox.cif.g08.bks.cpg/sg23_14_cif.got.tgz:27185.got - 2010.06.04 12:02:01.
