data_PCOD9331787
_publ_section_title
;
Structure prediction by ZEFSAII (Michael W. Deem and Ramdas Pophale) SiO2 
 PCOD9331787
Probable space group: I 2 2 2
;
_chemical_formula_sum "Si O2"
_cell_formula_units_Z 56
_cell_length_a 19.789202
_cell_length_b 15.682975
_cell_length_c 7.674916
_cell_angle_alpha 90.000000
_cell_angle_beta 90.000000
_cell_angle_gamma 90.000000
_cell_volume 2381.937505
_symmetry_space_group_name_H-M "I 2 2 2"
_symmetry_group_IT_number 23
_symmetry_cell_setting 'orthorhombic'
loop_
_space_group_symop_operation_xyz
x,y,z
-x,-y,z
x,-y,-z
-x,y,-z
1/2+x,1/2+y,1/2+z
1/2-x,1/2-y,1/2+z
1/2+x,1/2-y,1/2-z
1/2-x,1/2+y,1/2-z
loop_
_atom_site_type_symbol
_atom_site_label
_atom_site_fract_x
_atom_site_fract_y
_atom_site_fract_z
Si Si1 0.175461 0.250421 0.954572
Si Si2 0.966884 0.775907 0.814996
Si Si3 0.159774 0.575827 0.862439
Si Si4 0.207518 0.017010 0.795334
Si Si5 0.690697 0.666909 0.822438
Si Si6 0.523012 0.091106 0.198456
Si Si7 0.414939 0.591818 0.914384
O O1 0.152378 0.341003 0.024612
O O2 0.172678 0.190658 0.124192
O O3 0.114938 0.228892 0.824671
O O4 0.251478 0.267085 0.885315
O O5 0.974137 0.852863 0.676429
O O6 0.996302 0.681601 0.772679
O O7 0.000000 0.800036 0.000000
O O8 0.231640 0.575311 0.768652
O O9 0.103082 0.583165 0.715757
O O10 0.150685 0.500000 0.000000
O O11 0.138263 0.058565 0.732879
O O12 0.220028 0.928534 0.693074
O O13 0.209016 0.000000 0.000000
O O14 0.627402 0.652650 0.951132
O O15 0.500000 0.000000 0.280531
O O16 0.500000 0.091233 0.000000
O O17 0.431623 0.500000 0.000000
#
# Coordination Sequence:
#
# PCOD9331787 Si02
#       7
#     8   8   8   8   8   8   8
#     4  12  24  40  68 107 142 189 232 296 358 430
#     4  12  26  45  73 107 146 192 245 303 361 436
#     4  12  23  44  69 101 147 192 237 285 365 431
#     4  11  23  41  72 106 142 185 233 298 365 432
#     4  11  24  42  69 103 145 180 236 295 361 432
#     4  11  28  47  67 102 148 200 249 293 350 433
#     4  10  23  48  74 104 141 185 239 307 374 430
#
# _framework density 23.510270999999999
#
# number of rings (size 3 to 8) (size 9 to 14) (size 15 to 20)
#    0.000    0.714    4.286    3.000    6.000    0.000 
#    0.000    0.000    0.000   24.000    0.000    0.000 
#    0.000    0.000    0.000    0.000    0.000    0.000 
#
# Total GULP energy -156511.527373 kJ/mol
# GULP energy per Si atom -5589.697406 kJ/mol
# Density = 2.345676 g / cm^3
# Si number density = 23.510271 Si / 1000 Ang^3
#
#
#
# Elastic Constant Matrix: (Units=GPa)
#
#
# Indices 1 2 3 4 5 6 
#
# 1 71.3317 11.2222 32.6528 0.0000 0.0000 0.0000
# 2 11.2222 144.7301 24.1355 0.0000 0.0000 0.0000
# 3 32.6528 24.1355 94.5034 0.0000 0.0000 0.0000
# 4 0.0000 0.0000 0.0000 39.5715 0.0000 0.0000
# 5 0.0000 0.0000 0.0000 0.0000 -29.8231 0.0000
# 6 0.0000 0.0000 0.0000 0.0000 0.0000 18.0933
#
#
#
# Elastic Compliance Matrix: (Units=1/GPa)
#
#
# Indices 1 2 3 4 5 6 
#
# 1 0.016670 -0.000347 -0.005671 0.000000 0.000000 0.000000
# 2 -0.000347 0.007224 -0.001725 0.000000 0.000000 0.000000
# 3 -0.005671 -0.001725 0.012982 0.000000 0.000000 0.000000
# 4 0.000000 0.000000 0.000000 0.025271 0.000000 0.000000
# 5 0.000000 0.000000 0.000000 0.000000 -0.033531 0.000000
# 6 0.000000 0.000000 0.000000 0.000000 0.000000 0.055269
#
#
# Mechanical properties :
#
#
# Convention : Reuss Voigt Hill
#
# Bulk Modulus (GPa) = 46.75260 49.62070 48.18665
# Shear Modulus (GPa) = 46.94840 21.73864 34.34352
#
# Velocity S-wave (km/s) = 4.47355 3.04410 3.82617
# Velocity P-wave (km/s) = 6.82735 5.78854 6.32929
#
# Compressibility (1/GPa) = 0.02138918
#
# Stress axis : x y z
#
# Youngs Moduli (GPa) = 59.98947 138.42764 77.03156
#
# Poissons Ratio (x) = 0.04801 0.43685
# Poissons Ratio (y) = 0.02081 0.13289
# Poissons Ratio (z) = 0.34021 0.23881
#
# Static dielectric constant tensor:
#      x y z
#    x 1.921710 0.000000 0.000000 
#    y 0.000000 1.924540 0.000000 
#    z 0.000000 0.000000 1.849720 
# 
# From -- ./inp_files/12063.got.cif
#   From: 2010.05.17/outbox.cif.g08.bks.cpg/sg23_7_cif.got.tgz:12063.got - 2010.06.04 12:02:01.
