data_PCOD9331917
_publ_section_title
;
Structure prediction by ZEFSAII (Michael W. Deem and Ramdas Pophale) SiO2 
 PCOD9331917
Probable space group: I 2 2 2
;
_chemical_formula_sum "Si O2"
_cell_formula_units_Z 40
_cell_length_a 4.997835
_cell_length_b 11.114077
_cell_length_c 26.765196
_cell_angle_alpha 90.000000
_cell_angle_beta 90.000000
_cell_angle_gamma 90.000000
_cell_volume 1486.708223
_symmetry_space_group_name_H-M "I 2 2 2"
_symmetry_group_IT_number 23
_symmetry_cell_setting 'orthorhombic'
loop_
_space_group_symop_operation_xyz
x,y,z
-x,-y,z
x,-y,-z
-x,y,-z
1/2+x,1/2+y,1/2+z
1/2-x,1/2-y,1/2+z
1/2+x,1/2-y,1/2-z
1/2-x,1/2+y,1/2-z
loop_
_atom_site_type_symbol
_atom_site_label
_atom_site_fract_x
_atom_site_fract_y
_atom_site_fract_z
Si Si1 0.742653 0.340292 0.418258
Si Si2 0.637971 0.372686 0.736636
Si Si3 0.552672 0.131593 0.316318
Si Si4 0.500000 0.000000 0.000000
Si Si5 0.500000 0.000000 0.500000
Si Si6 0.000000 0.500000 0.664648
Si Si7 0.756229 0.320564 0.081143
O O1 0.825729 0.414178 0.465967
O O2 0.440222 0.297682 0.425052
O O3 0.795287 0.428600 0.371745
O O4 0.949493 0.225125 0.414549
O O5 0.500000 0.500000 0.726561
O O6 0.529972 0.249309 0.714241
O O7 0.638805 0.362937 0.797638
O O8 0.890327 0.396295 0.700261
O O9 0.400158 0.130217 0.368570
O O10 0.500000 0.000000 0.294084
O O11 0.679651 0.086092 0.536215
#
# Coordination Sequence:
#
# PCOD9331917 Si02
#       7
#     8   8   8   2   2   4   8
#     4  11  26  46  76 107 148 189 254 320 389 460
#     4  12  26  47  75 110 157 201 263 324 398 468
#     4  12  26  47  73 114 150 207 256 319 385 481
#     4  10  24  46  76 110 136 186 244 320 382 448
#     4  12  28  52  76 106 152 212 260 326 394 468
#     4  11  24  44  74 108 150 200 250 327 396 460
#     4  12  27  48  73 108 151 201 256 317 386 469
#
# _framework density 26.905078
#
# number of rings (size 3 to 8) (size 9 to 14) (size 15 to 20)
#    0.000    0.400    4.000    3.600    2.800    6.400 
#    0.000    0.000    0.000    0.000    0.000    0.000 
#    0.000    0.000    0.000    0.000    0.000    0.000 
#
# Total GULP energy -111675.799601 kJ/mol
# GULP energy per Si atom -5583.789980 kJ/mol
# Density = 2.684384 g / cm^3
# Si number density = 26.905078 Si / 1000 Ang^3
#
#
#
# Elastic Constant Matrix: (Units=GPa)
#
#
# Indices 1 2 3 4 5 6 
#
# 1 60.4920 13.9889 10.0993 0.0000 0.0000 0.0000
# 2 13.9889 142.2235 42.9433 0.0000 0.0000 0.0000
# 3 10.0993 42.9433 164.4612 0.0000 0.0000 0.0000
# 4 0.0000 0.0000 0.0000 39.1754 0.0000 0.0000
# 5 0.0000 0.0000 0.0000 0.0000 20.1414 0.0000
# 6 0.0000 0.0000 0.0000 0.0000 0.0000 36.2956
#
#
#
# Elastic Compliance Matrix: (Units=1/GPa)
#
#
# Indices 1 2 3 4 5 6 
#
# 1 0.016981 -0.001471 -0.000659 0.000000 0.000000 0.000000
# 2 -0.001471 0.007760 -0.001936 0.000000 0.000000 0.000000
# 3 -0.000659 -0.001936 0.006626 0.000000 0.000000 0.000000
# 4 0.000000 0.000000 0.000000 0.025526 0.000000 0.000000
# 5 0.000000 0.000000 0.000000 0.000000 0.049649 0.000000
# 6 0.000000 0.000000 0.000000 0.000000 0.000000 0.027552
#
#
# Mechanical properties :
#
#
# Convention : Reuss Voigt Hill
#
# Bulk Modulus (GPa) = 43.03628 55.69330 49.36479
# Shear Modulus (GPa) = 33.33948 39.13216 36.23582
#
# Velocity S-wave (km/s) = 3.52398 3.81787 3.67386
# Velocity P-wave (km/s) = 5.70861 6.33874 6.03191
#
# Compressibility (1/GPa) = 0.02323621
#
# Stress axis : x y z
#
# Youngs Moduli (GPa) = 58.88820 128.85803 150.91090
#
# Poissons Ratio (x) = 0.18960 0.09939
# Poissons Ratio (y) = 0.08665 0.29217
# Poissons Ratio (z) = 0.03878 0.24947
#
# Static dielectric constant tensor:
#      x y z
#    x 2.300640 0.000000 0.000000 
#    y 0.000000 2.031620 0.000000 
#    z 0.000000 0.000000 2.205800 
# 
# From -- ./inp_files/28883.got.cif
#   From: 2010.05.17/outbox.cif.g08.bks.cpg/sg23_15_cif.got.tgz:28883.got - 2010.06.04 12:02:01.
