data_PCOD9331316
_publ_section_title
;
Structure prediction by ZEFSAII (Michael W. Deem and Ramdas Pophale) SiO2 
 PCOD9331316
Probable space group: I 2 2 2
;
_chemical_formula_sum "Si O2"
_cell_formula_units_Z 64
_cell_length_a 17.193128
_cell_length_b 23.191257
_cell_length_c 7.248693
_cell_angle_alpha 90.000000
_cell_angle_beta 90.000000
_cell_angle_gamma 90.000000
_cell_volume 2890.273173
_symmetry_space_group_name_H-M "I 2 2 2"
_symmetry_group_IT_number 23
_symmetry_cell_setting 'orthorhombic'
loop_
_space_group_symop_operation_xyz
x,y,z
-x,-y,z
x,-y,-z
-x,y,-z
1/2+x,1/2+y,1/2+z
1/2-x,1/2-y,1/2+z
1/2+x,1/2-y,1/2-z
1/2-x,1/2+y,1/2-z
loop_
_atom_site_type_symbol
_atom_site_label
_atom_site_fract_x
_atom_site_fract_y
_atom_site_fract_z
Si Si1 0.870619 0.670013 0.327054
Si Si2 0.342932 0.782563 0.584240
Si Si3 0.533580 0.875636 0.301527
Si Si4 0.670153 0.290714 0.099052
Si Si5 0.538003 0.640901 0.704377
Si Si6 0.870929 0.843168 0.764492
Si Si7 0.162669 0.936081 0.924535
Si Si8 0.334335 0.064964 0.074889
O O1 0.854039 0.725499 0.454308
O O2 0.832188 0.613080 0.412731
O O3 0.959458 0.649434 0.305876
O O4 0.842885 0.695410 0.129140
O O5 0.409919 0.821900 0.666473
O O6 0.257760 0.790689 0.673180
O O7 0.364458 0.716297 0.620403
O O8 0.500000 0.896367 0.500000
O O9 0.590144 0.920595 0.198719
O O10 0.600974 0.312841 0.229188
O O11 0.675101 0.331533 0.921605
O O12 0.500000 0.649638 0.500000
O O13 0.457592 0.643801 0.811689
O O14 0.589452 0.583087 0.698694
O O15 0.843277 0.893302 0.899605
O O16 0.248249 0.930219 0.834128
O O17 0.154233 0.000000 0.000000
O O18 0.341096 0.000000 0.000000
#
# Coordination Sequence:
#
# PCOD9331316 Si02
#       8
#     8   8   8   8   8   8   8   8
#     4  11  23  39  60  90 126 166 207 258 320 380
#     4  11  22  39  62  92 129 165 209 261 320 383
#     4  10  23  41  62  90 126 163 205 258 319 382
#     4  12  22  37  63  93 128 165 208 263 322 382
#     4  10  22  38  60  88 122 162 206 255 317 382
#     4  11  23  38  60  93 127 163 210 261 319 385
#     4  10  22  42  66  89 119 163 211 260 316 378
#     4  11  23  42  66  91 120 161 214 262 312 380
#
# _framework density 22.143236000000002
#
# number of rings (size 3 to 8) (size 9 to 14) (size 15 to 20)
#    0.000    1.250    0.000    6.750    0.000    7.250 
#    0.000    5.000    0.000   10.500    0.000    0.000 
#    0.000    0.000    0.000    0.000    0.000    0.000 
#
# Total GULP energy -178611.376666 kJ/mol
# GULP energy per Si atom -5581.605521 kJ/mol
# Density = 2.209284 g / cm^3
# Si number density = 22.143236 Si / 1000 Ang^3
#
#
#
# Elastic Constant Matrix: (Units=GPa)
#
#
# Indices 1 2 3 4 5 6 
#
# 1 203.3080 43.1825 18.9140 0.0000 0.0000 0.0000
# 2 43.1825 138.8109 15.1146 0.0000 0.0000 0.0000
# 3 18.9140 15.1146 43.7976 0.0000 0.0000 0.0000
# 4 0.0000 0.0000 0.0000 17.1819 0.0000 0.0000
# 5 0.0000 0.0000 0.0000 0.0000 322.1014 0.0000
# 6 0.0000 0.0000 0.0000 0.0000 0.0000 29.2635
#
#
#
# Elastic Compliance Matrix: (Units=1/GPa)
#
#
# Indices 1 2 3 4 5 6 
#
# 1 0.005403 -0.001482 -0.001822 0.000000 0.000000 0.000000
# 2 -0.001482 0.007892 -0.002083 0.000000 0.000000 0.000000
# 3 -0.001822 -0.002083 0.024338 0.000000 0.000000 0.000000
# 4 0.000000 0.000000 0.000000 0.058201 0.000000 0.000000
# 5 0.000000 0.000000 0.000000 0.000000 0.003105 0.000000
# 6 0.000000 0.000000 0.000000 0.000000 0.000000 0.034172
#
#
# Mechanical properties :
#
#
# Convention : Reuss Voigt Hill
#
# Bulk Modulus (GPa) = 37.23283 60.03763 48.63523
# Shear Modulus (GPa) = 32.71434 94.28975 63.50204
#
# Velocity S-wave (km/s) = 3.84786 6.53255 5.36098
# Velocity P-wave (km/s) = 6.04917 9.16903 7.76735
#
# Compressibility (1/GPa) = 0.02685802
#
# Stress axis : x y z
#
# Youngs Moduli (GPa) = 185.08265 126.70952 41.08807
#
# Poissons Ratio (x) = 0.18784 0.07485
# Poissons Ratio (y) = 0.27438 0.08560
# Poissons Ratio (z) = 0.33716 0.26398
#
# Static dielectric constant tensor:
#      x y z
#    x 1.847680 0.000000 0.000000 
#    y 0.000000 1.755370 0.000000 
#    z 0.000000 0.000000 1.948230 
# 
# From -- ./inp_files/11412.got.cif
#   From: 2010.05.17/outbox.cif.g08.bks.cpg/sg23_6_cif.got.tgz:11412.got - 2010.06.04 12:02:01.
