data_PCOD9331831
_publ_section_title
;
Structure prediction by ZEFSAII (Michael W. Deem and Ramdas Pophale) SiO2 
 PCOD9331831
Probable space group: I 2 2 2
;
_chemical_formula_sum "Si O2"
_cell_formula_units_Z 38
_cell_length_a 25.130586
_cell_length_b 11.208106
_cell_length_c 5.944388
_cell_angle_alpha 90.000000
_cell_angle_beta 90.000000
_cell_angle_gamma 90.000000
_cell_volume 1674.333606
_symmetry_space_group_name_H-M "I 2 2 2"
_symmetry_group_IT_number 23
_symmetry_cell_setting 'orthorhombic'
loop_
_space_group_symop_operation_xyz
x,y,z
-x,-y,z
x,-y,-z
-x,y,-z
1/2+x,1/2+y,1/2+z
1/2-x,1/2-y,1/2+z
1/2+x,1/2-y,1/2-z
1/2-x,1/2+y,1/2-z
loop_
_atom_site_type_symbol
_atom_site_label
_atom_site_fract_x
_atom_site_fract_y
_atom_site_fract_z
Si Si1 0.442032 0.620632 0.608768
Si Si2 0.818966 0.134592 0.528944
Si Si3 0.880169 0.308233 0.833905
Si Si4 0.500000 0.500000 0.000000
Si Si5 0.130514 0.500000 0.500000
Si Si6 0.797538 0.331279 0.193567
O O1 0.416597 0.500000 0.500000
O O2 0.500000 0.633111 0.500000
O O3 0.412220 0.740934 0.532940
O O4 0.460052 0.584693 0.858482
O O5 0.864279 0.207471 0.655982
O O6 0.805386 0.198404 0.292371
O O7 0.764307 0.139913 0.671587
O O8 0.835094 0.000000 0.500000
O O9 0.900722 0.420385 0.686278
O O10 0.825668 0.348519 0.954195
O O11 0.169842 0.587650 0.366251
#
# Coordination Sequence:
#
# PCOD9331831 Si02
#       6
#     8   8   8   2   4   8
#     4   9  21  41  66  99 137 169 216 281 347 404
#     4  11  24  37  60  93 130 174 226 276 326 390
#     4  11  23  41  66  95 133 180 220 275 331 408
#     4   8  18  40  68  94 140 174 206 284 360 404
#     4  10  24  42  64  89 132 180 223 266 344 386
#     4  11  23  40  60  89 131 179 223 275 325 384
#
# _framework density 22.695596999999999
#
# number of rings (size 3 to 8) (size 9 to 14) (size 15 to 20)
#    0.000    1.895    2.105    1.895    5.895    6.737 
#    1.895    0.000    0.000    3.789    0.000    0.000 
#    0.000    0.000    0.000    0.000    0.000    0.000 
#
# Total GULP energy -106064.683401 kJ/mol
# GULP energy per Si atom -5582.351758 kJ/mol
# Density = 2.264394 g / cm^3
# Si number density = 22.695597 Si / 1000 Ang^3
#
#
#
# Elastic Constant Matrix: (Units=GPa)
#
#
# Indices 1 2 3 4 5 6 
#
# 1 49.2384 20.4886 18.1788 0.0000 0.0000 0.0000
# 2 20.4886 133.0960 44.3616 0.0000 0.0000 0.0000
# 3 18.1788 44.3616 102.3770 0.0000 0.0000 0.0000
# 4 0.0000 0.0000 0.0000 46.3911 0.0000 0.0000
# 5 0.0000 0.0000 0.0000 0.0000 24.0340 0.0000
# 6 0.0000 0.0000 0.0000 0.0000 0.0000 19.3164
#
#
#
# Elastic Compliance Matrix: (Units=1/GPa)
#
#
# Indices 1 2 3 4 5 6 
#
# 1 0.022415 -0.002482 -0.002904 0.000000 0.000000 0.000000
# 2 -0.002482 0.009057 -0.003484 0.000000 0.000000 0.000000
# 3 -0.002904 -0.003484 0.011793 0.000000 0.000000 0.000000
# 4 0.000000 0.000000 0.000000 0.021556 0.000000 0.000000
# 5 0.000000 0.000000 0.000000 0.000000 0.041608 0.000000
# 6 0.000000 0.000000 0.000000 0.000000 0.000000 0.051769
#
#
# Mechanical properties :
#
#
# Convention : Reuss Voigt Hill
#
# Bulk Modulus (GPa) = 39.17968 50.08548 44.63258
# Shear Modulus (GPa) = 27.10821 31.39379 29.25100
#
# Velocity S-wave (km/s) = 3.45980 3.72325 3.59394
# Velocity P-wave (km/s) = 5.76722 6.37179 6.07703
#
# Compressibility (1/GPa) = 0.02552344
#
# Stress axis : x y z
#
# Youngs Moduli (GPa) = 44.61375 110.41662 84.79578
#
# Poissons Ratio (x) = 0.27410 0.24628
# Poissons Ratio (y) = 0.11075 0.29539
# Poissons Ratio (z) = 0.12958 0.38465
#
# Static dielectric constant tensor:
#      x y z
#    x 1.834490 0.000000 0.000000 
#    y 0.000000 1.901200 0.000000 
#    z 0.000000 0.000000 1.937350 
# 
# From -- ./inp_files/4772.got.cif
#   From: 2010.05.17/outbox.cif.g08.bks.cpg/sg23_3_cif.got.tgz:4772.got - 2010.06.04 12:02:01.
