data_PCOD9331694
_publ_section_title
;
Structure prediction by ZEFSAII (Michael W. Deem and Ramdas Pophale) SiO2 
 PCOD9331694
Probable space group: I 2 2 2
;
_chemical_formula_sum "Si O2"
_cell_formula_units_Z 52
_cell_length_a 8.762148
_cell_length_b 16.922675
_cell_length_c 16.849208
_cell_angle_alpha 90.000000
_cell_angle_beta 90.000000
_cell_angle_gamma 90.000000
_cell_volume 2498.383425
_symmetry_space_group_name_H-M "I 2 2 2"
_symmetry_group_IT_number 23
_symmetry_cell_setting 'orthorhombic'
loop_
_space_group_symop_operation_xyz
x,y,z
-x,-y,z
x,-y,-z
-x,y,-z
1/2+x,1/2+y,1/2+z
1/2-x,1/2-y,1/2+z
1/2+x,1/2-y,1/2-z
1/2-x,1/2+y,1/2-z
loop_
_atom_site_type_symbol
_atom_site_label
_atom_site_fract_x
_atom_site_fract_y
_atom_site_fract_z
Si Si1 0.947675 0.192587 0.208809
Si Si2 0.411193 0.584680 0.149880
Si Si3 0.000000 0.818272 0.500000
Si Si4 0.599021 0.162148 0.929367
Si Si5 0.883343 0.670060 0.273963
Si Si6 0.887828 0.066775 0.891307
Si Si7 0.819561 0.499496 0.248373
O O1 0.008802 0.145461 0.287893
O O2 0.035833 0.274782 0.211021
O O3 0.000938 0.133978 0.141222
O O4 0.770465 0.212459 0.197530
O O5 0.500000 0.500000 0.150254
O O6 0.418807 0.626851 0.064935
O O7 0.242744 0.558751 0.180561
O O8 0.892812 0.755231 0.547528
O O9 0.504762 0.156351 0.846069
O O10 0.756637 0.115869 0.934244
O O11 0.500000 0.125687 0.000000
O O12 0.807033 0.592755 0.235161
O O13 0.788990 0.024190 0.821486
O O14 0.000000 0.000000 0.922783
O O15 0.000000 0.500000 0.265082
#
# Coordination Sequence:
#
# PCOD9331694 Si02
#       7
#     8   8   4   8   8   8   8
#     4  11  22  35  66  98 134 170 225 293 347 405
#     4  11  21  41  66 100 132 179 228 284 343 416
#     4  10  23  42  68  97 134 188 234 260 355 432
#     4  10  23  42  67  92 136 182 228 274 347 433
#     4  12  21  39  62  98 136 171 227 284 351 404
#     4  11  21  41  66  96 135 170 229 290 349 418
#     4  11  22  37  67 103 133 166 225 298 353 396
#
# _framework density 20.813459000000002
#
# number of rings (size 3 to 8) (size 9 to 14) (size 15 to 20)
#    0.462    0.615    6.154    2.077    2.154    0.000 
#    0.000    2.308    6.769    3.692    0.000    0.000 
#    0.000    0.000    0.000    0.000    0.000    0.000 
#
# Total GULP energy -144777.266156 kJ/mol
# GULP energy per Si atom -5568.356391 kJ/mol
# Density = 2.076609 g / cm^3
# Si number density = 20.813459 Si / 1000 Ang^3
#
#
#
# Elastic Constant Matrix: (Units=GPa)
#
#
# Indices 1 2 3 4 5 6 
#
# 1 112.4876 14.4266 10.4947 0.0000 0.0000 0.0000
# 2 14.4266 80.4290 28.6650 0.0000 0.0000 0.0000
# 3 10.4947 28.6650 60.7368 0.0000 0.0000 0.0000
# 4 0.0000 0.0000 0.0000 17.0787 0.0000 0.0000
# 5 0.0000 0.0000 0.0000 0.0000 -3.1423 0.0000
# 6 0.0000 0.0000 0.0000 0.0000 0.0000 -44.7667
#
#
#
# Elastic Compliance Matrix: (Units=1/GPa)
#
#
# Indices 1 2 3 4 5 6 
#
# 1 0.009146 -0.001295 -0.000969 0.000000 0.000000 0.000000
# 2 -0.001295 0.015131 -0.006917 0.000000 0.000000 0.000000
# 3 -0.000969 -0.006917 0.019897 0.000000 0.000000 0.000000
# 4 0.000000 0.000000 0.000000 0.058552 0.000000 0.000000
# 5 0.000000 0.000000 0.000000 0.000000 -0.318239 0.000000
# 6 0.000000 0.000000 0.000000 0.000000 0.000000 -0.022338
#
#
# Mechanical properties :
#
#
# Convention : Reuss Voigt Hill
#
# Bulk Modulus (GPa) = 38.74365 40.09175 39.41770
# Shear Modulus (GPa) = -23.70975 7.17175 -8.26900
#
# Velocity S-wave (km/s) = -3.37880 1.85828 -1.99538
# Velocity P-wave (km/s) = 1.85295 4.88963 3.69743
#
# Compressibility (1/GPa) = 0.02581068
#
# Stress axis : x y z
#
# Youngs Moduli (GPa) = 109.33272 66.08949 50.25982
#
# Poissons Ratio (x) = 0.08560 0.04871
# Poissons Ratio (y) = 0.14161 0.34766
# Poissons Ratio (z) = 0.10596 0.45716
#
# Static dielectric constant tensor:
#      x y z
#    x 1.740100 0.000000 0.000000 
#    y 0.000000 1.850310 0.000000 
#    z 0.000000 0.000000 1.778280 
# 
# From -- ./inp_files/23871.got.cif
#   From: 2010.05.17/outbox.cif.g08.bks.cpg/sg23_12_cif.got.tgz:23871.got - 2010.06.04 12:02:01.
