data_PCOD9331814
_publ_section_title
;
Structure prediction by ZEFSAII (Michael W. Deem and Ramdas Pophale) SiO2 
 PCOD9331814
Probable space group: I 2 2 2
;
_chemical_formula_sum "Si O2"
_cell_formula_units_Z 28
_cell_length_a 4.907215
_cell_length_b 8.830041
_cell_length_c 29.821803
_cell_angle_alpha 90.000000
_cell_angle_beta 90.000000
_cell_angle_gamma 90.000000
_cell_volume 1292.205851
_symmetry_space_group_name_H-M "I 2 2 2"
_symmetry_group_IT_number 23
_symmetry_cell_setting 'orthorhombic'
loop_
_space_group_symop_operation_xyz
x,y,z
-x,-y,z
x,-y,-z
-x,y,-z
1/2+x,1/2+y,1/2+z
1/2-x,1/2-y,1/2+z
1/2+x,1/2-y,1/2-z
1/2-x,1/2+y,1/2-z
loop_
_atom_site_type_symbol
_atom_site_label
_atom_site_fract_x
_atom_site_fract_y
_atom_site_fract_z
Si Si1 0.879859 0.355686 0.255306
Si Si2 0.500000 0.500000 0.329226
Si Si3 0.556561 0.335695 0.415515
Si Si4 0.061510 0.171580 0.447437
O O1 0.631904 0.257050 0.235014
O O2 0.737435 0.437830 0.297592
O O3 0.000000 0.500000 0.228052
O O4 0.454432 0.363741 0.364571
O O5 0.500000 0.500000 0.437326
O O6 0.868010 0.286768 0.420162
O O7 0.373084 0.211097 0.438701
O O8 0.000000 0.189660 0.500000
O O9 0.000000 0.000000 0.434205
#
# Coordination Sequence:
#
# PCOD9331814 Si02
#       4
#     8   4   8   8
#     4  12  24  44  75  98 133 171 224 280 348 409
#     4  10  26  44  73  94 146 168 222 288 335 392
#     4  10  24  40  69  94 131 184 217 272 333 386
#     4  11  23  41  65  98 139 176 224 278 322 382
#
# _framework density 21.668374
#
# number of rings (size 3 to 8) (size 9 to 14) (size 15 to 20)
#    0.857    0.286    2.857    2.571    4.000    5.714 
#    0.000    5.714    3.143    0.000    0.000    0.000 
#    0.000    0.000    0.000    0.000    0.000    0.000 
#
# Total GULP energy -78058.193152 kJ/mol
# GULP energy per Si atom -5575.585225 kJ/mol
# Density = 2.161906 g / cm^3
# Si number density = 21.668374 Si / 1000 Ang^3
#
#
#
# Elastic Constant Matrix: (Units=GPa)
#
#
# Indices 1 2 3 4 5 6 
#
# 1 110.2494 30.5815 8.8459 0.0000 0.0000 0.0000
# 2 30.5815 103.5902 21.0453 0.0000 0.0000 0.0000
# 3 8.8459 21.0453 47.8726 0.0000 0.0000 0.0000
# 4 0.0000 0.0000 0.0000 31.7967 0.0000 0.0000
# 5 0.0000 0.0000 0.0000 0.0000 20.4624 0.0000
# 6 0.0000 0.0000 0.0000 0.0000 0.0000 59.8013
#
#
#
# Elastic Compliance Matrix: (Units=1/GPa)
#
#
# Indices 1 2 3 4 5 6 
#
# 1 0.009895 -0.002800 -0.000598 0.000000 0.000000 0.000000
# 2 -0.002800 0.011392 -0.004491 0.000000 0.000000 0.000000
# 3 -0.000598 -0.004491 0.022973 0.000000 0.000000 0.000000
# 4 0.000000 0.000000 0.000000 0.031450 0.000000 0.000000
# 5 0.000000 0.000000 0.000000 0.000000 0.048870 0.000000
# 6 0.000000 0.000000 0.000000 0.000000 0.000000 0.016722
#
#
# Mechanical properties :
#
#
# Convention : Reuss Voigt Hill
#
# Bulk Modulus (GPa) = 35.10709 42.51754 38.81231
# Shear Modulus (GPa) = 30.01674 35.82805 32.92239
#
# Velocity S-wave (km/s) = 3.72597 4.07070 3.90215
# Velocity P-wave (km/s) = 5.89471 6.46210 6.18491
#
# Compressibility (1/GPa) = 0.02848428
#
# Stress axis : x y z
#
# Youngs Moduli (GPa) = 101.06226 87.77858 43.52856
#
# Poissons Ratio (x) = 0.24576 0.02601
# Poissons Ratio (y) = 0.28295 0.19548
# Poissons Ratio (z) = 0.06039 0.39420
#
# Static dielectric constant tensor:
#      x y z
#    x 1.763430 0.000000 0.000000 
#    y 0.000000 1.846470 0.000000 
#    z 0.000000 0.000000 1.794090 
# 
# From -- ./inp_files/29790.got.cif
#   From: 2010.05.17/outbox.cif.g08.bks.cpg/sg23_15_cif.got.tgz:29790.got - 2010.06.04 12:02:01.
