data_PCOD9331613
_publ_section_title
;
Structure prediction by ZEFSAII (Michael W. Deem and Ramdas Pophale) SiO2 
 PCOD9331613
Probable space group: I 2 2 2
;
_chemical_formula_sum "Si O2"
_cell_formula_units_Z 60
_cell_length_a 21.188402
_cell_length_b 5.555528
_cell_length_c 23.595381
_cell_angle_alpha 90.000000
_cell_angle_beta 90.000000
_cell_angle_gamma 90.000000
_cell_volume 2777.477435
_symmetry_space_group_name_H-M "I 2 2 2"
_symmetry_group_IT_number 23
_symmetry_cell_setting 'orthorhombic'
loop_
_space_group_symop_operation_xyz
x,y,z
-x,-y,z
x,-y,-z
-x,y,-z
1/2+x,1/2+y,1/2+z
1/2-x,1/2-y,1/2+z
1/2+x,1/2-y,1/2-z
1/2-x,1/2+y,1/2-z
loop_
_atom_site_type_symbol
_atom_site_label
_atom_site_fract_x
_atom_site_fract_y
_atom_site_fract_z
Si Si1 0.788845 0.761145 0.896066
Si Si2 0.229333 0.500000 0.000000
Si Si3 0.642579 0.541440 0.297247
Si Si4 0.801551 0.657069 0.587485
Si Si5 0.430780 0.043471 0.933847
Si Si6 0.927847 0.455701 0.763621
Si Si7 0.067349 0.865667 0.657727
Si Si8 0.294338 0.447444 0.188414
O O1 0.838845 0.921504 0.862626
O O2 0.755080 0.611673 0.845681
O O3 0.732066 0.907519 0.925205
O O4 0.813626 0.620052 0.950873
O O5 0.274369 0.342171 0.041674
O O6 0.604479 0.287871 0.289968
O O7 0.704049 0.530969 0.255625
O O8 0.607945 0.792749 0.277366
O O9 0.875714 0.628161 0.585817
O O10 0.784235 0.705775 0.652935
O O11 0.419737 0.305749 0.908142
O O12 0.500000 0.000000 0.910251
O O13 0.432671 0.000000 0.000000
O O14 0.931224 0.375472 0.697200
O O15 0.000000 0.500000 0.782236
O O16 0.132020 0.991588 0.676370
O O17 0.000000 0.000000 0.666426
#
# Coordination Sequence:
#
# PCOD9331613 Si02
#       8
#     8   4   8   8   8   8   8   8
#     4  11  24  41  65  95 138 176 228 284 343 417
#     4  10  24  42  68  89 129 184 240 276 350 406
#     4  11  26  39  69 105 139 179 225 273 348 416
#     4  11  22  41  62  86 125 180 231 289 342 401
#     4  11  22  35  53  78 115 163 226 295 334 373
#     4  11  23  45  69  99 137 175 217 274 338 427
#     4  11  21  39  62  91 121 178 233 281 340 407
#     4  10  23  36  60  90 130 176 220 279 346 397
#
# _framework density 21.602336000000001
#
# number of rings (size 3 to 8) (size 9 to 14) (size 15 to 20)
#    0.000    1.200    1.333    5.200    9.333    0.000 
#    0.000    0.667    0.000    1.600    0.000    0.467 
#    0.000    0.000    0.000    0.000    0.000    0.000 
#
# Total GULP energy -167072.996561 kJ/mol
# GULP energy per Si atom -5569.099885 kJ/mol
# Density = 2.155317 g / cm^3
# Si number density = 21.602336 Si / 1000 Ang^3
#
#
#
# Elastic Constant Matrix: (Units=GPa)
#
#
# Indices 1 2 3 4 5 6 
#
# 1 46.7713 29.6133 42.7799 0.0000 0.0000 0.0000
# 2 29.6133 84.2248 36.7226 0.0000 0.0000 0.0000
# 3 42.7799 36.7226 144.9395 0.0000 0.0000 0.0000
# 4 0.0000 0.0000 0.0000 33.7672 0.0000 0.0000
# 5 0.0000 0.0000 0.0000 0.0000 22.8207 0.0000
# 6 0.0000 0.0000 0.0000 0.0000 0.0000 32.5206
#
#
#
# Elastic Compliance Matrix: (Units=1/GPa)
#
#
# Indices 1 2 3 4 5 6 
#
# 1 0.033968 -0.008512 -0.007869 0.000000 0.000000 0.000000
# 2 -0.008512 0.015480 -0.001410 0.000000 0.000000 0.000000
# 3 -0.007869 -0.001410 0.009579 0.000000 0.000000 0.000000
# 4 0.000000 0.000000 0.000000 0.029615 0.000000 0.000000
# 5 0.000000 0.000000 0.000000 0.000000 0.043820 0.000000
# 6 0.000000 0.000000 0.000000 0.000000 0.000000 0.030750
#
#
# Mechanical properties :
#
#
# Convention : Reuss Voigt Hill
#
# Bulk Modulus (GPa) = 42.65222 54.90749 48.77985
# Shear Modulus (GPa) = 24.20035 28.94302 26.57168
#
# Velocity S-wave (km/s) = 3.35067 3.66431 3.51099
# Velocity P-wave (km/s) = 5.89546 6.58601 6.25028
#
# Compressibility (1/GPa) = 0.02344544
#
# Stress axis : x y z
#
# Youngs Moduli (GPa) = 29.43983 64.59742 104.39211
#
# Poissons Ratio (x) = 0.54985 0.82148
# Poissons Ratio (y) = 0.25059 0.14718
# Poissons Ratio (z) = 0.23167 0.09107
#
# Static dielectric constant tensor:
#      x y z
#    x 1.831540 0.000000 0.000000 
#    y 0.000000 2.099830 0.000000 
#    z 0.000000 0.000000 1.859140 
# 
# From -- ./inp_files/28715.got.cif
#   From: 2010.05.17/outbox.cif.g08.bks.cpg/sg23_15_cif.got.tgz:28715.got - 2010.06.04 12:02:01.
