data_PCOD9331851
_publ_section_title
;
Structure prediction by ZEFSAII (Michael W. Deem and Ramdas Pophale) SiO2 
 PCOD9331851
Probable space group: I 2 2 2
;
_chemical_formula_sum "Si O2"
_cell_formula_units_Z 36
_cell_length_a 11.038134
_cell_length_b 6.038164
_cell_length_c 26.516659
_cell_angle_alpha 90.000000
_cell_angle_beta 90.000000
_cell_angle_gamma 90.000000
_cell_volume 1767.337002
_symmetry_space_group_name_H-M "I 2 2 2"
_symmetry_group_IT_number 23
_symmetry_cell_setting 'orthorhombic'
loop_
_space_group_symop_operation_xyz
x,y,z
-x,-y,z
x,-y,-z
-x,y,-z
1/2+x,1/2+y,1/2+z
1/2-x,1/2-y,1/2+z
1/2+x,1/2-y,1/2-z
1/2-x,1/2+y,1/2-z
loop_
_atom_site_type_symbol
_atom_site_label
_atom_site_fract_x
_atom_site_fract_y
_atom_site_fract_z
Si Si1 0.833794 0.361171 0.683886
Si Si2 0.640921 0.250408 0.482861
Si Si3 0.361781 0.013282 0.296811
Si Si4 0.500000 0.500000 0.139579
Si Si5 0.728190 0.246933 0.880136
O O1 0.854396 0.479400 0.737024
O O2 0.826428 0.511141 0.634529
O O3 0.705448 0.238325 0.688914
O O4 0.941344 0.186999 0.675063
O O5 0.687523 0.500000 0.500000
O O6 0.500000 0.251425 0.500000
O O7 0.672790 0.251626 0.423650
O O8 0.685604 0.000000 0.500000
O O9 0.287942 0.830456 0.328050
O O10 0.500000 0.000000 0.312746
O O11 0.613131 0.596268 0.108638
#
# Coordination Sequence:
#
# PCOD9331851 Si02
#       5
#     8   8   8   4   8
#     4  11  23  42  62 102 141 189 230 293 354 446
#     4  10  25  46  73 103 141 180 244 309 368 436
#     4  11  24  36  63 101 140 179 236 281 353 438
#     4  10  24  42  71  92 140 182 237 280 366 442
#     4  11  24  43  71  96 140 189 229 299 371 423
#
# _framework density 20.369631999999999
#
# number of rings (size 3 to 8) (size 9 to 14) (size 15 to 20)
#    0.000    1.333    2.222    2.000   12.444    2.667 
#    0.000    0.556    0.000    0.000    0.000    0.000 
#    0.000    0.000    0.000    0.000    0.000    0.000 
#
# Total GULP energy -100297.917197 kJ/mol
# GULP energy per Si atom -5572.106511 kJ/mol
# Density = 2.032327 g / cm^3
# Si number density = 20.369632 Si / 1000 Ang^3
#
#
#
# Elastic Constant Matrix: (Units=GPa)
#
#
# Indices 1 2 3 4 5 6 
#
# 1 117.2968 14.7649 21.2400 0.0000 0.0000 0.0000
# 2 14.7649 107.6165 30.9595 0.0000 0.0000 0.0000
# 3 21.2400 30.9595 98.4547 0.0000 0.0000 0.0000
# 4 0.0000 0.0000 0.0000 18.9646 0.0000 0.0000
# 5 0.0000 0.0000 0.0000 0.0000 34.0166 0.0000
# 6 0.0000 0.0000 0.0000 0.0000 0.0000 25.5704
#
#
#
# Elastic Compliance Matrix: (Units=1/GPa)
#
#
# Indices 1 2 3 4 5 6 
#
# 1 0.008925 -0.000737 -0.001694 0.000000 0.000000 0.000000
# 2 -0.000737 0.010277 -0.003073 0.000000 0.000000 0.000000
# 3 -0.001694 -0.003073 0.011489 0.000000 0.000000 0.000000
# 4 0.000000 0.000000 0.000000 0.052730 0.000000 0.000000
# 5 0.000000 0.000000 0.000000 0.000000 0.029397 0.000000
# 6 0.000000 0.000000 0.000000 0.000000 0.000000 0.039108
#
#
# Mechanical properties :
#
#
# Convention : Reuss Voigt Hill
#
# Bulk Modulus (GPa) = 50.80346 50.81074 50.80710
# Shear Modulus (GPa) = 29.49957 32.80390 31.15174
#
# Velocity S-wave (km/s) = 3.80967 4.01737 3.91490
# Velocity P-wave (km/s) = 6.65931 6.82038 6.74032
#
# Compressibility (1/GPa) = 0.01968370
#
# Stress axis : x y z
#
# Youngs Moduli (GPa) = 112.04669 97.30110 87.04329
#
# Poissons Ratio (x) = 0.07174 0.14741
# Poissons Ratio (y) = 0.08261 0.26746
# Poissons Ratio (z) = 0.18976 0.29898
#
# Static dielectric constant tensor:
#      x y z
#    x 1.700660 0.000000 0.000000 
#    y 0.000000 1.875910 0.000000 
#    z 0.000000 0.000000 1.667080 
# 
# From -- ./inp_files/4280.got.cif
#   From: 2010.05.17/outbox.cif.g08.bks.cpg/sg23_3_cif.got.tgz:4280.got - 2010.06.04 12:02:01.
