data_PCOD9331458
_publ_section_title
;
Structure prediction by ZEFSAII (Michael W. Deem and Ramdas Pophale) SiO2 
 PCOD9331458
Probable space group: I 2 2 2
;
_chemical_formula_sum "Si O2"
_cell_formula_units_Z 48
_cell_length_a 8.731284
_cell_length_b 9.627156
_cell_length_c 22.691317
_cell_angle_alpha 90.000000
_cell_angle_beta 90.000000
_cell_angle_gamma 90.000000
_cell_volume 1907.373862
_symmetry_space_group_name_H-M "I 2 2 2"
_symmetry_group_IT_number 23
_symmetry_cell_setting 'orthorhombic'
loop_
_space_group_symop_operation_xyz
x,y,z
-x,-y,z
x,-y,-z
-x,y,-z
1/2+x,1/2+y,1/2+z
1/2-x,1/2-y,1/2+z
1/2+x,1/2-y,1/2-z
1/2-x,1/2+y,1/2-z
loop_
_atom_site_type_symbol
_atom_site_label
_atom_site_fract_x
_atom_site_fract_y
_atom_site_fract_z
Si Si1 0.663806 0.425370 0.422936
Si Si2 0.816163 0.311785 0.606791
Si Si3 0.110494 0.195835 0.557503
Si Si4 0.374482 0.618535 0.284159
Si Si5 0.141665 0.586434 0.729110
Si Si6 0.667436 0.033025 0.569928
O O1 0.500000 0.500000 0.436646
O O2 0.785809 0.548585 0.428736
O O3 0.741597 0.294036 0.454917
O O4 0.655862 0.379471 0.354406
O O5 0.771819 0.347641 0.673384
O O6 0.709275 0.189673 0.583772
O O7 0.992031 0.266906 0.602008
O O8 0.000000 0.170929 0.500000
O O9 0.186957 0.061157 0.586904
O O10 0.500000 0.500000 0.274625
O O11 0.239301 0.543152 0.246527
O O12 0.400381 0.778179 0.266455
O O13 0.000000 0.500000 0.704058
O O14 0.500000 0.000000 0.595276
O O15 0.660723 0.000000 0.500000
#
# Coordination Sequence:
#
# PCOD9331458 Si02
#       6
#     8   8   8   8   8   8
#     4  10  23  44  65  96 137 182 234 290 352 431
#     4  11  23  41  67  98 140 183 233 295 355 421
#     4  12  24  43  69 100 136 179 238 292 356 425
#     4  10  22  41  66  97 142 187 236 297 358 435
#     4  11  23  42  68 104 143 185 242 298 365 435
#     4  11  24  44  66  95 136 183 232 291 353 428
#
# _framework density 25.165490999999999
#
# number of rings (size 3 to 8) (size 9 to 14) (size 15 to 20)
#    0.000    1.167    1.667    5.000    0.000    4.000 
#    0.000    2.500    0.000    0.000    0.000    0.000 
#    0.000    0.000    0.000    0.000    0.000    0.000 
#
# Total GULP energy -134034.439538 kJ/mol
# GULP energy per Si atom -5584.768314 kJ/mol
# Density = 2.510821 g / cm^3
# Si number density = 25.165491 Si / 1000 Ang^3
#
#
#
# Elastic Constant Matrix: (Units=GPa)
#
#
# Indices 1 2 3 4 5 6 
#
# 1 108.8781 40.1181 -5.0378 0.0000 0.0000 0.0000
# 2 40.1181 179.1840 46.3207 0.0000 0.0000 0.0000
# 3 -5.0378 46.3207 60.1677 0.0000 0.0000 0.0000
# 4 0.0000 0.0000 0.0000 38.1232 0.0000 0.0000
# 5 0.0000 0.0000 0.0000 0.0000 14.3708 0.0000
# 6 0.0000 0.0000 0.0000 0.0000 0.0000 50.0892
#
#
#
# Elastic Compliance Matrix: (Units=1/GPa)
#
#
# Indices 1 2 3 4 5 6 
#
# 1 0.010530 -0.003228 0.003367 0.000000 0.000000 0.000000
# 2 -0.003228 0.007957 -0.006396 0.000000 0.000000 0.000000
# 3 0.003367 -0.006396 0.021826 0.000000 0.000000 0.000000
# 4 0.000000 0.000000 0.000000 0.026231 0.000000 0.000000
# 5 0.000000 0.000000 0.000000 0.000000 0.069586 0.000000
# 6 0.000000 0.000000 0.000000 0.000000 0.000000 0.019964
#
#
# Mechanical properties :
#
#
# Convention : Reuss Voigt Hill
#
# Bulk Modulus (GPa) = 35.97336 56.78132 46.37734
# Shear Modulus (GPa) = 28.10977 38.30523 33.20750
#
# Velocity S-wave (km/s) = 3.34578 3.90569 3.63652
# Velocity P-wave (km/s) = 5.40845 6.55373 6.00844
#
# Compressibility (1/GPa) = 0.02779835
#
# Stress axis : x y z
#
# Youngs Moduli (GPa) = 94.96937 125.67593 45.81664
#
# Poissons Ratio (x) = 0.40566 -0.15425
# Poissons Ratio (y) = 0.30655 0.29304
# Poissons Ratio (z) = -0.31973 0.80383
#
# Static dielectric constant tensor:
#      x y z
#    x 2.097310 0.000000 0.000000 
#    y 0.000000 1.974620 0.000000 
#    z 0.000000 0.000000 2.029950 
# 
# From -- ./inp_files/30219.got.cif
#   From: 2010.05.17/outbox.cif.g08.bks.cpg/sg23_16_cif.got.tgz:30219.got - 2010.06.04 12:02:01.
