data_PCOD9331417
_publ_section_title
;
Structure prediction by ZEFSAII (Michael W. Deem and Ramdas Pophale) SiO2 
 PCOD9331417
Probable space group: I 2 2 2
;
_chemical_formula_sum "Si O2"
_cell_formula_units_Z 46
_cell_length_a 9.676231
_cell_length_b 14.862797
_cell_length_c 14.693894
_cell_angle_alpha 90.000000
_cell_angle_beta 90.000000
_cell_angle_gamma 90.000000
_cell_volume 2113.214959
_symmetry_space_group_name_H-M "I 2 2 2"
_symmetry_group_IT_number 23
_symmetry_cell_setting 'orthorhombic'
loop_
_space_group_symop_operation_xyz
x,y,z
-x,-y,z
x,-y,-z
-x,y,-z
1/2+x,1/2+y,1/2+z
1/2-x,1/2-y,1/2+z
1/2+x,1/2-y,1/2-z
1/2-x,1/2+y,1/2-z
loop_
_atom_site_type_symbol
_atom_site_label
_atom_site_fract_x
_atom_site_fract_y
_atom_site_fract_z
Si Si1 0.258831 0.244331 0.902890
Si Si2 0.500000 0.769239 0.500000
Si Si3 0.669957 0.684868 0.204007
Si Si4 0.500000 0.000000 0.000000
Si Si5 0.053186 0.598084 0.833074
Si Si6 0.055687 0.897987 0.599004
Si Si7 0.451365 0.849915 0.869538
O O1 0.201668 0.214854 0.805162
O O2 0.293092 0.352338 0.902379
O O3 0.406964 0.194079 0.910228
O O4 0.142621 0.219537 0.976155
O O5 0.518095 0.830753 0.589105
O O6 0.518060 0.646724 0.185877
O O7 0.665066 0.773834 0.141072
O O8 0.781266 0.609991 0.176284
O O9 0.416704 0.935468 0.931168
O O10 0.000000 0.500000 0.858809
O O11 0.989753 0.621550 0.733995
O O12 0.000000 0.867782 0.500000
O O13 0.000000 0.000000 0.603307
#
# Coordination Sequence:
#
# PCOD9331417 Si02
#       7
#     8   4   8   2   8   8   8
#     4  10  23  41  66  97 132 178 223 272 355 404
#     4  12  23  38  66  99 136 176 214 287 336 424
#     4  10  22  42  66  89 142 172 221 286 334 413
#     4  12  24  40  76  88 130 172 240 288 314 422
#     4  11  23  40  61  98 137 172 223 281 347 408
#     4  10  22  40  66  96 126 171 225 278 339 405
#     4  10  23  43  64 101 125 179 232 281 339 396
#
# _framework density 21.767779000000001
#
# number of rings (size 3 to 8) (size 9 to 14) (size 15 to 20)
#    0.000    1.565    2.609    1.304    9.739    0.000 
#    0.000    0.000    0.000    0.000    0.000    0.000 
#    0.000    0.000    0.000    0.000    0.000    0.000 
#
# Total GULP energy -128206.611178 kJ/mol
# GULP energy per Si atom -5574.200486 kJ/mol
# Density = 2.171823 g / cm^3
# Si number density = 21.767779 Si / 1000 Ang^3
#
#
#
# Elastic Constant Matrix: (Units=GPa)
#
#
# Indices 1 2 3 4 5 6 
#
# 1 95.2170 12.5105 32.5057 0.0000 0.0000 0.0000
# 2 12.5105 71.1696 26.2416 0.0000 0.0000 0.0000
# 3 32.5057 26.2416 106.6939 0.0000 0.0000 0.0000
# 4 0.0000 0.0000 0.0000 28.3881 0.0000 0.0000
# 5 0.0000 0.0000 0.0000 0.0000 36.8815 0.0000
# 6 0.0000 0.0000 0.0000 0.0000 0.0000 19.8256
#
#
#
# Elastic Compliance Matrix: (Units=1/GPa)
#
#
# Indices 1 2 3 4 5 6 
#
# 1 0.011765 -0.000821 -0.003382 0.000000 0.000000 0.000000
# 2 -0.000821 0.015510 -0.003565 0.000000 0.000000 0.000000
# 3 -0.003382 -0.003565 0.011280 0.000000 0.000000 0.000000
# 4 0.000000 0.000000 0.000000 0.035226 0.000000 0.000000
# 5 0.000000 0.000000 0.000000 0.000000 0.027114 0.000000
# 6 0.000000 0.000000 0.000000 0.000000 0.000000 0.050440
#
#
# Mechanical properties :
#
#
# Convention : Reuss Voigt Hill
#
# Bulk Modulus (GPa) = 43.44324 46.17736 44.81030
# Shear Modulus (GPa) = 28.64632 30.47389 29.56010
#
# Velocity S-wave (km/s) = 3.63160 3.74565 3.68907
# Velocity P-wave (km/s) = 6.13071 6.32189 6.22703
#
# Compressibility (1/GPa) = 0.02301854
#
# Stress axis : x y z
#
# Youngs Moduli (GPa) = 84.99866 64.47643 88.65395
#
# Poissons Ratio (x) = 0.05293 0.29987
# Poissons Ratio (y) = 0.06978 0.31601
# Poissons Ratio (z) = 0.28750 0.22983
#
# Static dielectric constant tensor:
#      x y z
#    x 1.861180 0.000000 0.000000 
#    y 0.000000 1.877170 0.000000 
#    z 0.000000 0.000000 1.787150 
# 
# From -- ./inp_files/26193.got.cif
#   From: 2010.05.17/outbox.cif.g08.bks.cpg/sg23_14_cif.got.tgz:26193.got - 2010.06.04 12:02:01.
