data_PCOD9331100
_publ_section_title
;
Structure prediction by ZEFSAII (Michael W. Deem and Ramdas Pophale) SiO2 
 PCOD9331100
Probable space group: I 2 2 2
;
_chemical_formula_sum "Si O2"
_cell_formula_units_Z 58
_cell_length_a 14.200935
_cell_length_b 7.152950
_cell_length_c 24.799975
_cell_angle_alpha 90.000000
_cell_angle_beta 90.000000
_cell_angle_gamma 90.000000
_cell_volume 2519.146195
_symmetry_space_group_name_H-M "I 2 2 2"
_symmetry_group_IT_number 23
_symmetry_cell_setting 'orthorhombic'
loop_
_space_group_symop_operation_xyz
x,y,z
-x,-y,z
x,-y,-z
-x,y,-z
1/2+x,1/2+y,1/2+z
1/2-x,1/2-y,1/2+z
1/2+x,1/2-y,1/2-z
1/2-x,1/2+y,1/2-z
loop_
_atom_site_type_symbol
_atom_site_label
_atom_site_fract_x
_atom_site_fract_y
_atom_site_fract_z
Si Si1 0.481498 0.725209 0.264441
Si Si2 0.182117 0.748878 0.419400
Si Si3 0.492356 0.271356 0.861148
Si Si4 0.500000 0.500000 0.500000
Si Si5 0.322613 0.776933 0.512833
Si Si6 0.793635 0.840045 0.389737
Si Si7 0.214555 0.851191 0.811650
Si Si8 0.676251 0.785865 0.293567
O O1 0.500000 0.500000 0.265519
O O2 0.491253 0.782484 0.201962
O O3 0.378707 0.751818 0.289465
O O4 0.565502 0.818660 0.298047
O O5 0.237343 0.703136 0.474210
O O6 0.252739 0.698201 0.370961
O O7 0.077345 0.695795 0.398184
O O8 0.176544 0.973813 0.420650
O O9 0.500000 0.500000 0.860591
O O10 0.388168 0.223974 0.882106
O O11 0.417438 0.660973 0.507116
O O12 0.286391 0.751712 0.573873
O O13 0.337117 0.000000 0.500000
O O14 0.748670 0.893936 0.332012
O O15 0.295426 0.810570 0.768291
O O16 0.194783 0.071208 0.808950
#
# Coordination Sequence:
#
# PCOD9331100 Si02
#       8
#     8   8   8   2   8   8   8   8
#     4   9  18  33  52  80 115 160 206 248 312 385
#     4  10  21  40  64  92 127 165 215 272 326 392
#     4   9  16  33  63  89 123 167 202 251 322 387
#     4  12  26  48  80  88 136 168 226 276 340 382
#     4  10  25  46  71 102 130 171 223 276 333 393
#     4  10  21  40  64  92 127 165 215 272 326 392
#     4  11  21  35  57  85 123 166 213 262 322 390
#     4  11  21  35  57  85 123 166 213 262 322 390
#
# _framework density 23.023672000000001
#
# number of rings (size 3 to 8) (size 9 to 14) (size 15 to 20)
#    0.000    1.931    2.759    1.034    1.931    1.655 
#    2.483    8.966    0.000    0.828    0.000    0.000 
#    0.000    0.000    0.000    0.000    0.000    0.000 
#
# Total GULP energy -161788.688217 kJ/mol
# GULP energy per Si atom -5578.920283 kJ/mol
# Density = 2.297127 g / cm^3
# Si number density = 23.023672 Si / 1000 Ang^3
#
#
#
# Elastic Constant Matrix: (Units=GPa)
#
#
# Indices 1 2 3 4 5 6 
#
# 1 169.3158 20.3635 16.4636 0.0000 0.0000 0.0000
# 2 20.3635 89.8725 7.3781 0.0000 0.0000 0.0000
# 3 16.4636 7.3781 66.7360 0.0000 0.0000 0.0000
# 4 0.0000 0.0000 0.0000 16.9446 0.0000 0.0000
# 5 0.0000 0.0000 0.0000 0.0000 4.6556 0.0000
# 6 0.0000 0.0000 0.0000 0.0000 0.0000 6.2303
#
#
#
# Elastic Compliance Matrix: (Units=1/GPa)
#
#
# Indices 1 2 3 4 5 6 
#
# 1 0.006196 -0.001290 -0.001386 0.000000 0.000000 0.000000
# 2 -0.001290 0.011497 -0.000953 0.000000 0.000000 0.000000
# 3 -0.001386 -0.000953 0.015432 0.000000 0.000000 0.000000
# 4 0.000000 0.000000 0.000000 0.059016 0.000000 0.000000
# 5 0.000000 0.000000 0.000000 0.000000 0.214794 0.000000
# 6 0.000000 0.000000 0.000000 0.000000 0.000000 0.160506
#
#
# Mechanical properties :
#
#
# Convention : Reuss Voigt Hill
#
# Bulk Modulus (GPa) = 38.65879 46.03721 42.34800
# Shear Modulus (GPa) = 10.34508 24.34737 17.34622
#
# Velocity S-wave (km/s) = 2.12203 3.25544 2.74781
# Velocity P-wave (km/s) = 4.77821 5.84547 5.33858
#
# Compressibility (1/GPa) = 0.02586734
#
# Stress axis : x y z
#
# Youngs Moduli (GPa) = 161.39315 86.97604 64.80183
#
# Poissons Ratio (x) = 0.11221 0.08981
# Poissons Ratio (y) = 0.20822 0.06175
# Poissons Ratio (z) = 0.22368 0.08287
#
# Static dielectric constant tensor:
#      x y z
#    x 1.846490 0.000000 0.000000 
#    y 0.000000 1.971360 0.000000 
#    z 0.000000 0.000000 1.806910 
# 
# From -- ./inp_files/28541.got.cif
#   From: 2010.05.17/outbox.cif.g08.bks.cpg/sg23_15_cif.got.tgz:28541.got - 2010.06.04 12:02:01.
