data_PCOD9331985
_publ_section_title
;
Structure prediction by ZEFSAII (Michael W. Deem and Ramdas Pophale) SiO2 
 PCOD9331985
Probable space group: I 2 2 2
;
_chemical_formula_sum "Si O2"
_cell_formula_units_Z 56
_cell_length_a 8.639874
_cell_length_b 22.093782
_cell_length_c 14.528517
_cell_angle_alpha 90.000000
_cell_angle_beta 90.000000
_cell_angle_gamma 90.000000
_cell_volume 2773.312182
_symmetry_space_group_name_H-M "I 2 2 2"
_symmetry_group_IT_number 23
_symmetry_cell_setting 'orthorhombic'
loop_
_space_group_symop_operation_xyz
x,y,z
-x,-y,z
x,-y,-z
-x,y,-z
1/2+x,1/2+y,1/2+z
1/2-x,1/2-y,1/2+z
1/2+x,1/2-y,1/2-z
1/2-x,1/2+y,1/2-z
loop_
_atom_site_type_symbol
_atom_site_label
_atom_site_fract_x
_atom_site_fract_y
_atom_site_fract_z
Si Si1 0.009291 0.926845 0.889789
Si Si2 0.741921 0.901365 0.754822
Si Si3 0.198887 0.446826 0.931192
Si Si4 0.500000 0.157055 0.500000
Si Si5 0.176484 0.832438 0.767154
Si Si6 0.483547 0.794524 0.297681
Si Si7 0.000000 0.500000 0.223529
Si Si8 0.497077 0.603517 0.104866
O O1 0.860248 0.899341 0.838776
O O2 0.147441 0.888162 0.839681
O O3 0.000000 0.000000 0.871219
O O4 0.000000 0.918776 0.000000
O O5 0.643305 0.840756 0.743226
O O6 0.846263 0.908979 0.661489
O O7 0.627352 0.958117 0.770751
O O8 0.377483 0.451785 0.905285
O O9 0.146830 0.386740 0.983938
O O10 0.094004 0.453724 0.841562
O O11 0.162908 0.500000 0.000000
O O12 0.510212 0.193310 0.406530
O O13 0.352994 0.811147 0.750644
O O14 0.105169 0.854136 0.670528
O O15 0.073708 0.773938 0.789807
O O16 0.500000 0.627096 0.000000
#
# Coordination Sequence:
#
# PCOD9331985 Si02
#       8
#     8   8   8   4   8   8   4   8
#     4  10  25  49  74 100 135 183 241 295 352 408
#     4  11  25  40  68 101 138 181 233 285 348 417
#     4  12  21  36  59  98 142 185 221 264 341 432
#     4  12  21  40  66  98 141 184 218 278 346 422
#     4  11  25  46  72  98 138 182 232 293 348 411
#     4  12  25  47  70 103 139 183 237 286 354 425
#     4  12  21  34  60  93 138 178 218 272 347 407
#     4  11  23  39  59 100 140 177 223 272 335 415
#
# _framework density 20.192463
#
# number of rings (size 3 to 8) (size 9 to 14) (size 15 to 20)
#    0.000    0.714    4.286    3.429    7.000    1.429 
#    0.000    0.714    0.000    0.000    0.000    0.000 
#    0.000    0.000    0.000    0.000    0.000    0.000 
#
# Total GULP energy -156288.964784 kJ/mol
# GULP energy per Si atom -5581.748742 kJ/mol
# Density = 2.014650 g / cm^3
# Si number density = 20.192463 Si / 1000 Ang^3
#
#
#
# Elastic Constant Matrix: (Units=GPa)
#
#
# Indices 1 2 3 4 5 6 
#
# 1 119.4638 50.6317 39.8927 0.0000 0.0000 -0.0002
# 2 50.6317 106.0475 51.0358 0.0000 0.0000 0.0005
# 3 39.8927 51.0358 128.6580 0.0000 0.0000 0.0041
# 4 0.0000 0.0000 0.0000 -9.8405 0.0000 0.0008
# 5 0.0000 0.0000 0.0000 0.0000 33.2290 -0.0003
# 6 -0.0002 0.0005 0.0041 0.0008 -0.0003 -858.5048
#
#
#
# Elastic Compliance Matrix: (Units=1/GPa)
#
#
# Indices 1 2 3 4 5 6 
#
# 1 0.010756 -0.004363 -0.001604 0.000000 0.000000 0.000000
# 2 -0.004363 0.013425 -0.003972 0.000000 0.000000 0.000000
# 3 -0.001604 -0.003972 0.009846 0.000000 0.000000 0.000000
# 4 0.000000 0.000000 0.000000 -0.101621 0.000000 0.000000
# 5 0.000000 0.000000 0.000000 0.000000 0.030094 0.000000
# 6 0.000000 0.000000 0.000000 0.000000 0.000000 -0.001165
#
#
# Mechanical properties :
#
#
# Convention : Reuss Voigt Hill
#
# Bulk Modulus (GPa) = 70.68899 70.80995 70.74947
# Shear Modulus (GPa) = -355.35732 -152.84933 -254.10332
#
# Velocity S-wave (km/s) = -13.28033 -8.70980 -11.23004
# Velocity P-wave (km/s) = 14.14470 8.12427 11.53422
#
# Compressibility (1/GPa) = 0.01414647
#
# Stress axis : x y z
#
# Youngs Moduli (GPa) = 92.97435 74.48990 101.56707
#
# Poissons Ratio (x) = 0.32501 0.16293
# Poissons Ratio (y) = 0.40566 0.40346
# Poissons Ratio (z) = 0.14915 0.29590
#
# Static dielectric constant tensor:
#      x y z
#    x 1.780170 0.000000 0.000000 
#    y 0.000000 1.688550 0.000000 
#    z 0.000000 0.000000 8.859490 
# 
# From -- ./inp_files/20252.got.cif
#   From: 2010.05.17/outbox.cif.g08.bks.cpg/sg23_11_cif.got.tgz:20252.got - 2010.06.04 12:02:01.
