data_PCOD9331106
_publ_section_title
;
Structure prediction by ZEFSAII (Michael W. Deem and Ramdas Pophale) SiO2 
 PCOD9331106
Probable space group: I 2 2 2
;
_chemical_formula_sum "Si O2"
_cell_formula_units_Z 58
_cell_length_a 8.381914
_cell_length_b 15.214046
_cell_length_c 22.870843
_cell_angle_alpha 90.000000
_cell_angle_beta 90.000000
_cell_angle_gamma 90.000000
_cell_volume 2916.554513
_symmetry_space_group_name_H-M "I 2 2 2"
_symmetry_group_IT_number 23
_symmetry_cell_setting 'orthorhombic'
loop_
_space_group_symop_operation_xyz
x,y,z
-x,-y,z
x,-y,-z
-x,y,-z
1/2+x,1/2+y,1/2+z
1/2-x,1/2-y,1/2+z
1/2+x,1/2-y,1/2-z
1/2-x,1/2+y,1/2-z
loop_
_atom_site_type_symbol
_atom_site_label
_atom_site_fract_x
_atom_site_fract_y
_atom_site_fract_z
Si Si1 0.323685 0.297023 0.776936
Si Si2 0.376307 0.927644 0.898282
Si Si3 0.378053 0.777924 0.104555
Si Si4 0.812156 0.858388 0.706879
Si Si5 0.000000 0.000000 0.500000
Si Si6 0.655856 0.349870 0.928137
Si Si7 0.314876 0.025536 0.227819
Si Si8 0.813386 0.186511 0.990176
O O1 0.280276 0.258185 0.840660
O O2 0.300167 0.218425 0.731456
O O3 0.507215 0.326266 0.782373
O O4 0.224091 0.381573 0.757506
O O5 0.491580 0.849419 0.874716
O O6 0.285570 0.965724 0.841875
O O7 0.263473 0.885575 0.946882
O O8 0.500000 0.000000 0.921762
O O9 0.485974 0.700524 0.077698
O O10 0.274198 0.817141 0.052599
O O11 0.787366 0.868438 0.637661
O O12 0.783153 0.948247 0.741481
O O13 0.114577 0.061569 0.538412
O O14 0.770775 0.281393 0.961334
O O15 0.500000 0.000000 0.234063
O O16 0.000000 0.175406 0.000000
#
# Coordination Sequence:
#
# PCOD9331106 Si02
#       8
#     8   8   8   8   2   8   8   8
#     4  11  22  39  63  90 130 167 210 256 323 381
#     4  10  21  43  66  87 122 176 225 254 307 397
#     4  10  21  40  65  89 124 176 214 253 308 403
#     4  11  24  40  65  96 128 170 213 265 320 388
#     4  12  20  40  78  88 114 172 222 242 296 380
#     4  10  22  40  67  93 124 170 218 248 309 401
#     4  11  23  40  63  94 130 169 214 266 322 386
#     4  11  23  41  65  98 128 160 210 282 332 360
#
# _framework density 19.886478
#
# number of rings (size 3 to 8) (size 9 to 14) (size 15 to 20)
#    0.000    1.379    1.379    6.621    3.862    4.414 
#    0.000    4.483    0.000    3.310    0.000    0.000 
#    0.000    0.000    0.000    0.000    0.000    0.000 
#
# Total GULP energy -162130.228748 kJ/mol
# GULP energy per Si atom -5590.697543 kJ/mol
# Density = 1.984122 g / cm^3
# Si number density = 19.886478 Si / 1000 Ang^3
#
#
#
# Elastic Constant Matrix: (Units=GPa)
#
#
# Indices 1 2 3 4 5 6 
#
# 1 62.1434 31.6961 60.6642 0.0000 0.0000 0.0000
# 2 31.6961 130.6410 69.0412 0.0000 0.0000 0.0000
# 3 60.6642 69.0412 152.3583 0.0000 0.0000 0.0000
# 4 0.0000 0.0000 0.0000 37.0584 0.0000 0.0000
# 5 0.0000 0.0000 0.0000 0.0000 32.3521 0.0000
# 6 0.0000 0.0000 0.0000 0.0000 0.0000 28.8520
#
#
#
# Elastic Compliance Matrix: (Units=1/GPa)
#
#
# Indices 1 2 3 4 5 6 
#
# 1 0.026447 -0.001120 -0.010023 0.000000 0.000000 0.000000
# 2 -0.001120 0.010112 -0.004137 0.000000 0.000000 0.000000
# 3 -0.010023 -0.004137 0.012429 0.000000 0.000000 0.000000
# 4 0.000000 0.000000 0.000000 0.026984 0.000000 0.000000
# 5 0.000000 0.000000 0.000000 0.000000 0.030910 0.000000
# 6 0.000000 0.000000 0.000000 0.000000 0.000000 0.034660
#
#
# Mechanical properties :
#
#
# Convention : Reuss Voigt Hill
#
# Bulk Modulus (GPa) = 54.25979 74.21620 64.23800
# Shear Modulus (GPa) = 28.05131 31.90190 29.97661
#
# Velocity S-wave (km/s) = 3.75983 4.00959 3.88672
# Velocity P-wave (km/s) = 6.79650 7.67051 7.24670
#
# Compressibility (1/GPa) = 0.01842985
#
# Stress axis : x y z
#
# Youngs Moduli (GPa) = 37.81082 98.88930 80.45777
#
# Poissons Ratio (x) = 0.11072 0.80644
# Poissons Ratio (y) = 0.04233 0.33282
# Poissons Ratio (z) = 0.37898 0.40906
#
# Static dielectric constant tensor:
#      x y z
#    x 1.671730 0.000000 0.000000 
#    y 0.000000 1.721470 0.000000 
#    z 0.000000 0.000000 1.720540 
# 
# From -- ./inp_files/28076.got.cif
#   From: 2010.05.17/outbox.cif.g08.bks.cpg/sg23_15_cif.got.tgz:28076.got - 2010.06.04 12:02:01.
