data_PCOD9331380
_publ_section_title
;
Structure prediction by ZEFSAII (Michael W. Deem and Ramdas Pophale) SiO2 
 PCOD9331380
Probable space group: I 2 2 2
;
_chemical_formula_sum "Si O2"
_cell_formula_units_Z 64
_cell_length_a 29.952567
_cell_length_b 9.449143
_cell_length_c 12.439310
_cell_angle_alpha 90.000000
_cell_angle_beta 90.000000
_cell_angle_gamma 90.000000
_cell_volume 3520.649257
_symmetry_space_group_name_H-M "I 2 2 2"
_symmetry_group_IT_number 23
_symmetry_cell_setting 'orthorhombic'
loop_
_space_group_symop_operation_xyz
x,y,z
-x,-y,z
x,-y,-z
-x,y,-z
1/2+x,1/2+y,1/2+z
1/2-x,1/2-y,1/2+z
1/2+x,1/2-y,1/2-z
1/2-x,1/2+y,1/2-z
loop_
_atom_site_type_symbol
_atom_site_label
_atom_site_fract_x
_atom_site_fract_y
_atom_site_fract_z
Si Si1 0.797055 0.400042 0.665612
Si Si2 0.699748 0.844864 0.478534
Si Si3 0.371484 0.847417 0.343996
Si Si4 0.970333 0.123437 0.109855
Si Si5 0.213799 0.703873 0.444977
Si Si6 0.125297 0.023506 0.118158
Si Si7 0.953043 0.548219 0.874058
Si Si8 0.696717 0.334990 0.730616
O O1 0.834013 0.379526 0.755500
O O2 0.804509 0.292821 0.565992
O O3 0.794668 0.552175 0.609087
O O4 0.748011 0.379331 0.714312
O O5 0.652873 0.854018 0.540038
O O6 0.733426 0.735503 0.536721
O O7 0.692578 0.796146 0.355413
O O8 0.720469 0.000000 0.500000
O O9 0.385022 0.682742 0.344132
O O10 0.410941 0.960465 0.330418
O O11 0.921710 0.054363 0.105561
O O12 0.956726 0.283317 0.140954
O O13 0.000000 0.000000 0.168621
O O14 0.000000 0.143971 0.000000
O O15 0.192532 0.804143 0.356279
O O16 0.160442 0.949365 0.196194
O O17 0.146899 0.000000 0.000000
O O18 0.000000 0.500000 0.825597
O O19 0.952894 0.500000 0.000000
#
# Coordination Sequence:
#
# PCOD9331380 Si02
#       8
#     8   8   8   8   8   8   8   8
#     4  10  23  40  59  80 123 173 216 274 317 362
#     4  11  22  34  55  83 118 164 211 266 312 374
#     4  12  23  39  60  89 129 163 220 255 319 384
#     4  11  21  38  57  82 131 170 194 241 320 393
#     4  10  22  40  56  81 117 170 217 266 316 364
#     4  12  23  36  58  92 123 177 203 254 314 389
#     4  11  22  36  58  91 125 163 200 255 316 391
#     4  11  23  34  58  83 123 163 228 259 318 365
#
# _framework density 18.178466
#
# number of rings (size 3 to 8) (size 9 to 14) (size 15 to 20)
#    0.000    1.000    5.000    3.375    5.250    1.000 
#    0.000    0.000    0.000    0.000    0.000    1.750 
#    0.000    1.000    0.000    0.000    0.000    0.000 
#
# Total GULP energy -178284.376703 kJ/mol
# GULP energy per Si atom -5571.386772 kJ/mol
# Density = 1.813709 g / cm^3
# Si number density = 18.178466 Si / 1000 Ang^3
#
#
#
# Elastic Constant Matrix: (Units=GPa)
#
#
# Indices 1 2 3 4 5 6 
#
# 1 130.6000 62.2871 41.0271 0.0000 0.0000 0.0000
# 2 62.2871 133.1245 19.1928 0.0000 0.0000 0.0000
# 3 41.0271 19.1928 37.7768 0.0000 0.0000 0.0000
# 4 0.0000 0.0000 0.0000 18.3063 0.0000 0.0000
# 5 0.0000 0.0000 0.0000 0.0000 17.5257 0.0000
# 6 0.0000 0.0000 0.0000 0.0000 0.0000 34.7228
#
#
#
# Elastic Compliance Matrix: (Units=1/GPa)
#
#
# Indices 1 2 3 4 5 6 
#
# 1 0.013865 -0.004658 -0.012692 0.000000 0.000000 0.000000
# 2 -0.004658 0.009670 0.000145 0.000000 0.000000 0.000000
# 3 -0.012692 0.000145 0.040182 0.000000 0.000000 0.000000
# 4 0.000000 0.000000 0.000000 0.054626 0.000000 0.000000
# 5 0.000000 0.000000 0.000000 0.000000 0.057059 0.000000
# 6 0.000000 0.000000 0.000000 0.000000 0.000000 0.028800
#
#
# Mechanical properties :
#
#
# Convention : Reuss Voigt Hill
#
# Bulk Modulus (GPa) = 34.11988 60.72394 47.42191
# Shear Modulus (GPa) = 20.13047 26.04391 23.08719
#
# Velocity S-wave (km/s) = 3.33134 3.78918 3.56761
# Velocity P-wave (km/s) = 5.79718 7.25401 6.56612
#
# Compressibility (1/GPa) = 0.02930843
#
# Stress axis : x y z
#
# Youngs Moduli (GPa) = 72.12165 103.41223 24.88704
#
# Poissons Ratio (x) = 0.48165 0.31587
# Poissons Ratio (y) = 0.33591 -0.00362
# Poissons Ratio (z) = 0.91538 -0.01504
#
# Static dielectric constant tensor:
#      x y z
#    x 1.625480 0.000000 0.000000 
#    y 0.000000 1.759060 0.000000 
#    z 0.000000 0.000000 1.646000 
# 
# From -- ./inp_files/18826.got.cif
#   From: 2010.05.17/outbox.cif.g08.bks.cpg/sg23_10_cif.got.tgz:18826.got - 2010.06.04 12:02:01.
