data_PCOD9331888
_publ_section_title
;
Structure prediction by ZEFSAII (Michael W. Deem and Ramdas Pophale) SiO2 
 PCOD9331888
Probable space group: I 2 2 2
;
_chemical_formula_sum "Si O2"
_cell_formula_units_Z 28
_cell_length_a 8.365272
_cell_length_b 17.951595
_cell_length_c 8.703599
_cell_angle_alpha 90.000000
_cell_angle_beta 90.000000
_cell_angle_gamma 90.000000
_cell_volume 1307.019244
_symmetry_space_group_name_H-M "I 2 2 2"
_symmetry_group_IT_number 23
_symmetry_cell_setting 'orthorhombic'
loop_
_space_group_symop_operation_xyz
x,y,z
-x,-y,z
x,-y,-z
-x,y,-z
1/2+x,1/2+y,1/2+z
1/2-x,1/2-y,1/2+z
1/2+x,1/2-y,1/2-z
1/2-x,1/2+y,1/2-z
loop_
_atom_site_type_symbol
_atom_site_label
_atom_site_fract_x
_atom_site_fract_y
_atom_site_fract_z
Si Si1 0.664726 0.665234 0.423026
Si Si2 0.744342 0.500000 0.500000
Si Si3 0.000000 0.500000 0.247798
Si Si4 0.500000 0.874358 0.500000
Si Si5 0.827368 0.793621 0.563748
O O1 0.500000 0.691127 0.500000
O O2 0.664578 0.576151 0.443090
O O3 0.803552 0.706954 0.518299
O O4 0.676520 0.689716 0.245433
O O5 0.854285 0.478960 0.356482
O O6 0.030745 0.428788 0.143158
O O7 0.669656 0.831379 0.486752
O O8 0.000000 0.819130 0.500000
#
# Coordination Sequence:
#
# PCOD9331888 Si02
#       5
#     8   4   4   4   8
#     4  12  27  49  73 109 151 194 248 308 371 443
#     4  11  25  44  74 104 146 194 244 298 378 434
#     4  10  24  44  76 104 144 192 238 308 370 444
#     4  11  24  52  72 107 148 188 250 301 374 434
#     4  12  28  47  78 108 147 195 251 307 367 440
#
# _framework density 21.422792000000001
#
# number of rings (size 3 to 8) (size 9 to 14) (size 15 to 20)
#    0.000    0.571    4.286    2.143   12.000    0.000 
#    0.000    2.857    0.000    0.000    0.000    0.000 
#    0.000    0.000    0.000    0.000    0.000    0.000 
#
# Total GULP energy -78141.082902 kJ/mol
# GULP energy per Si atom -5581.505922 kJ/mol
# Density = 2.137403 g / cm^3
# Si number density = 21.422792 Si / 1000 Ang^3
#
#
#
# Elastic Constant Matrix: (Units=GPa)
#
#
# Indices 1 2 3 4 5 6 
#
# 1 119.5703 33.5044 28.5476 0.0000 0.0000 0.0000
# 2 33.5044 110.0944 47.7061 0.0000 0.0000 -0.0001
# 3 28.5476 47.7061 135.2991 -0.0001 0.0000 -0.0006
# 4 0.0000 0.0000 -0.0001 -2.9656 0.0000 -0.0002
# 5 0.0000 0.0000 0.0000 0.0000 31.5776 0.0001
# 6 0.0000 -0.0001 -0.0006 -0.0002 0.0001 73.0262
#
#
#
# Elastic Compliance Matrix: (Units=1/GPa)
#
#
# Indices 1 2 3 4 5 6 
#
# 1 0.009289 -0.002334 -0.001137 0.000000 0.000000 0.000000
# 2 -0.002334 0.011308 -0.003495 0.000000 0.000000 0.000000
# 3 -0.001137 -0.003495 0.008863 0.000000 0.000000 0.000000
# 4 0.000000 0.000000 0.000000 -0.337204 0.000000 -0.000001
# 5 0.000000 0.000000 0.000000 0.000000 0.031668 0.000000
# 6 0.000000 0.000000 0.000000 -0.000001 0.000000 0.013694
#
#
# Mechanical properties :
#
#
# Convention : Reuss Voigt Hill
#
# Bulk Modulus (GPa) = 64.39839 64.94225 64.67032
# Shear Modulus (GPa) = -20.55283 37.34137 8.39427
#
# Velocity S-wave (km/s) = -3.10076 4.17954 1.98164
# Velocity P-wave (km/s) = 4.16008 7.32610 5.95727
#
# Compressibility (1/GPa) = 0.01552834
#
# Stress axis : x y z
#
# Youngs Moduli (GPa) = 107.65702 88.43508 112.82751
#
# Poissons Ratio (x) = 0.20642 0.12827
# Poissons Ratio (y) = 0.25129 0.39428
# Poissons Ratio (z) = 0.12239 0.30904
#
# Static dielectric constant tensor:
#      x y z
#    x 1.835490 0.000000 0.000000 
#    y 0.000000 1.771660 0.000000 
#    z 0.000000 0.000000 1.721030 
# 
# From -- ./inp_files/6458.got.cif
#   From: 2010.05.17/outbox.cif.g08.bks.cpg/sg23_4_cif.got.tgz:6458.got - 2010.06.04 12:02:01.
