data_PCOD9331109
_publ_section_title
;
Structure prediction by ZEFSAII (Michael W. Deem and Ramdas Pophale) SiO2 
 PCOD9331109
Probable space group: I 2 2 2
;
_chemical_formula_sum "Si O2"
_cell_formula_units_Z 32
_cell_length_a 13.104149
_cell_length_b 20.797819
_cell_length_c 4.972693
_cell_angle_alpha 90.000000
_cell_angle_beta 90.000000
_cell_angle_gamma 90.000000
_cell_volume 1355.246408
_symmetry_space_group_name_H-M "I 2 2 2"
_symmetry_group_IT_number 23
_symmetry_cell_setting 'orthorhombic'
loop_
_space_group_symop_operation_xyz
x,y,z
-x,-y,z
x,-y,-z
-x,y,-z
1/2+x,1/2+y,1/2+z
1/2-x,1/2-y,1/2+z
1/2+x,1/2-y,1/2-z
1/2-x,1/2+y,1/2-z
loop_
_atom_site_type_symbol
_atom_site_label
_atom_site_fract_x
_atom_site_fract_y
_atom_site_fract_z
Si Si1 0.122887 0.837113 0.016704
Si Si2 0.122990 0.237306 0.485039
Si Si3 0.429154 0.130016 0.751169
Si Si4 0.242240 0.043748 0.743368
O O1 0.153712 0.778169 0.212544
O O2 0.166411 0.901273 0.148656
O O3 0.160924 0.817190 0.721350
O O4 0.000000 0.842172 0.000000
O O5 0.131765 0.308662 0.369146
O O6 0.000000 0.229753 0.500000
O O7 0.500000 0.149397 0.500000
O O8 0.347420 0.077925 0.658080
O O9 0.500000 0.107517 0.000000
O O10 0.201971 0.000000 0.500000
O O11 0.264717 0.000000 0.000000
#
# Coordination Sequence:
#
# PCOD9331109 Si02
#       4
#     8   8   8   8
#     4  10  21  40  65  92 125 159 199 263 322 370
#     4   9  18  36  64  96 122 152 201 256 325 388
#     4  11  23  41  66  94 128 166 207 266 325 375
#     4  12  27  43  61  92 129 173 226 257 297 381
#
# _framework density 23.611940000000001
#
# number of rings (size 3 to 8) (size 9 to 14) (size 15 to 20)
#    0.000    1.500    0.000    6.750    0.000    5.500 
#    0.000    1.250    0.000    0.000    0.000    0.000 
#    0.000    0.000    0.000    0.000    0.000    0.000 
#
# Total GULP energy -89530.562827 kJ/mol
# GULP energy per Si atom -5595.660177 kJ/mol
# Density = 2.355820 g / cm^3
# Si number density = 23.611940 Si / 1000 Ang^3
#
#
#
# Elastic Constant Matrix: (Units=GPa)
#
#
# Indices 1 2 3 4 5 6 
#
# 1 91.2911 23.2517 11.8313 0.0000 0.0000 0.0000
# 2 23.2517 106.3586 23.5065 0.0000 0.0000 0.0000
# 3 11.8313 23.5065 91.2555 0.0001 -0.0002 -0.0002
# 4 0.0000 0.0000 0.0001 38.9181 0.0000 0.0000
# 5 0.0000 0.0000 -0.0002 0.0000 23.6208 0.0000
# 6 0.0000 0.0000 -0.0002 0.0000 0.0000 4.5881
#
#
#
# Elastic Compliance Matrix: (Units=1/GPa)
#
#
# Indices 1 2 3 4 5 6 
#
# 1 0.011670 -0.002351 -0.000908 0.000000 0.000000 0.000000
# 2 -0.002351 0.010443 -0.002385 0.000000 0.000000 0.000000
# 3 -0.000908 -0.002385 0.011690 0.000000 0.000000 0.000000
# 4 0.000000 0.000000 0.000000 0.025695 0.000000 0.000000
# 5 0.000000 0.000000 0.000000 0.000000 0.042336 0.000000
# 6 0.000000 0.000000 0.000000 0.000000 0.000000 0.217955
#
#
# Mechanical properties :
#
#
# Convention : Reuss Voigt Hill
#
# Bulk Modulus (GPa) = 44.41139 45.12046 44.76593
# Shear Modulus (GPa) = 14.76744 28.77978 21.77361
#
# Velocity S-wave (km/s) = 2.50356 3.49501 3.03998
# Velocity P-wave (km/s) = 5.21601 5.95294 5.59662
#
# Compressibility (1/GPa) = 0.02251675
#
# Stress axis : x y z
#
# Youngs Moduli (GPa) = 85.68752 95.75569 85.54073
#
# Poissons Ratio (x) = 0.22510 0.07763
# Poissons Ratio (y) = 0.20143 0.20404
# Poissons Ratio (z) = 0.07776 0.22841
#
# Static dielectric constant tensor:
#      x y z
#    x 1.915560 0.000000 0.000000 
#    y 0.000000 1.888610 0.000000 
#    z 0.000000 0.000000 1.869710 
# 
# From -- ./inp_files/2184.got.cif
#   From: 2010.05.17/outbox.cif.g08.bks.cpg/sg23_2_cif.got.tgz:2184.got - 2010.06.04 12:02:01.
