data_PCOD9331152
_publ_section_title
;
Structure prediction by ZEFSAII (Michael W. Deem and Ramdas Pophale) SiO2 
 PCOD9331152
Probable space group: I 2 2 2
;
_chemical_formula_sum "Si O2"
_cell_formula_units_Z 38
_cell_length_a 15.374814
_cell_length_b 8.482563
_cell_length_c 13.353878
_cell_angle_alpha 90.000000
_cell_angle_beta 90.000000
_cell_angle_gamma 90.000000
_cell_volume 1741.583769
_symmetry_space_group_name_H-M "I 2 2 2"
_symmetry_group_IT_number 23
_symmetry_cell_setting 'orthorhombic'
loop_
_space_group_symop_operation_xyz
x,y,z
-x,-y,z
x,-y,-z
-x,y,-z
1/2+x,1/2+y,1/2+z
1/2-x,1/2-y,1/2+z
1/2+x,1/2-y,1/2-z
1/2-x,1/2+y,1/2-z
loop_
_atom_site_type_symbol
_atom_site_label
_atom_site_fract_x
_atom_site_fract_y
_atom_site_fract_z
Si Si1 0.000000 0.500000 0.652876
Si Si2 0.314002 0.685481 0.476901
Si Si3 0.862232 0.680004 0.226216
Si Si4 0.500000 0.500000 0.000000
Si Si5 0.802522 0.326686 0.185443
Si Si6 0.624692 0.256906 0.892936
O O1 0.951037 0.369745 0.720650
O O2 0.927508 0.594368 0.593615
O O3 0.314306 0.500000 0.500000
O O4 0.369700 0.728681 0.378706
O O5 0.337501 0.777190 0.577792
O O6 0.216512 0.741554 0.448427
O O7 0.816123 0.511689 0.203550
O O8 0.798086 0.777162 0.299068
O O9 0.563572 0.393406 0.933058
O O10 0.852321 0.237416 0.275195
#
# Coordination Sequence:
#
# PCOD9331152 Si02
#       6
#     4   8   8   2   8   8
#     4  10  22  45  63  94 134 174 212 274 332 384
#     4  11  23  40  66  96 125 176 226 267 320 394
#     4  10  22  39  67  94 130 175 218 269 326 391
#     4  12  28  38  64 100 138 172 208 280 332 382
#     4  10  21  41  62  90 128 170 222 264 317 393
#     4  10  26  40  63  96 130 175 212 273 327 385
#
# _framework density 21.819220000000001
#
# number of rings (size 3 to 8) (size 9 to 14) (size 15 to 20)
#    0.000    1.684    0.000    4.421   11.789    1.684 
#    0.000    8.421    0.000    5.053    0.000    0.000 
#    0.000    0.000    0.000    0.000    0.000    0.000 
#
# Total GULP energy -106285.449657 kJ/mol
# GULP energy per Si atom -5593.971035 kJ/mol
# Density = 2.176956 g / cm^3
# Si number density = 21.819220 Si / 1000 Ang^3
#
#
#
# Elastic Constant Matrix: (Units=GPa)
#
#
# Indices 1 2 3 4 5 6 
#
# 1 62.0767 15.5114 8.3043 0.0000 0.0000 0.0000
# 2 15.5114 73.5538 28.6291 0.0000 0.0000 0.0000
# 3 8.3043 28.6291 93.7685 0.0000 0.0000 0.0000
# 4 0.0000 0.0000 0.0000 55.2570 0.0000 0.0000
# 5 0.0000 0.0000 0.0000 0.0000 2.0044 0.0000
# 6 0.0000 0.0000 0.0000 0.0000 0.0000 44.2272
#
#
#
# Elastic Compliance Matrix: (Units=1/GPa)
#
#
# Indices 1 2 3 4 5 6 
#
# 1 0.017023 -0.003408 -0.000467 0.000000 0.000000 0.000000
# 2 -0.003408 0.016111 -0.004617 0.000000 0.000000 0.000000
# 3 -0.000467 -0.004617 0.012116 0.000000 0.000000 0.000000
# 4 0.000000 0.000000 0.000000 0.018097 0.000000 0.000000
# 5 0.000000 0.000000 0.000000 0.000000 0.498912 0.000000
# 6 0.000000 0.000000 0.000000 0.000000 0.000000 0.022611
#
#
# Mechanical properties :
#
#
# Convention : Reuss Voigt Hill
#
# Bulk Modulus (GPa) = 35.37900 37.14318 36.26109
# Shear Modulus (GPa) = 8.17961 32.09467 20.13714
#
# Velocity S-wave (km/s) = 1.93828 3.83944 3.04124
# Velocity P-wave (km/s) = 4.61076 6.05930 5.38397
#
# Compressibility (1/GPa) = 0.02826535
#
# Stress axis : x y z
#
# Youngs Moduli (GPa) = 58.74336 62.06796 82.53791
#
# Poissons Ratio (x) = 0.21154 0.03855
# Poissons Ratio (y) = 0.20021 0.38110
# Poissons Ratio (z) = 0.02744 0.28658
#
# Static dielectric constant tensor:
#      x y z
#    x 1.778840 0.000000 0.000000 
#    y 0.000000 1.794640 0.000000 
#    z 0.000000 0.000000 1.809590 
# 
# From -- ./inp_files/17266.got.cif
#   From: 2010.05.17/outbox.cif.g08.bks.cpg/sg23_9_cif.got.tgz:17266.got - 2010.06.04 12:02:01.
