data_PCOD9331165
_publ_section_title
;
Structure prediction by ZEFSAII (Michael W. Deem and Ramdas Pophale) SiO2 
 PCOD9331165
Probable space group: I 2 2 2
;
_chemical_formula_sum "Si O2"
_cell_formula_units_Z 64
_cell_length_a 27.349325
_cell_length_b 19.001085
_cell_length_c 5.184713
_cell_angle_alpha 90.000000
_cell_angle_beta 90.000000
_cell_angle_gamma 90.000000
_cell_volume 2694.323468
_symmetry_space_group_name_H-M "I 2 2 2"
_symmetry_group_IT_number 23
_symmetry_cell_setting 'orthorhombic'
loop_
_space_group_symop_operation_xyz
x,y,z
-x,-y,z
x,-y,-z
-x,y,-z
1/2+x,1/2+y,1/2+z
1/2-x,1/2-y,1/2+z
1/2+x,1/2-y,1/2-z
1/2-x,1/2+y,1/2-z
loop_
_atom_site_type_symbol
_atom_site_label
_atom_site_fract_x
_atom_site_fract_y
_atom_site_fract_z
Si Si1 0.032207 0.294699 0.744242
Si Si2 0.732318 0.578901 0.498437
Si Si3 0.311662 0.321248 0.888471
Si Si4 0.534374 0.637675 0.256653
Si Si5 0.783965 0.688306 0.155236
Si Si6 0.411911 0.924307 0.034547
Si Si7 0.151652 0.575034 0.052025
Si Si8 0.132707 0.927457 0.343449
O O1 0.055799 0.218162 0.798206
O O2 0.061158 0.359652 0.611568
O O3 0.000000 0.274429 0.500000
O O4 0.000000 0.314689 0.000000
O O5 0.750708 0.500000 0.500000
O O6 0.716169 0.611869 0.767911
O O7 0.771161 0.632167 0.376960
O O8 0.680638 0.576496 0.339595
O O9 0.317070 0.256370 0.699511
O O10 0.270881 0.288550 0.079125
O O11 0.360300 0.356094 0.988773
O O12 0.500000 0.626474 0.500000
O O13 0.579306 0.583247 0.270926
O O14 0.500000 0.629110 0.000000
O O15 0.813817 0.641274 0.958792
O O16 0.367337 0.932631 0.839321
O O17 0.391123 0.915267 0.327949
O O18 0.439008 0.000000 0.000000
O O19 0.176544 0.500000 0.000000
O O20 0.135328 0.000000 0.500000
#
# Coordination Sequence:
#
# PCOD9331165 Si02
#       8
#     8   8   8   8   8   8   8   8
#     4  10  21  41  67  96 130 173 222 275 346 416
#     4  11  24  42  67  94 138 179 228 293 346 418
#     4  11  24  43  63  98 136 176 236 295 343 421
#     4  10  25  46  72 104 138 176 231 291 354 430
#     4  11  25  40  64  95 131 180 237 286 347 410
#     4  10  22  41  60  96 133 167 221 274 326 399
#     4  10  24  39  62  92 130 176 221 270 334 400
#     4  11  25  44  70 103 135 184 234 286 364 432
#
# _framework density 23.753646
#
# number of rings (size 3 to 8) (size 9 to 14) (size 15 to 20)
#    0.000    1.500    2.500    0.750    7.000    2.000 
#    0.000    1.250    0.000    0.000    0.000    0.000 
#    0.000    0.000    0.000    0.000    0.000    0.000 
#
# Total GULP energy -178396.061909 kJ/mol
# GULP energy per Si atom -5574.876935 kJ/mol
# Density = 2.369958 g / cm^3
# Si number density = 23.753646 Si / 1000 Ang^3
#
#
#
# Elastic Constant Matrix: (Units=GPa)
#
#
# Indices 1 2 3 4 5 6 
#
# 1 61.7042 49.4317 27.0804 0.0000 0.0000 0.0000
# 2 49.4317 125.0130 17.9441 0.0000 0.0000 0.0000
# 3 27.0804 17.9441 104.0024 0.0000 0.0000 0.0000
# 4 0.0000 0.0000 0.0000 29.3768 0.0000 0.0000
# 5 0.0000 0.0000 0.0000 0.0000 31.5151 0.0000
# 6 0.0000 0.0000 0.0000 0.0000 0.0000 40.9107
#
#
#
# Elastic Compliance Matrix: (Units=1/GPa)
#
#
# Indices 1 2 3 4 5 6 
#
# 1 0.026164 -0.009606 -0.005155 0.000000 0.000000 0.000000
# 2 -0.009606 0.011729 0.000478 0.000000 0.000000 0.000000
# 3 -0.005155 0.000478 0.010875 0.000000 0.000000 0.000000
# 4 0.000000 0.000000 0.000000 0.034040 0.000000 0.000000
# 5 0.000000 0.000000 0.000000 0.000000 0.031731 0.000000
# 6 0.000000 0.000000 0.000000 0.000000 0.000000 0.024443
#
#
# Mechanical properties :
#
#
# Convention : Reuss Voigt Hill
#
# Bulk Modulus (GPa) = 49.50235 53.29245 51.39740
# Shear Modulus (GPa) = 28.68892 33.44475 31.06683
#
# Velocity S-wave (km/s) = 3.47907 3.75638 3.62038
# Velocity P-wave (km/s) = 6.08471 6.42636 6.25786
#
# Compressibility (1/GPa) = 0.02020106
#
# Stress axis : x y z
#
# Youngs Moduli (GPa) = 38.22043 85.26021 91.95281
#
# Poissons Ratio (x) = 0.81897 0.47405
# Poissons Ratio (y) = 0.36713 -0.04391
# Poissons Ratio (z) = 0.19704 -0.04071
#
# Static dielectric constant tensor:
#      x y z
#    x 1.954630 0.000000 0.000000 
#    y 0.000000 2.075590 0.000000 
#    z 0.000000 0.000000 2.044610 
# 
# From -- ./inp_files/5444.got.cif
#   From: 2010.05.17/outbox.cif.g08.bks.cpg/sg23_3_cif.got.tgz:5444.got - 2010.06.04 12:02:01.
