data_PCOD9331966
_publ_section_title
;
Structure prediction by ZEFSAII (Michael W. Deem and Ramdas Pophale) SiO2 
 PCOD9331966
Probable space group: I 2 2 2
;
_chemical_formula_sum "Si O2"
_cell_formula_units_Z 46
_cell_length_a 14.056970
_cell_length_b 8.139748
_cell_length_c 17.360607
_cell_angle_alpha 90.000000
_cell_angle_beta 90.000000
_cell_angle_gamma 90.000000
_cell_volume 1986.404011
_symmetry_space_group_name_H-M "I 2 2 2"
_symmetry_group_IT_number 23
_symmetry_cell_setting 'orthorhombic'
loop_
_space_group_symop_operation_xyz
x,y,z
-x,-y,z
x,-y,-z
-x,y,-z
1/2+x,1/2+y,1/2+z
1/2-x,1/2-y,1/2+z
1/2+x,1/2-y,1/2-z
1/2-x,1/2+y,1/2-z
loop_
_atom_site_type_symbol
_atom_site_label
_atom_site_fract_x
_atom_site_fract_y
_atom_site_fract_z
Si Si1 0.000000 0.500000 0.233090
Si Si2 0.806860 0.350185 0.941975
Si Si3 0.331448 0.052139 0.831179
Si Si4 0.000000 0.000000 0.000000
Si Si5 0.500000 0.500000 0.254850
Si Si6 0.810722 0.829854 0.708570
Si Si7 0.278153 0.000000 0.000000
Si Si8 0.997293 0.245643 0.119826
O O1 0.070823 0.401480 0.288410
O O2 0.946010 0.377180 0.173803
O O3 0.753976 0.391408 0.862003
O O4 0.919008 0.333980 0.925720
O O5 0.789199 0.500000 0.000000
O O6 0.774089 0.167455 0.970162
O O7 0.244017 0.141684 0.789112
O O8 0.322211 0.861137 0.809158
O O9 0.332756 0.061958 0.923210
O O10 0.947340 0.877487 0.940238
O O11 0.412856 0.419127 0.210201
O O12 0.544579 0.370605 0.315563
#
# Coordination Sequence:
#
# PCOD9331966 Si02
#       8
#     4   8   8   2   4   8   4   8
#     4  12  24  42  70 106 132 184 240 286 347 439
#     4  11  25  44  70 104 141 186 235 289 363 420
#     4  11  25  44  72  99 142 181 237 293 358 420
#     4  10  26  38  64  96 148 188 210 300 370 404
#     4  11  22  43  69  92 139 174 242 287 348 422
#     4  11  24  43  69 102 131 190 231 292 353 426
#     4  10  25  45  68 107 143 180 238 298 356 425
#     4  11  24  42  63 102 137 182 229 286 356 425
#
# _framework density 23.157425
#
# number of rings (size 3 to 8) (size 9 to 14) (size 15 to 20)
#    0.000    1.043    3.478    2.609    4.870    1.739 
#    0.000    0.435    0.000    0.000    0.000    0.000 
#    0.000    0.000    0.000    0.000    0.000    0.000 
#
# Total GULP energy -128354.557851 kJ/mol
# GULP energy per Si atom -5580.632950 kJ/mol
# Density = 2.310472 g / cm^3
# Si number density = 23.157425 Si / 1000 Ang^3
#
#
#
# Elastic Constant Matrix: (Units=GPa)
#
#
# Indices 1 2 3 4 5 6 
#
# 1 78.0793 8.0568 44.9972 0.0000 0.0000 0.0000
# 2 8.0568 65.8990 44.6624 0.0000 0.0000 0.0000
# 3 44.9972 44.6624 180.5278 0.0000 0.0000 0.0000
# 4 0.0000 0.0000 0.0000 47.5445 0.0000 0.0000
# 5 0.0000 0.0000 0.0000 0.0000 37.9631 0.0000
# 6 0.0000 0.0000 0.0000 0.0000 0.0000 25.0561
#
#
#
# Elastic Compliance Matrix: (Units=1/GPa)
#
#
# Indices 1 2 3 4 5 6 
#
# 1 0.014995 0.000841 -0.003945 0.000000 0.000000 0.000000
# 2 0.000841 0.018279 -0.004732 0.000000 0.000000 0.000000
# 3 -0.003945 -0.004732 0.007693 0.000000 0.000000 0.000000
# 4 0.000000 0.000000 0.000000 0.021033 0.000000 0.000000
# 5 0.000000 0.000000 0.000000 0.000000 0.026341 0.000000
# 6 0.000000 0.000000 0.000000 0.000000 0.000000 0.039910
#
#
# Mechanical properties :
#
#
# Convention : Reuss Voigt Hill
#
# Bulk Modulus (GPa) = 39.53527 57.77099 48.65313
# Shear Modulus (GPa) = 32.81798 37.23206 35.02502
#
# Velocity S-wave (km/s) = 3.76861 4.01406 3.89327
# Velocity P-wave (km/s) = 6.00384 6.81798 6.42382
#
# Compressibility (1/GPa) = 0.02529387
#
# Stress axis : x y z
#
# Youngs Moduli (GPa) = 66.69111 54.70808 129.98227
#
# Poissons Ratio (x) = -0.04600 0.51284
# Poissons Ratio (y) = -0.05607 0.61504
# Poissons Ratio (z) = 0.26313 0.25886
#
# Static dielectric constant tensor:
#      x y z
#    x 1.866010 0.000000 0.000000 
#    y 0.000000 1.980620 0.000000 
#    z 0.000000 0.000000 1.870950 
# 
# From -- ./inp_files/24774.got.cif
#   From: 2010.05.17/outbox.cif.g08.bks.cpg/sg23_13_cif.got.tgz:24774.got - 2010.06.04 12:02:01.
