data_PCOD9331929
_publ_section_title
;
Structure prediction by ZEFSAII (Michael W. Deem and Ramdas Pophale) SiO2 
 PCOD9331929
Probable space group: I 2 2 2
;
_chemical_formula_sum "Si O2"
_cell_formula_units_Z 32
_cell_length_a 17.600987
_cell_length_b 14.735289
_cell_length_c 5.191399
_cell_angle_alpha 90.000000
_cell_angle_beta 90.000000
_cell_angle_gamma 90.000000
_cell_volume 1346.418559
_symmetry_space_group_name_H-M "I 2 2 2"
_symmetry_group_IT_number 23
_symmetry_cell_setting 'orthorhombic'
loop_
_space_group_symop_operation_xyz
x,y,z
-x,-y,z
x,-y,-z
-x,y,-z
1/2+x,1/2+y,1/2+z
1/2-x,1/2-y,1/2+z
1/2+x,1/2-y,1/2-z
1/2-x,1/2+y,1/2-z
loop_
_atom_site_type_symbol
_atom_site_label
_atom_site_fract_x
_atom_site_fract_y
_atom_site_fract_z
Si Si1 0.407179 0.396091 0.982443
Si Si2 0.224222 0.807752 0.808900
Si Si3 0.051277 0.736171 0.243188
Si Si4 0.147692 0.557208 0.259356
O O1 0.360842 0.343220 0.758935
O O2 0.379798 0.500000 0.000000
O O3 0.500000 0.403317 0.000000
O O4 0.395477 0.323444 0.209711
O O5 0.256407 0.757474 0.549606
O O6 0.273132 0.898713 0.846188
O O7 0.095051 0.643246 0.203456
O O8 0.000000 0.724029 0.500000
O O9 0.000000 0.754246 0.000000
O O10 0.116963 0.500000 0.500000
O O11 0.155597 0.500000 0.000000
#
# Coordination Sequence:
#
# PCOD9331929 Si02
#       4
#     8   8   8   8
#     4  10  24  48  76 109 148 197 254 315 379 454
#     4  12  26  47  76 105 148 199 245 313 390 451
#     4  11  25  46  74 106 152 195 249 315 380 456
#     4  12  26  45  74 109 147 195 254 309 382 462
#
# _framework density 23.766753999999999
#
# number of rings (size 3 to 8) (size 9 to 14) (size 15 to 20)
#    0.000    0.750    2.500    3.750    7.000    3.000 
#    0.000   17.500    0.000    0.000    0.000    0.000 
#    0.000    0.000    0.000    0.000    0.000    0.000 
#
# Total GULP energy -89324.229279 kJ/mol
# GULP energy per Si atom -5582.764330 kJ/mol
# Density = 2.371266 g / cm^3
# Si number density = 23.766754 Si / 1000 Ang^3
#
#
#
# Elastic Constant Matrix: (Units=GPa)
#
#
# Indices 1 2 3 4 5 6 
#
# 1 79.2983 18.6851 0.2667 0.0000 0.0000 0.0000
# 2 18.6851 167.1531 24.6041 0.0000 0.0000 0.0000
# 3 0.2667 24.6041 105.8676 0.0000 0.0000 0.0000
# 4 0.0000 0.0000 0.0000 15.9471 0.0000 0.0000
# 5 0.0000 0.0000 0.0000 0.0000 22.9476 0.0000
# 6 0.0000 0.0000 0.0000 0.0000 0.0000 117.8701
#
#
#
# Elastic Compliance Matrix: (Units=1/GPa)
#
#
# Indices 1 2 3 4 5 6 
#
# 1 0.012962 -0.001495 0.000315 0.000000 0.000000 0.000000
# 2 -0.001495 0.006367 -0.001476 0.000000 0.000000 0.000000
# 3 0.000315 -0.001476 0.009788 0.000000 0.000000 0.000000
# 4 0.000000 0.000000 0.000000 0.062707 0.000000 0.000000
# 5 0.000000 0.000000 0.000000 0.000000 0.043578 0.000000
# 6 0.000000 0.000000 0.000000 0.000000 0.000000 0.008484
#
#
# Mechanical properties :
#
#
# Convention : Reuss Voigt Hill
#
# Bulk Modulus (GPa) = 42.00960 48.82564 45.41762
# Shear Modulus (GPa) = 31.82017 51.93716 41.87867
#
# Velocity S-wave (km/s) = 3.66300 4.67978 4.20225
# Velocity P-wave (km/s) = 5.96693 7.05611 6.53425
#
# Compressibility (1/GPa) = 0.02380408
#
# Stress axis : x y z
#
# Youngs Moduli (GPa) = 77.14928 157.06135 102.16608
#
# Poissons Ratio (x) = 0.23485 -0.03217
# Poissons Ratio (y) = 0.11536 0.15079
# Poissons Ratio (z) = -0.02429 0.23181
#
# Static dielectric constant tensor:
#      x y z
#    x 2.062410 0.000000 0.000000 
#    y 0.000000 2.035380 0.000000 
#    z 0.000000 0.000000 1.751400 
# 
# From -- ./inp_files/2938.got.cif
#   From: 2010.05.17/outbox.cif.g08.bks.cpg/sg23_2_cif.got.tgz:2938.got - 2010.06.04 12:02:01.
