data_PCOD9331833
_publ_section_title
;
Structure prediction by ZEFSAII (Michael W. Deem and Ramdas Pophale) SiO2 
 PCOD9331833
Probable space group: I 2 2 2
;
_chemical_formula_sum "Si O2"
_cell_formula_units_Z 60
_cell_length_a 18.299773
_cell_length_b 5.456013
_cell_length_c 24.499020
_cell_angle_alpha 90.000000
_cell_angle_beta 90.000000
_cell_angle_gamma 90.000000
_cell_volume 2446.075238
_symmetry_space_group_name_H-M "I 2 2 2"
_symmetry_group_IT_number 23
_symmetry_cell_setting 'orthorhombic'
loop_
_space_group_symop_operation_xyz
x,y,z
-x,-y,z
x,-y,-z
-x,y,-z
1/2+x,1/2+y,1/2+z
1/2-x,1/2-y,1/2+z
1/2+x,1/2-y,1/2-z
1/2-x,1/2+y,1/2-z
loop_
_atom_site_type_symbol
_atom_site_label
_atom_site_fract_x
_atom_site_fract_y
_atom_site_fract_z
Si Si1 0.269488 0.370304 0.057358
Si Si2 0.124394 0.050777 0.061160
Si Si3 0.185378 0.699130 0.137463
Si Si4 0.770880 0.525887 0.278383
Si Si5 0.000000 0.500000 0.664916
Si Si6 0.420336 0.364122 0.111484
Si Si7 0.428307 0.169701 0.666096
Si Si8 0.590343 0.651335 0.779230
O O1 0.208279 0.154575 0.057410
O O2 0.245629 0.543463 0.106923
O O3 0.356282 0.349493 0.067307
O O4 0.257671 0.500000 0.000000
O O5 0.080781 0.218291 0.105122
O O6 0.130088 0.793577 0.091866
O O7 0.096918 0.000000 0.000000
O O8 0.223335 0.924916 0.167645
O O9 0.139545 0.516202 0.174855
O O10 0.763213 0.245146 0.260042
O O11 0.851537 0.628063 0.286156
O O12 0.062959 0.418416 0.624640
O O13 0.014275 0.727450 0.703445
O O14 0.500000 0.500000 0.098784
O O15 0.392193 0.475913 0.169674
O O16 0.418565 0.377931 0.713763
O O17 0.500000 0.000000 0.671806
#
# Coordination Sequence:
#
# PCOD9331833 Si02
#       8
#     8   8   8   8   4   8   8   8
#     4  11  23  44  75  99 135 187 243 307 369 437
#     4  11  25  46  72 101 135 181 245 310 371 446
#     4  11  24  43  69 104 140 180 245 300 369 444
#     4  12  26  41  68 109 147 188 244 312 372 442
#     4  10  24  42  64  99 148 187 230 286 364 444
#     4  10  24  42  67 103 142 189 236 297 360 444
#     4  11  25  47  69 103 139 192 236 299 374 454
#     4  11  22  41  67  98 145 189 234 287 367 450
#
# _framework density 24.529091999999999
#
# number of rings (size 3 to 8) (size 9 to 14) (size 15 to 20)
#    0.000    1.067    4.667    0.800    5.600    1.867 
#    4.800    2.000    0.000    0.000    1.733    0.000 
#    0.000    0.000    0.000    0.000    0.000    0.000 
#
# Total GULP energy -167290.149505 kJ/mol
# GULP energy per Si atom -5576.338317 kJ/mol
# Density = 2.447326 g / cm^3
# Si number density = 24.529092 Si / 1000 Ang^3
#
#
#
# Elastic Constant Matrix: (Units=GPa)
#
#
# Indices 1 2 3 4 5 6 
#
# 1 85.6438 -6.6331 12.1363 0.0000 0.0000 0.0000
# 2 -6.6331 41.1912 11.4224 0.0000 0.0000 0.0000
# 3 12.1363 11.4224 73.5647 0.0000 0.0000 0.0000
# 4 0.0000 0.0000 0.0000 40.9802 0.0000 0.0000
# 5 0.0000 0.0000 0.0000 0.0000 16.9717 0.0000
# 6 0.0000 0.0000 0.0000 0.0000 0.0000 24.9458
#
#
#
# Elastic Compliance Matrix: (Units=1/GPa)
#
#
# Indices 1 2 3 4 5 6 
#
# 1 0.012225 0.002642 -0.002427 0.000000 0.000000 0.000000
# 2 0.002642 0.025940 -0.004464 0.000000 0.000000 0.000000
# 3 -0.002427 -0.004464 0.014687 0.000000 0.000000 0.000000
# 4 0.000000 0.000000 0.000000 0.024402 0.000000 0.000000
# 5 0.000000 0.000000 0.000000 0.000000 0.058922 0.000000
# 6 0.000000 0.000000 0.000000 0.000000 0.000000 0.040087
#
#
# Mechanical properties :
#
#
# Convention : Reuss Voigt Hill
#
# Bulk Modulus (GPa) = 22.54587 26.02790 24.28689
# Shear Modulus (GPa) = 25.05702 28.81114 26.93408
#
# Velocity S-wave (km/s) = 3.19959 3.43092 3.31727
# Velocity P-wave (km/s) = 4.78135 5.13118 4.95935
#
# Compressibility (1/GPa) = 0.04435402
#
# Stress axis : x y z
#
# Youngs Moduli (GPa) = 81.80118 38.55026 68.08784
#
# Poissons Ratio (x) = -0.10183 0.16524
# Poissons Ratio (y) = -0.21608 0.30391
# Poissons Ratio (z) = 0.19853 0.17207
#
# Static dielectric constant tensor:
#      x y z
#    x 2.055540 0.000000 0.000000 
#    y 0.000000 1.984380 0.000000 
#    z 0.000000 0.000000 1.963700 
# 
# From -- ./inp_files/28706.got.cif
#   From: 2010.05.17/outbox.cif.g08.bks.cpg/sg23_15_cif.got.tgz:28706.got - 2010.06.04 12:02:01.
