data_PCOD9331995
_publ_section_title
;
Structure prediction by ZEFSAII (Michael W. Deem and Ramdas Pophale) SiO2 
 PCOD9331995
Probable space group: I 2 2 2
;
_chemical_formula_sum "Si O2"
_cell_formula_units_Z 32
_cell_length_a 9.630352
_cell_length_b 14.076571
_cell_length_c 9.303703
_cell_angle_alpha 90.000000
_cell_angle_beta 90.000000
_cell_angle_gamma 90.000000
_cell_volume 1261.231691
_symmetry_space_group_name_H-M "I 2 2 2"
_symmetry_group_IT_number 23
_symmetry_cell_setting 'orthorhombic'
loop_
_space_group_symop_operation_xyz
x,y,z
-x,-y,z
x,-y,-z
-x,y,-z
1/2+x,1/2+y,1/2+z
1/2-x,1/2-y,1/2+z
1/2+x,1/2-y,1/2-z
1/2-x,1/2+y,1/2-z
loop_
_atom_site_type_symbol
_atom_site_label
_atom_site_fract_x
_atom_site_fract_y
_atom_site_fract_z
Si Si1 0.808827 0.703663 0.948803
Si Si2 0.353478 0.352283 0.189734
Si Si3 0.400939 0.367502 0.625238
Si Si4 0.846369 0.470331 0.247090
O O1 0.663980 0.687318 0.030176
O O2 0.885241 0.756795 0.081684
O O3 0.860640 0.604585 0.884312
O O4 0.509374 0.618947 0.767703
O O5 0.500000 0.405235 0.500000
O O6 0.312859 0.277292 0.316586
O O7 0.246146 0.439318 0.203606
O O8 0.251323 0.415115 0.638023
O O9 0.000000 0.500000 0.294838
#
# Coordination Sequence:
#
# PCOD9331995 Si02
#       4
#     8   8   8   8
#     4  11  25  50  78 121 162 216 271 344 414 493
#     4  11  26  47  84 112 167 220 276 335 426 494
#     4  10  25  52  82 110 171 222 268 343 420 497
#     4  12  28  49  84 123 159 212 287 343 413 497
#
# _framework density 25.372022999999999
#
# number of rings (size 3 to 8) (size 9 to 14) (size 15 to 20)
#    0.000    1.000    2.500    1.500   10.500    9.000 
#    4.500   11.250    0.000    0.000    0.000    0.000 
#    0.000    0.000    0.000    0.000    0.000    0.000 
#
# Total GULP energy -89426.277451 kJ/mol
# GULP energy per Si atom -5589.142341 kJ/mol
# Density = 2.531428 g / cm^3
# Si number density = 25.372023 Si / 1000 Ang^3
#
#
#
# Elastic Constant Matrix: (Units=GPa)
#
#
# Indices 1 2 3 4 5 6 
#
# 1 204.9141 56.4696 67.7117 0.0000 0.0000 0.0000
# 2 56.4696 158.4798 29.5630 0.0002 0.0000 0.0000
# 3 67.7117 29.5630 85.4872 0.0005 0.0000 0.0000
# 4 0.0000 0.0002 0.0005 21.5721 0.0000 0.0000
# 5 0.0000 0.0000 0.0000 0.0000 57.2195 0.0000
# 6 0.0000 0.0000 0.0000 0.0000 0.0000 38.8354
#
#
#
# Elastic Compliance Matrix: (Units=1/GPa)
#
#
# Indices 1 2 3 4 5 6 
#
# 1 0.006949 -0.001549 -0.004968 0.000000 0.000000 0.000000
# 2 -0.001549 0.007090 -0.001225 0.000000 0.000000 0.000000
# 3 -0.004968 -0.001225 0.016056 0.000000 0.000000 0.000000
# 4 0.000000 0.000000 0.000000 0.046356 0.000000 0.000000
# 5 0.000000 0.000000 0.000000 0.000000 0.017477 0.000000
# 6 0.000000 0.000000 0.000000 0.000000 0.000000 0.025750
#
#
# Mechanical properties :
#
#
# Convention : Reuss Voigt Hill
#
# Bulk Modulus (GPa) = 68.44152 84.04107 76.24129
# Shear Modulus (GPa) = 35.70598 43.20120 39.45359
#
# Velocity S-wave (km/s) = 3.75547 4.13087 3.94763
# Velocity P-wave (km/s) = 6.77041 7.47981 7.13393
#
# Compressibility (1/GPa) = 0.01461101
#
# Stress axis : x y z
#
# Youngs Moduli (GPa) = 143.91264 141.03444 62.28085
#
# Poissons Ratio (x) = 0.21849 0.30942
# Poissons Ratio (y) = 0.22295 0.07629
# Poissons Ratio (z) = 0.71497 0.17276
#
# Static dielectric constant tensor:
#      x y z
#    x 2.104480 0.000000 0.000000 
#    y 0.000000 2.040050 0.000000 
#    z 0.000000 0.000000 2.024450 
# 
# From -- ./inp_files/8108.got.cif
#   From: 2010.05.17/outbox.cif.g08.bks.cpg/sg23_5_cif.got.tgz:8108.got - 2010.06.04 12:02:01.
