data_PCOD9331916
_publ_section_title
;
Structure prediction by ZEFSAII (Michael W. Deem and Ramdas Pophale) SiO2 
 PCOD9331916
Probable space group: I 2 2 2
;
_chemical_formula_sum "Si O2"
_cell_formula_units_Z 30
_cell_length_a 15.110631
_cell_length_b 17.422946
_cell_length_c 5.171802
_cell_angle_alpha 90.000000
_cell_angle_beta 90.000000
_cell_angle_gamma 90.000000
_cell_volume 1361.589146
_symmetry_space_group_name_H-M "I 2 2 2"
_symmetry_group_IT_number 23
_symmetry_cell_setting 'orthorhombic'
loop_
_space_group_symop_operation_xyz
x,y,z
-x,-y,z
x,-y,-z
-x,y,-z
1/2+x,1/2+y,1/2+z
1/2-x,1/2-y,1/2+z
1/2+x,1/2-y,1/2-z
1/2-x,1/2+y,1/2-z
loop_
_atom_site_type_symbol
_atom_site_label
_atom_site_fract_x
_atom_site_fract_y
_atom_site_fract_z
Si Si1 0.334142 0.571756 0.824557
Si Si2 0.192161 0.243599 0.666547
Si Si3 0.306352 0.000000 0.000000
Si Si4 0.000000 0.000000 0.500000
Si Si5 0.062533 0.386410 0.749025
O O1 0.337860 0.658483 0.919073
O O2 0.262857 0.564174 0.598260
O O3 0.301694 0.500000 0.000000
O O4 0.436695 0.548218 0.810439
O O5 0.251073 0.268685 0.425020
O O6 0.118568 0.307149 0.736753
O O7 0.370169 0.042437 0.205681
O O8 0.000000 0.387098 0.500000
O O9 0.000000 0.391511 0.000000
#
# Coordination Sequence:
#
# PCOD9331916 Si02
#       5
#     8   8   4   2   8
#     4  10  24  46  76 105 149 193 256 305 385 452
#     4  12  25  49  75 105 145 196 250 299 380 447
#     4  12  25  49  76 100 150 210 250 307 389 450
#     4   8  24  42  72 108 140 182 244 322 364 434
#     4  12  29  48  75 115 154 198 257 319 372 444
#
# _framework density 22.033076999999999
#
# number of rings (size 3 to 8) (size 9 to 14) (size 15 to 20)
#    0.800    0.000    2.667    3.600    5.600    1.600 
#    4.800    0.000    0.000    0.000    0.000    0.000 
#    0.000    0.000    0.000    0.000    0.000    0.000 
#
# Total GULP energy -83575.198455 kJ/mol
# GULP energy per Si atom -5571.679897 kJ/mol
# Density = 2.198293 g / cm^3
# Si number density = 22.033077 Si / 1000 Ang^3
#
#
#
# Elastic Constant Matrix: (Units=GPa)
#
#
# Indices 1 2 3 4 5 6 
#
# 1 166.7408 68.1622 67.2668 0.0000 0.0000 0.0000
# 2 68.1622 176.0267 24.5405 0.0000 0.0000 0.0000
# 3 67.2668 24.5405 121.6758 0.0000 0.0000 0.0000
# 4 0.0000 0.0000 0.0000 23.4606 0.0000 0.0000
# 5 0.0000 0.0000 0.0000 0.0000 -38.8947 0.0000
# 6 0.0000 0.0000 0.0000 0.0000 0.0000 107.5234
#
#
#
# Elastic Compliance Matrix: (Units=1/GPa)
#
#
# Indices 1 2 3 4 5 6 
#
# 1 0.008918 -0.002846 -0.004356 0.000000 0.000000 0.000000
# 2 -0.002846 0.006754 0.000211 0.000000 0.000000 0.000000
# 3 -0.004356 0.000211 0.010584 0.000000 0.000000 0.000000
# 4 0.000000 0.000000 0.000000 0.042625 0.000000 0.000000
# 5 0.000000 0.000000 0.000000 0.000000 -0.025710 0.000000
# 6 0.000000 0.000000 0.000000 0.000000 0.000000 0.009300
#
#
# Mechanical properties :
#
#
# Convention : Reuss Voigt Hill
#
# Bulk Modulus (GPa) = 81.47348 87.15358 84.31353
# Shear Modulus (GPa) = 70.87783 38.71612 54.79697
#
# Velocity S-wave (km/s) = 5.67791 4.19642 4.99243
# Velocity P-wave (km/s) = 8.94667 7.94491 8.46063
#
# Compressibility (1/GPa) = 0.01227393
#
# Stress axis : x y z
#
# Youngs Moduli (GPa) = 112.13040 148.07006 94.47990
#
# Poissons Ratio (x) = 0.42141 0.41158
# Poissons Ratio (y) = 0.31913 -0.01996
# Poissons Ratio (z) = 0.48847 -0.03128
#
# Static dielectric constant tensor:
#      x y z
#    x 1.879260 0.000000 0.000000 
#    y 0.000000 2.113630 0.000000 
#    z 0.000000 0.000000 1.865980 
# 
# From -- ./inp_files/2134.got.cif
#   From: 2010.05.17/outbox.cif.g08.bks.cpg/sg23_2_cif.got.tgz:2134.got - 2010.06.04 12:02:01.
