data_PCOD9331925
_publ_section_title
;
Structure prediction by ZEFSAII (Michael W. Deem and Ramdas Pophale) SiO2 
 PCOD9331925
Probable space group: I 2 2 2
;
_chemical_formula_sum "Si O2"
_cell_formula_units_Z 32
_cell_length_a 6.748667
_cell_length_b 12.868727
_cell_length_c 11.262086
_cell_angle_alpha 90.000000
_cell_angle_beta 90.000000
_cell_angle_gamma 90.000000
_cell_volume 978.075604
_symmetry_space_group_name_H-M "I 2 2 2"
_symmetry_group_IT_number 23
_symmetry_cell_setting 'orthorhombic'
loop_
_space_group_symop_operation_xyz
x,y,z
-x,-y,z
x,-y,-z
-x,y,-z
1/2+x,1/2+y,1/2+z
1/2-x,1/2-y,1/2+z
1/2+x,1/2-y,1/2-z
1/2-x,1/2+y,1/2-z
loop_
_atom_site_type_symbol
_atom_site_label
_atom_site_fract_x
_atom_site_fract_y
_atom_site_fract_z
Si Si1 0.624269 0.372457 0.593952
Si Si2 0.250000 0.662544 1.000000
Si Si3 0.375731 0.127544 0.093952
Si Si4 0.750000 0.500000 0.814406
O O1 0.638059 0.246917 0.585350
O O2 0.623269 0.396480 0.437382
O O3 0.635409 0.424093 0.722662
O O4 0.876731 0.396480 0.562618
O O5 0.346854 0.583042 0.094022
O O6 0.361942 0.746917 0.914650
O O7 0.153145 0.583042 0.905978
O O8 0.364590 0.075907 0.222662
#
# Coordination Sequence:
#
# PCOD9331925 Si02
#       4
#     8   8   8   8
#     4  10  24  48  67 104 142 185 237 294 355 423
#     4   9  24  47  70 110 140 191 238 299 364 426
#     4  10  24  48  67 104 142 185 237 294 355 423
#     4  11  21  48  76 102 145 193 238 298 362 437
#
# _framework density 32.717306999999998
#
# number of rings (size 3 to 8) (size 9 to 14) (size 15 to 20)
#    1.500    0.500    0.000    2.250    0.000    4.000 
#   27.000    2.500    0.000    0.000    0.000    0.000 
#    0.000    0.000    0.000    0.000    0.000    0.000 
#
# Total GULP energy -89175.263811 kJ/mol
# GULP energy per Si atom -5573.453988 kJ/mol
# Density = 3.264284 g / cm^3
# Si number density = 32.717307 Si / 1000 Ang^3
#
#
#
# Elastic Constant Matrix: (Units=GPa)
#
#
# Indices 1 2 3 4 5 6 
#
# 1 228.0188 69.6495 136.3227 0.0000 0.0000 0.0000
# 2 69.6495 295.2986 208.5638 0.0000 0.0000 0.0000
# 3 136.3227 208.5638 348.8557 0.0000 0.0000 0.0000
# 4 0.0000 0.0000 0.0000 95.7428 0.0000 0.0000
# 5 0.0000 0.0000 0.0000 0.0000 98.6123 0.0000
# 6 0.0000 0.0000 0.0000 0.0000 0.0000 81.4329
#
#
#
# Elastic Compliance Matrix: (Units=1/GPa)
#
#
# Indices 1 2 3 4 5 6 
#
# 1 0.005750 0.000399 -0.002486 0.000000 0.000000 0.000000
# 2 0.000399 0.005889 -0.003677 0.000000 0.000000 0.000000
# 3 -0.002486 -0.003677 0.006036 0.000000 0.000000 0.000000
# 4 0.000000 0.000000 0.000000 0.010445 0.000000 0.000000
# 5 0.000000 0.000000 0.000000 0.000000 0.010141 0.000000
# 6 0.000000 0.000000 0.000000 0.000000 0.000000 0.012280
#
#
# Mechanical properties :
#
#
# Convention : Reuss Voigt Hill
#
# Bulk Modulus (GPa) = 162.63721 189.02725 175.83223
# Shear Modulus (GPa) = 77.98384 85.66674 81.82529
#
# Velocity S-wave (km/s) = 4.88747 5.12257 5.00640
# Velocity P-wave (km/s) = 9.03701 9.63790 9.34229
#
# Compressibility (1/GPa) = 0.00614865
#
# Stress axis : x y z
#
# Youngs Moduli (GPa) = 173.92465 169.80474 165.67180
#
# Poissons Ratio (x) = -0.06782 0.41179
# Poissons Ratio (y) = -0.06946 0.60916
# Poissons Ratio (z) = 0.43230 0.62435
#
# Static dielectric constant tensor:
#      x y z
#    x 3.171400 0.000000 0.000000 
#    y 0.000000 2.219390 0.000000 
#    z 0.000000 0.000000 2.267690 
# 
# From -- ./inp_files/15275.got.cif
#   From: 2010.05.17/outbox.cif.g08.bks.cpg/sg23_8_cif.got.tgz:15275.got - 2010.06.04 12:02:01.
