data_PCOD9331857
_publ_section_title
;
Structure prediction by ZEFSAII (Michael W. Deem and Ramdas Pophale) SiO2 
 PCOD9331857
Probable space group: I 2 2 2
;
_chemical_formula_sum "Si O2"
_cell_formula_units_Z 30
_cell_length_a 14.239755
_cell_length_b 16.893558
_cell_length_c 5.313681
_cell_angle_alpha 90.000000
_cell_angle_beta 90.000000
_cell_angle_gamma 90.000000
_cell_volume 1278.259776
_symmetry_space_group_name_H-M "I 2 2 2"
_symmetry_group_IT_number 23
_symmetry_cell_setting 'orthorhombic'
loop_
_space_group_symop_operation_xyz
x,y,z
-x,-y,z
x,-y,-z
-x,y,-z
1/2+x,1/2+y,1/2+z
1/2-x,1/2-y,1/2+z
1/2+x,1/2-y,1/2-z
1/2-x,1/2+y,1/2-z
loop_
_atom_site_type_symbol
_atom_site_label
_atom_site_fract_x
_atom_site_fract_y
_atom_site_fract_z
Si Si1 0.500000 0.000000 0.000000
Si Si2 0.206520 0.310866 0.761813
Si Si3 0.179415 0.000000 0.000000
Si Si4 0.834678 0.410227 0.742859
Si Si5 0.890906 0.174377 0.984607
O O1 0.566250 0.050298 0.184061
O O2 0.180981 0.355788 0.505138
O O3 0.319916 0.303722 0.743560
O O4 0.173351 0.362424 0.999912
O O5 0.157914 0.225833 0.795222
O O6 0.118444 0.079224 0.014857
O O7 0.252932 0.976859 0.221116
O O8 0.000000 0.195753 0.000000
#
# Coordination Sequence:
#
# PCOD9331857 Si02
#       5
#     2   8   4   8   8
#     4  10  24  42  78 114 150 208 258 298 410 458
#     4  11  25  47  69 109 150 195 256 318 376 450
#     4   9  21  43  65 106 142 188 246 306 368 430
#     4  10  24  44  73 103 155 194 245 323 372 459
#     4  11  24  45  77 106 148 203 250 313 381 454
#
# _framework density 23.469407
#
# number of rings (size 3 to 8) (size 9 to 14) (size 15 to 20)
#    0.000    1.600    0.000    3.600    3.733   10.667 
#    0.000   16.000    0.000   22.400    0.000    0.000 
#    0.000    0.000    0.000    0.000    0.000    0.000 
#
# Total GULP energy -83723.527421 kJ/mol
# GULP energy per Si atom -5581.568495 kJ/mol
# Density = 2.341599 g / cm^3
# Si number density = 23.469407 Si / 1000 Ang^3
#
#
#
# Elastic Constant Matrix: (Units=GPa)
#
#
# Indices 1 2 3 4 5 6 
#
# 1 214.0277 60.4339 53.9497 0.0000 0.0000 0.0000
# 2 60.4339 153.1905 70.7751 0.0000 0.0000 0.0000
# 3 53.9497 70.7751 173.5808 0.0000 0.0000 0.0000
# 4 0.0000 0.0000 0.0000 42.9098 0.0000 0.0000
# 5 0.0000 0.0000 0.0000 0.0000 21.4004 0.0000
# 6 0.0000 0.0000 0.0000 0.0000 0.0000 32.2143
#
#
#
# Elastic Compliance Matrix: (Units=1/GPa)
#
#
# Indices 1 2 3 4 5 6 
#
# 1 0.005394 -0.001668 -0.000997 0.000000 0.000000 0.000000
# 2 -0.001668 0.008558 -0.002971 0.000000 0.000000 0.000000
# 3 -0.000997 -0.002971 0.007282 0.000000 0.000000 0.000000
# 4 0.000000 0.000000 0.000000 0.023305 0.000000 0.000000
# 5 0.000000 0.000000 0.000000 0.000000 0.046728 0.000000
# 6 0.000000 0.000000 0.000000 0.000000 0.000000 0.031042
#
#
# Mechanical properties :
#
#
# Convention : Reuss Voigt Hill
#
# Bulk Modulus (GPa) = 100.36141 101.23515 100.79828
# Shear Modulus (GPa) = 36.52235 43.01427 39.76831
#
# Velocity S-wave (km/s) = 3.94911 4.28574 4.12087
# Velocity P-wave (km/s) = 7.97806 8.22914 8.10457
#
# Compressibility (1/GPa) = 0.00996399
#
# Stress axis : x y z
#
# Youngs Moduli (GPa) = 185.37747 116.84350 137.31996
#
# Poissons Ratio (x) = 0.19485 0.13686
# Poissons Ratio (y) = 0.30914 0.40802
# Poissons Ratio (z) = 0.18476 0.34717
#
# Static dielectric constant tensor:
#      x y z
#    x 1.899080 0.000000 0.000000 
#    y 0.000000 2.003430 0.000000 
#    z 0.000000 0.000000 1.902110 
# 
# From -- ./inp_files/2141.got.cif
#   From: 2010.05.17/outbox.cif.g08.bks.cpg/sg23_2_cif.got.tgz:2141.got - 2010.06.04 12:02:01.
