data_PCOD9331440
_publ_section_title
;
Structure prediction by ZEFSAII (Michael W. Deem and Ramdas Pophale) SiO2 
 PCOD9331440
Probable space group: I 2 2 2
;
_chemical_formula_sum "Si O2"
_cell_formula_units_Z 40
_cell_length_a 17.681029
_cell_length_b 6.802389
_cell_length_c 16.289898
_cell_angle_alpha 90.000000
_cell_angle_beta 90.000000
_cell_angle_gamma 90.000000
_cell_volume 1959.238766
_symmetry_space_group_name_H-M "I 2 2 2"
_symmetry_group_IT_number 23
_symmetry_cell_setting 'orthorhombic'
loop_
_space_group_symop_operation_xyz
x,y,z
-x,-y,z
x,-y,-z
-x,y,-z
1/2+x,1/2+y,1/2+z
1/2-x,1/2-y,1/2+z
1/2+x,1/2-y,1/2-z
1/2-x,1/2+y,1/2-z
loop_
_atom_site_type_symbol
_atom_site_label
_atom_site_fract_x
_atom_site_fract_y
_atom_site_fract_z
Si Si1 0.681039 0.391437 0.417755
Si Si2 0.587013 0.962613 0.598396
Si Si3 0.943002 0.347821 0.437056
Si Si4 0.806262 0.137937 0.362330
Si Si5 0.217170 0.723305 0.178805
O O1 0.657065 0.500000 0.500000
O O2 0.612383 0.261063 0.384095
O O3 0.712433 0.565038 0.362107
O O4 0.747955 0.231445 0.428089
O O5 0.643706 0.101840 0.648663
O O6 0.500000 0.000000 0.618395
O O7 0.596782 0.000000 0.500000
O O8 0.900044 0.500000 0.500000
O O9 0.889002 0.207857 0.387730
O O10 0.000000 0.500000 0.389895
O O11 0.000000 0.240341 0.500000
O O12 0.784725 0.237830 0.275599
O O13 0.788102 0.908650 0.350215
#
# Coordination Sequence:
#
# PCOD9331440 Si02
#       5
#     8   8   8   8   8
#     4  11  22  39  64  94 125 172 218 271 332 392
#     4  10  22  41  61  92 126 163 219 265 324 409
#     4   6  16  35  62  97 115 180 225 267 348 377
#     4  11  20  38  63  94 138 160 232 277 333 411
#     4  11  23  36  60 101 122 178 208 280 345 380
#
# _framework density 20.416091999999999
#
# number of rings (size 3 to 8) (size 9 to 14) (size 15 to 20)
#    1.200    1.000    4.000    0.600    0.000    1.600 
#    0.000    0.000    0.000    2.400    0.000    0.000 
#    0.000    0.000    0.000    0.000    0.000    0.000 
#
# Total GULP energy -111372.968938 kJ/mol
# GULP energy per Si atom -5568.648447 kJ/mol
# Density = 2.036962 g / cm^3
# Si number density = 20.416092 Si / 1000 Ang^3
#
#
#
# Elastic Constant Matrix: (Units=GPa)
#
#
# Indices 1 2 3 4 5 6 
#
# 1 95.3184 49.1039 8.3223 0.0000 0.0000 0.0000
# 2 49.1039 142.4068 33.0255 0.0000 0.0000 0.0000
# 3 8.3223 33.0255 19.4594 0.0000 0.0000 0.0000
# 4 0.0000 0.0000 0.0000 26.8362 0.0000 0.0000
# 5 0.0000 0.0000 0.0000 0.0000 22.4692 0.0000
# 6 0.0000 0.0000 0.0000 0.0000 0.0000 27.1197
#
#
#
# Elastic Compliance Matrix: (Units=1/GPa)
#
#
# Indices 1 2 3 4 5 6 
#
# 1 0.012888 -0.005220 0.003348 0.000000 0.000000 0.000000
# 2 -0.005220 0.013694 -0.021009 0.000000 0.000000 0.000000
# 3 0.003348 -0.021009 0.085612 0.000000 0.000000 0.000000
# 4 0.000000 0.000000 0.000000 0.037263 0.000000 0.000000
# 5 0.000000 0.000000 0.000000 0.000000 0.044505 0.000000
# 6 0.000000 0.000000 0.000000 0.000000 0.000000 0.036874
#
#
# Mechanical properties :
#
#
# Convention : Reuss Voigt Hill
#
# Bulk Modulus (GPa) = 15.05293 48.67643 31.86468
# Shear Modulus (GPa) = 16.73679 26.40056 21.56867
#
# Velocity S-wave (km/s) = 2.86629 3.59991 3.25384
# Velocity P-wave (km/s) = 4.28290 6.41662 5.45510
#
# Compressibility (1/GPa) = 0.06643227
#
# Stress axis : x y z
#
# Youngs Moduli (GPa) = 77.59039 73.02286 11.68059
#
# Poissons Ratio (x) = 0.38121 -0.03911
# Poissons Ratio (y) = 0.40506 0.24539
# Poissons Ratio (z) = -0.25977 1.53412
#
# Static dielectric constant tensor:
#      x y z
#    x 1.738490 0.000000 0.000000 
#    y 0.000000 1.771240 0.000000 
#    z 0.000000 0.000000 1.798360 
# 
# From -- ./inp_files/22290.got.cif
#   From: 2010.05.17/outbox.cif.g08.bks.cpg/sg23_12_cif.got.tgz:22290.got - 2010.06.04 12:02:01.
