data_PCOD9331095
_publ_section_title
;
Structure prediction by ZEFSAII (Michael W. Deem and Ramdas Pophale) SiO2 
 PCOD9331095
Probable space group: I 2 2 2
;
_chemical_formula_sum "Si O2"
_cell_formula_units_Z 38
_cell_length_a 12.322788
_cell_length_b 26.691921
_cell_length_c 4.948301
_cell_angle_alpha 90.000000
_cell_angle_beta 90.000000
_cell_angle_gamma 90.000000
_cell_volume 1627.589642
_symmetry_space_group_name_H-M "I 2 2 2"
_symmetry_group_IT_number 23
_symmetry_cell_setting 'orthorhombic'
loop_
_space_group_symop_operation_xyz
x,y,z
-x,-y,z
x,-y,-z
-x,y,-z
1/2+x,1/2+y,1/2+z
1/2-x,1/2-y,1/2+z
1/2+x,1/2-y,1/2-z
1/2-x,1/2+y,1/2-z
loop_
_atom_site_type_symbol
_atom_site_label
_atom_site_fract_x
_atom_site_fract_y
_atom_site_fract_z
Si Si1 0.500000 0.879506 0.500000
Si Si2 0.000000 0.000000 0.000000
Si Si3 0.147073 0.000000 0.500000
Si Si4 0.500000 0.302334 0.500000
Si Si5 0.296966 0.653490 0.725535
Si Si6 0.599253 0.214165 0.199868
Si Si7 0.723186 0.093877 0.723552
O O1 0.436718 0.839970 0.314423
O O2 0.406205 0.908187 0.663853
O O3 0.079807 0.977674 0.237678
O O4 0.218753 0.043540 0.370019
O O5 0.575803 0.336229 0.687690
O O6 0.586170 0.263297 0.377145
O O7 0.223260 0.701585 0.642137
O O8 0.254704 0.609849 0.524919
O O9 0.272090 0.637642 0.031716
O O10 0.500000 0.224079 0.000000
#
# Coordination Sequence:
#
# PCOD9331095 Si02
#       7
#     4   2   4   4   8   8   8
#     4   9  20  41  62  98 130 173 200 274 332 393
#     4  10  24  44  64  94 132 170 220 264 340 386
#     4  11  24  45  74  98 126 181 224 277 334 416
#     4  11  28  37  66  94 130 174 230 278 312 398
#     4  11  26  43  64  99 135 174 221 281 332 393
#     4  10  21  40  64  87 130 178 209 260 333 394
#     4  11  24  43  69  97 134 169 226 272 343 398
#
# _framework density 23.347405999999999
#
# number of rings (size 3 to 8) (size 9 to 14) (size 15 to 20)
#    0.000    1.474    2.105    1.263    5.895    5.474 
#    0.000    0.000    0.000    3.789    0.000    0.000 
#    0.000    0.000    0.000    0.000    0.000    0.000 
#
# Total GULP energy -105816.540644 kJ/mol
# GULP energy per Si atom -5569.291613 kJ/mol
# Density = 2.329427 g / cm^3
# Si number density = 23.347406 Si / 1000 Ang^3
#
#
#
# Elastic Constant Matrix: (Units=GPa)
#
#
# Indices 1 2 3 4 5 6 
#
# 1 127.3871 21.2652 6.2128 0.0334 -0.0589 0.3176
# 2 21.2652 46.9922 -0.1939 0.0280 -0.0286 0.1733
# 3 6.2128 -0.1939 72.1521 0.0346 -0.1239 0.6883
# 4 0.0334 0.0280 0.0346 35.6768 -0.0131 0.1195
# 5 -0.0589 -0.0286 -0.1239 -0.0131 36.9631 -0.1878
# 6 0.3176 0.1733 0.6883 0.1195 -0.1878 5.1707
#
#
#
# Elastic Compliance Matrix: (Units=1/GPa)
#
#
# Indices 1 2 3 4 5 6 
#
# 1 0.008532 -0.003863 -0.000742 -0.000003 0.000007 -0.000295
# 2 -0.003863 0.023032 0.000400 -0.000013 0.000010 -0.000587
# 3 -0.000742 0.000400 0.013942 -0.000007 0.000037 -0.001822
# 4 -0.000003 -0.000013 -0.000007 0.028032 0.000007 -0.000646
# 5 0.000007 0.000010 0.000037 0.000007 0.027059 0.000977
# 6 -0.000295 -0.000587 -0.001822 -0.000646 0.000977 0.193727
#
#
# Mechanical properties :
#
#
# Convention : Reuss Voigt Hill
#
# Bulk Modulus (GPa) = 26.95703 33.45552 30.20628
# Shear Modulus (GPa) = 15.86803 30.17862 23.02332
#
# Velocity S-wave (km/s) = 2.60984 3.59916 3.14366
# Velocity P-wave (km/s) = 4.54453 5.62428 5.11299
#
# Compressibility (1/GPa) = 0.03709607
#
# Stress axis : x y z
#
# Youngs Moduli (GPa) = 117.20763 43.41783 71.72550
#
# Poissons Ratio (x) = 0.16772 0.05323
# Poissons Ratio (y) = 0.45276 -0.02870
# Poissons Ratio (z) = 0.08699 -0.01737
#
# Static dielectric constant tensor:
#      x y z
#    x 2.034160 0.000000 0.000130 
#    y 0.000000 1.857430 -0.001130 
#    z 0.000130 -0.001130 0.490450 
# 
# From -- ./inp_files/1782.got.cif
#   From: 2010.05.17/outbox.cif.g08.bks.cpg/sg23_1_cif.got.tgz:1782.got - 2010.06.04 12:02:01.
