data_PCOD9331768
_publ_section_title
;
Structure prediction by ZEFSAII (Michael W. Deem and Ramdas Pophale) SiO2 
 PCOD9331768
Probable space group: I 2 2 2
;
_chemical_formula_sum "Si O2"
_cell_formula_units_Z 28
_cell_length_a 5.507549
_cell_length_b 7.191932
_cell_length_c 31.424366
_cell_angle_alpha 90.000000
_cell_angle_beta 90.000000
_cell_angle_gamma 90.000000
_cell_volume 1244.716557
_symmetry_space_group_name_H-M "I 2 2 2"
_symmetry_group_IT_number 23
_symmetry_cell_setting 'orthorhombic'
loop_
_space_group_symop_operation_xyz
x,y,z
-x,-y,z
x,-y,-z
-x,y,-z
1/2+x,1/2+y,1/2+z
1/2-x,1/2-y,1/2+z
1/2+x,1/2-y,1/2-z
1/2-x,1/2+y,1/2-z
loop_
_atom_site_type_symbol
_atom_site_label
_atom_site_fract_x
_atom_site_fract_y
_atom_site_fract_z
Si Si1 0.744164 0.619262 0.892652
Si Si2 0.248508 0.788551 0.017633
Si Si3 0.500000 0.000000 0.743294
Si Si4 0.651473 0.659609 0.312689
O O1 0.500000 0.500000 0.899680
O O2 0.761291 0.762000 0.931899
O O3 0.703201 0.729978 0.848574
O O4 0.000000 0.500000 0.890280
O O5 0.500000 0.707306 0.000000
O O6 0.000000 0.703462 0.000000
O O7 0.248609 0.000000 0.000000
O O8 0.481285 0.822294 0.713134
O O9 0.715086 0.956569 0.775929
O O10 0.500000 0.500000 0.336141
#
# Coordination Sequence:
#
# PCOD9331768 Si02
#       4
#     8   8   4   8
#     4  12  29  48  75 114 154 193 254 318 378 450
#     4  10  23  45  74 104 144 191 248 295 374 450
#     4  12  26  48  72 110 150 202 260 308 380 456
#     4  12  28  46  77 107 154 203 256 315 383 452
#
# _framework density 22.495080000000002
#
# number of rings (size 3 to 8) (size 9 to 14) (size 15 to 20)
#    0.000    0.571    4.286    1.714   12.000    5.714 
#    0.000    0.000    0.000    0.000    0.000    0.000 
#    0.000    0.000    0.000    0.000    0.000    0.000 
#
# Total GULP energy -78133.332000 kJ/mol
# GULP energy per Si atom -5580.952286 kJ/mol
# Density = 2.244388 g / cm^3
# Si number density = 22.495080 Si / 1000 Ang^3
#
#
#
# Elastic Constant Matrix: (Units=GPa)
#
#
# Indices 1 2 3 4 5 6 
#
# 1 131.7215 31.5503 11.2255 0.0000 0.0000 0.0000
# 2 31.5503 146.6305 32.0038 0.0000 0.0000 0.0000
# 3 11.2255 32.0038 133.9616 0.0000 0.0000 0.0000
# 4 0.0000 0.0000 0.0000 110.7419 0.0000 0.0000
# 5 0.0000 0.0000 0.0000 0.0000 48.6880 0.0000
# 6 0.0000 0.0000 0.0000 0.0000 0.0000 -2.1476
#
#
#
# Elastic Compliance Matrix: (Units=1/GPa)
#
#
# Indices 1 2 3 4 5 6 
#
# 1 0.008014 -0.001665 -0.000274 0.000000 0.000000 0.000000
# 2 -0.001665 0.007541 -0.001662 0.000000 0.000000 0.000000
# 3 -0.000274 -0.001662 0.007885 0.000000 0.000000 0.000000
# 4 0.000000 0.000000 0.000000 0.009030 0.000000 0.000000
# 5 0.000000 0.000000 0.000000 0.000000 0.020539 0.000000
# 6 0.000000 0.000000 0.000000 0.000000 0.000000 -0.465626
#
#
# Mechanical properties :
#
#
# Convention : Reuss Voigt Hill
#
# Bulk Modulus (GPa) = 61.58186 62.43030 62.00608
# Shear Modulus (GPa) = -12.49987 53.95872 20.72942
#
# Velocity S-wave (km/s) = -2.35983 4.90296 3.03893
# Velocity P-wave (km/s) = 4.47326 7.73725 6.31962
#
# Compressibility (1/GPa) = 0.01623855
#
# Stress axis : x y z
#
# Youngs Moduli (GPa) = 124.78459 132.61233 126.82567
#
# Poissons Ratio (x) = 0.22074 0.03473
# Poissons Ratio (y) = 0.20771 0.21079
# Poissons Ratio (z) = 0.03417 0.22041
#
# Static dielectric constant tensor:
#      x y z
#    x 1.723230 0.000000 0.000000 
#    y 0.000000 1.617850 0.000000 
#    z 0.000000 0.000000 1.886020 
# 
# From -- ./inp_files/28807.got.cif
#   From: 2010.05.17/outbox.cif.g08.bks.cpg/sg23_15_cif.got.tgz:28807.got - 2010.06.04 12:02:01.
