data_PCOD9331159
_publ_section_title
;
Structure prediction by ZEFSAII (Michael W. Deem and Ramdas Pophale) SiO2 
 PCOD9331159
Probable space group: I 2 2 2
;
_chemical_formula_sum "Si O2"
_cell_formula_units_Z 48
_cell_length_a 14.946315
_cell_length_b 14.512068
_cell_length_c 9.832626
_cell_angle_alpha 90.000000
_cell_angle_beta 90.000000
_cell_angle_gamma 90.000000
_cell_volume 2132.715651
_symmetry_space_group_name_H-M "I 2 2 2"
_symmetry_group_IT_number 23
_symmetry_cell_setting 'orthorhombic'
loop_
_space_group_symop_operation_xyz
x,y,z
-x,-y,z
x,-y,-z
-x,y,-z
1/2+x,1/2+y,1/2+z
1/2-x,1/2-y,1/2+z
1/2+x,1/2-y,1/2-z
1/2-x,1/2+y,1/2-z
loop_
_atom_site_type_symbol
_atom_site_label
_atom_site_fract_x
_atom_site_fract_y
_atom_site_fract_z
Si Si1 0.158456 0.739649 0.281580
Si Si2 0.599613 0.540955 0.634084
Si Si3 0.397874 0.966916 0.851436
Si Si4 0.849526 0.426535 0.901574
Si Si5 0.146448 0.933878 0.390823
Si Si6 0.655354 0.266252 0.452684
O O1 0.111886 0.641334 0.314157
O O2 0.112747 0.832894 0.343973
O O3 0.253120 0.729160 0.362593
O O4 0.168739 0.759655 0.117907
O O5 0.500000 0.500000 0.646058
O O6 0.644478 0.500000 0.500000
O O7 0.650437 0.501836 0.762590
O O8 0.598699 0.648232 0.602082
O O9 0.500000 0.000000 0.838336
O O10 0.345916 0.028659 0.744076
O O11 0.368231 0.000000 0.000000
O O12 0.746194 0.412922 0.947496
O O13 0.893069 0.327823 0.909796
O O14 0.893337 0.500000 0.000000
O O15 0.099355 0.000000 0.500000
#
# Coordination Sequence:
#
# PCOD9331159 Si02
#       6
#     8   8   8   8   8   8
#     4  11  24  43  70 104 135 174 231 289 341 396
#     4  11  24  42  63  95 134 184 226 266 343 405
#     4  11  26  44  64  95 140 186 226 270 343 410
#     4  10  21  41  65 100 130 171 230 283 337 390
#     4  10  23  41  68  99 137 173 226 288 339 402
#     4  11  24  41  71 103 134 176 228 288 337 401
#
# _framework density 22.506515
#
# number of rings (size 3 to 8) (size 9 to 14) (size 15 to 20)
#    0.000    1.333    3.333    1.000    9.333    3.333 
#    0.000    1.667    0.000    0.000    0.000    0.000 
#    0.000    0.000    0.000    0.000    0.000    0.000 
#
# Total GULP energy -133820.968294 kJ/mol
# GULP energy per Si atom -5575.873679 kJ/mol
# Density = 2.245529 g / cm^3
# Si number density = 22.506515 Si / 1000 Ang^3
#
#
#
# Elastic Constant Matrix: (Units=GPa)
#
#
# Indices 1 2 3 4 5 6 
#
# 1 67.2943 31.0324 21.5446 0.0000 0.0000 0.0000
# 2 31.0324 270.3703 75.7947 0.0000 0.0000 0.0000
# 3 21.5446 75.7947 144.7467 0.0000 0.0000 0.0000
# 4 0.0000 0.0000 0.0000 40.7071 0.0000 0.0000
# 5 0.0000 0.0000 0.0000 0.0000 19.6537 0.0000
# 6 0.0000 0.0000 0.0000 0.0000 0.0000 294.5531
#
#
#
# Elastic Compliance Matrix: (Units=1/GPa)
#
#
# Indices 1 2 3 4 5 6 
#
# 1 0.016027 -0.001372 -0.001667 0.000000 0.000000 0.000000
# 2 -0.001372 0.004452 -0.002127 0.000000 0.000000 0.000000
# 3 -0.001667 -0.002127 0.008271 0.000000 0.000000 0.000000
# 4 0.000000 0.000000 0.000000 0.024566 0.000000 0.000000
# 5 0.000000 0.000000 0.000000 0.000000 0.050881 0.000000
# 6 0.000000 0.000000 0.000000 0.000000 0.000000 0.003395
#
#
# Mechanical properties :
#
#
# Convention : Reuss Voigt Hill
#
# Bulk Modulus (GPa) = 54.29778 82.12832 68.21305
# Shear Modulus (GPa) = 40.30210 94.58543 67.44377
#
# Velocity S-wave (km/s) = 4.23624 6.48976 5.48009
# Velocity P-wave (km/s) = 6.93580 9.62944 8.39141
#
# Compressibility (1/GPa) = 0.01841696
#
# Stress axis : x y z
#
# Youngs Moduli (GPa) = 62.39646 224.59446 120.90978
#
# Poissons Ratio (x) = 0.30819 0.20155
# Poissons Ratio (y) = 0.08562 0.25720
# Poissons Ratio (z) = 0.10401 0.47777
#
# Static dielectric constant tensor:
#      x y z
#    x 1.919900 0.000000 0.000000 
#    y 0.000000 1.755090 0.000000 
#    z 0.000000 0.000000 1.317010 
# 
# From -- ./inp_files/11045.got.cif
#   From: 2010.05.17/outbox.cif.g08.bks.cpg/sg23_6_cif.got.tgz:11045.got - 2010.06.04 12:02:01.
