data_PCOD9331982
_publ_section_title
;
Structure prediction by ZEFSAII (Michael W. Deem and Ramdas Pophale) SiO2 
 PCOD9331982
Probable space group: I 2 2 2
;
_chemical_formula_sum "Si O2"
_cell_formula_units_Z 40
_cell_length_a 18.018808
_cell_length_b 11.064642
_cell_length_c 8.853804
_cell_angle_alpha 90.000000
_cell_angle_beta 90.000000
_cell_angle_gamma 90.000000
_cell_volume 1765.197599
_symmetry_space_group_name_H-M "I 2 2 2"
_symmetry_group_IT_number 23
_symmetry_cell_setting 'orthorhombic'
loop_
_space_group_symop_operation_xyz
x,y,z
-x,-y,z
x,-y,-z
-x,y,-z
1/2+x,1/2+y,1/2+z
1/2-x,1/2-y,1/2+z
1/2+x,1/2-y,1/2-z
1/2-x,1/2+y,1/2-z
loop_
_atom_site_type_symbol
_atom_site_label
_atom_site_fract_x
_atom_site_fract_y
_atom_site_fract_z
Si Si1 0.839413 0.159585 0.698598
Si Si2 0.876301 0.922953 0.851660
Si Si3 0.002588 0.230669 0.671671
Si Si4 0.500000 0.000000 0.745878
Si Si5 0.271982 0.236968 0.514018
Si Si6 0.127695 0.500000 0.000000
O O1 0.920315 0.209909 0.735809
O O2 0.810694 0.204417 0.537520
O O3 0.846094 0.017515 0.728055
O O4 0.781045 0.214295 0.817326
O O5 0.809820 0.841644 0.914658
O O6 0.939535 0.840436 0.776669
O O7 0.902374 0.000000 0.000000
O O8 0.000000 0.182644 0.500000
O O9 0.015012 0.374538 0.669283
O O10 0.427651 0.015620 0.640759
O O11 0.320756 0.117140 0.489544
#
# Coordination Sequence:
#
# PCOD9331982 Si02
#       6
#     8   8   8   4   8   4
#     4  11  27  44  71 103 145 192 236 299 369 432
#     4  10  25  48  74 103 143 193 242 306 365 440
#     4  12  26  46  73 111 146 187 245 306 370 432
#     4  11  23  44  72 108 137 187 246 304 363 421
#     4  11  25  45  69 104 140 191 244 296 367 439
#     4  11  22  40  76  94 137 190 246 296 355 436
#
# _framework density 22.660352
#
# number of rings (size 3 to 8) (size 9 to 14) (size 15 to 20)
#    0.000    1.000    4.000    0.900    5.600    7.200 
#    0.000    2.000    0.000    0.000    0.000    0.000 
#    0.000    0.000    0.000    0.000    0.000    0.000 
#
# Total GULP energy -111909.252897 kJ/mol
# GULP energy per Si atom -5595.462645 kJ/mol
# Density = 2.260878 g / cm^3
# Si number density = 22.660352 Si / 1000 Ang^3
#
#
#
# Elastic Constant Matrix: (Units=GPa)
#
#
# Indices 1 2 3 4 5 6 
#
# 1 55.5318 19.0445 17.9043 0.0000 0.0000 0.0000
# 2 19.0445 137.4304 26.3366 0.0000 0.0000 0.0000
# 3 17.9043 26.3366 67.0060 0.0000 0.0000 0.0000
# 4 0.0000 0.0000 0.0000 29.4838 0.0000 0.0000
# 5 0.0000 0.0000 0.0000 0.0000 2.1165 0.0000
# 6 0.0000 0.0000 0.0000 0.0000 0.0000 19.0531
#
#
#
# Elastic Compliance Matrix: (Units=1/GPa)
#
#
# Indices 1 2 3 4 5 6 
#
# 1 0.020156 -0.001904 -0.004637 0.000000 0.000000 0.000000
# 2 -0.001904 0.008049 -0.002655 0.000000 0.000000 0.000000
# 3 -0.004637 -0.002655 0.017207 0.000000 0.000000 0.000000
# 4 0.000000 0.000000 0.000000 0.033917 0.000000 0.000000
# 5 0.000000 0.000000 0.000000 0.000000 0.472469 0.000000
# 6 0.000000 0.000000 0.000000 0.000000 0.000000 0.052485
#
#
# Mechanical properties :
#
#
# Convention : Reuss Voigt Hill
#
# Bulk Modulus (GPa) = 37.01147 42.94877 39.98012
# Shear Modulus (GPa) = 7.91538 23.24288 15.57913
#
# Velocity S-wave (km/s) = 1.87100 3.20614 2.62488
# Velocity P-wave (km/s) = 4.58651 5.71841 5.18345
#
# Compressibility (1/GPa) = 0.02701865
#
# Stress axis : x y z
#
# Youngs Moduli (GPa) = 49.61317 124.23785 58.11732
#
# Poissons Ratio (x) = 0.23661 0.26950
# Poissons Ratio (y) = 0.09449 0.15429
# Poissons Ratio (z) = 0.23007 0.32983
#
# Static dielectric constant tensor:
#      x y z
#    x 1.808140 0.000000 0.000000 
#    y 0.000000 1.836940 0.000000 
#    z 0.000000 0.000000 1.873090 
# 
# From -- ./inp_files/11847.got.cif
#   From: 2010.05.17/outbox.cif.g08.bks.cpg/sg23_6_cif.got.tgz:11847.got - 2010.06.04 12:02:01.
