data_PCOD9331006
_publ_section_title
;
Structure prediction by ZEFSAII (Michael W. Deem and Ramdas Pophale) SiO2 
 PCOD9331006
Probable space group: I 2 2 2
;
_chemical_formula_sum "Si O2"
_cell_formula_units_Z 48
_cell_length_a 12.944302
_cell_length_b 13.868323
_cell_length_c 13.923366
_cell_angle_alpha 90.000000
_cell_angle_beta 90.000000
_cell_angle_gamma 90.000000
_cell_volume 2499.463645
_symmetry_space_group_name_H-M "I 2 2 2"
_symmetry_group_IT_number 23
_symmetry_cell_setting 'orthorhombic'
loop_
_space_group_symop_operation_xyz
x,y,z
-x,-y,z
x,-y,-z
-x,y,-z
1/2+x,1/2+y,1/2+z
1/2-x,1/2-y,1/2+z
1/2+x,1/2-y,1/2-z
1/2-x,1/2+y,1/2-z
loop_
_atom_site_type_symbol
_atom_site_label
_atom_site_fract_x
_atom_site_fract_y
_atom_site_fract_z
Si Si1 0.722912 0.720792 0.841216
Si Si2 0.174190 0.915288 0.929497
Si Si3 0.881600 0.675991 0.517112
Si Si4 0.881504 0.972986 0.285613
Si Si5 0.883769 0.705097 0.996651
Si Si6 0.281629 0.330232 0.147482
O O1 0.665548 0.793563 0.913906
O O2 0.659044 0.621595 0.840489
O O3 0.739281 0.765495 0.735889
O O4 0.833652 0.702880 0.891348
O O5 0.298626 0.898591 0.937909
O O6 0.138566 0.944966 0.824651
O O7 0.123983 0.815313 0.964600
O O8 0.143832 0.000000 0.000000
O O9 0.867830 0.768374 0.588664
O O10 0.000000 0.647573 0.500000
O O11 0.820315 0.069231 0.312328
O O12 0.000000 0.000000 0.302588
O O13 0.808060 0.651211 0.069893
O O14 0.000000 0.670923 0.000000
#
# Coordination Sequence:
#
# PCOD9331006 Si02
#       6
#     8   8   8   8   8   8
#     4  10  21  41  60  93 132 158 215 267 306 383
#     4  10  22  37  56  97 122 151 219 270 309 376
#     4  10  21  39  62  84 126 174 203 256 322 375
#     4  12  23  37  67  95 122 168 210 266 320 374
#     4  10  23  40  65  86 125 176 205 258 326 374
#     4  10  22  41  58  96 130 158 217 261 315 381
#
# _framework density 19.20412
#
# number of rings (size 3 to 8) (size 9 to 14) (size 15 to 20)
#    0.000    2.000    3.333    3.000    4.667    4.333 
#    0.000    5.833    0.000    0.000    0.000    0.000 
#    0.000    0.000    0.000    0.000    0.000    0.000 
#
# Total GULP energy -133933.584533 kJ/mol
# GULP energy per Si atom -5580.566022 kJ/mol
# Density = 1.916041 g / cm^3
# Si number density = 19.204120 Si / 1000 Ang^3
#
#
#
# Elastic Constant Matrix: (Units=GPa)
#
#
# Indices 1 2 3 4 5 6 
#
# 1 86.6992 5.6151 -5.6913 0.0000 0.0000 0.0000
# 2 5.6151 62.0278 -1.2545 0.0000 0.0000 0.0000
# 3 -5.6913 -1.2545 59.8764 0.0000 0.0000 0.0000
# 4 0.0000 0.0000 0.0000 31.4186 0.0000 0.0000
# 5 0.0000 0.0000 0.0000 0.0000 18.4626 0.0000
# 6 0.0000 0.0000 0.0000 0.0000 0.0000 -26.7230
#
#
#
# Elastic Compliance Matrix: (Units=1/GPa)
#
#
# Indices 1 2 3 4 5 6 
#
# 1 0.011673 -0.001035 0.001088 0.000000 0.000000 0.000000
# 2 -0.001035 0.016220 0.000241 0.000000 0.000000 0.000000
# 3 0.001088 0.000241 0.016810 0.000000 0.000000 0.000000
# 4 0.000000 0.000000 0.000000 0.031828 0.000000 0.000000
# 5 0.000000 0.000000 0.000000 0.000000 0.054164 0.000000
# 6 0.000000 0.000000 0.000000 0.000000 0.000000 -0.037421
#
#
# Mechanical properties :
#
#
# Convention : Reuss Voigt Hill
#
# Bulk Modulus (GPa) = 22.07908 22.88242 22.48075
# Shear Modulus (GPa) = 46.39028 18.62726 32.50877
#
# Velocity S-wave (km/s) = 4.92025 3.11780 4.11883
# Velocity P-wave (km/s) = 6.61819 4.99020 5.86100
#
# Compressibility (1/GPa) = 0.04529174
#
# Stress axis : x y z
#
# Youngs Moduli (GPa) = 85.67105 61.65095 59.49011
#
# Poissons Ratio (x) = 0.06379 -0.06471
# Poissons Ratio (y) = 0.08864 -0.01437
# Poissons Ratio (z) = -0.09319 -0.01489
#
# Static dielectric constant tensor:
#      x y z
#    x 1.679220 0.000000 0.000000 
#    y 0.000000 1.672810 0.000000 
#    z 0.000000 0.000000 1.661050 
# 
# From -- ./inp_files/16706.got.cif
#   From: 2010.05.17/outbox.cif.g08.bks.cpg/sg23_9_cif.got.tgz:16706.got - 2010.06.04 12:02:01.
