data_PCOD9331085
_publ_section_title
;
Structure prediction by ZEFSAII (Michael W. Deem and Ramdas Pophale) SiO2 
 PCOD9331085
Probable space group: I 2 2 2
;
_chemical_formula_sum "Si O2"
_cell_formula_units_Z 64
_cell_length_a 8.391611
_cell_length_b 17.707714
_cell_length_c 20.116838
_cell_angle_alpha 90.000000
_cell_angle_beta 90.000000
_cell_angle_gamma 90.000000
_cell_volume 2989.286640
_symmetry_space_group_name_H-M "I 2 2 2"
_symmetry_group_IT_number 23
_symmetry_cell_setting 'orthorhombic'
loop_
_space_group_symop_operation_xyz
x,y,z
-x,-y,z
x,-y,-z
-x,y,-z
1/2+x,1/2+y,1/2+z
1/2-x,1/2-y,1/2+z
1/2+x,1/2-y,1/2-z
1/2-x,1/2+y,1/2-z
loop_
_atom_site_type_symbol
_atom_site_label
_atom_site_fract_x
_atom_site_fract_y
_atom_site_fract_z
Si Si1 0.676839 0.472505 0.120073
Si Si2 0.138458 0.324462 0.859111
Si Si3 0.623199 0.098884 0.438469
Si Si4 0.166082 0.674746 0.294527
Si Si5 0.649345 0.734358 0.078986
Si Si6 0.707518 0.206501 0.053958
Si Si7 0.825431 0.022221 0.775735
Si Si8 0.907130 0.569970 0.368418
O O1 0.500000 0.500000 0.099978
O O2 0.719792 0.383909 0.121992
O O3 0.806241 0.516786 0.076490
O O4 0.695948 0.494183 0.197534
O O5 0.139453 0.302214 0.781792
O O6 0.159650 0.252418 0.906070
O O7 0.979382 0.370187 0.876596
O O8 0.500000 0.104752 0.500000
O O9 0.777382 0.153982 0.442121
O O10 0.193780 0.742340 0.346044
O O11 0.301289 0.610871 0.289472
O O12 0.020831 0.626921 0.326972
O O13 0.460523 0.749391 0.069729
O O14 0.728426 0.790308 0.024922
O O15 0.685239 0.122632 0.080550
O O16 0.702328 0.972277 0.815781
O O17 0.000000 0.000000 0.796163
O O18 0.000000 0.500000 0.401759
#
# Coordination Sequence:
#
# PCOD9331085 Si02
#       8
#     8   8   8   8   8   8   8   8
#     4  10  22  40  62  86 122 166 214 261 314 383
#     4  11  22  38  60  92 123 156 210 267 320 385
#     4  12  24  41  61  90 127 168 215 269 336 383
#     4   9  20  37  60  85 118 160 205 259 322 382
#     4  10  22  41  58  83 120 163 206 258 315 386
#     4  10  21  40  62  85 122 165 209 259 313 388
#     4   9  18  35  58  91 122 155 201 263 320 380
#     4   9  18  36  61  89 121 162 209 260 322 384
#
# _framework density 21.409789
#
# number of rings (size 3 to 8) (size 9 to 14) (size 15 to 20)
#    0.000    2.000    1.250    1.875    0.000    7.000 
#    0.000   12.500    0.000    0.750    0.000    0.000 
#    0.000    0.000    0.000    0.000    0.000    0.000 
#
# Total GULP energy -178654.858550 kJ/mol
# GULP energy per Si atom -5582.964330 kJ/mol
# Density = 2.136106 g / cm^3
# Si number density = 21.409789 Si / 1000 Ang^3
#
#
#
# Elastic Constant Matrix: (Units=GPa)
#
#
# Indices 1 2 3 4 5 6 
#
# 1 27.8439 7.7005 10.9224 0.0000 0.0000 0.0000
# 2 7.7005 69.3648 24.6734 0.0000 0.0000 0.0000
# 3 10.9224 24.6734 96.0217 0.0000 0.0000 0.0000
# 4 0.0000 0.0000 0.0000 23.9387 0.0000 0.0000
# 5 0.0000 0.0000 0.0000 0.0000 18.9650 0.0000
# 6 0.0000 0.0000 0.0000 0.0000 0.0000 23.9477
#
#
#
# Elastic Compliance Matrix: (Units=1/GPa)
#
#
# Indices 1 2 3 4 5 6 
#
# 1 0.038137 -0.002961 -0.003577 0.000000 0.000000 0.000000
# 2 -0.002961 0.016097 -0.003799 0.000000 0.000000 0.000000
# 3 -0.003577 -0.003799 0.011797 0.000000 0.000000 0.000000
# 4 0.000000 0.000000 0.000000 0.041773 0.000000 0.000000
# 5 0.000000 0.000000 0.000000 0.000000 0.052729 0.000000
# 6 0.000000 0.000000 0.000000 0.000000 0.000000 0.041758
#
#
# Mechanical properties :
#
#
# Convention : Reuss Voigt Hill
#
# Bulk Modulus (GPa) = 22.04809 31.09144 26.56977
# Shear Modulus (GPa) = 21.00095 23.36590 22.18343
#
# Velocity S-wave (km/s) = 3.13534 3.30717 3.22240
# Velocity P-wave (km/s) = 4.84021 5.39784 5.12661
#
# Compressibility (1/GPa) = 0.04535540
#
# Stress axis : x y z
#
# Youngs Moduli (GPa) = 26.22144 62.12449 84.76401
#
# Poissons Ratio (x) = 0.18397 0.30321
# Poissons Ratio (y) = 0.07765 0.32204
# Poissons Ratio (z) = 0.09380 0.23603
#
# Static dielectric constant tensor:
#      x y z
#    x 1.815560 0.000000 0.000000 
#    y 0.000000 1.776860 0.000000 
#    z 0.000000 0.000000 1.773900 
# 
# From -- ./inp_files/26363.got.cif
#   From: 2010.05.17/outbox.cif.g08.bks.cpg/sg23_14_cif.got.tgz:26363.got - 2010.06.04 12:02:01.
