data_PCOD9331968
_publ_section_title
;
Structure prediction by ZEFSAII (Michael W. Deem and Ramdas Pophale) SiO2 
 PCOD9331968
Probable space group: I 2 2 2
;
_chemical_formula_sum "Si O2"
_cell_formula_units_Z 20
_cell_length_a 5.173472
_cell_length_b 11.401505
_cell_length_c 15.328658
_cell_angle_alpha 90.000000
_cell_angle_beta 90.000000
_cell_angle_gamma 90.000000
_cell_volume 904.166516
_symmetry_space_group_name_H-M "I 2 2 2"
_symmetry_group_IT_number 23
_symmetry_cell_setting 'orthorhombic'
loop_
_space_group_symop_operation_xyz
x,y,z
-x,-y,z
x,-y,-z
-x,y,-z
1/2+x,1/2+y,1/2+z
1/2-x,1/2-y,1/2+z
1/2+x,1/2-y,1/2-z
1/2-x,1/2+y,1/2-z
loop_
_atom_site_type_symbol
_atom_site_label
_atom_site_fract_x
_atom_site_fract_y
_atom_site_fract_z
Si Si1 0.256442 0.216251 0.557616
Si Si2 0.500000 0.000000 0.355529
Si Si3 0.240105 0.425799 0.686145
O O1 0.500000 0.256828 0.500000
O O2 0.242694 0.300704 0.641036
O O3 0.000000 0.220743 0.500000
O O4 0.322914 0.085530 0.589049
O O5 0.326296 0.077874 0.289292
O O6 0.500000 0.500000 0.673815
O O7 0.000000 0.500000 0.647740
#
# Coordination Sequence:
#
# PCOD9331968 Si02
#       3
#     8   4   8
#     4  12  28  46  73 109 149 188 243 310 370 428
#     4  10  29  46  75 100 148 196 242 292 359 454
#     4  10  25  45  78 102 144 193 251 292 367 443
#
# _framework density 22.119820000000001
#
# number of rings (size 3 to 8) (size 9 to 14) (size 15 to 20)
#    1.200    0.000    0.000    3.000   11.200    6.400 
#    0.000    0.000    0.000    0.000    0.000    0.000 
#    0.000    0.000    0.000    0.000    0.000    0.000 
#
# Total GULP energy -55942.299912 kJ/mol
# GULP energy per Si atom -5594.229991 kJ/mol
# Density = 2.206947 g / cm^3
# Si number density = 22.119820 Si / 1000 Ang^3
#
#
#
# Elastic Constant Matrix: (Units=GPa)
#
#
# Indices 1 2 3 4 5 6 
#
# 1 178.2163 26.7379 28.4351 0.0000 0.0000 0.0000
# 2 26.7379 61.2094 9.8822 0.0000 0.0000 0.0000
# 3 28.4351 9.8822 45.0568 0.0000 0.0000 0.0000
# 4 0.0000 0.0000 0.0000 50.8709 0.0000 0.0000
# 5 0.0000 0.0000 0.0000 0.0000 -1.7566 0.0000
# 6 0.0000 0.0000 0.0000 0.0000 0.0000 16.3445
#
#
#
# Elastic Compliance Matrix: (Units=1/GPa)
#
#
# Indices 1 2 3 4 5 6 
#
# 1 0.006529 -0.002267 -0.003623 0.000000 0.000000 0.000000
# 2 -0.002267 0.017724 -0.002457 0.000000 0.000000 0.000000
# 3 -0.003623 -0.002457 0.025020 0.000000 0.000000 0.000000
# 4 0.000000 0.000000 0.000000 0.019658 0.000000 0.000000
# 5 0.000000 0.000000 0.000000 0.000000 -0.569275 0.000000
# 6 0.000000 0.000000 0.000000 0.000000 0.000000 0.061183
#
#
# Mechanical properties :
#
#
# Convention : Reuss Voigt Hill
#
# Bulk Modulus (GPa) = 30.69461 46.06587 38.38024
# Shear Modulus (GPa) = -12.14750 27.72023 7.78636
#
# Velocity S-wave (km/s) = -2.34598 3.54388 1.87822
# Velocity P-wave (km/s) = 2.56291 6.13321 4.70025
#
# Compressibility (1/GPa) = 0.03257901
#
# Stress axis : x y z
#
# Youngs Moduli (GPa) = 153.15238 56.41954 39.96844
#
# Poissons Ratio (x) = 0.12792 0.14482
# Poissons Ratio (y) = 0.34723 0.09819
# Poissons Ratio (z) = 0.55494 0.13860
#
# Static dielectric constant tensor:
#      x y z
#    x 1.806570 0.000000 0.000000 
#    y 0.000000 1.782350 0.000000 
#    z 0.000000 0.000000 1.813500 
# 
# From -- ./inp_files/321.got.cif
#   From: 2010.05.17/outbox.cif.g08.bks.cpg/sg23_1_cif.got.tgz:321.got - 2010.06.04 12:02:01.
