data_PCOD9331448
_publ_section_title
;
Structure prediction by ZEFSAII (Michael W. Deem and Ramdas Pophale) SiO2 
 PCOD9331448
Probable space group: I 2 2 2
;
_chemical_formula_sum "Si O2"
_cell_formula_units_Z 40
_cell_length_a 28.171603
_cell_length_b 12.440196
_cell_length_c 5.135850
_cell_angle_alpha 90.000000
_cell_angle_beta 90.000000
_cell_angle_gamma 90.000000
_cell_volume 1799.911341
_symmetry_space_group_name_H-M "I 2 2 2"
_symmetry_group_IT_number 23
_symmetry_cell_setting 'orthorhombic'
loop_
_space_group_symop_operation_xyz
x,y,z
-x,-y,z
x,-y,-z
-x,y,-z
1/2+x,1/2+y,1/2+z
1/2-x,1/2-y,1/2+z
1/2+x,1/2-y,1/2-z
1/2-x,1/2+y,1/2-z
loop_
_atom_site_type_symbol
_atom_site_label
_atom_site_fract_x
_atom_site_fract_y
_atom_site_fract_z
Si Si1 0.874884 0.572099 0.256941
Si Si2 0.619433 0.305574 0.405786
Si Si3 0.765930 0.428722 0.740145
Si Si4 0.328274 0.627052 0.927445
Si Si5 0.021679 0.120443 0.246412
O O1 0.893085 0.500000 0.500000
O O2 0.897406 0.684741 0.163799
O O3 0.819814 0.600662 0.328096
O O4 0.875126 0.500000 0.000000
O O5 0.634850 0.333286 0.701812
O O6 0.577527 0.381983 0.297777
O O7 0.662707 0.323533 0.209018
O O8 0.747438 0.500000 0.500000
O O9 0.723937 0.347338 0.812981
O O10 0.770477 0.500000 0.000000
O O11 0.331810 0.500000 0.000000
O O12 0.000000 0.173431 0.500000
O O13 0.000000 0.000000 0.248721
O O14 0.000000 0.178988 0.000000
#
# Coordination Sequence:
#
# PCOD9331448 Si02
#       5
#     8   8   8   8   8
#     4  10  22  41  64  85 123 166 219 270 298 362
#     4  12  24  38  64  94 117 170 218 248 323 382
#     4   9  18  36  54  83 123 170 202 251 322 345
#     4  11  23  35  57  93 134 161 203 262 303 394
#     4  10  23  40  60  86 123 160 189 249 317 394
#
# _framework density 22.223317999999999
#
# number of rings (size 3 to 8) (size 9 to 14) (size 15 to 20)
#    0.000    1.600    0.000    5.400    8.400    1.600 
#    0.000    0.000    0.000    3.600    0.000    0.000 
#    0.000    0.000    0.000    0.000    0.000    0.000 
#
# Total GULP energy -111410.424613 kJ/mol
# GULP energy per Si atom -5570.521231 kJ/mol
# Density = 2.217274 g / cm^3
# Si number density = 22.223318 Si / 1000 Ang^3
#
#
#
# Elastic Constant Matrix: (Units=GPa)
#
#
# Indices 1 2 3 4 5 6 
#
# 1 46.8970 -3.6258 -8.5261 0.0000 0.0000 0.0000
# 2 -3.6258 96.7242 5.5876 0.0000 0.0000 0.0000
# 3 -8.5261 5.5876 147.6835 0.0001 0.0001 0.0001
# 4 0.0000 0.0000 0.0001 20.1633 0.0000 0.0000
# 5 0.0000 0.0000 0.0001 0.0000 0.3073 0.0000
# 6 0.0000 0.0000 0.0001 0.0000 0.0000 11.3696
#
#
#
# Elastic Compliance Matrix: (Units=1/GPa)
#
#
# Indices 1 2 3 4 5 6 
#
# 1 0.021602 0.000739 0.001219 0.000000 -0.000003 0.000000
# 2 0.000739 0.010387 -0.000350 0.000000 0.000000 0.000000
# 3 0.001219 -0.000350 0.006855 0.000000 -0.000002 0.000000
# 4 0.000000 0.000000 0.000000 0.049595 -0.000005 0.000000
# 5 -0.000003 0.000000 -0.000002 -0.000005 3.254208 0.000012
# 6 0.000000 0.000000 0.000000 0.000000 0.000012 0.087954
#
#
# Mechanical properties :
#
#
# Convention : Reuss Voigt Hill
#
# Bulk Modulus (GPa) = 23.77551 30.90845 27.34198
# Shear Modulus (GPa) = 1.45290 26.22597 13.83943
#
# Velocity S-wave (km/s) = 0.80944 3.43900 2.49819
# Velocity P-wave (km/s) = 3.40518 5.45044 4.54437
#
# Compressibility (1/GPa) = 0.04206009
#
# Stress axis : x y z
#
# Youngs Moduli (GPa) = 46.29171 96.27767 145.88155
#
# Poissons Ratio (x) = -0.07118 -0.17785
# Poissons Ratio (y) = -0.03423 0.05110
# Poissons Ratio (z) = -0.05644 0.03373
#
# Static dielectric constant tensor:
#      x y z
#    x 1.963600 0.000000 0.000000 
#    y 0.000000 1.894260 0.000000 
#    z 0.000000 0.000000 1.818330 
# 
# From -- ./inp_files/4762.got.cif
#   From: 2010.05.17/outbox.cif.g08.bks.cpg/sg23_3_cif.got.tgz:4762.got - 2010.06.04 12:02:01.
