data_PCOD9331359
_publ_section_title
;
Structure prediction by ZEFSAII (Michael W. Deem and Ramdas Pophale) SiO2 
 PCOD9331359
Probable space group: I 2 2 2
;
_chemical_formula_sum "Si O2"
_cell_formula_units_Z 48
_cell_length_a 8.272018
_cell_length_b 8.613362
_cell_length_c 31.511446
_cell_angle_alpha 90.000000
_cell_angle_beta 90.000000
_cell_angle_gamma 90.000000
_cell_volume 2245.186920
_symmetry_space_group_name_H-M "I 2 2 2"
_symmetry_group_IT_number 23
_symmetry_cell_setting 'orthorhombic'
loop_
_space_group_symop_operation_xyz
x,y,z
-x,-y,z
x,-y,-z
-x,y,-z
1/2+x,1/2+y,1/2+z
1/2-x,1/2-y,1/2+z
1/2+x,1/2-y,1/2-z
1/2-x,1/2+y,1/2-z
loop_
_atom_site_type_symbol
_atom_site_label
_atom_site_fract_x
_atom_site_fract_y
_atom_site_fract_z
Si Si1 0.647559 0.905796 0.112987
Si Si2 0.734124 0.628242 0.228956
Si Si3 0.225185 0.231493 0.889263
Si Si4 0.036356 0.820472 0.548799
Si Si5 0.565998 0.677068 0.668236
Si Si6 0.625936 0.706753 0.800843
O O1 0.571891 0.796984 0.077104
O O2 0.761229 0.821543 0.145266
O O3 0.500000 0.000000 0.134095
O O4 0.759025 0.049649 0.098667
O O5 0.887802 0.716208 0.208003
O O6 0.714188 0.449318 0.216165
O O7 0.560679 0.697844 0.213851
O O8 0.774371 0.653862 0.278647
O O9 0.281623 0.307936 0.932798
O O10 0.349483 0.284966 0.851589
O O11 0.057164 0.252847 0.865325
O O12 0.000000 0.782434 0.500000
O O13 0.000000 0.000000 0.555425
O O14 0.500000 0.500000 0.676654
#
# Coordination Sequence:
#
# PCOD9331359 Si02
#       6
#     8   8   8   8   8   8
#     4   9  19  37  64  89 121 167 212 268 329 400
#     4  11  25  42  64  90 132 177 225 287 334 410
#     4  10  22  39  63  95 125 169 224 270 339 400
#     4  10  22  41  66  97 131 170 224 275 340 420
#     4  10  22  40  64  92 131 169 224 278 336 402
#     4  11  26  42  63  96 130 177 228 280 348 401
#
# _framework density 21.379065000000001
#
# number of rings (size 3 to 8) (size 9 to 14) (size 15 to 20)
#    0.000    1.833    0.000    3.000   11.667    5.667 
#    0.000    0.833    0.000    7.000    0.000    0.000 
#    0.000    0.000    0.000    0.000    0.000    0.000 
#
# Total GULP energy -133765.386768 kJ/mol
# GULP energy per Si atom -5573.557782 kJ/mol
# Density = 2.133041 g / cm^3
# Si number density = 21.379065 Si / 1000 Ang^3
#
#
#
# Elastic Constant Matrix: (Units=GPa)
#
#
# Indices 1 2 3 4 5 6 
#
# 1 108.8972 23.6983 49.2088 0.0000 0.0000 0.0000
# 2 23.6983 56.1925 38.0512 0.0000 0.0000 0.0000
# 3 49.2088 38.0512 89.6522 0.0000 0.0000 0.0000
# 4 0.0000 0.0000 0.0000 33.3824 0.0000 0.0000
# 5 0.0000 0.0000 0.0000 0.0000 30.0741 0.0000
# 6 0.0000 0.0000 0.0000 0.0000 0.0000 34.6315
#
#
#
# Elastic Compliance Matrix: (Units=1/GPa)
#
#
# Indices 1 2 3 4 5 6 
#
# 1 0.012241 -0.000860 -0.006354 0.000000 0.000000 0.000000
# 2 -0.000860 0.025034 -0.010153 0.000000 0.000000 0.000000
# 3 -0.006354 -0.010153 0.018951 0.000000 0.000000 0.000000
# 4 0.000000 0.000000 0.000000 0.029956 0.000000 0.000000
# 5 0.000000 0.000000 0.000000 0.000000 0.033251 0.000000
# 6 0.000000 0.000000 0.000000 0.000000 0.000000 0.028875
#
#
# Mechanical properties :
#
#
# Convention : Reuss Voigt Hill
#
# Bulk Modulus (GPa) = 46.52868 52.96206 49.74537
# Shear Modulus (GPa) = 26.28704 29.20317 27.74511
#
# Velocity S-wave (km/s) = 3.51033 3.69991 3.60637
# Velocity P-wave (km/s) = 6.18391 6.56347 6.37651
#
# Compressibility (1/GPa) = 0.02149212
#
# Stress axis : x y z
#
# Youngs Moduli (GPa) = 81.68964 39.94582 52.76689
#
# Poissons Ratio (x) = 0.03435 0.33529
# Poissons Ratio (y) = 0.07024 0.53575
# Poissons Ratio (z) = 0.51907 0.40558
#
# Static dielectric constant tensor:
#      x y z
#    x 1.862960 0.000000 0.000000 
#    y 0.000000 1.817990 0.000000 
#    z 0.000000 0.000000 1.792970 
# 
# From -- ./inp_files/30243.got.cif
#   From: 2010.05.17/outbox.cif.g08.bks.cpg/sg23_16_cif.got.tgz:30243.got - 2010.06.04 12:02:01.
