data_PCOD9331812
_publ_section_title
;
Structure prediction by ZEFSAII (Michael W. Deem and Ramdas Pophale) SiO2 
 PCOD9331812
Probable space group: I 2 2 2
;
_chemical_formula_sum "Si O2"
_cell_formula_units_Z 44
_cell_length_a 18.456527
_cell_length_b 13.467846
_cell_length_c 8.483442
_cell_angle_alpha 90.000000
_cell_angle_beta 90.000000
_cell_angle_gamma 90.000000
_cell_volume 2108.726322
_symmetry_space_group_name_H-M "I 2 2 2"
_symmetry_group_IT_number 23
_symmetry_cell_setting 'orthorhombic'
loop_
_space_group_symop_operation_xyz
x,y,z
-x,-y,z
x,-y,-z
-x,y,-z
1/2+x,1/2+y,1/2+z
1/2-x,1/2-y,1/2+z
1/2+x,1/2-y,1/2-z
1/2-x,1/2+y,1/2-z
loop_
_atom_site_type_symbol
_atom_site_label
_atom_site_fract_x
_atom_site_fract_y
_atom_site_fract_z
Si Si1 0.742887 0.606526 0.842651
Si Si2 0.973806 0.281739 0.838292
Si Si3 0.500000 0.329940 0.000000
Si Si4 0.698612 0.787683 0.649238
Si Si5 0.381869 0.500000 0.000000
Si Si6 0.162621 0.466339 0.333275
Si Si7 0.500000 0.000000 0.749588
O O1 0.729036 0.683320 0.703500
O O2 0.811575 0.539529 0.803650
O O3 0.759278 0.666100 0.002475
O O4 0.673176 0.536238 0.864634
O O5 0.987308 0.232479 0.663609
O O6 0.887966 0.286189 0.870921
O O7 0.010210 0.392359 0.833685
O O8 0.000000 0.229195 0.000000
O O9 0.432478 0.404534 0.030782
O O10 0.700655 0.863048 0.795650
O O11 0.190386 0.500000 0.500000
O O12 0.075438 0.472617 0.335412
#
# Coordination Sequence:
#
# PCOD9331812 Si02
#       7
#     8   8   4   8   4   8   4
#     4  12  23  45  69  98 139 178 226 294 349 419
#     4  11  24  43  68 105 137 181 233 292 349 424
#     4  11  26  47  74  96 138 193 244 287 354 412
#     4  11  24  41  67 100 132 177 232 276 357 418
#     4  11  24  48  70  95 136 190 228 295 354 416
#     4  11  23  40  63  98 134 178 222 278 345 421
#     4  10  24  40  66  97 143 176 223 281 360 417
#
# _framework density 20.865677000000002
#
# number of rings (size 3 to 8) (size 9 to 14) (size 15 to 20)
#    0.000    0.909    3.636    2.727    5.091    5.818 
#    3.273    1.818    0.000    0.000    0.000    0.000 
#    0.000    0.000    0.000    0.000    0.000    0.000 
#
# Total GULP energy -122561.064362 kJ/mol
# GULP energy per Si atom -5570.957471 kJ/mol
# Density = 2.081819 g / cm^3
# Si number density = 20.865677 Si / 1000 Ang^3
#
#
#
# Elastic Constant Matrix: (Units=GPa)
#
#
# Indices 1 2 3 4 5 6 
#
# 1 69.1005 18.9962 14.1583 0.0000 0.0000 0.0000
# 2 18.9962 91.5815 33.7572 0.0000 0.0000 0.0000
# 3 14.1583 33.7572 108.0153 0.0000 0.0000 0.0000
# 4 0.0000 0.0000 0.0000 26.4739 0.0000 0.0000
# 5 0.0000 0.0000 0.0000 0.0000 -0.5499 0.0000
# 6 0.0000 0.0000 0.0000 0.0000 0.0000 21.9502
#
#
#
# Elastic Compliance Matrix: (Units=1/GPa)
#
#
# Indices 1 2 3 4 5 6 
#
# 1 0.015474 -0.002783 -0.001159 0.000000 0.000000 0.000000
# 2 -0.002783 0.012841 -0.003648 0.000000 0.000000 0.000000
# 3 -0.001159 -0.003648 0.010550 0.000000 0.000000 0.000000
# 4 0.000000 0.000000 0.000000 0.037773 0.000000 0.000000
# 5 0.000000 0.000000 0.000000 0.000000 -1.818645 0.000000
# 6 0.000000 0.000000 0.000000 0.000000 0.000000 0.045558
#
#
# Mechanical properties :
#
#
# Convention : Reuss Voigt Hill
#
# Bulk Modulus (GPa) = 42.21919 44.72452 43.47185
# Shear Modulus (GPa) = -2.98798 23.02721 10.01962
#
# Velocity S-wave (km/s) = -1.19796 3.32564 2.19372
# Velocity P-wave (km/s) = 4.28535 6.01893 5.22455
#
# Compressibility (1/GPa) = 0.02368591
#
# Stress axis : x y z
#
# Youngs Moduli (GPa) = 64.62436 77.87405 94.78630
#
# Poissons Ratio (x) = 0.21669 0.10983
# Poissons Ratio (y) = 0.17982 0.34582
# Poissons Ratio (z) = 0.07488 0.28412
#
# Static dielectric constant tensor:
#      x y z
#    x 1.739290 0.000000 0.000000 
#    y 0.000000 1.799520 0.000000 
#    z 0.000000 0.000000 1.765940 
# 
# From -- ./inp_files/11000.got.cif
#   From: 2010.05.17/outbox.cif.g08.bks.cpg/sg23_6_cif.got.tgz:11000.got - 2010.06.04 12:02:01.
