data_PCOD9331877
_publ_section_title
;
Structure prediction by ZEFSAII (Michael W. Deem and Ramdas Pophale) SiO2 
 PCOD9331877
Probable space group: I 2 2 2
;
_chemical_formula_sum "Si O2"
_cell_formula_units_Z 40
_cell_length_a 7.505074
_cell_length_b 15.349097
_cell_length_c 15.163182
_cell_angle_alpha 90.000000
_cell_angle_beta 90.000000
_cell_angle_gamma 90.000000
_cell_volume 1746.739564
_symmetry_space_group_name_H-M "I 2 2 2"
_symmetry_group_IT_number 23
_symmetry_cell_setting 'orthorhombic'
loop_
_space_group_symop_operation_xyz
x,y,z
-x,-y,z
x,-y,-z
-x,y,-z
1/2+x,1/2+y,1/2+z
1/2-x,1/2-y,1/2+z
1/2+x,1/2-y,1/2-z
1/2-x,1/2+y,1/2-z
loop_
_atom_site_type_symbol
_atom_site_label
_atom_site_fract_x
_atom_site_fract_y
_atom_site_fract_z
Si Si1 0.191749 0.282711 0.480521
Si Si2 0.851395 0.709164 0.160222
Si Si3 0.701129 0.022272 0.284517
Si Si4 0.306127 0.543232 0.588446
Si Si5 0.229894 0.165739 0.324249
O O1 0.286603 0.248673 0.568077
O O2 0.311774 0.354319 0.431412
O O3 0.146737 0.206223 0.411905
O O4 0.000000 0.325104 0.500000
O O5 0.749873 0.617904 0.180358
O O6 0.822212 0.778997 0.238005
O O7 0.058751 0.682912 0.161936
O O8 0.703991 0.028022 0.178649
O O9 0.500000 0.000000 0.313654
O O10 0.808872 0.936248 0.311707
O O11 0.500000 0.500000 0.599915
O O12 0.229867 0.500000 0.500000
#
# Coordination Sequence:
#
# PCOD9331877 Si02
#       5
#     8   8   8   8   8
#     4  12  27  44  68 104 140 189 231 289 358 424
#     4  11  24  44  69  99 145 182 237 290 351 426
#     4  10  24  44  68 100 136 184 228 291 354 414
#     4  11  26  40  66 103 136 172 231 288 353 408
#     4  11  24  43  70  99 139 188 235 290 356 418
#
# _framework density 22.899806999999999
#
# number of rings (size 3 to 8) (size 9 to 14) (size 15 to 20)
#    0.000    1.000    2.000    3.000   14.000    2.400 
#    0.000    4.000    0.000    0.000    0.000    0.000 
#    0.000    0.000    0.000    0.000    0.000    0.000 
#
# Total GULP energy -111918.354566 kJ/mol
# GULP energy per Si atom -5595.917728 kJ/mol
# Density = 2.284769 g / cm^3
# Si number density = 22.899807 Si / 1000 Ang^3
#
#
#
# Elastic Constant Matrix: (Units=GPa)
#
#
# Indices 1 2 3 4 5 6 
#
# 1 56.3886 33.9620 -0.8141 0.0000 0.0000 0.0000
# 2 33.9620 92.6944 5.9566 0.0000 0.0000 0.0000
# 3 -0.8141 5.9566 84.1370 0.0000 0.0000 0.0000
# 4 0.0000 0.0000 0.0000 42.1840 0.0000 0.0000
# 5 0.0000 0.0000 0.0000 0.0000 23.3603 0.0000
# 6 0.0000 0.0000 0.0000 0.0000 0.0000 28.8817
#
#
#
# Elastic Compliance Matrix: (Units=1/GPa)
#
#
# Indices 1 2 3 4 5 6 
#
# 1 0.022811 -0.008410 0.000816 0.000000 0.000000 0.000000
# 2 -0.008410 0.013938 -0.001068 0.000000 0.000000 0.000000
# 3 0.000816 -0.001068 0.011969 0.000000 0.000000 0.000000
# 4 0.000000 0.000000 0.000000 0.023706 0.000000 0.000000
# 5 0.000000 0.000000 0.000000 0.000000 0.042808 0.000000
# 6 0.000000 0.000000 0.000000 0.000000 0.000000 0.034624
#
#
# Mechanical properties :
#
#
# Convention : Reuss Voigt Hill
#
# Bulk Modulus (GPa) = 31.85337 34.60323 33.22830
# Shear Modulus (GPa) = 28.14611 31.82624 29.98617
#
# Velocity S-wave (km/s) = 3.50965 3.73205 3.62256
# Velocity P-wave (km/s) = 5.51032 5.80641 5.66030
#
# Compressibility (1/GPa) = 0.03139385
#
# Stress axis : x y z
#
# Youngs Moduli (GPa) = 43.83821 71.74560 83.54993
#
# Poissons Ratio (x) = 0.60339 -0.06819
# Poissons Ratio (y) = 0.36869 0.08924
# Poissons Ratio (z) = -0.03578 0.07663
#
# Static dielectric constant tensor:
#      x y z
#    x 1.922060 0.000000 0.000000 
#    y 0.000000 1.989250 0.000000 
#    z 0.000000 0.000000 1.814750 
# 
# From -- ./inp_files/9569.got.cif
#   From: 2010.05.17/outbox.cif.g08.bks.cpg/sg23_5_cif.got.tgz:9569.got - 2010.06.04 12:02:01.
