data_PCOD9331898
_publ_section_title
;
Structure prediction by ZEFSAII (Michael W. Deem and Ramdas Pophale) SiO2 
 PCOD9331898
Probable space group: I 2 2 2
;
_chemical_formula_sum "Si O2"
_cell_formula_units_Z 32
_cell_length_a 8.924471
_cell_length_b 5.532958
_cell_length_c 28.953215
_cell_angle_alpha 90.000000
_cell_angle_beta 90.000000
_cell_angle_gamma 90.000000
_cell_volume 1429.672790
_symmetry_space_group_name_H-M "I 2 2 2"
_symmetry_group_IT_number 23
_symmetry_cell_setting 'orthorhombic'
loop_
_space_group_symop_operation_xyz
x,y,z
-x,-y,z
x,-y,-z
-x,y,-z
1/2+x,1/2+y,1/2+z
1/2-x,1/2-y,1/2+z
1/2+x,1/2-y,1/2-z
1/2-x,1/2+y,1/2-z
loop_
_atom_site_type_symbol
_atom_site_label
_atom_site_fract_x
_atom_site_fract_y
_atom_site_fract_z
Si Si1 0.000000 0.500000 0.414994
Si Si2 0.179687 0.471580 0.230482
Si Si3 0.254656 0.187659 0.626534
Si Si4 0.746843 0.323641 0.043211
Si Si5 0.500000 0.500000 0.574831
O O1 0.101189 0.667045 0.382005
O O2 0.108752 0.353255 0.448777
O O3 0.257256 0.730090 0.243316
O O4 0.215380 0.409358 0.177227
O O5 0.000000 0.500000 0.237394
O O6 0.387918 0.356940 0.608251
O O7 0.250851 0.972509 0.590315
O O8 0.731559 0.500000 0.000000
O O9 0.899572 0.174266 0.043676
#
# Coordination Sequence:
#
# PCOD9331898 Si02
#       5
#     4   8   8   8   4
#     4  10  26  45  74 104 148 196 250 308 387 450
#     4  12  30  51  83 119 159 209 267 330 404 477
#     4  11  26  47  75 108 150 194 251 315 380 462
#     4  11  25  45  72 107 147 197 251 308 380 457
#     4  10  24  45  74 104 146 194 250 308 379 452
#
# _framework density 22.382743000000001
#
# number of rings (size 3 to 8) (size 9 to 14) (size 15 to 20)
#    0.000    1.000    0.000    3.750   12.250   12.000 
#    0.000    3.750    0.000    0.000    0.000    0.000 
#    0.000    0.000    0.000    0.000    0.000    0.000 
#
# Total GULP energy -89645.288934 kJ/mol
# GULP energy per Si atom -5602.830558 kJ/mol
# Density = 2.233180 g / cm^3
# Si number density = 22.382743 Si / 1000 Ang^3
#
#
#
# Elastic Constant Matrix: (Units=GPa)
#
#
# Indices 1 2 3 4 5 6 
#
# 1 177.8395 87.6227 68.4163 0.0000 0.0000 0.0000
# 2 87.6227 148.0619 71.2353 0.0000 0.0000 0.0000
# 3 68.4163 71.2353 146.1962 0.0000 0.0000 0.0000
# 4 0.0000 0.0000 0.0000 41.0487 0.0000 0.0000
# 5 0.0000 0.0000 0.0000 0.0000 24.7209 0.0000
# 6 0.0000 0.0000 0.0000 0.0000 0.0000 289.0985
#
#
#
# Elastic Compliance Matrix: (Units=1/GPa)
#
#
# Indices 1 2 3 4 5 6 
#
# 1 0.008346 -0.003997 -0.001958 0.000000 0.000000 0.000000
# 2 -0.003997 0.010736 -0.003361 0.000000 0.000000 0.000000
# 3 -0.001958 -0.003361 0.009394 0.000000 0.000000 0.000000
# 4 0.000000 0.000000 0.000000 0.024361 0.000000 0.000000
# 5 0.000000 0.000000 0.000000 0.000000 0.040452 0.000000
# 6 0.000000 0.000000 0.000000 0.000000 0.000000 0.003459
#
#
# Mechanical properties :
#
#
# Convention : Reuss Voigt Hill
#
# Bulk Modulus (GPa) = 101.58128 102.96068 102.27098
# Shear Modulus (GPa) = 42.13690 87.29517 64.71603
#
# Velocity S-wave (km/s) = 4.34356 6.25186 5.38295
# Velocity P-wave (km/s) = 8.40462 9.91031 9.18836
#
# Compressibility (1/GPa) = 0.00984433
#
# Stress axis : x y z
#
# Youngs Moduli (GPa) = 119.82355 93.14232 106.45028
#
# Poissons Ratio (x) = 0.37228 0.20843
# Poissons Ratio (y) = 0.47892 0.35777
# Poissons Ratio (z) = 0.23462 0.31304
#
# Static dielectric constant tensor:
#      x y z
#    x 1.754560 0.000000 0.000000 
#    y 0.000000 2.339820 0.000000 
#    z 0.000000 0.000000 1.762680 
# 
# From -- ./inp_files/13165.got.cif
#   From: 2010.05.17/outbox.cif.g08.bks.cpg/sg23_7_cif.got.tgz:13165.got - 2010.06.04 12:02:01.
