data_PCOD9331582
_publ_section_title
;
Structure prediction by ZEFSAII (Michael W. Deem and Ramdas Pophale) SiO2 
 PCOD9331582
Probable space group: I 2 2 2
;
_chemical_formula_sum "Si O2"
_cell_formula_units_Z 34
_cell_length_a 11.190811
_cell_length_b 9.981720
_cell_length_c 11.045152
_cell_angle_alpha 90.000000
_cell_angle_beta 90.000000
_cell_angle_gamma 90.000000
_cell_volume 1233.782600
_symmetry_space_group_name_H-M "I 2 2 2"
_symmetry_group_IT_number 23
_symmetry_cell_setting 'orthorhombic'
loop_
_space_group_symop_operation_xyz
x,y,z
-x,-y,z
x,-y,-z
-x,y,-z
1/2+x,1/2+y,1/2+z
1/2-x,1/2-y,1/2+z
1/2+x,1/2-y,1/2-z
1/2-x,1/2+y,1/2-z
loop_
_atom_site_type_symbol
_atom_site_label
_atom_site_fract_x
_atom_site_fract_y
_atom_site_fract_z
Si Si1 0.620237 0.431011 0.872794
Si Si2 0.330217 0.186378 0.996274
Si Si3 0.333067 0.987219 0.795283
Si Si4 0.500000 0.500000 0.500000
Si Si5 0.588760 0.778637 0.398521
O O1 0.500000 0.500000 0.827200
O O2 0.593274 0.281821 0.917858
O O3 0.736394 0.440150 0.789361
O O4 0.646868 0.500000 0.000000
O O5 0.265002 0.099828 0.101644
O O6 0.227280 0.271390 0.933243
O O7 0.387579 0.095940 0.890445
O O8 0.409779 0.885020 0.712359
O O9 0.555061 0.617294 0.407685
O O10 0.500000 0.835636 0.500000
#
# Coordination Sequence:
#
# PCOD9331582 Si02
#       5
#     8   8   8   2   8
#     4  11  25  48  81 109 160 227 280 330 416 505
#     4  11  24  45  79 123 167 218 269 345 428 472
#     4  11  24  45  80 121 173 209 273 355 404 492
#     4   8  20  40  84 118 162 206 282 324 422 484
#     4  10  22  45  79 121 162 216 279 337 409 493
#
# _framework density 27.557531000000001
#
# number of rings (size 3 to 8) (size 9 to 14) (size 15 to 20)
#    0.706    0.706    2.353    2.824    0.000    3.765 
#    2.118    2.353   20.706    8.471    0.000    0.000 
#    0.000    0.000    0.000    0.000    0.000    0.000 
#
# Total GULP energy -94661.282367 kJ/mol
# GULP energy per Si atom -5568.310727 kJ/mol
# Density = 2.749481 g / cm^3
# Si number density = 27.557531 Si / 1000 Ang^3
#
#
#
# Elastic Constant Matrix: (Units=GPa)
#
#
# Indices 1 2 3 4 5 6 
#
# 1 71.9992 77.6940 67.0314 0.0000 0.0000 0.0000
# 2 77.6940 193.0390 109.2841 0.0000 0.0000 0.0000
# 3 67.0314 109.2841 217.9733 0.0000 0.0000 0.0000
# 4 0.0000 0.0000 0.0000 129.0967 0.0000 0.0000
# 5 0.0000 0.0000 0.0000 0.0000 55.0211 0.0000
# 6 0.0000 0.0000 0.0000 0.0000 0.0000 27.6585
#
#
#
# Elastic Compliance Matrix: (Units=1/GPa)
#
#
# Indices 1 2 3 4 5 6 
#
# 1 0.026791 -0.008543 -0.003955 0.000000 0.000000 0.000000
# 2 -0.008543 0.009958 -0.002365 0.000000 0.000000 0.000000
# 3 -0.003955 -0.002365 0.006990 0.000000 0.000000 0.000000
# 4 0.000000 0.000000 0.000000 0.007746 0.000000 0.000000
# 5 0.000000 0.000000 0.000000 0.000000 0.018175 0.000000
# 6 0.000000 0.000000 0.000000 0.000000 0.000000 0.036155
#
#
# Mechanical properties :
#
#
# Convention : Reuss Voigt Hill
#
# Bulk Modulus (GPa) = 71.37536 110.11450 90.74493
# Shear Modulus (GPa) = 35.66008 57.62206 46.64107
#
# Velocity S-wave (km/s) = 3.60116 4.57768 4.11846
# Velocity P-wave (km/s) = 6.57631 8.24530 7.45764
#
# Compressibility (1/GPa) = 0.01401044
#
# Stress axis : x y z
#
# Youngs Moduli (GPa) = 37.32641 100.42301 143.06351
#
# Poissons Ratio (x) = 0.85796 0.56586
# Poissons Ratio (y) = 0.31890 0.33838
# Poissons Ratio (z) = 0.14764 0.23752
#
# Static dielectric constant tensor:
#      x y z
#    x 2.100190 0.000000 0.000000 
#    y 0.000000 2.336580 0.000000 
#    z 0.000000 0.000000 2.130140 
# 
# From -- ./inp_files/15481.got.cif
#   From: 2010.05.17/outbox.cif.g08.bks.cpg/sg23_8_cif.got.tgz:15481.got - 2010.06.04 12:02:01.
