data_PCOD9331713
_publ_section_title
;
Structure prediction by ZEFSAII (Michael W. Deem and Ramdas Pophale) SiO2 
 PCOD9331713
Probable space group: I 2 2 2
;
_chemical_formula_sum "Si O2"
_cell_formula_units_Z 52
_cell_length_a 18.457281
_cell_length_b 8.632874
_cell_length_c 13.055242
_cell_angle_alpha 90.000000
_cell_angle_beta 90.000000
_cell_angle_gamma 90.000000
_cell_volume 2080.214182
_symmetry_space_group_name_H-M "I 2 2 2"
_symmetry_group_IT_number 23
_symmetry_cell_setting 'orthorhombic'
loop_
_space_group_symop_operation_xyz
x,y,z
-x,-y,z
x,-y,-z
-x,y,-z
1/2+x,1/2+y,1/2+z
1/2-x,1/2-y,1/2+z
1/2+x,1/2-y,1/2-z
1/2-x,1/2+y,1/2-z
loop_
_atom_site_type_symbol
_atom_site_label
_atom_site_fract_x
_atom_site_fract_y
_atom_site_fract_z
Si Si1 0.084816 0.617820 0.196167
Si Si2 0.714246 0.340332 0.680966
Si Si3 0.754733 0.876678 0.590625
Si Si4 0.628737 0.625342 0.620688
Si Si5 0.000000 0.272604 0.000000
Si Si6 0.351601 0.176244 0.964965
Si Si7 0.552653 0.780493 0.792340
O O1 0.164406 0.689073 0.194512
O O2 0.079803 0.443430 0.239297
O O3 0.032043 0.720163 0.267976
O O4 0.046956 0.633603 0.084574
O O5 0.732300 0.417039 0.790622
O O6 0.665783 0.459447 0.615595
O O7 0.787792 0.308500 0.620177
O O8 0.689466 0.752790 0.594372
O O9 0.826993 0.787721 0.554831
O O10 0.739547 0.000000 0.500000
O O11 0.558328 0.665977 0.556029
O O12 0.597791 0.648999 0.735281
O O13 0.425965 0.215545 0.909562
O O14 0.352481 0.000000 0.000000
#
# Coordination Sequence:
#
# PCOD9331713 Si02
#       7
#     8   8   8   8   4   8   8
#     4  10  24  42  68  99 141 189 230 303 348 427
#     4  12  26  45  69 103 149 180 238 297 369 423
#     4  12  27  42  70 105 139 189 239 298 359 436
#     4  11  24  42  66 101 142 183 219 297 358 431
#     4  10  24  40  68 102 138 178 242 272 374 432
#     4  12  24  43  71 103 140 187 241 293 360 430
#     4  10  23  43  66  97 140 184 231 286 354 411
#
# _framework density 24.997423999999999
#
# number of rings (size 3 to 8) (size 9 to 14) (size 15 to 20)
#    0.000    0.923    3.077    2.769    4.308    7.385 
#    0.000    5.385    0.000    0.923    0.000    0.000 
#    0.000    0.000    0.000    0.000    0.000    0.000 
#
# Total GULP energy -145757.912214 kJ/mol
# GULP energy per Si atom -5606.073547 kJ/mol
# Density = 2.494053 g / cm^3
# Si number density = 24.997424 Si / 1000 Ang^3
#
#
#
# Elastic Constant Matrix: (Units=GPa)
#
#
# Indices 1 2 3 4 5 6 
#
# 1 84.0388 4.3463 36.5268 0.0000 0.0000 0.0000
# 2 4.3463 39.3515 -2.0968 0.0000 0.0000 0.0000
# 3 36.5268 -2.0968 108.3028 0.0000 0.0000 0.0000
# 4 0.0000 0.0000 0.0000 21.1142 0.0000 0.0000
# 5 0.0000 0.0000 0.0000 0.0000 32.2230 0.0000
# 6 0.0000 0.0000 0.0000 0.0000 0.0000 46.8747
#
#
#
# Elastic Compliance Matrix: (Units=1/GPa)
#
#
# Indices 1 2 3 4 5 6 
#
# 1 0.014071 -0.001809 -0.004781 0.000000 0.000000 0.000000
# 2 -0.001809 0.025671 0.001107 0.000000 0.000000 0.000000
# 3 -0.004781 0.001107 0.010867 0.000000 0.000000 0.000000
# 4 0.000000 0.000000 0.000000 0.047361 0.000000 0.000000
# 5 0.000000 0.000000 0.000000 0.000000 0.031034 0.000000
# 6 0.000000 0.000000 0.000000 0.000000 0.000000 0.021333
#
#
# Mechanical properties :
#
#
# Convention : Reuss Voigt Hill
#
# Bulk Modulus (GPa) = 25.22457 34.36064 29.79261
# Shear Modulus (GPa) = 28.65059 32.90350 30.77704
#
# Velocity S-wave (km/s) = 3.38914 3.63199 3.51266
# Velocity P-wave (km/s) = 5.04260 5.60035 5.32878
#
# Compressibility (1/GPa) = 0.03964388
#
# Stress axis : x y z
#
# Youngs Moduli (GPa) = 71.06989 38.95480 92.02063
#
# Poissons Ratio (x) = 0.07046 0.43991
# Poissons Ratio (y) = 0.12855 -0.10187
# Poissons Ratio (z) = 0.33975 -0.04312
#
# Static dielectric constant tensor:
#      x y z
#    x 1.937640 0.000000 0.000000 
#    y 0.000000 1.983750 0.000000 
#    z 0.000000 0.000000 1.898770 
# 
# From -- ./inp_files/22350.got.cif
#   From: 2010.05.17/outbox.cif.g08.bks.cpg/sg23_12_cif.got.tgz:22350.got - 2010.06.04 12:02:01.
