data_PCOD9331172
_publ_section_title
;
Structure prediction by ZEFSAII (Michael W. Deem and Ramdas Pophale) SiO2 
 PCOD9331172
Probable space group: I 2 2 2
;
_chemical_formula_sum "Si O2"
_cell_formula_units_Z 22
_cell_length_a 10.995412
_cell_length_b 15.266751
_cell_length_c 5.054417
_cell_angle_alpha 90.000000
_cell_angle_beta 90.000000
_cell_angle_gamma 90.000000
_cell_volume 848.455753
_symmetry_space_group_name_H-M "I 2 2 2"
_symmetry_group_IT_number 23
_symmetry_cell_setting 'orthorhombic'
loop_
_space_group_symop_operation_xyz
x,y,z
-x,-y,z
x,-y,-z
-x,y,-z
1/2+x,1/2+y,1/2+z
1/2-x,1/2-y,1/2+z
1/2+x,1/2-y,1/2-z
1/2-x,1/2+y,1/2-z
loop_
_atom_site_type_symbol
_atom_site_label
_atom_site_fract_x
_atom_site_fract_y
_atom_site_fract_z
Si Si1 0.000000 0.500000 0.000000
Si Si2 0.322629 0.257684 0.264443
Si Si3 0.864719 0.958468 0.748634
Si Si4 0.000000 0.618405 0.500000
O O1 0.950011 0.433994 0.762561
O O2 0.294456 0.241008 0.570807
O O3 0.376951 0.355027 0.244279
O O4 0.400870 0.181679 0.133290
O O5 0.798719 0.000000 0.500000
O O6 0.000000 0.000000 0.748742
O O7 0.801163 0.000000 0.000000
#
# Coordination Sequence:
#
# PCOD9331172 Si02
#       4
#     2   8   8   4
#     4  10  24  46  76  94 134 220 240 298 364 430
#     4  12  26  46  73 113 146 196 244 314 384 448
#     4  10  21  41  69 104 138 184 235 298 369 434
#     4  11  24  50  73 102 158 190 259 300 378 445
#
# _framework density 25.929459999999999
#
# number of rings (size 3 to 8) (size 9 to 14) (size 15 to 20)
#    0.000    1.091    0.000    6.545    0.000    5.818 
#   32.727    0.000    0.000    0.000    0.000    0.000 
#    0.000    0.000    0.000    0.000    0.000    0.000 
#
# Total GULP energy -61402.030841 kJ/mol
# GULP energy per Si atom -5582.002804 kJ/mol
# Density = 2.587044 g / cm^3
# Si number density = 25.929460 Si / 1000 Ang^3
#
#
#
# Elastic Constant Matrix: (Units=GPa)
#
#
# Indices 1 2 3 4 5 6 
#
# 1 40.9410 44.9370 9.6554 0.0000 0.0000 0.0000
# 2 44.9370 204.3983 46.8726 0.0000 0.0000 0.0000
# 3 9.6554 46.8726 226.0156 0.0000 0.0000 0.0000
# 4 0.0000 0.0000 0.0000 63.7397 0.0000 0.0000
# 5 0.0000 0.0000 0.0000 0.0000 15.7592 0.0000
# 6 0.0000 0.0000 0.0000 0.0000 0.0000 32.8589
#
#
#
# Elastic Compliance Matrix: (Units=1/GPa)
#
#
# Indices 1 2 3 4 5 6 
#
# 1 0.032196 -0.007101 0.000097 0.000000 0.000000 0.000000
# 2 -0.007101 0.006703 -0.001087 0.000000 0.000000 0.000000
# 3 0.000097 -0.001087 0.004646 0.000000 0.000000 0.000000
# 4 0.000000 0.000000 0.000000 0.015689 0.000000 0.000000
# 5 0.000000 0.000000 0.000000 0.000000 0.063455 0.000000
# 6 0.000000 0.000000 0.000000 0.000000 0.000000 0.030433
#
#
# Mechanical properties :
#
#
# Convention : Reuss Voigt Hill
#
# Bulk Modulus (GPa) = 36.54417 74.92056 55.73236
# Shear Modulus (GPa) = 28.02325 47.13087 37.57706
#
# Velocity S-wave (km/s) = 3.29104 4.26802 3.81097
# Velocity P-wave (km/s) = 5.34468 7.29690 6.39571
#
# Compressibility (1/GPa) = 0.02736415
#
# Stress axis : x y z
#
# Youngs Moduli (GPa) = 31.05968 149.19412 215.25319
#
# Poissons Ratio (x) = 1.05937 -0.02091
# Poissons Ratio (y) = 0.22054 0.23392
# Poissons Ratio (z) = -0.00302 0.16213
#
# Static dielectric constant tensor:
#      x y z
#    x 2.052440 0.000000 0.000000 
#    y 0.000000 2.017680 0.000000 
#    z 0.000000 0.000000 2.141370 
# 
# From -- ./inp_files/1078.got.cif
#   From: 2010.05.17/outbox.cif.g08.bks.cpg/sg23_1_cif.got.tgz:1078.got - 2010.06.04 12:02:01.
