data_PCOD9331435
_publ_section_title
;
Structure prediction by ZEFSAII (Michael W. Deem and Ramdas Pophale) SiO2 
 PCOD9331435
Probable space group: I 2 2 2
;
_chemical_formula_sum "Si O2"
_cell_formula_units_Z 42
_cell_length_a 14.537668
_cell_length_b 10.460083
_cell_length_c 14.148833
_cell_angle_alpha 90.000000
_cell_angle_beta 90.000000
_cell_angle_gamma 90.000000
_cell_volume 2151.545317
_symmetry_space_group_name_H-M "I 2 2 2"
_symmetry_group_IT_number 23
_symmetry_cell_setting 'orthorhombic'
loop_
_space_group_symop_operation_xyz
x,y,z
-x,-y,z
x,-y,-z
-x,y,-z
1/2+x,1/2+y,1/2+z
1/2-x,1/2-y,1/2+z
1/2+x,1/2-y,1/2-z
1/2-x,1/2+y,1/2-z
loop_
_atom_site_type_symbol
_atom_site_label
_atom_site_fract_x
_atom_site_fract_y
_atom_site_fract_z
Si Si1 0.556038 0.768654 0.596780
Si Si2 0.151091 0.989214 0.888695
Si Si3 0.500000 0.000000 0.000000
Si Si4 0.376369 0.231730 0.312461
Si Si5 0.231308 0.359061 0.993615
Si Si6 0.338631 0.143009 0.103688
O O1 0.500000 0.738796 0.500000
O O2 0.599607 0.640388 0.640853
O O3 0.478055 0.822767 0.664882
O O4 0.641183 0.854406 0.562462
O O5 0.194249 0.326871 0.889046
O O6 0.260249 0.965391 0.883868
O O7 0.129290 0.000000 0.000000
O O8 0.567805 0.914929 0.063897
O O9 0.377869 0.383227 0.335614
O O10 0.350370 0.206060 0.205709
O O11 0.296699 0.247028 0.031212
O O12 0.272419 0.500000 0.000000
#
# Coordination Sequence:
#
# PCOD9331435 Si02
#       6
#     8   8   2   8   8   8
#     4   9  18  33  61  93 124 158 200 267 318 361
#     4  11  18  40  66  89 125 164 213 267 318 375
#     4  12  24  52  66  80 136 168 228 262 316 400
#     4  11  22  36  64 100 120 165 221 253 324 385
#     4  10  22  41  60  91 135 161 204 272 323 371
#     4  11  25  43  66  93 123 182 210 261 325 389
#
# _framework density 19.520854
#
# number of rings (size 3 to 8) (size 9 to 14) (size 15 to 20)
#    0.000    1.524    6.667    0.571    2.667    4.952 
#   10.286    2.381    0.000    0.000    0.000    0.000 
#    0.000    0.000    0.000    0.000    0.000    0.000 
#
# Total GULP energy -117256.662241 kJ/mol
# GULP energy per Si atom -5583.650583 kJ/mol
# Density = 1.947642 g / cm^3
# Si number density = 19.520854 Si / 1000 Ang^3
#
#
#
# Elastic Constant Matrix: (Units=GPa)
#
#
# Indices 1 2 3 4 5 6 
#
# 1 102.2669 15.6898 28.4579 0.0000 0.0000 0.0000
# 2 15.6898 64.4442 26.5641 0.0000 0.0000 0.0000
# 3 28.4579 26.5641 101.7009 0.0000 0.0000 0.0000
# 4 0.0000 0.0000 0.0000 18.1031 0.0000 0.0000
# 5 0.0000 0.0000 0.0000 0.0000 6.9458 0.0000
# 6 0.0000 0.0000 0.0000 0.0000 0.0000 11.9964
#
#
#
# Elastic Compliance Matrix: (Units=1/GPa)
#
#
# Indices 1 2 3 4 5 6 
#
# 1 0.010739 -0.001542 -0.002602 0.000000 0.000000 0.000000
# 2 -0.001542 0.017611 -0.004168 0.000000 0.000000 0.000000
# 3 -0.002602 -0.004168 0.011650 0.000000 0.000000 0.000000
# 4 0.000000 0.000000 0.000000 0.055239 0.000000 0.000000
# 5 0.000000 0.000000 0.000000 0.000000 0.143971 0.000000
# 6 0.000000 0.000000 0.000000 0.000000 0.000000 0.083358
#
#
# Mechanical properties :
#
#
# Convention : Reuss Voigt Hill
#
# Bulk Modulus (GPa) = 42.78184 45.53730 44.15957
# Shear Modulus (GPa) = 14.40985 20.58908 17.49947
#
# Velocity S-wave (km/s) = 2.71989 3.25117 2.99733
# Velocity P-wave (km/s) = 5.64157 6.12141 5.88638
#
# Compressibility (1/GPa) = 0.02337440
#
# Stress axis : x y z
#
# Youngs Moduli (GPa) = 93.11839 56.78284 85.83901
#
# Poissons Ratio (x) = 0.08755 0.22337
# Poissons Ratio (y) = 0.14358 0.35782
# Poissons Ratio (z) = 0.24232 0.23670
#
# Static dielectric constant tensor:
#      x y z
#    x 1.717900 0.000000 0.000000 
#    y 0.000000 1.697450 0.000000 
#    z 0.000000 0.000000 1.666050 
# 
# From -- ./inp_files/21382.got.cif
#   From: 2010.05.17/outbox.cif.g08.bks.cpg/sg23_11_cif.got.tgz:21382.got - 2010.06.04 12:02:01.
