data_PCOD9331835
_publ_section_title
;
Structure prediction by ZEFSAII (Michael W. Deem and Ramdas Pophale) SiO2 
 PCOD9331835
Probable space group: I 2 2 2
;
_chemical_formula_sum "Si O2"
_cell_formula_units_Z 38
_cell_length_a 20.322090
_cell_length_b 8.784948
_cell_length_c 10.204508
_cell_angle_alpha 90.000000
_cell_angle_beta 90.000000
_cell_angle_gamma 90.000000
_cell_volume 1821.795546
_symmetry_space_group_name_H-M "I 2 2 2"
_symmetry_group_IT_number 23
_symmetry_cell_setting 'orthorhombic'
loop_
_space_group_symop_operation_xyz
x,y,z
-x,-y,z
x,-y,-z
-x,y,-z
1/2+x,1/2+y,1/2+z
1/2-x,1/2-y,1/2+z
1/2+x,1/2-y,1/2-z
1/2-x,1/2+y,1/2-z
loop_
_atom_site_type_symbol
_atom_site_label
_atom_site_fract_x
_atom_site_fract_y
_atom_site_fract_z
Si Si1 0.881173 0.841527 0.784803
Si Si2 0.806681 0.000000 0.000000
Si Si3 0.610651 0.664955 0.837600
Si Si4 0.821804 0.348096 0.443147
Si Si5 0.012464 0.675396 0.842954
Si Si6 0.000000 0.000000 0.500000
O O1 0.848906 0.716886 0.691310
O O2 0.956907 0.793473 0.793548
O O3 0.867859 0.004303 0.719929
O O4 0.850345 0.874964 0.926232
O O5 0.753201 0.900497 0.080785
O O6 0.581499 0.769887 0.720458
O O7 0.664771 0.733833 0.935880
O O8 0.548161 0.614338 0.924255
O O9 0.856689 0.500000 0.500000
O O10 0.000000 0.500000 0.802053
O O11 0.000000 0.678927 0.000000
#
# Coordination Sequence:
#
# PCOD9331835 Si02
#       6
#     8   4   8   8   8   2
#     4  12  22  44  66  97 137 178 234 287 355 429
#     4  10  28  40  67  95 134 190 232 286 350 418
#     4  12  21  40  68  98 136 173 227 289 349 434
#     4  10  24  42  65  98 132 184 239 289 356 412
#     4  11  24  41  66 104 139 180 224 286 371 432
#     4  12  20  36  60 104 120 164 218 270 362 412
#
# _framework density 20.858542
#
# number of rings (size 3 to 8) (size 9 to 14) (size 15 to 20)
#    0.632    0.211    4.211    2.526    2.947    0.842 
#    0.000    2.105    0.000    0.000    0.000    0.000 
#    0.000    0.000    0.000    0.000    0.000    0.000 
#
# Total GULP energy -105810.817118 kJ/mol
# GULP energy per Si atom -5568.990375 kJ/mol
# Density = 2.081107 g / cm^3
# Si number density = 20.858542 Si / 1000 Ang^3
#
#
#
# Elastic Constant Matrix: (Units=GPa)
#
#
# Indices 1 2 3 4 5 6 
#
# 1 51.4430 2.4867 9.7268 0.0000 0.0000 0.0000
# 2 2.4867 91.6630 16.1695 0.0000 0.0000 0.0000
# 3 9.7268 16.1695 62.1160 0.0000 0.0000 0.0000
# 4 0.0000 0.0000 0.0000 22.1289 0.0000 0.0000
# 5 0.0000 0.0000 0.0000 0.0000 88.6052 0.0000
# 6 0.0000 0.0000 0.0000 0.0000 0.0000 26.2870
#
#
#
# Elastic Compliance Matrix: (Units=1/GPa)
#
#
# Indices 1 2 3 4 5 6 
#
# 1 0.020032 0.000010 -0.003140 0.000000 0.000000 0.000000
# 2 0.000010 0.011435 -0.002978 0.000000 0.000000 0.000000
# 3 -0.003140 -0.002978 0.017366 0.000000 0.000000 0.000000
# 4 0.000000 0.000000 0.000000 0.045190 0.000000 0.000000
# 5 0.000000 0.000000 0.000000 0.000000 0.011286 0.000000
# 6 0.000000 0.000000 0.000000 0.000000 0.000000 0.038042
#
#
# Mechanical properties :
#
#
# Convention : Reuss Voigt Hill
#
# Bulk Modulus (GPa) = 27.30912 29.10978 28.20945
# Shear Modulus (GPa) = 29.80261 39.19349 34.49805
#
# Velocity S-wave (km/s) = 3.78404 4.33946 4.07124
# Velocity P-wave (km/s) = 5.67564 6.25252 5.97105
#
# Compressibility (1/GPa) = 0.03661780
#
# Stress axis : x y z
#
# Youngs Moduli (GPa) = 49.91982 87.45389 57.58445
#
# Poissons Ratio (x) = -0.00091 0.18079
# Poissons Ratio (y) = -0.00052 0.17150
# Poissons Ratio (z) = 0.15673 0.26045
#
# Static dielectric constant tensor:
#      x y z
#    x 1.757680 0.000000 0.000000 
#    y 0.000000 1.751480 0.000000 
#    z 0.000000 0.000000 1.921640 
# 
# From -- ./inp_files/12437.got.cif
#   From: 2010.05.17/outbox.cif.g08.bks.cpg/sg23_7_cif.got.tgz:12437.got - 2010.06.04 12:02:01.
