data_PCOD9331270
_publ_section_title
;
Structure prediction by ZEFSAII (Michael W. Deem and Ramdas Pophale) SiO2 
 PCOD9331270
Probable space group: I 2 2 2
;
_chemical_formula_sum "Si O2"
_cell_formula_units_Z 52
_cell_length_a 9.137958
_cell_length_b 27.916265
_cell_length_c 10.322662
_cell_angle_alpha 90.000000
_cell_angle_beta 90.000000
_cell_angle_gamma 90.000000
_cell_volume 2633.286891
_symmetry_space_group_name_H-M "I 2 2 2"
_symmetry_group_IT_number 23
_symmetry_cell_setting 'orthorhombic'
loop_
_space_group_symop_operation_xyz
x,y,z
-x,-y,z
x,-y,-z
-x,y,-z
1/2+x,1/2+y,1/2+z
1/2-x,1/2-y,1/2+z
1/2+x,1/2-y,1/2-z
1/2-x,1/2+y,1/2-z
loop_
_atom_site_type_symbol
_atom_site_label
_atom_site_fract_x
_atom_site_fract_y
_atom_site_fract_z
Si Si1 0.770547 0.374270 0.190948
Si Si2 0.023486 0.943644 0.652052
Si Si3 0.541993 0.299390 0.211878
Si Si4 0.500000 0.841440 0.500000
Si Si5 0.590747 0.380927 0.623761
Si Si6 0.829649 0.331641 0.475911
Si Si7 0.772947 0.266283 0.883336
O O1 0.684654 0.424183 0.189552
O O2 0.650168 0.335629 0.137183
O O3 0.807683 0.355086 0.333941
O O4 0.914279 0.372453 0.105127
O O5 0.000000 0.932433 0.500000
O O6 0.919248 0.914894 0.751498
O O7 0.000000 0.000000 0.668997
O O8 0.491095 0.332124 0.333284
O O9 0.390880 0.283688 0.147760
O O10 0.640440 0.255349 0.259408
O O11 0.378518 0.806845 0.437208
O O12 0.500000 0.400474 0.500000
O O13 0.751056 0.366005 0.578595
O O14 0.750750 0.279988 0.474352
O O15 0.000000 0.325270 0.500000
#
# Coordination Sequence:
#
# PCOD9331270 Si02
#       7
#     8   8   8   4   8   8   8
#     4  10  24  43  58  99 127 173 229 280 339 415
#     4  10  23  44  76 106 126 160 222 281 353 443
#     4  10  22  36  58  86 132 172 233 281 329 387
#     4  12  26  36  58  87 138 178 225 278 334 406
#     4  11  20  43  66  93 132 171 215 287 339 394
#     4  11  24  38  60  90 137 181 227 278 328 386
#     4  11  22  37  56  90 130 184 237 277 323 389
#
# _framework density 19.747184000000001
#
# number of rings (size 3 to 8) (size 9 to 14) (size 15 to 20)
#    0.000    1.385    4.615    2.769   10.769    0.308 
#    0.000    0.000    0.000    7.385    0.000    0.000 
#    0.000    0.000    0.000    0.000    0.000    0.000 
#
# Total GULP energy -145238.155032 kJ/mol
# GULP energy per Si atom -5586.082886 kJ/mol
# Density = 1.970224 g / cm^3
# Si number density = 19.747184 Si / 1000 Ang^3
#
#
#
# Elastic Constant Matrix: (Units=GPa)
#
#
# Indices 1 2 3 4 5 6 
#
# 1 130.0710 35.6446 30.2272 0.0000 0.0000 0.0001
# 2 35.6446 73.6995 38.1630 -0.0001 0.0001 0.0000
# 3 30.2272 38.1630 80.2279 -0.0004 0.0006 -0.0009
# 4 0.0000 -0.0001 -0.0004 29.5970 0.0001 -0.0002
# 5 0.0000 0.0001 0.0006 0.0001 46.2052 0.0000
# 6 0.0001 0.0000 -0.0009 -0.0002 0.0000 16.9497
#
#
#
# Elastic Compliance Matrix: (Units=1/GPa)
#
#
# Indices 1 2 3 4 5 6 
#
# 1 0.009046 -0.003463 -0.001761 0.000000 0.000000 0.000000
# 2 -0.003463 0.019329 -0.007890 0.000000 0.000000 0.000000
# 3 -0.001761 -0.007890 0.016881 0.000000 0.000000 0.000001
# 4 0.000000 0.000000 0.000000 0.033787 0.000000 0.000000
# 5 0.000000 0.000000 0.000000 0.000000 0.021643 0.000000
# 6 0.000000 0.000000 0.000001 0.000000 0.000000 0.058998
#
#
# Mechanical properties :
#
#
# Convention : Reuss Voigt Hill
#
# Bulk Modulus (GPa) = 52.55267 54.67420 53.61344
# Shear Modulus (GPa) = 26.00712 30.54795 28.27754
#
# Velocity S-wave (km/s) = 3.63299 3.93740 3.78825
# Velocity P-wave (km/s) = 6.65347 6.95830 6.80759
#
# Compressibility (1/GPa) = 0.01902853
#
# Stress axis : x y z
#
# Youngs Moduli (GPa) = 110.54054 51.73548 59.23865
#
# Poissons Ratio (x) = 0.17919 0.10431
# Poissons Ratio (y) = 0.38286 0.46737
# Poissons Ratio (z) = 0.19465 0.40817
#
# Static dielectric constant tensor:
#      x y z
#    x 1.711640 0.000000 0.000000 
#    y 0.000000 1.684450 0.000000 
#    z 0.000000 0.000000 1.770670 
# 
# From -- ./inp_files/14942.got.cif
#   From: 2010.05.17/outbox.cif.g08.bks.cpg/sg23_8_cif.got.tgz:14942.got - 2010.06.04 12:02:01.
