data_PCOD9331383
_publ_section_title
;
Structure prediction by ZEFSAII (Michael W. Deem and Ramdas Pophale) SiO2 
 PCOD9331383
Probable space group: I 2 2 2
;
_chemical_formula_sum "Si O2"
_cell_formula_units_Z 54
_cell_length_a 5.114476
_cell_length_b 26.555651
_cell_length_c 19.605327
_cell_angle_alpha 90.000000
_cell_angle_beta 90.000000
_cell_angle_gamma 90.000000
_cell_volume 2662.761002
_symmetry_space_group_name_H-M "I 2 2 2"
_symmetry_group_IT_number 23
_symmetry_cell_setting 'orthorhombic'
loop_
_space_group_symop_operation_xyz
x,y,z
-x,-y,z
x,-y,-z
-x,y,-z
1/2+x,1/2+y,1/2+z
1/2-x,1/2-y,1/2+z
1/2+x,1/2-y,1/2-z
1/2-x,1/2+y,1/2-z
loop_
_atom_site_type_symbol
_atom_site_label
_atom_site_fract_x
_atom_site_fract_y
_atom_site_fract_z
Si Si1 0.116574 0.236538 0.205549
Si Si2 0.316120 0.933834 0.120228
Si Si3 0.885845 0.056533 0.698367
Si Si4 0.000000 0.500000 0.500000
Si Si5 0.033338 0.872781 0.422173
Si Si6 0.000000 0.500000 0.266969
Si Si7 0.467388 0.194096 0.421254
Si Si8 0.652469 0.620655 0.669835
O O1 0.368744 0.260242 0.243238
O O2 0.037333 0.266240 0.137008
O O3 0.181011 0.179301 0.184873
O O4 0.339406 0.963837 0.050110
O O5 0.293257 0.977142 0.178962
O O6 0.582400 0.904825 0.141802
O O7 0.079970 0.894895 0.119371
O O8 0.958335 0.083575 0.629435
O O9 0.584532 0.044579 0.716890
O O10 0.945255 0.094871 0.759661
O O11 0.000000 0.000000 0.699932
O O12 0.824243 0.827504 0.412117
O O13 0.000000 0.889725 0.500000
O O14 0.324264 0.851378 0.412873
O O15 0.500000 0.212048 0.500000
#
# Coordination Sequence:
#
# PCOD9331383 Si02
#       8
#     8   8   8   2   8   4   8   8
#     4  12  24  41  68  99 127 161 213 272 324 381
#     4  10  22  40  59  88 124 162 213 252 301 375
#     4  11  21  35  60  87 122 165 192 251 303 361
#     4  10  24  42  68  86 126 186 214 254 318 378
#     4  10  23  40  64  90 120 161 213 246 304 380
#     4   9  20  35  56  85 119 160 202 240 307 354
#     4  10  22  44  64  88 123 168 201 256 320 382
#     4  11  23  39  61  94 127 156 211 260 310 374
#
# _framework density 20.279700999999999
#
# number of rings (size 3 to 8) (size 9 to 14) (size 15 to 20)
#    0.000    1.481    1.481    3.556    2.074    2.667 
#    2.667    0.000    0.000    0.000    0.000    0.000 
#    0.000    0.000    0.000    0.000    0.000    0.000 
#
# Total GULP energy -150674.340797 kJ/mol
# GULP energy per Si atom -5580.531141 kJ/mol
# Density = 2.023354 g / cm^3
# Si number density = 20.279701 Si / 1000 Ang^3
#
#
#
# Elastic Constant Matrix: (Units=GPa)
#
#
# Indices 1 2 3 4 5 6 
#
# 1 83.5960 6.1016 20.3416 0.0000 0.0000 0.0000
# 2 6.1016 85.4653 66.3397 0.0000 0.0000 0.0000
# 3 20.3416 66.3397 131.2357 0.0000 0.0000 0.0000
# 4 0.0000 0.0000 0.0000 30.8359 0.0000 0.0000
# 5 0.0000 0.0000 0.0000 0.0000 -1.0183 0.0000
# 6 0.0000 0.0000 0.0000 0.0000 0.0000 18.3518
#
#
#
# Elastic Compliance Matrix: (Units=1/GPa)
#
#
# Indices 1 2 3 4 5 6 
#
# 1 0.012483 0.001005 -0.002443 0.000000 0.000000 0.000000
# 2 0.001005 0.019337 -0.009931 0.000000 0.000000 0.000000
# 3 -0.002443 -0.009931 0.013019 0.000000 0.000000 0.000000
# 4 0.000000 0.000000 0.000000 0.032430 0.000000 0.000000
# 5 0.000000 0.000000 0.000000 0.000000 -0.982004 0.000000
# 6 0.000000 0.000000 0.000000 0.000000 0.000000 0.054491
#
#
# Mechanical properties :
#
#
# Convention : Reuss Voigt Hill
#
# Bulk Modulus (GPa) = 45.24509 53.98474 49.61491
# Shear Modulus (GPa) = -6.09652 23.46814 8.68581
#
# Velocity S-wave (km/s) = -1.73573 3.40549 2.07179
# Velocity P-wave (km/s) = 4.28275 6.49161 5.49923
#
# Compressibility (1/GPa) = 0.02210184
#
# Stress axis : x y z
#
# Youngs Moduli (GPa) = 80.10641 51.71325 76.81325
#
# Poissons Ratio (x) = -0.05198 0.18765
# Poissons Ratio (y) = -0.08051 0.76282
# Poissons Ratio (z) = 0.19570 0.51356
#
# Static dielectric constant tensor:
#      x y z
#    x 1.842340 0.000000 0.000000 
#    y 0.000000 1.702300 0.000000 
#    z 0.000000 0.000000 1.715790 
# 
# From -- ./inp_files/25798.got.cif
#   From: 2010.05.17/outbox.cif.g08.bks.cpg/sg23_13_cif.got.tgz:25798.got - 2010.06.04 12:02:01.
