data_PCOD9331399
_publ_section_title
;
Structure prediction by ZEFSAII (Michael W. Deem and Ramdas Pophale) SiO2 
 PCOD9331399
Probable space group: I 2 2 2
;
_chemical_formula_sum "Si O2"
_cell_formula_units_Z 38
_cell_length_a 28.703446
_cell_length_b 12.516179
_cell_length_c 5.376913
_cell_angle_alpha 90.000000
_cell_angle_beta 90.000000
_cell_angle_gamma 90.000000
_cell_volume 1931.696150
_symmetry_space_group_name_H-M "I 2 2 2"
_symmetry_group_IT_number 23
_symmetry_cell_setting 'orthorhombic'
loop_
_space_group_symop_operation_xyz
x,y,z
-x,-y,z
x,-y,-z
-x,y,-z
1/2+x,1/2+y,1/2+z
1/2-x,1/2-y,1/2+z
1/2+x,1/2-y,1/2-z
1/2-x,1/2+y,1/2-z
loop_
_atom_site_type_symbol
_atom_site_label
_atom_site_fract_x
_atom_site_fract_y
_atom_site_fract_z
Si Si1 0.249165 0.074990 0.200355
Si Si2 0.949027 0.616311 0.607608
Si Si3 0.361402 0.262277 0.034385
Si Si4 0.000000 0.500000 0.000000
Si Si5 0.196724 0.281620 0.036316
Si Si6 0.664669 0.500000 0.000000
O O1 0.234019 0.186423 0.071527
O O2 0.275728 0.112539 0.450064
O O3 0.200986 0.016943 0.274286
O O4 0.274531 0.000000 0.000000
O O5 0.934818 0.500000 0.500000
O O6 0.910461 0.702957 0.555983
O O7 0.000000 0.643835 0.500000
O O8 0.963170 0.583664 0.883680
O O9 0.334581 0.240625 0.293011
O O10 0.363785 0.390725 0.013869
O O11 0.333329 0.219689 0.790473
#
# Coordination Sequence:
#
# PCOD9331399 Si02
#       6
#     8   8   8   2   8   4
#     4  11  22  42  61  87 126 180 225 264 331 371
#     4   9  21  41  67  97 126 168 202 272 331 399
#     4  11  24  42  63  99 127 167 225 264 326 384
#     4   8  18  40  74  90 126 168 202 250 346 382
#     4  11  25  39  63  91 126 170 220 278 302 386
#     4  10  22  40  64  88 132 178 213 269 316 394
#
# _framework density 19.67183
#
# number of rings (size 3 to 8) (size 9 to 14) (size 15 to 20)
#    0.000    1.895    2.105    2.526    8.842    0.842 
#    0.000    0.526    0.000    0.000    0.000    0.000 
#    0.000    0.000    0.000    0.000    0.000    0.000 
#
# Total GULP energy -105899.253901 kJ/mol
# GULP energy per Si atom -5573.644942 kJ/mol
# Density = 1.962706 g / cm^3
# Si number density = 19.671830 Si / 1000 Ang^3
#
#
#
# Elastic Constant Matrix: (Units=GPa)
#
#
# Indices 1 2 3 4 5 6 
#
# 1 108.1577 93.5899 44.9987 0.0000 0.0000 0.0000
# 2 93.5899 161.7036 53.4965 0.0000 0.0000 0.0000
# 3 44.9987 53.4965 118.1324 0.0000 0.0000 0.0000
# 4 0.0000 0.0000 0.0000 42.4922 0.0000 0.0000
# 5 0.0000 0.0000 0.0000 0.0000 65.9851 0.0000
# 6 0.0000 0.0000 0.0000 0.0000 0.0000 44.4296
#
#
#
# Elastic Compliance Matrix: (Units=1/GPa)
#
#
# Indices 1 2 3 4 5 6 
#
# 1 0.019220 -0.010235 -0.002686 0.000000 0.000000 0.000000
# 2 -0.010235 0.012725 -0.001864 0.000000 0.000000 0.000000
# 3 -0.002686 -0.001864 0.010332 0.000000 0.000000 0.000000
# 4 0.000000 0.000000 0.000000 0.023534 0.000000 0.000000
# 5 0.000000 0.000000 0.000000 0.000000 0.015155 0.000000
# 6 0.000000 0.000000 0.000000 0.000000 0.000000 0.022508
#
#
# Mechanical properties :
#
#
# Convention : Reuss Voigt Hill
#
# Bulk Modulus (GPa) = 78.69839 85.79600 82.24720
# Shear Modulus (GPa) = 36.42212 43.64195 40.03204
#
# Velocity S-wave (km/s) = 4.30756 4.71521 4.51598
# Velocity P-wave (km/s) = 8.05187 8.56461 8.31219
#
# Compressibility (1/GPa) = 0.01270674
#
# Stress axis : x y z
#
# Youngs Moduli (GPa) = 52.02860 78.58724 96.78496
#
# Poissons Ratio (x) = 0.80438 0.25998
# Poissons Ratio (y) = 0.53254 0.18036
# Poissons Ratio (z) = 0.13976 0.14645
#
# Static dielectric constant tensor:
#      x y z
#    x 1.652500 0.000000 0.000000 
#    y 0.000000 1.720770 0.000000 
#    z 0.000000 0.000000 1.811160 
# 
# From -- ./inp_files/4789.got.cif
#   From: 2010.05.17/outbox.cif.g08.bks.cpg/sg23_3_cif.got.tgz:4789.got - 2010.06.04 12:02:01.
