data_PCOD9331279
_publ_section_title
;
Structure prediction by ZEFSAII (Michael W. Deem and Ramdas Pophale) SiO2 
 PCOD9331279
Probable space group: I 2 2 2
;
_chemical_formula_sum "Si O2"
_cell_formula_units_Z 38
_cell_length_a 7.717694
_cell_length_b 15.863236
_cell_length_c 14.034779
_cell_angle_alpha 90.000000
_cell_angle_beta 90.000000
_cell_angle_gamma 90.000000
_cell_volume 1718.244328
_symmetry_space_group_name_H-M "I 2 2 2"
_symmetry_group_IT_number 23
_symmetry_cell_setting 'orthorhombic'
loop_
_space_group_symop_operation_xyz
x,y,z
-x,-y,z
x,-y,-z
-x,y,-z
1/2+x,1/2+y,1/2+z
1/2-x,1/2-y,1/2+z
1/2+x,1/2-y,1/2-z
1/2-x,1/2+y,1/2-z
loop_
_atom_site_type_symbol
_atom_site_label
_atom_site_fract_x
_atom_site_fract_y
_atom_site_fract_z
Si Si1 0.290531 0.803787 0.486892
Si Si2 0.747702 0.374011 0.392137
Si Si3 0.818247 0.367938 0.789223
Si Si4 0.000000 0.000000 0.000000
Si Si5 0.000000 0.500000 0.679328
Si Si6 0.211550 0.702234 0.196949
O O1 0.500000 0.805530 0.500000
O O2 0.240621 0.710039 0.454049
O O3 0.246657 0.863279 0.397010
O O4 0.217683 0.819018 0.592410
O O5 0.614803 0.439024 0.435873
O O6 0.698350 0.343557 0.285809
O O7 0.926972 0.424148 0.382663
O O8 0.722047 0.301853 0.720247
O O9 0.848638 0.459764 0.744691
O O10 0.013496 0.329559 0.797406
#
# Coordination Sequence:
#
# PCOD9331279 Si02
#       6
#     8   8   8   2   4   8
#     4   9  17  36  61  81 106 154 198 223 272 356
#     4  10  22  37  56  86 115 149 190 236 290 338
#     4   9  19  35  57  82 116 151 190 235 287 338
#     4  12  24  38  60  80 114 156 188 232 292 354
#     4  10  22  37  53  92 124 142 182 258 298 314
#     4   9  19  37  56  82 112 149 193 231 276 345
#
# _framework density 22.115594999999999
#
# number of rings (size 3 to 8) (size 9 to 14) (size 15 to 20)
#    0.000    2.526    1.053    0.000    2.947    0.421 
#    3.789   16.316    0.000    0.000    0.000    7.368 
#    0.000    0.000    0.000    0.000    0.000    0.000 
#
# Total GULP energy -106077.606537 kJ/mol
# GULP energy per Si atom -5583.031923 kJ/mol
# Density = 2.206526 g / cm^3
# Si number density = 22.115595 Si / 1000 Ang^3
#
#
#
# Elastic Constant Matrix: (Units=GPa)
#
#
# Indices 1 2 3 4 5 6 
#
# 1 22.6228 3.1267 18.3369 0.0000 0.0000 0.0000
# 2 3.1267 45.0096 11.1532 0.0000 0.0000 0.0000
# 3 18.3369 11.1532 141.9957 0.0000 0.0000 0.0000
# 4 0.0000 0.0000 0.0000 6.9867 0.0000 0.0000
# 5 0.0000 0.0000 0.0000 0.0000 5.9584 0.0000
# 6 0.0000 0.0000 0.0000 0.0000 0.0000 33.8286
#
#
#
# Elastic Compliance Matrix: (Units=1/GPa)
#
#
# Indices 1 2 3 4 5 6 
#
# 1 0.049528 -0.001893 -0.006247 0.000000 0.000000 0.000000
# 2 -0.001893 0.022731 -0.001541 0.000000 0.000000 0.000000
# 3 -0.006247 -0.001541 0.007970 0.000000 0.000000 0.000000
# 4 0.000000 0.000000 0.000000 0.143128 0.000000 0.000000
# 5 0.000000 0.000000 0.000000 0.000000 0.167830 0.000000
# 6 0.000000 0.000000 0.000000 0.000000 0.000000 0.029561
#
#
# Mechanical properties :
#
#
# Convention : Reuss Voigt Hill
#
# Bulk Modulus (GPa) = 16.42906 30.54020 23.48463
# Shear Modulus (GPa) = 10.86012 21.15550 16.00781
#
# Velocity S-wave (km/s) = 2.21840 3.09623 2.69332
# Velocity P-wave (km/s) = 3.74253 5.15960 4.50711
#
# Compressibility (1/GPa) = 0.06086776
#
# Stress axis : x y z
#
# Youngs Moduli (GPa) = 20.19041 43.99318 125.46623
#
# Poissons Ratio (x) = 0.08326 0.78383
# Poissons Ratio (y) = 0.03821 0.19335
# Poissons Ratio (z) = 0.12614 0.06779
#
# Static dielectric constant tensor:
#      x y z
#    x 1.881720 0.000000 0.000000 
#    y 0.000000 1.798590 0.000000 
#    z 0.000000 0.000000 1.894970 
# 
# From -- ./inp_files/9792.got.cif
#   From: 2010.05.17/outbox.cif.g08.bks.cpg/sg23_5_cif.got.tgz:9792.got - 2010.06.04 12:02:01.
