data_PCOD9331349
_publ_section_title
;
Structure prediction by ZEFSAII (Michael W. Deem and Ramdas Pophale) SiO2 
 PCOD9331349
Probable space group: I 2 2 2
;
_chemical_formula_sum "Si O2"
_cell_formula_units_Z 56
_cell_length_a 13.676347
_cell_length_b 8.733173
_cell_length_c 20.939666
_cell_angle_alpha 90.000000
_cell_angle_beta 90.000000
_cell_angle_gamma 90.000000
_cell_volume 2500.989825
_symmetry_space_group_name_H-M "I 2 2 2"
_symmetry_group_IT_number 23
_symmetry_cell_setting 'orthorhombic'
loop_
_space_group_symop_operation_xyz
x,y,z
-x,-y,z
x,-y,-z
-x,y,-z
1/2+x,1/2+y,1/2+z
1/2-x,1/2-y,1/2+z
1/2+x,1/2-y,1/2-z
1/2-x,1/2+y,1/2-z
loop_
_atom_site_type_symbol
_atom_site_label
_atom_site_fract_x
_atom_site_fract_y
_atom_site_fract_z
Si Si1 0.129137 0.614151 0.701598
Si Si2 0.461823 0.176791 0.388518
Si Si3 0.680699 0.071620 0.066888
Si Si4 0.660691 0.649156 0.599391
Si Si5 0.958288 0.173413 0.247000
Si Si6 0.225923 0.335346 0.979506
Si Si7 0.727545 0.190450 0.768621
O O1 0.121601 0.543084 0.631016
O O2 0.211809 0.744422 0.709531
O O3 0.172979 0.471452 0.741686
O O4 0.033381 0.700976 0.725129
O O5 0.550170 0.292496 0.408346
O O6 0.431423 0.259610 0.322826
O O7 0.375750 0.163986 0.440234
O O8 0.500000 0.000000 0.378737
O O9 0.690240 0.251394 0.059191
O O10 0.793537 0.015617 0.080908
O O11 0.647002 0.000000 0.000000
O O12 0.714953 0.747764 0.546264
O O13 0.696894 0.676062 0.671914
O O14 0.857064 0.187257 0.285107
O O15 0.000000 0.000000 0.244260
O O16 0.255149 0.500000 0.000000
#
# Coordination Sequence:
#
# PCOD9331349 Si02
#       7
#     8   8   8   8   8   8   8
#     4  11  22  43  69  98 132 177 222 276 342 400
#     4  12  23  38  59  92 135 174 223 268 332 398
#     4   9  22  41  63  94 128 172 223 270 335 398
#     4  10  22  39  60  87 129 171 218 268 327 396
#     4  12  27  42  64 100 134 175 227 279 341 406
#     4  11  22  36  59  90 129 175 221 269 321 390
#     4  11  23  40  65  93 132 174 218 276 334 400
#
# _framework density 22.391135999999999
#
# number of rings (size 3 to 8) (size 9 to 14) (size 15 to 20)
#    0.000    1.143    2.857    3.429    4.000    2.286 
#    0.000    2.143    0.000   14.571    0.000   10.000 
#    0.000    0.000    0.000    0.000    0.000    0.000 
#
# Total GULP energy -156197.356558 kJ/mol
# GULP energy per Si atom -5578.477020 kJ/mol
# Density = 2.234017 g / cm^3
# Si number density = 22.391136 Si / 1000 Ang^3
#
#
#
# Elastic Constant Matrix: (Units=GPa)
#
#
# Indices 1 2 3 4 5 6 
#
# 1 48.1136 8.0090 -3.3286 0.0000 0.0000 0.0000
# 2 8.0090 109.3248 23.9652 0.0000 0.0000 0.0000
# 3 -3.3286 23.9652 81.4835 0.0000 0.0000 0.0000
# 4 0.0000 0.0000 0.0000 28.0777 0.0000 0.0000
# 5 0.0000 0.0000 0.0000 0.0000 15.5570 0.0000
# 6 0.0000 0.0000 0.0000 0.0000 0.0000 32.4123
#
#
#
# Elastic Compliance Matrix: (Units=1/GPa)
#
#
# Indices 1 2 3 4 5 6 
#
# 1 0.021192 -0.001862 0.001413 0.000000 0.000000 0.000000
# 2 -0.001862 0.009941 -0.003000 0.000000 0.000000 0.000000
# 3 0.001413 -0.003000 0.013212 0.000000 0.000000 0.000000
# 4 0.000000 0.000000 0.000000 0.035615 0.000000 0.000000
# 5 0.000000 0.000000 0.000000 0.000000 0.064280 0.000000
# 6 0.000000 0.000000 0.000000 0.000000 0.000000 0.030852
#
#
# Mechanical properties :
#
#
# Convention : Reuss Voigt Hill
#
# Bulk Modulus (GPa) = 26.70377 32.91259 29.80818
# Shear Modulus (GPa) = 25.71045 29.22782 27.46914
#
# Velocity S-wave (km/s) = 3.39225 3.61685 3.50635
# Velocity P-wave (km/s) = 5.22447 5.67213 5.45289
#
# Compressibility (1/GPa) = 0.03744790
#
# Stress axis : x y z
#
# Youngs Moduli (GPa) = 47.18778 100.59258 75.68620
#
# Poissons Ratio (x) = 0.18734 -0.10698
# Poissons Ratio (y) = 0.08788 0.22705
# Poissons Ratio (z) = -0.06670 0.30176
#
# Static dielectric constant tensor:
#      x y z
#    x 1.893330 0.000000 0.000000 
#    y 0.000000 1.935750 0.000000 
#    z 0.000000 0.000000 1.840830 
# 
# From -- ./inp_files/10225.got.cif
#   From: 2010.05.17/outbox.cif.g08.bks.cpg/sg23_6_cif.got.tgz:10225.got - 2010.06.04 12:02:01.
