data_PCOD9331376
_publ_section_title
;
Structure prediction by ZEFSAII (Michael W. Deem and Ramdas Pophale) SiO2 
 PCOD9331376
Probable space group: I 2 2 2
;
_chemical_formula_sum "Si O2"
_cell_formula_units_Z 58
_cell_length_a 8.609877
_cell_length_b 18.867722
_cell_length_c 18.181965
_cell_angle_alpha 90.000000
_cell_angle_beta 90.000000
_cell_angle_gamma 90.000000
_cell_volume 2953.637772
_symmetry_space_group_name_H-M "I 2 2 2"
_symmetry_group_IT_number 23
_symmetry_cell_setting 'orthorhombic'
loop_
_space_group_symop_operation_xyz
x,y,z
-x,-y,z
x,-y,-z
-x,y,-z
1/2+x,1/2+y,1/2+z
1/2-x,1/2-y,1/2+z
1/2+x,1/2-y,1/2-z
1/2-x,1/2+y,1/2-z
loop_
_atom_site_type_symbol
_atom_site_label
_atom_site_fract_x
_atom_site_fract_y
_atom_site_fract_z
Si Si1 0.086547 0.717059 0.676896
Si Si2 0.627780 0.673205 0.557343
Si Si3 0.858822 0.399119 0.877180
Si Si4 0.372352 0.715204 0.944280
Si Si5 0.000000 0.500000 0.000000
Si Si6 0.681230 0.519423 0.581562
Si Si7 0.435697 0.771432 0.666817
Si Si8 0.357046 0.945909 0.213881
O O1 0.253470 0.754680 0.666905
O O2 0.107161 0.632827 0.684332
O O3 0.970445 0.739145 0.613210
O O4 0.004647 0.739761 0.752378
O O5 0.500000 0.646622 0.500000
O O6 0.748824 0.728722 0.521967
O O7 0.705629 0.603636 0.590345
O O8 0.529726 0.717283 0.615926
O O9 0.725961 0.345322 0.904245
O O10 0.809839 0.435265 0.799837
O O11 0.010678 0.350008 0.859194
O O12 0.900201 0.451536 0.943870
O O13 0.500000 0.685770 0.000000
O O14 0.500000 0.500000 0.579942
O O15 0.746494 0.500000 0.500000
O O16 0.745929 0.478953 0.652246
O O17 0.500000 0.000000 0.216351
#
# Coordination Sequence:
#
# PCOD9331376 Si02
#       8
#     8   8   8   8   2   8   8   8
#     4  11  22  41  65  97 131 170 219 276 332 392
#     4  11  21  39  60  93 130 176 221 268 335 383
#     4  10  25  46  70  98 126 179 223 277 348 407
#     4  11  25  40  66 100 129 166 226 286 331 396
#     4  12  24  48  78  92 134 172 220 280 340 432
#     4  11  23  39  60  94 136 183 223 265 320 405
#     4  10  22  39  69  95 127 172 222 279 328 396
#     4  11  23  43  64  95 136 176 221 266 336 406
#
# _framework density 19.636801999999999
#
# number of rings (size 3 to 8) (size 9 to 14) (size 15 to 20)
#    0.000    1.241    2.069    4.966    7.724    1.379 
#    0.000    1.724    0.000    0.000    0.000    0.000 
#    0.000    0.000    0.000    0.000    0.000    0.000 
#
# Total GULP energy -161901.325188 kJ/mol
# GULP energy per Si atom -5582.804317 kJ/mol
# Density = 1.959211 g / cm^3
# Si number density = 19.636802 Si / 1000 Ang^3
#
#
#
# Elastic Constant Matrix: (Units=GPa)
#
#
# Indices 1 2 3 4 5 6 
#
# 1 100.1874 40.3670 43.1274 0.0000 0.0000 0.0000
# 2 40.3670 72.2057 57.1704 0.0000 0.0000 0.0000
# 3 43.1274 57.1704 129.9332 0.0000 0.0000 0.0000
# 4 0.0000 0.0000 0.0000 50.2779 0.0000 0.0000
# 5 0.0000 0.0000 0.0000 0.0000 31.0728 0.0000
# 6 0.0000 0.0000 0.0000 0.0000 0.0000 13.3149
#
#
#
# Elastic Compliance Matrix: (Units=1/GPa)
#
#
# Indices 1 2 3 4 5 6 
#
# 1 0.013132 -0.005970 -0.001732 0.000000 0.000000 0.000000
# 2 -0.005970 0.023968 -0.008564 0.000000 0.000000 0.000000
# 3 -0.001732 -0.008564 0.012039 0.000000 0.000000 0.000000
# 4 0.000000 0.000000 0.000000 0.019889 0.000000 0.000000
# 5 0.000000 0.000000 0.000000 0.000000 0.032183 0.000000
# 6 0.000000 0.000000 0.000000 0.000000 0.000000 0.075104
#
#
# Mechanical properties :
#
#
# Convention : Reuss Voigt Hill
#
# Bulk Modulus (GPa) = 60.21679 64.85065 62.53372
# Shear Modulus (GPa) = 23.32261 29.71055 26.51658
#
# Velocity S-wave (km/s) = 3.45004 3.89395 3.67870
# Velocity P-wave (km/s) = 6.82658 7.30164 7.06810
#
# Compressibility (1/GPa) = 0.01660666
#
# Stress axis : x y z
#
# Youngs Moduli (GPa) = 76.14737 41.72222 83.06099
#
# Poissons Ratio (x) = 0.24910 0.14385
# Poissons Ratio (y) = 0.45464 0.71135
# Poissons Ratio (z) = 0.13188 0.35732
#
# Static dielectric constant tensor:
#      x y z
#    x 1.680470 0.000000 0.000000 
#    y 0.000000 1.693010 0.000000 
#    z 0.000000 0.000000 1.755130 
# 
# From -- ./inp_files/23893.got.cif
#   From: 2010.05.17/outbox.cif.g08.bks.cpg/sg23_12_cif.got.tgz:23893.got - 2010.06.04 12:02:01.
