data_PCOD9331836
_publ_section_title
;
Structure prediction by ZEFSAII (Michael W. Deem and Ramdas Pophale) SiO2 
 PCOD9331836
Probable space group: I 2 2 2
;
_chemical_formula_sum "Si O2"
_cell_formula_units_Z 56
_cell_length_a 7.922589
_cell_length_b 21.314158
_cell_length_c 14.441572
_cell_angle_alpha 90.000000
_cell_angle_beta 90.000000
_cell_angle_gamma 90.000000
_cell_volume 2438.651703
_symmetry_space_group_name_H-M "I 2 2 2"
_symmetry_group_IT_number 23
_symmetry_cell_setting 'orthorhombic'
loop_
_space_group_symop_operation_xyz
x,y,z
-x,-y,z
x,-y,-z
-x,y,-z
1/2+x,1/2+y,1/2+z
1/2-x,1/2-y,1/2+z
1/2+x,1/2-y,1/2-z
1/2-x,1/2+y,1/2-z
loop_
_atom_site_type_symbol
_atom_site_label
_atom_site_fract_x
_atom_site_fract_y
_atom_site_fract_z
Si Si1 0.897772 0.438323 0.797799
Si Si2 0.686517 0.214350 0.547316
Si Si3 0.339754 0.100345 0.142115
Si Si4 0.804225 0.147640 0.031181
Si Si5 0.640412 0.687061 0.766947
Si Si6 0.768033 0.190723 0.347774
Si Si7 0.313510 0.476263 0.357452
O O1 0.834674 0.375409 0.848510
O O2 0.733907 0.469038 0.749894
O O3 0.000000 0.500000 0.837098
O O4 0.010582 0.409274 0.714149
O O5 0.500000 0.206275 0.500000
O O6 0.707742 0.286008 0.579423
O O7 0.742036 0.179605 0.640726
O O8 0.798536 0.205135 0.455976
O O9 0.185983 0.128306 0.202449
O O10 0.302659 0.031494 0.104524
O O11 0.328907 0.144479 0.053105
O O12 0.778144 0.089219 0.095957
O O13 0.000000 0.143106 0.000000
O O14 0.676188 0.750819 0.706129
O O15 0.447704 0.685028 0.797966
O O16 0.500000 0.500000 0.374260
#
# Coordination Sequence:
#
# PCOD9331836 Si02
#       7
#     8   8   8   8   8   8   8
#     4  10  24  42  65  98 133 179 237 287 352 410
#     4  11  24  42  68 101 142 179 232 288 354 415
#     4  11  22  39  61  92 133 179 227 280 339 412
#     4  11  22  36  60  97 135 179 228 272 341 413
#     4  12  25  42  69 102 140 191 231 287 350 419
#     4  12  24  44  68  99 141 184 236 289 352 418
#     4  11  21  37  62  91 135 182 227 279 335 410
#
# _framework density 22.963509999999999
#
# number of rings (size 3 to 8) (size 9 to 14) (size 15 to 20)
#    0.000    0.857    2.857    5.143    2.000    0.571 
#    2.571    2.143    0.000    9.857    0.000   13.000 
#    0.000    0.000    0.000    0.000    0.000    0.000 
#
# Total GULP energy -156323.810830 kJ/mol
# GULP energy per Si atom -5582.993244 kJ/mol
# Density = 2.291124 g / cm^3
# Si number density = 22.963510 Si / 1000 Ang^3
#
#
#
# Elastic Constant Matrix: (Units=GPa)
#
#
# Indices 1 2 3 4 5 6 
#
# 1 59.6150 34.6964 23.4785 0.0000 0.0000 0.0000
# 2 34.6964 104.6209 30.4121 0.0000 0.0000 0.0000
# 3 23.4785 30.4121 86.3169 0.0000 0.0000 0.0000
# 4 0.0000 0.0000 0.0000 38.2252 0.0000 0.0000
# 5 0.0000 0.0000 0.0000 0.0000 14.5363 0.0000
# 6 0.0000 0.0000 0.0000 0.0000 0.0000 29.2217
#
#
#
# Elastic Compliance Matrix: (Units=1/GPa)
#
#
# Indices 1 2 3 4 5 6 
#
# 1 0.021837 -0.006145 -0.003775 0.000000 0.000000 0.000000
# 2 -0.006145 0.012378 -0.002690 0.000000 0.000000 0.000000
# 3 -0.003775 -0.002690 0.013560 0.000000 0.000000 0.000000
# 4 0.000000 0.000000 0.000000 0.026161 0.000000 0.000000
# 5 0.000000 0.000000 0.000000 0.000000 0.068793 0.000000
# 6 0.000000 0.000000 0.000000 0.000000 0.000000 0.034221
#
#
# Mechanical properties :
#
#
# Convention : Reuss Voigt Hill
#
# Bulk Modulus (GPa) = 44.33362 47.52521 45.92941
# Shear Modulus (GPa) = 23.84497 27.19435 25.51966
#
# Velocity S-wave (km/s) = 3.22589 3.44501 3.33725
# Velocity P-wave (km/s) = 5.76396 6.04691 5.90713
#
# Compressibility (1/GPa) = 0.02255624
#
# Stress axis : x y z
#
# Youngs Moduli (GPa) = 45.79319 80.78811 73.74808
#
# Poissons Ratio (x) = 0.49643 0.27839
# Poissons Ratio (y) = 0.28139 0.19836
# Poissons Ratio (z) = 0.17286 0.21730
#
# Static dielectric constant tensor:
#      x y z
#    x 1.929270 0.000000 0.000000 
#    y 0.000000 1.871070 0.000000 
#    z 0.000000 0.000000 1.889500 
# 
# From -- ./inp_files/20213.got.cif
#   From: 2010.05.17/outbox.cif.g08.bks.cpg/sg23_11_cif.got.tgz:20213.got - 2010.06.04 12:02:01.
