data_PCOD9331475
_publ_section_title
;
Structure prediction by ZEFSAII (Michael W. Deem and Ramdas Pophale) SiO2 
 PCOD9331475
Probable space group: I 2 2 2
;
_chemical_formula_sum "Si O2"
_cell_formula_units_Z 38
_cell_length_a 5.646367
_cell_length_b 18.808165
_cell_length_c 13.732699
_cell_angle_alpha 90.000000
_cell_angle_beta 90.000000
_cell_angle_gamma 90.000000
_cell_volume 1458.382452
_symmetry_space_group_name_H-M "I 2 2 2"
_symmetry_group_IT_number 23
_symmetry_cell_setting 'orthorhombic'
loop_
_space_group_symop_operation_xyz
x,y,z
-x,-y,z
x,-y,-z
-x,y,-z
1/2+x,1/2+y,1/2+z
1/2-x,1/2-y,1/2+z
1/2+x,1/2-y,1/2-z
1/2-x,1/2+y,1/2-z
loop_
_atom_site_type_symbol
_atom_site_label
_atom_site_fract_x
_atom_site_fract_y
_atom_site_fract_z
Si Si1 0.000000 0.000000 0.500000
Si Si2 0.788890 0.274169 0.626145
Si Si3 0.161843 0.567639 0.858719
Si Si4 0.749552 0.005810 0.837778
Si Si5 0.213251 0.167273 0.190132
Si Si6 0.500000 0.815302 0.500000
O O1 0.884264 0.945328 0.574300
O O2 0.796156 0.218516 0.716297
O O3 0.543057 0.319491 0.639295
O O4 0.727110 0.230974 0.528570
O O5 0.041022 0.314045 0.633049
O O6 0.230657 0.553657 0.747470
O O7 0.050040 0.638225 0.903177
O O8 0.000000 0.500000 0.884568
O O9 0.760032 0.083636 0.787327
O O10 0.500000 0.000000 0.891634
O O11 0.000000 0.000000 0.890013
#
# Coordination Sequence:
#
# PCOD9331475 Si02
#       6
#     2   8   8   8   8   4
#     4  12  18  32  48  78 132 172 194 238 328 380
#     4  10  23  40  61  86 124 183 216 259 302 375
#     4  11  22  34  49  90 130 165 202 256 324 383
#     4  11  22  37  61  90 120 163 206 266 318 368
#     4  10  22  42  58  86 130 172 224 250 308 387
#     4  12  23  40  62  94 135 166 216 260 324 392
#
# _framework density 26.056263000000001
#
# number of rings (size 3 to 8) (size 9 to 14) (size 15 to 20)
#    0.000    1.263    3.158    3.789    0.000    5.895 
#    0.000    0.000    0.000    0.000    0.000   11.053 
#    0.000    0.000    0.000    0.000    0.000    0.000 
#
# Total GULP energy -106138.128412 kJ/mol
# GULP energy per Si atom -5586.217285 kJ/mol
# Density = 2.599696 g / cm^3
# Si number density = 26.056263 Si / 1000 Ang^3
#
#
#
# Elastic Constant Matrix: (Units=GPa)
#
#
# Indices 1 2 3 4 5 6 
#
# 1 208.4171 53.4254 46.2052 0.0001 0.0000 0.0000
# 2 53.4254 94.8947 32.2261 0.0000 0.0000 0.0000
# 3 46.2052 32.2261 98.2134 0.0008 0.0000 0.0000
# 4 0.0001 0.0000 0.0008 549.2884 0.0000 -0.0001
# 5 0.0000 0.0000 0.0000 0.0000 21.5430 0.0000
# 6 0.0000 0.0000 0.0000 -0.0001 0.0000 38.5249
#
#
#
# Elastic Compliance Matrix: (Units=1/GPa)
#
#
# Indices 1 2 3 4 5 6 
#
# 1 0.005906 -0.002680 -0.001899 0.000000 0.000000 0.000000
# 2 -0.002680 0.013076 -0.003030 0.000000 0.000000 0.000000
# 3 -0.001899 -0.003030 0.012069 0.000000 0.000000 0.000000
# 4 0.000000 0.000000 0.000000 0.001821 0.000000 0.000000
# 5 0.000000 0.000000 0.000000 0.000000 0.046419 0.000000
# 6 0.000000 0.000000 0.000000 0.000000 0.000000 0.025957
#
#
# Mechanical properties :
#
#
# Convention : Reuss Voigt Hill
#
# Bulk Modulus (GPa) = 63.15695 73.91539 68.53617
# Shear Modulus (GPa) = 39.76346 139.84915 89.80630
#
# Velocity S-wave (km/s) = 3.91072 7.33406 5.87717
# Velocity P-wave (km/s) = 6.68453 10.00736 8.50971
#
# Compressibility (1/GPa) = 0.01583357
#
# Stress axis : x y z
#
# Youngs Moduli (GPa) = 169.31525 76.47739 82.85387
#
# Poissons Ratio (x) = 0.20497 0.15735
# Poissons Ratio (y) = 0.45380 0.25101
# Poissons Ratio (z) = 0.32156 0.23169
#
# Static dielectric constant tensor:
#      x y z
#    x 1.359200 0.000000 0.000000 
#    y 0.000000 2.119080 0.000000 
#    z 0.000000 0.000000 2.001610 
# 
# From -- ./inp_files/23034.got.cif
#   From: 2010.05.17/outbox.cif.g08.bks.cpg/sg23_12_cif.got.tgz:23034.got - 2010.06.04 12:02:01.
