data_PCOD9331821
_publ_section_title
;
Structure prediction by ZEFSAII (Michael W. Deem and Ramdas Pophale) SiO2 
 PCOD9331821
Probable space group: I 2 2 2
;
_chemical_formula_sum "Si O2"
_cell_formula_units_Z 40
_cell_length_a 8.870893
_cell_length_b 8.829150
_cell_length_c 26.790945
_cell_angle_alpha 90.000000
_cell_angle_beta 90.000000
_cell_angle_gamma 90.000000
_cell_volume 2098.332314
_symmetry_space_group_name_H-M "I 2 2 2"
_symmetry_group_IT_number 23
_symmetry_cell_setting 'orthorhombic'
loop_
_space_group_symop_operation_xyz
x,y,z
-x,-y,z
x,-y,-z
-x,y,-z
1/2+x,1/2+y,1/2+z
1/2-x,1/2-y,1/2+z
1/2+x,1/2-y,1/2-z
1/2-x,1/2+y,1/2-z
loop_
_atom_site_type_symbol
_atom_site_label
_atom_site_fract_x
_atom_site_fract_y
_atom_site_fract_z
Si Si1 0.500000 0.000000 0.599701
Si Si2 0.566430 0.661876 0.555254
Si Si3 0.013133 0.779678 0.337891
Si Si4 0.255690 0.005329 0.683753
Si Si5 0.000000 0.500000 0.268723
Si Si6 0.931270 0.331685 0.447253
O O1 0.479009 0.167731 0.574567
O O2 0.357139 0.983056 0.635410
O O3 0.500000 0.500000 0.578454
O O4 0.500000 0.659525 0.500000
O O5 0.749094 0.656750 0.553032
O O6 0.178621 0.830515 0.319283
O O7 0.971759 0.634590 0.306459
O O8 0.020156 0.758471 0.397573
O O9 0.884593 0.895610 0.322184
O O10 0.357675 0.979790 0.732015
O O11 0.000000 0.500000 0.442295
O O12 0.000000 0.271471 0.500000
#
# Coordination Sequence:
#
# PCOD9331821 Si02
#       6
#     4   8   8   8   4   8
#     4  11  23  42  65  96 137 174 223 277 342 398
#     4  11  24  42  66  95 137 183 229 280 334 406
#     4  11  22  42  66  93 132 172 216 276 340 395
#     4  10  24  41  62  97 134 161 219 286 324 416
#     4  11  22  42  70  90 124 174 224 275 350 396
#     4  11  23  41  66  99 133 177 226 279 333 408
#
# _framework density 19.062757999999999
#
# number of rings (size 3 to 8) (size 9 to 14) (size 15 to 20)
#    0.000    1.200    3.000    3.900    5.600    0.000 
#    0.000    2.000    0.000    0.000    0.000    0.000 
#    0.000    0.000    0.000    0.000    0.000    0.000 
#
# Total GULP energy -111351.555288 kJ/mol
# GULP energy per Si atom -5567.577764 kJ/mol
# Density = 1.901937 g / cm^3
# Si number density = 19.062758 Si / 1000 Ang^3
#
#
#
# Elastic Constant Matrix: (Units=GPa)
#
#
# Indices 1 2 3 4 5 6 
#
# 1 127.5800 39.8686 38.7377 0.0000 0.0000 0.0000
# 2 39.8686 109.7157 36.8682 0.0000 0.0000 0.0000
# 3 38.7377 36.8682 107.2347 0.0000 0.0000 0.0000
# 4 0.0000 0.0000 0.0000 85.4820 0.0000 0.0000
# 5 0.0000 0.0000 0.0000 0.0000 -19.8370 0.0000
# 6 0.0000 0.0000 0.0000 0.0000 0.0000 47.0429
#
#
#
# Elastic Compliance Matrix: (Units=1/GPa)
#
#
# Indices 1 2 3 4 5 6 
#
# 1 0.009405 -0.002573 -0.002513 0.000000 0.000000 0.000000
# 2 -0.002573 0.011009 -0.002855 0.000000 0.000000 0.000000
# 3 -0.002513 -0.002855 0.011215 0.000000 0.000000 0.000000
# 4 0.000000 0.000000 0.000000 0.011698 0.000000 0.000000
# 5 0.000000 0.000000 0.000000 0.000000 -0.050411 0.000000
# 6 0.000000 0.000000 0.000000 0.000000 0.000000 0.021257
#
#
# Mechanical properties :
#
#
# Convention : Reuss Voigt Hill
#
# Bulk Modulus (GPa) = 63.50814 63.94215 63.72514
# Shear Modulus (GPa) = 141.61886 37.80795 89.71341
#
# Velocity S-wave (km/s) = 8.62857 4.45830 6.86763
# Velocity P-wave (km/s) = 11.51769 7.75356 9.81771
#
# Compressibility (1/GPa) = 0.01574601
#
# Stress axis : x y z
#
# Youngs Moduli (GPa) = 106.32214 90.83407 89.16766
#
# Poissons Ratio (x) = 0.23374 0.22407
# Poissons Ratio (y) = 0.27360 0.25461
# Poissons Ratio (z) = 0.26718 0.25937
#
# Static dielectric constant tensor:
#      x y z
#    x 1.629470 0.000000 0.000000 
#    y 0.000000 1.686110 0.000000 
#    z 0.000000 0.000000 1.640730 
# 
# From -- ./inp_files/12913.got.cif
#   From: 2010.05.17/outbox.cif.g08.bks.cpg/sg23_7_cif.got.tgz:12913.got - 2010.06.04 12:02:01.
