data_PCOD9331031
_publ_section_title
;
Structure prediction by ZEFSAII (Michael W. Deem and Ramdas Pophale) SiO2 
 PCOD9331031
Probable space group: I 2 2 2
;
_chemical_formula_sum "Si O2"
_cell_formula_units_Z 58
_cell_length_a 11.511068
_cell_length_b 7.288798
_cell_length_c 29.495929
_cell_angle_alpha 90.000000
_cell_angle_beta 90.000000
_cell_angle_gamma 90.000000
_cell_volume 2474.762993
_symmetry_space_group_name_H-M "I 2 2 2"
_symmetry_group_IT_number 23
_symmetry_cell_setting 'orthorhombic'
loop_
_space_group_symop_operation_xyz
x,y,z
-x,-y,z
x,-y,-z
-x,y,-z
1/2+x,1/2+y,1/2+z
1/2-x,1/2-y,1/2+z
1/2+x,1/2-y,1/2-z
1/2-x,1/2+y,1/2-z
loop_
_atom_site_type_symbol
_atom_site_label
_atom_site_fract_x
_atom_site_fract_y
_atom_site_fract_z
Si Si1 0.136364 0.220628 0.506100
Si Si2 0.960653 0.207604 0.155426
Si Si3 0.703704 0.223182 0.313821
Si Si4 0.678606 0.783491 0.434644
Si Si5 0.135326 0.292764 0.607612
Si Si6 0.874625 0.270062 0.627803
Si Si7 0.751070 0.146738 0.211994
Si Si8 0.500000 0.000000 0.500000
O O1 0.231510 0.304801 0.471647
O O2 0.176231 0.258147 0.556995
O O3 0.000000 0.278847 0.500000
O O4 0.139087 0.000000 0.500000
O O5 0.906351 0.204708 0.104877
O O6 0.863758 0.254090 0.193046
O O7 0.078409 0.318347 0.164343
O O8 0.000000 0.000000 0.163828
O O9 0.796250 0.192245 0.352849
O O10 0.726749 0.139377 0.264853
O O11 0.722694 0.439461 0.303069
O O12 0.781291 0.847463 0.400133
O O13 0.588629 0.892319 0.466579
O O14 0.143265 0.513090 0.615467
O O15 0.002939 0.228798 0.612011
O O16 0.853215 0.269391 0.681740
#
# Coordination Sequence:
#
# PCOD9331031 Si02
#       8
#     8   8   8   8   8   8   8   2
#     4  11  23  42  65  91 131 166 213 269 333 389
#     4   9  21  43  65  86 129 169 213 267 326 391
#     4  10  21  39  64  94 126 164 218 255 327 390
#     4  11  23  45  62  89 127 175 210 271 322 384
#     4  10  21  39  67  96 123 169 210 276 319 394
#     4   9  20  42  66  91 132 157 218 269 330 376
#     4   9  20  40  63  92 125 165 208 271 314 391
#     4  12  28  44  64  88 140 172 226 270 324 396
#
# _framework density 23.436586999999999
#
# number of rings (size 3 to 8) (size 9 to 14) (size 15 to 20)
#    0.000    2.069    2.069    0.828    3.862    0.552 
#   12.414    0.000    0.000    0.000    0.000    0.000 
#    0.000    0.000    0.000    0.000    0.000    0.000 
#
# Total GULP energy -161702.159086 kJ/mol
# GULP energy per Si atom -5575.936520 kJ/mol
# Density = 2.338324 g / cm^3
# Si number density = 23.436587 Si / 1000 Ang^3
#
#
#
# Elastic Constant Matrix: (Units=GPa)
#
#
# Indices 1 2 3 4 5 6 
#
# 1 127.1234 14.3739 70.0590 0.0000 0.0000 0.0000
# 2 14.3739 45.0471 14.4803 0.0000 0.0000 0.0000
# 3 70.0590 14.4803 201.8170 0.0000 0.0000 0.0000
# 4 0.0000 0.0000 0.0000 35.3419 0.0000 0.0000
# 5 0.0000 0.0000 0.0000 0.0000 29.8751 0.0000
# 6 0.0000 0.0000 0.0000 0.0000 0.0000 -1.3420
#
#
#
# Elastic Compliance Matrix: (Units=1/GPa)
#
#
# Indices 1 2 3 4 5 6 
#
# 1 0.009919 -0.002107 -0.003292 0.000000 0.000000 0.000000
# 2 -0.002107 0.023171 -0.000931 0.000000 0.000000 0.000000
# 3 -0.003292 -0.000931 0.006165 0.000000 0.000000 0.000000
# 4 0.000000 0.000000 0.000000 0.028295 0.000000 0.000000
# 5 0.000000 0.000000 0.000000 0.000000 0.033473 0.000000
# 6 0.000000 0.000000 0.000000 0.000000 0.000000 -0.745143
#
#
# Mechanical properties :
#
#
# Convention : Reuss Voigt Hill
#
# Bulk Modulus (GPa) = 37.60238 63.53490 50.56864
# Shear Modulus (GPa) = -8.03088 31.11328 11.54120
#
# Velocity S-wave (km/s) = -1.85313 3.64751 2.22151
# Velocity P-wave (km/s) = 3.39122 6.70129 5.31073
#
# Compressibility (1/GPa) = 0.02659406
#
# Stress axis : x y z
#
# Youngs Moduli (GPa) = 100.81773 43.15830 162.21608
#
# Poissons Ratio (x) = 0.09092 0.53403
# Poissons Ratio (y) = 0.21240 0.15105
# Poissons Ratio (z) = 0.33190 0.04019
#
# Static dielectric constant tensor:
#      x y z
#    x 1.897430 0.000000 0.000000 
#    y 0.000000 1.994200 0.000000 
#    z 0.000000 0.000000 1.871640 
# 
# From -- ./inp_files/29477.got.cif
#   From: 2010.05.17/outbox.cif.g08.bks.cpg/sg23_15_cif.got.tgz:29477.got - 2010.06.04 12:02:01.
