data_PCOD9331203
_publ_section_title
;
Structure prediction by ZEFSAII (Michael W. Deem and Ramdas Pophale) SiO2 
 PCOD9331203
Probable space group: I 2 2 2
;
_chemical_formula_sum "Si O2"
_cell_formula_units_Z 34
_cell_length_a 11.927188
_cell_length_b 13.369476
_cell_length_c 9.103451
_cell_angle_alpha 90.000000
_cell_angle_beta 90.000000
_cell_angle_gamma 90.000000
_cell_volume 1451.638606
_symmetry_space_group_name_H-M "I 2 2 2"
_symmetry_group_IT_number 23
_symmetry_cell_setting 'orthorhombic'
loop_
_space_group_symop_operation_xyz
x,y,z
-x,-y,z
x,-y,-z
-x,y,-z
1/2+x,1/2+y,1/2+z
1/2-x,1/2-y,1/2+z
1/2+x,1/2-y,1/2-z
1/2-x,1/2+y,1/2-z
loop_
_atom_site_type_symbol
_atom_site_label
_atom_site_fract_x
_atom_site_fract_y
_atom_site_fract_z
Si Si1 0.407506 0.364815 0.390766
Si Si2 0.670688 0.181309 0.985988
Si Si3 0.000000 0.500000 0.000000
Si Si4 0.000737 0.656937 0.754031
Si Si5 0.376059 0.594303 0.926279
O O1 0.500000 0.400733 0.500000
O O2 0.292197 0.357818 0.478023
O O3 0.454234 0.257114 0.331653
O O4 0.389734 0.427464 0.244252
O O5 0.597259 0.177815 0.134918
O O6 0.603857 0.126341 0.853621
O O7 0.680891 0.298635 0.944988
O O8 0.043613 0.580353 0.877637
O O9 0.316789 0.500000 0.000000
O O10 0.500000 0.604643 0.000000
#
# Coordination Sequence:
#
# PCOD9331203 Si02
#       5
#     8   8   2   8   8
#     4  11  23  42  73  99 138 184 228 273 353 411
#     4  10  22  45  70  95 145 186 216 279 358 407
#     4  12  24  42  76 108 132 162 252 284 332 428
#     4  10  23  43  69 103 134 182 222 287 343 406
#     4  10  21  42  73  99 137 175 228 284 332 404
#
# _framework density 23.421806
#
# number of rings (size 3 to 8) (size 9 to 14) (size 15 to 20)
#    0.000    1.647    5.882    0.000    6.588    1.882 
#    8.471    2.353   15.529    0.000    0.000    0.000 
#    0.000    0.000    0.000    0.000    0.000    0.000 
#
# Total GULP energy -94965.999976 kJ/mol
# GULP energy per Si atom -5586.235293 kJ/mol
# Density = 2.336850 g / cm^3
# Si number density = 23.421806 Si / 1000 Ang^3
#
#
#
# Elastic Constant Matrix: (Units=GPa)
#
#
# Indices 1 2 3 4 5 6 
#
# 1 141.8892 15.2741 62.2581 0.0000 0.0000 0.0000
# 2 15.2741 59.0573 49.4688 0.0000 0.0000 0.0000
# 3 62.2581 49.4688 188.2192 0.0000 0.0000 0.0000
# 4 0.0000 0.0000 0.0000 53.9683 0.0000 0.0000
# 5 0.0000 0.0000 0.0000 0.0000 17.4665 0.0000
# 6 0.0000 0.0000 0.0000 0.0000 0.0000 -250.5187
#
#
#
# Elastic Compliance Matrix: (Units=1/GPa)
#
#
# Indices 1 2 3 4 5 6 
#
# 1 0.008246 0.000195 -0.002779 0.000000 0.000000 0.000000
# 2 0.000195 0.021717 -0.005772 0.000000 0.000000 0.000000
# 3 -0.002779 -0.005772 0.007749 0.000000 0.000000 0.000000
# 4 0.000000 0.000000 0.000000 0.018529 0.000000 0.000000
# 5 0.000000 0.000000 0.000000 0.000000 0.057252 0.000000
# 6 0.000000 0.000000 0.000000 0.000000 0.000000 -0.003992
#
#
# Mechanical properties :
#
#
# Convention : Reuss Voigt Hill
#
# Bulk Modulus (GPa) = 47.61842 71.46306 59.54074
# Shear Modulus (GPa) = 37.53320 -18.33912 9.59704
#
# Velocity S-wave (km/s) = 4.00745 -2.80124 2.02642
# Velocity P-wave (km/s) = 6.46435 4.48497 5.56340
#
# Compressibility (1/GPa) = 0.02100027
#
# Stress axis : x y z
#
# Youngs Moduli (GPa) = 121.27006 46.04587 129.04474
#
# Poissons Ratio (x) = -0.00898 0.35859
# Poissons Ratio (y) = -0.02364 0.74490
# Poissons Ratio (z) = 0.33699 0.26579
#
# Static dielectric constant tensor:
#      x y z
#    x 1.872930 0.000000 0.000000 
#    y 0.000000 1.944770 0.000000 
#    z 0.000000 0.000000 2.016640 
# 
# From -- ./inp_files/7955.got.cif
#   From: 2010.05.17/outbox.cif.g08.bks.cpg/sg23_4_cif.got.tgz:7955.got - 2010.06.04 12:02:01.
