data_PCOD9331579
_publ_section_title
;
Structure prediction by ZEFSAII (Michael W. Deem and Ramdas Pophale) SiO2 
 PCOD9331579
Probable space group: I 2 2 2
;
_chemical_formula_sum "Si O2"
_cell_formula_units_Z 30
_cell_length_a 18.114888
_cell_length_b 8.224908
_cell_length_c 9.334667
_cell_angle_alpha 90.000000
_cell_angle_beta 90.000000
_cell_angle_gamma 90.000000
_cell_volume 1390.802722
_symmetry_space_group_name_H-M "I 2 2 2"
_symmetry_group_IT_number 23
_symmetry_cell_setting 'orthorhombic'
loop_
_space_group_symop_operation_xyz
x,y,z
-x,-y,z
x,-y,-z
-x,y,-z
1/2+x,1/2+y,1/2+z
1/2-x,1/2-y,1/2+z
1/2+x,1/2-y,1/2-z
1/2-x,1/2+y,1/2-z
loop_
_atom_site_type_symbol
_atom_site_label
_atom_site_fract_x
_atom_site_fract_y
_atom_site_fract_z
Si Si1 0.082127 0.503415 0.172331
Si Si2 0.838058 0.000000 0.000000
Si Si3 0.000000 0.000000 0.500000
Si Si4 0.882563 0.142832 0.279059
Si Si5 0.281987 0.157733 0.602343
O O1 0.110331 0.675854 0.222273
O O2 0.000000 0.500000 0.235704
O O3 0.072935 0.500000 0.000000
O O4 0.145523 0.369566 0.203334
O O5 0.887572 0.972342 0.859713
O O6 0.791439 0.165589 0.971289
O O7 0.056136 0.899930 0.397231
O O8 0.797872 0.135453 0.329735
O O9 0.285694 0.000000 0.500000
#
# Coordination Sequence:
#
# PCOD9331579 Si02
#       5
#     8   4   2   8   8
#     4  10  22  45  73 106 145 191 251 319 368 449
#     4  12  26  43  88 107 142 218 254 316 385 470
#     4  12  32  46  74 112 158 202 262 328 388 476
#     4  12  26  50  74 112 157 201 257 323 388 464
#     4  11  23  49  73 113 153 195 254 316 377 467
#
# _framework density 21.570277000000001
#
# number of rings (size 3 to 8) (size 9 to 14) (size 15 to 20)
#    0.000    0.800    6.667    1.600    3.733    0.533 
#    4.800    0.000    0.000    0.000    0.000    0.000 
#    0.000    0.000    0.000    0.000    0.000    0.000 
#
# Total GULP energy -83610.628340 kJ/mol
# GULP energy per Si atom -5574.041889 kJ/mol
# Density = 2.152118 g / cm^3
# Si number density = 21.570277 Si / 1000 Ang^3
#
#
#
# Elastic Constant Matrix: (Units=GPa)
#
#
# Indices 1 2 3 4 5 6 
#
# 1 198.8027 48.7381 52.7719 0.0000 0.0000 0.0000
# 2 48.7381 140.3702 43.7242 0.0000 0.0000 0.0000
# 3 52.7719 43.7242 91.7048 0.0000 0.0000 0.0000
# 4 0.0000 0.0000 0.0000 35.9720 0.0000 0.0000
# 5 0.0000 0.0000 0.0000 0.0000 20.6267 0.0000
# 6 0.0000 0.0000 0.0000 0.0000 0.0000 -6.5863
#
#
#
# Elastic Compliance Matrix: (Units=1/GPa)
#
#
# Indices 1 2 3 4 5 6 
#
# 1 0.006106 -0.001204 -0.002939 0.000000 0.000000 0.000000
# 2 -0.001204 0.008604 -0.003409 0.000000 0.000000 0.000000
# 3 -0.002939 -0.003409 0.014222 0.000000 0.000000 0.000000
# 4 0.000000 0.000000 0.000000 0.027799 0.000000 0.000000
# 5 0.000000 0.000000 0.000000 0.000000 0.048481 0.000000
# 6 0.000000 0.000000 0.000000 0.000000 0.000000 -0.151831
#
#
# Mechanical properties :
#
#
# Convention : Reuss Voigt Hill
#
# Bulk Modulus (GPa) = 72.33100 80.14957 76.24029
# Shear Modulus (GPa) = -185.84152 29.04539 -78.39807
#
# Velocity S-wave (km/s) = -9.29211 3.67351 -6.03526
# Velocity P-wave (km/s) = 9.02878 7.43176 3.62546
#
# Compressibility (1/GPa) = 0.01382533
#
# Stress axis : x y z
#
# Youngs Moduli (GPa) = 163.78424 116.22261 70.31604
#
# Poissons Ratio (x) = 0.13998 0.20668
# Poissons Ratio (y) = 0.19726 0.23973
# Poissons Ratio (z) = 0.48140 0.39624
#
# Static dielectric constant tensor:
#      x y z
#    x 1.960120 0.000000 0.000000 
#    y 0.000000 1.792500 0.000000 
#    z 0.000000 0.000000 1.839950 
# 
# From -- ./inp_files/11590.got.cif
#   From: 2010.05.17/outbox.cif.g08.bks.cpg/sg23_6_cif.got.tgz:11590.got - 2010.06.04 12:02:01.
