data_PCOD9331339
_publ_section_title
;
Structure prediction by ZEFSAII (Michael W. Deem and Ramdas Pophale) SiO2 
 PCOD9331339
Probable space group: I 2 2 2
;
_chemical_formula_sum "Si O2"
_cell_formula_units_Z 40
_cell_length_a 5.377741
_cell_length_b 11.107385
_cell_length_c 26.475879
_cell_angle_alpha 90.000000
_cell_angle_beta 90.000000
_cell_angle_gamma 90.000000
_cell_volume 1581.474142
_symmetry_space_group_name_H-M "I 2 2 2"
_symmetry_group_IT_number 23
_symmetry_cell_setting 'orthorhombic'
loop_
_space_group_symop_operation_xyz
x,y,z
-x,-y,z
x,-y,-z
-x,y,-z
1/2+x,1/2+y,1/2+z
1/2-x,1/2-y,1/2+z
1/2+x,1/2-y,1/2-z
1/2-x,1/2+y,1/2-z
loop_
_atom_site_type_symbol
_atom_site_label
_atom_site_fract_x
_atom_site_fract_y
_atom_site_fract_z
Si Si1 0.108383 0.658972 0.054665
Si Si2 0.610154 0.348312 0.890412
Si Si3 0.650321 0.381737 0.692236
Si Si4 0.873700 0.385951 0.583653
Si Si5 0.373585 0.870993 0.297603
O O1 0.366905 0.607856 0.078454
O O2 0.179394 0.801547 0.054128
O O3 0.883062 0.622215 0.090276
O O4 0.000000 0.628054 0.000000
O O5 0.591055 0.206519 0.901743
O O6 0.618362 0.370355 0.830661
O O7 0.500000 0.500000 0.709459
O O8 0.755624 0.416941 0.637666
O O9 0.512029 0.252960 0.686397
O O10 0.842505 0.361005 0.737518
O O11 0.000000 0.500000 0.558809
O O12 0.500000 0.000000 0.307454
#
# Coordination Sequence:
#
# PCOD9331339 Si02
#       5
#     8   8   8   8   8
#     4  10  22  42  69  99 144 191 249 314 386 452
#     4  10  22  42  66 101 138 196 239 317 369 453
#     4  12  24  42  69 104 156 203 255 305 387 456
#     4  10  22  38  67  98 148 197 246 302 383 455
#     4  12  24  42  68 109 152 207 266 320 378 459
#
# _framework density 25.292857000000001
#
# number of rings (size 3 to 8) (size 9 to 14) (size 15 to 20)
#    1.200    0.000    2.000    4.800    0.000    1.600 
#    0.000    3.000    0.000    0.600    0.000    5.600 
#    0.000    1.600    0.000    0.000    0.000    0.000 
#
# Total GULP energy -111665.044987 kJ/mol
# GULP energy per Si atom -5583.252249 kJ/mol
# Density = 2.523529 g / cm^3
# Si number density = 25.292857 Si / 1000 Ang^3
#
#
#
# Elastic Constant Matrix: (Units=GPa)
#
#
# Indices 1 2 3 4 5 6 
#
# 1 125.8463 58.1701 34.0004 0.0000 0.0000 0.0000
# 2 58.1701 183.5124 16.2000 0.0000 0.0000 0.0000
# 3 34.0004 16.2000 120.9553 0.0000 0.0000 0.0000
# 4 0.0000 0.0000 0.0000 120.3172 0.0000 0.0000
# 5 0.0000 0.0000 0.0000 0.0000 35.0707 0.0000
# 6 0.0000 0.0000 0.0000 0.0000 0.0000 57.7654
#
#
#
# Elastic Compliance Matrix: (Units=1/GPa)
#
#
# Indices 1 2 3 4 5 6 
#
# 1 0.009957 -0.002944 -0.002405 0.000000 0.000000 0.000000
# 2 -0.002944 0.006385 -0.000028 0.000000 0.000000 0.000000
# 3 -0.002405 -0.000028 0.008947 0.000000 0.000000 0.000000
# 4 0.000000 0.000000 0.000000 0.008311 0.000000 0.000000
# 5 0.000000 0.000000 0.000000 0.000000 0.028514 0.000000
# 6 0.000000 0.000000 0.000000 0.000000 0.000000 0.017311
#
#
# Mechanical properties :
#
#
# Convention : Reuss Voigt Hill
#
# Bulk Modulus (GPa) = 68.79188 71.89501 70.34344
# Shear Modulus (GPa) = 52.61916 64.09356 58.35636
#
# Velocity S-wave (km/s) = 4.56608 5.03940 4.80857
# Velocity P-wave (km/s) = 7.41997 7.89604 7.66171
#
# Compressibility (1/GPa) = 0.01453660
#
# Stress axis : x y z
#
# Youngs Moduli (GPa) = 100.43652 156.62231 111.76777
#
# Poissons Ratio (x) = 0.46106 0.26875
# Poissons Ratio (y) = 0.29566 0.00309
# Poissons Ratio (z) = 0.24150 0.00433
#
# Static dielectric constant tensor:
#      x y z
#    x 1.896840 0.000000 0.000000 
#    y 0.000000 2.009540 0.000000 
#    z 0.000000 0.000000 2.104990 
# 
# From -- ./inp_files/29881.got.cif
#   From: 2010.05.17/outbox.cif.g08.bks.cpg/sg23_15_cif.got.tgz:29881.got - 2010.06.04 12:02:01.
