data_PCOD9331168
_publ_section_title
;
Structure prediction by ZEFSAII (Michael W. Deem and Ramdas Pophale) SiO2 
 PCOD9331168
Probable space group: I 2 2 2
;
_chemical_formula_sum "Si O2"
_cell_formula_units_Z 52
_cell_length_a 8.968481
_cell_length_b 13.927974
_cell_length_c 19.380849
_cell_angle_alpha 90.000000
_cell_angle_beta 90.000000
_cell_angle_gamma 90.000000
_cell_volume 2420.915537
_symmetry_space_group_name_H-M "I 2 2 2"
_symmetry_group_IT_number 23
_symmetry_cell_setting 'orthorhombic'
loop_
_space_group_symop_operation_xyz
x,y,z
-x,-y,z
x,-y,-z
-x,y,-z
1/2+x,1/2+y,1/2+z
1/2-x,1/2-y,1/2+z
1/2+x,1/2-y,1/2-z
1/2-x,1/2+y,1/2-z
loop_
_atom_site_type_symbol
_atom_site_label
_atom_site_fract_x
_atom_site_fract_y
_atom_site_fract_z
Si Si1 0.329515 0.581649 0.214208
Si Si2 0.062110 0.688851 0.249510
Si Si3 0.000000 0.000000 0.158738
Si Si4 0.072381 0.837774 0.372509
Si Si5 0.500000 0.798073 0.000000
Si Si6 0.500000 0.000000 0.840618
Si Si7 0.372179 0.075288 0.651005
Si Si8 0.743016 0.435148 0.562008
O O1 0.226018 0.674476 0.218056
O O2 0.407480 0.564542 0.287141
O O3 0.437703 0.591320 0.148674
O O4 0.218215 0.491644 0.205024
O O5 0.073313 0.779035 0.299715
O O6 0.020312 0.597425 0.297736
O O7 0.950185 0.667628 0.186185
O O8 0.899532 0.072540 0.112702
O O9 0.035843 0.766790 0.434081
O O10 0.231163 0.885480 0.391164
O O11 0.647316 0.857320 0.974694
O O12 0.358330 0.008450 0.889607
O O13 0.500000 0.000000 0.624095
O O14 0.687051 0.500000 0.500000
#
# Coordination Sequence:
#
# PCOD9331168 Si02
#       8
#     8   8   4   8   4   4   8   8
#     4  11  22  39  65 100 131 165 225 282 342 403
#     4  11  20  37  67 101 136 167 213 280 350 408
#     4  12  23  36  70 103 128 166 232 282 338 427
#     4  12  24  40  64  99 131 181 228 285 333 407
#     4  12  27  42  65  90 144 186 234 278 343 423
#     4  12  17  36  70  92 132 185 212 250 346 429
#     4  10  21  41  68  96 134 172 217 284 349 403
#     4  12  22  41  64  96 137 186 218 262 337 440
#
# _framework density 21.479476999999999
#
# number of rings (size 3 to 8) (size 9 to 14) (size 15 to 20)
#    0.000    0.615    8.462    1.154    0.000    1.231 
#    0.000    1.538    0.000    2.769    0.000    0.000 
#    0.000    0.000    0.000    0.000    0.000    0.000 
#
# Total GULP energy -144800.008831 kJ/mol
# GULP energy per Si atom -5569.231109 kJ/mol
# Density = 2.143059 g / cm^3
# Si number density = 21.479477 Si / 1000 Ang^3
#
#
#
# Elastic Constant Matrix: (Units=GPa)
#
#
# Indices 1 2 3 4 5 6 
#
# 1 128.5540 24.3254 34.2047 0.0000 0.0000 0.0000
# 2 24.3254 49.7862 8.6938 0.0000 0.0000 0.0000
# 3 34.2047 8.6938 60.9240 0.0000 0.0000 0.0000
# 4 0.0000 0.0000 0.0000 22.7934 0.0000 0.0000
# 5 0.0000 0.0000 0.0000 0.0000 14.2119 0.0000
# 6 0.0000 0.0000 0.0000 0.0000 0.0000 23.1525
#
#
#
# Elastic Compliance Matrix: (Units=1/GPa)
#
#
# Indices 1 2 3 4 5 6 
#
# 1 0.009846 -0.003944 -0.004965 0.000000 0.000000 0.000000
# 2 -0.003944 0.022179 -0.000951 0.000000 0.000000 0.000000
# 3 -0.004965 -0.000951 0.019337 0.000000 0.000000 0.000000
# 4 0.000000 0.000000 0.000000 0.043872 0.000000 0.000000
# 5 0.000000 0.000000 0.000000 0.000000 0.070364 0.000000
# 6 0.000000 0.000000 0.000000 0.000000 0.000000 0.043192
#
#
# Mechanical properties :
#
#
# Convention : Reuss Voigt Hill
#
# Bulk Modulus (GPa) = 31.60277 41.52354 36.56315
# Shear Modulus (GPa) = 20.91549 23.50089 22.20819
#
# Velocity S-wave (km/s) = 3.12387 3.31132 3.21896
# Velocity P-wave (km/s) = 5.26843 5.83039 5.55652
#
# Compressibility (1/GPa) = 0.03164280
#
# Stress axis : x y z
#
# Youngs Moduli (GPa) = 101.56208 45.08807 51.71382
#
# Poissons Ratio (x) = 0.17782 0.25677
# Poissons Ratio (y) = 0.40054 0.04916
# Poissons Ratio (z) = 0.50428 0.04287
#
# Static dielectric constant tensor:
#      x y z
#    x 1.886060 0.000000 0.000000 
#    y 0.000000 1.863580 0.000000 
#    z 0.000000 0.000000 1.767230 
# 
# From -- ./inp_files/26227.got.cif
#   From: 2010.05.17/outbox.cif.g08.bks.cpg/sg23_14_cif.got.tgz:26227.got - 2010.06.04 12:02:01.
