data_PCOD9331317
_publ_section_title
;
Structure prediction by ZEFSAII (Michael W. Deem and Ramdas Pophale) SiO2 
 PCOD9331317
Probable space group: I 2 2 2
;
_chemical_formula_sum "Si O2"
_cell_formula_units_Z 40
_cell_length_a 12.606701
_cell_length_b 5.387214
_cell_length_c 25.164076
_cell_angle_alpha 90.000000
_cell_angle_beta 90.000000
_cell_angle_gamma 90.000000
_cell_volume 1709.018124
_symmetry_space_group_name_H-M "I 2 2 2"
_symmetry_group_IT_number 23
_symmetry_cell_setting 'orthorhombic'
loop_
_space_group_symop_operation_xyz
x,y,z
-x,-y,z
x,-y,-z
-x,y,-z
1/2+x,1/2+y,1/2+z
1/2-x,1/2-y,1/2+z
1/2+x,1/2-y,1/2-z
1/2-x,1/2+y,1/2-z
loop_
_atom_site_type_symbol
_atom_site_label
_atom_site_fract_x
_atom_site_fract_y
_atom_site_fract_z
Si Si1 0.122026 0.031521 0.918457
Si Si2 0.691507 0.758197 0.030712
Si Si3 0.773205 0.943253 0.380472
Si Si4 0.611155 0.128177 0.199916
Si Si5 0.678503 0.317502 0.305830
O O1 0.187977 0.841133 0.955106
O O2 0.129115 0.961401 0.855873
O O3 0.192091 0.286474 0.918299
O O4 0.000000 0.000000 0.933524
O O5 0.664679 0.668578 0.090591
O O6 0.674766 0.500000 0.000000
O O7 0.645537 0.000000 0.000000
O O8 0.858607 0.766739 0.354099
O O9 0.703132 0.051597 0.332517
O O10 0.612056 0.299287 0.252449
O O11 0.500000 0.000000 0.195713
O O12 0.709005 0.939729 0.208293
#
# Coordination Sequence:
#
# PCOD9331317 Si02
#       5
#     8   8   8   8   8
#     4  10  23  39  62  95 138 187 229 286 344 422
#     4  11  22  43  67  97 136 187 231 295 366 423
#     4  10  22  43  60  94 141 177 244 289 351 429
#     4  11  23  39  65  98 140 196 239 292 352 421
#     4  10  22  38  60  93 139 185 235 279 342 423
#
# _framework density 23.405251
#
# number of rings (size 3 to 8) (size 9 to 14) (size 15 to 20)
#    0.000    1.600    4.000    0.000    2.800    3.600 
#    3.600    0.000    0.000    0.000    0.000   40.600 
#    0.000    0.000    0.000    0.000    0.000    0.000 
#
# Total GULP energy -111517.345140 kJ/mol
# GULP energy per Si atom -5575.867257 kJ/mol
# Density = 2.335198 g / cm^3
# Si number density = 23.405251 Si / 1000 Ang^3
#
#
#
# Elastic Constant Matrix: (Units=GPa)
#
#
# Indices 1 2 3 4 5 6 
#
# 1 55.5387 23.2666 15.8113 0.0000 0.0000 0.0000
# 2 23.2666 126.8844 42.3433 0.0000 0.0000 0.0000
# 3 15.8113 42.3433 87.1986 0.0000 0.0000 0.0000
# 4 0.0000 0.0000 0.0000 46.2910 0.0000 0.0000
# 5 0.0000 0.0000 0.0000 0.0000 1.3532 0.0000
# 6 0.0000 0.0000 0.0000 0.0000 0.0000 11.2858
#
#
#
# Elastic Compliance Matrix: (Units=1/GPa)
#
#
# Indices 1 2 3 4 5 6 
#
# 1 0.019847 -0.002910 -0.002186 0.000000 0.000000 0.000000
# 2 -0.002910 0.009832 -0.004247 0.000000 0.000000 0.000000
# 3 -0.002186 -0.004247 0.013927 0.000000 0.000000 0.000000
# 4 0.000000 0.000000 0.000000 0.021602 0.000000 0.000000
# 5 0.000000 0.000000 0.000000 0.000000 0.738991 0.000000
# 6 0.000000 0.000000 0.000000 0.000000 0.000000 0.088607
#
#
# Mechanical properties :
#
#
# Convention : Reuss Voigt Hill
#
# Bulk Modulus (GPa) = 40.12725 48.05155 44.08940
# Shear Modulus (GPa) = 5.43598 24.33271 14.88435
#
# Velocity S-wave (km/s) = 1.52564 3.22782 2.52452
# Velocity P-wave (km/s) = 4.50391 5.87083 5.23220
#
# Compressibility (1/GPa) = 0.02492072
#
# Stress axis : x y z
#
# Youngs Moduli (GPa) = 50.38613 101.70906 71.80507
#
# Poissons Ratio (x) = 0.29596 0.15694
# Poissons Ratio (y) = 0.14662 0.30494
# Poissons Ratio (z) = 0.11013 0.43193
#
# Static dielectric constant tensor:
#      x y z
#    x 1.820090 0.000000 0.000000 
#    y 0.000000 2.020600 0.000000 
#    z 0.000000 0.000000 2.038340 
# 
# From -- ./inp_files/1709.got.cif
#   From: 2010.05.17/outbox.cif.g08.bks.cpg/sg23_1_cif.got.tgz:1709.got - 2010.06.04 12:02:01.
