data_PCOD9331446
_publ_section_title
;
Structure prediction by ZEFSAII (Michael W. Deem and Ramdas Pophale) SiO2 
 PCOD9331446
Probable space group: I 2 2 2
;
_chemical_formula_sum "Si O2"
_cell_formula_units_Z 58
_cell_length_a 25.163158
_cell_length_b 7.066530
_cell_length_c 14.684397
_cell_angle_alpha 90.000000
_cell_angle_beta 90.000000
_cell_angle_gamma 90.000000
_cell_volume 2611.123834
_symmetry_space_group_name_H-M "I 2 2 2"
_symmetry_group_IT_number 23
_symmetry_cell_setting 'orthorhombic'
loop_
_space_group_symop_operation_xyz
x,y,z
-x,-y,z
x,-y,-z
-x,y,-z
1/2+x,1/2+y,1/2+z
1/2-x,1/2-y,1/2+z
1/2+x,1/2-y,1/2-z
1/2-x,1/2+y,1/2-z
loop_
_atom_site_type_symbol
_atom_site_label
_atom_site_fract_x
_atom_site_fract_y
_atom_site_fract_z
Si Si1 0.000000 0.000000 0.000000
Si Si2 0.348086 0.739843 0.917100
Si Si3 0.803874 0.358096 0.078297
Si Si4 0.024920 0.713594 0.406994
Si Si5 0.083009 0.276395 0.975352
Si Si6 0.461724 0.835365 0.714361
Si Si7 0.188217 0.809631 0.614636
Si Si8 0.350863 0.985031 0.239266
O O1 0.955338 0.849570 0.038683
O O2 0.411978 0.760210 0.919686
O O3 0.327490 0.530013 0.892535
O O4 0.326845 0.877909 0.838536
O O5 0.330598 0.780237 0.019668
O O6 0.853501 0.243454 0.034706
O O7 0.750977 0.265870 0.118124
O O8 0.827654 0.477587 0.161754
O O9 0.784483 0.500000 0.000000
O O10 0.015495 0.776911 0.301718
O O11 0.000000 0.500000 0.404295
O O12 0.000000 0.795328 0.500000
O O13 0.059547 0.231551 0.874692
O O14 0.078304 0.500000 0.000000
O O15 0.411537 0.951942 0.753566
O O16 0.500000 0.000000 0.681559
O O17 0.158492 0.721568 0.700567
#
# Coordination Sequence:
#
# PCOD9331446 Si02
#       8
#     2   8   8   8   8   8   8   8
#     4  12  22  40  72  98 118 164 214 268 326 402
#     4  10  22  41  63  95 128 170 219 268 324 382
#     4  10  22  45  63  95 135 172 211 279 328 384
#     4   9  19  33  63  86 125 172 207 258 308 378
#     4  10  22  42  67  92 131 166 212 266 335 390
#     4   9  18  36  60  91 122 163 214 254 318 385
#     4  11  23  40  65  92 131 167 226 273 315 389
#     4  10  23  39  68  90 124 181 212 262 337 389
#
# _framework density 22.212658000000001
#
# number of rings (size 3 to 8) (size 9 to 14) (size 15 to 20)
#    0.000    2.069    1.379    1.448   11.586    0.000 
#    2.483   17.931    0.000    0.000    0.000    0.000 
#    0.000    0.000    0.000    0.000    0.000    0.000 
#
# Total GULP energy -161484.412605 kJ/mol
# GULP energy per Si atom -5568.428021 kJ/mol
# Density = 2.216210 g / cm^3
# Si number density = 22.212658 Si / 1000 Ang^3
#
#
#
# Elastic Constant Matrix: (Units=GPa)
#
#
# Indices 1 2 3 4 5 6 
#
# 1 103.0997 35.8724 14.0163 0.0000 0.0000 0.0000
# 2 35.8724 78.3815 7.2406 0.0000 0.0000 0.0000
# 3 14.0163 7.2406 85.7274 0.0000 0.0000 0.0000
# 4 0.0000 0.0000 0.0000 23.7337 0.0000 0.0000
# 5 0.0000 0.0000 0.0000 0.0000 10.5221 0.0000
# 6 0.0000 0.0000 0.0000 0.0000 0.0000 15.8650
#
#
#
# Elastic Compliance Matrix: (Units=1/GPa)
#
#
# Indices 1 2 3 4 5 6 
#
# 1 0.011718 -0.005227 -0.001474 0.000000 0.000000 0.000000
# 2 -0.005227 0.015190 -0.000428 0.000000 0.000000 0.000000
# 3 -0.001474 -0.000428 0.011942 0.000000 0.000000 0.000000
# 4 0.000000 0.000000 0.000000 0.042134 0.000000 0.000000
# 5 0.000000 0.000000 0.000000 0.000000 0.095038 0.000000
# 6 0.000000 0.000000 0.000000 0.000000 0.000000 0.063032
#
#
# Mechanical properties :
#
#
# Convention : Reuss Voigt Hill
#
# Bulk Modulus (GPa) = 40.66536 42.38524 41.52530
# Shear Modulus (GPa) = 19.11967 24.02946 21.57456
#
# Velocity S-wave (km/s) = 2.93705 3.29263 3.11991
# Velocity P-wave (km/s) = 5.46340 5.79467 5.63147
#
# Compressibility (1/GPa) = 0.02459096
#
# Stress axis : x y z
#
# Youngs Moduli (GPa) = 85.33549 65.83343 83.73707
#
# Poissons Ratio (x) = 0.34411 0.12347
# Poissons Ratio (y) = 0.44604 0.03587
# Poissons Ratio (z) = 0.12583 0.02820
#
# Static dielectric constant tensor:
#      x y z
#    x 1.854220 0.000000 0.000000 
#    y 0.000000 1.874090 0.000000 
#    z 0.000000 0.000000 1.826400 
# 
# From -- ./inp_files/22588.got.cif
#   From: 2010.05.17/outbox.cif.g08.bks.cpg/sg23_12_cif.got.tgz:22588.got - 2010.06.04 12:02:01.
