data_PCOD9331866
_publ_section_title
;
Structure prediction by ZEFSAII (Michael W. Deem and Ramdas Pophale) SiO2 
 PCOD9331866
Probable space group: I 2 2 2
;
_chemical_formula_sum "Si O2"
_cell_formula_units_Z 26
_cell_length_a 6.938982
_cell_length_b 11.820146
_cell_length_c 15.535235
_cell_angle_alpha 90.000000
_cell_angle_beta 90.000000
_cell_angle_gamma 90.000000
_cell_volume 1274.196562
_symmetry_space_group_name_H-M "I 2 2 2"
_symmetry_group_IT_number 23
_symmetry_cell_setting 'orthorhombic'
loop_
_space_group_symop_operation_xyz
x,y,z
-x,-y,z
x,-y,-z
-x,y,-z
1/2+x,1/2+y,1/2+z
1/2-x,1/2-y,1/2+z
1/2+x,1/2-y,1/2-z
1/2-x,1/2+y,1/2-z
loop_
_atom_site_type_symbol
_atom_site_label
_atom_site_fract_x
_atom_site_fract_y
_atom_site_fract_z
Si Si1 0.500000 0.000000 0.500000
Si Si2 0.222067 0.977230 0.177971
Si Si3 0.179105 0.077896 0.626252
Si Si4 0.514232 0.176898 0.897054
O O1 0.643420 0.928174 0.560450
O O2 0.243840 0.968966 0.280878
O O3 0.307027 0.861064 0.139573
O O4 0.342679 0.079662 0.137103
O O5 0.000000 0.000000 0.158773
O O6 0.093180 0.203277 0.634250
O O7 0.000000 0.000000 0.597412
O O8 0.500000 0.177415 0.000000
#
# Coordination Sequence:
#
# PCOD9331866 Si02
#       4
#     2   8   8   8
#     4  12  22  44  68  98 144 188 222 280 368 404
#     4  10  24  43  69  97 134 182 229 280 352 415
#     4  11  26  43  67 103 138 181 236 288 346 430
#     4  11  24  44  67 101 141 171 234 296 337 420
#
# _framework density 20.405014000000001
#
# number of rings (size 3 to 8) (size 9 to 14) (size 15 to 20)
#    0.000    1.231    0.000    6.000    8.615    7.385 
#    0.000    0.000    0.000    0.000    0.000    0.000 
#    0.000    0.000    0.000    0.000    0.000    0.000 
#
# Total GULP energy -72673.888544 kJ/mol
# GULP energy per Si atom -5590.299119 kJ/mol
# Density = 2.035857 g / cm^3
# Si number density = 20.405014 Si / 1000 Ang^3
#
#
#
# Elastic Constant Matrix: (Units=GPa)
#
#
# Indices 1 2 3 4 5 6 
#
# 1 113.3817 21.3064 1.7150 0.0000 0.0000 0.0000
# 2 21.3064 106.3350 -18.1530 0.0000 0.0000 0.0000
# 3 1.7150 -18.1530 55.3659 0.0000 0.0000 0.0000
# 4 0.0000 0.0000 0.0000 3.6479 0.0000 0.0000
# 5 0.0000 0.0000 0.0000 0.0000 52.6316 0.0000
# 6 0.0000 0.0000 0.0000 0.0000 0.0000 26.6903
#
#
#
# Elastic Compliance Matrix: (Units=1/GPa)
#
#
# Indices 1 2 3 4 5 6 
#
# 1 0.009211 -0.002007 -0.000943 0.000000 0.000000 0.000000
# 2 -0.002007 0.010399 0.003472 0.000000 0.000000 0.000000
# 3 -0.000943 0.003472 0.019229 0.000000 0.000000 0.000000
# 4 0.000000 0.000000 0.000000 0.274130 0.000000 0.000000
# 5 0.000000 0.000000 0.000000 0.000000 0.019000 0.000000
# 6 0.000000 0.000000 0.000000 0.000000 0.000000 0.037467
#
#
# Mechanical properties :
#
#
# Convention : Reuss Voigt Hill
#
# Bulk Modulus (GPa) = 25.07342 31.64659 28.36001
# Shear Modulus (GPa) = 13.09974 34.60823 23.85399
#
# Velocity S-wave (km/s) = 2.53649 4.12280 3.42281
# Velocity P-wave (km/s) = 4.57088 6.18112 5.43595
#
# Compressibility (1/GPa) = 0.03988286
#
# Stress axis : x y z
#
# Youngs Moduli (GPa) = 108.56443 96.16316 52.00434
#
# Poissons Ratio (x) = 0.19297 0.04905
# Poissons Ratio (y) = 0.21785 -0.18054
# Poissons Ratio (z) = 0.10240 -0.33385
#
# Static dielectric constant tensor:
#      x y z
#    x 1.732470 0.000000 0.000000 
#    y 0.000000 1.695040 0.000000 
#    z 0.000000 0.000000 1.730140 
# 
# From -- ./inp_files/22882.got.cif
#   From: 2010.05.17/outbox.cif.g08.bks.cpg/sg23_12_cif.got.tgz:22882.got - 2010.06.04 12:02:01.
