data_PCOD9331013
_publ_section_title
;
Structure prediction by ZEFSAII (Michael W. Deem and Ramdas Pophale) SiO2 
 PCOD9331013
Probable space group: I 2 2 2
;
_chemical_formula_sum "Si O2"
_cell_formula_units_Z 64
_cell_length_a 15.874789
_cell_length_b 8.690291
_cell_length_c 24.479991
_cell_angle_alpha 90.000000
_cell_angle_beta 90.000000
_cell_angle_gamma 90.000000
_cell_volume 3377.174759
_symmetry_space_group_name_H-M "I 2 2 2"
_symmetry_group_IT_number 23
_symmetry_cell_setting 'orthorhombic'
loop_
_space_group_symop_operation_xyz
x,y,z
-x,-y,z
x,-y,-z
-x,y,-z
1/2+x,1/2+y,1/2+z
1/2-x,1/2-y,1/2+z
1/2+x,1/2-y,1/2-z
1/2-x,1/2+y,1/2-z
loop_
_atom_site_type_symbol
_atom_site_label
_atom_site_fract_x
_atom_site_fract_y
_atom_site_fract_z
Si Si1 0.601332 0.318095 0.000000
Si Si2 1.000000 0.815274 0.686319
Si Si3 0.500000 0.312418 0.312162
Si Si4 0.157750 0.814300 0.114847
Si Si5 0.846874 0.684355 0.616282
Si Si6 0.900875 0.683892 0.000000
Si Si7 0.657750 0.685700 0.614847
Si Si8 0.846874 0.684355 0.383718
O O1 0.637143 0.242045 0.054673
O O2 0.620108 0.500000 0.000000
O O3 0.500000 0.299674 0.000000
O O4 0.637143 0.242045 0.945327
O O5 1.000000 0.763438 0.749308
O O6 0.082191 0.755536 0.654854
O O7 0.917809 0.755536 0.654854
O O8 0.000000 0.000000 0.684651
O O9 0.500000 0.500000 0.312354
O O10 0.416596 0.262019 0.344784
O O11 0.583404 0.262019 0.344784
O O12 0.140254 0.750202 0.054622
O O13 0.251878 0.771094 0.132899
O O14 0.154388 0.000000 0.112075
O O15 0.751878 0.728906 0.632899
O O16 0.854065 0.500000 0.617424
O O17 0.893745 0.500000 0.000000
O O18 0.859746 0.750202 0.054622
O O19 0.000000 0.725648 0.000000
#
# Coordination Sequence:
#
# PCOD9331013 Si02
#       8
#     8   8   8   8   8   8   8   8
#     4  11  22  37  60  87 116 154 192 229 286 351
#     4  11  23  40  61  84 113 156 198 237 290 345
#     4   9  20  40  63  84 112 152 201 241 276 341
#     4  10  21  39  63  87 114 155 198 235 284 344
#     4  11  23  38  60  90 119 149 191 243 291 339
#     4  11  22  35  56  91 127 153 184 235 293 342
#     4  10  21  39  63  87 114 155 198 235 284 344
#     4  11  23  38  60  90 119 149 191 243 291 339
#
# _framework density 18.950752000000001
#
# number of rings (size 3 to 8) (size 9 to 14) (size 15 to 20)
#    0.000    1.500    2.500    2.625    0.000    7.000 
#    0.000    2.500    0.000    0.000    0.000    0.000 
#    0.000    0.000    0.000    0.000    0.000    0.000 
#
# Total GULP energy -178867.769840 kJ/mol
# GULP energy per Si atom -5589.617807 kJ/mol
# Density = 1.890762 g / cm^3
# Si number density = 18.950752 Si / 1000 Ang^3
#
#
#
# Elastic Constant Matrix: (Units=GPa)
#
#
# Indices 1 2 3 4 5 6 
#
# 1 197.4869 53.1828 102.3460 0.0000 0.0000 0.0000
# 2 53.1828 37.8922 29.8163 0.0000 0.0000 0.0000
# 3 102.3460 29.8163 168.1907 0.0000 0.0000 0.0000
# 4 0.0000 0.0000 0.0000 -24.3522 0.0000 0.0000
# 5 0.0000 0.0000 0.0000 0.0000 -4.1350 0.0000
# 6 0.0000 0.0000 0.0000 0.0000 0.0000 20.1730
#
#
#
# Elastic Compliance Matrix: (Units=1/GPa)
#
#
# Indices 1 2 3 4 5 6 
#
# 1 0.010251 -0.011015 -0.004285 0.000000 0.000000 0.000000
# 2 -0.011015 0.042506 -0.000832 0.000000 0.000000 0.000000
# 3 -0.004285 -0.000832 0.008701 0.000000 0.000000 0.000000
# 4 0.000000 0.000000 0.000000 -0.041064 0.000000 0.000000
# 5 0.000000 0.000000 0.000000 0.000000 -0.241839 0.000000
# 6 0.000000 0.000000 0.000000 0.000000 0.000000 0.049571
#
#
# Mechanical properties :
#
#
# Convention : Reuss Voigt Hill
#
# Bulk Modulus (GPa) = 34.25593 86.02890 60.14241
# Shear Modulus (GPa) = -38.49750 12.88548 -12.80601
#
# Velocity S-wave (km/s) = -4.51205 2.61041 -2.60234
# Velocity P-wave (km/s) = 3.00487 7.38784 4.77237
#
# Compressibility (1/GPa) = 0.02919203
#
# Stress axis : x y z
#
# Youngs Moduli (GPa) = 97.55480 23.52608 114.93502
#
# Poissons Ratio (x) = 0.25915 0.49248
# Poissons Ratio (y) = 1.07461 0.09566
# Poissons Ratio (z) = 0.41801 0.01958
#
# Static dielectric constant tensor:
#      x y z
#    x 1.669190 0.000000 0.000000 
#    y 0.000000 1.636010 0.000000 
#    z 0.000000 0.000000 1.611940 
# 
# From -- ./inp_files/10340.got.cif
#   From: 2010.05.17/outbox.cif.g08.bks.cpg/sg23_6_cif.got.tgz:10340.got - 2010.06.04 12:02:01.
