data_PCOD9331632
_publ_section_title
;
Structure prediction by ZEFSAII (Michael W. Deem and Ramdas Pophale) SiO2 
 PCOD9331632
Probable space group: I 2 2 2
;
_chemical_formula_sum "Si O2"
_cell_formula_units_Z 52
_cell_length_a 7.636531
_cell_length_b 16.407339
_cell_length_c 20.450111
_cell_angle_alpha 90.000000
_cell_angle_beta 90.000000
_cell_angle_gamma 90.000000
_cell_volume 2562.299785
_symmetry_space_group_name_H-M "I 2 2 2"
_symmetry_group_IT_number 23
_symmetry_cell_setting 'orthorhombic'
loop_
_space_group_symop_operation_xyz
x,y,z
-x,-y,z
x,-y,-z
-x,y,-z
1/2+x,1/2+y,1/2+z
1/2-x,1/2-y,1/2+z
1/2+x,1/2-y,1/2-z
1/2-x,1/2+y,1/2-z
loop_
_atom_site_type_symbol
_atom_site_label
_atom_site_fract_x
_atom_site_fract_y
_atom_site_fract_z
Si Si1 0.687811 0.342979 0.708241
Si Si2 0.199014 0.535504 0.935802
Si Si3 0.866044 0.246493 0.590516
Si Si4 0.000000 0.000000 0.774241
Si Si5 0.216688 0.087801 0.333831
Si Si6 0.756938 0.271943 0.947851
Si Si7 0.552507 0.202258 0.319085
O O1 0.796182 0.305009 0.647497
O O2 0.625220 0.434078 0.691385
O O3 0.534117 0.277037 0.719369
O O4 0.796885 0.337722 0.775416
O O5 0.277715 0.497326 0.871644
O O6 0.219335 0.630658 0.943607
O O7 0.000000 0.500000 0.935373
O O8 0.287265 0.500000 0.000000
O O9 0.873868 0.155179 0.620436
O O10 0.740382 0.247922 0.525847
O O11 0.066608 0.262152 0.571591
O O12 0.119638 0.937861 0.731769
O O13 0.406603 0.131260 0.326859
O O14 0.887485 0.254563 0.887150
#
# Coordination Sequence:
#
# PCOD9331632 Si02
#       7
#     8   8   8   4   8   8   8
#     4  11  24  41  61  89 120 164 212 263 311 376
#     4  11  20  30  51  89 132 165 195 236 288 373
#     4  10  23  39  60  88 125 164 210 248 312 384
#     4  12  26  40  59  89 124 160 218 272 316 362
#     4  11  21  36  58  88 126 168 199 248 311 384
#     4  11  21  38  60  91 126 167 204 253 308 382
#     4  11  22  40  66  89 125 168 208 250 315 389
#
# _framework density 20.294267999999999
#
# number of rings (size 3 to 8) (size 9 to 14) (size 15 to 20)
#    0.000    1.077    3.077    5.538    0.000    2.462 
#    0.000    0.000    0.000    1.846    0.000    2.154 
#    0.000    0.000    0.000    0.000    0.000    0.000 
#
# Total GULP energy -144903.580303 kJ/mol
# GULP energy per Si atom -5573.214627 kJ/mol
# Density = 2.024808 g / cm^3
# Si number density = 20.294268 Si / 1000 Ang^3
#
#
#
# Elastic Constant Matrix: (Units=GPa)
#
#
# Indices 1 2 3 4 5 6 
#
# 1 67.1505 17.1408 30.2066 0.0000 0.0000 0.0000
# 2 17.1408 63.0013 27.3845 0.0000 0.0000 0.0000
# 3 30.2066 27.3845 79.5513 0.0000 0.0000 0.0000
# 4 0.0000 0.0000 0.0000 23.2076 0.0000 0.0000
# 5 0.0000 0.0000 0.0000 0.0000 28.9783 0.0000
# 6 0.0000 0.0000 0.0000 0.0000 0.0000 16.4272
#
#
#
# Elastic Compliance Matrix: (Units=1/GPa)
#
#
# Indices 1 2 3 4 5 6 
#
# 1 0.018237 -0.002295 -0.006135 0.000000 0.000000 0.000000
# 2 -0.002295 0.018954 -0.005653 0.000000 0.000000 0.000000
# 3 -0.006135 -0.005653 0.016846 0.000000 0.000000 0.000000
# 4 0.000000 0.000000 0.000000 0.043089 0.000000 0.000000
# 5 0.000000 0.000000 0.000000 0.000000 0.034509 0.000000
# 6 0.000000 0.000000 0.000000 0.000000 0.000000 0.060875
#
#
# Mechanical properties :
#
#
# Convention : Reuss Voigt Hill
#
# Bulk Modulus (GPa) = 38.65310 39.90742 39.28026
# Shear Modulus (GPa) = 21.80538 22.72069 22.26304
#
# Velocity S-wave (km/s) = 3.28145 3.34962 3.31571
# Velocity P-wave (km/s) = 5.78316 5.88787 5.83575
#
# Compressibility (1/GPa) = 0.02587115
#
# Stress axis : x y z
#
# Youngs Moduli (GPa) = 54.83212 52.75805 59.36105
#
# Poissons Ratio (x) = 0.12109 0.36417
# Poissons Ratio (y) = 0.12585 0.33558
# Poissons Ratio (z) = 0.33639 0.29826
#
# Static dielectric constant tensor:
#      x y z
#    x 1.902770 0.000000 0.000000 
#    y 0.000000 1.790990 0.000000 
#    z 0.000000 0.000000 1.965450 
# 
# From -- ./inp_files/23864.got.cif
#   From: 2010.05.17/outbox.cif.g08.bks.cpg/sg23_12_cif.got.tgz:23864.got - 2010.06.04 12:02:01.
