data_PCOD9331283
_publ_section_title
;
Structure prediction by ZEFSAII (Michael W. Deem and Ramdas Pophale) SiO2 
 PCOD9331283
Probable space group: I 2 2 2
;
_chemical_formula_sum "Si O2"
_cell_formula_units_Z 48
_cell_length_a 33.920756
_cell_length_b 7.913131
_cell_length_c 8.196179
_cell_angle_alpha 90.000000
_cell_angle_beta 90.000000
_cell_angle_gamma 90.000000
_cell_volume 2200.013333
_symmetry_space_group_name_H-M "I 2 2 2"
_symmetry_group_IT_number 23
_symmetry_cell_setting 'orthorhombic'
loop_
_space_group_symop_operation_xyz
x,y,z
-x,-y,z
x,-y,-z
-x,y,-z
1/2+x,1/2+y,1/2+z
1/2-x,1/2-y,1/2+z
1/2+x,1/2-y,1/2-z
1/2-x,1/2+y,1/2-z
loop_
_atom_site_type_symbol
_atom_site_label
_atom_site_fract_x
_atom_site_fract_y
_atom_site_fract_z
Si Si1 0.617363 0.130125 0.672859
Si Si2 0.419071 0.336630 0.615665
Si Si3 0.769166 0.909476 0.674611
Si Si4 0.148097 0.016902 0.693220
Si Si5 0.306663 0.036801 0.178317
Si Si6 0.542030 0.058575 0.189511
O O1 0.599280 0.196165 0.504186
O O2 0.630414 0.300310 0.766443
O O3 0.658378 0.029408 0.690080
O O4 0.581021 0.039216 0.756293
O O5 0.430936 0.500000 0.500000
O O6 0.382464 0.392322 0.725932
O O7 0.450419 0.248462 0.738508
O O8 0.785542 0.719487 0.664040
O O9 0.761645 0.000000 0.500000
O O10 0.807079 0.002263 0.755483
O O11 0.729227 0.914896 0.775923
O O12 0.150269 0.000000 0.500000
O O13 0.324011 0.000000 0.000000
O O14 0.500000 0.000000 0.261829
O O15 0.539813 0.000000 0.000000
#
# Coordination Sequence:
#
# PCOD9331283 Si02
#       6
#     8   8   8   8   8   8
#     4  10  22  39  61  91 123 161 209 261 324 384
#     4  10  22  41  67  96 129 171 211 261 324 389
#     4  10  22  37  56  86 121 162 213 265 317 376
#     4   9  19  38  61  88 127 170 212 257 312 383
#     4  11  23  39  59  85 121 165 212 265 322 383
#     4  11  24  43  68  97 129 166 213 268 324 389
#
# _framework density 21.818048999999998
#
# number of rings (size 3 to 8) (size 9 to 14) (size 15 to 20)
#    0.000    1.833    0.000    3.000    0.000   11.333 
#    0.000    5.833    0.000    9.000    0.000    0.000 
#    0.000    0.000    0.000    0.000    0.000    0.000 
#
# Total GULP energy -133844.923441 kJ/mol
# GULP energy per Si atom -5576.871810 kJ/mol
# Density = 2.176839 g / cm^3
# Si number density = 21.818049 Si / 1000 Ang^3
#
#
#
# Elastic Constant Matrix: (Units=GPa)
#
#
# Indices 1 2 3 4 5 6 
#
# 1 132.1127 46.4769 27.2677 0.0000 0.0000 0.0000
# 2 46.4769 64.4883 26.0751 0.0000 0.0000 0.0000
# 3 27.2677 26.0751 85.6401 0.0000 0.0000 0.0000
# 4 0.0000 0.0000 0.0000 27.2348 0.0000 0.0000
# 5 0.0000 0.0000 0.0000 0.0000 22.4617 0.0000
# 6 0.0000 0.0000 0.0000 0.0000 0.0000 17.7137
#
#
#
# Elastic Compliance Matrix: (Units=1/GPa)
#
#
# Indices 1 2 3 4 5 6 
#
# 1 0.010240 -0.006912 -0.001156 0.000000 0.000000 0.000000
# 2 -0.006912 0.022350 -0.004604 0.000000 0.000000 0.000000
# 3 -0.001156 -0.004604 0.013447 0.000000 0.000000 0.000000
# 4 0.000000 0.000000 0.000000 0.036718 0.000000 0.000000
# 5 0.000000 0.000000 0.000000 0.000000 0.044520 0.000000
# 6 0.000000 0.000000 0.000000 0.000000 0.000000 0.056453
#
#
# Mechanical properties :
#
#
# Convention : Reuss Voigt Hill
#
# Bulk Modulus (GPa) = 48.32799 53.54226 50.93512
# Shear Modulus (GPa) = 23.15145 25.64347 24.39746
#
# Velocity S-wave (km/s) = 3.26101 3.43203 3.34761
# Velocity P-wave (km/s) = 6.03137 6.34813 6.19178
#
# Compressibility (1/GPa) = 0.02069194
#
# Stress axis : x y z
#
# Youngs Moduli (GPa) = 97.66015 44.74249 74.36854
#
# Poissons Ratio (x) = 0.30928 0.08594
# Poissons Ratio (y) = 0.67507 0.34240
# Poissons Ratio (z) = 0.11286 0.20600
#
# Static dielectric constant tensor:
#      x y z
#    x 1.769890 0.000000 0.000000 
#    y 0.000000 1.870200 0.000000 
#    z 0.000000 0.000000 1.878360 
# 
# From -- ./inp_files/13324.got.cif
#   From: 2010.05.17/outbox.cif.g08.bks.cpg/sg23_7_cif.got.tgz:13324.got - 2010.06.04 12:02:01.
