data_PCOD9331080
_publ_section_title
;
Structure prediction by ZEFSAII (Michael W. Deem and Ramdas Pophale) SiO2 
 PCOD9331080
Probable space group: I 2 2 2
;
_chemical_formula_sum "Si O2"
_cell_formula_units_Z 64
_cell_length_a 20.447460
_cell_length_b 15.350400
_cell_length_c 9.258520
_cell_angle_alpha 90.000000
_cell_angle_beta 90.000000
_cell_angle_gamma 90.000000
_cell_volume 2906.033612
_symmetry_space_group_name_H-M "I 2 2 2"
_symmetry_group_IT_number 23
_symmetry_cell_setting 'orthorhombic'
loop_
_space_group_symop_operation_xyz
x,y,z
-x,-y,z
x,-y,-z
-x,y,-z
1/2+x,1/2+y,1/2+z
1/2-x,1/2-y,1/2+z
1/2+x,1/2-y,1/2-z
1/2-x,1/2+y,1/2-z
loop_
_atom_site_type_symbol
_atom_site_label
_atom_site_fract_x
_atom_site_fract_y
_atom_site_fract_z
Si Si1 0.047270 0.179056 0.622133
Si Si2 0.319429 0.095018 0.984955
Si Si3 0.249702 0.332028 0.216532
Si Si4 0.050477 0.372988 0.613540
Si Si5 0.307729 0.353717 0.649599
Si Si6 0.333276 0.403260 0.976585
Si Si7 0.618259 0.707026 0.398914
Si Si8 0.071584 0.590833 0.070311
O O1 0.021208 0.277208 0.646031
O O2 0.115444 0.164980 0.539323
O O3 0.066342 0.160720 0.790073
O O4 0.000000 0.137001 0.500000
O O5 0.378163 0.150129 0.049946
O O6 0.252759 0.095962 0.077012
O O7 0.299981 0.121122 0.824597
O O8 0.348767 0.000000 0.000000
O O9 0.217635 0.244867 0.158594
O O10 0.271156 0.390593 0.081606
O O11 0.312336 0.303304 0.313840
O O12 0.061520 0.425336 0.759422
O O13 0.000000 0.410676 0.500000
O O14 0.370336 0.347146 0.545560
O O15 0.320033 0.387383 0.809516
O O16 0.359484 0.500000 0.000000
O O17 0.604615 0.810886 0.430845
O O18 0.099743 0.500000 0.000000
O O19 0.000000 0.601972 0.000000
#
# Coordination Sequence:
#
# PCOD9331080 Si02
#       8
#     8   8   8   8   8   8   8   8
#     4   9  19  39  62  84 115 158 203 250 299 363
#     4  11  23  38  58  84 115 151 194 246 302 358
#     4  10  21  40  60  83 118 159 199 243 300 370
#     4  10  22  41  62  83 113 159 210 248 296 370
#     4  11  21  37  59  86 119 158 199 244 300 365
#     4  11  22  37  61  93 123 153 198 257 312 357
#     4   9  20  37  59  83 116 161 207 247 297 372
#     4  10  22  38  56  85 123 158 199 256 312 363
#
# _framework density 22.023145
#
# number of rings (size 3 to 8) (size 9 to 14) (size 15 to 20)
#    0.000    1.875    0.000    5.250    0.000    7.500 
#    0.000    4.375    0.000    0.750    0.000    5.250 
#    0.000    0.000    0.000    0.000    0.000    0.000 
#
# Total GULP energy -178261.979981 kJ/mol
# GULP energy per Si atom -5570.686874 kJ/mol
# Density = 2.197302 g / cm^3
# Si number density = 22.023145 Si / 1000 Ang^3
#
#
#
# Elastic Constant Matrix: (Units=GPa)
#
#
# Indices 1 2 3 4 5 6 
#
# 1 53.9102 7.8865 43.3810 0.0000 0.0000 0.0000
# 2 7.8865 72.3644 24.1448 0.0000 0.0000 0.0000
# 3 43.3810 24.1448 173.6989 0.0000 0.0000 0.0000
# 4 0.0000 0.0000 0.0000 16.4041 0.0000 0.0000
# 5 0.0000 0.0000 0.0000 0.0000 33.2703 0.0000
# 6 0.0000 0.0000 0.0000 0.0000 0.0000 31.3531
#
#
#
# Elastic Compliance Matrix: (Units=1/GPa)
#
#
# Indices 1 2 3 4 5 6 
#
# 1 0.023242 -0.000625 -0.005718 0.000000 0.000000 0.000000
# 2 -0.000625 0.014508 -0.001861 0.000000 0.000000 0.000000
# 3 -0.005718 -0.001861 0.007444 0.000000 0.000000 0.000000
# 4 0.000000 0.000000 0.000000 0.060960 0.000000 0.000000
# 5 0.000000 0.000000 0.000000 0.000000 0.030057 0.000000
# 6 0.000000 0.000000 0.000000 0.000000 0.000000 0.031895
#
#
# Mechanical properties :
#
#
# Convention : Reuss Voigt Hill
#
# Bulk Modulus (GPa) = 34.73848 50.08868 42.41358
# Shear Modulus (GPa) = 25.75890 31.17625 28.46758
#
# Velocity S-wave (km/s) = 3.42369 3.76655 3.59920
# Velocity P-wave (km/s) = 5.60685 6.45824 6.04755
#
# Compressibility (1/GPa) = 0.02878652
#
# Stress axis : x y z
#
# Youngs Moduli (GPa) = 43.02594 68.92818 134.34194
#
# Poissons Ratio (x) = 0.04309 0.76813
# Poissons Ratio (y) = 0.02690 0.24994
# Poissons Ratio (z) = 0.24601 0.12824
#
# Static dielectric constant tensor:
#      x y z
#    x 1.855700 0.000000 0.000000 
#    y 0.000000 1.834850 0.000000 
#    z 0.000000 0.000000 1.769970 
# 
# From -- ./inp_files/12181.got.cif
#   From: 2010.05.17/outbox.cif.g08.bks.cpg/sg23_7_cif.got.tgz:12181.got - 2010.06.04 12:02:01.
