data_PCOD9331728
_publ_section_title
;
Structure prediction by ZEFSAII (Michael W. Deem and Ramdas Pophale) SiO2 
 PCOD9331728
Probable space group: I 2 2 2
;
_chemical_formula_sum "Si O2"
_cell_formula_units_Z 38
_cell_length_a 13.653885
_cell_length_b 10.197565
_cell_length_c 11.726694
_cell_angle_alpha 90.000000
_cell_angle_beta 90.000000
_cell_angle_gamma 90.000000
_cell_volume 1632.782419
_symmetry_space_group_name_H-M "I 2 2 2"
_symmetry_group_IT_number 23
_symmetry_cell_setting 'orthorhombic'
loop_
_space_group_symop_operation_xyz
x,y,z
-x,-y,z
x,-y,-z
-x,y,-z
1/2+x,1/2+y,1/2+z
1/2-x,1/2-y,1/2+z
1/2+x,1/2-y,1/2-z
1/2-x,1/2+y,1/2-z
loop_
_atom_site_type_symbol
_atom_site_label
_atom_site_fract_x
_atom_site_fract_y
_atom_site_fract_z
Si Si1 0.321044 0.450935 0.874101
Si Si2 0.500000 0.000000 0.500000
Si Si3 0.831592 0.587235 0.672773
Si Si4 0.210733 0.677710 0.564618
Si Si5 0.074906 0.259691 0.847906
Si Si6 0.500000 0.500000 0.722952
O O1 0.234111 0.444903 0.782973
O O2 0.350742 0.302114 0.898343
O O3 0.408304 0.518321 0.806886
O O4 0.293769 0.500000 0.000000
O O5 0.555605 0.891010 0.422686
O O6 0.845067 0.447212 0.614842
O O7 0.778684 0.666795 0.571580
O O8 0.916895 0.677475 0.721781
O O9 0.320352 0.696373 0.614921
O O10 0.999368 0.136487 0.848998
#
# Coordination Sequence:
#
# PCOD9331728 Si02
#       6
#     8   2   8   8   8   4
#     4  11  24  40  69  99 139 177 240 291 350 432
#     4  12  32  42  68 106 152 192 236 304 362 434
#     4  10  23  44  68 105 132 186 233 297 351 432
#     4  10  23  43  74  97 137 186 242 292 354 433
#     4  11  27  44  72 105 146 189 239 299 370 428
#     4  12  25  47  70 104 144 189 237 300 372 432
#
# _framework density 23.273157000000001
#
# number of rings (size 3 to 8) (size 9 to 14) (size 15 to 20)
#    0.000    1.263    2.105    1.579   14.737    0.421 
#    0.000    0.000    0.000    0.000    0.000    0.000 
#    0.000    0.000    0.000    0.000    0.000    0.000 
#
# Total GULP energy -105902.891462 kJ/mol
# GULP energy per Si atom -5573.836393 kJ/mol
# Density = 2.322019 g / cm^3
# Si number density = 23.273157 Si / 1000 Ang^3
#
#
#
# Elastic Constant Matrix: (Units=GPa)
#
#
# Indices 1 2 3 4 5 6 
#
# 1 27.5036 13.0848 18.8564 0.0000 0.0000 0.0000
# 2 13.0848 164.5349 50.4168 0.0000 0.0000 0.0000
# 3 18.8564 50.4168 130.3778 0.0000 0.0000 0.0000
# 4 0.0000 0.0000 0.0000 40.6592 0.0000 0.0000
# 5 0.0000 0.0000 0.0000 0.0000 27.0956 0.0000
# 6 0.0000 0.0000 0.0000 0.0000 0.0000 30.6351
#
#
#
# Elastic Compliance Matrix: (Units=1/GPa)
#
#
# Indices 1 2 3 4 5 6 
#
# 1 0.040741 -0.001627 -0.005263 0.000000 0.000000 0.000000
# 2 -0.001627 0.006960 -0.002456 0.000000 0.000000 0.000000
# 3 -0.005263 -0.002456 0.009381 0.000000 0.000000 0.000000
# 4 0.000000 0.000000 0.000000 0.024595 0.000000 0.000000
# 5 0.000000 0.000000 0.000000 0.000000 0.036906 0.000000
# 6 0.000000 0.000000 0.000000 0.000000 0.000000 0.032642
#
#
# Mechanical properties :
#
#
# Convention : Reuss Voigt Hill
#
# Bulk Modulus (GPa) = 26.04892 54.12582 40.08737
# Shear Modulus (GPa) = 27.36510 35.68186 31.52348
#
# Velocity S-wave (km/s) = 3.43275 3.91983 3.68435
# Velocity P-wave (km/s) = 5.18928 6.61770 5.94654
#
# Compressibility (1/GPa) = 0.03838931
#
# Stress axis : x y z
#
# Youngs Moduli (GPa) = 24.54509 143.68435 106.59929
#
# Poissons Ratio (x) = 0.23381 0.56104
# Poissons Ratio (y) = 0.03994 0.26180
# Poissons Ratio (z) = 0.12918 0.35288
#
# Static dielectric constant tensor:
#      x y z
#    x 1.916650 0.000000 0.000000 
#    y 0.000000 2.017100 0.000000 
#    z 0.000000 0.000000 1.939480 
# 
# From -- ./inp_files/17267.got.cif
#   From: 2010.05.17/outbox.cif.g08.bks.cpg/sg23_9_cif.got.tgz:17267.got - 2010.06.04 12:02:01.
