data_PCOD9331646
_publ_section_title
;
Structure prediction by ZEFSAII (Michael W. Deem and Ramdas Pophale) SiO2 
 PCOD9331646
Probable space group: I 2 2 2
;
_chemical_formula_sum "Si O2"
_cell_formula_units_Z 64
_cell_length_a 27.168730
_cell_length_b 20.339158
_cell_length_c 5.682821
_cell_angle_alpha 90.000000
_cell_angle_beta 90.000000
_cell_angle_gamma 90.000000
_cell_volume 3140.264897
_symmetry_space_group_name_H-M "I 2 2 2"
_symmetry_group_IT_number 23
_symmetry_cell_setting 'orthorhombic'
loop_
_space_group_symop_operation_xyz
x,y,z
-x,-y,z
x,-y,-z
-x,y,-z
1/2+x,1/2+y,1/2+z
1/2-x,1/2-y,1/2+z
1/2+x,1/2-y,1/2-z
1/2-x,1/2+y,1/2-z
loop_
_atom_site_type_symbol
_atom_site_label
_atom_site_fract_x
_atom_site_fract_y
_atom_site_fract_z
Si Si1 0.873033 0.790117 0.067073
Si Si2 0.976830 0.642113 0.248371
Si Si3 0.141843 0.665536 0.168240
Si Si4 0.975569 0.199453 0.749221
Si Si5 0.797875 0.565722 0.155878
Si Si6 0.393095 0.070994 0.957868
Si Si7 0.211796 0.152045 0.784374
Si Si8 0.298499 0.755839 0.060117
O O1 0.917735 0.817682 0.219130
O O2 0.834830 0.748800 0.222990
O O3 0.891336 0.728776 0.906656
O O4 0.839871 0.842165 0.921650
O O5 0.977711 0.721102 0.256923
O O6 0.921870 0.613589 0.265702
O O7 0.000000 0.619622 0.500000
O O8 0.000000 0.620945 0.000000
O O9 0.109203 0.612356 0.303984
O O10 0.176134 0.700384 0.362472
O O11 0.178928 0.624508 0.002269
O O12 0.000000 0.176904 0.500000
O O13 0.000000 0.178441 0.000000
O O14 0.838261 0.559206 0.360009
O O15 0.745523 0.587963 0.264785
O O16 0.794621 0.500000 0.000000
O O17 0.416219 0.000000 0.000000
O O18 0.247260 0.209163 0.889700
O O19 0.204565 0.180674 0.523590
#
# Coordination Sequence:
#
# PCOD9331646 Si02
#       8
#     8   8   8   8   8   8   8   8
#     4  11  23  36  62  85 120 158 199 268 317 387
#     4  10  24  41  62  83 112 151 207 280 339 382
#     4  11  21  35  59  81 113 148 208 257 320 376
#     4  10  23  40  62  89 118 157 204 255 328 394
#     4  12  24  39  56  82 119 165 213 260 318 382
#     4  12  25  40  60  79 108 158 218 273 321 377
#     4  11  21  34  55  88 117 158 206 254 318 375
#     4  11  19  33  56  86 115 148 198 255 307 367
#
# _framework density 20.380447
#
# number of rings (size 3 to 8) (size 9 to 14) (size 15 to 20)
#    0.000    1.000    5.000    2.250   10.500    0.250 
#    0.000    0.625    0.000    0.000    0.000    0.000 
#    0.000    0.000    0.000    3.375    0.250    1.000 
#
# Total GULP energy -178538.894143 kJ/mol
# GULP energy per Si atom -5579.340442 kJ/mol
# Density = 2.033406 g / cm^3
# Si number density = 20.380447 Si / 1000 Ang^3
#
#
#
# Elastic Constant Matrix: (Units=GPa)
#
#
# Indices 1 2 3 4 5 6 
#
# 1 96.8798 20.0580 35.0273 0.0000 0.0000 0.0000
# 2 20.0580 29.4314 15.5472 0.0000 0.0000 0.0000
# 3 35.0273 15.5472 78.5520 0.0000 0.0000 0.0000
# 4 0.0000 0.0000 0.0000 16.3950 0.0000 0.0000
# 5 0.0000 0.0000 0.0000 0.0000 39.1379 0.0000
# 6 0.0000 0.0000 0.0000 0.0000 0.0000 17.5411
#
#
#
# Elastic Compliance Matrix: (Units=1/GPa)
#
#
# Indices 1 2 3 4 5 6 
#
# 1 0.013383 -0.006665 -0.004648 0.000000 0.000000 0.000000
# 2 -0.006665 0.041264 -0.005195 0.000000 0.000000 0.000000
# 3 -0.004648 -0.005195 0.015831 0.000000 0.000000 0.000000
# 4 0.000000 0.000000 0.000000 0.060994 0.000000 0.000000
# 5 0.000000 0.000000 0.000000 0.000000 0.025551 0.000000
# 6 0.000000 0.000000 0.000000 0.000000 0.000000 0.057009
#
#
# Mechanical properties :
#
#
# Convention : Reuss Voigt Hill
#
# Bulk Modulus (GPa) = 26.69428 38.45870 32.57649
# Shear Modulus (GPa) = 19.26519 23.56352 21.41435
#
# Velocity S-wave (km/s) = 3.07787 3.40396 3.24501
# Velocity P-wave (km/s) = 5.07518 5.86179 5.48261
#
# Compressibility (1/GPa) = 0.03746121
#
# Stress axis : x y z
#
# Youngs Moduli (GPa) = 74.72385 24.23421 63.16562
#
# Poissons Ratio (x) = 0.16152 0.29361
# Poissons Ratio (y) = 0.49803 0.32815
# Poissons Ratio (z) = 0.34734 0.12590
#
# Static dielectric constant tensor:
#      x y z
#    x 1.864590 0.000000 0.000000 
#    y 0.000000 1.715510 0.000000 
#    z 0.000000 0.000000 1.854080 
# 
# From -- ./inp_files/4625.got.cif
#   From: 2010.05.17/outbox.cif.g08.bks.cpg/sg23_3_cif.got.tgz:4625.got - 2010.06.04 12:02:01.
