data_PCOD9331273
_publ_section_title
;
Structure prediction by ZEFSAII (Michael W. Deem and Ramdas Pophale) SiO2 
 PCOD9331273
Probable space group: I 2 2 2
;
_chemical_formula_sum "Si O2"
_cell_formula_units_Z 54
_cell_length_a 24.964621
_cell_length_b 21.178072
_cell_length_c 5.230356
_cell_angle_alpha 90.000000
_cell_angle_beta 90.000000
_cell_angle_gamma 90.000000
_cell_volume 2765.302507
_symmetry_space_group_name_H-M "I 2 2 2"
_symmetry_group_IT_number 23
_symmetry_cell_setting 'orthorhombic'
loop_
_space_group_symop_operation_xyz
x,y,z
-x,-y,z
x,-y,-z
-x,y,-z
1/2+x,1/2+y,1/2+z
1/2-x,1/2-y,1/2+z
1/2+x,1/2-y,1/2-z
1/2-x,1/2+y,1/2-z
loop_
_atom_site_type_symbol
_atom_site_label
_atom_site_fract_x
_atom_site_fract_y
_atom_site_fract_z
Si Si1 0.268571 0.500000 0.000000
Si Si2 0.375018 0.251165 0.964525
Si Si3 0.732646 0.169994 0.986151
Si Si4 0.800523 0.857193 0.493604
Si Si5 0.500000 0.000000 0.000000
Si Si6 0.061340 0.294214 0.959974
Si Si7 0.319709 0.944614 0.127814
Si Si8 0.921209 0.568675 0.118853
O O1 0.300094 0.433759 0.955092
O O2 0.228049 0.478432 0.223835
O O3 0.316939 0.217084 0.993181
O O4 0.358689 0.324727 0.999589
O O5 0.412634 0.228681 0.196001
O O6 0.403045 0.232150 0.697551
O O7 0.771625 0.176326 0.747912
O O8 0.765993 0.159957 0.249936
O O9 0.703919 0.103448 0.929093
O O10 0.535647 0.047947 0.169348
O O11 0.060149 0.371056 0.959512
O O12 0.000000 0.273110 0.000000
O O13 0.362256 0.908519 0.295897
O O14 0.353029 0.000000 0.000000
O O15 0.911142 0.500000 0.000000
#
# Coordination Sequence:
#
# PCOD9331273 Si02
#       8
#     4   8   8   8   2   8   8   8
#     4  10  22  36  60  89 125 158 194 240 302 372
#     4  12  25  43  64  91 122 167 209 263 319 372
#     4  11  22  37  60  90 125 167 204 250 302 372
#     4  11  23  40  62  94 129 161 206 250 312 386
#     4  12  26  40  56  82 112 172 218 294 314 356
#     4  12  28  45  65  88 122 166 219 270 318 365
#     4  11  20  34  56  85 119 166 202 244 295 366
#     4  12  26  39  59  84 121 166 223 272 314 353
#
# _framework density 19.527699999999999
#
# number of rings (size 3 to 8) (size 9 to 14) (size 15 to 20)
#    0.000    0.593    4.444    4.222    8.296    0.000 
#    0.000    0.000    0.000    0.000    0.000    3.111 
#    0.000    0.000    0.000    0.000    0.000    0.000 
#
# Total GULP energy -150566.469222 kJ/mol
# GULP energy per Si atom -5576.535897 kJ/mol
# Density = 1.948325 g / cm^3
# Si number density = 19.527700 Si / 1000 Ang^3
#
#
#
# Elastic Constant Matrix: (Units=GPa)
#
#
# Indices 1 2 3 4 5 6 
#
# 1 64.6994 42.6881 15.9049 0.0000 0.0000 0.0000
# 2 42.6881 93.6478 3.8891 0.0000 0.0000 0.0000
# 3 15.9049 3.8891 78.1845 0.0000 0.0000 0.0000
# 4 0.0000 0.0000 0.0000 22.8645 0.0000 0.0000
# 5 0.0000 0.0000 0.0000 0.0000 104.0925 0.0000
# 6 0.0000 0.0000 0.0000 0.0000 0.0000 24.0043
#
#
#
# Elastic Compliance Matrix: (Units=1/GPa)
#
#
# Indices 1 2 3 4 5 6 
#
# 1 0.023430 -0.010504 -0.004244 0.000000 0.000000 0.000000
# 2 -0.010504 0.015409 0.001370 0.000000 0.000000 0.000000
# 3 -0.004244 0.001370 0.013585 0.000000 0.000000 0.000000
# 4 0.000000 0.000000 0.000000 0.043736 0.000000 0.000000
# 5 0.000000 0.000000 0.000000 0.000000 0.009607 0.000000
# 6 0.000000 0.000000 0.000000 0.000000 0.000000 0.041659
#
#
# Mechanical properties :
#
#
# Convention : Reuss Voigt Hill
#
# Bulk Modulus (GPa) = 38.95627 40.16623 39.56125
# Shear Modulus (GPa) = 27.36159 41.79556 34.57857
#
# Velocity S-wave (km/s) = 3.74728 4.63138 4.21259
# Velocity P-wave (km/s) = 6.22217 7.01520 6.63055
#
# Compressibility (1/GPa) = 0.02566981
#
# Stress axis : x y z
#
# Youngs Moduli (GPa) = 42.68085 64.89520 73.60843
#
# Poissons Ratio (x) = 0.68165 0.31238
# Poissons Ratio (y) = 0.44831 -0.10086
# Poissons Ratio (z) = 0.18113 -0.08892
#
# Static dielectric constant tensor:
#      x y z
#    x 1.568810 0.000000 0.000000 
#    y 0.000000 1.556260 0.000000 
#    z 0.000000 0.000000 1.761800 
# 
# From -- ./inp_files/4535.got.cif
#   From: 2010.05.17/outbox.cif.g08.bks.cpg/sg23_3_cif.got.tgz:4535.got - 2010.06.04 12:02:01.
