data_PCOD9331379
_publ_section_title
;
Structure prediction by ZEFSAII (Michael W. Deem and Ramdas Pophale) SiO2 
 PCOD9331379
Probable space group: I 2 2 2
;
_chemical_formula_sum "Si O2"
_cell_formula_units_Z 48
_cell_length_a 17.274722
_cell_length_b 8.021606
_cell_length_c 14.768034
_cell_angle_alpha 90.000000
_cell_angle_beta 90.000000
_cell_angle_gamma 90.000000
_cell_volume 2046.421441
_symmetry_space_group_name_H-M "I 2 2 2"
_symmetry_group_IT_number 23
_symmetry_cell_setting 'orthorhombic'
loop_
_space_group_symop_operation_xyz
x,y,z
-x,-y,z
x,-y,-z
-x,y,-z
1/2+x,1/2+y,1/2+z
1/2-x,1/2-y,1/2+z
1/2+x,1/2-y,1/2-z
1/2-x,1/2+y,1/2-z
loop_
_atom_site_type_symbol
_atom_site_label
_atom_site_fract_x
_atom_site_fract_y
_atom_site_fract_z
Si Si1 0.454135 0.824852 0.742033
Si Si2 0.786842 0.831445 0.050965
Si Si3 0.605999 0.765329 0.685323
Si Si4 0.637297 0.659682 0.880809
Si Si5 0.616282 0.283711 0.916863
Si Si6 0.177905 0.380834 0.880276
O O1 0.515993 0.717797 0.685316
O O2 0.438488 0.813230 0.848549
O O3 0.370898 0.790136 0.697428
O O4 0.500000 0.000000 0.726911
O O5 0.843588 0.870322 0.133449
O O6 0.708020 0.755105 0.091709
O O7 0.829702 0.711321 0.977186
O O8 0.764766 0.000000 0.000000
O O9 0.620716 0.767246 0.792755
O O10 0.640570 0.934997 0.638733
O O11 0.602145 0.474921 0.886873
O O12 0.729579 0.625796 0.874903
O O13 0.608653 0.739157 0.975060
#
# Coordination Sequence:
#
# PCOD9331379 Si02
#       6
#     8   8   8   8   8   8
#     4  10  24  42  66  98 140 185 219 276 354 426
#     4  11  24  42  72 104 133 180 239 296 344 410
#     4  11  23  42  66  99 137 184 226 278 358 421
#     4  10  22  39  72  99 130 185 233 295 346 402
#     4  10  22  44  66  98 137 175 239 293 341 410
#     4  10  22  43  67  98 138 179 230 288 344 409
#
# _framework density 23.455580999999999
#
# number of rings (size 3 to 8) (size 9 to 14) (size 15 to 20)
#    0.000    1.667    1.667    1.500    2.333    8.667 
#    0.000    7.500    0.000    0.000    0.000    0.000 
#    0.000    0.000    0.000    0.000    0.000    0.000 
#
# Total GULP energy -133601.070454 kJ/mol
# GULP energy per Si atom -5566.711269 kJ/mol
# Density = 2.340219 g / cm^3
# Si number density = 23.455581 Si / 1000 Ang^3
#
#
#
# Elastic Constant Matrix: (Units=GPa)
#
#
# Indices 1 2 3 4 5 6 
#
# 1 50.5509 6.7922 29.0390 0.0000 0.0000 0.0000
# 2 6.7922 34.4462 25.3445 0.0000 0.0000 0.0000
# 3 29.0390 25.3445 92.3434 0.0000 0.0000 0.0000
# 4 0.0000 0.0000 0.0000 33.6790 0.0000 0.0000
# 5 0.0000 0.0000 0.0000 0.0000 34.6413 0.0000
# 6 0.0000 0.0000 0.0000 0.0000 0.0000 13.1011
#
#
#
# Elastic Compliance Matrix: (Units=1/GPa)
#
#
# Indices 1 2 3 4 5 6 
#
# 1 0.024173 0.001036 -0.007886 0.000000 0.000000 0.000000
# 2 0.001036 0.036421 -0.010322 0.000000 0.000000 0.000000
# 3 -0.007886 -0.010322 0.016142 0.000000 0.000000 0.000000
# 4 0.000000 0.000000 0.000000 0.029692 0.000000 0.000000
# 5 0.000000 0.000000 0.000000 0.000000 0.028867 0.000000
# 6 0.000000 0.000000 0.000000 0.000000 0.000000 0.076329
#
#
# Mechanical properties :
#
#
# Convention : Reuss Voigt Hill
#
# Bulk Modulus (GPa) = 23.58940 33.29912 28.44426
# Shear Modulus (GPa) = 19.22345 24.02862 21.62603
#
# Velocity S-wave (km/s) = 2.86592 3.20415 3.03974
# Velocity P-wave (km/s) = 4.58587 5.28358 4.94704
#
# Compressibility (1/GPa) = 0.04239193
#
# Stress axis : x y z
#
# Youngs Moduli (GPa) = 41.36859 27.45665 61.95056
#
# Poissons Ratio (x) = -0.02844 0.48853
# Poissons Ratio (y) = -0.04284 0.63944
# Poissons Ratio (z) = 0.32623 0.28340
#
# Static dielectric constant tensor:
#      x y z
#    x 2.036620 0.000000 0.000000 
#    y 0.000000 2.138800 0.000000 
#    z 0.000000 0.000000 1.933930 
# 
# From -- ./inp_files/22007.got.cif
#   From: 2010.05.17/outbox.cif.g08.bks.cpg/sg23_12_cif.got.tgz:22007.got - 2010.06.04 12:02:01.
