data_PCOD9331398
_publ_section_title
;
Structure prediction by ZEFSAII (Michael W. Deem and Ramdas Pophale) SiO2 
 PCOD9331398
Probable space group: I 2 2 2
;
_chemical_formula_sum "Si O2"
_cell_formula_units_Z 60
_cell_length_a 5.071259
_cell_length_b 21.012415
_cell_length_c 26.328897
_cell_angle_alpha 90.000000
_cell_angle_beta 90.000000
_cell_angle_gamma 90.000000
_cell_volume 2805.591432
_symmetry_space_group_name_H-M "I 2 2 2"
_symmetry_group_IT_number 23
_symmetry_cell_setting 'orthorhombic'
loop_
_space_group_symop_operation_xyz
x,y,z
-x,-y,z
x,-y,-z
-x,y,-z
1/2+x,1/2+y,1/2+z
1/2-x,1/2-y,1/2+z
1/2+x,1/2-y,1/2-z
1/2-x,1/2+y,1/2-z
loop_
_atom_site_type_symbol
_atom_site_label
_atom_site_fract_x
_atom_site_fract_y
_atom_site_fract_z
Si Si1 0.092542 0.621609 0.441969
Si Si2 0.125221 0.068439 0.892459
Si Si3 0.064851 0.227449 0.222548
Si Si4 0.734646 0.102033 0.218389
Si Si5 0.967432 0.765208 0.439007
Si Si6 0.461013 0.807762 0.380503
Si Si7 0.500000 0.500000 0.228560
Si Si8 0.402455 0.925779 0.686610
O O1 0.389350 0.605270 0.423024
O O2 0.025552 0.692459 0.422000
O O3 0.000000 0.628555 0.500000
O O4 0.888134 0.567510 0.425275
O O5 0.251797 0.100974 0.842268
O O6 0.000000 0.000000 0.881059
O O7 0.866084 0.264022 0.260776
O O8 0.953640 0.156209 0.227525
O O9 0.034101 0.258366 0.166941
O O10 0.507592 0.107105 0.261261
O O11 0.796093 0.029061 0.232609
O O12 0.180702 0.806499 0.408244
O O13 0.000000 0.771038 0.500000
O O14 0.679152 0.785272 0.420713
O O15 0.529049 0.876983 0.357382
O O16 0.594764 0.441208 0.194950
O O17 0.500000 0.000000 0.679111
#
# Coordination Sequence:
#
# PCOD9331398 Si02
#       8
#     8   8   8   8   8   8   4   8
#     4  11  25  46  67  94 130 175 231 293 353 408
#     4  12  26  41  66  96 132 182 233 287 341 397
#     4  12  24  38  62  97 139 176 219 283 332 407
#     4  11  23  40  59  92 138 175 227 265 331 396
#     4  11  25  46  73 100 133 177 233 289 353 423
#     4  12  24  44  70 106 137 180 225 286 355 402
#     4  10  22  40  64  86 134 190 220 268 312 418
#     4  10  24  41  67  97 135 184 224 266 329 428
#
# _framework density 21.385864000000002
#
# number of rings (size 3 to 8) (size 9 to 14) (size 15 to 20)
#    0.000    0.800    2.000    5.200    5.600    4.800 
#    0.000    0.000    0.000    2.400    0.000    0.000 
#    0.000    0.000    0.000    0.000    0.000    0.000 
#
# Total GULP energy -167036.778606 kJ/mol
# GULP energy per Si atom -5567.892620 kJ/mol
# Density = 2.133719 g / cm^3
# Si number density = 21.385864 Si / 1000 Ang^3
#
#
#
# Elastic Constant Matrix: (Units=GPa)
#
#
# Indices 1 2 3 4 5 6 
#
# 1 40.2147 -11.8980 0.8654 0.0000 0.0000 0.0000
# 2 -11.8980 84.8813 21.3085 0.0000 0.0000 0.0000
# 3 0.8654 21.3085 75.6870 0.0000 0.0000 0.0000
# 4 0.0000 0.0000 0.0000 -0.9352 0.0000 0.0000
# 5 0.0000 0.0000 0.0000 0.0000 37.6348 0.0000
# 6 0.0000 0.0000 0.0000 0.0000 0.0000 10.1234
#
#
#
# Elastic Compliance Matrix: (Units=1/GPa)
#
#
# Indices 1 2 3 4 5 6 
#
# 1 0.026085 0.004015 -0.001429 0.000000 0.000000 0.000000
# 2 0.004015 0.013295 -0.003789 0.000000 0.000000 0.000000
# 3 -0.001429 -0.003789 0.014295 0.000000 0.000000 0.000000
# 4 0.000000 0.000000 0.000000 -1.069281 0.000000 0.000000
# 5 0.000000 0.000000 0.000000 0.000000 0.026571 0.000000
# 6 0.000000 0.000000 0.000000 0.000000 0.000000 0.098781
#
#
# Mechanical properties :
#
#
# Convention : Reuss Voigt Hill
#
# Bulk Modulus (GPa) = 19.50435 24.59277 22.04856
# Shear Modulus (GPa) = -5.74212 22.06507 8.16148
#
# Velocity S-wave (km/s) = -1.64038 3.21559 1.95565
# Velocity P-wave (km/s) = 2.35632 5.03102 3.92832
#
# Compressibility (1/GPa) = 0.05127062
#
# Stress axis : x y z
#
# Youngs Moduli (GPa) = 38.33593 75.21548 69.95275
#
# Poissons Ratio (x) = -0.30200 0.09994
# Poissons Ratio (y) = -0.15392 0.26505
# Poissons Ratio (z) = 0.05477 0.28499
#
# Static dielectric constant tensor:
#      x y z
#    x 1.932170 0.000000 0.000000 
#    y 0.000000 1.718130 0.000000 
#    z 0.000000 0.000000 3.164120 
# 
# From -- ./inp_files/27718.got.cif
#   From: 2010.05.17/outbox.cif.g08.bks.cpg/sg23_14_cif.got.tgz:27718.got - 2010.06.04 12:02:01.
