data_PCOD9331978
_publ_section_title
;
Structure prediction by ZEFSAII (Michael W. Deem and Ramdas Pophale) SiO2 
 PCOD9331978
Probable space group: I 2 2 2
;
_chemical_formula_sum "Si O2"
_cell_formula_units_Z 48
_cell_length_a 17.792952
_cell_length_b 14.714682
_cell_length_c 9.326572
_cell_angle_alpha 90.000000
_cell_angle_beta 90.000000
_cell_angle_gamma 90.000000
_cell_volume 2441.860982
_symmetry_space_group_name_H-M "I 2 2 2"
_symmetry_group_IT_number 23
_symmetry_cell_setting 'orthorhombic'
loop_
_space_group_symop_operation_xyz
x,y,z
-x,-y,z
x,-y,-z
-x,y,-z
1/2+x,1/2+y,1/2+z
1/2-x,1/2-y,1/2+z
1/2+x,1/2-y,1/2-z
1/2-x,1/2+y,1/2-z
loop_
_atom_site_type_symbol
_atom_site_label
_atom_site_fract_x
_atom_site_fract_y
_atom_site_fract_z
Si Si1 0.802745 0.678032 0.186331
Si Si2 0.542421 0.402530 0.134162
Si Si3 0.028051 0.258598 0.157922
Si Si4 0.284297 0.645476 0.115086
Si Si5 0.459594 0.910636 0.847531
Si Si6 0.206432 0.486538 0.657201
O O1 0.889228 0.698588 0.151399
O O2 0.780679 0.761417 0.291527
O O3 0.801737 0.586023 0.276910
O O4 0.754426 0.664142 0.039883
O O5 0.500000 0.500000 0.152031
O O6 0.531633 0.339647 0.270342
O O7 0.630961 0.394554 0.097475
O O8 0.500000 0.357935 0.000000
O O9 0.974526 0.324621 0.249207
O O10 0.000000 0.250257 0.000000
O O11 0.245530 0.572441 0.219538
O O12 0.373258 0.936692 0.869592
O O13 0.500000 0.000000 0.782528
O O14 0.500000 0.895184 0.000000
O O15 0.243654 0.500000 0.500000
#
# Coordination Sequence:
#
# PCOD9331978 Si02
#       6
#     8   8   8   8   8   8
#     4  11  24  43  65  94 134 171 215 272 334 391
#     4  10  25  47  68  92 123 178 232 268 328 400
#     4  11  23  40  64 100 133 165 213 273 331 385
#     4  11  26  45  66  99 130 174 228 276 336 404
#     4  11  20  39  64  95 134 172 212 253 319 407
#     4  12  23  41  66  98 132 172 214 267 333 392
#
# _framework density 19.657139000000001
#
# number of rings (size 3 to 8) (size 9 to 14) (size 15 to 20)
#    0.000    1.000    3.333    3.000    4.667    6.000 
#    6.000    0.000    0.000    0.000    0.000    0.000 
#    0.000    0.000    0.000    0.000    0.000    0.000 
#
# Total GULP energy -133978.430402 kJ/mol
# GULP energy per Si atom -5582.434600 kJ/mol
# Density = 1.961240 g / cm^3
# Si number density = 19.657139 Si / 1000 Ang^3
#
#
#
# Elastic Constant Matrix: (Units=GPa)
#
#
# Indices 1 2 3 4 5 6 
#
# 1 80.5655 58.3563 60.3749 0.0000 0.0000 0.0000
# 2 58.3563 118.6787 71.6489 0.0000 0.0000 0.0000
# 3 60.3749 71.6489 159.4527 0.0000 0.0000 0.0000
# 4 0.0000 0.0000 0.0000 19.3489 0.0000 0.0000
# 5 0.0000 0.0000 0.0000 0.0000 37.5101 0.0000
# 6 0.0000 0.0000 0.0000 0.0000 0.0000 -2.3501
#
#
#
# Elastic Compliance Matrix: (Units=1/GPa)
#
#
# Indices 1 2 3 4 5 6 
#
# 1 0.021538 -0.007777 -0.004661 0.000000 0.000000 0.000000
# 2 -0.007777 0.014371 -0.003513 0.000000 0.000000 0.000000
# 3 -0.004661 -0.003513 0.009615 0.000000 0.000000 0.000000
# 4 0.000000 0.000000 0.000000 0.051682 0.000000 0.000000
# 5 0.000000 0.000000 0.000000 0.000000 0.026659 0.000000
# 6 0.000000 0.000000 0.000000 0.000000 0.000000 -0.425509
#
#
# Mechanical properties :
#
#
# Convention : Reuss Voigt Hill
#
# Bulk Modulus (GPa) = 73.40626 82.16189 77.78407
# Shear Modulus (GPa) = -18.85353 22.12291 1.63469
#
# Velocity S-wave (km/s) = -3.10032 3.35840 0.91291
# Velocity P-wave (km/s) = 4.96068 7.54498 6.38494
#
# Compressibility (1/GPa) = 0.01362282
#
# Stress axis : x y z
#
# Youngs Moduli (GPa) = 46.42988 69.58512 104.00841
#
# Poissons Ratio (x) = 0.54115 0.48474
# Poissons Ratio (y) = 0.36108 0.36537
# Poissons Ratio (z) = 0.21639 0.24444
#
# Static dielectric constant tensor:
#      x y z
#    x 1.705930 0.000000 0.000000 
#    y 0.000000 1.696860 0.000000 
#    z 0.000000 0.000000 1.688620 
# 
# From -- ./inp_files/11048.got.cif
#   From: 2010.05.17/outbox.cif.g08.bks.cpg/sg23_6_cif.got.tgz:11048.got - 2010.06.04 12:02:01.
