data_PCOD9331771
_publ_section_title
;
Structure prediction by ZEFSAII (Michael W. Deem and Ramdas Pophale) SiO2 
 PCOD9331771
Probable space group: I 2 2 2
;
_chemical_formula_sum "Si O2"
_cell_formula_units_Z 48
_cell_length_a 18.735695
_cell_length_b 9.144526
_cell_length_c 13.351051
_cell_angle_alpha 90.000000
_cell_angle_beta 90.000000
_cell_angle_gamma 90.000000
_cell_volume 2287.422885
_symmetry_space_group_name_H-M "I 2 2 2"
_symmetry_group_IT_number 23
_symmetry_cell_setting 'orthorhombic'
loop_
_space_group_symop_operation_xyz
x,y,z
-x,-y,z
x,-y,-z
-x,y,-z
1/2+x,1/2+y,1/2+z
1/2-x,1/2-y,1/2+z
1/2+x,1/2-y,1/2-z
1/2-x,1/2+y,1/2-z
loop_
_atom_site_type_symbol
_atom_site_label
_atom_site_fract_x
_atom_site_fract_y
_atom_site_fract_z
Si Si1 0.184513 0.837248 0.169013
Si Si2 0.811814 0.334821 0.968429
Si Si3 0.031455 0.336339 0.107648
Si Si4 0.431345 0.078040 0.107114
Si Si5 0.274206 0.870790 0.831074
Si Si6 0.037330 0.151399 0.713972
O O1 0.166530 0.761519 0.064463
O O2 0.231990 0.717523 0.227812
O O3 0.115016 0.866233 0.236013
O O4 0.224378 0.989754 0.156788
O O5 0.793073 0.500000 0.000000
O O6 0.882850 0.343279 0.900373
O O7 0.747931 0.248292 0.914524
O O8 0.000000 0.500000 0.117590
O O9 0.006931 0.236755 0.199682
O O10 0.000000 0.282096 0.000000
O O11 0.355241 0.071481 0.160589
O O12 0.452540 0.247648 0.116204
O O13 0.500000 0.000000 0.155176
O O14 0.423005 0.000000 0.000000
O O15 0.000000 0.000000 0.691865
#
# Coordination Sequence:
#
# PCOD9331771 Si02
#       6
#     8   8   8   8   8   8
#     4  11  23  41  61  94 132 168 213 265 328 393
#     4  12  22  39  65  96 135 176 213 264 320 392
#     4  11  20  38  61  97 141 180 216 244 315 413
#     4  10  23  46  68  85 115 170 227 273 326 398
#     4  11  25  42  64  93 127 169 220 271 330 396
#     4  11  23  38  63 100 133 164 213 277 333 385
#
# _framework density 20.984314000000001
#
# number of rings (size 3 to 8) (size 9 to 14) (size 15 to 20)
#    0.000    1.000    3.333    4.000    0.000    5.667 
#    0.000    8.333    0.000    0.000    0.000    0.000 
#    0.000    0.000    0.000    0.000    0.000    0.000 
#
# Total GULP energy -134080.461095 kJ/mol
# GULP energy per Si atom -5586.685879 kJ/mol
# Density = 2.093655 g / cm^3
# Si number density = 20.984314 Si / 1000 Ang^3
#
#
#
# Elastic Constant Matrix: (Units=GPa)
#
#
# Indices 1 2 3 4 5 6 
#
# 1 91.6432 58.9654 5.6763 0.0000 0.0000 0.0000
# 2 58.9654 156.9866 37.3220 0.0000 0.0000 0.0000
# 3 5.6763 37.3220 63.1530 0.0000 0.0000 0.0000
# 4 0.0000 0.0000 0.0000 31.8809 0.0000 0.0000
# 5 0.0000 0.0000 0.0000 0.0000 50.4997 0.0000
# 6 0.0000 0.0000 0.0000 0.0000 0.0000 26.6104
#
#
#
# Elastic Compliance Matrix: (Units=1/GPa)
#
#
# Indices 1 2 3 4 5 6 
#
# 1 0.014660 -0.006042 0.002253 0.000000 0.000000 0.000000
# 2 -0.006042 0.009901 -0.005308 0.000000 0.000000 0.000000
# 3 0.002253 -0.005308 0.018769 0.000000 0.000000 0.000000
# 4 0.000000 0.000000 0.000000 0.031367 0.000000 0.000000
# 5 0.000000 0.000000 0.000000 0.000000 0.019802 0.000000
# 6 0.000000 0.000000 0.000000 0.000000 0.000000 0.037579
#
#
# Mechanical properties :
#
#
# Convention : Reuss Voigt Hill
#
# Bulk Modulus (GPa) = 39.78405 57.30112 48.54259
# Shear Modulus (GPa) = 31.51551 35.78616 33.65083
#
# Velocity S-wave (km/s) = 3.87959 4.13410 4.00886
# Velocity P-wave (km/s) = 6.25047 7.08192 6.67915
#
# Compressibility (1/GPa) = 0.02513570
#
# Stress axis : x y z
#
# Youngs Moduli (GPa) = 68.21332 100.99560 53.27871
#
# Poissons Ratio (x) = 0.61022 -0.12004
# Poissons Ratio (y) = 0.41215 0.28283
# Poissons Ratio (z) = -0.15369 0.53613
#
# Static dielectric constant tensor:
#      x y z
#    x 1.756450 0.000000 0.000000 
#    y 0.000000 1.715730 0.000000 
#    z 0.000000 0.000000 1.779460 
# 
# From -- ./inp_files/22027.got.cif
#   From: 2010.05.17/outbox.cif.g08.bks.cpg/sg23_12_cif.got.tgz:22027.got - 2010.06.04 12:02:01.
