data_PCOD9331195
_publ_section_title
;
Structure prediction by ZEFSAII (Michael W. Deem and Ramdas Pophale) SiO2 
 PCOD9331195
Probable space group: I 2 2 2
;
_chemical_formula_sum "Si O2"
_cell_formula_units_Z 56
_cell_length_a 21.067798
_cell_length_b 12.696676
_cell_length_c 9.119705
_cell_angle_alpha 90.000000
_cell_angle_beta 90.000000
_cell_angle_gamma 90.000000
_cell_volume 2439.439058
_symmetry_space_group_name_H-M "I 2 2 2"
_symmetry_group_IT_number 23
_symmetry_cell_setting 'orthorhombic'
loop_
_space_group_symop_operation_xyz
x,y,z
-x,-y,z
x,-y,-z
-x,y,-z
1/2+x,1/2+y,1/2+z
1/2-x,1/2-y,1/2+z
1/2+x,1/2-y,1/2-z
1/2-x,1/2+y,1/2-z
loop_
_atom_site_type_symbol
_atom_site_label
_atom_site_fract_x
_atom_site_fract_y
_atom_site_fract_z
Si Si1 0.444717 0.419449 0.210146
Si Si2 0.223025 0.172812 0.035754
Si Si3 0.399728 0.993910 0.668961
Si Si4 0.336700 0.500000 0.000000
Si Si5 0.950404 0.315390 0.374986
Si Si6 0.618123 0.500000 0.500000
Si Si7 0.227871 0.633299 0.149473
Si Si8 0.853075 0.387988 0.580736
O O1 0.500000 0.500000 0.165535
O O2 0.465372 0.298370 0.191995
O O3 0.424284 0.450328 0.373401
O O4 0.382687 0.440793 0.112394
O O5 0.255121 0.183193 0.194111
O O6 0.165744 0.091812 0.052282
O O7 0.201894 0.281704 0.965123
O O8 0.277850 0.131071 0.923680
O O9 0.441161 0.906621 0.754903
O O10 0.327349 0.950945 0.671704
O O11 0.419400 0.000000 0.500000
O O12 0.390467 0.099902 0.765958
O O13 0.290419 0.420142 0.915655
O O14 0.885793 0.306057 0.470977
O O15 0.000000 0.347548 0.500000
O O16 0.863117 0.500000 0.500000
#
# Coordination Sequence:
#
# PCOD9331195 Si02
#       8
#     8   8   8   4   8   4   8   8
#     4  12  27  50  74 102 148 194 255 317 358 445
#     4  12  24  41  68 107 148 195 245 301 375 460
#     4  11  24  45  70 110 156 188 241 324 378 443
#     4  12  25  44  70 106 142 197 242 294 386 438
#     4  11  24  48  77 105 137 201 260 295 376 454
#     4  12  25  46  74 102 149 196 240 300 390 430
#     4  12  25  40  68 110 154 192 244 305 376 463
#     4  10  21  42  70  99 147 191 240 304 368 451
#
# _framework density 22.956095999999999
#
# number of rings (size 3 to 8) (size 9 to 14) (size 15 to 20)
#    0.000    0.571    5.714    3.000    4.000    2.571 
#    0.000    2.857    0.000    0.000    0.000    0.000 
#    0.000    0.000    0.000    0.000    0.000    0.000 
#
# Total GULP energy -156713.055294 kJ/mol
# GULP energy per Si atom -5596.894832 kJ/mol
# Density = 2.290385 g / cm^3
# Si number density = 22.956096 Si / 1000 Ang^3
#
#
#
# Elastic Constant Matrix: (Units=GPa)
#
#
# Indices 1 2 3 4 5 6 
#
# 1 80.2959 12.5416 28.6418 0.0000 0.0000 0.0000
# 2 12.5416 75.2937 44.0608 0.0000 0.0000 0.0000
# 3 28.6418 44.0608 164.8613 0.0000 0.0000 0.0000
# 4 0.0000 0.0000 0.0000 36.3379 0.0000 0.0000
# 5 0.0000 0.0000 0.0000 0.0000 12.4797 0.0000
# 6 0.0000 0.0000 0.0000 0.0000 0.0000 -16.4919
#
#
#
# Elastic Compliance Matrix: (Units=1/GPa)
#
#
# Indices 1 2 3 4 5 6 
#
# 1 0.013343 -0.001027 -0.002044 0.000000 0.000000 0.000000
# 2 -0.001027 0.015823 -0.004050 0.000000 0.000000 0.000000
# 3 -0.002044 -0.004050 0.007503 0.000000 0.000000 0.000000
# 4 0.000000 0.000000 0.000000 0.027519 0.000000 0.000000
# 5 0.000000 0.000000 0.000000 0.000000 0.080130 0.000000
# 6 0.000000 0.000000 0.000000 0.000000 0.000000 -0.060636
#
#
# Mechanical properties :
#
#
# Convention : Reuss Voigt Hill
#
# Bulk Modulus (GPa) = 44.58788 54.54879 49.56833
# Shear Modulus (GPa) = 47.43812 22.14557 34.79185
#
# Velocity S-wave (km/s) = 4.55078 3.10932 3.89727
# Velocity P-wave (km/s) = 6.86134 6.05841 6.47234
#
# Compressibility (1/GPa) = 0.02242762
#
# Stress axis : x y z
#
# Youngs Moduli (GPa) = 74.94391 63.20096 133.27497
#
# Poissons Ratio (x) = 0.06488 0.27239
# Poissons Ratio (y) = 0.07694 0.53981
# Poissons Ratio (z) = 0.15317 0.25599
#
# Static dielectric constant tensor:
#      x y z
#    x 1.886600 0.000000 0.000000 
#    y 0.000000 1.858690 0.000000 
#    z 0.000000 0.000000 1.892540 
# 
# From -- ./inp_files/12083.got.cif
#   From: 2010.05.17/outbox.cif.g08.bks.cpg/sg23_7_cif.got.tgz:12083.got - 2010.06.04 12:02:01.
