data_PCOD9331996
_publ_section_title
;
Structure prediction by ZEFSAII (Michael W. Deem and Ramdas Pophale) SiO2 
 PCOD9331996
Probable space group: I 2 2 2
;
_chemical_formula_sum "Si O2"
_cell_formula_units_Z 28
_cell_length_a 14.083757
_cell_length_b 17.157783
_cell_length_c 6.138444
_cell_angle_alpha 90.000000
_cell_angle_beta 90.000000
_cell_angle_gamma 90.000000
_cell_volume 1483.330724
_symmetry_space_group_name_H-M "I 2 2 2"
_symmetry_group_IT_number 23
_symmetry_cell_setting 'orthorhombic'
loop_
_space_group_symop_operation_xyz
x,y,z
-x,-y,z
x,-y,-z
-x,y,-z
1/2+x,1/2+y,1/2+z
1/2-x,1/2-y,1/2+z
1/2+x,1/2-y,1/2-z
1/2-x,1/2+y,1/2-z
loop_
_atom_site_type_symbol
_atom_site_label
_atom_site_fract_x
_atom_site_fract_y
_atom_site_fract_z
Si Si1 0.231237 0.148423 0.247610
Si Si2 0.397527 0.249568 0.062791
Si Si3 0.094311 0.100631 0.864177
Si Si4 0.315847 0.500000 0.000000
O O1 0.328979 0.189285 0.183695
O O2 0.162353 0.212137 0.363433
O O3 0.240597 0.074874 0.410185
O O4 0.179864 0.117478 0.030488
O O5 0.419631 0.322203 0.220240
O O6 0.500000 0.215939 0.000000
O O7 0.120642 0.032201 0.697751
O O8 0.000000 0.086757 0.000000
#
# Coordination Sequence:
#
# PCOD9331996 Si02
#       4
#     8   8   8   4
#     4  11  22  40  63  94 130 166 211 266 321 384
#     4  11  22  39  66  99 122 167 218 263 322 375
#     4  11  22  40  62  96 131 163 210 268 327 385
#     4  10  26  39  60  95 132 174 206 257 337 380
#
# _framework density 18.876436999999999
#
# number of rings (size 3 to 8) (size 9 to 14) (size 15 to 20)
#    0.000    1.143    5.714    0.857    0.000    3.429 
#    0.000    0.000    0.000    5.143    0.000    0.000 
#    0.000    0.000    0.000    0.000    0.000    0.000 
#
# Total GULP energy -78277.161884 kJ/mol
# GULP energy per Si atom -5591.225849 kJ/mol
# Density = 1.883347 g / cm^3
# Si number density = 18.876437 Si / 1000 Ang^3
#
#
#
# Elastic Constant Matrix: (Units=GPa)
#
#
# Indices 1 2 3 4 5 6 
#
# 1 155.4503 75.8321 60.4176 0.0000 0.0000 0.0000
# 2 75.8321 96.6895 43.2208 0.0000 0.0000 0.0000
# 3 60.4176 43.2208 100.6887 0.0000 0.0000 0.0000
# 4 0.0000 0.0000 0.0000 43.7438 0.0000 0.0000
# 5 0.0000 0.0000 0.0000 0.0000 35.5612 0.0000
# 6 0.0000 0.0000 0.0000 0.0000 0.0000 14.7959
#
#
#
# Elastic Compliance Matrix: (Units=1/GPa)
#
#
# Indices 1 2 3 4 5 6 
#
# 1 0.011450 -0.007312 -0.003732 0.000000 0.000000 0.000000
# 2 -0.007312 0.017468 -0.003110 0.000000 0.000000 0.000000
# 3 -0.003732 -0.003110 0.013506 0.000000 0.000000 0.000000
# 4 0.000000 0.000000 0.000000 0.022860 0.000000 0.000000
# 5 0.000000 0.000000 0.000000 0.000000 0.028121 0.000000
# 6 0.000000 0.000000 0.000000 0.000000 0.000000 0.067586
#
#
# Mechanical properties :
#
#
# Convention : Reuss Voigt Hill
#
# Bulk Modulus (GPa) = 70.84648 79.08550 74.96599
# Shear Modulus (GPa) = 25.77245 30.37737 28.07491
#
# Velocity S-wave (km/s) = 3.69904 4.01593 3.86074
# Velocity P-wave (km/s) = 7.47376 7.96812 7.72489
#
# Compressibility (1/GPa) = 0.01411503
#
# Stress axis : x y z
#
# Youngs Moduli (GPa) = 87.33263 57.24891 74.04074
#
# Poissons Ratio (x) = 0.41862 0.27632
# Poissons Ratio (y) = 0.63859 0.23029
# Poissons Ratio (z) = 0.32593 0.17806
#
# Static dielectric constant tensor:
#      x y z
#    x 1.624610 0.000000 0.000000 
#    y 0.000000 1.664360 0.000000 
#    z 0.000000 0.000000 1.687730 
# 
# From -- ./inp_files/1240.got.cif
#   From: 2010.05.17/outbox.cif.g08.bks.cpg/sg23_1_cif.got.tgz:1240.got - 2010.06.04 12:02:01.
