data_PCOD9331043
_publ_section_title
;
Structure prediction by ZEFSAII (Michael W. Deem and Ramdas Pophale) SiO2 
 PCOD9331043
Probable space group: I 2 2 2
;
_chemical_formula_sum "Si O2"
_cell_formula_units_Z 38
_cell_length_a 17.225322
_cell_length_b 6.718432
_cell_length_c 16.779228
_cell_angle_alpha 90.000000
_cell_angle_beta 90.000000
_cell_angle_gamma 90.000000
_cell_volume 1941.812312
_symmetry_space_group_name_H-M "I 2 2 2"
_symmetry_group_IT_number 23
_symmetry_cell_setting 'orthorhombic'
loop_
_space_group_symop_operation_xyz
x,y,z
-x,-y,z
x,-y,-z
-x,y,-z
1/2+x,1/2+y,1/2+z
1/2-x,1/2-y,1/2+z
1/2+x,1/2-y,1/2-z
1/2-x,1/2+y,1/2-z
loop_
_atom_site_type_symbol
_atom_site_label
_atom_site_fract_x
_atom_site_fract_y
_atom_site_fract_z
Si Si1 0.000000 0.000000 0.500000
Si Si2 0.848566 0.477301 0.740289
Si Si3 0.911833 0.060384 0.731013
Si Si4 0.691802 0.676913 0.344620
Si Si5 0.760714 0.500000 0.500000
Si Si6 0.127011 0.784596 0.397181
O O1 0.054622 0.852343 0.449797
O O2 0.767865 0.389669 0.705900
O O3 0.829430 0.598365 0.820272
O O4 0.883078 0.628894 0.674958
O O5 0.904959 0.292602 0.746134
O O6 0.877817 0.952818 0.808350
O O7 0.859617 0.987471 0.654767
O O8 0.000000 0.000000 0.715125
O O9 0.710974 0.617255 0.434240
O O10 0.812220 0.330696 0.454218
#
# Coordination Sequence:
#
# PCOD9331043 Si02
#       6
#     2   8   8   8   4   8
#     4  12  24  38  52  96 142 174 194 266 340 408
#     4  10  21  40  66  89 125 172 220 259 317 397
#     4  11  23  42  63  95 128 170 218 274 327 399
#     4  10  21  39  65  94 127 170 223 268 319 393
#     4  10  24  41  63  96 130 176 216 286 326 388
#     4  10  25  38  59  89 137 168 212 256 330 401
#
# _framework density 19.569348000000002
#
# number of rings (size 3 to 8) (size 9 to 14) (size 15 to 20)
#    0.000    1.684    3.158    0.000    5.895    5.474 
#    0.000    0.526    0.000    0.000    0.000    8.842 
#    0.000    0.000    0.000    0.000    0.000    0.000 
#
# Total GULP energy -105928.402359 kJ/mol
# GULP energy per Si atom -5575.179072 kJ/mol
# Density = 1.952481 g / cm^3
# Si number density = 19.569348 Si / 1000 Ang^3
#
#
#
# Elastic Constant Matrix: (Units=GPa)
#
#
# Indices 1 2 3 4 5 6 
#
# 1 67.0096 41.2312 48.5319 0.0000 0.0000 0.0000
# 2 41.2312 128.5810 60.6861 0.0000 0.0000 0.0000
# 3 48.5319 60.6861 144.2771 0.0000 0.0000 0.0000
# 4 0.0000 0.0000 0.0000 15.3018 0.0000 0.0000
# 5 0.0000 0.0000 0.0000 0.0000 20.9206 0.0000
# 6 0.0000 0.0000 0.0000 0.0000 0.0000 40.1264
#
#
#
# Elastic Compliance Matrix: (Units=1/GPa)
#
#
# Indices 1 2 3 4 5 6 
#
# 1 0.021515 -0.004346 -0.005409 0.000000 0.000000 0.000000
# 2 -0.004346 0.010581 -0.002989 0.000000 0.000000 0.000000
# 3 -0.005409 -0.002989 0.010008 0.000000 0.000000 0.000000
# 4 0.000000 0.000000 0.000000 0.065352 0.000000 0.000000
# 5 0.000000 0.000000 0.000000 0.000000 0.047800 0.000000
# 6 0.000000 0.000000 0.000000 0.000000 0.000000 0.024921
#
#
# Mechanical properties :
#
#
# Convention : Reuss Voigt Hill
#
# Bulk Modulus (GPa) = 60.18274 71.19622 65.68948
# Shear Modulus (GPa) = 23.67379 27.89765 25.78572
#
# Velocity S-wave (km/s) = 3.48190 3.77978 3.63390
# Velocity P-wave (km/s) = 6.85458 7.45047 7.15872
#
# Compressibility (1/GPa) = 0.01661606
#
# Stress axis : x y z
#
# Youngs Moduli (GPa) = 46.47914 94.50466 99.92195
#
# Poissons Ratio (x) = 0.41073 0.54049
# Poissons Ratio (y) = 0.20200 0.29865
# Poissons Ratio (z) = 0.25141 0.28246
#
# Static dielectric constant tensor:
#      x y z
#    x 1.687610 0.000000 0.000000 
#    y 0.000000 1.736970 0.000000 
#    z 0.000000 0.000000 1.705310 
# 
# From -- ./inp_files/3150.got.cif
#   From: 2010.05.17/outbox.cif.g08.bks.cpg/sg23_2_cif.got.tgz:3150.got - 2010.06.04 12:02:01.
