data_PCOD9331357
_publ_section_title
;
Structure prediction by ZEFSAII (Michael W. Deem and Ramdas Pophale) SiO2 
 PCOD9331357
Probable space group: I 2 2 2
;
_chemical_formula_sum "Si O2"
_cell_formula_units_Z 64
_cell_length_a 15.575320
_cell_length_b 16.367112
_cell_length_c 12.386929
_cell_angle_alpha 90.000000
_cell_angle_beta 90.000000
_cell_angle_gamma 90.000000
_cell_volume 3157.713187
_symmetry_space_group_name_H-M "I 2 2 2"
_symmetry_group_IT_number 23
_symmetry_cell_setting 'orthorhombic'
loop_
_space_group_symop_operation_xyz
x,y,z
-x,-y,z
x,-y,-z
-x,y,-z
1/2+x,1/2+y,1/2+z
1/2-x,1/2-y,1/2+z
1/2+x,1/2-y,1/2-z
1/2-x,1/2+y,1/2-z
loop_
_atom_site_type_symbol
_atom_site_label
_atom_site_fract_x
_atom_site_fract_y
_atom_site_fract_z
Si Si1 0.405848 0.244726 0.471927
Si Si2 0.508449 0.402451 0.122906
Si Si3 0.852978 0.142024 0.230079
Si Si4 0.304695 0.363189 0.795681
Si Si5 0.227892 0.990789 0.877652
Si Si6 0.860353 0.430541 0.091149
Si Si7 0.410954 0.035096 0.795393
Si Si8 0.672503 0.194170 0.300187
O O1 0.500000 0.278900 0.500000
O O2 0.364666 0.297972 0.374208
O O3 0.413916 0.150570 0.433561
O O4 0.355483 0.232550 0.585293
O O5 0.500000 0.500000 0.122672
O O6 0.437920 0.359354 0.198041
O O7 0.602205 0.388751 0.168208
O O8 0.500000 0.372702 0.000000
O O9 0.768599 0.157477 0.304048
O O10 0.833498 0.051662 0.187183
O O11 0.280048 0.403654 0.680393
O O12 0.233845 0.396715 0.878519
O O13 0.312298 0.266689 0.784092
O O14 0.326445 0.021006 0.867847
O O15 0.201228 0.000000 0.000000
O O16 0.898458 0.475144 0.194211
O O17 0.857252 0.500000 0.000000
O O18 0.395204 0.126663 0.745749
O O19 0.500000 0.000000 0.844761
#
# Coordination Sequence:
#
# PCOD9331357 Si02
#       8
#     8   8   8   8   8   8   8   8
#     4  12  24  40  68  99 134 174 222 281 336 399
#     4  11  25  41  69  95 129 167 219 272 330 397
#     4  11  24  44  63 100 134 170 223 280 334 413
#     4  11  23  43  65  95 126 172 215 273 324 398
#     4  10  22  41  65  89 126 179 220 264 335 402
#     4  11  23  38  66  96 127 169 222 267 338 395
#     4  10  22  39  63  93 130 168 222 277 325 400
#     4  11  23  41  67  92 134 172 216 275 342 395
#
# _framework density 20.267831000000001
#
# number of rings (size 3 to 8) (size 9 to 14) (size 15 to 20)
#    0.000    1.125    3.750    2.250    3.500    0.250 
#    0.000    0.625    0.000    0.000    0.000    0.000 
#    0.000    0.000    0.000    0.000    0.000    0.000 
#
# Total GULP energy -178515.419135 kJ/mol
# GULP energy per Si atom -5578.606848 kJ/mol
# Density = 2.022170 g / cm^3
# Si number density = 20.267831 Si / 1000 Ang^3
#
#
#
# Elastic Constant Matrix: (Units=GPa)
#
#
# Indices 1 2 3 4 5 6 
#
# 1 97.8096 4.7447 28.1134 0.0000 0.0000 0.0000
# 2 4.7447 79.5311 -5.9113 0.0000 0.0000 0.0000
# 3 28.1134 -5.9113 59.2553 0.0000 0.0000 0.0000
# 4 0.0000 0.0000 0.0000 22.3158 0.0000 0.0000
# 5 0.0000 0.0000 0.0000 0.0000 -50.8612 0.0000
# 6 0.0000 0.0000 0.0000 0.0000 0.0000 61.0189
#
#
#
# Elastic Compliance Matrix: (Units=1/GPa)
#
#
# Indices 1 2 3 4 5 6 
#
# 1 0.011940 -0.001142 -0.005779 0.000000 0.000000 0.000000
# 2 -0.001142 0.012777 0.001816 0.000000 0.000000 0.000000
# 3 -0.005779 0.001816 0.019799 0.000000 0.000000 0.000000
# 4 0.000000 0.000000 0.000000 0.044811 0.000000 0.000000
# 5 0.000000 0.000000 0.000000 0.000000 -0.019661 0.000000
# 6 0.000000 0.000000 0.000000 0.000000 0.000000 0.016388
#
#
# Mechanical properties :
#
#
# Convention : Reuss Voigt Hill
#
# Bulk Modulus (GPa) = 29.14823 32.27661 30.71242
# Shear Modulus (GPa) = 46.42548 20.47130 33.44839
#
# Velocity S-wave (km/s) = 4.79121 3.18156 4.06682
# Velocity P-wave (km/s) = 6.70972 5.42734 6.10231
#
# Compressibility (1/GPa) = 0.03430740
#
# Stress axis : x y z
#
# Youngs Moduli (GPa) = 83.74941 78.26668 50.50728
#
# Poissons Ratio (x) = 0.08937 0.29188
# Poissons Ratio (y) = 0.09563 -0.09174
# Poissons Ratio (z) = 0.48398 -0.14216
#
# Static dielectric constant tensor:
#      x y z
#    x 1.770800 0.000000 0.000000 
#    y 0.000000 2.096800 0.000000 
#    z 0.000000 0.000000 1.708190 
# 
# From -- ./inp_files/16959.got.cif
#   From: 2010.05.17/outbox.cif.g08.bks.cpg/sg23_9_cif.got.tgz:16959.got - 2010.06.04 12:02:01.
