data_PCOD9331213
_publ_section_title
;
Structure prediction by ZEFSAII (Michael W. Deem and Ramdas Pophale) SiO2 
 PCOD9331213
Probable space group: I 2 2 2
;
_chemical_formula_sum "Si O2"
_cell_formula_units_Z 56
_cell_length_a 8.153411
_cell_length_b 14.448932
_cell_length_c 22.289544
_cell_angle_alpha 90.000000
_cell_angle_beta 90.000000
_cell_angle_gamma 90.000000
_cell_volume 2625.888407
_symmetry_space_group_name_H-M "I 2 2 2"
_symmetry_group_IT_number 23
_symmetry_cell_setting 'orthorhombic'
loop_
_space_group_symop_operation_xyz
x,y,z
-x,-y,z
x,-y,-z
-x,y,-z
1/2+x,1/2+y,1/2+z
1/2-x,1/2-y,1/2+z
1/2+x,1/2-y,1/2-z
1/2-x,1/2+y,1/2-z
loop_
_atom_site_type_symbol
_atom_site_label
_atom_site_fract_x
_atom_site_fract_y
_atom_site_fract_z
Si Si1 0.513746 0.109702 0.930739
Si Si2 0.224627 0.247290 0.101991
Si Si3 0.000000 0.500000 0.084624
Si Si4 0.279438 0.200735 0.229903
Si Si5 0.140487 0.333765 0.319974
Si Si6 0.500000 0.834878 0.500000
Si Si7 0.326916 0.506386 0.734074
Si Si8 0.849897 0.935296 0.632413
O O1 0.687518 0.150149 0.909877
O O2 0.377887 0.162160 0.891117
O O3 0.500000 0.000000 0.921937
O O4 0.500000 0.131163 0.000000
O O5 0.173466 0.239034 0.172577
O O6 0.354276 0.332880 0.104722
O O7 0.105974 0.273331 0.046535
O O8 0.929073 0.412867 0.046171
O O9 0.837924 0.533274 0.119386
O O10 0.263875 0.264503 0.287973
O O11 0.464639 0.194659 0.206475
O O12 0.227262 0.097436 0.246896
O O13 0.190450 0.436502 0.300230
O O14 0.500000 0.500000 0.699920
O O15 0.362147 0.562255 0.795542
O O16 0.000000 0.000000 0.610486
#
# Coordination Sequence:
#
# PCOD9331213 Si02
#       8
#     8   8   4   8   8   4   8   8
#     4  10  23  44  68  90 127 177 231 282 336 404
#     4  10  21  43  63  97 134 177 228 287 333 416
#     4   9  20  40  62  98 134 186 225 268 343 422
#     4  11  23  37  65  95 135 167 224 275 343 411
#     4  11  22  42  65  99 132 175 216 285 340 401
#     4   9  20  40  64  89 140 176 224 283 334 399
#     4  11  23  40  60  96 132 172 211 278 348 408
#     4  10  22  37  64  97 143 174 219 280 347 418
#
# _framework density 21.326115999999999
#
# number of rings (size 3 to 8) (size 9 to 14) (size 15 to 20)
#    0.000    1.714    1.429    3.000    8.000    1.143 
#    5.143    5.000    0.000    0.000    0.000    0.000 
#    0.000    0.000    0.000    0.000    0.000    0.000 
#
# Total GULP energy -156025.233997 kJ/mol
# GULP energy per Si atom -5572.329786 kJ/mol
# Density = 2.127758 g / cm^3
# Si number density = 21.326116 Si / 1000 Ang^3
#
#
#
# Elastic Constant Matrix: (Units=GPa)
#
#
# Indices 1 2 3 4 5 6 
#
# 1 70.8203 20.7957 37.4030 0.0000 0.0000 0.0000
# 2 20.7957 99.4204 47.1780 0.0000 0.0000 0.0000
# 3 37.4030 47.1780 125.1445 0.0000 0.0000 0.0000
# 4 0.0000 0.0000 0.0000 9.4064 0.0000 0.0000
# 5 0.0000 0.0000 0.0000 0.0000 24.4645 0.0000
# 6 0.0000 0.0000 0.0000 0.0000 0.0000 34.7409
#
#
#
# Elastic Compliance Matrix: (Units=1/GPa)
#
#
# Indices 1 2 3 4 5 6 
#
# 1 0.016923 -0.001388 -0.004535 0.000000 0.000000 0.000000
# 2 -0.001388 0.012363 -0.004246 0.000000 0.000000 0.000000
# 3 -0.004535 -0.004246 0.010947 0.000000 0.000000 0.000000
# 4 0.000000 0.000000 0.000000 0.106310 0.000000 0.000000
# 5 0.000000 0.000000 0.000000 0.000000 0.040876 0.000000
# 6 0.000000 0.000000 0.000000 0.000000 0.000000 0.028784
#
#
# Mechanical properties :
#
#
# Convention : Reuss Voigt Hill
#
# Bulk Modulus (GPa) = 50.26186 56.23763 53.24975
# Shear Modulus (GPa) = 20.56155 26.38959 23.47557
#
# Velocity S-wave (km/s) = 3.10844 3.52153 3.32141
# Velocity P-wave (km/s) = 6.04174 6.55458 6.30337
#
# Compressibility (1/GPa) = 0.01989580
#
# Stress axis : x y z
#
# Youngs Moduli (GPa) = 59.09219 80.88326 91.35105
#
# Poissons Ratio (x) = 0.11226 0.41424
# Poissons Ratio (y) = 0.08201 0.38788
# Poissons Ratio (z) = 0.26796 0.34344
#
# Static dielectric constant tensor:
#      x y z
#    x 1.825360 0.000000 0.000000 
#    y 0.000000 1.802340 0.000000 
#    z 0.000000 0.000000 1.821130 
# 
# From -- ./inp_files/26281.got.cif
#   From: 2010.05.17/outbox.cif.g08.bks.cpg/sg23_14_cif.got.tgz:26281.got - 2010.06.04 12:02:01.
