data_PCOD9331939
_publ_section_title
;
Structure prediction by ZEFSAII (Michael W. Deem and Ramdas Pophale) SiO2 
 PCOD9331939
Probable space group: I 2 2 2
;
_chemical_formula_sum "Si O2"
_cell_formula_units_Z 18
_cell_length_a 8.345836
_cell_length_b 6.749585
_cell_length_c 12.825705
_cell_angle_alpha 90.000000
_cell_angle_beta 90.000000
_cell_angle_gamma 90.000000
_cell_volume 722.483884
_symmetry_space_group_name_H-M "I 2 2 2"
_symmetry_group_IT_number 23
_symmetry_cell_setting 'orthorhombic'
loop_
_space_group_symop_operation_xyz
x,y,z
-x,-y,z
x,-y,-z
-x,y,-z
1/2+x,1/2+y,1/2+z
1/2-x,1/2-y,1/2+z
1/2+x,1/2-y,1/2-z
1/2-x,1/2+y,1/2-z
loop_
_atom_site_type_symbol
_atom_site_label
_atom_site_fract_x
_atom_site_fract_y
_atom_site_fract_z
Si Si1 0.877173 0.689094 0.165570
Si Si2 0.500000 0.500000 0.500000
Si Si3 0.019634 0.738850 0.379979
O O1 0.688000 0.665347 0.153378
O O2 0.000000 0.500000 0.151567
O O3 0.905380 0.775364 0.281000
O O4 0.908734 0.852766 0.077070
O O5 0.000000 0.500000 0.383943
O O6 0.000000 0.797643 0.500000
#
# Coordination Sequence:
#
# PCOD9331939 Si02
#       3
#     8   2   8
#     4  11  27  48  84 119 164 215 281 335 412 487
#     4  12  26  48  80 106 168 224 268 334 392 486
#     4  10  24  50  82 119 166 212 275 335 409 488
#
# _framework density 24.914051000000001
#
# number of rings (size 3 to 8) (size 9 to 14) (size 15 to 20)
#    0.000    1.333    0.000    3.333   18.667    0.000 
#    0.000    1.111    0.000    0.000    0.000    0.000 
#    0.000    0.000    0.000    0.000    0.000    0.000 
#
# Total GULP energy -50206.321172 kJ/mol
# GULP energy per Si atom -5578.480130 kJ/mol
# Density = 2.485735 g / cm^3
# Si number density = 24.914051 Si / 1000 Ang^3
#
#
#
# Elastic Constant Matrix: (Units=GPa)
#
#
# Indices 1 2 3 4 5 6 
#
# 1 147.7714 47.1004 94.6305 0.0000 0.0000 0.0000
# 2 47.1004 208.9698 52.4918 0.0000 0.0000 0.0000
# 3 94.6305 52.4918 299.1028 0.0000 0.0000 0.0000
# 4 0.0000 0.0000 0.0000 -167.2599 0.0000 0.0000
# 5 0.0000 0.0000 0.0000 0.0000-4771.0168 0.0000
# 6 0.0000 0.0000 0.0000 0.0000 0.0000 27.3584
#
#
#
# Elastic Compliance Matrix: (Units=1/GPa)
#
#
# Indices 1 2 3 4 5 6 
#
# 1 0.008836 -0.001349 -0.002559 0.000000 0.000000 0.000000
# 2 -0.001349 0.005212 -0.000488 0.000000 0.000000 0.000000
# 3 -0.002559 -0.000488 0.004239 0.000000 0.000000 0.000000
# 4 0.000000 0.000000 0.000000 -0.005979 0.000000 0.000000
# 5 0.000000 0.000000 0.000000 0.000000 -0.000210 0.000000
# 6 0.000000 0.000000 0.000000 0.000000 0.000000 0.036552
#
#
# Mechanical properties :
#
#
# Convention : Reuss Voigt Hill
#
# Bulk Modulus (GPa) = 105.31622 116.03216 110.67419
# Shear Modulus (GPa) = 82.50050 -951.40891 -434.45421
#
# Velocity S-wave (km/s) = 5.76072 -19.56286 -13.21967
# Velocity P-wave (km/s) = 9.30653 21.53137 13.72932
#
# Compressibility (1/GPa) = 0.00949521
#
# Stress axis : x y z
#
# Youngs Moduli (GPa) = 113.17732 191.86656 235.93223
#
# Poissons Ratio (x) = 0.25878 0.60369
# Poissons Ratio (y) = 0.15265 0.11513
# Poissons Ratio (z) = 0.28959 0.09362
#
# Static dielectric constant tensor:
#      x y z
#    x 3.213040 0.000000 0.000000 
#    y 0.000000 2.958510 0.000000 
#    z 0.000000 0.000000 1.919990 
# 
# From -- ./inp_files/6013.got.cif
#   From: 2010.05.17/outbox.cif.g08.bks.cpg/sg23_4_cif.got.tgz:6013.got - 2010.06.04 12:02:01.
