data_PCOD9331090
_publ_section_title
;
Structure prediction by ZEFSAII (Michael W. Deem and Ramdas Pophale) SiO2 
 PCOD9331090
Probable space group: I 2 2 2
;
_chemical_formula_sum "Si O2"
_cell_formula_units_Z 36
_cell_length_a 13.934071
_cell_length_b 15.891061
_cell_length_c 8.845889
_cell_angle_alpha 90.000000
_cell_angle_beta 90.000000
_cell_angle_gamma 90.000000
_cell_volume 1958.720187
_symmetry_space_group_name_H-M "I 2 2 2"
_symmetry_group_IT_number 23
_symmetry_cell_setting 'orthorhombic'
loop_
_space_group_symop_operation_xyz
x,y,z
-x,-y,z
x,-y,-z
-x,y,-z
1/2+x,1/2+y,1/2+z
1/2-x,1/2-y,1/2+z
1/2+x,1/2-y,1/2-z
1/2-x,1/2+y,1/2-z
loop_
_atom_site_type_symbol
_atom_site_label
_atom_site_fract_x
_atom_site_fract_y
_atom_site_fract_z
Si Si1 0.745157 0.059259 0.368843
Si Si2 0.672056 0.411982 0.341489
Si Si3 0.890333 0.821624 0.451914
Si Si4 0.000000 0.000000 0.000000
Si Si5 0.000000 0.500000 0.500000
Si Si6 0.161225 0.631059 0.585017
O O1 0.826389 0.115009 0.448501
O O2 0.689494 0.124244 0.261365
O O3 0.697705 0.000000 0.500000
O O4 0.786235 0.990752 0.252093
O O5 0.644828 0.341483 0.218932
O O6 0.571162 0.441340 0.407426
O O7 0.749206 0.391115 0.472811
O O8 0.871633 0.722614 0.470134
O O9 0.000000 0.838879 0.500000
O O10 0.074797 0.563882 0.577123
#
# Coordination Sequence:
#
# PCOD9331090 Si02
#       6
#     8   8   8   2   2   8
#     4  10  21  40  63  90 126 159 207 263 325 372
#     4  11  22  38  65  91 128 166 206 260 324 376
#     4  11  24  38  63  96 127 166 210 265 315 383
#     4  12  18  36  66  90 116 158 208 252 304 402
#     4  12  22  40  74  82 118 180 220 236 308 394
#     4  12  22  44  64  91 126 172 213 261 317 381
#
# _framework density 18.379349000000001
#
# number of rings (size 3 to 8) (size 9 to 14) (size 15 to 20)
#    0.000    0.889    5.556    2.667    0.000    3.111 
#    0.000    0.556    4.889    0.000    0.000    0.000 
#    0.000    0.000    0.000    0.000    0.000    0.000 
#
# Total GULP energy -100210.974507 kJ/mol
# GULP energy per Si atom -5567.276362 kJ/mol
# Density = 1.833752 g / cm^3
# Si number density = 18.379349 Si / 1000 Ang^3
#
#
#
# Elastic Constant Matrix: (Units=GPa)
#
#
# Indices 1 2 3 4 5 6 
#
# 1 86.9673 7.5423 37.5929 0.0000 0.0000 0.0000
# 2 7.5423 74.4502 11.1326 0.0000 0.0000 0.0000
# 3 37.5929 11.1326 90.3964 0.0000 0.0000 0.0000
# 4 0.0000 0.0000 0.0000 241.0256 0.0000 0.0000
# 5 0.0000 0.0000 0.0000 0.0000 -13.5792 0.0000
# 6 0.0000 0.0000 0.0000 0.0000 0.0000 21.7265
#
#
#
# Elastic Compliance Matrix: (Units=1/GPa)
#
#
# Indices 1 2 3 4 5 6 
#
# 1 0.014041 -0.000560 -0.005770 0.000000 0.000000 0.000000
# 2 -0.000560 0.013706 -0.001455 0.000000 0.000000 0.000000
# 3 -0.005770 -0.001455 0.013641 0.000000 0.000000 0.000000
# 4 0.000000 0.000000 0.000000 0.004149 0.000000 0.000000
# 5 0.000000 0.000000 0.000000 0.000000 -0.073642 0.000000
# 6 0.000000 0.000000 0.000000 0.000000 0.000000 0.046027
#
#
# Mechanical properties :
#
#
# Convention : Reuss Voigt Hill
#
# Bulk Modulus (GPa) = 38.73222 40.48326 39.60774
# Shear Modulus (GPa) = 118.76653 62.87098 90.81876
#
# Velocity S-wave (km/s) = 8.04735 5.85505 7.03710
# Velocity P-wave (km/s) = 10.36658 8.23306 9.36080
#
# Compressibility (1/GPa) = 0.02581830
#
# Stress axis : x y z
#
# Youngs Moduli (GPa) = 71.21759 72.96030 73.30656
#
# Poissons Ratio (x) = 0.04083 0.42301
# Poissons Ratio (y) = 0.03986 0.10668
# Poissons Ratio (z) = 0.41096 0.10617
#
# Static dielectric constant tensor:
#      x y z
#    x 1.564910 0.000000 0.000000 
#    y 0.000000 1.681960 0.000000 
#    z 0.000000 0.000000 1.797960 
# 
# From -- ./inp_files/9508.got.cif
#   From: 2010.05.17/outbox.cif.g08.bks.cpg/sg23_5_cif.got.tgz:9508.got - 2010.06.04 12:02:01.
