data_PCOD9331726
_publ_section_title
;
Structure prediction by ZEFSAII (Michael W. Deem and Ramdas Pophale) SiO2 
 PCOD9331726
Probable space group: I 2 2 2
;
_chemical_formula_sum "Si O2"
_cell_formula_units_Z 22
_cell_length_a 10.265959
_cell_length_b 17.150873
_cell_length_c 5.127595
_cell_angle_alpha 90.000000
_cell_angle_beta 90.000000
_cell_angle_gamma 90.000000
_cell_volume 902.816467
_symmetry_space_group_name_H-M "I 2 2 2"
_symmetry_group_IT_number 23
_symmetry_cell_setting 'orthorhombic'
loop_
_space_group_symop_operation_xyz
x,y,z
-x,-y,z
x,-y,-z
-x,y,-z
1/2+x,1/2+y,1/2+z
1/2-x,1/2-y,1/2+z
1/2+x,1/2-y,1/2-z
1/2-x,1/2+y,1/2-z
loop_
_atom_site_type_symbol
_atom_site_label
_atom_site_fract_x
_atom_site_fract_y
_atom_site_fract_z
Si Si1 0.000000 0.500000 0.000000
Si Si2 0.254581 0.200100 0.778283
Si Si3 0.854650 0.963347 0.747894
Si Si4 0.000000 0.608017 0.500000
O O1 0.959768 0.562331 0.766556
O O2 0.285226 0.237710 0.498672
O O3 0.150727 0.129369 0.745741
O O4 0.380214 0.159776 0.902559
O O5 0.784528 0.000000 0.500000
O O6 0.000000 0.000000 0.746706
O O7 0.790070 0.000000 0.000000
#
# Coordination Sequence:
#
# PCOD9331726 Si02
#       4
#     2   8   8   4
#     4  10  24  46  72  98 138 186 262 302 360 432
#     4  12  27  46  72 109 154 197 243 314 392 456
#     4  10  23  43  71 107 138 191 246 308 364 446
#     4  11  26  44  74 104 145 194 246 310 373 454
#
# _framework density 24.368183999999999
#
# number of rings (size 3 to 8) (size 9 to 14) (size 15 to 20)
#    0.000    1.091    0.000    4.364    7.636    8.727 
#    0.000    0.000    0.000    0.000    0.000    0.000 
#    0.000    0.000    0.000    0.000    0.000    0.000 
#
# Total GULP energy -61338.340331 kJ/mol
# GULP energy per Si atom -5576.212757 kJ/mol
# Density = 2.431272 g / cm^3
# Si number density = 24.368184 Si / 1000 Ang^3
#
#
#
# Elastic Constant Matrix: (Units=GPa)
#
#
# Indices 1 2 3 4 5 6 
#
# 1 81.7944 32.2967 7.4288 0.0018 0.0001 0.0002
# 2 32.2967 165.6381 63.9899 0.0027 0.0000 0.0002
# 3 7.4288 63.9899 248.7514 0.0083 -0.0003 0.0011
# 4 0.0018 0.0027 0.0083 -143.5762 0.0003 0.0007
# 5 0.0001 0.0000 -0.0003 0.0003 29.9682 0.0001
# 6 0.0002 0.0002 0.0011 0.0007 0.0001 16.4301
#
#
#
# Elastic Compliance Matrix: (Units=1/GPa)
#
#
# Indices 1 2 3 4 5 6 
#
# 1 0.013266 -0.002702 0.000299 0.000000 0.000000 0.000000
# 2 -0.002702 0.007254 -0.001785 0.000000 0.000000 0.000000
# 3 0.000299 -0.001785 0.004470 0.000000 0.000000 0.000000
# 4 0.000000 0.000000 0.000000 -0.006965 0.000000 0.000000
# 5 0.000000 0.000000 0.000000 0.000000 0.033369 0.000000
# 6 0.000000 0.000000 0.000000 0.000000 0.000000 0.060864
#
#
# Mechanical properties :
#
#
# Convention : Reuss Voigt Hill
#
# Bulk Modulus (GPa) = 60.19421 78.17943 69.18682
# Shear Modulus (GPa) = 39.62841 6.72897 23.17869
#
# Velocity S-wave (km/s) = 4.03704 1.66354 3.08748
# Velocity P-wave (km/s) = 6.81805 5.98682 6.41591
#
# Compressibility (1/GPa) = 0.01661289
#
# Stress axis : x y z
#
# Youngs Moduli (GPa) = 75.38334 137.85847 223.69310
#
# Poissons Ratio (x) = 0.37250 -0.06687
# Poissons Ratio (y) = 0.20369 0.39936
# Poissons Ratio (z) = -0.02253 0.24612
#
# Static dielectric constant tensor:
#      x y z
#    x 16.609850 0.000000 0.000030 
#    y 0.000000 2.003860 0.000000 
#    z 0.000030 0.000000 2.220630 
# 
# From -- ./inp_files/1057.got.cif
#   From: 2010.05.17/outbox.cif.g08.bks.cpg/sg23_1_cif.got.tgz:1057.got - 2010.06.04 12:02:01.
