data_PCOD9331611
_publ_section_title
;
Structure prediction by ZEFSAII (Michael W. Deem and Ramdas Pophale) SiO2 
 PCOD9331611
Probable space group: I 2 2 2
;
_chemical_formula_sum "Si O2"
_cell_formula_units_Z 64
_cell_length_a 12.056384
_cell_length_b 19.960923
_cell_length_c 12.059876
_cell_angle_alpha 90.000000
_cell_angle_beta 90.000000
_cell_angle_gamma 90.000000
_cell_volume 2902.288184
_symmetry_space_group_name_H-M "I 2 2 2"
_symmetry_group_IT_number 23
_symmetry_cell_setting 'orthorhombic'
loop_
_space_group_symop_operation_xyz
x,y,z
-x,-y,z
x,-y,-z
-x,y,-z
1/2+x,1/2+y,1/2+z
1/2-x,1/2-y,1/2+z
1/2+x,1/2-y,1/2-z
1/2-x,1/2+y,1/2-z
loop_
_atom_site_type_symbol
_atom_site_label
_atom_site_fract_x
_atom_site_fract_y
_atom_site_fract_z
Si Si1 0.174496 0.920653 0.485940
Si Si2 0.744675 0.128781 0.245281
Si Si3 0.130534 0.501548 0.633702
Si Si4 0.393047 0.848611 0.550783
Si Si5 0.995086 0.301775 0.729054
Si Si6 0.704852 0.857205 0.159888
Si Si7 0.378874 0.315215 0.850286
Si Si8 0.211682 0.784838 0.045793
O O1 0.192346 0.892982 0.358920
O O2 0.293338 0.899056 0.537654
O O3 0.097280 0.878203 0.571001
O O4 0.155104 0.000000 0.500000
O O5 0.626392 0.168517 0.257527
O O6 0.812960 0.176118 0.160319
O O7 0.699208 0.063377 0.181946
O O8 0.133520 0.500000 0.500000
O O9 0.188473 0.435222 0.678239
O O10 0.000000 0.500000 0.666920
O O11 0.500000 0.881692 0.500000
O O12 0.427069 0.826391 0.672190
O O13 0.366668 0.774840 0.500895
O O14 0.979020 0.223620 0.706749
O O15 0.078317 0.330255 0.635570
O O16 0.786501 0.829757 0.256217
O O17 0.768975 0.839000 0.047648
O O18 0.322321 0.258725 0.928771
#
# Coordination Sequence:
#
# PCOD9331611 Si02
#       8
#     8   8   8   8   8   8   8   8
#     4  11  23  39  62  93 133 169 210 259 337 407
#     4  11  22  37  57  89 127 167 202 254 321 392
#     4  11  22  35  56  90 129 167 209 253 323 401
#     4  11  21  39  59  93 127 162 212 267 320 386
#     4  11  22  38  62  91 129 168 214 261 316 384
#     4  12  21  40  61  89 131 162 206 265 313 393
#     4  10  24  38  60  92 125 171 214 259 324 387
#     4  10  23  36  59  88 124 169 207 257 321 374
#
# _framework density 22.051566999999999
#
# number of rings (size 3 to 8) (size 9 to 14) (size 15 to 20)
#    0.000    1.125    6.250    1.500    5.250    2.250 
#    0.000    0.000    0.000    0.000    0.000   32.375 
#    0.000    0.000    0.000    0.000    0.000    0.000 
#
# Total GULP energy -178290.835258 kJ/mol
# GULP energy per Si atom -5571.588602 kJ/mol
# Density = 2.200138 g / cm^3
# Si number density = 22.051567 Si / 1000 Ang^3
#
#
#
# Elastic Constant Matrix: (Units=GPa)
#
#
# Indices 1 2 3 4 5 6 
#
# 1 31.9526 5.8047 7.5982 0.0000 0.0000 0.0000
# 2 5.8047 138.5920 35.1455 0.0001 0.0000 0.0000
# 3 7.5982 35.1455 100.4263 0.0000 0.0000 0.0000
# 4 0.0000 0.0001 0.0000 35.3600 0.0000 0.0000
# 5 0.0000 0.0000 0.0000 0.0000 18.2024 0.0000
# 6 0.0000 0.0000 0.0000 0.0000 0.0000 25.6607
#
#
#
# Elastic Compliance Matrix: (Units=1/GPa)
#
#
# Indices 1 2 3 4 5 6 
#
# 1 0.031950 -0.000796 -0.002139 0.000000 0.000000 0.000000
# 2 -0.000796 0.007938 -0.002718 0.000000 0.000000 0.000000
# 3 -0.002139 -0.002718 0.011071 0.000000 0.000000 0.000000
# 4 0.000000 0.000000 0.000000 0.028281 0.000000 0.000000
# 5 0.000000 0.000000 0.000000 0.000000 0.054938 0.000000
# 6 0.000000 0.000000 0.000000 0.000000 0.000000 0.038970
#
#
# Mechanical properties :
#
#
# Convention : Reuss Voigt Hill
#
# Bulk Modulus (GPa) = 25.21858 40.89640 33.05749
# Shear Modulus (GPa) = 25.29483 30.67279 27.98381
#
# Velocity S-wave (km/s) = 3.39053 3.73360 3.56619
# Velocity P-wave (km/s) = 5.17577 6.09692 5.65513
#
# Compressibility (1/GPa) = 0.03965330
#
# Stress axis : x y z
#
# Youngs Moduli (GPa) = 31.29934 125.97705 90.33014
#
# Poissons Ratio (x) = 0.10025 0.19320
# Poissons Ratio (y) = 0.02491 0.24550
# Poissons Ratio (z) = 0.06694 0.34238
#
# Static dielectric constant tensor:
#      x y z
#    x 2.172660 0.000000 0.000000 
#    y 0.000000 1.799460 0.000000 
#    z 0.000000 0.000000 1.977180 
# 
# From -- ./inp_files/16960.got.cif
#   From: 2010.05.17/outbox.cif.g08.bks.cpg/sg23_9_cif.got.tgz:16960.got - 2010.06.04 12:02:01.
