data_PCOD9331957
_publ_section_title
;
Structure prediction by ZEFSAII (Michael W. Deem and Ramdas Pophale) SiO2 
 PCOD9331957
Probable space group: I 2 2 2
;
_chemical_formula_sum "Si O2"
_cell_formula_units_Z 54
_cell_length_a 34.964451
_cell_length_b 13.891579
_cell_length_c 5.048473
_cell_angle_alpha 90.000000
_cell_angle_beta 90.000000
_cell_angle_gamma 90.000000
_cell_volume 2452.101057
_symmetry_space_group_name_H-M "I 2 2 2"
_symmetry_group_IT_number 23
_symmetry_cell_setting 'orthorhombic'
loop_
_space_group_symop_operation_xyz
x,y,z
-x,-y,z
x,-y,-z
-x,y,-z
1/2+x,1/2+y,1/2+z
1/2-x,1/2-y,1/2+z
1/2+x,1/2-y,1/2-z
1/2-x,1/2+y,1/2-z
loop_
_atom_site_type_symbol
_atom_site_label
_atom_site_fract_x
_atom_site_fract_y
_atom_site_fract_z
Si Si1 0.837045 0.719447 0.694263
Si Si2 0.944990 0.000000 0.000000
Si Si3 0.227235 0.567991 0.254284
Si Si4 0.543635 0.115383 0.530695
Si Si5 0.500000 0.500000 0.000000
Si Si6 0.310860 0.400335 0.846216
Si Si7 0.885483 0.845809 0.091017
Si Si8 0.089566 0.308875 0.462962
O O1 0.803215 0.652138 0.790110
O O2 0.818687 0.808472 0.534047
O O3 0.866898 0.658663 0.516031
O O4 0.866043 0.762563 0.913393
O O5 0.917416 0.908746 0.946833
O O6 0.969028 0.971499 0.264543
O O7 0.217222 0.500000 0.500000
O O8 0.270057 0.610168 0.297433
O O9 0.227883 0.500000 0.000000
O O10 0.500000 0.150807 0.500000
O O11 0.569458 0.146320 0.288262
O O12 0.542498 0.000000 0.500000
O O13 0.562600 0.160662 0.793053
O O14 0.348233 0.406328 0.666060
O O15 0.308994 0.500000 0.000000
O O16 0.903565 0.800691 0.359782
#
# Coordination Sequence:
#
# PCOD9331957 Si02
#       8
#     8   4   8   8   2   8   8   8
#     4  11  26  46  72 107 144 197 242 308 361 442
#     4  11  26  50  76 104 148 192 242 306 372 472
#     4  11  29  47  70 106 153 196 249 301 374 434
#     4  11  24  46  73 102 139 184 234 294 359 438
#     4  10  28  50  68 110 144 190 234 302 404 434
#     4  10  25  43  74 107 141 190 247 306 365 426
#     4  11  25  45  77 103 147 186 255 296 369 436
#     4  11  24  45  66 107 138 181 237 289 361 426
#
# _framework density 22.021930000000001
#
# number of rings (size 3 to 8) (size 9 to 14) (size 15 to 20)
#    0.000    1.185    1.481    1.778   16.593    2.963 
#    5.333    0.000    0.000    0.000    0.000    0.000 
#    0.000    0.000    0.000    0.000    0.000    0.000 
#
# Total GULP energy -150551.451836 kJ/mol
# GULP energy per Si atom -5575.979698 kJ/mol
# Density = 2.197181 g / cm^3
# Si number density = 22.021930 Si / 1000 Ang^3
#
#
#
# Elastic Constant Matrix: (Units=GPa)
#
#
# Indices 1 2 3 4 5 6 
#
# 1 132.8762 63.8829 25.4529 0.0209 0.0014 -0.0173
# 2 63.8829 73.9207 31.9073 0.0044 -0.0013 -0.0106
# 3 25.4529 31.9073 115.2671 0.0432 0.0052 -0.0323
# 4 0.0209 0.0044 0.0432 25.7637 0.0116 0.0045
# 5 0.0014 -0.0013 0.0052 0.0116 29.4157 -0.0012
# 6 -0.0173 -0.0106 -0.0323 0.0045 -0.0012 -10.6824
#
#
#
# Elastic Compliance Matrix: (Units=1/GPa)
#
#
# Indices 1 2 3 4 5 6 
#
# 1 0.012883 -0.011250 0.000269 -0.000009 -0.000001 -0.000011
# 2 -0.011250 0.025187 -0.004488 0.000012 0.000002 0.000007
# 3 0.000269 -0.004488 0.009858 -0.000016 -0.000002 -0.000026
# 4 -0.000009 0.000012 -0.000016 0.038814 -0.000015 0.000016
# 5 -0.000001 0.000002 -0.000002 -0.000015 0.033995 -0.000004
# 6 -0.000011 0.000007 -0.000026 0.000016 -0.000004 -0.093612
#
#
# Mechanical properties :
#
#
# Convention : Reuss Voigt Hill
#
# Bulk Modulus (GPa) = 58.85233 62.72779 60.79006
# Shear Modulus (GPa) = 78.46014 22.28746 50.37380
#
# Velocity S-wave (km/s) = 5.97541 3.18474 4.78791
# Velocity P-wave (km/s) = 8.62495 6.48610 7.63083
#
# Compressibility (1/GPa) = 0.01699168
#
# Stress axis : x y z
#
# Youngs Moduli (GPa) = 77.62371 39.70270 101.43657
#
# Poissons Ratio (x) = 0.44664 -0.02732
# Poissons Ratio (y) = 0.87323 0.45525
# Poissons Ratio (z) = -0.02090 0.17819
#
# Static dielectric constant tensor:
#      x y z
#    x 1.829620 0.000000 0.000000 
#    y 0.000000 1.863200 0.000000 
#    z 0.000000 0.000000 1.893740 
# 
# From -- ./inp_files/5399.got.cif
#   From: 2010.05.17/outbox.cif.g08.bks.cpg/sg23_3_cif.got.tgz:5399.got - 2010.06.04 12:02:01.
