data_PCOD9331029
_publ_section_title
;
Structure prediction by ZEFSAII (Michael W. Deem and Ramdas Pophale) SiO2 
 PCOD9331029
Probable space group: I 2 2 2
;
_chemical_formula_sum "Si O2"
_cell_formula_units_Z 48
_cell_length_a 8.144222
_cell_length_b 16.047817
_cell_length_c 19.078313
_cell_angle_alpha 90.000000
_cell_angle_beta 90.000000
_cell_angle_gamma 90.000000
_cell_volume 2493.477974
_symmetry_space_group_name_H-M "I 2 2 2"
_symmetry_group_IT_number 23
_symmetry_cell_setting 'orthorhombic'
loop_
_space_group_symop_operation_xyz
x,y,z
-x,-y,z
x,-y,-z
-x,y,-z
1/2+x,1/2+y,1/2+z
1/2-x,1/2-y,1/2+z
1/2+x,1/2-y,1/2-z
1/2-x,1/2+y,1/2-z
loop_
_atom_site_type_symbol
_atom_site_label
_atom_site_fract_x
_atom_site_fract_y
_atom_site_fract_z
Si Si1 0.183657 0.837708 0.163050
Si Si2 0.696823 0.500000 0.080604
Si Si3 0.189692 0.639913 0.813255
Si Si4 0.310308 0.860087 0.686745
Si Si5 0.316343 0.662292 0.336950
Si Si6 0.500000 0.900441 0.079981
O O1 0.205774 0.870666 0.242577
O O2 0.199111 0.737223 0.166546
O O3 0.334916 0.870491 0.118126
O O4 1.000000 0.858710 0.137584
O O5 0.500000 0.500000 0.079616
O O6 0.755792 0.580342 0.124125
O O7 0.755792 0.419658 0.124125
O O8 0.755914 0.500000 0.000000
O O9 0.199111 0.737223 0.833454
O O10 1.000000 0.621512 0.795581
O O11 0.205774 0.870666 0.757423
O O12 0.165084 0.629509 0.381874
O O13 0.500000 0.000000 0.080427
O O14 0.500000 0.870065 0.000000
#
# Coordination Sequence:
#
# PCOD9331029 Si02
#       6
#     8   8   8   8   8   8
#     4  10  22  41  67  95 124 165 214 262 313 369
#     4  11  25  39  57  93 135 174 211 255 317 383
#     4  10  21  39  64  93 126 166 215 259 305 375
#     4  10  21  39  64  93 126 166 215 259 305 375
#     4  10  22  41  67  95 124 165 214 262 313 369
#     4  11  26  44  64  93 125 165 211 261 326 378
#
# _framework density 19.250221
#
# number of rings (size 3 to 8) (size 9 to 14) (size 15 to 20)
#    0.000    1.667    1.667    1.500    7.000    4.000 
#    0.000    5.000    0.000    0.000    0.000    0.000 
#    0.000    0.000    0.000    0.000    0.000    0.000 
#
# Total GULP energy -134090.416208 kJ/mol
# GULP energy per Si atom -5587.100675 kJ/mol
# Density = 1.920641 g / cm^3
# Si number density = 19.250221 Si / 1000 Ang^3
#
#
#
# Elastic Constant Matrix: (Units=GPa)
#
#
# Indices 1 2 3 4 5 6 
#
# 1 162.3542 37.1767 67.1961 0.0000 0.0000 0.0000
# 2 37.1767 54.2908 59.5451 -0.0003 0.0000 0.0000
# 3 67.1961 59.5451 143.4123 -0.0002 0.0000 0.0000
# 4 0.0000 -0.0003 -0.0002 2775.9187 0.0000 -0.0001
# 5 0.0000 0.0000 0.0000 0.0000 24.4633 0.0000
# 6 0.0000 0.0000 0.0000 -0.0001 0.0000 27.6094
#
#
#
# Elastic Compliance Matrix: (Units=1/GPa)
#
#
# Indices 1 2 3 4 5 6 
#
# 1 0.007815 -0.002452 -0.002644 0.000000 0.000000 0.000000
# 2 -0.002452 0.034590 -0.013213 0.000000 0.000000 0.000000
# 3 -0.002644 -0.013213 0.013698 0.000000 0.000000 0.000000
# 4 0.000000 0.000000 0.000000 0.000360 0.000000 0.000000
# 5 0.000000 0.000000 0.000000 0.000000 0.040878 0.000000
# 6 0.000000 0.000000 0.000000 0.000000 0.000000 0.036220
#
#
# Mechanical properties :
#
#
# Convention : Reuss Voigt Hill
#
# Bulk Modulus (GPa) = 51.32018 76.43255 63.87636
# Shear Modulus (GPa) = 28.30092 578.67425 303.48758
#
# Velocity S-wave (km/s) = 3.83843 17.35682 12.56966
# Velocity P-wave (km/s) = 6.80897 21.01118 15.61781
#
# Compressibility (1/GPa) = 0.01948551
#
# Stress axis : x y z
#
# Youngs Moduli (GPa) = 127.95884 28.90998 73.00499
#
# Poissons Ratio (x) = 0.07089 0.19300
# Poissons Ratio (y) = 0.31375 0.96462
# Poissons Ratio (z) = 0.33828 0.38199
#
# Static dielectric constant tensor:
#      x y z
#    x 1.676180 0.000000 0.000000 
#    y 0.000000 1.654980 0.000000 
#    z 0.000000 0.000000 1.651150 
# 
# From -- ./inp_files/11037.got.cif
#   From: 2010.05.17/outbox.cif.g08.bks.cpg/sg23_6_cif.got.tgz:11037.got - 2010.06.04 12:02:01.
