data_PCOD9331756
_publ_section_title
;
Structure prediction by ZEFSAII (Michael W. Deem and Ramdas Pophale) SiO2 
 PCOD9331756
Probable space group: I 2 2 2
;
_chemical_formula_sum "Si O2"
_cell_formula_units_Z 44
_cell_length_a 19.336351
_cell_length_b 13.586223
_cell_length_c 7.627655
_cell_angle_alpha 90.000000
_cell_angle_beta 90.000000
_cell_angle_gamma 90.000000
_cell_volume 2003.845812
_symmetry_space_group_name_H-M "I 2 2 2"
_symmetry_group_IT_number 23
_symmetry_cell_setting 'orthorhombic'
loop_
_space_group_symop_operation_xyz
x,y,z
-x,-y,z
x,-y,-z
-x,y,-z
1/2+x,1/2+y,1/2+z
1/2-x,1/2-y,1/2+z
1/2+x,1/2-y,1/2-z
1/2-x,1/2+y,1/2-z
loop_
_atom_site_type_symbol
_atom_site_label
_atom_site_fract_x
_atom_site_fract_y
_atom_site_fract_z
Si Si1 0.723693 0.158681 0.007103
Si Si2 0.000000 0.764714 0.500000
Si Si3 0.909812 0.414075 0.643889
Si Si4 0.391599 0.000000 0.500000
Si Si5 0.336985 0.500000 0.500000
Si Si6 0.442074 0.358217 0.350812
Si Si7 0.332115 0.194771 0.357985
O O1 0.673904 0.187527 0.849914
O O2 0.784180 0.085584 0.941697
O O3 0.673039 0.106394 0.145242
O O4 0.762484 0.253339 0.079276
O O5 0.052797 0.687150 0.591774
O O6 0.029102 0.832044 0.341591
O O7 0.921666 0.500000 0.500000
O O8 0.930958 0.453503 0.834156
O O9 0.344930 0.912667 0.572803
O O10 0.388011 0.449343 0.358846
O O11 0.500000 0.373937 0.500000
O O12 0.396606 0.263449 0.406759
#
# Coordination Sequence:
#
# PCOD9331756 Si02
#       7
#     8   4   8   4   4   8   8
#     4  11  21  43  69 101 142 184 241 301 356 431
#     4  12  25  44  73 104 144 192 246 295 367 440
#     4  12  23  42  67 105 146 185 239 302 360 444
#     4  12  22  40  65 100 136 185 226 286 370 428
#     4  10  23  44  76  99 144 188 236 300 362 427
#     4  11  24  47  72 104 143 192 237 298 363 436
#     4  11  23  40  68 102 140 187 237 296 365 428
#
# _framework density 21.957777
#
# number of rings (size 3 to 8) (size 9 to 14) (size 15 to 20)
#    0.000    0.727    4.545    2.727    0.000    2.909 
#    0.000    7.727    4.000    0.000    0.000    0.000 
#    0.000    0.000    0.000    0.000    0.000    0.000 
#
# Total GULP energy -122950.388468 kJ/mol
# GULP energy per Si atom -5588.654021 kJ/mol
# Density = 2.190780 g / cm^3
# Si number density = 21.957777 Si / 1000 Ang^3
#
#
#
# Elastic Constant Matrix: (Units=GPa)
#
#
# Indices 1 2 3 4 5 6 
#
# 1 114.4090 35.7052 32.1022 0.0000 0.0000 0.0000
# 2 35.7052 86.2637 14.9485 0.0000 0.0000 0.0000
# 3 32.1022 14.9485 99.2805 0.0000 0.0000 0.0000
# 4 0.0000 0.0000 0.0000 32.2359 0.0000 0.0000
# 5 0.0000 0.0000 0.0000 0.0000 -2.9179 0.0000
# 6 0.0000 0.0000 0.0000 0.0000 0.0000 -6.6548
#
#
#
# Elastic Compliance Matrix: (Units=1/GPa)
#
#
# Indices 1 2 3 4 5 6 
#
# 1 0.010789 -0.003965 -0.002892 0.000000 0.000000 0.000000
# 2 -0.003965 0.013360 -0.000730 0.000000 0.000000 0.000000
# 3 -0.002892 -0.000730 0.011117 0.000000 0.000000 0.000000
# 4 0.000000 0.000000 0.000000 0.031021 0.000000 0.000000
# 5 0.000000 0.000000 0.000000 0.000000 -0.342707 0.000000
# 6 0.000000 0.000000 0.000000 0.000000 0.000000 -0.150268
#
#
# Mechanical properties :
#
#
# Convention : Reuss Voigt Hill
#
# Bulk Modulus (GPa) = 49.76503 51.71835 50.74169
# Shear Modulus (GPa) = -12.35124 19.01246 3.33061
#
# Velocity S-wave (km/s) = -2.37428 2.94575 1.23293
# Velocity P-wave (km/s) = 3.89832 5.93082 5.01854
#
# Compressibility (1/GPa) = 0.02009443
#
# Stress axis : x y z
#
# Youngs Moduli (GPa) = 92.68459 74.85150 89.94931
#
# Poissons Ratio (x) = 0.29676 0.26011
# Poissons Ratio (y) = 0.36746 0.06563
# Poissons Ratio (z) = 0.26802 0.05461
#
# Static dielectric constant tensor:
#      x y z
#    x 1.878110 0.000000 0.000000 
#    y 0.000000 2.025400 0.000000 
#    z 0.000000 0.000000 1.810140 
# 
# From -- ./inp_files/11008.got.cif
#   From: 2010.05.17/outbox.cif.g08.bks.cpg/sg23_6_cif.got.tgz:11008.got - 2010.06.04 12:02:01.
