data_PCOD9331763
_publ_section_title
;
Structure prediction by ZEFSAII (Michael W. Deem and Ramdas Pophale) SiO2 
 PCOD9331763
Probable space group: I 2 2 2
;
_chemical_formula_sum "Si O2"
_cell_formula_units_Z 54
_cell_length_a 11.286897
_cell_length_b 15.046278
_cell_length_c 15.251610
_cell_angle_alpha 90.000000
_cell_angle_beta 90.000000
_cell_angle_gamma 90.000000
_cell_volume 2590.116717
_symmetry_space_group_name_H-M "I 2 2 2"
_symmetry_group_IT_number 23
_symmetry_cell_setting 'orthorhombic'
loop_
_space_group_symop_operation_xyz
x,y,z
-x,-y,z
x,-y,-z
-x,y,-z
1/2+x,1/2+y,1/2+z
1/2-x,1/2-y,1/2+z
1/2+x,1/2-y,1/2-z
1/2-x,1/2+y,1/2-z
loop_
_atom_site_type_symbol
_atom_site_label
_atom_site_fract_x
_atom_site_fract_y
_atom_site_fract_z
Si Si1 0.104424 0.734997 0.932263
Si Si2 0.419177 0.072541 0.171172
Si Si3 0.212897 0.788677 0.567209
Si Si4 0.000000 0.000000 0.000000
Si Si5 0.590902 0.757153 0.288877
Si Si6 0.959396 0.901759 0.312211
Si Si7 0.000000 0.332323 0.500000
Si Si8 0.323366 0.413785 0.632812
O O1 0.189502 0.812035 0.896103
O O2 0.025022 0.714338 0.846707
O O3 0.193339 0.676987 0.993017
O O4 0.000000 0.763340 0.000000
O O5 0.384683 0.156175 0.230743
O O6 0.484972 0.109363 0.086433
O O7 0.297152 0.032583 0.135360
O O8 0.500000 0.000000 0.217550
O O9 0.298877 0.744495 0.642924
O O10 0.127267 0.857837 0.616477
O O11 0.117407 0.725201 0.519996
O O12 0.915577 0.053466 0.937348
O O13 0.554605 0.672294 0.226820
O O14 0.881899 0.920583 0.226591
O O15 0.000000 0.000000 0.342202
#
# Coordination Sequence:
#
# PCOD9331763 Si02
#       8
#     8   8   8   2   8   8   4   8
#     4   9  19  38  69  95 125 176 229 278 337 403
#     4  12  26  42  65 100 140 177 222 281 357 423
#     4  11  22  43  72  97 137 183 230 286 340 413
#     4  12  24  36  62 100 140 174 222 294 344 416
#     4  10  23  45  71  98 136 183 229 287 351 415
#     4  11  23  42  68 103 140 183 231 281 351 421
#     4  12  25  42  65 102 138 176 221 286 353 412
#     4  11  22  39  61  99 135 173 227 282 344 416
#
# _framework density 20.848481
#
# number of rings (size 3 to 8) (size 9 to 14) (size 15 to 20)
#    0.000    1.185    5.926    0.222    2.074    1.185 
#    0.000    0.370    3.259    3.111    0.000    0.000 
#    0.000    0.000    0.000    0.000    0.000    0.000 
#
# Total GULP energy -150317.538128 kJ/mol
# GULP energy per Si atom -5567.316227 kJ/mol
# Density = 2.080103 g / cm^3
# Si number density = 20.848481 Si / 1000 Ang^3
#
#
#
# Elastic Constant Matrix: (Units=GPa)
#
#
# Indices 1 2 3 4 5 6 
#
# 1 128.4008 47.1962 23.6930 0.0000 0.0000 0.0000
# 2 47.1962 64.0951 20.6401 0.0000 0.0000 0.0000
# 3 23.6930 20.6401 57.9822 0.0000 0.0000 0.0000
# 4 0.0000 0.0000 0.0000 13.2418 0.0000 0.0000
# 5 0.0000 0.0000 0.0000 0.0000 38.3967 0.0000
# 6 0.0000 0.0000 0.0000 0.0000 0.0000 18.1628
#
#
#
# Elastic Compliance Matrix: (Units=1/GPa)
#
#
# Indices 1 2 3 4 5 6 
#
# 1 0.010841 -0.007405 -0.001794 0.000000 0.000000 0.000000
# 2 -0.007405 0.022680 -0.005048 0.000000 0.000000 0.000000
# 3 -0.001794 -0.005048 0.019776 0.000000 0.000000 0.000000
# 4 0.000000 0.000000 0.000000 0.075519 0.000000 0.000000
# 5 0.000000 0.000000 0.000000 0.000000 0.026044 0.000000
# 6 0.000000 0.000000 0.000000 0.000000 0.000000 0.055058
#
#
# Mechanical properties :
#
#
# Convention : Reuss Voigt Hill
#
# Bulk Modulus (GPa) = 40.31543 48.17076 44.24310
# Shear Modulus (GPa) = 20.26928 24.55685 22.41307
#
# Velocity S-wave (km/s) = 3.12142 3.43574 3.28235
# Velocity P-wave (km/s) = 5.68950 6.23654 5.96929
#
# Compressibility (1/GPa) = 0.02480440
#
# Stress axis : x y z
#
# Youngs Moduli (GPa) = 92.24236 44.09187 50.56507
#
# Poissons Ratio (x) = 0.32650 0.09071
# Poissons Ratio (y) = 0.68306 0.25523
# Poissons Ratio (z) = 0.16547 0.22256
#
# Static dielectric constant tensor:
#      x y z
#    x 1.841440 0.000000 0.000000 
#    y 0.000000 1.837490 0.000000 
#    z 0.000000 0.000000 1.753880 
# 
# From -- ./inp_files/20923.got.cif
#   From: 2010.05.17/outbox.cif.g08.bks.cpg/sg23_11_cif.got.tgz:20923.got - 2010.06.04 12:02:01.
