data_PCOD9331062
_publ_section_title
;
Structure prediction by ZEFSAII (Michael W. Deem and Ramdas Pophale) SiO2 
 PCOD9331062
Probable space group: I 2 2 2
;
_chemical_formula_sum "Si O2"
_cell_formula_units_Z 64
_cell_length_a 11.743781
_cell_length_b 28.162814
_cell_length_c 8.807331
_cell_angle_alpha 90.000000
_cell_angle_beta 90.000000
_cell_angle_gamma 90.000000
_cell_volume 2912.918335
_symmetry_space_group_name_H-M "I 2 2 2"
_symmetry_group_IT_number 23
_symmetry_cell_setting 'orthorhombic'
loop_
_space_group_symop_operation_xyz
x,y,z
-x,-y,z
x,-y,-z
-x,y,-z
1/2+x,1/2+y,1/2+z
1/2-x,1/2-y,1/2+z
1/2+x,1/2-y,1/2-z
1/2-x,1/2+y,1/2-z
loop_
_atom_site_type_symbol
_atom_site_label
_atom_site_fract_x
_atom_site_fract_y
_atom_site_fract_z
Si Si1 0.127981 0.496839 0.815542
Si Si2 0.317447 0.189109 0.291940
Si Si3 0.775974 0.729822 0.472180
Si Si4 0.776188 0.089527 0.671817
Si Si5 0.122587 0.860572 0.075865
Si Si6 0.873876 0.047952 0.929038
Si Si7 0.948912 0.662207 0.333063
Si Si8 0.746260 0.094409 0.310912
O O1 0.174437 0.445107 0.774150
O O2 0.209179 0.540551 0.769478
O O3 0.000000 0.500000 0.757225
O O4 0.124286 0.500000 0.000000
O O5 0.275772 0.219496 0.433670
O O6 0.236552 0.143580 0.276097
O O7 0.446272 0.170405 0.281291
O O8 0.305794 0.223808 0.147933
O O9 0.683472 0.689308 0.437096
O O10 0.884309 0.711768 0.374095
O O11 0.877789 0.058966 0.749322
O O12 0.764438 0.092839 0.491304
O O13 0.138855 0.881888 0.243482
O O14 0.185596 0.904310 0.989765
O O15 0.000000 0.855541 0.000000
O O16 0.000000 0.049161 0.000000
O O17 0.824399 0.000000 0.000000
O O18 0.857176 0.627248 0.254329
O O19 0.000000 0.646413 0.500000
#
# Coordination Sequence:
#
# PCOD9331062 Si02
#       8
#     8   8   8   8   8   8   8   8
#     4   9  18  34  59  96 136 170 209 267 336 407
#     4  11  23  41  66  94 132 177 229 287 350 410
#     4  10  23  41  63  90 129 175 229 291 337 414
#     4  11  22  39  66 100 137 173 228 289 342 413
#     4  10  21  41  63  90 128 177 225 284 344 413
#     4  10  21  41  68  96 133 181 224 277 344 421
#     4   9  21  42  64  94 136 180 224 285 353 420
#     4  10  21  39  67  99 137 177 224 284 348 418
#
# _framework density 21.971094000000001
#
# number of rings (size 3 to 8) (size 9 to 14) (size 15 to 20)
#    0.000    2.000    1.250    1.500    3.500    2.500 
#    0.000    2.500    0.000    3.000    0.000    0.000 
#    0.000    0.000    0.000    0.000    0.000    0.000 
#
# Total GULP energy -178225.878344 kJ/mol
# GULP energy per Si atom -5569.558698 kJ/mol
# Density = 2.192109 g / cm^3
# Si number density = 21.971094 Si / 1000 Ang^3
#
#
#
# Elastic Constant Matrix: (Units=GPa)
#
#
# Indices 1 2 3 4 5 6 
#
# 1 79.4583 29.0784 45.3186 -0.0003 0.0001 0.0000
# 2 29.0784 112.7131 27.8286 -0.0003 0.0000 0.0000
# 3 45.3186 27.8286 80.3955 -0.0032 0.0007 0.0000
# 4 -0.0003 -0.0003 -0.0032 61.3367 0.0006 0.0000
# 5 0.0001 0.0000 0.0007 0.0006 32.3004 0.0000
# 6 0.0000 0.0000 0.0000 0.0000 0.0000 23.7767
#
#
#
# Elastic Compliance Matrix: (Units=1/GPa)
#
#
# Indices 1 2 3 4 5 6 
#
# 1 0.019167 -0.002490 -0.009942 0.000000 0.000000 0.000000
# 2 -0.002490 0.010025 -0.002066 0.000000 0.000000 0.000000
# 3 -0.009942 -0.002066 0.018758 0.000001 0.000000 0.000000
# 4 0.000000 0.000000 0.000001 0.016303 0.000000 0.000000
# 5 0.000000 0.000000 0.000000 0.000000 0.030959 0.000000
# 6 0.000000 0.000000 0.000000 0.000000 0.000000 0.042058
#
#
# Mechanical properties :
#
#
# Convention : Reuss Voigt Hill
#
# Bulk Modulus (GPa) = 52.76420 53.00203 52.88311
# Shear Modulus (GPa) = 28.97106 34.83886 31.90496
#
# Velocity S-wave (km/s) = 3.63519 3.98636 3.81482
# Velocity P-wave (km/s) = 6.45654 6.73528 6.59738
#
# Compressibility (1/GPa) = 0.01895225
#
# Stress axis : x y z
#
# Youngs Moduli (GPa) = 52.17267 99.75392 53.30974
#
# Poissons Ratio (x) = 0.24839 0.53003
# Poissons Ratio (y) = 0.12991 0.11016
# Poissons Ratio (z) = 0.51873 0.20613
#
# Static dielectric constant tensor:
#      x y z
#    x 1.862830 0.000000 0.000000 
#    y 0.000000 1.803610 0.000000 
#    z 0.000000 0.000000 1.971990 
# 
# From -- ./inp_files/8945.got.cif
#   From: 2010.05.17/outbox.cif.g08.bks.cpg/sg23_5_cif.got.tgz:8945.got - 2010.06.04 12:02:01.
