data_PCOD9331131
_publ_section_title
;
Structure prediction by ZEFSAII (Michael W. Deem and Ramdas Pophale) SiO2 
 PCOD9331131
Probable space group: I 2 2 2
;
_chemical_formula_sum "Si O2"
_cell_formula_units_Z 34
_cell_length_a 23.363312
_cell_length_b 7.027404
_cell_length_c 8.710493
_cell_angle_alpha 90.000000
_cell_angle_beta 90.000000
_cell_angle_gamma 90.000000
_cell_volume 1430.118637
_symmetry_space_group_name_H-M "I 2 2 2"
_symmetry_group_IT_number 23
_symmetry_cell_setting 'orthorhombic'
loop_
_space_group_symop_operation_xyz
x,y,z
-x,-y,z
x,-y,-z
-x,y,-z
1/2+x,1/2+y,1/2+z
1/2-x,1/2-y,1/2+z
1/2+x,1/2-y,1/2-z
1/2-x,1/2+y,1/2-z
loop_
_atom_site_type_symbol
_atom_site_label
_atom_site_fract_x
_atom_site_fract_y
_atom_site_fract_z
Si Si1 0.804847 0.500000 0.500000
Si Si2 0.415429 0.799629 0.041280
Si Si3 0.206028 0.162161 0.211910
Si Si4 0.270822 0.000000 0.500000
Si Si5 0.086918 0.033261 0.753244
Si Si6 0.500000 0.500000 0.500000
O O1 0.851035 0.363911 0.585820
O O2 0.762898 0.590190 0.621956
O O3 0.437931 0.660995 0.173185
O O4 0.410138 0.680851 0.885452
O O5 0.443090 0.000000 0.000000
O O6 0.231229 0.122467 0.383758
O O7 0.150821 0.024399 0.195447
O O8 0.195060 0.354120 0.110519
O O9 0.045025 0.102279 0.886754
#
# Coordination Sequence:
#
# PCOD9331131 Si02
#       6
#     4   8   8   4   8   2
#     4  10  21  40  70 110 142 184 239 264 358 436
#     4   9  22  44  74  99 133 183 235 276 342 447
#     4  12  23  41  68 103 149 195 227 297 344 434
#     4  12  26  40  70 112 148 192 250 274 368 436
#     4  11  23  48  68  96 144 179 233 297 350 407
#     4  12  30  46  70 104 128 180 234 304 378 404
#
# _framework density 23.774252000000001
#
# number of rings (size 3 to 8) (size 9 to 14) (size 15 to 20)
#    0.706    0.471    0.000    7.765    0.000    3.765 
#    0.000    3.529    0.000    0.000    0.000    0.000 
#    0.000    0.000    0.000    0.000    0.000    0.000 
#
# Total GULP energy -94709.796956 kJ/mol
# GULP energy per Si atom -5571.164527 kJ/mol
# Density = 2.372014 g / cm^3
# Si number density = 23.774252 Si / 1000 Ang^3
#
#
#
# Elastic Constant Matrix: (Units=GPa)
#
#
# Indices 1 2 3 4 5 6 
#
# 1 131.8815 23.6435 53.0766 0.0000 0.0000 0.0000
# 2 23.6435 111.6806 40.2267 0.0000 0.0000 0.0000
# 3 53.0766 40.2267 157.3268 0.0000 0.0000 0.0000
# 4 0.0000 0.0000 0.0000 25.5537 0.0000 0.0000
# 5 0.0000 0.0000 0.0000 0.0000 -64.9396 0.0000
# 6 0.0000 0.0000 0.0000 0.0000 0.0000 -15.9012
#
#
#
# Elastic Compliance Matrix: (Units=1/GPa)
#
#
# Indices 1 2 3 4 5 6 
#
# 1 0.008852 -0.000879 -0.002761 0.000000 0.000000 0.000000
# 2 -0.000879 0.009950 -0.002247 0.000000 0.000000 0.000000
# 3 -0.002761 -0.002247 0.007862 0.000000 0.000000 0.000000
# 4 0.000000 0.000000 0.000000 0.039133 0.000000 0.000000
# 5 0.000000 0.000000 0.000000 0.000000 -0.015399 0.000000
# 6 0.000000 0.000000 0.000000 0.000000 0.000000 -0.062889
#
#
# Mechanical properties :
#
#
# Convention : Reuss Voigt Hill
#
# Bulk Modulus (GPa) = 67.17006 70.53137 68.85072
# Shear Modulus (GPa) = 1176.97588 7.87207 592.42397
#
# Velocity S-wave (km/s) = 22.27416 1.82164 15.80279
# Velocity P-wave (km/s) = 26.26465 5.84431 19.02614
#
# Compressibility (1/GPa) = 0.01488759
#
# Stress axis : x y z
#
# Youngs Moduli (GPa) = 112.97478 100.50495 127.18731
#
# Poissons Ratio (x) = 0.08837 0.35121
# Poissons Ratio (y) = 0.09934 0.28584
# Poissons Ratio (z) = 0.31197 0.22587
#
# Static dielectric constant tensor:
#      x y z
#    x 1.916270 0.000000 0.000000 
#    y 0.000000 2.321700 0.000000 
#    z 0.000000 0.000000 1.925400 
# 
# From -- ./inp_files/12398.got.cif
#   From: 2010.05.17/outbox.cif.g08.bks.cpg/sg23_7_cif.got.tgz:12398.got - 2010.06.04 12:02:01.
