data_PCOD9331770
_publ_section_title
;
Structure prediction by ZEFSAII (Michael W. Deem and Ramdas Pophale) SiO2 
 PCOD9331770
Probable space group: I 2 2 2
;
_chemical_formula_sum "Si O2"
_cell_formula_units_Z 64
_cell_length_a 25.883320
_cell_length_b 11.544884
_cell_length_c 9.578636
_cell_angle_alpha 90.000000
_cell_angle_beta 90.000000
_cell_angle_gamma 90.000000
_cell_volume 2862.287310
_symmetry_space_group_name_H-M "I 2 2 2"
_symmetry_group_IT_number 23
_symmetry_cell_setting 'orthorhombic'
loop_
_space_group_symop_operation_xyz
x,y,z
-x,-y,z
x,-y,-z
-x,y,-z
1/2+x,1/2+y,1/2+z
1/2-x,1/2-y,1/2+z
1/2+x,1/2-y,1/2-z
1/2-x,1/2+y,1/2-z
loop_
_atom_site_type_symbol
_atom_site_label
_atom_site_fract_x
_atom_site_fract_y
_atom_site_fract_z
Si Si1 0.694482 0.976485 0.163926
Si Si2 0.561526 0.364084 0.019823
Si Si3 0.669923 0.739120 0.464813
Si Si4 0.554752 0.114794 0.921760
Si Si5 0.210457 0.240830 0.527412
Si Si6 0.600986 0.942027 0.352183
Si Si7 0.357779 0.693378 0.223331
Si Si8 0.305364 0.446129 0.244172
O O1 0.707020 0.838715 0.147710
O O2 0.645397 0.005257 0.259363
O O3 0.744932 0.036411 0.225002
O O4 0.689564 0.000000 0.000000
O O5 0.584032 0.324650 0.169363
O O6 0.578816 0.500000 0.000000
O O7 0.500000 0.369724 0.000000
O O8 0.577879 0.246451 0.932207
O O9 0.730284 0.774484 0.479800
O O10 0.632032 0.825911 0.387658
O O11 0.648167 0.734636 0.620618
O O12 0.671420 0.620380 0.377667
O O13 0.555724 0.082245 0.758559
O O14 0.500000 0.124696 0.000000
O O15 0.578292 0.000000 0.000000
O O16 0.175076 0.263806 0.392176
O O17 0.189772 0.127565 0.604233
O O18 0.587654 0.000000 0.500000
O O19 0.331105 0.568500 0.224868
#
# Coordination Sequence:
#
# PCOD9331770 Si02
#       8
#     8   8   8   8   8   8   8   8
#     4  12  23  40  63  91 141 193 237 285 344 424
#     4  10  23  45  78 113 135 174 248 312 360 435
#     4  12  25  42  60  99 152 185 237 293 357 431
#     4  10  24  51  81 104 140 186 239 306 381 456
#     4  12  23  41  62  92 138 193 245 281 338 431
#     4  12  27  42  69 109 144 185 242 309 368 432
#     4  12  25  40  68  99 136 192 236 287 371 437
#     4  12  23  43  60  94 138 194 241 290 349 426
#
# _framework density 22.359739000000001
#
# number of rings (size 3 to 8) (size 9 to 14) (size 15 to 20)
#    0.000    0.500    3.750    4.875    5.250    0.000 
#    0.000    1.250    0.000    0.000    0.000    0.000 
#    0.000    0.000    0.000    0.000    0.000    0.000 
#
# Total GULP energy -178668.539924 kJ/mol
# GULP energy per Si atom -5583.391873 kJ/mol
# Density = 2.230885 g / cm^3
# Si number density = 22.359739 Si / 1000 Ang^3
#
#
#
# Elastic Constant Matrix: (Units=GPa)
#
#
# Indices 1 2 3 4 5 6 
#
# 1 98.5339 -1.6378 46.1113 0.0000 0.0000 0.0000
# 2 -1.6378 112.6895 29.6153 0.0000 0.0000 0.0000
# 3 46.1113 29.6153 165.8989 0.0000 0.0000 0.0000
# 4 0.0000 0.0000 0.0000 41.6676 0.0000 0.0000
# 5 0.0000 0.0000 0.0000 0.0000 34.9863 0.0000
# 6 0.0000 0.0000 0.0000 0.0000 0.0000 -49.3801
#
#
#
# Elastic Compliance Matrix: (Units=1/GPa)
#
#
# Indices 1 2 3 4 5 6 
#
# 1 0.011791 0.001083 -0.003471 0.000000 0.000000 0.000000
# 2 0.001083 0.009410 -0.001981 0.000000 0.000000 0.000000
# 3 -0.003471 -0.001981 0.007346 0.000000 0.000000 0.000000
# 4 0.000000 0.000000 0.000000 0.023999 0.000000 0.000000
# 5 0.000000 0.000000 0.000000 0.000000 0.028583 0.000000
# 6 0.000000 0.000000 0.000000 0.000000 0.000000 -0.020251
#
#
# Mechanical properties :
#
#
# Convention : Reuss Voigt Hill
#
# Bulk Modulus (GPa) = 50.47726 58.36665 54.42195
# Shear Modulus (GPa) = 65.60084 25.65699 45.62891
#
# Velocity S-wave (km/s) = 5.42241 3.39110 4.52228
# Velocity P-wave (km/s) = 7.86304 6.44149 7.18750
#
# Compressibility (1/GPa) = 0.01981090
#
# Stress axis : x y z
#
# Youngs Moduli (GPa) = 84.81048 106.26648 136.12703
#
# Poissons Ratio (x) = -0.11514 0.47246
# Poissons Ratio (y) = -0.09189 0.26967
# Poissons Ratio (z) = 0.29435 0.21052
#
# Static dielectric constant tensor:
#      x y z
#    x 1.841170 0.000000 0.000000 
#    y 0.000000 2.059260 0.000000 
#    z 0.000000 0.000000 1.810220 
# 
# From -- ./inp_files/13490.got.cif
#   From: 2010.05.17/outbox.cif.g08.bks.cpg/sg23_7_cif.got.tgz:13490.got - 2010.06.04 12:02:01.
