data_PCOD9331411
_publ_section_title
;
Structure prediction by ZEFSAII (Michael W. Deem and Ramdas Pophale) SiO2 
 PCOD9331411
Probable space group: I 2 2 2
;
_chemical_formula_sum "Si O2"
_cell_formula_units_Z 64
_cell_length_a 8.937079
_cell_length_b 16.459355
_cell_length_c 21.635643
_cell_angle_alpha 90.000000
_cell_angle_beta 90.000000
_cell_angle_gamma 90.000000
_cell_volume 3182.571842
_symmetry_space_group_name_H-M "I 2 2 2"
_symmetry_group_IT_number 23
_symmetry_cell_setting 'orthorhombic'
loop_
_space_group_symop_operation_xyz
x,y,z
-x,-y,z
x,-y,-z
-x,y,-z
1/2+x,1/2+y,1/2+z
1/2-x,1/2-y,1/2+z
1/2+x,1/2-y,1/2-z
1/2-x,1/2+y,1/2-z
loop_
_atom_site_type_symbol
_atom_site_label
_atom_site_fract_x
_atom_site_fract_y
_atom_site_fract_z
Si Si1 0.890166 0.351740 0.558335
Si Si2 0.334100 0.321225 0.894323
Si Si3 0.226759 0.797601 0.750002
Si Si4 0.162142 0.967661 0.107943
Si Si5 0.404674 0.577161 0.861882
Si Si6 0.095343 0.859985 0.229110
Si Si7 0.676020 0.986373 0.431062
Si Si8 0.907636 0.578780 0.668562
O O1 0.823938 0.261753 0.567918
O O2 0.755858 0.416964 0.557707
O O3 0.000000 0.356890 0.500000
O O4 0.985944 0.375008 0.619782
O O5 0.291820 0.310070 0.822902
O O6 0.509569 0.347315 0.892107
O O7 0.230674 0.395772 0.915138
O O8 0.286140 0.706219 0.753374
O O9 0.344763 0.859814 0.780363
O O10 0.064529 0.815556 0.779427
O O11 0.139425 0.907937 0.167541
O O12 0.266766 0.040880 0.131861
O O13 0.000000 0.000000 0.088988
O O14 0.500000 0.500000 0.883481
O O15 0.417708 0.581629 0.788173
O O16 0.242634 0.554423 0.885378
O O17 0.500000 0.000000 0.430875
O O18 0.735220 0.000000 0.500000
O O19 0.000000 0.500000 0.692805
#
# Coordination Sequence:
#
# PCOD9331411 Si02
#       8
#     8   8   8   8   8   8   8   8
#     4  11  25  47  69  98 131 181 235 288 341 415
#     4  10  22  40  65  94 127 175 219 266 326 398
#     4  11  22  39  62  96 139 168 216 270 339 408
#     4  11  22  43  68  97 133 176 224 289 350 401
#     4   9  20  36  60  91 124 172 216 249 317 388
#     4  11  22  37  61  95 137 168 211 274 336 410
#     4  10  23  41  60  92 131 171 215 264 318 388
#     4  10  23  39  66  98 136 179 224 276 342 408
#
# _framework density 20.109521000000001
#
# number of rings (size 3 to 8) (size 9 to 14) (size 15 to 20)
#    0.000    1.625    2.500    1.875    7.000    5.500 
#    0.000    1.250    0.000    0.000    0.000    0.000 
#    0.000    0.000    0.000    0.000    0.000    0.000 
#
# Total GULP energy -178646.610165 kJ/mol
# GULP energy per Si atom -5582.706568 kJ/mol
# Density = 2.006375 g / cm^3
# Si number density = 20.109521 Si / 1000 Ang^3
#
#
#
# Elastic Constant Matrix: (Units=GPa)
#
#
# Indices 1 2 3 4 5 6 
#
# 1 101.3984 38.1262 25.8163 0.0000 0.0000 0.0000
# 2 38.1262 97.1428 24.6763 0.0000 0.0000 0.0000
# 3 25.8163 24.6763 34.0492 0.0000 0.0000 0.0000
# 4 0.0000 0.0000 0.0000 3.6895 0.0000 0.0000
# 5 0.0000 0.0000 0.0000 0.0000 34.7489 0.0000
# 6 0.0000 0.0000 0.0000 0.0000 0.0000 17.3340
#
#
#
# Elastic Compliance Matrix: (Units=1/GPa)
#
#
# Indices 1 2 3 4 5 6 
#
# 1 0.012976 -0.003179 -0.007535 0.000000 0.000000 0.000000
# 2 -0.003179 0.013396 -0.007298 0.000000 0.000000 0.000000
# 3 -0.007535 -0.007298 0.040371 0.000000 0.000000 0.000000
# 4 0.000000 0.000000 0.000000 0.271041 0.000000 0.000000
# 5 0.000000 0.000000 0.000000 0.000000 0.028778 0.000000
# 6 0.000000 0.000000 0.000000 0.000000 0.000000 0.057690
#
#
# Mechanical properties :
#
#
# Convention : Reuss Voigt Hill
#
# Bulk Modulus (GPa) = 32.55229 45.53643 39.04436
# Shear Modulus (GPa) = 10.62669 20.75259 15.68964
#
# Velocity S-wave (km/s) = 2.30128 3.21593 2.79625
# Velocity P-wave (km/s) = 4.82533 6.04011 5.46657
#
# Compressibility (1/GPa) = 0.03071980
#
# Stress axis : x y z
#
# Youngs Moduli (GPa) = 77.06777 74.65183 24.77025
#
# Poissons Ratio (x) = 0.23729 0.18663
# Poissons Ratio (y) = 0.24497 0.18077
# Poissons Ratio (z) = 0.58067 0.54481
#
# Static dielectric constant tensor:
#      x y z
#    x 1.773230 0.000000 0.000000 
#    y 0.000000 1.729490 0.000000 
#    z 0.000000 0.000000 1.711780 
# 
# From -- ./inp_files/26362.got.cif
#   From: 2010.05.17/outbox.cif.g08.bks.cpg/sg23_14_cif.got.tgz:26362.got - 2010.06.04 12:02:01.
