data_PCOD9331280
_publ_section_title
;
Structure prediction by ZEFSAII (Michael W. Deem and Ramdas Pophale) SiO2 
 PCOD9331280
Probable space group: I 2 2 2
;
_chemical_formula_sum "Si O2"
_cell_formula_units_Z 48
_cell_length_a 11.078123
_cell_length_b 11.078101
_cell_length_c 22.769848
_cell_angle_alpha 90.000000
_cell_angle_beta 90.000000
_cell_angle_gamma 90.000000
_cell_volume 2794.419702
_symmetry_space_group_name_H-M "I 2 2 2"
_symmetry_group_IT_number 23
_symmetry_cell_setting 'orthorhombic'
loop_
_space_group_symop_operation_xyz
x,y,z
-x,-y,z
x,-y,-z
-x,y,-z
1/2+x,1/2+y,1/2+z
1/2-x,1/2-y,1/2+z
1/2+x,1/2-y,1/2-z
1/2-x,1/2+y,1/2-z
loop_
_atom_site_type_symbol
_atom_site_label
_atom_site_fract_x
_atom_site_fract_y
_atom_site_fract_z
Si Si1 0.073801 0.379038 0.167571
Si Si2 0.008323 0.799967 0.930343
Si Si3 0.452136 0.303507 0.776753
Si Si4 0.196493 0.047864 0.723247
Si Si5 0.379038 0.926199 0.167571
Si Si6 0.700033 0.508323 0.430343
O O1 0.026611 0.318164 0.108226
O O2 0.058064 0.277851 0.218158
O O3 0.213280 0.419211 0.170357
O O4 0.000000 0.500000 0.180919
O O5 0.888982 0.878825 0.916683
O O6 0.121174 0.888983 0.916683
O O7 0.000000 0.776632 0.000000
O O8 0.585470 0.359401 0.777531
O O9 0.359403 0.414530 0.777530
O O10 0.419211 0.213281 0.829643
O O11 0.277851 0.058064 0.781842
O O12 0.318164 0.973389 0.108227
O O13 0.500000 0.000000 0.180919
O O14 0.723368 0.500000 0.500000
#
# Coordination Sequence:
#
# PCOD9331280 Si02
#       6
#     8   8   8   8   8   8
#     4  11  23  32  57  83 114 144 185 234 281 334
#     4   9  19  37  60  83 109 145 188 234 281 327
#     4  10  22  37  54  78 113 152 184 223 281 343
#     4  10  22  37  54  78 113 152 184 223 281 343
#     4  11  23  32  57  83 114 144 185 234 281 334
#     4   9  19  37  60  83 109 145 188 234 281 327
#
# _framework density 17.17709
#
# number of rings (size 3 to 8) (size 9 to 14) (size 15 to 20)
#    0.000    2.000    0.000    5.000   14.000    3.333 
#    0.000    0.000    0.000    0.000    0.000    0.000 
#    0.000    0.000    0.000    0.000    0.000    0.000 
#
# Total GULP energy -133865.486941 kJ/mol
# GULP energy per Si atom -5577.728623 kJ/mol
# Density = 1.713799 g / cm^3
# Si number density = 17.177090 Si / 1000 Ang^3
#
#
#
# Elastic Constant Matrix: (Units=GPa)
#
#
# Indices 1 2 3 4 5 6 
#
# 1 115.1443 67.0741 39.4267 0.0000 0.0000 0.0000
# 2 67.0741 115.1400 39.4262 0.0000 0.0000 0.0000
# 3 39.4267 39.4262 55.8057 0.0000 0.0000 0.0000
# 4 0.0000 0.0000 0.0000 26.5713 0.0000 0.0000
# 5 0.0000 0.0000 0.0000 0.0000 26.5715 0.0000
# 6 0.0000 0.0000 0.0000 0.0000 0.0000 17.3911
#
#
#
# Elastic Compliance Matrix: (Units=1/GPa)
#
#
# Indices 1 2 3 4 5 6 
#
# 1 0.014354 -0.006450 -0.005585 0.000000 0.000000 0.000000
# 2 -0.006450 0.014355 -0.005585 0.000000 0.000000 0.000000
# 3 -0.005585 -0.005585 0.025810 0.000000 0.000000 0.000000
# 4 0.000000 0.000000 0.000000 0.037635 0.000000 0.000000
# 5 0.000000 0.000000 0.000000 0.000000 0.037634 0.000000
# 6 0.000000 0.000000 0.000000 0.000000 0.000000 0.057501
#
#
# Mechanical properties :
#
#
# Convention : Reuss Voigt Hill
#
# Bulk Modulus (GPa) = 51.86392 64.21602 58.03997
# Shear Modulus (GPa) = 21.83853 23.45098 22.64475
#
# Velocity S-wave (km/s) = 3.56950 3.69893 3.63479
# Velocity P-wave (km/s) = 6.87369 7.46382 7.17483
#
# Compressibility (1/GPa) = 0.01928123
#
# Stress axis : x y z
#
# Youngs Moduli (GPa) = 69.66714 69.66422 38.74412
#
# Poissons Ratio (x) = 0.44930 0.21637
# Poissons Ratio (y) = 0.44932 0.21638
# Poissons Ratio (z) = 0.38906 0.38906
#
# Static dielectric constant tensor:
#      x y z
#    x 1.587650 0.000000 0.000000 
#    y 0.000000 1.587650 0.000000 
#    z 0.000000 0.000000 1.598550 
# 
# From -- ./inp_files/12600.got.cif
#   From: 2010.05.17/outbox.cif.g08.bks.cpg/sg23_7_cif.got.tgz:12600.got - 2010.06.04 12:02:01.
