data_PCOD9331591
_publ_section_title
;
Structure prediction by ZEFSAII (Michael W. Deem and Ramdas Pophale) SiO2 
 PCOD9331591
Probable space group: I 2 2 2
;
_chemical_formula_sum "Si O2"
_cell_formula_units_Z 36
_cell_length_a 10.688595
_cell_length_b 5.253289
_cell_length_c 26.077001
_cell_angle_alpha 90.000000
_cell_angle_beta 90.000000
_cell_angle_gamma 90.000000
_cell_volume 1464.230870
_symmetry_space_group_name_H-M "I 2 2 2"
_symmetry_group_IT_number 23
_symmetry_cell_setting 'orthorhombic'
loop_
_space_group_symop_operation_xyz
x,y,z
-x,-y,z
x,-y,-z
-x,y,-z
1/2+x,1/2+y,1/2+z
1/2-x,1/2-y,1/2+z
1/2+x,1/2-y,1/2-z
1/2-x,1/2+y,1/2-z
loop_
_atom_site_type_symbol
_atom_site_label
_atom_site_fract_x
_atom_site_fract_y
_atom_site_fract_z
Si Si1 0.635578 0.397949 0.558108
Si Si2 0.860755 0.985513 0.797693
Si Si3 0.204979 0.019355 0.681496
Si Si4 0.766997 0.000000 0.500000
Si Si5 0.878757 0.681554 0.586086
O O1 0.500000 0.500000 0.575059
O O2 0.643828 0.500000 0.500000
O O3 0.674200 0.106393 0.545142
O O4 0.751693 0.514118 0.588559
O O5 0.866235 0.967720 0.735699
O O6 0.778753 0.747802 0.817694
O O7 0.802811 0.254451 0.811412
O O8 0.000000 0.000000 0.817427
O O9 0.128738 0.106519 0.631164
O O10 0.859521 0.187684 0.469351
O O11 0.000000 0.500000 0.590073
#
# Coordination Sequence:
#
# PCOD9331591 Si02
#       5
#     8   8   8   4   8
#     4   9  21  42  68  99 136 189 255 316 380 443
#     4  10  22  46  74 105 144 193 246 323 399 473
#     4  10  24  43  71 110 146 190 258 319 391 468
#     4  10  24  48  72 102 154 210 258 328 384 464
#     4  11  26  44  70 105 150 203 258 318 386 464
#
# _framework density 24.586286999999999
#
# number of rings (size 3 to 8) (size 9 to 14) (size 15 to 20)
#    0.000    2.000    0.000    0.667    3.111   19.111 
#    4.000    0.000    0.000    0.000    0.000    0.000 
#    0.000    0.000    0.000    0.000    0.000    0.000 
#
# Total GULP energy -100485.653003 kJ/mol
# GULP energy per Si atom -5582.536278 kJ/mol
# Density = 2.453033 g / cm^3
# Si number density = 24.586287 Si / 1000 Ang^3
#
#
#
# Elastic Constant Matrix: (Units=GPa)
#
#
# Indices 1 2 3 4 5 6 
#
# 1 163.4722 22.0498 48.7307 0.0000 0.0000 0.0000
# 2 22.0498 76.5600 29.5733 0.0000 0.0000 0.0000
# 3 48.7307 29.5733 149.5045 0.0000 0.0000 0.0000
# 4 0.0000 0.0000 0.0000 59.3905 0.0000 0.0000
# 5 0.0000 0.0000 0.0000 0.0000 -46.7547 0.0000
# 6 0.0000 0.0000 0.0000 0.0000 0.0000 101.6695
#
#
#
# Elastic Compliance Matrix: (Units=1/GPa)
#
#
# Indices 1 2 3 4 5 6 
#
# 1 0.006877 -0.001207 -0.002003 0.000000 0.000000 0.000000
# 2 -0.001207 0.014354 -0.002446 0.000000 0.000000 0.000000
# 3 -0.002003 -0.002446 0.007825 0.000000 0.000000 0.000000
# 4 0.000000 0.000000 0.000000 0.016838 0.000000 0.000000
# 5 0.000000 0.000000 0.000000 0.000000 -0.021388 0.000000
# 6 0.000000 0.000000 0.000000 0.000000 0.000000 0.009836
#
#
# Mechanical properties :
#
#
# Convention : Reuss Voigt Hill
#
# Bulk Modulus (GPa) = 56.35376 65.58270 60.96823
# Shear Modulus (GPa) = 96.95863 42.13993 69.54928
#
# Velocity S-wave (km/s) = 6.28663 4.14449 5.32440
# Velocity P-wave (km/s) = 8.69863 7.04520 7.91521
#
# Compressibility (1/GPa) = 0.01774504
#
# Stress axis : x y z
#
# Youngs Moduli (GPa) = 145.41035 69.66661 127.78891
#
# Poissons Ratio (x) = 0.08409 0.25594
# Poissons Ratio (y) = 0.17551 0.31256
# Poissons Ratio (z) = 0.29123 0.17040
#
# Static dielectric constant tensor:
#      x y z
#    x 1.830450 0.000000 0.000000 
#    y 0.000000 2.359610 0.000000 
#    z 0.000000 0.000000 2.032730 
# 
# From -- ./inp_files/29355.got.cif
#   From: 2010.05.17/outbox.cif.g08.bks.cpg/sg23_15_cif.got.tgz:29355.got - 2010.06.04 12:02:01.
