data_PCOD9331698
_publ_section_title
;
Structure prediction by ZEFSAII (Michael W. Deem and Ramdas Pophale) SiO2 
 PCOD9331698
Probable space group: I 2 2 2
;
_chemical_formula_sum "Si O2"
_cell_formula_units_Z 40
_cell_length_a 15.101287
_cell_length_b 13.525890
_cell_length_c 9.051436
_cell_angle_alpha 90.000000
_cell_angle_beta 90.000000
_cell_angle_gamma 90.000000
_cell_volume 1848.831354
_symmetry_space_group_name_H-M "I 2 2 2"
_symmetry_group_IT_number 23
_symmetry_cell_setting 'orthorhombic'
loop_
_space_group_symop_operation_xyz
x,y,z
-x,-y,z
x,-y,-z
-x,y,-z
1/2+x,1/2+y,1/2+z
1/2-x,1/2-y,1/2+z
1/2+x,1/2-y,1/2-z
1/2-x,1/2+y,1/2-z
loop_
_atom_site_type_symbol
_atom_site_label
_atom_site_fract_x
_atom_site_fract_y
_atom_site_fract_z
Si Si1 0.083932 0.853261 0.898161
Si Si2 0.790104 0.640230 0.264309
Si Si3 0.520458 0.783553 0.827544
Si Si4 0.218338 0.500000 0.000000
Si Si5 0.783524 0.000000 0.000000
Si Si6 0.844888 0.302361 0.138252
O O1 0.051810 0.822057 0.737007
O O2 0.152490 0.941133 0.890454
O O3 0.128923 0.762612 0.992305
O O4 0.000000 0.879886 0.000000
O O5 0.896728 0.650700 0.270510
O O6 0.748534 0.577659 0.127660
O O7 0.771091 0.578690 0.411243
O O8 0.737495 0.744192 0.286315
O O9 0.429692 0.802681 0.742817
O O10 0.500000 0.788524 0.000000
O O11 0.171481 0.584021 0.098519
#
# Coordination Sequence:
#
# PCOD9331698 Si02
#       6
#     8   8   8   4   4   8
#     4   9  19  43  67  95 134 190 234 290 347 431
#     4  11  27  43  71 105 141 184 238 300 347 433
#     4  11  25  42  70 102 144 181 232 304 354 411
#     4  12  26  45  78  97 142 198 240 283 376 427
#     4  10  23  42  69 100 140 184 240 290 370 414
#     4  10  25  46  68 100 140 190 238 283 359 434
#
# _framework density 21.635289
#
# number of rings (size 3 to 8) (size 9 to 14) (size 15 to 20)
#    0.000    1.600    2.000    0.300    8.400    1.600 
#    0.000    0.000    0.000   12.000    0.000    0.000 
#    0.000    0.000    0.000    0.000    0.000    0.000 
#
# Total GULP energy -111438.075005 kJ/mol
# GULP energy per Si atom -5571.903750 kJ/mol
# Density = 2.158605 g / cm^3
# Si number density = 21.635289 Si / 1000 Ang^3
#
#
#
# Elastic Constant Matrix: (Units=GPa)
#
#
# Indices 1 2 3 4 5 6 
#
# 1 75.9932 38.0598 23.0420 0.0000 0.0000 0.0000
# 2 38.0598 111.1982 26.0401 0.0000 0.0000 0.0000
# 3 23.0420 26.0401 91.4897 0.0000 0.0000 0.0000
# 4 0.0000 0.0000 0.0000 23.6604 0.0000 0.0000
# 5 0.0000 0.0000 0.0000 0.0000 15.0973 0.0000
# 6 0.0000 0.0000 0.0000 0.0000 0.0000 11.9409
#
#
#
# Elastic Compliance Matrix: (Units=1/GPa)
#
#
# Indices 1 2 3 4 5 6 
#
# 1 0.016494 -0.005006 -0.002729 0.000000 0.000000 0.000000
# 2 -0.005006 0.011155 -0.001914 0.000000 0.000000 0.000000
# 3 -0.002729 -0.001914 0.012162 0.000000 0.000000 0.000000
# 4 0.000000 0.000000 0.000000 0.042265 0.000000 0.000000
# 5 0.000000 0.000000 0.000000 0.000000 0.066237 0.000000
# 6 0.000000 0.000000 0.000000 0.000000 0.000000 0.083746
#
#
# Mechanical properties :
#
#
# Convention : Reuss Voigt Hill
#
# Bulk Modulus (GPa) = 48.75198 50.32944 49.54071
# Shear Modulus (GPa) = 19.36523 22.90900 21.13711
#
# Velocity S-wave (km/s) = 2.99503 3.25756 3.12905
# Velocity P-wave (km/s) = 5.87731 6.12063 6.00020
#
# Compressibility (1/GPa) = 0.02051199
#
# Stress axis : x y z
#
# Youngs Moduli (GPa) = 60.62863 89.64867 82.22117
#
# Poissons Ratio (x) = 0.44880 0.22439
# Poissons Ratio (y) = 0.30352 0.15737
# Poissons Ratio (z) = 0.16546 0.17159
#
# Static dielectric constant tensor:
#      x y z
#    x 1.777760 0.000000 0.000000 
#    y 0.000000 1.815660 0.000000 
#    z 0.000000 0.000000 2.662890 
# 
# From -- ./inp_files/9647.got.cif
#   From: 2010.05.17/outbox.cif.g08.bks.cpg/sg23_5_cif.got.tgz:9647.got - 2010.06.04 12:02:01.
