data_PCOD9331825
_publ_section_title
;
Structure prediction by ZEFSAII (Michael W. Deem and Ramdas Pophale) SiO2 
 PCOD9331825
Probable space group: I 2 2 2
;
_chemical_formula_sum "Si O2"
_cell_formula_units_Z 40
_cell_length_a 9.389767
_cell_length_b 18.549045
_cell_length_c 9.993049
_cell_angle_alpha 90.000000
_cell_angle_beta 90.000000
_cell_angle_gamma 90.000000
_cell_volume 1740.501442
_symmetry_space_group_name_H-M "I 2 2 2"
_symmetry_group_IT_number 23
_symmetry_cell_setting 'orthorhombic'
loop_
_space_group_symop_operation_xyz
x,y,z
-x,-y,z
x,-y,-z
-x,y,-z
1/2+x,1/2+y,1/2+z
1/2-x,1/2-y,1/2+z
1/2+x,1/2-y,1/2-z
1/2-x,1/2+y,1/2-z
loop_
_atom_site_type_symbol
_atom_site_label
_atom_site_fract_x
_atom_site_fract_y
_atom_site_fract_z
Si Si1 0.890499 0.896590 0.682412
Si Si2 0.656433 0.892317 0.446068
Si Si3 0.161689 0.824618 0.946168
Si Si4 0.281178 0.257411 0.300656
Si Si5 0.181867 0.041831 0.234393
O O1 0.777965 0.898646 0.560937
O O2 0.886708 0.814813 0.731444
O O3 0.053211 0.924074 0.671970
O O4 0.841866 0.957678 0.789489
O O5 0.500000 0.900487 0.500000
O O6 0.664322 0.815235 0.370534
O O7 0.684631 0.949869 0.330277
O O8 0.184588 0.770054 0.821722
O O9 0.186838 0.904604 0.889650
O O10 0.266692 0.802570 0.067947
O O11 0.000000 0.819359 0.000000
#
# Coordination Sequence:
#
# PCOD9331825 Si02
#       5
#     8   8   8   8   8
#     4  11  22  40  66 102 136 182 234 287 347 407
#     4  11  24  41  67  99 139 187 236 284 345 415
#     4  11  22  44  67 100 142 180 230 284 351 412
#     4  11  23  39  70 100 138 174 230 288 339 411
#     4  10  24  41  66  99 139 181 230 293 347 411
#
# _framework density 22.981884000000001
#
# number of rings (size 3 to 8) (size 9 to 14) (size 15 to 20)
#    0.000    1.200    4.000    1.800    0.000    4.000 
#    0.000    1.000    0.000    0.000    0.000    2.800 
#    0.000    0.000    0.000    0.000    0.000    0.000 
#
# Total GULP energy -111495.013039 kJ/mol
# GULP energy per Si atom -5574.750652 kJ/mol
# Density = 2.292958 g / cm^3
# Si number density = 22.981884 Si / 1000 Ang^3
#
#
#
# Elastic Constant Matrix: (Units=GPa)
#
#
# Indices 1 2 3 4 5 6 
#
# 1 37.4169 -7.7101 35.5532 0.0000 0.0000 0.0000
# 2 -7.7101 100.8932 3.4333 0.0000 0.0000 0.0000
# 3 35.5532 3.4333 119.5554 0.0000 0.0000 0.0000
# 4 0.0000 0.0000 0.0000 13.6088 0.0000 0.0000
# 5 0.0000 0.0000 0.0000 0.0000 41.7672 0.0000
# 6 0.0000 0.0000 0.0000 0.0000 0.0000 26.4597
#
#
#
# Elastic Compliance Matrix: (Units=1/GPa)
#
#
# Indices 1 2 3 4 5 6 
#
# 1 0.038332 0.003320 -0.011494 0.000000 0.000000 0.000000
# 2 0.003320 0.010209 -0.001281 0.000000 0.000000 0.000000
# 3 -0.011494 -0.001281 0.011819 0.000000 0.000000 0.000000
# 4 0.000000 0.000000 0.000000 0.073482 0.000000 0.000000
# 5 0.000000 0.000000 0.000000 0.000000 0.023942 0.000000
# 6 0.000000 0.000000 0.000000 0.000000 0.000000 0.037793
#
#
# Mechanical properties :
#
#
# Convention : Reuss Voigt Hill
#
# Bulk Modulus (GPa) = 24.12501 35.60205 29.86353
# Shear Modulus (GPa) = 21.90065 31.47308 26.68687
#
# Velocity S-wave (km/s) = 3.09034 3.70465 3.41135
# Velocity P-wave (km/s) = 4.82222 5.81586 5.34219
#
# Compressibility (1/GPa) = 0.04145076
#
# Stress axis : x y z
#
# Youngs Moduli (GPa) = 26.08789 97.95490 84.60738
#
# Poissons Ratio (x) = -0.32525 0.97252
# Poissons Ratio (y) = -0.08662 0.10835
# Poissons Ratio (z) = 0.29987 0.12544
#
# Static dielectric constant tensor:
#      x y z
#    x 1.901690 0.000000 0.000000 
#    y 0.000000 1.886100 0.000000 
#    z 0.000000 0.000000 1.924120 
# 
# From -- ./inp_files/14606.got.cif
#   From: 2010.05.17/outbox.cif.g08.bks.cpg/sg23_8_cif.got.tgz:14606.got - 2010.06.04 12:02:01.
