data_PCOD9331511
_publ_section_title
;
Structure prediction by ZEFSAII (Michael W. Deem and Ramdas Pophale) SiO2 
 PCOD9331511
Probable space group: I 2 2 2
;
_chemical_formula_sum "Si O2"
_cell_formula_units_Z 18
_cell_length_a 16.901135
_cell_length_b 5.064608
_cell_length_c 8.925727
_cell_angle_alpha 90.000000
_cell_angle_beta 90.000000
_cell_angle_gamma 90.000000
_cell_volume 764.021019
_symmetry_space_group_name_H-M "I 2 2 2"
_symmetry_group_IT_number 23
_symmetry_cell_setting 'orthorhombic'
loop_
_space_group_symop_operation_xyz
x,y,z
-x,-y,z
x,-y,-z
-x,y,-z
1/2+x,1/2+y,1/2+z
1/2-x,1/2-y,1/2+z
1/2+x,1/2-y,1/2-z
1/2-x,1/2+y,1/2-z
loop_
_atom_site_type_symbol
_atom_site_label
_atom_site_fract_x
_atom_site_fract_y
_atom_site_fract_z
Si Si1 0.000000 0.000000 0.500000
Si Si2 0.726308 0.900186 0.338673
Si Si3 0.448572 0.742809 0.710565
O O1 0.946840 0.176719 0.389177
O O2 0.775754 0.659385 0.267404
O O3 0.638198 0.781780 0.352544
O O4 0.754742 0.000000 0.500000
O O5 0.500000 0.500000 0.652914
O O6 0.500000 0.000000 0.686375
#
# Coordination Sequence:
#
# PCOD9331511 Si02
#       3
#     2   8   8
#     4   8  22  36  74 102 134 188 234 312 346 440
#     4  12  28  48  74 112 153 202 249 311 380 447
#     4  10  22  42  71 106 141 190 247 300 367 437
#
# _framework density 23.559559
#
# number of rings (size 3 to 8) (size 9 to 14) (size 15 to 20)
#    1.333    0.000    0.000    4.667    3.111    4.444 
#    0.000    2.222    0.000    0.000    0.000    0.000 
#    0.000    0.000    0.000    0.000    0.000    0.000 
#
# Total GULP energy -50338.624321 kJ/mol
# GULP energy per Si atom -5593.180480 kJ/mol
# Density = 2.350594 g / cm^3
# Si number density = 23.559559 Si / 1000 Ang^3
#
#
#
# Elastic Constant Matrix: (Units=GPa)
#
#
# Indices 1 2 3 4 5 6 
#
# 1 83.6682 40.7701 18.0610 0.0000 0.0000 0.0000
# 2 40.7701 203.7575 45.3726 0.0000 0.0000 0.0000
# 3 18.0610 45.3726 110.8691 0.0000 0.0000 0.0000
# 4 0.0000 0.0000 0.0000 63.1890 0.0000 0.0000
# 5 0.0000 0.0000 0.0000 0.0000 26.7428 0.0000
# 6 0.0000 0.0000 0.0000 0.0000 0.0000 42.6672
#
#
#
# Elastic Compliance Matrix: (Units=1/GPa)
#
#
# Indices 1 2 3 4 5 6 
#
# 1 0.013385 -0.002413 -0.001193 0.000000 0.000000 0.000000
# 2 -0.002413 0.005835 -0.001995 0.000000 0.000000 0.000000
# 3 -0.001193 -0.001995 0.010030 0.000000 0.000000 0.000000
# 4 0.000000 0.000000 0.000000 0.015826 0.000000 0.000000
# 5 0.000000 0.000000 0.000000 0.000000 0.037393 0.000000
# 6 0.000000 0.000000 0.000000 0.000000 0.000000 0.023437
#
#
# Mechanical properties :
#
#
# Convention : Reuss Voigt Hill
#
# Bulk Modulus (GPa) = 55.40420 67.41134 61.40777
# Shear Modulus (GPa) = 40.60958 46.12588 43.36773
#
# Velocity S-wave (km/s) = 4.15625 4.42955 4.29507
# Velocity P-wave (km/s) = 6.82644 7.40517 7.12168
#
# Compressibility (1/GPa) = 0.01804917
#
# Stress axis : x y z
#
# Youngs Moduli (GPa) = 74.70977 171.38747 99.69705
#
# Poissons Ratio (x) = 0.41348 0.11895
# Poissons Ratio (y) = 0.18024 0.19888
# Poissons Ratio (z) = 0.08914 0.34189
#
# Static dielectric constant tensor:
#      x y z
#    x 1.859710 0.000000 0.000000 
#    y 0.000000 1.833860 0.000000 
#    z 0.000000 0.000000 1.972250 
# 
# From -- ./inp_files/275.got.cif
#   From: 2010.05.17/outbox.cif.g08.bks.cpg/sg23_1_cif.got.tgz:275.got - 2010.06.04 12:02:01.
