data_PCOD9331546
_publ_section_title
;
Structure prediction by ZEFSAII (Michael W. Deem and Ramdas Pophale) SiO2 
 PCOD9331546
Probable space group: I 2 2 2
;
_chemical_formula_sum "Si O2"
_cell_formula_units_Z 38
_cell_length_a 11.501967
_cell_length_b 22.280281
_cell_length_c 6.023516
_cell_angle_alpha 90.000000
_cell_angle_beta 90.000000
_cell_angle_gamma 90.000000
_cell_volume 1543.628717
_symmetry_space_group_name_H-M "I 2 2 2"
_symmetry_group_IT_number 23
_symmetry_cell_setting 'orthorhombic'
loop_
_space_group_symop_operation_xyz
x,y,z
-x,-y,z
x,-y,-z
-x,y,-z
1/2+x,1/2+y,1/2+z
1/2-x,1/2-y,1/2+z
1/2+x,1/2-y,1/2-z
1/2-x,1/2+y,1/2-z
loop_
_atom_site_type_symbol
_atom_site_label
_atom_site_fract_x
_atom_site_fract_y
_atom_site_fract_z
Si Si1 0.381781 0.914780 0.640543
Si Si2 0.799663 0.902641 0.696040
Si Si3 0.000000 0.500000 0.500000
Si Si4 0.500000 0.624702 0.500000
Si Si5 0.361867 0.170152 0.004151
Si Si6 0.381832 0.297474 0.880562
O O1 0.500000 0.905733 0.500000
O O2 0.275512 0.937589 0.488401
O O3 0.339870 0.850078 0.741950
O O4 0.419605 0.960454 0.834796
O O5 0.841705 0.846414 0.553929
O O6 0.914782 0.915607 0.844314
O O7 0.701883 0.880449 0.863885
O O8 0.581074 0.669176 0.651517
O O9 0.500000 0.161330 0.000000
O O10 0.317986 0.233099 0.899227
O O11 0.500000 0.276593 0.000000
#
# Coordination Sequence:
#
# PCOD9331546 Si02
#       6
#     8   8   2   4   8   8
#     4  12  24  44  67  98 142 189 242 304 379 442
#     4  11  23  38  65  92 139 193 244 293 348 427
#     4  12  26  48  68 102 144 190 246 316 392 462
#     4  10  22  44  58  92 140 196 262 284 352 428
#     4  11  22  39  60  95 137 192 237 290 355 430
#     4   9  22  37  59  89 138 193 246 287 337 416
#
# _framework density 24.617318000000001
#
# number of rings (size 3 to 8) (size 9 to 14) (size 15 to 20)
#    0.000    1.263    3.158    1.579    5.895    3.368 
#    1.895    0.000    0.000    0.000    0.000    0.000 
#    0.000  642.526    0.000    0.000    0.632    0.000 
#
# Total GULP energy -105807.069025 kJ/mol
# GULP energy per Si atom -5568.793107 kJ/mol
# Density = 2.456129 g / cm^3
# Si number density = 24.617318 Si / 1000 Ang^3
#
#
#
# Elastic Constant Matrix: (Units=GPa)
#
#
# Indices 1 2 3 4 5 6 
#
# 1 111.0424 19.7583 55.6424 -0.0003 0.0001 0.0006
# 2 19.7583 69.5012 26.2579 0.0048 -0.0005 -0.0004
# 3 55.6424 26.2579 130.0735 0.0137 -0.0031 -0.0017
# 4 -0.0003 0.0048 0.0137 16.7463 -0.0003 -0.0025
# 5 0.0001 -0.0005 -0.0031 -0.0003 88.7403 -0.0016
# 6 0.0006 -0.0004 -0.0017 -0.0025 -0.0016 -2.5747
#
#
#
# Elastic Compliance Matrix: (Units=1/GPa)
#
#
# Indices 1 2 3 4 5 6 
#
# 1 0.011613 -0.001542 -0.004657 0.000004 0.000000 0.000006
# 2 -0.001542 0.015781 -0.002526 -0.000002 0.000000 -0.000001
# 3 -0.004657 -0.002526 0.010190 -0.000008 0.000000 -0.000007
# 4 0.000004 -0.000002 -0.000008 0.059715 0.000000 -0.000059
# 5 0.000000 0.000000 0.000000 0.000000 0.011269 -0.000007
# 6 0.000006 -0.000001 -0.000007 -0.000059 -0.000007 -0.388388
#
#
# Mechanical properties :
#
#
# Convention : Reuss Voigt Hill
#
# Bulk Modulus (GPa) = 49.66572 57.10381 53.38476
# Shear Modulus (GPa) = -19.55730 34.51292 7.47781
#
# Velocity S-wave (km/s) = -2.82166 3.74836 1.74477
# Velocity P-wave (km/s) = 3.09891 6.47924 5.07857
#
# Compressibility (1/GPa) = 0.02013461
#
# Stress axis : x y z
#
# Youngs Moduli (GPa) = 86.10766 63.36725 98.13678
#
# Poissons Ratio (x) = 0.09773 0.45698
# Poissons Ratio (y) = 0.13280 0.24789
# Poissons Ratio (z) = 0.40097 0.16006
#
# Static dielectric constant tensor:
#      x y z
#    x 2.220040 0.000000 -0.000020 
#    y 0.000000 2.005650 0.000000 
#    z -0.000020 0.000000 1.948020 
# 
# From -- ./inp_files/1763.got.cif
#   From: 2010.05.17/outbox.cif.g08.bks.cpg/sg23_1_cif.got.tgz:1763.got - 2010.06.04 12:02:01.
