data_PCOD9331882
_publ_section_title
;
Structure prediction by ZEFSAII (Michael W. Deem and Ramdas Pophale) SiO2 
 PCOD9331882
Probable space group: I 2 2 2
;
_chemical_formula_sum "Si O2"
_cell_formula_units_Z 38
_cell_length_a 17.176465
_cell_length_b 13.869951
_cell_length_c 7.587702
_cell_angle_alpha 90.000000
_cell_angle_beta 90.000000
_cell_angle_gamma 90.000000
_cell_volume 1807.669297
_symmetry_space_group_name_H-M "I 2 2 2"
_symmetry_group_IT_number 23
_symmetry_cell_setting 'orthorhombic'
loop_
_space_group_symop_operation_xyz
x,y,z
-x,-y,z
x,-y,-z
-x,y,-z
1/2+x,1/2+y,1/2+z
1/2-x,1/2-y,1/2+z
1/2+x,1/2-y,1/2-z
1/2-x,1/2+y,1/2-z
loop_
_atom_site_type_symbol
_atom_site_label
_atom_site_fract_x
_atom_site_fract_y
_atom_site_fract_z
Si Si1 0.750438 0.641114 0.855273
Si Si2 0.624337 0.999686 0.208140
Si Si3 0.642565 0.214733 0.359385
Si Si4 0.000000 0.828047 0.000000
Si Si5 0.862351 0.000000 0.500000
Si Si6 0.500000 0.000000 0.500000
Si Si7 0.000000 0.000000 0.241105
O O1 0.796078 0.560561 0.740363
O O2 0.695722 0.711468 0.747363
O O3 0.697047 0.589193 0.003527
O O4 0.816094 0.700386 0.954025
O O5 0.634775 0.110897 0.266687
O O6 0.561278 0.958035 0.352328
O O7 0.602816 0.000000 0.000000
O O8 0.559786 0.261795 0.397361
O O9 0.031951 0.906927 0.137671
O O10 0.923617 0.028673 0.650785
#
# Coordination Sequence:
#
# PCOD9331882 Si02
#       7
#     8   8   8   4   4   2   4
#     4  12  25  45  73 104 150 191 246 311 367 436
#     4  12  26  48  76 108 147 200 243 307 375 431
#     4  12  25  45  71 110 146 193 250 304 365 448
#     4  11  25  44  70 104 144 192 236 306 362 448
#     4  11  21  46  67  99 146 188 234 303 367 430
#     4  12  22  52  72 102 156 184 244 292 368 450
#     4  10  24  44  70  98 142 194 238 292 382 436
#
# _framework density 21.021545
#
# number of rings (size 3 to 8) (size 9 to 14) (size 15 to 20)
#    0.000    0.421    6.316    2.211    2.947    1.684 
#    0.000    0.000    0.000    0.000    0.000    0.000 
#    0.000    0.000    0.000    0.000    0.000    0.000 
#
# Total GULP energy -105855.288375 kJ/mol
# GULP energy per Si atom -5571.330967 kJ/mol
# Density = 2.097370 g / cm^3
# Si number density = 21.021545 Si / 1000 Ang^3
#
#
#
# Elastic Constant Matrix: (Units=GPa)
#
#
# Indices 1 2 3 4 5 6 
#
# 1 70.7534 35.3522 20.0146 0.0000 0.0000 0.0000
# 2 35.3522 127.8496 28.9615 0.0000 0.0000 0.0000
# 3 20.0146 28.9615 100.0783 0.0000 0.0000 0.0000
# 4 0.0000 0.0000 0.0000 0.8788 0.0000 0.0000
# 5 0.0000 0.0000 0.0000 0.0000 24.3051 0.0000
# 6 0.0000 0.0000 0.0000 0.0000 0.0000 1.0366
#
#
#
# Elastic Compliance Matrix: (Units=1/GPa)
#
#
# Indices 1 2 3 4 5 6 
#
# 1 0.016825 -0.004163 -0.002160 0.000000 0.000000 0.000000
# 2 -0.004163 0.009400 -0.001888 0.000000 0.000000 0.000000
# 3 -0.002160 -0.001888 0.010970 0.000000 0.000000 0.000000
# 4 0.000000 0.000000 0.000000 1.137902 0.000000 0.000000
# 5 0.000000 0.000000 0.000000 0.000000 0.041144 0.000000
# 6 0.000000 0.000000 0.000000 0.000000 0.000000 0.964737
#
#
# Mechanical properties :
#
#
# Convention : Reuss Voigt Hill
#
# Bulk Modulus (GPa) = 48.13722 51.92642 50.03182
# Shear Modulus (GPa) = 2.26827 19.53430 10.90128
#
# Velocity S-wave (km/s) = 1.03989 3.05167 2.27970
# Velocity P-wave (km/s) = 4.93868 6.09689 5.54809
#
# Compressibility (1/GPa) = 0.02077395
#
# Stress axis : x y z
#
# Youngs Moduli (GPa) = 59.43654 106.37786 91.15371
#
# Poissons Ratio (x) = 0.44285 0.19690
# Poissons Ratio (y) = 0.24743 0.17208
# Poissons Ratio (z) = 0.12839 0.20082
#
# Static dielectric constant tensor:
#      x y z
#    x 1.957680 0.000000 0.000000 
#    y 0.000000 1.839000 0.000000 
#    z 0.000000 0.000000 1.816920 
# 
# From -- ./inp_files/10794.got.cif
#   From: 2010.05.17/outbox.cif.g08.bks.cpg/sg23_6_cif.got.tgz:10794.got - 2010.06.04 12:02:01.
