data_PCOD9331301
_publ_section_title
;
Structure prediction by ZEFSAII (Michael W. Deem and Ramdas Pophale) SiO2 
 PCOD9331301
Probable space group: I 2 2 2
;
_chemical_formula_sum "Si O2"
_cell_formula_units_Z 64
_cell_length_a 14.442236
_cell_length_b 7.043976
_cell_length_c 23.655832
_cell_angle_alpha 90.000000
_cell_angle_beta 90.000000
_cell_angle_gamma 90.000000
_cell_volume 2406.525857
_symmetry_space_group_name_H-M "I 2 2 2"
_symmetry_group_IT_number 23
_symmetry_cell_setting 'orthorhombic'
loop_
_space_group_symop_operation_xyz
x,y,z
-x,-y,z
x,-y,-z
-x,y,-z
1/2+x,1/2+y,1/2+z
1/2-x,1/2-y,1/2+z
1/2+x,1/2-y,1/2-z
1/2-x,1/2+y,1/2-z
loop_
_atom_site_type_symbol
_atom_site_label
_atom_site_fract_x
_atom_site_fract_y
_atom_site_fract_z
Si Si1 0.892842 0.230380 0.511243
Si Si2 0.624838 0.612099 0.644665
Si Si3 0.099409 0.780591 0.981160
Si Si4 0.070407 0.743406 0.294420
Si Si5 0.312463 0.818885 0.900317
Si Si6 0.843964 0.273820 0.184330
Si Si7 0.364192 0.318733 0.771617
Si Si8 0.237276 0.394424 0.926528
O O1 0.847531 0.355635 0.462327
O O2 0.831756 0.232144 0.568290
O O3 0.000000 0.266898 0.500000
O O4 0.883757 0.000000 0.500000
O O5 0.590832 0.710338 0.587466
O O6 0.728478 0.561049 0.623344
O O7 0.591227 0.406960 0.666596
O O8 0.635210 0.719116 0.703957
O O9 0.179935 0.673573 0.017052
O O10 0.000000 0.709299 0.000000
O O11 0.109329 0.000000 0.000000
O O12 0.108744 0.678054 0.353958
O O13 0.107210 0.636266 0.238839
O O14 0.960069 0.740395 0.296048
O O15 0.118102 0.953793 0.284075
O O16 0.273381 0.604658 0.910013
O O17 0.735505 0.255390 0.204582
O O18 0.833802 0.368662 0.124174
#
# Coordination Sequence:
#
# PCOD9331301 Si02
#       8
#     8   8   8   8   8   8   8   8
#     4   9  20  34  59  91 117 153 206 258 311 375
#     4  11  23  41  64  90 131 171 211 270 332 384
#     4  11  24  41  67  97 128 171 221 270 325 389
#     4  10  22  37  64  93 122 161 215 267 319 380
#     4  11  21  39  63  88 130 162 206 268 327 378
#     4  11  22  39  64  90 124 166 213 262 317 391
#     4  10  22  39  64  94 122 165 219 265 319 388
#     4  11  22  39  64  92 123 166 215 257 321 386
#
# _framework density 26.594353999999999
#
# number of rings (size 3 to 8) (size 9 to 14) (size 15 to 20)
#    0.000    1.500    5.000    0.000    3.500    2.000 
#    0.000    1.875    0.000    2.625    0.000    0.000 
#    0.000    0.000    0.000    0.000    0.000    0.000 
#
# Total GULP energy -178502.630432 kJ/mol
# GULP energy per Si atom -5578.207201 kJ/mol
# Density = 2.653382 g / cm^3
# Si number density = 26.594354 Si / 1000 Ang^3
#
#
#
# Elastic Constant Matrix: (Units=GPa)
#
#
# Indices 1 2 3 4 5 6 
#
# 1 99.6456 3.4913 2.5292 0.0000 0.0000 0.0000
# 2 3.4913 90.6412 23.9089 0.0000 0.0000 0.0000
# 3 2.5292 23.9089 146.4969 0.0000 0.0000 0.0000
# 4 0.0000 0.0000 0.0000 30.8673 0.0000 0.0000
# 5 0.0000 0.0000 0.0000 0.0000 41.2763 0.0000
# 6 0.0000 0.0000 0.0000 0.0000 0.0000 11.6573
#
#
#
# Elastic Compliance Matrix: (Units=1/GPa)
#
#
# Indices 1 2 3 4 5 6 
#
# 1 0.010051 -0.000357 -0.000115 0.000000 0.000000 0.000000
# 2 -0.000357 0.011541 -0.001877 0.000000 0.000000 0.000000
# 3 -0.000115 -0.001877 0.007134 0.000000 0.000000 0.000000
# 4 0.000000 0.000000 0.000000 0.032397 0.000000 0.000000
# 5 0.000000 0.000000 0.000000 0.000000 0.024227 0.000000
# 6 0.000000 0.000000 0.000000 0.000000 0.000000 0.085783
#
#
# Mechanical properties :
#
#
# Convention : Reuss Voigt Hill
#
# Bulk Modulus (GPa) = 41.61815 44.07136 42.84476
# Shear Modulus (GPa) = 27.19727 37.21713 32.20720
#
# Velocity S-wave (km/s) = 3.20139 3.74496 3.48380
# Velocity P-wave (km/s) = 5.41742 5.94200 5.68576
#
# Compressibility (1/GPa) = 0.02402798
#
# Stress axis : x y z
#
# Youngs Moduli (GPa) = 99.49271 86.64400 140.16432
#
# Poissons Ratio (x) = 0.03091 0.01616
# Poissons Ratio (y) = 0.03549 0.26315
# Poissons Ratio (z) = 0.01147 0.16267
#
# Static dielectric constant tensor:
#      x y z
#    x 2.079410 0.000000 0.000000 
#    y 0.000000 2.275410 0.000000 
#    z 0.000000 0.000000 2.048030 
# 
# From -- ./inp_files/28584.got.cif
#   From: 2010.05.17/outbox.cif.g08.bks.cpg/sg23_15_cif.got.tgz:28584.got - 2010.06.04 12:02:01.
