data_PCOD9331534
_publ_section_title
;
Structure prediction by ZEFSAII (Michael W. Deem and Ramdas Pophale) SiO2 
 PCOD9331534
Probable space group: I 2 2 2
;
_chemical_formula_sum "Si O2"
_cell_formula_units_Z 56
_cell_length_a 14.144633
_cell_length_b 30.608661
_cell_length_c 6.582331
_cell_angle_alpha 90.000000
_cell_angle_beta 90.000000
_cell_angle_gamma 90.000000
_cell_volume 2849.808862
_symmetry_space_group_name_H-M "I 2 2 2"
_symmetry_group_IT_number 23
_symmetry_cell_setting 'orthorhombic'
loop_
_space_group_symop_operation_xyz
x,y,z
-x,-y,z
x,-y,-z
-x,y,-z
1/2+x,1/2+y,1/2+z
1/2-x,1/2-y,1/2+z
1/2+x,1/2-y,1/2-z
1/2-x,1/2+y,1/2-z
loop_
_atom_site_type_symbol
_atom_site_label
_atom_site_fract_x
_atom_site_fract_y
_atom_site_fract_z
Si Si1 0.225510 0.199739 0.341429
Si Si2 0.082880 0.833980 0.334601
Si Si3 0.904474 0.075218 0.099701
Si Si4 0.889486 0.550966 0.463163
Si Si5 0.602697 0.741368 0.492982
Si Si6 0.252134 0.046158 0.611715
Si Si7 0.746571 0.604600 0.724782
O O1 0.176770 0.179995 0.542791
O O2 0.314769 0.229801 0.392116
O O3 0.257567 0.156437 0.222906
O O4 0.147630 0.225367 0.206511
O O5 0.076598 0.882518 0.241951
O O6 0.080364 0.800448 0.148029
O O7 0.000000 0.828890 0.500000
O O8 0.836450 0.044061 0.232301
O O9 0.842902 0.092526 0.911999
O O10 0.000000 0.057171 0.000000
O O11 0.867369 0.500000 0.500000
O O12 0.844613 0.559228 0.241860
O O13 0.834440 0.580772 0.621330
O O14 0.000000 0.557001 0.500000
O O15 0.500000 0.764592 0.500000
O O16 0.233737 0.083298 0.445214
O O17 0.265054 0.000000 0.500000
#
# Coordination Sequence:
#
# PCOD9331534 Si02
#       7
#     8   8   8   8   8   8   8
#     4  12  24  42  66  95 134 175 216 279 344 389
#     4  12  22  39  70  95 124 174 228 274 326 402
#     4  11  24  40  67  97 134 172 228 277 323 395
#     4  10  22  43  69  97 130 171 219 271 323 395
#     4  12  25  43  64  98 132 172 226 275 334 412
#     4  11  23  42  68  94 134 175 218 270 336 395
#     4  11  23  43  65  98 133 170 217 275 327 396
#
# _framework density 19.650441000000001
#
# number of rings (size 3 to 8) (size 9 to 14) (size 15 to 20)
#    0.000    0.714    7.143    1.286    0.000    0.571 
#    2.571    2.857    0.000    0.000    0.000    0.000 
#    0.000    0.000    0.000    0.000    0.000    0.000 
#
# Total GULP energy -156390.543616 kJ/mol
# GULP energy per Si atom -5585.376558 kJ/mol
# Density = 1.960572 g / cm^3
# Si number density = 19.650441 Si / 1000 Ang^3
#
#
#
# Elastic Constant Matrix: (Units=GPa)
#
#
# Indices 1 2 3 4 5 6 
#
# 1 116.7280 42.1585 50.9412 -0.0044 -0.0012 -0.0001
# 2 42.1585 38.0327 19.7455 0.0049 0.0024 0.0073
# 3 50.9412 19.7455 104.4820 0.0017 0.0117 0.0242
# 4 -0.0044 0.0049 0.0017 34.8379 0.0011 0.0084
# 5 -0.0012 0.0024 0.0117 0.0011 20.8576 -0.0092
# 6 -0.0001 0.0073 0.0242 0.0084 -0.0092 19.5794
#
#
#
# Elastic Compliance Matrix: (Units=1/GPa)
#
#
# Indices 1 2 3 4 5 6 
#
# 1 0.016383 -0.015538 -0.005051 0.000004 0.000006 0.000012
# 2 -0.015538 0.043890 -0.000719 -0.000008 -0.000006 -0.000016
# 3 -0.005051 -0.000719 0.012170 -0.000001 -0.000007 -0.000015
# 4 0.000004 -0.000008 -0.000001 0.028704 -0.000001 -0.000012
# 5 0.000006 -0.000006 -0.000007 -0.000001 0.047944 0.000022
# 6 0.000012 -0.000016 -0.000015 -0.000012 0.000022 0.051074
#
#
# Mechanical properties :
#
#
# Convention : Reuss Voigt Hill
#
# Bulk Modulus (GPa) = 33.52716 53.88146 43.70431
# Shear Modulus (GPa) = 19.78443 24.81483 22.29963
#
# Velocity S-wave (km/s) = 3.17648 3.55746 3.37236
# Velocity P-wave (km/s) = 5.52741 6.65985 6.11988
#
# Compressibility (1/GPa) = 0.02982656
#
# Stress axis : x y z
#
# Youngs Moduli (GPa) = 61.03805 22.78426 82.17121
#
# Poissons Ratio (x) = 0.35402 0.41508
# Poissons Ratio (y) = 0.94841 0.05907
# Poissons Ratio (z) = 0.30833 0.01638
#
# Static dielectric constant tensor:
#      x y z
#    x 1.712260 0.000000 0.000010 
#    y 0.000000 1.680590 -0.000010 
#    z 0.000010 -0.000010 1.708980 
# 
# From -- ./inp_files/2750.got.cif
#   From: 2010.05.17/outbox.cif.g08.bks.cpg/sg23_2_cif.got.tgz:2750.got - 2010.06.04 12:02:01.
