data_PCOD9331675
_publ_section_title
;
Structure prediction by ZEFSAII (Michael W. Deem and Ramdas Pophale) SiO2 
 PCOD9331675
Probable space group: I 2 2 2
;
_chemical_formula_sum "Si O2"
_cell_formula_units_Z 48
_cell_length_a 11.613755
_cell_length_b 17.332243
_cell_length_c 11.758610
_cell_angle_alpha 90.000000
_cell_angle_beta 90.000000
_cell_angle_gamma 90.000000
_cell_volume 2366.919107
_symmetry_space_group_name_H-M "I 2 2 2"
_symmetry_group_IT_number 23
_symmetry_cell_setting 'orthorhombic'
loop_
_space_group_symop_operation_xyz
x,y,z
-x,-y,z
x,-y,-z
-x,y,-z
1/2+x,1/2+y,1/2+z
1/2-x,1/2-y,1/2+z
1/2+x,1/2-y,1/2-z
1/2-x,1/2+y,1/2-z
loop_
_atom_site_type_symbol
_atom_site_label
_atom_site_fract_x
_atom_site_fract_y
_atom_site_fract_z
Si Si1 0.737835 0.973101 0.631215
Si Si2 0.200854 0.113556 0.228840
Si Si3 0.535625 0.621301 0.130927
Si Si4 0.928275 0.665074 0.106577
Si Si5 0.863966 0.247313 0.226090
Si Si6 0.135434 0.825520 0.997154
O O1 0.868764 0.944206 0.645758
O O2 0.652687 0.901585 0.653321
O O3 0.723509 0.000000 0.500000
O O4 0.726264 0.044493 0.716538
O O5 0.261401 0.193154 0.263110
O O6 0.193177 0.117029 0.091975
O O7 0.073998 0.112925 0.285914
O O8 0.599401 0.700620 0.163368
O O9 0.500000 0.620817 0.000000
O O10 0.858852 0.738346 0.054891
O O11 0.023031 0.704473 0.187211
O O12 0.000000 0.631591 0.000000
O O13 0.831275 0.185227 0.127985
O O14 0.000000 0.844979 0.000000
#
# Coordination Sequence:
#
# PCOD9331675 Si02
#       6
#     8   8   8   8   8   8
#     4  12  24  38  60  96 137 163 203 265 334 383
#     4  12  23  38  63  97 125 167 207 263 330 375
#     4  12  25  40  63  94 130 167 207 265 322 373
#     4   9  19  38  63  89 122 172 213 261 310 371
#     4  10  23  41  69  90 125 167 219 267 303 380
#     4   9  18  40  61  86 120 164 218 248 300 377
#
# _framework density 20.279527000000002
#
# number of rings (size 3 to 8) (size 9 to 14) (size 15 to 20)
#    0.000    1.667    5.000    3.500    2.333    2.333 
#    0.000    0.833    0.000    0.000    0.000    1.167 
#    0.000    0.000    0.000    0.000    0.000    0.000 
#
# Total GULP energy -134003.634502 kJ/mol
# GULP energy per Si atom -5583.484771 kJ/mol
# Density = 2.023337 g / cm^3
# Si number density = 20.279527 Si / 1000 Ang^3
#
#
#
# Elastic Constant Matrix: (Units=GPa)
#
#
# Indices 1 2 3 4 5 6 
#
# 1 43.9332 16.7534 13.7081 0.0000 0.0000 0.0000
# 2 16.7534 58.8586 22.6080 0.0000 0.0000 0.0000
# 3 13.7081 22.6080 47.8295 0.0002 0.0000 0.0000
# 4 0.0000 0.0000 0.0002 31.2561 0.0000 0.0000
# 5 0.0000 0.0000 0.0000 0.0000 22.3874 0.0000
# 6 0.0000 0.0000 0.0000 0.0000 0.0000 35.7707
#
#
#
# Elastic Compliance Matrix: (Units=1/GPa)
#
#
# Indices 1 2 3 4 5 6 
#
# 1 0.026446 -0.005640 -0.004913 0.000000 0.000000 0.000000
# 2 -0.005640 0.021962 -0.008764 0.000000 0.000000 0.000000
# 3 -0.004913 -0.008764 0.026458 0.000000 0.000000 0.000000
# 4 0.000000 0.000000 0.000000 0.031994 0.000000 0.000000
# 5 0.000000 0.000000 0.000000 0.000000 0.044668 0.000000
# 6 0.000000 0.000000 0.000000 0.000000 0.000000 0.027956
#
#
# Mechanical properties :
#
#
# Convention : Reuss Voigt Hill
#
# Bulk Modulus (GPa) = 27.60140 28.52892 28.06516
# Shear Modulus (GPa) = 21.72061 24.38631 23.05346
#
# Velocity S-wave (km/s) = 3.27626 3.47148 3.37528
# Velocity P-wave (km/s) = 5.28695 5.49242 5.39066
#
# Compressibility (1/GPa) = 0.03623004
#
# Stress axis : x y z
#
# Youngs Moduli (GPa) = 37.81328 45.53374 37.79506
#
# Poissons Ratio (x) = 0.25682 0.18570
# Poissons Ratio (y) = 0.21327 0.33125
# Poissons Ratio (z) = 0.18579 0.39907
#
# Static dielectric constant tensor:
#      x y z
#    x 1.744640 0.000000 0.000000 
#    y 0.000000 1.726250 0.000000 
#    z 0.000000 0.000000 1.740320 
# 
# From -- ./inp_files/15763.got.cif
#   From: 2010.05.17/outbox.cif.g08.bks.cpg/sg23_8_cif.got.tgz:15763.got - 2010.06.04 12:02:01.
