data_PCOD9331959
_publ_section_title
;
Structure prediction by ZEFSAII (Michael W. Deem and Ramdas Pophale) SiO2 
 PCOD9331959
Probable space group: I 2 2 2
;
_chemical_formula_sum "Si O2"
_cell_formula_units_Z 58
_cell_length_a 9.589717
_cell_length_b 21.334499
_cell_length_c 14.388005
_cell_angle_alpha 90.000000
_cell_angle_beta 90.000000
_cell_angle_gamma 90.000000
_cell_volume 2943.667953
_symmetry_space_group_name_H-M "I 2 2 2"
_symmetry_group_IT_number 23
_symmetry_cell_setting 'orthorhombic'
loop_
_space_group_symop_operation_xyz
x,y,z
-x,-y,z
x,-y,-z
-x,y,-z
1/2+x,1/2+y,1/2+z
1/2-x,1/2-y,1/2+z
1/2+x,1/2-y,1/2-z
1/2-x,1/2+y,1/2-z
loop_
_atom_site_type_symbol
_atom_site_label
_atom_site_fract_x
_atom_site_fract_y
_atom_site_fract_z
Si Si1 0.191101 0.143969 0.592164
Si Si2 0.027098 0.097462 0.901733
Si Si3 0.761557 0.986866 0.124401
Si Si4 0.000000 0.500000 0.500000
Si Si5 0.215725 0.130424 0.382609
Si Si6 0.492441 0.196455 0.606725
Si Si7 0.839679 0.007486 0.321928
Si Si8 0.507716 0.307780 0.753671
O O1 0.159985 0.151598 0.483354
O O2 0.353270 0.156010 0.607909
O O3 0.110184 0.192668 0.658200
O O4 0.161099 0.072439 0.622728
O O5 0.876797 0.067874 0.876211
O O6 0.070021 0.141565 0.818184
O O7 0.147292 0.045217 0.916923
O O8 0.000000 0.130122 0.000000
O O9 0.741434 0.006744 0.231471
O O10 0.617306 0.971578 0.071431
O O11 0.374168 0.152618 0.378319
O O12 0.196808 0.055578 0.377247
O O13 0.132167 0.163958 0.299502
O O14 0.500000 0.222454 0.500000
O O15 0.487796 0.247250 0.689559
O O16 0.000000 0.000000 0.288026
#
# Coordination Sequence:
#
# PCOD9331959 Si02
#       8
#     8   8   8   2   8   8   8   8
#     4  11  23  40  66  96 130 161 208 264 317 373
#     4  11  19  37  61  81 116 168 216 247 300 370
#     4  11  19  36  53  84 122 161 204 255 305 370
#     4  12  24  30  56  84 130 162 204 260 324 352
#     4  11  23  40  66  96 130 161 208 264 317 373
#     4  10  25  44  60  90 127 172 211 252 317 377
#     4  12  21  40  66  98 123 164 209 253 322 383
#     4  12  21  40  66  94 119 167 215 264 298 368
#
# _framework density 19.703308
#
# number of rings (size 3 to 8) (size 9 to 14) (size 15 to 20)
#    0.000    0.828    6.897    2.483    0.000    2.207 
#    0.000    2.069    0.000    0.000    0.000    0.000 
#    0.000    0.000    0.000    0.000    0.000    0.000 
#
# Total GULP energy -161648.526103 kJ/mol
# GULP energy per Si atom -5574.087107 kJ/mol
# Density = 1.965846 g / cm^3
# Si number density = 19.703308 Si / 1000 Ang^3
#
#
#
# Elastic Constant Matrix: (Units=GPa)
#
#
# Indices 1 2 3 4 5 6 
#
# 1 103.9253 24.1546 18.1492 0.0000 0.0000 0.0000
# 2 24.1546 64.0058 25.8298 0.0000 0.0000 0.0001
# 3 18.1492 25.8298 117.8912 0.0000 0.0000 0.0001
# 4 0.0000 0.0000 0.0000 19.5974 0.0000 0.0001
# 5 0.0000 0.0000 0.0000 0.0000 34.7469 0.0000
# 6 0.0000 0.0001 0.0001 0.0001 0.0000 105.7236
#
#
#
# Elastic Compliance Matrix: (Units=1/GPa)
#
#
# Indices 1 2 3 4 5 6 
#
# 1 0.010621 -0.003673 -0.000830 0.000000 0.000000 0.000000
# 2 -0.003673 0.018409 -0.003468 0.000000 0.000000 0.000000
# 3 -0.000830 -0.003468 0.009370 0.000000 0.000000 0.000000
# 4 0.000000 0.000000 0.000000 0.051027 0.000000 0.000000
# 5 0.000000 0.000000 0.000000 0.000000 0.028780 0.000000
# 6 0.000000 0.000000 0.000000 0.000000 0.000000 0.009459
#
#
# Mechanical properties :
#
#
# Convention : Reuss Voigt Hill
#
# Bulk Modulus (GPa) = 44.52849 46.89884 45.71367
# Shear Modulus (GPa) = 33.09190 46.52615 39.80902
#
# Velocity S-wave (km/s) = 4.10263 4.86463 4.49979
# Velocity P-wave (km/s) = 6.71496 7.44359 7.08864
#
# Compressibility (1/GPa) = 0.02245753
#
# Stress axis : x y z
#
# Youngs Moduli (GPa) = 94.15296 54.32052 106.72294
#
# Poissons Ratio (x) = 0.19952 0.08861
# Poissons Ratio (y) = 0.34583 0.37011
# Poissons Ratio (z) = 0.07818 0.18838
#
# Static dielectric constant tensor:
#      x y z
#    x 1.681750 0.000000 0.000000 
#    y 0.000000 1.689850 0.000000 
#    z 0.000000 0.000000 1.744260 
# 
# From -- ./inp_files/20306.got.cif
#   From: 2010.05.17/outbox.cif.g08.bks.cpg/sg23_11_cif.got.tgz:20306.got - 2010.06.04 12:02:01.
