data_PCOD9331394
_publ_section_title
;
Structure prediction by ZEFSAII (Michael W. Deem and Ramdas Pophale) SiO2 
 PCOD9331394
Probable space group: I 2 2 2
;
_chemical_formula_sum "Si O2"
_cell_formula_units_Z 38
_cell_length_a 26.023874
_cell_length_b 10.976998
_cell_length_c 4.696638
_cell_angle_alpha 90.000000
_cell_angle_beta 90.000000
_cell_angle_gamma 90.000000
_cell_volume 1341.660458
_symmetry_space_group_name_H-M "I 2 2 2"
_symmetry_group_IT_number 23
_symmetry_cell_setting 'orthorhombic'
loop_
_space_group_symop_operation_xyz
x,y,z
-x,-y,z
x,-y,-z
-x,y,-z
1/2+x,1/2+y,1/2+z
1/2-x,1/2-y,1/2+z
1/2+x,1/2-y,1/2-z
1/2-x,1/2+y,1/2-z
loop_
_atom_site_type_symbol
_atom_site_label
_atom_site_fract_x
_atom_site_fract_y
_atom_site_fract_z
Si Si1 0.500000 0.211162 0.000000
Si Si2 0.083424 0.834841 0.088856
Si Si3 0.152792 0.000000 0.500000
Si Si4 0.000000 0.000000 0.000000
Si Si5 0.348754 0.121280 0.359218
Si Si6 0.215603 0.768271 0.601560
Si Si7 0.563679 0.000000 0.000000
O O1 0.541463 0.281277 0.810426
O O2 0.533038 0.107547 0.165108
O O3 0.119012 0.926610 0.271485
O O4 0.123995 0.735352 0.972381
O O5 0.043677 0.906172 0.876861
O O6 0.188915 0.897805 0.637391
O O7 0.317706 0.176803 0.090264
O O8 0.324876 0.000000 0.500000
O O9 0.399584 0.064850 0.218590
O O10 0.233518 0.716513 0.903037
#
# Coordination Sequence:
#
# PCOD9331394 Si02
#       7
#     4   8   4   2   8   8   4
#     4   9  18  39  60  94 136 185 239 284 352 428
#     4  10  22  40  64 100 140 201 236 311 358 445
#     4  10  24  49  70 102 154 194 252 313 390 458
#     4  12  24  34  66 102 144 196 264 288 356 442
#     4  10  24  43  70 103 143 184 239 308 383 444
#     4  11  28  49  78 111 145 195 251 319 390 462
#     4   9  20  36  66  99 140 181 226 302 352 437
#
# _framework density 28.323114
#
# number of rings (size 3 to 8) (size 9 to 14) (size 15 to 20)
#    0.000    1.895    0.000    1.263    7.368    4.211 
#    0.000    0.000    0.000    0.000    0.000    0.000 
#    0.000    0.000    0.000    0.000    0.000    0.000 
#
# Total GULP energy -106140.845061 kJ/mol
# GULP energy per Si atom -5586.360266 kJ/mol
# Density = 2.825865 g / cm^3
# Si number density = 28.323114 Si / 1000 Ang^3
#
#
#
# Elastic Constant Matrix: (Units=GPa)
#
#
# Indices 1 2 3 4 5 6 
#
# 1 81.4419 60.2515 3.4958 0.0001 0.0001 0.0001
# 2 60.2515 178.7545 40.6255 0.0001 0.0001 0.0001
# 3 3.4958 40.6255 89.6306 0.0010 0.0009 0.0005
# 4 0.0001 0.0001 0.0010 33.2219 0.0002 0.0001
# 5 0.0001 0.0001 0.0009 0.0002 37.6766 0.0001
# 6 0.0001 0.0001 0.0005 0.0001 0.0001 60.9415
#
#
#
# Elastic Compliance Matrix: (Units=1/GPa)
#
#
# Indices 1 2 3 4 5 6 
#
# 1 0.016711 -0.006114 0.002120 0.000000 0.000000 0.000000
# 2 -0.006114 0.008474 -0.003602 0.000000 0.000000 0.000000
# 3 0.002120 -0.003602 0.012707 0.000000 0.000000 0.000000
# 4 0.000000 0.000000 0.000000 0.030101 0.000000 0.000000
# 5 0.000000 0.000000 0.000000 0.000000 0.026542 0.000000
# 6 0.000000 0.000000 0.000000 0.000000 0.000000 0.016409
#
#
# Mechanical properties :
#
#
# Convention : Reuss Voigt Hill
#
# Bulk Modulus (GPa) = 44.05714 62.06363 53.06038
# Shear Modulus (GPa) = 37.39602 42.73162 40.06382
#
# Velocity S-wave (km/s) = 3.63758 3.88844 3.76510
# Velocity P-wave (km/s) = 5.76469 6.49001 6.13807
#
# Compressibility (1/GPa) = 0.02269780
#
# Stress axis : x y z
#
# Youngs Moduli (GPa) = 59.83992 118.00881 78.69661
#
# Poissons Ratio (x) = 0.72156 -0.16681
# Poissons Ratio (y) = 0.36589 0.28350
# Poissons Ratio (z) = -0.12684 0.42511
#
# Static dielectric constant tensor:
#      x y z
#    x 2.382260 0.000000 0.000000 
#    y 0.000000 2.388220 0.000000 
#    z 0.000000 0.000000 2.182650 
# 
# From -- ./inp_files/4811.got.cif
#   From: 2010.05.17/outbox.cif.g08.bks.cpg/sg23_3_cif.got.tgz:4811.got - 2010.06.04 12:02:01.
