data_PCOD9331170
_publ_section_title
;
Structure prediction by ZEFSAII (Michael W. Deem and Ramdas Pophale) SiO2 
 PCOD9331170
Probable space group: I 2 2 2
;
_chemical_formula_sum "Si O2"
_cell_formula_units_Z 32
_cell_length_a 5.261705
_cell_length_b 17.640808
_cell_length_c 14.899806
_cell_angle_alpha 90.000000
_cell_angle_beta 90.000000
_cell_angle_gamma 90.000000
_cell_volume 1383.010835
_symmetry_space_group_name_H-M "I 2 2 2"
_symmetry_group_IT_number 23
_symmetry_cell_setting 'orthorhombic'
loop_
_space_group_symop_operation_xyz
x,y,z
-x,-y,z
x,-y,-z
-x,y,-z
1/2+x,1/2+y,1/2+z
1/2-x,1/2-y,1/2+z
1/2+x,1/2-y,1/2-z
1/2-x,1/2+y,1/2-z
loop_
_atom_site_type_symbol
_atom_site_label
_atom_site_fract_x
_atom_site_fract_y
_atom_site_fract_z
Si Si1 0.498755 0.834979 0.892135
Si Si2 0.612958 0.917096 0.598956
Si Si3 0.003406 0.252557 0.889092
Si Si4 0.000000 0.500000 0.686627
Si Si5 0.500000 0.500000 0.807419
O O1 0.234261 0.798766 0.860745
O O2 0.533655 0.922219 0.866804
O O3 0.734645 0.784724 0.859529
O O4 0.500000 0.829901 0.000000
O O5 0.500000 0.906967 0.500000
O O6 0.530985 0.838927 0.644686
O O7 0.500000 0.000000 0.619344
O O8 0.908061 0.932225 0.625144
O O9 0.000000 0.252783 0.000000
O O10 0.263503 0.487793 0.741084
#
# Coordination Sequence:
#
# PCOD9331170 Si02
#       5
#     8   8   8   4   4
#     4  10  21  41  69 100 131 173 228 273 326 393
#     4  10  23  44  71  97 127 171 221 272 337 396
#     4   9  20  38  66 101 129 160 219 289 326 382
#     4  12  25  44  67  94 142 184 216 276 341 394
#     4  12  26  45  65 100 138 176 222 280 327 408
#
# _framework density 23.137920999999999
#
# number of rings (size 3 to 8) (size 9 to 14) (size 15 to 20)
#    0.000    1.750    1.250    1.875    3.500    2.000 
#    4.500   10.000    0.000    0.000    0.000    0.000 
#    0.000    0.000    0.000    0.000    0.000    0.000 
#
# Total GULP energy -89172.706307 kJ/mol
# GULP energy per Si atom -5573.294144 kJ/mol
# Density = 2.308526 g / cm^3
# Si number density = 23.137921 Si / 1000 Ang^3
#
#
#
# Elastic Constant Matrix: (Units=GPa)
#
#
# Indices 1 2 3 4 5 6 
#
# 1 176.1161 81.9671 38.0730 0.0000 0.0000 0.0000
# 2 81.9671 214.3912 19.4459 0.0000 0.0000 0.0000
# 3 38.0730 19.4459 32.8421 0.0000 0.0000 0.0000
# 4 0.0000 0.0000 0.0000 23.1497 0.0000 0.0000
# 5 0.0000 0.0000 0.0000 0.0000 18.3594 0.0000
# 6 0.0000 0.0000 0.0000 0.0000 0.0000 28.4749
#
#
#
# Elastic Compliance Matrix: (Units=1/GPa)
#
#
# Indices 1 2 3 4 5 6 
#
# 1 0.008728 -0.002556 -0.008604 0.000000 0.000000 0.000000
# 2 -0.002556 0.005678 -0.000398 0.000000 0.000000 0.000000
# 3 -0.008604 -0.000398 0.040659 0.000000 0.000000 0.000000
# 4 0.000000 0.000000 0.000000 0.043197 0.000000 0.000000
# 5 0.000000 0.000000 0.000000 0.000000 0.054468 0.000000
# 6 0.000000 0.000000 0.000000 0.000000 0.000000 0.035119
#
#
# Mechanical properties :
#
#
# Convention : Reuss Voigt Hill
#
# Bulk Modulus (GPa) = 31.30185 78.03570 54.66877
# Shear Modulus (GPa) = 22.56148 32.92101 27.74125
#
# Velocity S-wave (km/s) = 3.12603 3.77612 3.46634
# Velocity P-wave (km/s) = 5.15627 7.26716 6.30074
#
# Compressibility (1/GPa) = 0.03194700
#
# Stress axis : x y z
#
# Youngs Moduli (GPa) = 114.57330 176.12138 24.59453
#
# Poissons Ratio (x) = 0.45025 0.21162
# Poissons Ratio (y) = 0.29291 0.00979
# Poissons Ratio (z) = 0.98584 0.07013
#
# Static dielectric constant tensor:
#      x y z
#    x 1.969150 0.000000 0.000000 
#    y 0.000000 1.762160 0.000000 
#    z 0.000000 0.000000 2.063200 
# 
# From -- ./inp_files/22954.got.cif
#   From: 2010.05.17/outbox.cif.g08.bks.cpg/sg23_12_cif.got.tgz:22954.got - 2010.06.04 12:02:01.
