data_PCOD9331794
_publ_section_title
;
Structure prediction by ZEFSAII (Michael W. Deem and Ramdas Pophale) SiO2 
 PCOD9331794
Probable space group: I 2 2 2
;
_chemical_formula_sum "Si O2"
_cell_formula_units_Z 34
_cell_length_a 15.272938
_cell_length_b 17.807611
_cell_length_c 5.394813
_cell_angle_alpha 90.000000
_cell_angle_beta 90.000000
_cell_angle_gamma 90.000000
_cell_volume 1467.251777
_symmetry_space_group_name_H-M "I 2 2 2"
_symmetry_group_IT_number 23
_symmetry_cell_setting 'orthorhombic'
loop_
_space_group_symop_operation_xyz
x,y,z
-x,-y,z
x,-y,-z
-x,y,-z
1/2+x,1/2+y,1/2+z
1/2-x,1/2-y,1/2+z
1/2+x,1/2-y,1/2-z
1/2-x,1/2+y,1/2-z
loop_
_atom_site_type_symbol
_atom_site_label
_atom_site_fract_x
_atom_site_fract_y
_atom_site_fract_z
Si Si1 0.688327 0.863190 0.537925
Si Si2 0.000000 0.761562 0.500000
Si Si3 0.000000 0.000000 0.000000
Si Si4 0.000000 0.658486 0.000000
Si Si5 0.161628 0.072541 0.848029
Si Si6 0.168460 0.198917 0.236990
O O1 0.589132 0.889330 0.515196
O O2 0.734883 0.832058 0.294577
O O3 0.678943 0.787171 0.698182
O O4 0.764412 0.914489 0.646515
O O5 0.910621 0.807596 0.437292
O O6 0.011171 0.710769 0.248313
O O7 0.937448 0.954451 0.814628
O O8 0.146064 0.149064 0.000804
O O9 0.196782 0.000000 0.000000
#
# Coordination Sequence:
#
# PCOD9331794 Si02
#       6
#     8   4   2   4   8   8
#     4  11  22  40  68 102 140 193 252 314 366 435
#     4  10  24  36  68 111 145 182 238 320 378 428
#     4   8  24  46  66 100 160 202 234 302 392 478
#     4  10  24  41  66 109 144 178 252 320 374 419
#     4  10  24  43  65 101 153 190 245 298 387 451
#     4  11  22  37  69 102 142 191 251 313 367 442
#
# _framework density 23.172574000000001
#
# number of rings (size 3 to 8) (size 9 to 14) (size 15 to 20)
#    0.706    0.941    2.353    1.412    9.882    1.882 
#    0.000    1.176    0.000    4.235    0.000    0.000 
#    0.000    0.000    0.000    0.000    0.000    0.000 
#
# Total GULP energy -94648.376614 kJ/mol
# GULP energy per Si atom -5567.551566 kJ/mol
# Density = 2.311983 g / cm^3
# Si number density = 23.172574 Si / 1000 Ang^3
#
#
#
# Elastic Constant Matrix: (Units=GPa)
#
#
# Indices 1 2 3 4 5 6 
#
# 1 220.6759 27.5730 30.2561 0.0000 0.0000 0.0000
# 2 27.5730 42.7421 6.6428 0.0000 0.0000 0.0000
# 3 30.2561 6.6428 75.9650 0.0000 0.0000 0.0000
# 4 0.0000 0.0000 0.0000 8.6292 0.0000 0.0000
# 5 0.0000 0.0000 0.0000 0.0000 38.0494 0.0000
# 6 0.0000 0.0000 0.0000 0.0000 0.0000 78.3401
#
#
#
# Elastic Compliance Matrix: (Units=1/GPa)
#
#
# Indices 1 2 3 4 5 6 
#
# 1 0.005158 -0.003049 -0.001788 0.000000 0.000000 0.000000
# 2 -0.003049 0.025521 -0.001017 0.000000 0.000000 0.000000
# 3 -0.001788 -0.001017 0.013965 0.000000 0.000000 0.000000
# 4 0.000000 0.000000 0.000000 0.115885 0.000000 0.000000
# 5 0.000000 0.000000 0.000000 0.000000 0.026282 0.000000
# 6 0.000000 0.000000 0.000000 0.000000 0.000000 0.012765
#
#
# Mechanical properties :
#
#
# Convention : Reuss Voigt Hill
#
# Bulk Modulus (GPa) = 30.36229 52.03631 41.19930
# Shear Modulus (GPa) = 22.49590 43.33116 32.91353
#
# Velocity S-wave (km/s) = 3.11914 4.32896 3.77286
# Velocity P-wave (km/s) = 5.10913 6.89139 6.06607
#
# Compressibility (1/GPa) = 0.03293560
#
# Stress axis : x y z
#
# Youngs Moduli (GPa) = 193.88736 39.18283 71.60818
#
# Poissons Ratio (x) = 0.11948 0.12801
# Poissons Ratio (y) = 0.59124 0.07284
# Poissons Ratio (z) = 0.34659 0.03986
#
# Static dielectric constant tensor:
#      x y z
#    x 1.923940 0.000000 0.000000 
#    y 0.000000 1.886540 0.000000 
#    z 0.000000 0.000000 2.019120 
# 
# From -- ./inp_files/2341.got.cif
#   From: 2010.05.17/outbox.cif.g08.bks.cpg/sg23_2_cif.got.tgz:2341.got - 2010.06.04 12:02:01.
