data_PCOD9331395
_publ_section_title
;
Structure prediction by ZEFSAII (Michael W. Deem and Ramdas Pophale) SiO2 
 PCOD9331395
Probable space group: I 2 2 2
;
_chemical_formula_sum "Si O2"
_cell_formula_units_Z 56
_cell_length_a 18.388666
_cell_length_b 9.009177
_cell_length_c 14.409688
_cell_angle_alpha 90.000000
_cell_angle_beta 90.000000
_cell_angle_gamma 90.000000
_cell_volume 2387.206133
_symmetry_space_group_name_H-M "I 2 2 2"
_symmetry_group_IT_number 23
_symmetry_cell_setting 'orthorhombic'
loop_
_space_group_symop_operation_xyz
x,y,z
-x,-y,z
x,-y,-z
-x,y,-z
1/2+x,1/2+y,1/2+z
1/2-x,1/2-y,1/2+z
1/2+x,1/2-y,1/2-z
1/2-x,1/2+y,1/2-z
loop_
_atom_site_type_symbol
_atom_site_label
_atom_site_fract_x
_atom_site_fract_y
_atom_site_fract_z
Si Si1 0.324749 0.648709 0.799369
Si Si2 0.364053 0.670560 0.477755
Si Si3 0.653930 0.131973 0.309626
Si Si4 0.091433 0.098990 0.410651
Si Si5 0.523873 0.845869 0.814042
Si Si6 0.590947 0.822983 0.351359
Si Si7 0.692044 0.827309 0.016318
O O1 0.239132 0.618492 0.791633
O O2 0.369519 0.505979 0.834753
O O3 0.355649 0.712299 0.704237
O O4 0.329501 0.775324 0.879519
O O5 0.378173 0.500000 0.500000
O O6 0.367688 0.726569 0.372198
O O7 0.416447 0.761220 0.545839
O O8 0.278253 0.698629 0.498743
O O9 0.606841 0.136835 0.217411
O O10 0.627432 0.983490 0.360374
O O11 0.023560 0.194007 0.371453
O O12 0.148621 0.218993 0.449362
O O13 0.075820 0.000000 0.500000
O O14 0.476958 0.833958 0.719170
O O15 0.500000 0.000000 0.861595
O O16 0.676598 0.000000 0.000000
#
# Coordination Sequence:
#
# PCOD9331395 Si02
#       7
#     8   8   8   8   8   8   8
#     4  10  23  38  67 105 128 175 230 287 348 394
#     4  10  22  40  64 102 134 175 228 285 348 398
#     4  10  23  42  67  97 136 180 228 284 342 409
#     4  10  22  44  70  97 138 177 220 289 343 403
#     4  10  25  44  68 101 139 184 230 269 337 422
#     4  11  24  42  66  94 137 179 226 275 342 417
#     4   9  20  38  66 100 135 170 224 285 342 417
#
# _framework density 23.458386000000001
#
# number of rings (size 3 to 8) (size 9 to 14) (size 15 to 20)
#    0.000    2.000    0.000    1.286   10.000    4.571 
#    0.000    7.857    0.000    0.000    0.000    0.000 
#    0.000    0.000    0.000    0.000    0.000    0.000 
#
# Total GULP energy -156677.930693 kJ/mol
# GULP energy per Si atom -5595.640382 kJ/mol
# Density = 2.340499 g / cm^3
# Si number density = 23.458386 Si / 1000 Ang^3
#
#
#
# Elastic Constant Matrix: (Units=GPa)
#
#
# Indices 1 2 3 4 5 6 
#
# 1 72.2010 51.2736 21.7767 0.0000 0.0000 0.0000
# 2 51.2736 125.4754 27.1643 0.0000 0.0000 0.0000
# 3 21.7767 27.1643 54.5516 0.0000 0.0000 0.0000
# 4 0.0000 0.0000 0.0000 39.6883 0.0000 0.0000
# 5 0.0000 0.0000 0.0000 0.0000 22.5249 0.0000
# 6 0.0000 0.0000 0.0000 0.0000 0.0000 31.8835
#
#
#
# Elastic Compliance Matrix: (Units=1/GPa)
#
#
# Indices 1 2 3 4 5 6 
#
# 1 0.020447 -0.007384 -0.004485 0.000000 0.000000 0.000000
# 2 -0.007384 0.011599 -0.002828 0.000000 0.000000 0.000000
# 3 -0.004485 -0.002828 0.021530 0.000000 0.000000 0.000000
# 4 0.000000 0.000000 0.000000 0.025196 0.000000 0.000000
# 5 0.000000 0.000000 0.000000 0.000000 0.044395 0.000000
# 6 0.000000 0.000000 0.000000 0.000000 0.000000 0.031364
#
#
# Mechanical properties :
#
#
# Convention : Reuss Voigt Hill
#
# Bulk Modulus (GPa) = 41.35494 50.29523 45.82509
# Shear Modulus (GPa) = 26.04323 28.95358 27.49841
#
# Velocity S-wave (km/s) = 3.33556 3.51700 3.42749
# Velocity P-wave (km/s) = 5.70105 6.16272 5.93638
#
# Compressibility (1/GPa) = 0.02418091
#
# Stress axis : x y z
#
# Youngs Moduli (GPa) = 48.90686 86.21081 46.44659
#
# Poissons Ratio (x) = 0.63661 0.20833
# Poissons Ratio (y) = 0.36114 0.13136
# Poissons Ratio (z) = 0.21936 0.24382
#
# Static dielectric constant tensor:
#      x y z
#    x 1.899990 0.000000 0.000000 
#    y 0.000000 1.917550 0.000000 
#    z 0.000000 0.000000 1.888380 
# 
# From -- ./inp_files/22398.got.cif
#   From: 2010.05.17/outbox.cif.g08.bks.cpg/sg23_12_cif.got.tgz:22398.got - 2010.06.04 12:02:01.
