data_PCOD9331664
_publ_section_title
;
Structure prediction by ZEFSAII (Michael W. Deem and Ramdas Pophale) SiO2 
 PCOD9331664
Probable space group: I 2 2 2
;
_chemical_formula_sum "Si O2"
_cell_formula_units_Z 56
_cell_length_a 14.036599
_cell_length_b 21.201453
_cell_length_c 8.551150
_cell_angle_alpha 90.000000
_cell_angle_beta 90.000000
_cell_angle_gamma 90.000000
_cell_volume 2544.790549
_symmetry_space_group_name_H-M "I 2 2 2"
_symmetry_group_IT_number 23
_symmetry_cell_setting 'orthorhombic'
loop_
_space_group_symop_operation_xyz
x,y,z
-x,-y,z
x,-y,-z
-x,y,-z
1/2+x,1/2+y,1/2+z
1/2-x,1/2-y,1/2+z
1/2+x,1/2-y,1/2-z
1/2-x,1/2+y,1/2-z
loop_
_atom_site_type_symbol
_atom_site_label
_atom_site_fract_x
_atom_site_fract_y
_atom_site_fract_z
Si Si1 0.216402 0.553901 0.866513
Si Si2 0.762162 0.886105 0.140813
Si Si3 0.097011 0.741494 0.592594
Si Si4 0.601476 0.088765 0.076901
Si Si5 0.610612 0.503884 0.689629
Si Si6 0.901945 0.208778 0.945558
Si Si7 0.785083 0.683133 0.944942
O O1 0.132350 0.555049 0.737029
O O2 0.317128 0.543350 0.776457
O O3 0.205615 0.500000 0.000000
O O4 0.214922 0.622170 0.946389
O O5 0.840719 0.928856 0.225922
O O6 0.820243 0.841839 0.024536
O O7 0.714840 0.841799 0.268745
O O8 0.683407 0.925099 0.050415
O O9 0.105404 0.665329 0.601238
O O10 0.092577 0.771889 0.764695
O O11 0.191244 0.774519 0.521380
O O12 0.000000 0.755697 0.500000
O O13 0.500000 0.073873 0.000000
O O14 0.500000 0.500000 0.736329
O O15 0.614832 0.500000 0.500000
O O16 0.875976 0.272740 0.033063
O O17 0.000000 0.180092 0.000000
#
# Coordination Sequence:
#
# PCOD9331664 Si02
#       7
#     8   8   8   8   8   8   8
#     4  12  25  47  74 102 146 189 237 300 362 417
#     4  11  24  45  68  99 142 184 234 291 358 425
#     4  10  23  41  64 104 137 181 227 284 360 425
#     4  11  24  44  75 100 137 186 242 296 356 425
#     4  11  25  45  72 102 139 185 238 285 347 431
#     4  11  25  39  67 103 141 181 229 291 356 421
#     4  11  24  42  68 102 140 181 229 295 354 427
#
# _framework density 22.005741
#
# number of rings (size 3 to 8) (size 9 to 14) (size 15 to 20)
#    0.000    1.000    5.714    0.000    6.000    3.714 
#    0.000    1.429    6.286    0.000    0.000    0.000 
#    0.000    0.000    0.000    0.000    0.000    0.000 
#
# Total GULP energy -156571.020673 kJ/mol
# GULP energy per Si atom -5591.822167 kJ/mol
# Density = 2.195566 g / cm^3
# Si number density = 22.005741 Si / 1000 Ang^3
#
#
#
# Elastic Constant Matrix: (Units=GPa)
#
#
# Indices 1 2 3 4 5 6 
#
# 1 140.9536 22.4274 57.2121 0.0000 0.0000 0.0000
# 2 22.4274 72.7674 23.0398 0.0000 0.0000 0.0000
# 3 57.2121 23.0398 82.8476 0.0000 0.0000 0.0000
# 4 0.0000 0.0000 0.0000 32.2169 0.0000 0.0000
# 5 0.0000 0.0000 0.0000 0.0000 33.2846 0.0000
# 6 0.0000 0.0000 0.0000 0.0000 0.0000 19.7256
#
#
#
# Elastic Compliance Matrix: (Units=1/GPa)
#
#
# Indices 1 2 3 4 5 6 
#
# 1 0.009920 -0.000974 -0.006580 0.000000 0.000000 0.000000
# 2 -0.000974 0.015165 -0.003545 0.000000 0.000000 0.000000
# 3 -0.006580 -0.003545 0.017600 0.000000 0.000000 0.000000
# 4 0.000000 0.000000 0.000000 0.031040 0.000000 0.000000
# 5 0.000000 0.000000 0.000000 0.000000 0.030044 0.000000
# 6 0.000000 0.000000 0.000000 0.000000 0.000000 0.050696
#
#
# Mechanical properties :
#
#
# Convention : Reuss Voigt Hill
#
# Bulk Modulus (GPa) = 48.80894 55.76970 52.28932
# Shear Modulus (GPa) = 27.24938 29.97137 28.61037
#
# Velocity S-wave (km/s) = 3.52275 3.69450 3.60965
# Velocity P-wave (km/s) = 6.22692 6.60283 6.41763
#
# Compressibility (1/GPa) = 0.02048805
#
# Stress axis : x y z
#
# Youngs Moduli (GPa) = 100.80457 65.94147 56.81874
#
# Poissons Ratio (x) = 0.06424 0.37385
# Poissons Ratio (y) = 0.09820 0.20140
# Poissons Ratio (z) = 0.66326 0.23374
#
# Static dielectric constant tensor:
#      x y z
#    x 1.777080 0.000000 0.000000 
#    y 0.000000 1.825870 0.000000 
#    z 0.000000 0.000000 1.815380 
# 
# From -- ./inp_files/10226.got.cif
#   From: 2010.05.17/outbox.cif.g08.bks.cpg/sg23_6_cif.got.tgz:10226.got - 2010.06.04 12:02:01.
