data_PCOD9331947
_publ_section_title
;
Structure prediction by ZEFSAII (Michael W. Deem and Ramdas Pophale) SiO2 
 PCOD9331947
Probable space group: I 2 2 2
;
_chemical_formula_sum "Si O2"
_cell_formula_units_Z 64
_cell_length_a 11.597072
_cell_length_b 17.626712
_cell_length_c 16.484873
_cell_angle_alpha 90.000000
_cell_angle_beta 90.000000
_cell_angle_gamma 90.000000
_cell_volume 3369.808860
_symmetry_space_group_name_H-M "I 2 2 2"
_symmetry_group_IT_number 23
_symmetry_cell_setting 'orthorhombic'
loop_
_space_group_symop_operation_xyz
x,y,z
-x,-y,z
x,-y,-z
-x,y,-z
1/2+x,1/2+y,1/2+z
1/2-x,1/2-y,1/2+z
1/2+x,1/2-y,1/2-z
1/2-x,1/2+y,1/2-z
loop_
_atom_site_type_symbol
_atom_site_label
_atom_site_fract_x
_atom_site_fract_y
_atom_site_fract_z
Si Si1 0.577515 0.178492 0.664150
Si Si2 0.106335 0.189767 0.715230
Si Si3 0.368450 0.967758 0.916220
Si Si4 0.259492 0.343394 0.977645
Si Si5 0.926363 0.927057 0.355113
Si Si6 0.611023 0.790243 0.056721
Si Si7 0.329503 0.113341 0.646999
Si Si8 0.305743 0.035252 0.261955
O O1 0.595955 0.260911 0.703697
O O2 0.654939 0.165386 0.584781
O O3 0.443910 0.163701 0.646396
O O4 0.623399 0.112958 0.725366
O O5 0.090583 0.248967 0.641697
O O6 0.231019 0.151283 0.702992
O O7 0.009771 0.126936 0.697227
O O8 0.364166 0.877525 0.926784
O O9 0.307909 0.987724 0.831891
O O10 0.500000 0.000000 0.910122
O O11 0.318758 0.000000 0.000000
O O12 0.366193 0.381921 0.929503
O O13 0.293992 0.260807 0.011473
O O14 0.223345 0.391429 0.056682
O O15 0.821514 0.952702 0.297639
O O16 0.000000 0.000000 0.382368
O O17 0.500000 0.786788 0.000000
O O18 0.358581 0.031597 0.683535
#
# Coordination Sequence:
#
# PCOD9331947 Si02
#       8
#     8   8   8   8   8   8   8   8
#     4  11  24  41  68  92 135 172 219 263 336 396
#     4  11  24  40  66  97 124 180 210 277 320 392
#     4  11  22  37  64  97 127 167 219 276 333 380
#     4  10  25  41  66  98 130 178 213 273 333 392
#     4  11  23  44  63  94 134 172 223 264 328 399
#     4  11  20  39  59  94 131 157 219 276 320 382
#     4  11  24  43  64  96 134 167 222 265 333 391
#     4  11  24  42  64  96 130 176 210 274 329 394
#
# _framework density 18.992176000000001
#
# number of rings (size 3 to 8) (size 9 to 14) (size 15 to 20)
#    0.000    1.125    5.000    1.500    3.500    3.000 
#    4.500    2.500    0.000    0.375    0.000    0.000 
#    0.000    0.000    0.000    0.000    0.000    0.000 
#
# Total GULP energy -178763.204547 kJ/mol
# GULP energy per Si atom -5586.350142 kJ/mol
# Density = 1.894895 g / cm^3
# Si number density = 18.992176 Si / 1000 Ang^3
#
#
#
# Elastic Constant Matrix: (Units=GPa)
#
#
# Indices 1 2 3 4 5 6 
#
# 1 89.2520 21.8425 25.5630 0.0000 0.0000 0.0000
# 2 21.8425 94.9992 33.8336 0.0000 0.0000 0.0000
# 3 25.5630 33.8336 98.0506 0.0000 0.0000 0.0000
# 4 0.0000 0.0000 0.0000 26.7754 0.0000 0.0000
# 5 0.0000 0.0000 0.0000 0.0000 19.4635 0.0000
# 6 0.0000 0.0000 0.0000 0.0000 0.0000 16.7363
#
#
#
# Elastic Compliance Matrix: (Units=1/GPa)
#
#
# Indices 1 2 3 4 5 6 
#
# 1 0.012414 -0.001940 -0.002567 0.000000 0.000000 0.000000
# 2 -0.001940 0.012304 -0.003740 0.000000 0.000000 0.000000
# 3 -0.002567 -0.003740 0.012159 0.000000 0.000000 0.000000
# 4 0.000000 0.000000 0.000000 0.037348 0.000000 0.000000
# 5 0.000000 0.000000 0.000000 0.000000 0.051378 0.000000
# 6 0.000000 0.000000 0.000000 0.000000 0.000000 0.059750
#
#
# Mechanical properties :
#
#
# Convention : Reuss Voigt Hill
#
# Bulk Modulus (GPa) = 49.06048 49.41999 49.24024
# Shear Modulus (GPa) = 23.96444 25.99921 24.98183
#
# Velocity S-wave (km/s) = 3.55604 3.70394 3.63074
# Velocity P-wave (km/s) = 6.53824 6.66108 6.59995
#
# Compressibility (1/GPa) = 0.02038300
#
# Stress axis : x y z
#
# Youngs Moduli (GPa) = 80.55240 81.27136 82.24614
#
# Poissons Ratio (x) = 0.15767 0.21114
# Poissons Ratio (y) = 0.15628 0.30760
# Poissons Ratio (z) = 0.20679 0.30396
#
# Static dielectric constant tensor:
#      x y z
#    x 1.647400 0.000000 0.000000 
#    y 0.000000 1.699130 0.000000 
#    z 0.000000 0.000000 1.660990 
# 
# From -- ./inp_files/21071.got.cif
#   From: 2010.05.17/outbox.cif.g08.bks.cpg/sg23_11_cif.got.tgz:21071.got - 2010.06.04 12:02:01.
