data_PCOD9331484
_publ_section_title
;
Structure prediction by ZEFSAII (Michael W. Deem and Ramdas Pophale) SiO2 
 PCOD9331484
Probable space group: I 2 2 2
;
_chemical_formula_sum "Si O2"
_cell_formula_units_Z 48
_cell_length_a 7.723103
_cell_length_b 18.633778
_cell_length_c 16.561526
_cell_angle_alpha 90.000000
_cell_angle_beta 90.000000
_cell_angle_gamma 90.000000
_cell_volume 2383.378925
_symmetry_space_group_name_H-M "I 2 2 2"
_symmetry_group_IT_number 23
_symmetry_cell_setting 'orthorhombic'
loop_
_space_group_symop_operation_xyz
x,y,z
-x,-y,z
x,-y,-z
-x,y,-z
1/2+x,1/2+y,1/2+z
1/2-x,1/2-y,1/2+z
1/2+x,1/2-y,1/2-z
1/2-x,1/2+y,1/2-z
loop_
_atom_site_type_symbol
_atom_site_label
_atom_site_fract_x
_atom_site_fract_y
_atom_site_fract_z
Si Si1 0.416185 0.696001 0.244256
Si Si2 0.883042 0.821239 0.079689
Si Si3 0.019753 0.352625 0.751630
Si Si4 0.419386 0.920124 0.420257
Si Si5 0.877512 0.181568 0.421962
Si Si6 0.066904 0.418588 0.582457
O O1 0.484961 0.677529 0.334552
O O2 0.223010 0.665455 0.241078
O O3 0.408530 0.781352 0.245677
O O4 0.521322 0.678052 0.163397
O O5 0.755042 0.750574 0.081375
O O6 0.767015 0.893876 0.080797
O O7 0.000000 0.817724 0.000000
O O8 0.994653 0.391726 0.667231
O O9 0.970506 0.391945 0.832950
O O10 0.500000 0.883282 0.500000
O O11 0.221411 0.894972 0.429401
O O12 0.500000 0.000000 0.421199
O O13 0.000000 0.191178 0.500000
O O14 0.000000 0.500000 0.579224
O O15 0.000000 0.382561 0.500000
#
# Coordination Sequence:
#
# PCOD9331484 Si02
#       6
#     8   8   8   8   8   8
#     4  11  22  38  64  99 137 163 221 276 327 381
#     4  11  24  39  67 101 133 171 220 278 329 389
#     4  11  21  39  63  96 128 177 216 270 326 393
#     4  11  24  44  65  91 131 180 217 270 335 395
#     4  12  24  40  67 103 132 173 223 276 332 393
#     4  10  22  42  65  91 129 174 217 263 330 398
#
# _framework density 20.139474
#
# number of rings (size 3 to 8) (size 9 to 14) (size 15 to 20)
#    0.000    1.000    5.000    2.500    2.333    1.333 
#    0.000    7.500    0.000   10.000    0.000    0.000 
#    0.000    0.000    0.000    0.000    0.000    0.000 
#
# Total GULP energy -133667.560559 kJ/mol
# GULP energy per Si atom -5569.481690 kJ/mol
# Density = 2.009364 g / cm^3
# Si number density = 20.139474 Si / 1000 Ang^3
#
#
#
# Elastic Constant Matrix: (Units=GPa)
#
#
# Indices 1 2 3 4 5 6 
#
# 1 60.9942 33.8942 62.0336 0.0000 0.0000 0.0000
# 2 33.8942 81.0800 33.3449 0.0000 0.0000 0.0000
# 3 62.0336 33.3449 233.8343 0.0000 0.0000 0.0000
# 4 0.0000 0.0000 0.0000 16.0834 0.0000 0.0000
# 5 0.0000 0.0000 0.0000 0.0000 46.5834 0.0000
# 6 0.0000 0.0000 0.0000 0.0000 0.0000 23.0780
#
#
#
# Elastic Compliance Matrix: (Units=1/GPa)
#
#
# Indices 1 2 3 4 5 6 
#
# 1 0.027535 -0.009036 -0.006016 0.000000 0.000000 0.000000
# 2 -0.009036 0.016067 0.000106 0.000000 0.000000 0.000000
# 3 -0.006016 0.000106 0.005857 0.000000 0.000000 0.000000
# 4 0.000000 0.000000 0.000000 0.062176 0.000000 0.000000
# 5 0.000000 0.000000 0.000000 0.000000 0.021467 0.000000
# 6 0.000000 0.000000 0.000000 0.000000 0.000000 0.043331
#
#
# Mechanical properties :
#
#
# Convention : Reuss Voigt Hill
#
# Bulk Modulus (GPa) = 51.10669 70.49487 60.80078
# Shear Modulus (GPa) = 23.49078 33.59137 28.54107
#
# Velocity S-wave (km/s) = 3.41897 4.08847 3.76862
# Velocity P-wave (km/s) = 6.40447 7.57408 7.01370
#
# Compressibility (1/GPa) = 0.01956691
#
# Stress axis : x y z
#
# Youngs Moduli (GPa) = 36.31716 62.23776 170.72329
#
# Poissons Ratio (x) = 0.56241 1.02710
# Poissons Ratio (y) = 0.32818 -0.01810
# Poissons Ratio (z) = 0.21849 -0.00660
#
# Static dielectric constant tensor:
#      x y z
#    x 1.748700 0.000000 0.000000 
#    y 0.000000 1.747080 0.000000 
#    z 0.000000 0.000000 1.718780 
# 
# From -- ./inp_files/19989.got.cif
#   From: 2010.05.17/outbox.cif.g08.bks.cpg/sg23_10_cif.got.tgz:19989.got - 2010.06.04 12:02:01.
