data_PCOD9331036
_publ_section_title
;
Structure prediction by ZEFSAII (Michael W. Deem and Ramdas Pophale) SiO2 
 PCOD9331036
Probable space group: I 2 2 2
;
_chemical_formula_sum "Si O2"
_cell_formula_units_Z 48
_cell_length_a 27.113041
_cell_length_b 9.936063
_cell_length_c 8.313938
_cell_angle_alpha 90.000000
_cell_angle_beta 90.000000
_cell_angle_gamma 90.000000
_cell_volume 2239.748987
_symmetry_space_group_name_H-M "I 2 2 2"
_symmetry_group_IT_number 23
_symmetry_cell_setting 'orthorhombic'
loop_
_space_group_symop_operation_xyz
x,y,z
-x,-y,z
x,-y,-z
-x,y,-z
1/2+x,1/2+y,1/2+z
1/2-x,1/2-y,1/2+z
1/2+x,1/2-y,1/2-z
1/2-x,1/2+y,1/2-z
loop_
_atom_site_type_symbol
_atom_site_label
_atom_site_fract_x
_atom_site_fract_y
_atom_site_fract_z
Si Si1 0.050748 0.143982 0.390654
Si Si2 0.869067 0.011800 0.193467
Si Si3 0.993040 0.349471 0.186606
Si Si4 0.283587 0.629507 0.116009
Si Si5 0.405971 0.869999 0.898965
Si Si6 0.312506 0.782356 0.807486
O O1 0.082088 0.023540 0.305067
O O2 0.029924 0.239251 0.252065
O O3 0.088489 0.239791 0.486618
O O4 0.000000 0.126964 0.500000
O O5 0.827371 0.907094 0.259121
O O6 0.842787 0.155237 0.232235
O O7 0.878460 0.000000 0.000000
O O8 0.000000 0.500000 0.251792
O O9 0.938675 0.323824 0.248396
O O10 0.000000 0.353235 0.000000
O O11 0.234556 0.673492 0.207808
O O12 0.275649 0.500000 0.000000
O O13 0.297455 0.743001 0.987975
O O14 0.352430 0.899056 0.829259
O O15 0.422439 0.000000 0.000000
#
# Coordination Sequence:
#
# PCOD9331036 Si02
#       6
#     8   8   8   8   8   8
#     4  10  22  43  73  96 137 187 234 280 353 418
#     4  11  24  45  73 102 145 181 234 299 352 429
#     4  10  21  39  64  97 135 171 226 287 338 401
#     4  10  23  45  69 100 138 185 230 293 361 423
#     4  11  22  40  67  98 132 178 226 279 347 411
#     4  11  24  44  70 100 137 178 234 288 358 426
#
# _framework density 21.430973999999999
#
# number of rings (size 3 to 8) (size 9 to 14) (size 15 to 20)
#    0.000    1.500    3.333    1.000    2.333    3.333 
#    6.000    5.833    0.000    0.000    0.000    0.000 
#    0.000    0.000    0.000    0.000    0.000    0.000 
#
# Total GULP energy -133753.574860 kJ/mol
# GULP energy per Si atom -5573.065619 kJ/mol
# Density = 2.138220 g / cm^3
# Si number density = 21.430974 Si / 1000 Ang^3
#
#
#
# Elastic Constant Matrix: (Units=GPa)
#
#
# Indices 1 2 3 4 5 6 
#
# 1 146.5091 21.4567 68.1198 0.0000 0.0000 0.0000
# 2 21.4567 59.7050 24.8422 0.0000 0.0000 0.0000
# 3 68.1198 24.8422 132.7221 0.0000 0.0000 0.0000
# 4 0.0000 0.0000 0.0000 17.8450 0.0000 0.0000
# 5 0.0000 0.0000 0.0000 0.0000 37.9124 0.0000
# 6 0.0000 0.0000 0.0000 0.0000 0.0000 31.3345
#
#
#
# Elastic Compliance Matrix: (Units=1/GPa)
#
#
# Indices 1 2 3 4 5 6 
#
# 1 0.009077 -0.001435 -0.004390 0.000000 0.000000 0.000000
# 2 -0.001435 0.018391 -0.002706 0.000000 0.000000 0.000000
# 3 -0.004390 -0.002706 0.010294 0.000000 0.000000 0.000000
# 4 0.000000 0.000000 0.000000 0.056038 0.000000 0.000000
# 5 0.000000 0.000000 0.000000 0.000000 0.026377 0.000000
# 6 0.000000 0.000000 0.000000 0.000000 0.000000 0.031914
#
#
# Mechanical properties :
#
#
# Convention : Reuss Voigt Hill
#
# Bulk Modulus (GPa) = 48.31000 63.08595 55.69798
# Shear Modulus (GPa) = 28.40072 32.38622 30.39347
#
# Velocity S-wave (km/s) = 3.64430 3.89162 3.76999
# Velocity P-wave (km/s) = 6.34815 7.04937 6.70793
#
# Compressibility (1/GPa) = 0.02069965
#
# Stress axis : x y z
#
# Youngs Moduli (GPa) = 110.16975 54.37563 97.14265
#
# Poissons Ratio (x) = 0.07805 0.42646
# Poissons Ratio (y) = 0.15814 0.26282
# Poissons Ratio (z) = 0.48365 0.14711
#
# Static dielectric constant tensor:
#      x y z
#    x 1.844350 0.000000 0.000000 
#    y 0.000000 1.866820 0.000000 
#    z 0.000000 0.000000 1.759450 
# 
# From -- ./inp_files/12585.got.cif
#   From: 2010.05.17/outbox.cif.g08.bks.cpg/sg23_7_cif.got.tgz:12585.got - 2010.06.04 12:02:01.
