data_PCOD9331593
_publ_section_title
;
Structure prediction by ZEFSAII (Michael W. Deem and Ramdas Pophale) SiO2 
 PCOD9331593
Probable space group: I 2 2 2
;
_chemical_formula_sum "Si O2"
_cell_formula_units_Z 38
_cell_length_a 23.065595
_cell_length_b 9.292828
_cell_length_c 8.156267
_cell_angle_alpha 90.000000
_cell_angle_beta 90.000000
_cell_angle_gamma 90.000000
_cell_volume 1748.251845
_symmetry_space_group_name_H-M "I 2 2 2"
_symmetry_group_IT_number 23
_symmetry_cell_setting 'orthorhombic'
loop_
_space_group_symop_operation_xyz
x,y,z
-x,-y,z
x,-y,-z
-x,y,-z
1/2+x,1/2+y,1/2+z
1/2-x,1/2-y,1/2+z
1/2+x,1/2-y,1/2-z
1/2-x,1/2+y,1/2-z
loop_
_atom_site_type_symbol
_atom_site_label
_atom_site_fract_x
_atom_site_fract_y
_atom_site_fract_z
Si Si1 0.910393 0.458390 0.182014
Si Si2 0.198697 0.130494 0.395367
Si Si3 0.000000 0.000000 0.500000
Si Si4 0.000000 0.260350 0.000000
Si Si5 0.423391 0.716240 0.224483
Si Si6 0.798023 0.620477 0.637800
O O1 0.926307 0.606890 0.277273
O O2 0.861858 0.373557 0.282678
O O3 0.886445 0.500000 0.000000
O O4 0.964511 0.358666 0.130292
O O5 0.144780 0.190188 0.293024
O O6 0.218939 0.239953 0.535370
O O7 0.251376 0.090572 0.277886
O O8 0.174844 0.000000 0.500000
O O9 0.959018 0.112931 0.600879
O O10 0.951570 0.177352 0.899530
O O11 0.799121 0.500000 0.500000
#
# Coordination Sequence:
#
# PCOD9331593 Si02
#       6
#     8   8   2   4   8   8
#     4  10  22  46  75 107 134 183 248 296 347 426
#     4  12  27  47  68 107 145 186 239 301 371 429
#     4  12  28  46  66 108 156 186 226 298 368 446
#     4  10  25  45  78 103 134 188 241 306 349 428
#     4  11  24  47  67 103 142 188 235 287 365 425
#     4  12  26  46  75 103 137 191 243 307 357 430
#
# _framework density 21.736000000000001
#
# number of rings (size 3 to 8) (size 9 to 14) (size 15 to 20)
#    0.000    0.842    3.158    4.737    8.842    0.421 
#    7.579    0.000    0.000    0.000    0.000    0.000 
#    0.000    0.000    0.000    0.000    0.000    0.000 
#
# Total GULP energy -105998.450960 kJ/mol
# GULP energy per Si atom -5578.865840 kJ/mol
# Density = 2.168653 g / cm^3
# Si number density = 21.736000 Si / 1000 Ang^3
#
#
#
# Elastic Constant Matrix: (Units=GPa)
#
#
# Indices 1 2 3 4 5 6 
#
# 1 131.0228 9.3148 51.0048 0.0000 0.0000 0.0000
# 2 9.3148 45.1324 30.4312 0.0000 0.0000 0.0000
# 3 51.0048 30.4312 84.2535 0.0000 0.0000 0.0000
# 4 0.0000 0.0000 0.0000 22.7245 0.0000 0.0000
# 5 0.0000 0.0000 0.0000 0.0000 93.6166 0.0000
# 6 0.0000 0.0000 0.0000 0.0000 0.0000 -5.9368
#
#
#
# Elastic Compliance Matrix: (Units=1/GPa)
#
#
# Indices 1 2 3 4 5 6 
#
# 1 0.010234 0.002730 -0.007181 0.000000 0.000000 0.000000
# 2 0.002730 0.030018 -0.012495 0.000000 0.000000 0.000000
# 3 -0.007181 -0.012495 0.020729 0.000000 0.000000 0.000000
# 4 0.000000 0.000000 0.000000 0.044005 0.000000 0.000000
# 5 0.000000 0.000000 0.000000 0.000000 0.010682 0.000000
# 6 0.000000 0.000000 0.000000 0.000000 0.000000 -0.168442
#
#
# Mechanical properties :
#
#
# Convention : Reuss Voigt Hill
#
# Bulk Modulus (GPa) = 36.91527 49.10113 43.00820
# Shear Modulus (GPa) = -507.55266 33.39140 -237.08063
#
# Velocity S-wave (km/s) = -15.29754 3.92372 -10.45512
# Velocity P-wave (km/s) = 17.17555 6.57011 11.22125
#
# Compressibility (1/GPa) = 0.02708906
#
# Stress axis : x y z
#
# Youngs Moduli (GPa) = 97.71638 33.31284 48.24104
#
# Poissons Ratio (x) = -0.09094 0.34643
# Poissons Ratio (y) = -0.26676 0.60277
# Poissons Ratio (z) = 0.70172 0.41624
#
# Static dielectric constant tensor:
#      x y z
#    x 1.766720 0.000000 0.000000 
#    y 0.000000 1.736610 0.000000 
#    z 0.000000 0.000000 1.785490 
# 
# From -- ./inp_files/12448.got.cif
#   From: 2010.05.17/outbox.cif.g08.bks.cpg/sg23_7_cif.got.tgz:12448.got - 2010.06.04 12:02:01.
