data_PCOD9331210
_publ_section_title
;
Structure prediction by ZEFSAII (Michael W. Deem and Ramdas Pophale) SiO2 
 PCOD9331210
Probable space group: I 2 2 2
;
_chemical_formula_sum "Si O2"
_cell_formula_units_Z 38
_cell_length_a 5.212272
_cell_length_b 21.114937
_cell_length_c 14.133466
_cell_angle_alpha 90.000000
_cell_angle_beta 90.000000
_cell_angle_gamma 90.000000
_cell_volume 1555.483969
_symmetry_space_group_name_H-M "I 2 2 2"
_symmetry_group_IT_number 23
_symmetry_cell_setting 'orthorhombic'
loop_
_space_group_symop_operation_xyz
x,y,z
-x,-y,z
x,-y,-z
-x,y,-z
1/2+x,1/2+y,1/2+z
1/2-x,1/2-y,1/2+z
1/2+x,1/2-y,1/2-z
1/2-x,1/2+y,1/2-z
loop_
_atom_site_type_symbol
_atom_site_label
_atom_site_fract_x
_atom_site_fract_y
_atom_site_fract_z
Si Si1 0.000000 0.000000 0.500000
Si Si2 0.841557 0.237253 0.628819
Si Si3 0.860944 0.563396 0.866143
Si Si4 0.742783 0.041551 0.854585
Si Si5 0.158876 0.181970 0.167137
Si Si6 0.500000 0.836316 0.500000
O O1 0.895192 0.947185 0.424852
O O2 0.828992 0.187247 0.717116
O O3 0.620849 0.290163 0.645540
O O4 0.740382 0.204136 0.534194
O O5 0.113411 0.271590 0.634600
O O6 0.818892 0.555618 0.755741
O O7 0.000000 0.500000 0.898116
O O8 0.032954 0.619581 0.907935
O O9 0.795807 0.114312 0.883673
O O10 0.500000 0.000000 0.890356
O O11 0.000000 0.000000 0.865195
#
# Coordination Sequence:
#
# PCOD9331210 Si02
#       6
#     2   8   8   8   8   4
#     4  12  18  32  48  70 128 168 190 246 296 340
#     4  10  23  37  62  81 123 167 209 248 315 351
#     4  11  22  34  48  84 127 160 202 249 294 367
#     4  11  22  37  62  89 116 162 206 252 314 371
#     4  10  21  43  55  87 121 162 205 267 296 373
#     4  12  21  40  56  90 117 178 210 256 304 394
#
# _framework density 24.429697000000001
#
# number of rings (size 3 to 8) (size 9 to 14) (size 15 to 20)
#    0.000    1.263    5.263    1.263    0.000    2.526 
#    3.789    0.000    0.000    0.000    0.000   11.053 
#    0.000    0.000    0.000    0.000    0.000    0.000 
#
# Total GULP energy -105957.520046 kJ/mol
# GULP energy per Si atom -5576.711581 kJ/mol
# Density = 2.437409 g / cm^3
# Si number density = 24.429697 Si / 1000 Ang^3
#
#
#
# Elastic Constant Matrix: (Units=GPa)
#
#
# Indices 1 2 3 4 5 6 
#
# 1 58.4127 15.2636 29.1866 0.0000 0.0000 0.0000
# 2 15.2636 121.9996 12.3161 0.0000 0.0000 0.0000
# 3 29.1866 12.3161 59.2448 0.0000 0.0000 0.0000
# 4 0.0000 0.0000 0.0000 36.3236 0.0000 0.0000
# 5 0.0000 0.0000 0.0000 0.0000 13.0054 0.0000
# 6 0.0000 0.0000 0.0000 0.0000 0.0000 63.8394
#
#
#
# Elastic Compliance Matrix: (Units=1/GPa)
#
#
# Indices 1 2 3 4 5 6 
#
# 1 0.023081 -0.001777 -0.011001 0.000000 0.000000 0.000000
# 2 -0.001777 0.008509 -0.000893 0.000000 0.000000 0.000000
# 3 -0.011001 -0.000893 0.022485 0.000000 0.000000 0.000000
# 4 0.000000 0.000000 0.000000 0.027530 0.000000 0.000000
# 5 0.000000 0.000000 0.000000 0.000000 0.076891 0.000000
# 6 0.000000 0.000000 0.000000 0.000000 0.000000 0.015664
#
#
# Mechanical properties :
#
#
# Convention : Reuss Voigt Hill
#
# Bulk Modulus (GPa) = 37.40961 39.24329 38.32645
# Shear Modulus (GPa) = 23.76265 34.82640 29.29453
#
# Velocity S-wave (km/s) = 3.12219 3.77978 3.46661
# Velocity P-wave (km/s) = 5.32389 5.92854 5.63433
#
# Compressibility (1/GPa) = 0.02673110
#
# Stress axis : x y z
#
# Youngs Moduli (GPa) = 43.32596 117.51874 44.47497
#
# Poissons Ratio (x) = 0.20884 0.48928
# Poissons Ratio (y) = 0.07699 0.03974
# Poissons Ratio (z) = 0.47664 0.10500
#
# Static dielectric constant tensor:
#      x y z
#    x 1.769440 0.000000 0.000000 
#    y 0.000000 2.031550 0.000000 
#    z 0.000000 0.000000 1.990930 
# 
# From -- ./inp_files/23035.got.cif
#   From: 2010.05.17/outbox.cif.g08.bks.cpg/sg23_12_cif.got.tgz:23035.got - 2010.06.04 12:02:01.
