data_PCOD9331220
_publ_section_title
;
Structure prediction by ZEFSAII (Michael W. Deem and Ramdas Pophale) SiO2 
 PCOD9331220
Probable space group: I 2 2 2
;
_chemical_formula_sum "Si O2"
_cell_formula_units_Z 40
_cell_length_a 11.694862
_cell_length_b 9.359703
_cell_length_c 17.140796
_cell_angle_alpha 90.000000
_cell_angle_beta 90.000000
_cell_angle_gamma 90.000000
_cell_volume 1876.238985
_symmetry_space_group_name_H-M "I 2 2 2"
_symmetry_group_IT_number 23
_symmetry_cell_setting 'orthorhombic'
loop_
_space_group_symop_operation_xyz
x,y,z
-x,-y,z
x,-y,-z
-x,y,-z
1/2+x,1/2+y,1/2+z
1/2-x,1/2-y,1/2+z
1/2+x,1/2-y,1/2-z
1/2-x,1/2+y,1/2-z
loop_
_atom_site_type_symbol
_atom_site_label
_atom_site_fract_x
_atom_site_fract_y
_atom_site_fract_z
Si Si1 0.119245 0.367954 0.953920
Si Si2 0.832525 0.739719 0.673765
Si Si3 0.815412 0.330979 0.506491
Si Si4 0.056382 0.856287 0.627387
Si Si5 0.289893 0.023056 0.300324
O O1 0.194213 0.226218 0.960696
O O2 0.118779 0.423712 0.865097
O O3 0.180152 0.500000 0.000000
O O4 0.000000 0.349482 0.000000
O O5 0.823110 0.727810 0.581030
O O6 0.817814 0.590632 0.717326
O O7 0.961148 0.796837 0.686592
O O8 0.738465 0.855371 0.701248
O O9 0.824938 0.500000 0.500000
O O10 0.908091 0.260441 0.563743
O O11 0.171688 0.906175 0.669450
O O12 0.000000 0.000000 0.592485
#
# Coordination Sequence:
#
# PCOD9331220 Si02
#       5
#     8   8   8   8   8
#     4  10  21  43  68  92 124 179 230 258 318 398
#     4  11  23  41  64  95 134 168 209 274 333 388
#     4  11  24  41  66 100 131 166 225 277 324 389
#     4   9  22  43  69  92 127 177 221 265 331 397
#     4  10  23  41  64  96 129 171 216 268 328 392
#
# _framework density 21.319247000000001
#
# number of rings (size 3 to 8) (size 9 to 14) (size 15 to 20)
#    0.000    1.800    2.000    0.600    5.600    6.000 
#    0.000    0.000    0.000    0.000    0.000    0.000 
#    0.000    0.000    0.000    0.000    0.000    0.000 
#
# Total GULP energy -111701.568273 kJ/mol
# GULP energy per Si atom -5585.078414 kJ/mol
# Density = 2.127072 g / cm^3
# Si number density = 21.319247 Si / 1000 Ang^3
#
#
#
# Elastic Constant Matrix: (Units=GPa)
#
#
# Indices 1 2 3 4 5 6 
#
# 1 97.0658 24.1608 6.4553 0.0000 0.0000 0.0000
# 2 24.1608 124.0340 4.6734 0.0000 0.0000 0.0000
# 3 6.4553 4.6734 47.9847 0.0000 0.0000 0.0000
# 4 0.0000 0.0000 0.0000 39.9786 0.0000 0.0000
# 5 0.0000 0.0000 0.0000 0.0000 15.5024 0.0000
# 6 0.0000 0.0000 0.0000 0.0000 0.0000 23.5507
#
#
#
# Elastic Compliance Matrix: (Units=1/GPa)
#
#
# Indices 1 2 3 4 5 6 
#
# 1 0.010903 -0.002076 -0.001265 0.000000 0.000000 0.000000
# 2 -0.002076 0.008487 -0.000547 0.000000 0.000000 0.000000
# 3 -0.001265 -0.000547 0.021063 0.000000 0.000000 0.000000
# 4 0.000000 0.000000 0.000000 0.025013 0.000000 0.000000
# 5 0.000000 0.000000 0.000000 0.000000 0.064506 0.000000
# 6 0.000000 0.000000 0.000000 0.000000 0.000000 0.042461
#
#
# Mechanical properties :
#
#
# Convention : Reuss Voigt Hill
#
# Bulk Modulus (GPa) = 30.60182 37.74037 34.17110
# Shear Modulus (GPa) = 26.16383 31.39270 28.77827
#
# Velocity S-wave (km/s) = 3.50700 3.84149 3.67805
# Velocity P-wave (km/s) = 5.54833 6.11694 5.83956
#
# Compressibility (1/GPa) = 0.03267779
#
# Stress axis : x y z
#
# Youngs Moduli (GPa) = 91.71630 117.82233 47.47571
#
# Poissons Ratio (x) = 0.24462 0.06004
# Poissons Ratio (y) = 0.19042 0.02598
# Poissons Ratio (z) = 0.11598 0.06448
#
# Static dielectric constant tensor:
#      x y z
#    x 1.830070 0.000000 0.000000 
#    y 0.000000 1.773770 0.000000 
#    z 0.000000 0.000000 1.756070 
# 
# From -- ./inp_files/14454.got.cif
#   From: 2010.05.17/outbox.cif.g08.bks.cpg/sg23_8_cif.got.tgz:14454.got - 2010.06.04 12:02:01.
