data_PCOD9331867
_publ_section_title
;
Structure prediction by ZEFSAII (Michael W. Deem and Ramdas Pophale) SiO2 
 PCOD9331867
Probable space group: I 2 2 2
;
_chemical_formula_sum "Si O2"
_cell_formula_units_Z 48
_cell_length_a 7.871121
_cell_length_b 8.316588
_cell_length_c 32.986280
_cell_angle_alpha 90.000000
_cell_angle_beta 90.000000
_cell_angle_gamma 90.000000
_cell_volume 2159.310602
_symmetry_space_group_name_H-M "I 2 2 2"
_symmetry_group_IT_number 23
_symmetry_cell_setting 'orthorhombic'
loop_
_space_group_symop_operation_xyz
x,y,z
-x,-y,z
x,-y,-z
-x,y,-z
1/2+x,1/2+y,1/2+z
1/2-x,1/2-y,1/2+z
1/2+x,1/2-y,1/2-z
1/2-x,1/2+y,1/2-z
loop_
_atom_site_type_symbol
_atom_site_label
_atom_site_fract_x
_atom_site_fract_y
_atom_site_fract_z
Si Si1 0.834634 0.893443 0.078511
Si Si2 0.769871 0.579018 0.220989
Si Si3 0.357581 0.176219 0.880925
Si Si4 0.944999 0.813540 0.543319
Si Si5 0.503837 0.822959 0.644502
Si Si6 0.576656 0.756693 0.793969
O O1 0.744681 0.760359 0.049953
O O2 0.885960 0.797432 0.118485
O O3 0.695651 0.017832 0.094857
O O4 0.000000 0.000000 0.064209
O O5 0.905143 0.647957 0.187982
O O6 0.704568 0.399674 0.209675
O O7 0.601521 0.686829 0.220864
O O8 0.848824 0.605689 0.265125
O O9 0.454888 0.272066 0.915508
O O10 0.458534 0.179277 0.839056
O O11 0.182850 0.251774 0.862956
O O12 0.000000 0.739453 0.500000
O O13 0.000000 0.000000 0.539806
O O14 0.500000 0.000000 0.625425
#
# Coordination Sequence:
#
# PCOD9331867 Si02
#       6
#     8   8   8   8   8   8
#     4  10  24  43  70 107 141 187 233 303 373 453
#     4  11  25  41  62  93 132 191 239 303 355 440
#     4  11  23  41  69 101 138 184 234 301 370 441
#     4  11  25  47  76 109 146 193 247 306 378 466
#     4  11  21  41  66  94 138 187 240 297 364 440
#     4  11  25  42  63  97 137 185 242 298 368 434
#
# _framework density 22.229319
#
# number of rings (size 3 to 8) (size 9 to 14) (size 15 to 20)
#    0.000    1.167    1.667    3.500    4.667    1.333 
#    0.000    5.833    0.000    9.000    0.000    0.000 
#    0.000    0.000    0.000    0.000    0.000    0.000 
#
# Total GULP energy -133777.586747 kJ/mol
# GULP energy per Si atom -5574.066114 kJ/mol
# Density = 2.217872 g / cm^3
# Si number density = 22.229319 Si / 1000 Ang^3
#
#
#
# Elastic Constant Matrix: (Units=GPa)
#
#
# Indices 1 2 3 4 5 6 
#
# 1 99.6719 20.7069 52.5840 0.0000 0.0000 0.0000
# 2 20.7069 83.8269 15.3231 0.0000 0.0000 0.0000
# 3 52.5840 15.3231 138.4410 0.0000 0.0000 0.0000
# 4 0.0000 0.0000 0.0000 7.5627 0.0000 0.0000
# 5 0.0000 0.0000 0.0000 0.0000 -217.9327 0.0000
# 6 0.0000 0.0000 0.0000 0.0000 0.0000 36.6177
#
#
#
# Elastic Compliance Matrix: (Units=1/GPa)
#
#
# Indices 1 2 3 4 5 6 
#
# 1 0.012987 -0.002354 -0.004672 0.000000 0.000000 0.000000
# 2 -0.002354 0.012602 -0.000501 0.000000 0.000000 0.000000
# 3 -0.004672 -0.000501 0.009053 0.000000 0.000000 0.000000
# 4 0.000000 0.000000 0.000000 0.132227 0.000000 0.000000
# 5 0.000000 0.000000 0.000000 0.000000 -0.004589 0.000000
# 6 0.000000 0.000000 0.000000 0.000000 0.000000 0.027309
#
#
# Mechanical properties :
#
#
# Convention : Reuss Voigt Hill
#
# Bulk Modulus (GPa) = 51.04993 55.46308 53.25650
# Shear Modulus (GPa) = 23.67715 -19.19540 2.24087
#
# Velocity S-wave (km/s) = 3.26718 -2.94175 1.00512
# Velocity P-wave (km/s) = 6.10308 3.66961 5.03555
#
# Compressibility (1/GPa) = 0.01958867
#
# Stress axis : x y z
#
# Youngs Moduli (GPa) = 77.00060 79.35022 110.45590
#
# Poissons Ratio (x) = 0.18679 0.51608
# Poissons Ratio (y) = 0.18126 0.05531
# Poissons Ratio (z) = 0.35977 0.03974
#
# Static dielectric constant tensor:
#      x y z
#    x 1.814990 0.000000 0.000000 
#    y 0.000000 2.196120 0.000000 
#    z 0.000000 0.000000 1.783120 
# 
# From -- ./inp_files/30241.got.cif
#   From: 2010.05.17/outbox.cif.g08.bks.cpg/sg23_16_cif.got.tgz:30241.got - 2010.06.04 12:02:01.
