data_PCOD9331567
_publ_section_title
;
Structure prediction by ZEFSAII (Michael W. Deem and Ramdas Pophale) SiO2 
 PCOD9331567
Probable space group: I 2 2 2
;
_chemical_formula_sum "Si O2"
_cell_formula_units_Z 38
_cell_length_a 13.363169
_cell_length_b 12.235092
_cell_length_c 9.314558
_cell_angle_alpha 90.000000
_cell_angle_beta 90.000000
_cell_angle_gamma 90.000000
_cell_volume 1522.926527
_symmetry_space_group_name_H-M "I 2 2 2"
_symmetry_group_IT_number 23
_symmetry_cell_setting 'orthorhombic'
loop_
_space_group_symop_operation_xyz
x,y,z
-x,-y,z
x,-y,-z
-x,y,-z
1/2+x,1/2+y,1/2+z
1/2-x,1/2-y,1/2+z
1/2+x,1/2-y,1/2-z
1/2-x,1/2+y,1/2-z
loop_
_atom_site_type_symbol
_atom_site_label
_atom_site_fract_x
_atom_site_fract_y
_atom_site_fract_z
Si Si1 0.220149 0.828191 0.786258
Si Si2 0.818547 0.500000 0.500000
Si Si3 0.500000 0.855958 0.000000
Si Si4 0.518278 0.326433 0.779491
Si Si5 0.798963 0.627292 0.021450
Si Si6 0.500000 0.500000 0.000000
Si Si7 0.000000 0.272102 0.000000
O O1 0.102310 0.840223 0.744938
O O2 0.275029 0.828717 0.635852
O O3 0.254459 0.929670 0.887284
O O4 0.245517 0.713398 0.864767
O O5 0.902991 0.417895 0.563594
O O6 0.463427 0.782769 0.869094
O O7 0.555279 0.420737 0.887159
O O8 0.550594 0.307874 0.616917
O O9 0.915504 0.647113 0.057018
O O10 0.774546 0.500000 0.000000
#
# Coordination Sequence:
#
# PCOD9331567 Si02
#       7
#     8   4   4   8   8   2   4
#     4  11  26  43  71 107 148 185 248 299 379 426
#     4  11  24  42  74 105 144 194 246 315 350 450
#     4  10  22  44  72  98 143 193 255 289 370 437
#     4  10  23  44  66 102 138 188 239 301 358 448
#     4  11  26  46  72 105 147 189 236 303 366 438
#     4  10  24  44  72  90 140 202 238 284 374 454
#     4  10  23  43  72 100 142 175 246 299 360 422
#
# _framework density 24.951958000000001
#
# number of rings (size 3 to 8) (size 9 to 14) (size 15 to 20)
#    0.000    1.474    0.000    2.842   10.316    5.474 
#    0.000    0.000    0.000    0.000    0.000    0.000 
#    0.000    0.000    0.000    0.000    0.000    0.000 
#
# Total GULP energy -106022.182706 kJ/mol
# GULP energy per Si atom -5580.114879 kJ/mol
# Density = 2.489517 g / cm^3
# Si number density = 24.951958 Si / 1000 Ang^3
#
#
#
# Elastic Constant Matrix: (Units=GPa)
#
#
# Indices 1 2 3 4 5 6 
#
# 1 102.7076 25.0150 -3.4134 0.0000 0.0000 0.0000
# 2 25.0150 169.6442 84.1969 0.0000 0.0000 0.0000
# 3 -3.4134 84.1969 155.7850 0.0000 0.0000 0.0000
# 4 0.0000 0.0000 0.0000 37.5291 0.0000 0.0000
# 5 0.0000 0.0000 0.0000 0.0000 16.8390 0.0000
# 6 0.0000 0.0000 0.0000 0.0000 0.0000 29.4187
#
#
#
# Elastic Compliance Matrix: (Units=1/GPa)
#
#
# Indices 1 2 3 4 5 6 
#
# 1 0.010328 -0.002235 0.001434 0.000000 0.000000 0.000000
# 2 -0.002235 0.008539 -0.004664 0.000000 0.000000 0.000000
# 3 0.001434 -0.004664 0.008971 0.000000 0.000000 0.000000
# 4 0.000000 0.000000 0.000000 0.026646 0.000000 0.000000
# 5 0.000000 0.000000 0.000000 0.000000 0.059386 0.000000
# 6 0.000000 0.000000 0.000000 0.000000 0.000000 0.033992
#
#
# Mechanical properties :
#
#
# Convention : Reuss Voigt Hill
#
# Bulk Modulus (GPa) = 59.13902 71.08151 65.11026
# Shear Modulus (GPa) = 30.40836 38.24657 34.32746
#
# Velocity S-wave (km/s) = 3.49474 3.91936 3.71312
# Velocity P-wave (km/s) = 6.32747 7.00221 6.67338
#
# Compressibility (1/GPa) = 0.01690931
#
# Stress axis : x y z
#
# Youngs Moduli (GPa) = 96.82114 117.10898 111.46655
#
# Poissons Ratio (x) = 0.26171 -0.15986
# Poissons Ratio (y) = 0.21637 0.51989
# Poissons Ratio (z) = -0.13885 0.54620
#
# Static dielectric constant tensor:
#      x y z
#    x 2.053920 0.000000 0.000000 
#    y 0.000000 2.123180 0.000000 
#    z 0.000000 0.000000 1.973890 
# 
# From -- ./inp_files/10801.got.cif
#   From: 2010.05.17/outbox.cif.g08.bks.cpg/sg23_6_cif.got.tgz:10801.got - 2010.06.04 12:02:01.
