data_PCOD9331955
_publ_section_title
;
Structure prediction by ZEFSAII (Michael W. Deem and Ramdas Pophale) SiO2 
 PCOD9331955
Probable space group: I 2 2 2
;
_chemical_formula_sum "Si O2"
_cell_formula_units_Z 58
_cell_length_a 8.997925
_cell_length_b 18.518778
_cell_length_c 16.950929
_cell_angle_alpha 90.000000
_cell_angle_beta 90.000000
_cell_angle_gamma 90.000000
_cell_volume 2824.543055
_symmetry_space_group_name_H-M "I 2 2 2"
_symmetry_group_IT_number 23
_symmetry_cell_setting 'orthorhombic'
loop_
_space_group_symop_operation_xyz
x,y,z
-x,-y,z
x,-y,-z
-x,y,-z
1/2+x,1/2+y,1/2+z
1/2-x,1/2-y,1/2+z
1/2+x,1/2-y,1/2-z
1/2-x,1/2+y,1/2-z
loop_
_atom_site_type_symbol
_atom_site_label
_atom_site_fract_x
_atom_site_fract_y
_atom_site_fract_z
Si Si1 0.843591 0.816050 0.481965
Si Si2 0.667058 0.028703 0.283462
Si Si3 0.000000 0.500000 0.500000
Si Si4 0.141076 0.397229 0.374166
Si Si5 0.668946 0.820636 0.161509
Si Si6 0.845712 0.887051 0.310086
Si Si7 0.662867 0.646735 0.148790
Si Si8 0.828586 0.819688 0.998917
O O1 0.828908 0.846751 0.394674
O O2 0.857536 0.870068 0.555620
O O3 0.703985 0.765711 0.498941
O O4 0.000000 0.772158 0.500000
O O5 0.699499 0.050246 0.193490
O O6 0.690584 0.104489 0.327052
O O7 0.500000 0.000000 0.289258
O O8 0.777802 0.967049 0.313871
O O9 0.093166 0.448934 0.444323
O O10 0.256391 0.344804 0.416584
O O11 0.997631 0.353492 0.341365
O O12 0.759367 0.848442 0.237876
O O13 0.665999 0.733026 0.161698
O O14 0.747925 0.845329 0.079595
O O15 0.024084 0.883983 0.301341
O O16 0.000000 0.838319 0.000000
#
# Coordination Sequence:
#
# PCOD9331955 Si02
#       8
#     8   8   2   8   8   8   8   8
#     4   9  21  45  71  98 134 181 227 276 350 410
#     4  12  26  43  64  99 137 182 230 275 347 411
#     4  12  20  40  74  88 124 194 220 272 332 432
#     4  12  23  44  67  94 137 183 228 271 348 424
#     4  11  23  43  71 102 133 181 231 280 350 409
#     4  11  23  42  70  97 135 179 228 287 336 411
#     4  10  25  43  68 100 135 177 233 284 343 409
#     4  11  24  40  66 105 135 172 226 291 336 403
#
# _framework density 20.534296000000001
#
# number of rings (size 3 to 8) (size 9 to 14) (size 15 to 20)
#    0.000    1.103    3.448    2.897    5.793    2.759 
#    0.000    3.103    0.000    0.000    0.000    0.000 
#    0.000    0.000    0.000    0.000    0.000    0.000 
#
# Total GULP energy -161770.850767 kJ/mol
# GULP energy per Si atom -5578.305199 kJ/mol
# Density = 2.048756 g / cm^3
# Si number density = 20.534296 Si / 1000 Ang^3
#
#
#
# Elastic Constant Matrix: (Units=GPa)
#
#
# Indices 1 2 3 4 5 6 
#
# 1 96.3441 26.4315 43.0831 0.0000 0.0000 0.0000
# 2 26.4315 78.2166 18.6780 0.0000 0.0000 0.0000
# 3 43.0831 18.6780 105.3999 0.0000 0.0000 0.0000
# 4 0.0000 0.0000 0.0000 77.9958 0.0000 0.0000
# 5 0.0000 0.0000 0.0000 0.0000 21.1087 0.0000
# 6 0.0000 0.0000 0.0000 0.0000 0.0000 32.9333
#
#
#
# Elastic Compliance Matrix: (Units=1/GPa)
#
#
# Indices 1 2 3 4 5 6 
#
# 1 0.013510 -0.003390 -0.004922 0.000000 0.000000 0.000000
# 2 -0.003390 0.014201 -0.001131 0.000000 0.000000 0.000000
# 3 -0.004922 -0.001131 0.011700 0.000000 0.000000 0.000000
# 4 0.000000 0.000000 0.000000 0.012821 0.000000 0.000000
# 5 0.000000 0.000000 0.000000 0.000000 0.047374 0.000000
# 6 0.000000 0.000000 0.000000 0.000000 0.000000 0.030364
#
#
# Mechanical properties :
#
#
# Convention : Reuss Voigt Hill
#
# Bulk Modulus (GPa) = 48.71965 50.70509 49.71237
# Shear Modulus (GPa) = 32.11349 39.19207 35.65278
#
# Velocity S-wave (km/s) = 3.95890 4.37351 4.17136
# Velocity P-wave (km/s) = 6.68391 7.08872 6.88929
#
# Compressibility (1/GPa) = 0.02052560
#
# Stress axis : x y z
#
# Youngs Moduli (GPa) = 74.01674 70.41911 85.47120
#
# Poissons Ratio (x) = 0.23874 0.42067
# Poissons Ratio (y) = 0.25094 0.09664
# Poissons Ratio (z) = 0.36429 0.07962
#
# Static dielectric constant tensor:
#      x y z
#    x 1.640830 0.000000 0.000000 
#    y 0.000000 2.588080 0.000000 
#    z 0.000000 0.000000 1.704210 
# 
# From -- ./inp_files/23887.got.cif
#   From: 2010.05.17/outbox.cif.g08.bks.cpg/sg23_12_cif.got.tgz:23887.got - 2010.06.04 12:02:01.
