data_PCOD9331548
_publ_section_title
;
Structure prediction by ZEFSAII (Michael W. Deem and Ramdas Pophale) SiO2 
 PCOD9331548
Probable space group: I 2 2 2
;
_chemical_formula_sum "Si O2"
_cell_formula_units_Z 64
_cell_length_a 14.569725
_cell_length_b 8.323186
_cell_length_c 23.523802
_cell_angle_alpha 90.000000
_cell_angle_beta 90.000000
_cell_angle_gamma 90.000000
_cell_volume 2852.649868
_symmetry_space_group_name_H-M "I 2 2 2"
_symmetry_group_IT_number 23
_symmetry_cell_setting 'orthorhombic'
loop_
_space_group_symop_operation_xyz
x,y,z
-x,-y,z
x,-y,-z
-x,y,-z
1/2+x,1/2+y,1/2+z
1/2-x,1/2-y,1/2+z
1/2+x,1/2-y,1/2-z
1/2-x,1/2+y,1/2-z
loop_
_atom_site_type_symbol
_atom_site_label
_atom_site_fract_x
_atom_site_fract_y
_atom_site_fract_z
Si Si1 0.220149 0.106840 0.774483
Si Si2 0.672805 0.750444 0.681843
Si Si3 0.471159 0.315951 0.321186
Si Si4 0.045407 0.330167 0.941456
Si Si5 0.715868 0.829838 0.076777
Si Si6 0.753725 0.153740 0.531864
Si Si7 0.849739 0.670452 0.375435
Si Si8 0.519307 0.311133 0.932214
O O1 0.257490 0.126588 0.711161
O O2 0.306406 0.165084 0.813053
O O3 0.126205 0.205010 0.788942
O O4 0.198084 0.923516 0.791092
O O5 0.564793 0.782365 0.692075
O O6 0.700291 0.732328 0.615717
O O7 0.500000 0.500000 0.311256
O O8 0.455662 0.288096 0.388209
O O9 0.000000 0.500000 0.925634
O O10 0.149042 0.372612 0.955024
O O11 0.000000 0.269176 0.000000
O O12 0.739544 0.802612 0.011236
O O13 0.622987 0.728640 0.084354
O O14 0.688253 0.007687 0.095756
O O15 0.803858 0.185571 0.589948
O O16 0.793797 0.000000 0.500000
O O17 0.955382 0.702044 0.390967
O O18 0.500000 0.500000 0.924854
O O19 0.500000 0.272096 0.000000
#
# Coordination Sequence:
#
# PCOD9331548 Si02
#       8
#     8   8   8   8   8   8   8   8
#     4  10  23  44  66  93 124 162 213 262 317 375
#     4  10  24  42  67  93 124 163 211 264 316 376
#     4  10  22  44  64  91 125 161 208 260 309 374
#     4  11  22  38  56  92 129 168 207 251 307 370
#     4  11  24  41  64  95 128 168 216 263 318 380
#     4  12  22  37  60  90 132 167 207 257 311 378
#     4  11  23  41  65  93 127 169 214 263 318 378
#     4  11  23  40  61  93 131 169 213 263 318 380
#
# _framework density 22.435279999999999
#
# number of rings (size 3 to 8) (size 9 to 14) (size 15 to 20)
#    0.000    1.250    3.750    2.250    0.000    4.750 
#    2.250    2.500    0.000    0.000    0.000    0.000 
#    0.000    0.000    0.000    0.000    0.000    0.000 
#
# Total GULP energy -178748.633645 kJ/mol
# GULP energy per Si atom -5585.894801 kJ/mol
# Density = 2.238422 g / cm^3
# Si number density = 22.435280 Si / 1000 Ang^3
#
#
#
# Elastic Constant Matrix: (Units=GPa)
#
#
# Indices 1 2 3 4 5 6 
#
# 1 96.8686 12.3294 -7.9257 0.0000 0.0000 0.0000
# 2 12.3294 25.6297 1.1720 0.0000 0.0000 0.0000
# 3 -7.9257 1.1720 41.0754 0.0000 0.0000 0.0000
# 4 0.0000 0.0000 0.0000 -12.5764 0.0000 0.0000
# 5 0.0000 0.0000 0.0000 0.0000 -209.4918 0.0000
# 6 0.0000 0.0000 0.0000 0.0000 0.0000 19.5416
#
#
#
# Elastic Compliance Matrix: (Units=1/GPa)
#
#
# Indices 1 2 3 4 5 6 
#
# 1 0.011213 -0.005500 0.002321 0.000000 0.000000 0.000000
# 2 -0.005500 0.041766 -0.002253 0.000000 0.000000 0.000000
# 3 0.002321 -0.002253 0.024858 0.000000 0.000000 0.000000
# 4 0.000000 0.000000 0.000000 -0.079514 0.000000 0.000000
# 5 0.000000 0.000000 0.000000 0.000000 -0.004773 0.000000
# 6 0.000000 0.000000 0.000000 0.000000 0.000000 0.051173
#
#
# Mechanical properties :
#
#
# Convention : Reuss Voigt Hill
#
# Bulk Modulus (GPa) = 14.93173 19.41390 17.17282
# Shear Modulus (GPa) = 64.17526 -29.97210 17.10158
#
# Velocity S-wave (km/s) = 5.35413 -3.65901 2.76391
# Velocity P-wave (km/s) = 6.70016 3.02970 4.22570
#
# Compressibility (1/GPa) = 0.06697148
#
# Stress axis : x y z
#
# Youngs Moduli (GPa) = 89.18053 23.94278 40.22924
#
# Poissons Ratio (x) = 0.13169 -0.09336
# Poissons Ratio (y) = 0.49052 0.09064
# Poissons Ratio (z) = -0.20695 0.05394
#
# Static dielectric constant tensor:
#      x y z
#    x 1.909610 0.000000 0.000000 
#    y 0.000000 1.922660 0.000000 
#    z 0.000000 0.000000 1.810360 
# 
# From -- ./inp_files/28567.got.cif
#   From: 2010.05.17/outbox.cif.g08.bks.cpg/sg23_15_cif.got.tgz:28567.got - 2010.06.04 12:02:01.
