data_PCOD9331952
_publ_section_title
;
Structure prediction by ZEFSAII (Michael W. Deem and Ramdas Pophale) SiO2 
 PCOD9331952
Probable space group: I 2 2 2
;
_chemical_formula_sum "Si O2"
_cell_formula_units_Z 42
_cell_length_a 10.608740
_cell_length_b 19.501458
_cell_length_c 7.884574
_cell_angle_alpha 90.000000
_cell_angle_beta 90.000000
_cell_angle_gamma 90.000000
_cell_volume 1631.207169
_symmetry_space_group_name_H-M "I 2 2 2"
_symmetry_group_IT_number 23
_symmetry_cell_setting 'orthorhombic'
loop_
_space_group_symop_operation_xyz
x,y,z
-x,-y,z
x,-y,-z
-x,y,-z
1/2+x,1/2+y,1/2+z
1/2-x,1/2-y,1/2+z
1/2+x,1/2-y,1/2-z
1/2-x,1/2+y,1/2-z
loop_
_atom_site_type_symbol
_atom_site_label
_atom_site_fract_x
_atom_site_fract_y
_atom_site_fract_z
Si Si1 0.331543 0.124898 0.718972
Si Si2 0.000000 0.000000 0.500000
Si Si3 0.734821 0.591240 0.872813
Si Si4 0.000000 0.190721 0.000000
Si Si5 0.320769 0.572890 0.468519
Si Si6 0.500000 0.167111 0.000000
Si Si7 0.189032 0.736035 0.256590
O O1 0.319532 0.085150 0.542300
O O2 0.287183 0.204067 0.698896
O O3 0.231697 0.094679 0.851024
O O4 0.456370 0.126439 0.832457
O O5 0.100574 0.052556 0.409547
O O6 0.774966 0.562808 0.688253
O O7 0.745262 0.672967 0.839078
O O8 0.920268 0.234215 0.133566
O O9 0.091789 0.135494 0.088012
O O10 0.379080 0.500000 0.500000
O O11 0.381740 0.210322 0.072473
#
# Coordination Sequence:
#
# PCOD9331952 Si02
#       7
#     8   2   8   4   8   4   8
#     4  11  26  45  75 115 164 210 274 334 407 495
#     4  12  32  50  90 114 154 226 262 340 430 482
#     4  12  27  49  74 119 161 206 275 344 401 499
#     4  10  25  42  74 119 154 224 258 334 432 471
#     4  11  25  47  73 112 166 213 274 337 394 503
#     4  12  24  47  77 114 158 222 262 332 432 476
#     4  11  25  43  74 116 164 204 270 341 404 494
#
# _framework density 25.747802
#
# number of rings (size 3 to 8) (size 9 to 14) (size 15 to 20)
#    0.000    0.762    1.905    3.714   16.000    0.762 
#    0.000    0.476    0.000    4.000    0.000    0.000 
#    0.000    0.000    0.000    0.000    0.000    0.000 
#
# Total GULP energy -117257.490966 kJ/mol
# GULP energy per Si atom -5583.690046 kJ/mol
# Density = 2.568920 g / cm^3
# Si number density = 25.747802 Si / 1000 Ang^3
#
#
#
# Elastic Constant Matrix: (Units=GPa)
#
#
# Indices 1 2 3 4 5 6 
#
# 1 84.5926 40.3667 21.7325 0.0007 -0.0001 0.0000
# 2 40.3667 139.0776 37.6998 0.0005 -0.0001 0.0000
# 3 21.7325 37.6998 188.0384 0.0020 -0.0006 0.0001
# 4 0.0007 0.0005 0.0020 30.6667 -0.0002 0.0001
# 5 -0.0001 -0.0001 -0.0006 -0.0002 30.6752 -0.0001
# 6 0.0000 0.0000 0.0001 0.0001 -0.0001 -14.4152
#
#
#
# Elastic Compliance Matrix: (Units=1/GPa)
#
#
# Indices 1 2 3 4 5 6 
#
# 1 0.013846 -0.003791 -0.000840 0.000000 0.000000 0.000000
# 2 -0.003791 0.008641 -0.001294 0.000000 0.000000 0.000000
# 3 -0.000840 -0.001294 0.005675 0.000000 0.000000 0.000000
# 4 0.000000 0.000000 0.000000 0.032609 0.000000 0.000000
# 5 0.000000 0.000000 0.000000 0.000000 0.032600 0.000000
# 6 0.000000 0.000000 0.000000 0.000000 0.000000 -0.069371
#
#
# Mechanical properties :
#
#
# Convention : Reuss Voigt Hill
#
# Bulk Modulus (GPa) = 61.30797 67.92297 64.61547
# Shear Modulus (GPa) = 121.10157 30.17932 75.64044
#
# Velocity S-wave (km/s) = 6.86556 3.42733 5.42598
# Velocity P-wave (km/s) = 9.31184 6.48841 8.02527
#
# Compressibility (1/GPa) = 0.01631109
#
# Stress axis : x y z
#
# Youngs Moduli (GPa) = 72.22156 115.72144 176.22145
#
# Poissons Ratio (x) = 0.43871 0.14806
# Poissons Ratio (y) = 0.27380 0.22810
# Poissons Ratio (z) = 0.06068 0.14979
#
# Static dielectric constant tensor:
#      x y z
#    x 2.184600 0.000000 0.000000 
#    y 0.000000 2.027840 0.000000 
#    z 0.000000 0.000000 2.103510 
# 
# From -- ./inp_files/8519.got.cif
#   From: 2010.05.17/outbox.cif.g08.bks.cpg/sg23_5_cif.got.tgz:8519.got - 2010.06.04 12:02:01.
