data_PCOD9331326
_publ_section_title
;
Structure prediction by ZEFSAII (Michael W. Deem and Ramdas Pophale) SiO2 
 PCOD9331326
Probable space group: I 2 2 2
;
_chemical_formula_sum "Si O2"
_cell_formula_units_Z 48
_cell_length_a 10.024396
_cell_length_b 19.571438
_cell_length_c 11.202367
_cell_angle_alpha 90.000000
_cell_angle_beta 90.000000
_cell_angle_gamma 90.000000
_cell_volume 2197.813048
_symmetry_space_group_name_H-M "I 2 2 2"
_symmetry_group_IT_number 23
_symmetry_cell_setting 'orthorhombic'
loop_
_space_group_symop_operation_xyz
x,y,z
-x,-y,z
x,-y,-z
-x,y,-z
1/2+x,1/2+y,1/2+z
1/2-x,1/2-y,1/2+z
1/2+x,1/2-y,1/2-z
1/2-x,1/2+y,1/2-z
loop_
_atom_site_type_symbol
_atom_site_label
_atom_site_fract_x
_atom_site_fract_y
_atom_site_fract_z
Si Si1 0.708905 0.158820 0.442193
Si Si2 0.868517 0.796918 0.959383
Si Si3 0.604423 0.154421 0.921305
Si Si4 0.355600 0.019143 0.641055
Si Si5 0.962075 0.204930 0.307391
Si Si6 0.222691 0.108071 0.298869
O O1 0.632885 0.230306 0.452583
O O2 0.652817 0.100747 0.356766
O O3 0.859016 0.169823 0.398259
O O4 0.712338 0.132930 0.577506
O O5 0.886969 0.784330 0.819046
O O6 0.726406 0.827686 0.990016
O O7 0.000000 0.838076 0.000000
O O8 0.523455 0.220563 0.868448
O O9 0.680001 0.123844 0.809421
O O10 0.500000 0.112690 0.000000
O O11 0.500000 0.000000 0.692443
O O12 0.357821 0.000000 0.500000
O O13 0.231145 0.974958 0.691390
O O14 0.089026 0.154752 0.289794
#
# Coordination Sequence:
#
# PCOD9331326 Si02
#       6
#     8   8   8   8   8   8
#     4  10  22  38  62  94 127 174 225 287 344 413
#     4  11  22  37  63  96 135 174 221 280 355 421
#     4  11  24  38  61  98 138 178 226 280 355 431
#     4   9  21  38  60  92 125 171 228 279 346 407
#     4  11  22  39  63  95 133 176 229 279 363 413
#     4  11  21  40  62  91 135 175 225 295 336 422
#
# _framework density 21.839891000000001
#
# number of rings (size 3 to 8) (size 9 to 14) (size 15 to 20)
#    0.000    1.500    3.333    2.500    4.667    2.000 
#    0.000    2.500    0.000    3.500    0.000    0.000 
#    0.000    0.000    0.000    0.000    0.000    0.000 
#
# Total GULP energy -133747.435648 kJ/mol
# GULP energy per Si atom -5572.809819 kJ/mol
# Density = 2.179018 g / cm^3
# Si number density = 21.839891 Si / 1000 Ang^3
#
#
#
# Elastic Constant Matrix: (Units=GPa)
#
#
# Indices 1 2 3 4 5 6 
#
# 1 117.4264 32.6211 37.2893 0.0001 0.0000 0.0000
# 2 32.6211 37.0359 1.4486 0.0004 -0.0001 -0.0002
# 3 37.2893 1.4486 104.2907 0.0005 -0.0001 -0.0001
# 4 0.0001 0.0004 0.0005 7.5426 -0.0001 -0.0001
# 5 0.0000 -0.0001 -0.0001 -0.0001 43.7235 0.0000
# 6 0.0000 -0.0002 -0.0001 -0.0001 0.0000 17.4974
#
#
#
# Elastic Compliance Matrix: (Units=1/GPa)
#
#
# Indices 1 2 3 4 5 6 
#
# 1 0.013115 -0.011374 -0.004531 0.000001 0.000000 0.000000
# 2 -0.011374 0.036880 0.003555 -0.000002 0.000000 0.000000
# 3 -0.004531 0.003555 0.011159 -0.000001 0.000000 0.000000
# 4 0.000001 -0.000002 -0.000001 0.132580 0.000000 0.000001
# 5 0.000000 0.000000 0.000000 0.000000 0.022871 0.000000
# 6 0.000000 0.000000 0.000000 0.000001 0.000000 0.057151
#
#
# Mechanical properties :
#
#
# Convention : Reuss Voigt Hill
#
# Bulk Modulus (GPa) = 27.43281 44.60788 36.02035
# Shear Modulus (GPa) = 16.09742 26.24563 21.17152
#
# Velocity S-wave (km/s) = 2.71784 3.47036 3.11689
# Velocity P-wave (km/s) = 4.73677 6.04377 5.42974
#
# Compressibility (1/GPa) = 0.03645269
#
# Stress axis : x y z
#
# Youngs Moduli (GPa) = 76.25090 27.11487 89.61104
#
# Poissons Ratio (x) = 0.30841 0.40604
# Poissons Ratio (y) = 0.86729 -0.31853
# Poissons Ratio (z) = 0.34551 -0.09638
#
# Static dielectric constant tensor:
#      x y z
#    x 1.848900 0.000000 0.000000 
#    y 0.000000 1.896080 0.000000 
#    z 0.000000 0.000000 1.818600 
# 
# From -- ./inp_files/14741.got.cif
#   From: 2010.05.17/outbox.cif.g08.bks.cpg/sg23_8_cif.got.tgz:14741.got - 2010.06.04 12:02:01.
