data_PCOD9331889
_publ_section_title
;
Structure prediction by ZEFSAII (Michael W. Deem and Ramdas Pophale) SiO2 
 PCOD9331889
Probable space group: I 2 2 2
;
_chemical_formula_sum "Si O2"
_cell_formula_units_Z 48
_cell_length_a 8.440521
_cell_length_b 7.970291
_cell_length_c 30.654014
_cell_angle_alpha 90.000000
_cell_angle_beta 90.000000
_cell_angle_gamma 90.000000
_cell_volume 2062.200008
_symmetry_space_group_name_H-M "I 2 2 2"
_symmetry_group_IT_number 23
_symmetry_cell_setting 'orthorhombic'
loop_
_space_group_symop_operation_xyz
x,y,z
-x,-y,z
x,-y,-z
-x,y,-z
1/2+x,1/2+y,1/2+z
1/2-x,1/2-y,1/2+z
1/2+x,1/2-y,1/2-z
1/2-x,1/2+y,1/2-z
loop_
_atom_site_type_symbol
_atom_site_label
_atom_site_fract_x
_atom_site_fract_y
_atom_site_fract_z
Si Si1 0.340530 0.240384 0.205802
Si Si2 0.000000 0.000000 0.000000
Si Si3 0.000000 0.000000 0.568066
Si Si4 0.163461 0.419352 0.799906
Si Si5 0.876222 0.272985 0.636745
Si Si6 0.258760 0.235897 0.048699
Si Si7 0.171041 0.080447 0.132204
Si Si8 0.000000 0.500000 0.500000
O O1 0.291950 0.433950 0.206889
O O2 0.364746 0.172980 0.254107
O O3 0.490204 0.212450 0.174221
O O4 0.200419 0.138819 0.181552
O O5 0.110354 0.134610 0.026319
O O6 0.064937 0.851418 0.599357
O O7 0.847432 0.917194 0.543668
O O8 0.227220 0.301222 0.837337
O O9 0.000000 0.500000 0.813923
O O10 0.809054 0.448068 0.619864
O O11 0.206344 0.232002 0.099311
O O12 0.396749 0.116423 0.031062
O O13 0.000000 0.000000 0.125912
#
# Coordination Sequence:
#
# PCOD9331889 Si02
#       8
#     8   2   4   8   8   8   8   2
#     4  12  24  42  63  98 134 196 249 305 367 435
#     4  10  24  50  84 118 152 192 244 300 384 464
#     4  12  24  45  78 111 152 194 244 299 370 445
#     4  12  24  40  60  93 141 185 245 314 368 416
#     4  12  24  43  68 101 143 192 252 297 362 444
#     4  11  23  46  78 112 147 190 238 298 366 453
#     4  12  24  42  72 101 136 191 243 297 367 439
#     4  10  24  44  80 106 144 196 236 274 364 480
#
# _framework density 23.276111
#
# number of rings (size 3 to 8) (size 9 to 14) (size 15 to 20)
#    0.000    0.333    4.167    5.500    0.000    1.667 
#    0.000    0.000    3.667    0.000    0.000    0.000 
#    0.000    0.000    0.000    0.000    0.000    0.000 
#
# Total GULP energy -134146.651067 kJ/mol
# GULP energy per Si atom -5589.443794 kJ/mol
# Density = 2.322313 g / cm^3
# Si number density = 23.276111 Si / 1000 Ang^3
#
#
#
# Elastic Constant Matrix: (Units=GPa)
#
#
# Indices 1 2 3 4 5 6 
#
# 1 103.5993 11.0000 32.4711 0.0000 0.0000 0.0000
# 2 11.0000 72.8127 21.4261 0.0000 0.0000 0.0000
# 3 32.4711 21.4261 83.0918 0.0000 0.0000 0.0000
# 4 0.0000 0.0000 0.0000 30.1230 0.0000 0.0000
# 5 0.0000 0.0000 0.0000 0.0000 -3.4903 0.0000
# 6 0.0000 0.0000 0.0000 0.0000 0.0000 49.9559
#
#
#
# Elastic Compliance Matrix: (Units=1/GPa)
#
#
# Indices 1 2 3 4 5 6 
#
# 1 0.011012 -0.000430 -0.004193 0.000000 0.000000 0.000000
# 2 -0.000430 0.014878 -0.003669 0.000000 0.000000 0.000000
# 3 -0.004193 -0.003669 0.014619 0.000000 0.000000 0.000000
# 4 0.000000 0.000000 0.000000 0.033197 0.000000 0.000000
# 5 0.000000 0.000000 0.000000 0.000000 -0.286510 0.000000
# 6 0.000000 0.000000 0.000000 0.000000 0.000000 0.020018
#
#
# Mechanical properties :
#
#
# Convention : Reuss Voigt Hill
#
# Bulk Modulus (GPa) = 41.79237 43.25533 42.52385
# Shear Modulus (GPa) = -29.72167 28.29152 -0.71508
#
# Velocity S-wave (km/s) = -3.57727 3.49015 -0.55487
# Velocity P-wave (km/s) = 0.96514 5.90470 4.23066
#
# Compressibility (1/GPa) = 0.02392781
#
# Stress axis : x y z
#
# Youngs Moduli (GPa) = 90.80750 67.21182 68.40301
#
# Poissons Ratio (x) = 0.02890 0.28679
# Poissons Ratio (y) = 0.03904 0.25094
# Poissons Ratio (z) = 0.38072 0.24657
#
# Static dielectric constant tensor:
#      x y z
#    x 1.911940 0.000000 0.000000 
#    y 0.000000 1.966470 0.000000 
#    z 0.000000 0.000000 1.872080 
# 
# From -- ./inp_files/30276.got.cif
#   From: 2010.05.17/outbox.cif.g08.bks.cpg/sg23_16_cif.got.tgz:30276.got - 2010.06.04 12:02:01.
