data_PCOD9331670
_publ_section_title
;
Structure prediction by ZEFSAII (Michael W. Deem and Ramdas Pophale) SiO2 
 PCOD9331670
Probable space group: I 2 2 2
;
_chemical_formula_sum "Si O2"
_cell_formula_units_Z 32
_cell_length_a 13.999862
_cell_length_b 8.902493
_cell_length_c 9.279749
_cell_angle_alpha 90.000000
_cell_angle_beta 90.000000
_cell_angle_gamma 90.000000
_cell_volume 1156.569207
_symmetry_space_group_name_H-M "I 2 2 2"
_symmetry_group_IT_number 23
_symmetry_cell_setting 'orthorhombic'
loop_
_space_group_symop_operation_xyz
x,y,z
-x,-y,z
x,-y,-z
-x,y,-z
1/2+x,1/2+y,1/2+z
1/2-x,1/2-y,1/2+z
1/2+x,1/2-y,1/2-z
1/2-x,1/2+y,1/2-z
loop_
_atom_site_type_symbol
_atom_site_label
_atom_site_fract_x
_atom_site_fract_y
_atom_site_fract_z
Si Si1 0.190228 0.350155 0.908800
Si Si2 0.613557 0.544776 0.661932
Si Si3 0.340748 0.277865 0.129488
Si Si4 0.997221 0.319739 0.783941
O O1 0.206680 0.344299 0.737121
O O2 0.082038 0.283496 0.900127
O O3 0.178097 0.500000 0.000000
O O4 0.280551 0.275944 0.985939
O O5 0.500000 0.500000 0.667204
O O6 0.648410 0.500000 0.500000
O O7 0.659648 0.439784 0.788069
O O8 0.598209 0.724133 0.692949
O O9 0.451007 0.232275 0.136472
O O10 0.000000 0.500000 0.785031
#
# Coordination Sequence:
#
# PCOD9331670 Si02
#       4
#     8   8   8   8
#     4  10  23  41  67 107 141 184 230 302 353 424
#     4   9  18  34  63 101 125 177 240 277 330 427
#     4   9  22  41  67 103 141 180 232 292 359 419
#     4   9  21  40  72 103 132 178 248 290 338 427
#
# _framework density 27.668036000000001
#
# number of rings (size 3 to 8) (size 9 to 14) (size 15 to 20)
#    1.500    1.250    0.000    0.000    3.500    4.500 
#    4.500    0.000    5.500    8.250   19.500    0.000 
#    0.000    0.000    0.000    0.000    0.000    0.000 
#
# Total GULP energy -89147.854710 kJ/mol
# GULP energy per Si atom -5571.740919 kJ/mol
# Density = 2.760506 g / cm^3
# Si number density = 27.668036 Si / 1000 Ang^3
#
#
#
# Elastic Constant Matrix: (Units=GPa)
#
#
# Indices 1 2 3 4 5 6 
#
# 1 82.0727 14.2993 43.0397 0.0000 0.0000 0.0000
# 2 14.2993 168.4652 11.1984 0.0000 0.0000 0.0000
# 3 43.0397 11.1984 154.7363 0.0000 0.0000 0.0000
# 4 0.0000 0.0000 0.0000 16.5737 0.0000 0.0000
# 5 0.0000 0.0000 0.0000 0.0000 63.7451 0.0000
# 6 0.0000 0.0000 0.0000 0.0000 0.0000 23.6098
#
#
#
# Elastic Compliance Matrix: (Units=1/GPa)
#
#
# Indices 1 2 3 4 5 6 
#
# 1 0.014419 -0.000962 -0.003941 0.000000 0.000000 0.000000
# 2 -0.000962 0.006029 -0.000169 0.000000 0.000000 0.000000
# 3 -0.003941 -0.000169 0.007571 0.000000 0.000000 0.000000
# 4 0.000000 0.000000 0.000000 0.060336 0.000000 0.000000
# 5 0.000000 0.000000 0.000000 0.000000 0.015687 0.000000
# 6 0.000000 0.000000 0.000000 0.000000 0.000000 0.042355
#
#
# Mechanical properties :
#
#
# Convention : Reuss Voigt Hill
#
# Bulk Modulus (GPa) = 55.94323 60.26099 58.10211
# Shear Modulus (GPa) = 30.76943 43.23485 37.00214
#
# Velocity S-wave (km/s) = 3.33842 3.95730 3.66096
# Velocity P-wave (km/s) = 5.92650 6.53510 6.23823
#
# Compressibility (1/GPa) = 0.01787526
#
# Stress axis : x y z
#
# Youngs Moduli (GPa) = 69.35512 165.87030 132.08341
#
# Poissons Ratio (x) = 0.15955 0.52053
# Poissons Ratio (y) = 0.06671 0.02229
# Poissons Ratio (z) = 0.27332 0.02799
#
# Static dielectric constant tensor:
#      x y z
#    x 2.357860 0.000000 0.000000 
#    y 0.000000 2.418410 0.000000 
#    z 0.000000 0.000000 2.344250 
# 
# From -- ./inp_files/16290.got.cif
#   From: 2010.05.17/outbox.cif.g08.bks.cpg/sg23_9_cif.got.tgz:16290.got - 2010.06.04 12:02:01.
