data_PCOD9331761
_publ_section_title
;
Structure prediction by ZEFSAII (Michael W. Deem and Ramdas Pophale) SiO2 
 PCOD9331761
Probable space group: I 2 2 2
;
_chemical_formula_sum "Si O2"
_cell_formula_units_Z 38
_cell_length_a 8.040731
_cell_length_b 9.278438
_cell_length_c 21.928706
_cell_angle_alpha 90.000000
_cell_angle_beta 90.000000
_cell_angle_gamma 90.000000
_cell_volume 1636.000410
_symmetry_space_group_name_H-M "I 2 2 2"
_symmetry_group_IT_number 23
_symmetry_cell_setting 'orthorhombic'
loop_
_space_group_symop_operation_xyz
x,y,z
-x,-y,z
x,-y,-z
-x,y,-z
1/2+x,1/2+y,1/2+z
1/2-x,1/2-y,1/2+z
1/2+x,1/2-y,1/2-z
1/2-x,1/2+y,1/2-z
loop_
_atom_site_type_symbol
_atom_site_label
_atom_site_fract_x
_atom_site_fract_y
_atom_site_fract_z
Si Si1 0.800318 0.025103 0.430693
Si Si2 0.608535 0.287457 0.768716
Si Si3 0.000000 0.000000 0.833320
Si Si4 0.000000 0.500000 0.500000
Si Si5 0.690068 0.154891 0.890893
Si Si6 0.185042 0.554904 0.186057
O O1 0.748283 0.185914 0.410576
O O2 0.756035 0.000000 0.500000
O O3 0.710097 0.915924 0.384779
O O4 0.000000 0.000000 0.424298
O O5 0.518293 0.360311 0.710322
O O6 0.575367 0.189072 0.829854
O O7 0.691562 0.427277 0.797502
O O8 0.728740 0.185619 0.729250
O O9 0.835785 0.043514 0.871789
O O10 0.100998 0.597320 0.451642
O O11 0.000000 0.500000 0.199717
#
# Coordination Sequence:
#
# PCOD9331761 Si02
#       6
#     8   8   4   2   8   8
#     4  10  23  45  71 103 145 197 250 308 377 463
#     4  11  24  45  71 111 142 192 246 321 382 444
#     4  12  26  49  78 111 158 196 256 324 392 466
#     4  12  28  50  70 112 152 206 262 314 380 466
#     4  11  27  46  74 107 152 206 255 314 388 460
#     4  11  25  41  69 102 143 183 244 302 375 446
#
# _framework density 23.227378000000002
#
# number of rings (size 3 to 8) (size 9 to 14) (size 15 to 20)
#    0.000    1.053    2.105    3.789    7.368    5.895 
#    0.000    4.211    0.000    0.000    0.000    0.000 
#    0.000    0.000    0.000    0.000    0.000    0.000 
#
# Total GULP energy -105866.975824 kJ/mol
# GULP energy per Si atom -5571.946096 kJ/mol
# Density = 2.317451 g / cm^3
# Si number density = 23.227378 Si / 1000 Ang^3
#
#
#
# Elastic Constant Matrix: (Units=GPa)
#
#
# Indices 1 2 3 4 5 6 
#
# 1 42.7083 6.3616 32.3683 0.0000 0.0000 0.0000
# 2 6.3616 78.1012 49.8362 0.0000 0.0000 0.0000
# 3 32.3683 49.8362 210.9613 0.0000 0.0000 0.0000
# 4 0.0000 0.0000 0.0000 68.1576 0.0000 0.0000
# 5 0.0000 0.0000 0.0000 0.0000 59.2066 0.0000
# 6 0.0000 0.0000 0.0000 0.0000 0.0000 29.0655
#
#
#
# Elastic Compliance Matrix: (Units=1/GPa)
#
#
# Indices 1 2 3 4 5 6 
#
# 1 0.026513 0.000514 -0.004189 0.000000 0.000000 0.000000
# 2 0.000514 0.015087 -0.003643 0.000000 0.000000 0.000000
# 3 -0.004189 -0.003643 0.006244 0.000000 0.000000 0.000000
# 4 0.000000 0.000000 0.000000 0.014672 0.000000 0.000000
# 5 0.000000 0.000000 0.000000 0.000000 0.016890 0.000000
# 6 0.000000 0.000000 0.000000 0.000000 0.000000 0.034405
#
#
# Mechanical properties :
#
#
# Convention : Reuss Voigt Hill
#
# Bulk Modulus (GPa) = 30.11479 56.54478 43.32978
# Shear Modulus (GPa) = 35.83824 47.49959 41.66892
#
# Velocity S-wave (km/s) = 3.93228 4.52705 4.24011
# Velocity P-wave (km/s) = 5.79745 7.19184 6.53196
#
# Compressibility (1/GPa) = 0.03320628
#
# Stress axis : x y z
#
# Youngs Moduli (GPa) = 37.71710 66.28442 160.16601
#
# Poissons Ratio (x) = -0.03404 0.67098
# Poissons Ratio (y) = -0.01937 0.58344
# Poissons Ratio (z) = 0.15801 0.24146
#
# Static dielectric constant tensor:
#      x y z
#    x 1.890250 0.000000 0.000000 
#    y 0.000000 1.858260 0.000000 
#    z 0.000000 0.000000 1.883900 
# 
# From -- ./inp_files/27896.got.cif
#   From: 2010.05.17/outbox.cif.g08.bks.cpg/sg23_14_cif.got.tgz:27896.got - 2010.06.04 12:02:01.
