data_PCOD9331070
_publ_section_title
;
Structure prediction by ZEFSAII (Michael W. Deem and Ramdas Pophale) SiO2 
 PCOD9331070
Probable space group: I 2 2 2
;
_chemical_formula_sum "Si O2"
_cell_formula_units_Z 56
_cell_length_a 21.444480
_cell_length_b 15.697886
_cell_length_c 7.914805
_cell_angle_alpha 90.000000
_cell_angle_beta 90.000000
_cell_angle_gamma 90.000000
_cell_volume 2664.384570
_symmetry_space_group_name_H-M "I 2 2 2"
_symmetry_group_IT_number 23
_symmetry_cell_setting 'orthorhombic'
loop_
_space_group_symop_operation_xyz
x,y,z
-x,-y,z
x,-y,-z
-x,y,-z
1/2+x,1/2+y,1/2+z
1/2-x,1/2-y,1/2+z
1/2+x,1/2-y,1/2-z
1/2-x,1/2+y,1/2-z
loop_
_atom_site_type_symbol
_atom_site_label
_atom_site_fract_x
_atom_site_fract_y
_atom_site_fract_z
Si Si1 0.619228 0.057140 0.329001
Si Si2 0.000000 0.802559 0.000000
Si Si3 0.702896 0.500000 0.500000
Si Si4 0.646996 0.265140 0.976678
Si Si5 0.129575 0.846940 0.114883
Si Si6 0.292317 0.188640 0.501539
Si Si7 0.460708 0.796406 0.174137
Si Si8 0.683033 0.907796 0.155322
O O1 0.676453 0.123766 0.365162
O O2 0.564534 0.115668 0.255886
O O3 0.606471 0.000000 0.500000
O O4 0.641006 0.988888 0.192325
O O5 0.996810 0.745460 0.169007
O O6 0.063447 0.853955 0.023352
O O7 0.662551 0.438076 0.616049
O O8 0.749721 0.560416 0.600719
O O9 0.623918 0.308673 0.803605
O O10 0.652964 0.162648 0.962688
O O11 0.718236 0.297360 0.992588
O O12 0.595539 0.269324 0.123251
O O13 0.171643 0.778503 0.010130
O O14 0.307851 0.142799 0.327649
O O15 0.500000 0.807999 0.000000
#
# Coordination Sequence:
#
# PCOD9331070 Si02
#       8
#     8   4   4   8   8   8   8   8
#     4  10  22  42  68 102 145 178 224 295 356 416
#     4  12  26  49  69  98 136 188 252 288 333 429
#     4  12  22  39  64 106 139 182 220 302 358 414
#     4  11  23  41  69 105 133 182 234 283 348 430
#     4  11  24  41  69  98 137 183 237 283 354 411
#     4  10  21  39  69  99 135 183 220 283 357 419
#     4  12  26  46  73  98 139 196 241 287 336 423
#     4  10  22  37  63 106 144 167 220 285 357 424
#
# _framework density 21.017987000000002
#
# number of rings (size 3 to 8) (size 9 to 14) (size 15 to 20)
#    0.000    1.143    4.286    1.714    6.000    0.286 
#    0.000    4.643    0.000    0.000    0.000    0.000 
#    0.000    0.000    0.000    0.000    0.000    0.000 
#
# Total GULP energy -156334.997051 kJ/mol
# GULP energy per Si atom -5583.392752 kJ/mol
# Density = 2.097015 g / cm^3
# Si number density = 21.017987 Si / 1000 Ang^3
#
#
#
# Elastic Constant Matrix: (Units=GPa)
#
#
# Indices 1 2 3 4 5 6 
#
# 1 69.9098 -10.1198 16.1717 0.0000 0.0000 0.0000
# 2 -10.1198 53.8779 13.4902 0.0000 0.0000 0.0000
# 3 16.1717 13.4902 87.3522 0.0000 0.0000 0.0000
# 4 0.0000 0.0000 0.0000 17.6790 0.0000 0.0000
# 5 0.0000 0.0000 0.0000 0.0000 58.9743 0.0000
# 6 0.0000 0.0000 0.0000 0.0000 0.0000 18.5251
#
#
#
# Elastic Compliance Matrix: (Units=1/GPa)
#
#
# Indices 1 2 3 4 5 6 
#
# 1 0.015664 0.003816 -0.003489 0.000000 0.000000 0.000000
# 2 0.003816 0.020237 -0.003832 0.000000 0.000000 0.000000
# 3 -0.003489 -0.003832 0.012686 0.000000 0.000000 0.000000
# 4 0.000000 0.000000 0.000000 0.056564 0.000000 0.000000
# 5 0.000000 0.000000 0.000000 0.000000 0.016957 0.000000
# 6 0.000000 0.000000 0.000000 0.000000 0.000000 0.053981
#
#
# Mechanical properties :
#
#
# Convention : Reuss Voigt Hill
#
# Bulk Modulus (GPa) = 24.05253 27.80267 25.92760
# Shear Modulus (GPa) = 25.38635 31.80885 28.59760
#
# Velocity S-wave (km/s) = 3.47917 3.89448 3.69267
# Velocity P-wave (km/s) = 5.25434 5.78614 5.52664
#
# Compressibility (1/GPa) = 0.04157567
#
# Stress axis : x y z
#
# Youngs Moduli (GPa) = 63.84234 49.41546 78.82964
#
# Poissons Ratio (x) = -0.18855 0.27504
# Poissons Ratio (y) = -0.24360 0.30205
# Poissons Ratio (z) = 0.22275 0.18934
#
# Static dielectric constant tensor:
#      x y z
#    x 1.847640 0.000000 0.000000 
#    y 0.000000 1.701260 0.000000 
#    z 0.000000 0.000000 1.884480 
# 
# From -- ./inp_files/12077.got.cif
#   From: 2010.05.17/outbox.cif.g08.bks.cpg/sg23_7_cif.got.tgz:12077.got - 2010.06.04 12:02:01.
