data_PCOD9331715
_publ_section_title
;
Structure prediction by ZEFSAII (Michael W. Deem and Ramdas Pophale) SiO2 
 PCOD9331715
Probable space group: I 2 2 2
;
_chemical_formula_sum "Si O2"
_cell_formula_units_Z 40
_cell_length_a 10.076836
_cell_length_b 13.093899
_cell_length_c 14.054504
_cell_angle_alpha 90.000000
_cell_angle_beta 90.000000
_cell_angle_gamma 90.000000
_cell_volume 1854.422554
_symmetry_space_group_name_H-M "I 2 2 2"
_symmetry_group_IT_number 23
_symmetry_cell_setting 'orthorhombic'
loop_
_space_group_symop_operation_xyz
x,y,z
-x,-y,z
x,-y,-z
-x,y,-z
1/2+x,1/2+y,1/2+z
1/2-x,1/2-y,1/2+z
1/2+x,1/2-y,1/2-z
1/2-x,1/2+y,1/2-z
loop_
_atom_site_type_symbol
_atom_site_label
_atom_site_fract_x
_atom_site_fract_y
_atom_site_fract_z
Si Si1 0.810415 0.205790 0.905988
Si Si2 0.531958 0.881949 0.603883
Si Si3 0.297160 0.095468 0.922989
Si Si4 0.545896 0.608712 0.289299
Si Si5 0.546662 0.183212 0.806756
O O1 0.827828 0.325557 0.880219
O O2 0.690731 0.160155 0.845747
O O3 0.944222 0.148073 0.872807
O O4 0.762443 0.186419 0.012404
O O5 0.500000 0.836475 0.500000
O O6 0.454914 0.852752 0.698226
O O7 0.500000 0.000000 0.595935
O O8 0.188247 0.088333 0.838971
O O9 0.435291 0.129079 0.872618
O O10 0.305354 0.000000 0.000000
O O11 0.500000 0.500000 0.252097
O O12 0.533064 0.694924 0.207992
#
# Coordination Sequence:
#
# PCOD9331715 Si02
#       5
#     8   8   8   8   8
#     4  11  23  41  69 101 140 184 245 305 372 449
#     4  10  23  43  68  96 138 193 243 292 362 459
#     4  12  25  44  72 106 149 193 246 311 380 448
#     4  11  22  43  68  99 138 198 248 297 367 454
#     4  11  26  43  68 107 149 185 237 319 379 436
#
# _framework density 21.570058
#
# number of rings (size 3 to 8) (size 9 to 14) (size 15 to 20)
#    0.000    1.000    2.000    6.000    2.800    2.400 
#    0.000    4.000    0.000    1.200    0.000    0.000 
#    0.000    0.000    0.000    0.000    0.000    0.000 
#
# Total GULP energy -111397.724430 kJ/mol
# GULP energy per Si atom -5569.886221 kJ/mol
# Density = 2.152096 g / cm^3
# Si number density = 21.570058 Si / 1000 Ang^3
#
#
#
# Elastic Constant Matrix: (Units=GPa)
#
#
# Indices 1 2 3 4 5 6 
#
# 1 136.5855 38.0861 40.2643 0.0000 0.0000 0.0000
# 2 38.0861 134.3992 28.1925 0.0000 0.0000 0.0000
# 3 40.2643 28.1925 77.8854 0.0000 0.0000 0.0000
# 4 0.0000 0.0000 0.0000 39.1528 0.0000 0.0000
# 5 0.0000 0.0000 0.0000 0.0000 25.4871 0.0000
# 6 0.0000 0.0000 0.0000 0.0000 0.0000 22.6185
#
#
#
# Elastic Compliance Matrix: (Units=1/GPa)
#
#
# Indices 1 2 3 4 5 6 
#
# 1 0.008983 -0.001701 -0.004028 0.000000 0.000000 0.000000
# 2 -0.001701 0.008374 -0.002152 0.000000 0.000000 0.000000
# 3 -0.004028 -0.002152 0.015701 0.000000 0.000000 0.000000
# 4 0.000000 0.000000 0.000000 0.025541 0.000000 0.000000
# 5 0.000000 0.000000 0.000000 0.000000 0.039236 0.000000
# 6 0.000000 0.000000 0.000000 0.000000 0.000000 0.044212
#
#
# Mechanical properties :
#
#
# Convention : Reuss Voigt Hill
#
# Bulk Modulus (GPa) = 57.81714 62.43954 60.12834
# Shear Modulus (GPa) = 30.56733 33.60683 32.08708
#
# Velocity S-wave (km/s) = 3.76855 3.95147 3.86109
# Velocity P-wave (km/s) = 6.76746 7.05897 6.91475
#
# Compressibility (1/GPa) = 0.01729591
#
# Stress axis : x y z
#
# Youngs Moduli (GPa) = 111.31907 119.41938 63.69062
#
# Poissons Ratio (x) = 0.20309 0.25657
# Poissons Ratio (y) = 0.18931 0.13706
# Poissons Ratio (z) = 0.44844 0.25698
#
# Static dielectric constant tensor:
#      x y z
#    x 1.805680 0.000000 0.000000 
#    y 0.000000 1.770420 0.000000 
#    z 0.000000 0.000000 1.851290 
# 
# From -- ./inp_files/19792.got.cif
#   From: 2010.05.17/outbox.cif.g08.bks.cpg/sg23_10_cif.got.tgz:19792.got - 2010.06.04 12:02:01.
