data_PCOD9331333
_publ_section_title
;
Structure prediction by ZEFSAII (Michael W. Deem and Ramdas Pophale) SiO2 
 PCOD9331333
Probable space group: I 2 2 2
;
_chemical_formula_sum "Si O2"
_cell_formula_units_Z 48
_cell_length_a 30.645676
_cell_length_b 8.854173
_cell_length_c 8.155979
_cell_angle_alpha 90.000000
_cell_angle_beta 90.000000
_cell_angle_gamma 90.000000
_cell_volume 2213.060608
_symmetry_space_group_name_H-M "I 2 2 2"
_symmetry_group_IT_number 23
_symmetry_cell_setting 'orthorhombic'
loop_
_space_group_symop_operation_xyz
x,y,z
-x,-y,z
x,-y,-z
-x,y,-z
1/2+x,1/2+y,1/2+z
1/2-x,1/2-y,1/2+z
1/2+x,1/2-y,1/2-z
1/2-x,1/2+y,1/2-z
loop_
_atom_site_type_symbol
_atom_site_label
_atom_site_fract_x
_atom_site_fract_y
_atom_site_fract_z
Si Si1 0.786281 0.380140 0.619194
Si Si2 0.859754 0.924518 0.820861
Si Si3 0.218519 0.881787 0.384535
Si Si4 0.456687 0.429873 0.316592
Si Si5 0.456847 0.069565 0.316255
Si Si6 0.139878 0.439506 0.814553
O O1 0.762539 0.500000 0.500000
O O2 0.800651 0.247992 0.498769
O O3 0.752161 0.319783 0.751748
O O4 0.825018 0.470687 0.707121
O O5 0.820087 0.970824 0.705626
O O6 0.907985 0.960518 0.750465
O O7 0.854705 0.741903 0.828249
O O8 0.856343 0.000000 0.000000
O O9 0.243437 0.000000 0.500000
O O10 0.500000 0.500000 0.235561
O O11 0.455243 0.500000 0.500000
O O12 0.461765 0.249768 0.327472
O O13 0.409143 0.034189 0.245421
O O14 0.500000 0.000000 0.234915
O O15 0.455362 0.000000 0.500000
O O16 0.141980 0.500000 0.000000
#
# Coordination Sequence:
#
# PCOD9331333 Si02
#       6
#     8   8   8   8   8   8
#     4  12  25  46  68  91 130 169 215 271 329 392
#     4  10  22  40  63  94 131 166 214 266 317 384
#     4  12  27  43  65  96 123 168 217 267 327 393
#     4   9  16  29  53  86 123 165 204 255 315 363
#     4   9  16  29  51  88 126 158 208 258 308 371
#     4  10  22  38  65  95 127 171 212 265 324 378
#
# _framework density 21.689419000000001
#
# number of rings (size 3 to 8) (size 9 to 14) (size 15 to 20)
#    0.000    1.667    1.667    4.000    4.667    1.333 
#    0.000    0.000    0.000    1.000    0.000    0.000 
#    0.000    0.000    0.000    0.000    0.000    0.000 
#
# Total GULP energy -133949.268513 kJ/mol
# GULP energy per Si atom -5581.219521 kJ/mol
# Density = 2.164005 g / cm^3
# Si number density = 21.689419 Si / 1000 Ang^3
#
#
#
# Elastic Constant Matrix: (Units=GPa)
#
#
# Indices 1 2 3 4 5 6 
#
# 1 162.3666 47.9643 51.5172 0.0000 0.0000 0.0000
# 2 47.9643 80.0221 33.4943 0.0000 0.0000 0.0000
# 3 51.5172 33.4943 69.0166 0.0000 0.0000 0.0000
# 4 0.0000 0.0000 0.0000 31.8111 0.0000 0.0000
# 5 0.0000 0.0000 0.0000 0.0000 15.3058 0.0000
# 6 0.0000 0.0000 0.0000 0.0000 0.0000 30.3307
#
#
#
# Elastic Compliance Matrix: (Units=1/GPa)
#
#
# Indices 1 2 3 4 5 6 
#
# 1 0.008647 -0.003114 -0.004944 0.000000 0.000000 0.000000
# 2 -0.003114 0.016803 -0.005830 0.000000 0.000000 0.000000
# 3 -0.004944 -0.005830 0.021009 0.000000 0.000000 0.000000
# 4 0.000000 0.000000 0.000000 0.031436 0.000000 0.000000
# 5 0.000000 0.000000 0.000000 0.000000 0.065335 0.000000
# 6 0.000000 0.000000 0.000000 0.000000 0.000000 0.032970
#
#
# Mechanical properties :
#
#
# Convention : Reuss Voigt Hill
#
# Bulk Modulus (GPa) = 53.52225 64.15077 58.83651
# Shear Modulus (GPa) = 23.78648 27.38483 25.58565
#
# Velocity S-wave (km/s) = 3.31522 3.55715 3.43831
# Velocity P-wave (km/s) = 6.27570 6.81999 6.55350
#
# Compressibility (1/GPa) = 0.01868382
#
# Stress axis : x y z
#
# Youngs Moduli (GPa) = 115.64290 59.51177 47.59880
#
# Poissons Ratio (x) = 0.18531 0.23531
# Poissons Ratio (y) = 0.36010 0.27752
# Poissons Ratio (z) = 0.57169 0.34698
#
# Static dielectric constant tensor:
#      x y z
#    x 1.838930 0.000000 0.000000 
#    y 0.000000 1.809450 0.000000 
#    z 0.000000 0.000000 1.788340 
# 
# From -- ./inp_files/13346.got.cif
#   From: 2010.05.17/outbox.cif.g08.bks.cpg/sg23_7_cif.got.tgz:13346.got - 2010.06.04 12:02:01.
