data_PCOD9331649
_publ_section_title
;
Structure prediction by ZEFSAII (Michael W. Deem and Ramdas Pophale) SiO2 
 PCOD9331649
Probable space group: I 2 2 2
;
_chemical_formula_sum "Si O2"
_cell_formula_units_Z 52
_cell_length_a 8.445652
_cell_length_b 26.371795
_cell_length_c 10.741788
_cell_angle_alpha 90.000000
_cell_angle_beta 90.000000
_cell_angle_gamma 90.000000
_cell_volume 2392.486250
_symmetry_space_group_name_H-M "I 2 2 2"
_symmetry_group_IT_number 23
_symmetry_cell_setting 'orthorhombic'
loop_
_space_group_symop_operation_xyz
x,y,z
-x,-y,z
x,-y,-z
-x,y,-z
1/2+x,1/2+y,1/2+z
1/2-x,1/2-y,1/2+z
1/2+x,1/2-y,1/2-z
1/2-x,1/2+y,1/2-z
loop_
_atom_site_type_symbol
_atom_site_label
_atom_site_fract_x
_atom_site_fract_y
_atom_site_fract_z
Si Si1 0.305862 0.714249 0.210796
Si Si2 0.000000 0.423954 0.000000
Si Si3 0.598711 0.140811 0.882051
Si Si4 0.837944 0.915913 0.948202
Si Si5 0.352163 0.681422 0.718437
Si Si6 0.590190 0.049255 0.229713
Si Si7 0.180717 0.862557 0.490200
O O1 0.182727 0.683437 0.299087
O O2 0.477220 0.707173 0.269923
O O3 0.265773 0.772729 0.194105
O O4 0.316798 0.686363 0.078505
O O5 0.931241 0.452178 0.878301
O O6 0.837893 0.393078 0.033180
O O7 0.482097 0.104104 0.806092
O O8 0.500000 0.161855 0.000000
O O9 0.722258 0.099881 0.939396
O O10 0.867598 0.861521 0.884085
O O11 0.757242 0.949709 0.841263
O O12 0.000000 0.937257 0.000000
O O13 0.304688 0.654237 0.847445
O O14 0.500000 0.000000 0.179299
O O15 0.000000 0.885463 0.500000
#
# Coordination Sequence:
#
# PCOD9331649 Si02
#       7
#     8   4   8   8   8   8   8
#     4  11  24  40  63  94 139 184 236 288 347 419
#     4  12  21  44  82  98 144 182 226 296 373 420
#     4  10  23  40  65  91 136 176 221 286 347 413
#     4  11  23  44  69  97 140 187 230 294 355 433
#     4  11  25  39  63 100 138 183 242 290 345 426
#     4  11  25  46  74 106 135 174 239 295 372 444
#     4  10  24  42  64  97 140 188 231 289 352 425
#
# _framework density 21.734712999999999
#
# number of rings (size 3 to 8) (size 9 to 14) (size 15 to 20)
#    0.000    1.231    4.615    0.231    8.615    3.385 
#    0.000    1.538    0.000    0.923    0.000    0.000 
#    0.000    0.000    0.000    0.000    0.000    0.000 
#
# Total GULP energy -145156.214429 kJ/mol
# GULP energy per Si atom -5582.931324 kJ/mol
# Density = 2.168524 g / cm^3
# Si number density = 21.734713 Si / 1000 Ang^3
#
#
#
# Elastic Constant Matrix: (Units=GPa)
#
#
# Indices 1 2 3 4 5 6 
#
# 1 136.4898 28.3109 38.4697 -0.0004 0.0002 0.0000
# 2 28.3109 65.0564 12.7738 -0.0004 -0.0001 0.0000
# 3 38.4697 12.7738 95.0031 -0.0050 0.0009 0.0000
# 4 -0.0004 -0.0004 -0.0050 -1.7792 0.0003 0.0001
# 5 0.0002 -0.0001 0.0009 0.0003 40.2319 -0.0003
# 6 0.0000 0.0000 0.0000 0.0001 -0.0003 13.7756
#
#
#
# Elastic Compliance Matrix: (Units=1/GPa)
#
#
# Indices 1 2 3 4 5 6 
#
# 1 0.008892 -0.003248 -0.003164 0.000008 0.000000 0.000000
# 2 -0.003248 0.016975 -0.000967 -0.000001 0.000000 0.000000
# 3 -0.003164 -0.000967 0.011937 -0.000033 0.000000 0.000000
# 4 0.000008 -0.000001 -0.000033 -0.562058 0.000004 0.000003
# 5 0.000000 0.000000 0.000000 0.000004 0.024856 0.000001
# 6 0.000000 0.000000 0.000000 0.000003 0.000001 0.072592
#
#
# Mechanical properties :
#
#
# Convention : Reuss Voigt Hill
#
# Bulk Modulus (GPa) = 43.39256 50.62868 47.01062
# Shear Modulus (GPa) = -12.36506 24.91200 6.27347
#
# Velocity S-wave (km/s) = -2.38777 3.38921 1.70078
# Velocity P-wave (km/s) = 3.52222 6.21773 5.05303
#
# Compressibility (1/GPa) = 0.02304542
#
# Stress axis : x y z
#
# Youngs Moduli (GPa) = 112.45955 58.91097 83.77199
#
# Poissons Ratio (x) = 0.19136 0.26505
# Poissons Ratio (y) = 0.36531 0.08101
# Poissons Ratio (z) = 0.35581 0.05697
#
# Static dielectric constant tensor:
#      x y z
#    x 1.842400 0.000000 0.000000 
#    y 0.000000 1.759470 0.000000 
#    z 0.000000 0.000000 1.813790 
# 
# From -- ./inp_files/14852.got.cif
#   From: 2010.05.17/outbox.cif.g08.bks.cpg/sg23_8_cif.got.tgz:14852.got - 2010.06.04 12:02:01.
