data_PCOD9331480
_publ_section_title
;
Structure prediction by ZEFSAII (Michael W. Deem and Ramdas Pophale) SiO2 
 PCOD9331480
Probable space group: I 2 2 2
;
_chemical_formula_sum "Si O2"
_cell_formula_units_Z 50
_cell_length_a 5.283515
_cell_length_b 25.162569
_cell_length_c 14.876132
_cell_angle_alpha 90.000000
_cell_angle_beta 90.000000
_cell_angle_gamma 90.000000
_cell_volume 1977.734306
_symmetry_space_group_name_H-M "I 2 2 2"
_symmetry_group_IT_number 23
_symmetry_cell_setting 'orthorhombic'
loop_
_space_group_symop_operation_xyz
x,y,z
-x,-y,z
x,-y,-z
-x,y,-z
1/2+x,1/2+y,1/2+z
1/2-x,1/2-y,1/2+z
1/2+x,1/2-y,1/2-z
1/2-x,1/2+y,1/2-z
loop_
_atom_site_type_symbol
_atom_site_label
_atom_site_fract_x
_atom_site_fract_y
_atom_site_fract_z
Si Si1 0.550546 0.661698 0.240637
Si Si2 0.238284 0.465469 0.725114
Si Si3 0.000000 0.298270 0.500000
Si Si4 0.348126 0.400157 0.890718
Si Si5 0.500000 0.500000 0.000000
Si Si6 0.500000 0.179092 0.500000
Si Si7 0.346766 0.389304 0.585254
Si Si8 0.684466 0.761390 0.348604
O O1 0.607589 0.625343 0.153104
O O2 0.529370 0.628892 0.332892
O O3 0.685729 0.714816 0.274734
O O4 0.289257 0.688339 0.205170
O O5 0.500000 0.500000 0.728393
O O6 0.227072 0.417532 0.796485
O O7 0.197899 0.437727 0.628789
O O8 0.000000 0.500000 0.747372
O O9 0.189523 0.338201 0.552570
O O10 0.134303 0.261585 0.426506
O O11 0.358418 0.457457 0.938219
O O12 0.216586 0.359801 0.959919
O O13 0.545180 0.217694 0.412793
O O14 0.500000 0.408050 0.500000
#
# Coordination Sequence:
#
# PCOD9331480 Si02
#       8
#     8   8   4   8   2   4   8   8
#     4  10  22  42  64 102 143 191 241 302 381 457
#     4  11  27  50  74 109 147 199 257 323 395 460
#     4  12  24  41  71 104 140 201 241 312 386 468
#     4  10  25  43  72 107 149 198 253 320 383 464
#     4  12  24  44  72 104 144 200 260 320 390 450
#     4  10  24  41  68 112 150 195 250 316 388 482
#     4  11  24  45  70 102 143 187 248 315 380 456
#     4  11  22  41  69 101 151 193 244 308 382 480
#
# _framework density 25.281455999999999
#
# number of rings (size 3 to 8) (size 9 to 14) (size 15 to 20)
#    0.000    1.280    2.400    1.920    4.480    4.160 
#    0.000    1.600    0.000    0.000    0.000    0.000 
#    0.000    0.000    0.000    0.000    0.000    0.000 
#
# Total GULP energy -139426.517942 kJ/mol
# GULP energy per Si atom -5577.060718 kJ/mol
# Density = 2.522391 g / cm^3
# Si number density = 25.281456 Si / 1000 Ang^3
#
#
#
# Elastic Constant Matrix: (Units=GPa)
#
#
# Indices 1 2 3 4 5 6 
#
# 1 54.4591 29.9088 33.9902 0.0000 0.0000 0.0000
# 2 29.9088 129.8952 53.1345 0.0000 0.0000 0.0000
# 3 33.9902 53.1345 191.4517 0.0000 0.0000 0.0000
# 4 0.0000 0.0000 0.0000 48.7676 0.0000 0.0000
# 5 0.0000 0.0000 0.0000 0.0000 45.8350 0.0000
# 6 0.0000 0.0000 0.0000 0.0000 0.0000 6.5165
#
#
#
# Elastic Compliance Matrix: (Units=1/GPa)
#
#
# Indices 1 2 3 4 5 6 
#
# 1 0.022330 -0.003971 -0.002862 0.000000 0.000000 0.000000
# 2 -0.003971 0.009390 -0.001901 0.000000 0.000000 0.000000
# 3 -0.002862 -0.001901 0.006259 0.000000 0.000000 0.000000
# 4 0.000000 0.000000 0.000000 0.020505 0.000000 0.000000
# 5 0.000000 0.000000 0.000000 0.000000 0.021817 0.000000
# 6 0.000000 0.000000 0.000000 0.000000 0.000000 0.153456
#
#
# Mechanical properties :
#
#
# Convention : Reuss Voigt Hill
#
# Bulk Modulus (GPa) = 48.75507 67.76368 58.25937
# Shear Modulus (GPa) = 19.37509 37.47533 28.42521
#
# Velocity S-wave (km/s) = 2.77135 3.85427 3.35677
# Velocity P-wave (km/s) = 5.43758 6.83148 6.17400
#
# Compressibility (1/GPa) = 0.02051069
#
# Stress axis : x y z
#
# Youngs Moduli (GPa) = 44.78365 106.49090 159.76729
#
# Poissons Ratio (x) = 0.42283 0.45732
# Poissons Ratio (y) = 0.17782 0.30376
# Poissons Ratio (z) = 0.12819 0.20247
#
# Static dielectric constant tensor:
#      x y z
#    x 2.164760 0.000000 0.000000 
#    y 0.000000 -2.959790 0.000000 
#    z 0.000000 0.000000 2.078980 
# 
# From -- ./inp_files/19263.got.cif
#   From: 2010.05.17/outbox.cif.g08.bks.cpg/sg23_10_cif.got.tgz:19263.got - 2010.06.04 12:02:01.
