data_PCOD9331402
_publ_section_title
;
Structure prediction by ZEFSAII (Michael W. Deem and Ramdas Pophale) SiO2 
 PCOD9331402
Probable space group: I 2 2 2
;
_chemical_formula_sum "Si O2"
_cell_formula_units_Z 64
_cell_length_a 17.624133
_cell_length_b 11.985133
_cell_length_c 15.065184
_cell_angle_alpha 90.000000
_cell_angle_beta 90.000000
_cell_angle_gamma 90.000000
_cell_volume 3182.182329
_symmetry_space_group_name_H-M "I 2 2 2"
_symmetry_group_IT_number 23
_symmetry_cell_setting 'orthorhombic'
loop_
_space_group_symop_operation_xyz
x,y,z
-x,-y,z
x,-y,-z
-x,y,-z
1/2+x,1/2+y,1/2+z
1/2-x,1/2-y,1/2+z
1/2+x,1/2-y,1/2-z
1/2-x,1/2+y,1/2-z
loop_
_atom_site_type_symbol
_atom_site_label
_atom_site_fract_x
_atom_site_fract_y
_atom_site_fract_z
Si Si1 0.563765 0.729662 0.280519
Si Si2 0.851872 0.063215 0.092286
Si Si3 0.918076 0.478089 0.146935
Si Si4 0.402992 0.187066 0.778010
Si Si5 0.321132 0.121558 0.956210
Si Si6 0.246533 0.519734 0.903911
Si Si7 0.704829 0.613833 0.732216
Si Si8 0.818067 0.752285 0.631855
O O1 0.587827 0.647663 0.361867
O O2 0.581262 0.854173 0.314418
O O3 0.478615 0.740706 0.242614
O O4 0.616010 0.703621 0.195552
O O5 0.768545 0.121465 0.074735
O O6 0.838304 0.968349 0.165945
O O7 0.873145 0.000000 0.000000
O O8 0.911048 0.573369 0.222314
O O9 0.841943 0.491150 0.092117
O O10 0.000000 0.500000 0.103360
O O11 0.377909 0.148286 0.875956
O O12 0.337396 0.270433 0.747361
O O13 0.336474 0.210344 0.033773
O O14 0.333009 0.000000 0.000000
O O15 0.280825 0.444809 0.825758
O O16 0.259014 0.647619 0.878953
O O17 0.282383 0.500000 0.000000
O O18 0.782069 0.646528 0.682349
#
# Coordination Sequence:
#
# PCOD9331402 Si02
#       8
#     8   8   8   8   8   8   8   8
#     4  11  24  42  66  97 142 179 226 282 353 422
#     4  11  23  43  73 102 133 183 241 296 343 415
#     4  10  22  40  64  95 134 176 216 274 351 414
#     4  11  24  43  65  99 141 188 224 281 364 429
#     4  11  22  40  71 102 134 175 243 297 337 419
#     4  12  25  39  66  98 129 175 227 280 345 417
#     4  12  22  43  69  96 133 179 233 291 344 415
#     4  12  22  40  68  98 131 178 230 290 347 405
#
# _framework density 20.111982999999999
#
# number of rings (size 3 to 8) (size 9 to 14) (size 15 to 20)
#    0.000    0.750    6.250    3.000    1.750    1.250 
#    0.000    1.875    0.000    0.000    0.000    0.000 
#    0.000    0.000    0.000    0.000    0.000    0.000 
#
# Total GULP energy -178581.523507 kJ/mol
# GULP energy per Si atom -5580.672610 kJ/mol
# Density = 2.006621 g / cm^3
# Si number density = 20.111983 Si / 1000 Ang^3
#
#
#
# Elastic Constant Matrix: (Units=GPa)
#
#
# Indices 1 2 3 4 5 6 
#
# 1 55.7272 29.2483 53.5131 0.0000 0.0000 0.0000
# 2 29.2483 86.2325 55.7588 0.0000 0.0000 0.0000
# 3 53.5131 55.7588 157.0355 0.0000 0.0000 0.0000
# 4 0.0000 0.0000 0.0000 32.1166 0.0000 0.0000
# 5 0.0000 0.0000 0.0000 0.0000 24.6223 0.0000
# 6 0.0000 0.0000 0.0000 0.0000 0.0000 14.5140
#
#
#
# Elastic Compliance Matrix: (Units=1/GPa)
#
#
# Indices 1 2 3 4 5 6 
#
# 1 0.027847 -0.004295 -0.007964 0.000000 0.000000 0.000000
# 2 -0.004295 0.015715 -0.004116 0.000000 0.000000 0.000000
# 3 -0.007964 -0.004116 0.010544 0.000000 0.000000 0.000000
# 4 0.000000 0.000000 0.000000 0.031137 0.000000 0.000000
# 5 0.000000 0.000000 0.000000 0.000000 0.040614 0.000000
# 6 0.000000 0.000000 0.000000 0.000000 0.000000 0.068899
#
#
# Mechanical properties :
#
#
# Convention : Reuss Voigt Hill
#
# Bulk Modulus (GPa) = 46.83015 64.00395 55.41705
# Shear Modulus (GPa) = 21.31071 24.94892 23.12982
#
# Velocity S-wave (km/s) = 3.25869 3.52589 3.39492
# Velocity P-wave (km/s) = 6.12323 6.96195 6.55602
#
# Compressibility (1/GPa) = 0.02135377
#
# Stress axis : x y z
#
# Youngs Moduli (GPa) = 35.91091 63.63331 94.84508
#
# Poissons Ratio (x) = 0.27332 0.75536
# Poissons Ratio (y) = 0.15425 0.39041
# Poissons Ratio (z) = 0.28600 0.26193
#
# Static dielectric constant tensor:
#      x y z
#    x 1.759700 0.000000 0.000000 
#    y 0.000000 1.681300 0.000000 
#    z 0.000000 0.000000 1.836440 
# 
# From -- ./inp_files/22171.got.cif
#   From: 2010.05.17/outbox.cif.g08.bks.cpg/sg23_12_cif.got.tgz:22171.got - 2010.06.04 12:02:01.
