data_PCOD9331795
_publ_section_title
;
Structure prediction by ZEFSAII (Michael W. Deem and Ramdas Pophale) SiO2 
 PCOD9331795
Probable space group: I 2 2 2
;
_chemical_formula_sum "Si O2"
_cell_formula_units_Z 64
_cell_length_a 7.884406
_cell_length_b 19.445100
_cell_length_c 22.961618
_cell_angle_alpha 90.000000
_cell_angle_beta 90.000000
_cell_angle_gamma 90.000000
_cell_volume 3520.315990
_symmetry_space_group_name_H-M "I 2 2 2"
_symmetry_group_IT_number 23
_symmetry_cell_setting 'orthorhombic'
loop_
_space_group_symop_operation_xyz
x,y,z
-x,-y,z
x,-y,-z
-x,y,-z
1/2+x,1/2+y,1/2+z
1/2-x,1/2-y,1/2+z
1/2+x,1/2-y,1/2-z
1/2-x,1/2+y,1/2-z
loop_
_atom_site_type_symbol
_atom_site_label
_atom_site_fract_x
_atom_site_fract_y
_atom_site_fract_z
Si Si1 0.678628 0.130851 0.466452
Si Si2 0.291282 0.283803 0.709327
Si Si3 0.086083 0.606157 0.248801
Si Si4 0.828825 0.158841 0.578861
Si Si5 0.295831 0.498750 0.904785
Si Si6 0.461185 0.339794 0.194476
Si Si7 0.010695 0.702394 0.136445
Si Si8 0.255545 0.032751 0.722201
O O1 0.500000 0.128053 0.500000
O O2 0.817963 0.165976 0.508768
O O3 0.744343 0.054788 0.451880
O O4 0.628415 0.170086 0.407184
O O5 0.147943 0.341281 0.702102
O O6 0.385170 0.307217 0.768409
O O7 0.437369 0.272689 0.662298
O O8 0.195722 0.210770 0.708116
O O9 0.228155 0.546383 0.242682
O O10 0.054216 0.651055 0.190087
O O11 0.904979 0.570535 0.256787
O O12 0.982935 0.159690 0.625931
O O13 0.686815 0.210184 0.602933
O O14 0.755978 0.080660 0.585026
O O15 0.500000 0.500000 0.898188
O O16 0.204206 0.523147 0.846195
O O17 0.404840 0.415573 0.217510
#
# Coordination Sequence:
#
# PCOD9331795 Si02
#       8
#     8   8   8   8   8   8   8   8
#     4  10  24  38  53  71 103 152 192 236 271 312
#     4  12  22  35  55  76 103 142 189 228 284 334
#     4  11  21  36  56  76 103 142 189 226 283 325
#     4  11  23  34  52  75 105 145 191 230 270 313
#     4  12  21  34  48  76 110 144 191 235 272 301
#     4  12  20  36  53  78 105 143 186 233 278 332
#     4  11  20  39  52  73 102 142 190 226 271 325
#     4  11  22  36  56  76 108 143 184 237 273 325
#
# _framework density 18.180187
#
# number of rings (size 3 to 8) (size 9 to 14) (size 15 to 20)
#    0.000    0.750    7.500    0.375    0.000    4.500 
#    0.000    0.000    0.000    0.000    0.000    0.000 
#    0.000    0.000    0.000  106.875    0.000    0.250 
#
# Total GULP energy -178301.769186 kJ/mol
# GULP energy per Si atom -5571.930287 kJ/mol
# Density = 1.813881 g / cm^3
# Si number density = 18.180187 Si / 1000 Ang^3
#
#
#
# Elastic Constant Matrix: (Units=GPa)
#
#
# Indices 1 2 3 4 5 6 
#
# 1 99.9146 30.3023 22.7101 0.0000 0.0000 0.0000
# 2 30.3023 74.1707 41.9373 0.0000 0.0000 0.0000
# 3 22.7101 41.9373 54.4336 0.0000 0.0000 0.0000
# 4 0.0000 0.0000 0.0000 27.1088 0.0000 0.0000
# 5 0.0000 0.0000 0.0000 0.0000 18.8468 0.0000
# 6 0.0000 0.0000 0.0000 0.0000 0.0000 36.4034
#
#
#
# Elastic Compliance Matrix: (Units=1/GPa)
#
#
# Indices 1 2 3 4 5 6 
#
# 1 0.011558 -0.003536 -0.002098 0.000000 0.000000 0.000000
# 2 -0.003536 0.024970 -0.017763 0.000000 0.000000 0.000000
# 3 -0.002098 -0.017763 0.032931 0.000000 0.000000 0.000000
# 4 0.000000 0.000000 0.000000 0.036888 0.000000 0.000000
# 5 0.000000 0.000000 0.000000 0.000000 0.053059 0.000000
# 6 0.000000 0.000000 0.000000 0.000000 0.000000 0.027470
#
#
# Mechanical properties :
#
#
# Convention : Reuss Voigt Hill
#
# Bulk Modulus (GPa) = 44.11804 46.49091 45.30447
# Shear Modulus (GPa) = 20.72753 25.37641 23.05197
#
# Velocity S-wave (km/s) = 3.38022 3.74013 3.56472
# Velocity P-wave (km/s) = 6.28922 6.65427 6.47432
#
# Compressibility (1/GPa) = 0.02266646
#
# Stress axis : x y z
#
# Youngs Moduli (GPa) = 86.52235 40.04773 30.36634
#
# Poissons Ratio (x) = 0.14159 0.06371
# Poissons Ratio (y) = 0.30591 0.53939
# Poissons Ratio (z) = 0.18152 0.71136
#
# Static dielectric constant tensor:
#      x y z
#    x 1.768410 0.000000 0.000000 
#    y 0.000000 1.645010 0.000000 
#    z 0.000000 0.000000 1.664070 
# 
# From -- ./inp_files/28131.got.cif
#   From: 2010.05.17/outbox.cif.g08.bks.cpg/sg23_15_cif.got.tgz:28131.got - 2010.06.04 12:02:01.
