data_PCOD9331471
_publ_section_title
;
Structure prediction by ZEFSAII (Michael W. Deem and Ramdas Pophale) SiO2 
 PCOD9331471
Probable space group: I 2 2 2
;
_chemical_formula_sum "Si O2"
_cell_formula_units_Z 32
_cell_length_a 11.105112
_cell_length_b 10.234265
_cell_length_c 13.770703
_cell_angle_alpha 90.000000
_cell_angle_beta 90.000000
_cell_angle_gamma 90.000000
_cell_volume 1565.077013
_symmetry_space_group_name_H-M "I 2 2 2"
_symmetry_group_IT_number 23
_symmetry_cell_setting 'orthorhombic'
loop_
_space_group_symop_operation_xyz
x,y,z
-x,-y,z
x,-y,-z
-x,y,-z
1/2+x,1/2+y,1/2+z
1/2-x,1/2-y,1/2+z
1/2+x,1/2-y,1/2-z
1/2-x,1/2+y,1/2-z
loop_
_atom_site_type_symbol
_atom_site_label
_atom_site_fract_x
_atom_site_fract_y
_atom_site_fract_z
Si Si1 0.137162 0.002144 0.269768
Si Si2 0.813180 0.724616 0.756295
Si Si3 0.624507 0.850820 0.462732
Si Si4 0.876484 0.822919 0.558727
O O1 0.118672 0.728675 0.346525
O O2 0.137497 0.963474 0.384907
O O3 0.193429 0.140354 0.247764
O O4 0.000000 0.000000 0.237617
O O5 0.879351 0.659903 0.846767
O O6 0.793581 0.878809 0.776398
O O7 0.500000 0.788014 0.500000
O O8 0.752439 0.795501 0.501433
O O9 0.623709 0.000000 0.500000
O O10 0.000000 0.815442 0.500000
#
# Coordination Sequence:
#
# PCOD9331471 Si02
#       4
#     8   8   8   8
#     4  10  22  41  72  99 145 191 238 302 373 436
#     4  10  23  41  69 103 141 186 247 301 365 438
#     4  11  22  37  63 101 133 182 242 298 356 442
#     4  10  23  39  73  99 138 187 245 292 367 432
#
# _framework density 20.446278
#
# number of rings (size 3 to 8) (size 9 to 14) (size 15 to 20)
#    1.500    0.250    2.500    1.500    3.500    0.000 
#    0.000    1.250    0.000    3.000    0.000    0.000 
#    0.000    0.000    0.000    0.000    0.000    0.000 
#
# Total GULP energy -89086.037399 kJ/mol
# GULP energy per Si atom -5567.877337 kJ/mol
# Density = 2.039974 g / cm^3
# Si number density = 20.446278 Si / 1000 Ang^3
#
#
#
# Elastic Constant Matrix: (Units=GPa)
#
#
# Indices 1 2 3 4 5 6 
#
# 1 156.0403 51.8243 63.6542 0.0000 0.0000 0.0000
# 2 51.8243 87.9934 24.0433 0.0000 0.0000 0.0000
# 3 63.6542 24.0433 134.8611 0.0000 0.0000 0.0000
# 4 0.0000 0.0000 0.0000 16.0182 0.0000 0.0000
# 5 0.0000 0.0000 0.0000 0.0000 30.0061 0.0000
# 6 0.0000 0.0000 0.0000 0.0000 0.0000 16.4227
#
#
#
# Elastic Compliance Matrix: (Units=1/GPa)
#
#
# Indices 1 2 3 4 5 6 
#
# 1 0.009396 -0.004544 -0.003625 0.000000 0.000000 0.000000
# 2 -0.004544 0.014143 -0.000377 0.000000 0.000000 0.000000
# 3 -0.003625 -0.000377 0.009193 0.000000 0.000000 0.000000
# 4 0.000000 0.000000 0.000000 0.062429 0.000000 0.000000
# 5 0.000000 0.000000 0.000000 0.000000 0.033327 0.000000
# 6 0.000000 0.000000 0.000000 0.000000 0.000000 0.060891
#
#
# Mechanical properties :
#
#
# Convention : Reuss Voigt Hill
#
# Bulk Modulus (GPa) = 63.93067 73.10429 68.51748
# Shear Modulus (GPa) = 23.61998 28.44759 26.03379
#
# Velocity S-wave (km/s) = 3.40254 3.73411 3.57217
# Velocity P-wave (km/s) = 6.83900 7.37722 7.11320
#
# Compressibility (1/GPa) = 0.01564194
#
# Stress axis : x y z
#
# Youngs Moduli (GPa) = 106.42374 70.70410 108.77535
#
# Poissons Ratio (x) = 0.32125 0.39432
# Poissons Ratio (y) = 0.48354 0.04101
# Poissons Ratio (z) = 0.38579 0.02665
#
# Static dielectric constant tensor:
#      x y z
#    x 1.760100 0.000000 0.000000 
#    y 0.000000 1.752720 0.000000 
#    z 0.000000 0.000000 1.784440 
# 
# From -- ./inp_files/15276.got.cif
#   From: 2010.05.17/outbox.cif.g08.bks.cpg/sg23_8_cif.got.tgz:15276.got - 2010.06.04 12:02:01.
