data_PCOD9331331
_publ_section_title
;
Structure prediction by ZEFSAII (Michael W. Deem and Ramdas Pophale) SiO2 
 PCOD9331331
Probable space group: I 2 2 2
;
_chemical_formula_sum "Si O2"
_cell_formula_units_Z 56
_cell_length_a 8.840777
_cell_length_b 21.713265
_cell_length_c 14.830458
_cell_angle_alpha 90.000000
_cell_angle_beta 90.000000
_cell_angle_gamma 90.000000
_cell_volume 2846.886363
_symmetry_space_group_name_H-M "I 2 2 2"
_symmetry_group_IT_number 23
_symmetry_cell_setting 'orthorhombic'
loop_
_space_group_symop_operation_xyz
x,y,z
-x,-y,z
x,-y,-z
-x,y,-z
1/2+x,1/2+y,1/2+z
1/2-x,1/2-y,1/2+z
1/2+x,1/2-y,1/2-z
1/2-x,1/2+y,1/2-z
loop_
_atom_site_type_symbol
_atom_site_label
_atom_site_fract_x
_atom_site_fract_y
_atom_site_fract_z
Si Si1 0.325134 0.852486 0.029242
Si Si2 0.188369 0.942705 0.163820
Si Si3 0.830085 0.513503 0.157310
Si Si4 0.335842 0.583349 0.364665
Si Si5 0.824016 0.790479 0.479894
Si Si6 0.698499 0.876791 0.324803
Si Si7 0.601640 0.136536 0.413552
O O1 0.295402 0.892739 0.118028
O O2 0.500000 0.857701 0.000000
O O3 0.217662 0.880851 0.952343
O O4 0.286167 0.780683 0.038322
O O5 0.226133 0.954434 0.268072
O O6 0.016299 0.920826 0.149287
O O7 0.211583 0.011567 0.124562
O O8 0.776417 0.445420 0.133790
O O9 0.846859 0.565474 0.082349
O O10 0.000000 0.500000 0.194774
O O11 0.259355 0.614629 0.276557
O O12 0.781667 0.829449 0.390762
O O13 0.737924 0.817096 0.568683
O O14 0.000000 0.795372 0.500000
O O15 0.518609 0.860284 0.331483
O O16 0.500000 0.149395 0.500000
#
# Coordination Sequence:
#
# PCOD9331331 Si02
#       7
#     8   8   8   8   8   8   8
#     4  11  25  41  60  87 120 163 209 251 300 369
#     4  10  22  38  64  90 122 158 192 254 318 357
#     4   9  19  35  62  94 122 151 204 247 297 369
#     4  10  22  41  61  93 123 149 201 255 308 373
#     4  10  23  42  56  87 125 159 207 248 293 361
#     4   9  20  38  61  87 123 155 196 249 299 360
#     4   9  19  36  61  85 120 161 200 244 301 357
#
# _framework density 19.670612999999999
#
# number of rings (size 3 to 8) (size 9 to 14) (size 15 to 20)
#    0.000    2.286    0.000    0.857    8.000   11.714 
#    2.571    0.714    0.000    0.000    0.000    0.000 
#    0.000    0.000    0.000    0.000    0.000    0.000 
#
# Total GULP energy -156072.462359 kJ/mol
# GULP energy per Si atom -5574.016513 kJ/mol
# Density = 1.962584 g / cm^3
# Si number density = 19.670613 Si / 1000 Ang^3
#
#
#
# Elastic Constant Matrix: (Units=GPa)
#
#
# Indices 1 2 3 4 5 6 
#
# 1 64.3240 58.3715 30.0599 0.0000 0.0000 0.0000
# 2 58.3715 107.2829 34.5942 0.0000 0.0000 0.0000
# 3 30.0599 34.5942 57.2368 0.0000 0.0000 0.0000
# 4 0.0000 0.0000 0.0000 -68.7845 0.0000 0.0000
# 5 0.0000 0.0000 0.0000 0.0000 20.4281 0.0000
# 6 0.0000 0.0000 0.0000 0.0000 0.0000 27.5566
#
#
#
# Elastic Compliance Matrix: (Units=1/GPa)
#
#
# Indices 1 2 3 4 5 6 
#
# 1 0.033530 -0.015607 -0.008177 0.000000 0.000000 0.000000
# 2 -0.015607 0.018842 -0.003192 0.000000 0.000000 0.000000
# 3 -0.008177 -0.003192 0.023695 0.000000 0.000000 0.000000
# 4 0.000000 0.000000 0.000000 -0.014538 0.000000 0.000000
# 5 0.000000 0.000000 0.000000 0.000000 0.048952 0.000000
# 6 0.000000 0.000000 0.000000 0.000000 0.000000 0.036289
#
#
# Mechanical properties :
#
#
# Convention : Reuss Voigt Hill
#
# Bulk Modulus (GPa) = 45.21556 52.76610 48.99083
# Shear Modulus (GPa) = 24.02797 2.89458 13.46127
#
# Velocity S-wave (km/s) = 3.49881 1.21438 2.61882
# Velocity P-wave (km/s) = 6.27363 5.37116 5.83986
#
# Compressibility (1/GPa) = 0.02211628
#
# Stress axis : x y z
#
# Youngs Moduli (GPa) = 29.82429 53.07375 42.20375
#
# Poissons Ratio (x) = 0.82830 0.34508
# Poissons Ratio (y) = 0.46545 0.13470
# Poissons Ratio (z) = 0.24386 0.16940
#
# Static dielectric constant tensor:
#      x y z
#    x 1.733440 0.000000 0.000000 
#    y 0.000000 1.691960 0.000000 
#    z 0.000000 0.000000 1.721620 
# 
# From -- ./inp_files/23949.got.cif
#   From: 2010.05.17/outbox.cif.g08.bks.cpg/sg23_12_cif.got.tgz:23949.got - 2010.06.04 12:02:01.
