data_PCOD9331467
_publ_section_title
;
Structure prediction by ZEFSAII (Michael W. Deem and Ramdas Pophale) SiO2 
 PCOD9331467
Probable space group: I 2 2 2
;
_chemical_formula_sum "Si O2"
_cell_formula_units_Z 54
_cell_length_a 5.391444
_cell_length_b 16.738675
_cell_length_c 29.038095
_cell_angle_alpha 90.000000
_cell_angle_beta 90.000000
_cell_angle_gamma 90.000000
_cell_volume 2620.561145
_symmetry_space_group_name_H-M "I 2 2 2"
_symmetry_group_IT_number 23
_symmetry_cell_setting 'orthorhombic'
loop_
_space_group_symop_operation_xyz
x,y,z
-x,-y,z
x,-y,-z
-x,y,-z
1/2+x,1/2+y,1/2+z
1/2-x,1/2-y,1/2+z
1/2+x,1/2-y,1/2-z
1/2-x,1/2+y,1/2-z
loop_
_atom_site_type_symbol
_atom_site_label
_atom_site_fract_x
_atom_site_fract_y
_atom_site_fract_z
Si Si1 0.250659 0.954907 0.082872
Si Si2 0.755625 0.794571 0.971104
Si Si3 0.881044 0.621326 0.932451
Si Si4 0.500000 0.500000 0.906455
Si Si5 0.284388 0.198024 0.746709
Si Si6 0.382161 0.916941 0.339066
Si Si7 0.251346 0.455163 0.306352
Si Si8 0.000000 0.500000 0.000000
O O1 0.268341 0.864405 0.066076
O O2 0.245077 0.955678 0.138318
O O3 0.500000 0.000000 0.067154
O O4 0.000000 0.000000 0.066861
O O5 0.821437 0.708470 0.950034
O O6 0.500000 0.790035 0.000000
O O7 0.000000 0.816909 0.000000
O O8 0.648690 0.562527 0.937216
O O9 0.940820 0.621208 0.878155
O O10 0.080504 0.570065 0.962336
O O11 0.658649 0.446817 0.870888
O O12 0.537057 0.248010 0.754267
O O13 0.313743 0.145086 0.700331
O O14 0.253056 0.133940 0.787338
O O15 0.500000 0.000000 0.320556
O O16 0.500000 0.500000 0.289646
O O17 0.000000 0.500000 0.291682
#
# Coordination Sequence:
#
# PCOD9331467 Si02
#       8
#     8   8   8   4   8   8   8   2
#     4  10  23  46  72  96 129 176 226 282 349 410
#     4  12  28  43  66 103 136 176 226 284 347 408
#     4  11  25  42  65 100 138 189 227 290 335 417
#     4  10  22  41  70  94 128 196 228 282 343 408
#     4  12  28  43  68 108 140 179 227 294 350 411
#     4  10  24  45  69  96 136 188 234 279 352 414
#     4  10  22  44  70  97 129 181 227 278 339 413
#     4  12  20  46  60  96 144 176 250 260 346 412
#
# _framework density 20.606273999999999
#
# number of rings (size 3 to 8) (size 9 to 14) (size 15 to 20)
#    0.000    1.185    2.963    2.222   11.407    1.778 
#    0.000    0.000    0.000    0.000    0.000    0.000 
#    0.000    0.000    0.000    0.000    0.000    0.000 
#
# Total GULP energy -150618.658407 kJ/mol
# GULP energy per Si atom -5578.468830 kJ/mol
# Density = 2.055937 g / cm^3
# Si number density = 20.606274 Si / 1000 Ang^3
#
#
#
# Elastic Constant Matrix: (Units=GPa)
#
#
# Indices 1 2 3 4 5 6 
#
# 1 150.4841 64.9380 26.3027 0.0000 0.0000 0.0000
# 2 64.9380 154.9869 37.1484 0.0000 0.0000 0.0000
# 3 26.3027 37.1484 55.4963 0.0000 0.0000 0.0000
# 4 0.0000 0.0000 0.0000 50.1610 0.0000 0.0000
# 5 0.0000 0.0000 0.0000 0.0000 1.8236 0.0000
# 6 0.0000 0.0000 0.0000 0.0000 0.0000 24.7266
#
#
#
# Elastic Compliance Matrix: (Units=1/GPa)
#
#
# Indices 1 2 3 4 5 6 
#
# 1 0.008278 -0.003011 -0.001908 0.000000 0.000000 0.000000
# 2 -0.003011 0.008781 -0.004450 0.000000 0.000000 0.000000
# 3 -0.001908 -0.004450 0.021902 0.000000 0.000000 0.000000
# 4 0.000000 0.000000 0.000000 0.019936 0.000000 0.000000
# 5 0.000000 0.000000 0.000000 0.000000 0.548370 0.000000
# 6 0.000000 0.000000 0.000000 0.000000 0.000000 0.040442
#
#
# Mechanical properties :
#
#
# Convention : Reuss Voigt Hill
#
# Bulk Modulus (GPa) = 49.45026 68.63840 59.04433
# Shear Modulus (GPa) = 7.42733 30.84744 19.13739
#
# Velocity S-wave (km/s) = 1.90059 3.87330 3.05079
# Velocity P-wave (km/s) = 5.37272 7.30650 6.41292
#
# Compressibility (1/GPa) = 0.02022234
#
# Stress axis : x y z
#
# Youngs Moduli (GPa) = 120.80096 113.88858 45.65693
#
# Poissons Ratio (x) = 0.34294 0.08710
# Poissons Ratio (y) = 0.36375 0.20319
# Poissons Ratio (z) = 0.23047 0.50685
#
# Static dielectric constant tensor:
#      x y z
#    x 1.869800 0.000000 0.000000 
#    y 0.000000 1.684360 0.000000 
#    z 0.000000 0.000000 1.779690 
# 
# From -- ./inp_files/29981.got.cif
#   From: 2010.05.17/outbox.cif.g08.bks.cpg/sg23_15_cif.got.tgz:29981.got - 2010.06.04 12:02:01.
