data_PCOD9331766
_publ_section_title
;
Structure prediction by ZEFSAII (Michael W. Deem and Ramdas Pophale) SiO2 
 PCOD9331766
Probable space group: I 2 2 2
;
_chemical_formula_sum "Si O2"
_cell_formula_units_Z 58
_cell_length_a 10.357447
_cell_length_b 23.499816
_cell_length_c 11.525082
_cell_angle_alpha 90.000000
_cell_angle_beta 90.000000
_cell_angle_gamma 90.000000
_cell_volume 2805.183047
_symmetry_space_group_name_H-M "I 2 2 2"
_symmetry_group_IT_number 23
_symmetry_cell_setting 'orthorhombic'
loop_
_space_group_symop_operation_xyz
x,y,z
-x,-y,z
x,-y,-z
-x,y,-z
1/2+x,1/2+y,1/2+z
1/2-x,1/2-y,1/2+z
1/2+x,1/2-y,1/2-z
1/2-x,1/2+y,1/2-z
loop_
_atom_site_type_symbol
_atom_site_label
_atom_site_fract_x
_atom_site_fract_y
_atom_site_fract_z
Si Si1 0.978793 0.210819 0.191214
Si Si2 0.850027 0.360786 0.498299
Si Si3 0.500000 0.500000 0.500000
Si Si4 0.288809 0.362592 0.735161
Si Si5 0.636589 0.273190 0.943632
Si Si6 0.885265 0.677332 0.933809
Si Si7 0.854366 0.094728 0.152901
Si Si8 0.994461 0.067433 0.366837
O O1 0.894141 0.220802 0.307342
O O2 0.953291 0.265234 0.113778
O O3 0.933384 0.153040 0.128768
O O4 0.127295 0.196070 0.222984
O O5 0.766012 0.381550 0.388380
O O6 0.841953 0.292026 0.485798
O O7 0.786239 0.388546 0.610492
O O8 0.000000 0.375036 0.500000
O O9 0.415158 0.541830 0.582311
O O10 0.170910 0.353355 0.821408
O O11 0.387385 0.406200 0.794493
O O12 0.500000 0.291128 0.000000
O O13 0.760687 0.307663 0.987565
O O14 0.000000 0.645512 0.000000
O O15 0.871237 0.085021 0.290198
O O16 0.000000 0.086131 0.500000
O O17 0.000000 0.000000 0.366176
#
# Coordination Sequence:
#
# PCOD9331766 Si02
#       8
#     8   8   2   8   8   8   8   8
#     4  11  23  38  63  92 134 184 234 286 353 422
#     4  11  24  42  64  96 142 189 231 287 360 445
#     4  12  24  44  72 104 136 180 248 332 352 410
#     4  11  24  42  64  98 139 183 237 301 347 434
#     4  11  22  40  61  88 139 188 231 282 346 435
#     4  12  25  36  59  99 138 186 231 282 354 448
#     4  11  23  40  69 102 133 178 237 301 369 410
#     4  10  23  45  73 104 130 171 234 308 367 424
#
# _framework density 20.676013000000001
#
# number of rings (size 3 to 8) (size 9 to 14) (size 15 to 20)
#    0.000    0.966    4.828    2.483    4.828    1.103 
#    0.000    0.345    0.000    0.000    0.000    0.000 
#    0.000    0.000    0.000    0.000    0.000    0.000 
#
# Total GULP energy -162059.392874 kJ/mol
# GULP energy per Si atom -5588.254927 kJ/mol
# Density = 2.062895 g / cm^3
# Si number density = 20.676013 Si / 1000 Ang^3
#
#
#
# Elastic Constant Matrix: (Units=GPa)
#
#
# Indices 1 2 3 4 5 6 
#
# 1 124.8171 19.2303 53.0948 -0.0001 0.0000 0.0000
# 2 19.2303 79.8757 19.4940 -0.0002 0.0001 0.0001
# 3 53.0948 19.4940 124.4745 -0.0008 -0.0004 0.0002
# 4 -0.0001 -0.0002 -0.0008 26.8603 0.0000 0.0001
# 5 0.0000 0.0001 -0.0004 0.0000 46.2618 0.0000
# 6 0.0000 0.0001 0.0002 0.0001 0.0000 13.5970
#
#
#
# Elastic Compliance Matrix: (Units=1/GPa)
#
#
# Indices 1 2 3 4 5 6 
#
# 1 0.009939 -0.001412 -0.004018 0.000000 0.000000 0.000000
# 2 -0.001412 0.013218 -0.001468 0.000000 0.000000 0.000000
# 3 -0.004018 -0.001468 0.009978 0.000000 0.000000 0.000000
# 4 0.000000 0.000000 0.000000 0.037230 0.000000 0.000000
# 5 0.000000 0.000000 0.000000 0.000000 0.021616 0.000000
# 6 0.000000 0.000000 0.000000 0.000000 0.000000 0.073546
#
#
# Mechanical properties :
#
#
# Convention : Reuss Voigt Hill
#
# Bulk Modulus (GPa) = 51.71199 56.97839 54.34519
# Shear Modulus (GPa) = 26.91545 33.16704 30.04124
#
# Velocity S-wave (km/s) = 3.61192 4.00951 3.81590
# Velocity P-wave (km/s) = 6.51610 7.00374 6.76432
#
# Compressibility (1/GPa) = 0.01933787
#
# Stress axis : x y z
#
# Youngs Moduli (GPa) = 100.61860 75.65660 100.22476
#
# Poissons Ratio (x) = 0.10683 0.40272
# Poissons Ratio (y) = 0.14208 0.14710
# Poissons Ratio (z) = 0.40430 0.11104
#
# Static dielectric constant tensor:
#      x y z
#    x 1.810030 0.000000 0.000000 
#    y 0.000000 1.738980 0.000000 
#    z 0.000000 0.000000 1.818340 
# 
# From -- ./inp_files/14905.got.cif
#   From: 2010.05.17/outbox.cif.g08.bks.cpg/sg23_8_cif.got.tgz:14905.got - 2010.06.04 12:02:01.
