data_PCOD9331606
_publ_section_title
;
Structure prediction by ZEFSAII (Michael W. Deem and Ramdas Pophale) SiO2 
 PCOD9331606
Probable space group: I 2 2 2
;
_chemical_formula_sum "Si O2"
_cell_formula_units_Z 40
_cell_length_a 11.916779
_cell_length_b 9.079364
_cell_length_c 16.589600
_cell_angle_alpha 90.000000
_cell_angle_beta 90.000000
_cell_angle_gamma 90.000000
_cell_volume 1794.941206
_symmetry_space_group_name_H-M "I 2 2 2"
_symmetry_group_IT_number 23
_symmetry_cell_setting 'orthorhombic'
loop_
_space_group_symop_operation_xyz
x,y,z
-x,-y,z
x,-y,-z
-x,y,-z
1/2+x,1/2+y,1/2+z
1/2-x,1/2-y,1/2+z
1/2+x,1/2-y,1/2-z
1/2-x,1/2+y,1/2-z
loop_
_atom_site_type_symbol
_atom_site_label
_atom_site_fract_x
_atom_site_fract_y
_atom_site_fract_z
Si Si1 0.818117 0.290611 0.264004
Si Si2 0.500000 0.000000 0.156082
Si Si3 0.000000 0.500000 0.000000
Si Si4 0.878414 0.025823 0.714949
Si Si5 0.500000 0.500000 0.500000
Si Si6 0.849081 0.749057 0.925967
Si Si7 0.399245 0.735340 0.061442
O O1 0.702966 0.380214 0.271911
O O2 0.827040 0.254678 0.169275
O O3 0.919798 0.393807 0.292314
O O4 0.823525 0.131631 0.305411
O O5 0.425338 0.893711 0.100948
O O6 0.921706 0.606398 0.947800
O O7 0.899493 0.116970 0.633463
O O8 0.000000 0.000000 0.752848
O O9 0.419302 0.392096 0.449783
O O10 0.728131 0.740748 0.970353
O O11 0.500000 0.703883 0.000000
#
# Coordination Sequence:
#
# PCOD9331606 Si02
#       7
#     8   4   2   8   2   8   8
#     4  11  24  45  72 101 144 183 247 292 367 431
#     4  12  24  46  70 108 144 190 236 304 364 446
#     4  10  22  50  62 100 132 186 242 276 364 424
#     4  11  24  46  68 105 139 187 242 298 368 438
#     4  10  24  42  70 102 136 182 250 284 368 430
#     4  10  24  45  70 101 139 188 234 300 354 438
#     4  11  26  46  70 107 147 189 241 304 381 440
#
# _framework density 22.284851
#
# number of rings (size 3 to 8) (size 9 to 14) (size 15 to 20)
#    0.000    1.200    2.000    3.300    4.200    3.600 
#    0.000    0.000    0.000    0.000    0.000    0.000 
#    0.000    0.000    0.000    0.000    0.000    0.000 
#
# Total GULP energy -111961.333702 kJ/mol
# GULP energy per Si atom -5598.066685 kJ/mol
# Density = 2.223413 g / cm^3
# Si number density = 22.284851 Si / 1000 Ang^3
#
#
#
# Elastic Constant Matrix: (Units=GPa)
#
#
# Indices 1 2 3 4 5 6 
#
# 1 179.6026 67.4665 21.2583 0.0000 0.0000 0.0000
# 2 67.4665 174.9988 23.2259 0.0000 0.0000 0.0000
# 3 21.2583 23.2259 43.6496 0.0000 0.0000 0.0000
# 4 0.0000 0.0000 0.0000 3.0571 0.0000 0.0000
# 5 0.0000 0.0000 0.0000 0.0000 -16.7618 0.0000
# 6 0.0000 0.0000 0.0000 0.0000 0.0000 40.1485
#
#
#
# Elastic Compliance Matrix: (Units=1/GPa)
#
#
# Indices 1 2 3 4 5 6 
#
# 1 0.006673 -0.002304 -0.002024 0.000000 0.000000 0.000000
# 2 -0.002304 0.006944 -0.002573 0.000000 0.000000 0.000000
# 3 -0.002024 -0.002573 0.025264 0.000000 0.000000 0.000000
# 4 0.000000 0.000000 0.000000 0.327105 0.000000 0.000000
# 5 0.000000 0.000000 0.000000 0.000000 -0.059659 0.000000
# 6 0.000000 0.000000 0.000000 0.000000 0.000000 0.024908
#
#
# Mechanical properties :
#
#
# Convention : Reuss Voigt Hill
#
# Bulk Modulus (GPa) = 39.87255 69.12803 54.50029
# Shear Modulus (GPa) = 14.14844 24.37546 19.26195
#
# Velocity S-wave (km/s) = 2.52244 3.31087 2.94318
# Velocity P-wave (km/s) = 5.13952 6.76043 6.00492
#
# Compressibility (1/GPa) = 0.02507991
#
# Stress axis : x y z
#
# Youngs Moduli (GPa) = 149.86067 144.00877 39.58143
#
# Poissons Ratio (x) = 0.33179 0.08011
# Poissons Ratio (y) = 0.34527 0.10184
# Poissons Ratio (z) = 0.30330 0.37051
#
# Static dielectric constant tensor:
#      x y z
#    x 1.848880 0.000000 0.000000 
#    y 0.000000 1.808140 0.000000 
#    z 0.000000 0.000000 1.810410 
# 
# From -- ./inp_files/24209.got.cif
#   From: 2010.05.17/outbox.cif.g08.bks.cpg/sg23_13_cif.got.tgz:24209.got - 2010.06.04 12:02:01.
