data_PCOD9331306
_publ_section_title
;
Structure prediction by ZEFSAII (Michael W. Deem and Ramdas Pophale) SiO2 
 PCOD9331306
Probable space group: I 2 2 2
;
_chemical_formula_sum "Si O2"
_cell_formula_units_Z 64
_cell_length_a 8.843173
_cell_length_b 14.755895
_cell_length_c 30.822198
_cell_angle_alpha 90.000000
_cell_angle_beta 90.000000
_cell_angle_gamma 90.000000
_cell_volume 4021.955707
_symmetry_space_group_name_H-M "I 2 2 2"
_symmetry_group_IT_number 23
_symmetry_cell_setting 'orthorhombic'
loop_
_space_group_symop_operation_xyz
x,y,z
-x,-y,z
x,-y,-z
-x,y,-z
1/2+x,1/2+y,1/2+z
1/2-x,1/2-y,1/2+z
1/2+x,1/2-y,1/2-z
1/2-x,1/2+y,1/2-z
loop_
_atom_site_type_symbol
_atom_site_label
_atom_site_fract_x
_atom_site_fract_y
_atom_site_fract_z
Si Si1 0.324797 0.500001 0.235463
Si Si2 0.678404 0.297171 0.792898
Si Si3 0.681653 0.894162 0.050330
Si Si4 0.318347 0.105838 0.949670
Si Si5 0.678401 0.702830 0.792897
Si Si6 0.177321 0.499999 0.674094
Si Si7 0.819995 0.179933 0.866577
Si Si8 0.680005 0.679932 0.366576
O O1 0.500000 0.500000 0.252286
O O2 0.305402 0.405668 0.210465
O O3 0.305404 0.594333 0.210465
O O4 0.208284 0.500001 0.274883
O O5 0.500002 0.275069 0.793319
O O6 0.750003 0.250001 0.750000
O O7 0.754608 0.258961 0.836286
O O8 0.500000 0.888378 0.055262
O O9 0.760528 0.827801 0.084261
O O10 0.723387 1.000000 0.059129
O O11 0.718201 0.875887 1.000000
O O12 0.239473 0.172199 0.915739
O O13 0.754606 0.741042 0.836285
O O14 0.256110 0.411437 0.655191
O O15 0.256113 0.588560 0.655191
O O16 0.000000 0.500000 0.663701
O O17 0.000000 0.181266 0.865512
#
# Coordination Sequence:
#
# PCOD9331306 Si02
#       8
#     8   8   8   8   8   8   8   8
#     4  10  22  38  54  73 102 135 178 224 260 301
#     4  11  22  36  54  76 103 138 177 219 261 305
#     4   9  18  33  53  76 103 136 174 214 257 307
#     4   9  18  33  53  76 103 136 174 214 257 307
#     4  11  22  36  54  76 103 138 177 219 261 305
#     4  12  22  32  51  73 102 141 179 217 258 303
#     4  12  23  34  50  76 108 141 177 214 256 314
#     4  12  23  34  50  76 108 141 177 214 256 314
#
# _framework density 15.912656
#
# number of rings (size 3 to 8) (size 9 to 14) (size 15 to 20)
#    0.000    1.250    3.750    4.875    0.000    1.500 
#    0.000    1.250    0.000    0.000    0.000    0.875 
#    0.000    7.000    0.000    0.000    0.000    0.000 
#
# Total GULP energy -178685.810504 kJ/mol
# GULP energy per Si atom -5583.931578 kJ/mol
# Density = 1.587644 g / cm^3
# Si number density = 15.912656 Si / 1000 Ang^3
#
#
#
# Elastic Constant Matrix: (Units=GPa)
#
#
# Indices 1 2 3 4 5 6 
#
# 1 106.6918 44.7805 65.7021 0.0000 0.0000 0.0000
# 2 44.7805 78.2243 44.9204 0.0000 0.0000 0.0000
# 3 65.7021 44.9204 121.2211 0.0000 0.0000 0.0000
# 4 0.0000 0.0000 0.0000 14.5202 0.0000 0.0000
# 5 0.0000 0.0000 0.0000 0.0000 29.1940 0.0000
# 6 0.0000 0.0000 0.0000 0.0000 0.0000 14.6039
#
#
#
# Elastic Compliance Matrix: (Units=1/GPa)
#
#
# Indices 1 2 3 4 5 6 
#
# 1 0.015552 -0.005161 -0.006517 0.000000 0.000000 0.000000
# 2 -0.005161 0.017952 -0.003855 0.000000 0.000000 0.000000
# 3 -0.006517 -0.003855 0.013210 0.000000 0.000000 0.000000
# 4 0.000000 0.000000 0.000000 0.068870 0.000000 0.000000
# 5 0.000000 0.000000 0.000000 0.000000 0.034254 0.000000
# 6 0.000000 0.000000 0.000000 0.000000 0.000000 0.068475
#
#
# Mechanical properties :
#
#
# Convention : Reuss Voigt Hill
#
# Bulk Modulus (GPa) = 63.90377 68.54923 66.22650
# Shear Modulus (GPa) = 19.63913 21.71258 20.67585
#
# Velocity S-wave (km/s) = 3.51691 3.69790 3.60854
# Velocity P-wave (km/s) = 7.53245 7.83611 7.68578
#
# Compressibility (1/GPa) = 0.01564853
#
# Stress axis : x y z
#
# Youngs Moduli (GPa) = 64.30066 55.70440 75.69929
#
# Poissons Ratio (x) = 0.28747 0.49332
# Poissons Ratio (y) = 0.33183 0.29184
# Poissons Ratio (z) = 0.41904 0.21476
#
# Static dielectric constant tensor:
#      x y z
#    x 1.534450 0.000000 0.000000 
#    y 0.000000 1.514090 0.000000 
#    z 0.000000 0.000000 1.551620 
# 
# From -- ./inp_files/20416.got.cif
#   From: 2010.05.17/outbox.cif.g08.bks.cpg/sg23_11_cif.got.tgz:20416.got - 2010.06.04 12:02:01.
