data_PCOD9331304
_publ_section_title
;
Structure prediction by ZEFSAII (Michael W. Deem and Ramdas Pophale) SiO2 
 PCOD9331304
Probable space group: I 2 2 2
;
_chemical_formula_sum "Si O2"
_cell_formula_units_Z 32
_cell_length_a 5.384802
_cell_length_b 17.532260
_cell_length_c 14.481910
_cell_angle_alpha 90.000000
_cell_angle_beta 90.000000
_cell_angle_gamma 90.000000
_cell_volume 1367.204520
_symmetry_space_group_name_H-M "I 2 2 2"
_symmetry_group_IT_number 23
_symmetry_cell_setting 'orthorhombic'
loop_
_space_group_symop_operation_xyz
x,y,z
-x,-y,z
x,-y,-z
-x,y,-z
1/2+x,1/2+y,1/2+z
1/2-x,1/2-y,1/2+z
1/2+x,1/2-y,1/2-z
1/2-x,1/2+y,1/2-z
loop_
_atom_site_type_symbol
_atom_site_label
_atom_site_fract_x
_atom_site_fract_y
_atom_site_fract_z
Si Si1 0.909186 0.084735 0.763156
Si Si2 0.269411 0.203271 0.737751
Si Si3 0.255670 0.912555 0.962097
Si Si4 0.030007 0.590368 0.109695
O O1 0.731796 0.084498 0.851597
O O2 0.779089 0.110272 0.667871
O O3 0.139022 0.136625 0.796295
O O4 0.000000 0.000000 0.748169
O O5 0.530239 0.240004 0.771002
O O6 0.339158 0.153368 0.647934
O O7 0.500000 0.872971 0.000000
O O8 0.000000 0.877963 0.000000
O O9 0.253584 0.000000 0.000000
O O10 0.000000 0.500000 0.134428
O O11 0.000000 0.593333 0.000000
#
# Coordination Sequence:
#
# PCOD9331304 Si02
#       4
#     8   8   8   8
#     4  12  24  45  83 110 154 211 265 336 397 484
#     4  12  27  50  79 110 159 211 261 328 414 486
#     4  10  22  37  66 107 153 181 246 322 382 451
#     4  11  26  48  84 122 159 213 282 341 397 478
#
# _framework density 23.405422999999999
#
# number of rings (size 3 to 8) (size 9 to 14) (size 15 to 20)
#    0.000    0.750    7.500    0.000    7.000    1.000 
#    0.000    1.250   11.000    0.000    0.000    0.000 
#    0.000    0.000    0.000    0.000    0.000    0.000 
#
# Total GULP energy -89138.433804 kJ/mol
# GULP energy per Si atom -5571.152113 kJ/mol
# Density = 2.335215 g / cm^3
# Si number density = 23.405423 Si / 1000 Ang^3
#
#
#
# Elastic Constant Matrix: (Units=GPa)
#
#
# Indices 1 2 3 4 5 6 
#
# 1 203.3376 59.1372 69.0676 0.0000 0.0000 0.0000
# 2 59.1372 126.2084 31.5645 0.0000 0.0000 0.0000
# 3 69.0676 31.5645 137.8184 0.0000 0.0000 0.0000
# 4 0.0000 0.0000 0.0000 26.5993 0.0000 0.0000
# 5 0.0000 0.0000 0.0000 0.0000 32.1072 0.0000
# 6 0.0000 0.0000 0.0000 0.0000 0.0000 34.2592
#
#
#
# Elastic Compliance Matrix: (Units=1/GPa)
#
#
# Indices 1 2 3 4 5 6 
#
# 1 0.006538 -0.002380 -0.002731 0.000000 0.000000 0.000000
# 2 -0.002380 0.009271 -0.000931 0.000000 0.000000 0.000000
# 3 -0.002731 -0.000931 0.008838 0.000000 0.000000 0.000000
# 4 0.000000 0.000000 0.000000 0.037595 0.000000 0.000000
# 5 0.000000 0.000000 0.000000 0.000000 0.031146 0.000000
# 6 0.000000 0.000000 0.000000 0.000000 0.000000 0.029189
#
#
# Mechanical properties :
#
#
# Convention : Reuss Voigt Hill
#
# Bulk Modulus (GPa) = 79.59974 87.43367 83.51671
# Shear Modulus (GPa) = 36.01027 39.09948 37.55487
#
# Velocity S-wave (km/s) = 3.92668 4.09165 4.01001
# Velocity P-wave (km/s) = 7.39198 7.73042 7.56309
#
# Compressibility (1/GPa) = 0.01256285
#
# Stress axis : x y z
#
# Youngs Moduli (GPa) = 152.95272 107.85750 113.14979
#
# Poissons Ratio (x) = 0.25674 0.30905
# Poissons Ratio (y) = 0.36409 0.10529
# Poissons Ratio (z) = 0.41776 0.10036
#
# Static dielectric constant tensor:
#      x y z
#    x 1.833970 0.000000 0.000000 
#    y 0.000000 1.902280 0.000000 
#    z 0.000000 0.000000 1.861200 
# 
# From -- ./inp_files/2103.got.cif
#   From: 2010.05.17/outbox.cif.g08.bks.cpg/sg23_2_cif.got.tgz:2103.got - 2010.06.04 12:02:01.
