data_PCOD9331537
_publ_section_title
;
Structure prediction by ZEFSAII (Michael W. Deem and Ramdas Pophale) SiO2 
 PCOD9331537
Probable space group: I 2 2 2
;
_chemical_formula_sum "Si O2"
_cell_formula_units_Z 32
_cell_length_a 16.136257
_cell_length_b 10.557832
_cell_length_c 7.505451
_cell_angle_alpha 90.000000
_cell_angle_beta 90.000000
_cell_angle_gamma 90.000000
_cell_volume 1278.657832
_symmetry_space_group_name_H-M "I 2 2 2"
_symmetry_group_IT_number 23
_symmetry_cell_setting 'orthorhombic'
loop_
_space_group_symop_operation_xyz
x,y,z
-x,-y,z
x,-y,-z
-x,y,-z
1/2+x,1/2+y,1/2+z
1/2-x,1/2-y,1/2+z
1/2+x,1/2-y,1/2-z
1/2-x,1/2+y,1/2-z
loop_
_atom_site_type_symbol
_atom_site_label
_atom_site_fract_x
_atom_site_fract_y
_atom_site_fract_z
Si Si1 0.500000 0.000000 0.500000
Si Si2 0.720573 0.000000 0.000000
Si Si3 0.373405 0.416977 0.275666
Si Si4 0.500000 0.500000 0.500000
Si Si5 0.867141 0.706151 0.059465
Si Si6 0.819654 0.225848 0.543825
O O1 0.566314 0.904811 0.591548
O O2 0.781673 0.042269 0.160632
O O3 0.673992 0.869186 0.037307
O O4 0.431810 0.527299 0.344094
O O5 0.401918 0.300756 0.406039
O O6 0.373156 0.367180 0.077447
O O7 0.843705 0.760687 0.252329
O O8 0.775405 0.678031 0.978082
#
# Coordination Sequence:
#
# PCOD9331537 Si02
#       6
#     2   4   8   2   8   8
#     4  12  30  44  74 118 164 184 250 332 410 406
#     4   9  20  37  68 107 135 180 236 309 348 423
#     4  10  22  43  70 103 144 194 248 306 357 460
#     4  10  22  48  70  94 154 196 238 310 390 406
#     4  11  24  46  72 109 148 197 240 318 369 459
#     4  11  22  43  78 104 145 197 263 290 376 461
#
# _framework density 25.026242
#
# number of rings (size 3 to 8) (size 9 to 14) (size 15 to 20)
#    0.000    1.500    5.000    0.750    3.500    0.000 
#    0.000    7.500    0.000    0.000    0.000    0.000 
#    0.000    0.000    0.000    0.000    0.000    0.000 
#
# Total GULP energy -89089.282330 kJ/mol
# GULP energy per Si atom -5568.080146 kJ/mol
# Density = 2.496928 g / cm^3
# Si number density = 25.026242 Si / 1000 Ang^3
#
#
#
# Elastic Constant Matrix: (Units=GPa)
#
#
# Indices 1 2 3 4 5 6 
#
# 1 96.9872 53.2487 66.1783 0.0000 0.0000 0.0000
# 2 53.2487 114.2427 45.0426 0.0000 0.0000 0.0000
# 3 66.1783 45.0426 174.7882 0.0000 0.0000 0.0000
# 4 0.0000 0.0000 0.0000 37.8543 0.0000 0.0000
# 5 0.0000 0.0000 0.0000 0.0000 15.7853 0.0000
# 6 0.0000 0.0000 0.0000 0.0000 0.0000 28.8089
#
#
#
# Elastic Compliance Matrix: (Units=1/GPa)
#
#
# Indices 1 2 3 4 5 6 
#
# 1 0.016901 -0.005960 -0.004863 0.000000 0.000000 0.000000
# 2 -0.005960 0.011845 -0.000796 0.000000 0.000000 0.000000
# 3 -0.004863 -0.000796 0.007768 0.000000 0.000000 0.000000
# 4 0.000000 0.000000 0.000000 0.026417 0.000000 0.000000
# 5 0.000000 0.000000 0.000000 0.000000 0.063350 0.000000
# 6 0.000000 0.000000 0.000000 0.000000 0.000000 0.034711
#
#
# Mechanical properties :
#
#
# Convention : Reuss Voigt Hill
#
# Bulk Modulus (GPa) = 75.32691 79.43970 77.38330
# Shear Modulus (GPa) = 26.50317 31.25961 28.88139
#
# Velocity S-wave (km/s) = 3.25778 3.53806 3.40081
# Velocity P-wave (km/s) = 6.65698 6.96433 6.81239
#
# Compressibility (1/GPa) = 0.01327547
#
# Stress axis : x y z
#
# Youngs Moduli (GPa) = 59.16658 84.42257 128.73986
#
# Poissons Ratio (x) = 0.50319 0.62609
# Poissons Ratio (y) = 0.35265 0.10245
# Poissons Ratio (z) = 0.28774 0.06718
#
# Static dielectric constant tensor:
#      x y z
#    x 2.038120 0.000000 0.000000 
#    y 0.000000 2.541070 0.000000 
#    z 0.000000 0.000000 1.945650 
# 
# From -- ./inp_files/10698.got.cif
#   From: 2010.05.17/outbox.cif.g08.bks.cpg/sg23_6_cif.got.tgz:10698.got - 2010.06.04 12:02:01.
