data_PCOD9331881
_publ_section_title
;
Structure prediction by ZEFSAII (Michael W. Deem and Ramdas Pophale) SiO2 
 PCOD9331881
Probable space group: I 2 2 2
;
_chemical_formula_sum "Si O2"
_cell_formula_units_Z 48
_cell_length_a 8.364891
_cell_length_b 14.966808
_cell_length_c 16.959403
_cell_angle_alpha 90.000000
_cell_angle_beta 90.000000
_cell_angle_gamma 90.000000
_cell_volume 2123.244628
_symmetry_space_group_name_H-M "I 2 2 2"
_symmetry_group_IT_number 23
_symmetry_cell_setting 'orthorhombic'
loop_
_space_group_symop_operation_xyz
x,y,z
-x,-y,z
x,-y,-z
-x,y,-z
1/2+x,1/2+y,1/2+z
1/2-x,1/2-y,1/2+z
1/2+x,1/2-y,1/2-z
1/2-x,1/2+y,1/2-z
loop_
_atom_site_type_symbol
_atom_site_label
_atom_site_fract_x
_atom_site_fract_y
_atom_site_fract_z
Si Si1 0.676812 0.022931 0.827301
Si Si2 0.422109 0.772263 0.422166
Si Si3 0.092425 0.416532 0.849375
Si Si4 0.396757 0.815941 0.924918
Si Si5 0.137313 0.201351 0.320009
Si Si6 0.894575 0.151694 0.187481
O O1 0.643076 0.053843 0.738160
O O2 0.707356 0.107482 0.882234
O O3 0.500000 0.000000 0.858374
O O4 0.799946 0.940880 0.825701
O O5 0.500000 0.812868 0.500000
O O6 0.455553 0.840937 0.351410
O O7 0.240937 0.754773 0.443290
O O8 0.526707 0.687074 0.393917
O O9 0.257994 0.367385 0.873634
O O10 0.000000 0.500000 0.887748
O O11 0.520098 0.766278 0.867547
O O12 0.500000 0.845678 0.000000
O O13 0.270539 0.270128 0.286513
O O14 0.033175 0.150422 0.253784
#
# Coordination Sequence:
#
# PCOD9331881 Si02
#       6
#     8   8   8   8   8   8
#     4  11  24  41  67 103 139 174 231 285 348 406
#     4  11  25  46  68  94 140 187 232 277 352 424
#     4  10  24  44  69  99 131 174 228 294 346 401
#     4  12  25  44  68  99 140 188 227 282 347 425
#     4  11  23  41  71 101 137 182 231 282 344 413
#     4  11  23  43  71 106 139 186 232 291 348 413
#
# _framework density 22.606911
#
# number of rings (size 3 to 8) (size 9 to 14) (size 15 to 20)
#    0.000    1.000    1.667    6.000    9.333    3.333 
#    0.000    0.833    0.000    0.000    0.000    0.000 
#    0.000    0.000    0.000    0.000    0.000    0.000 
#
# Total GULP energy -133842.109062 kJ/mol
# GULP energy per Si atom -5576.754544 kJ/mol
# Density = 2.255546 g / cm^3
# Si number density = 22.606911 Si / 1000 Ang^3
#
#
#
# Elastic Constant Matrix: (Units=GPa)
#
#
# Indices 1 2 3 4 5 6 
#
# 1 139.8987 62.6553 22.2569 0.0000 0.0000 0.0000
# 2 62.6553 117.9570 26.2643 0.0000 0.0000 0.0000
# 3 22.2569 26.2643 50.5918 0.0000 0.0000 0.0000
# 4 0.0000 0.0000 0.0000 19.0910 0.0000 0.0000
# 5 0.0000 0.0000 0.0000 0.0000 30.1434 0.0000
# 6 0.0000 0.0000 0.0000 0.0000 0.0000 43.0611
#
#
#
# Elastic Compliance Matrix: (Units=1/GPa)
#
#
# Indices 1 2 3 4 5 6 
#
# 1 0.009517 -0.004662 -0.001767 0.000000 0.000000 0.000000
# 2 -0.004662 0.011869 -0.004111 0.000000 0.000000 0.000000
# 3 -0.001767 -0.004111 0.022677 0.000000 0.000000 0.000000
# 4 0.000000 0.000000 0.000000 0.052381 0.000000 0.000000
# 5 0.000000 0.000000 0.000000 0.000000 0.033175 0.000000
# 6 0.000000 0.000000 0.000000 0.000000 0.000000 0.023223
#
#
# Mechanical properties :
#
#
# Convention : Reuss Voigt Hill
#
# Bulk Modulus (GPa) = 43.50703 58.97785 51.24244
# Shear Modulus (GPa) = 27.53574 31.61050 29.57312
#
# Velocity S-wave (km/s) = 3.49381 3.74340 3.62075
# Velocity P-wave (km/s) = 5.96342 6.69545 6.34001
#
# Compressibility (1/GPa) = 0.02298479
#
# Stress axis : x y z
#
# Youngs Moduli (GPa) = 105.07613 84.25174 44.09673
#
# Poissons Ratio (x) = 0.39276 0.07790
# Poissons Ratio (y) = 0.48984 0.18128
# Poissons Ratio (z) = 0.18564 0.34635
#
# Static dielectric constant tensor:
#      x y z
#    x 1.876750 0.000000 0.000000 
#    y 0.000000 2.000590 0.000000 
#    z 0.000000 0.000000 1.854660 
# 
# From -- ./inp_files/23728.got.cif
#   From: 2010.05.17/outbox.cif.g08.bks.cpg/sg23_12_cif.got.tgz:23728.got - 2010.06.04 12:02:01.
