data_PCOD9331261
_publ_section_title
;
Structure prediction by ZEFSAII (Michael W. Deem and Ramdas Pophale) SiO2 
 PCOD9331261
Probable space group: I 2 2 2
;
_chemical_formula_sum "Si O2"
_cell_formula_units_Z 30
_cell_length_a 11.447080
_cell_length_b 22.861485
_cell_length_c 6.451050
_cell_angle_alpha 90.000000
_cell_angle_beta 90.000000
_cell_angle_gamma 90.000000
_cell_volume 1688.222030
_symmetry_space_group_name_H-M "I 2 2 2"
_symmetry_group_IT_number 23
_symmetry_cell_setting 'orthorhombic'
loop_
_space_group_symop_operation_xyz
x,y,z
-x,-y,z
x,-y,-z
-x,y,-z
1/2+x,1/2+y,1/2+z
1/2-x,1/2-y,1/2+z
1/2+x,1/2-y,1/2-z
1/2-x,1/2+y,1/2-z
loop_
_atom_site_type_symbol
_atom_site_label
_atom_site_fract_x
_atom_site_fract_y
_atom_site_fract_z
Si Si1 0.383694 0.440044 0.119853
Si Si2 0.500000 0.818316 0.000000
Si Si3 0.000000 0.000000 0.000000
Si Si4 0.203473 0.340655 0.212758
Si Si5 0.389066 0.250537 0.377505
O O1 0.423463 0.459671 0.348610
O O2 0.278444 0.395021 0.133060
O O3 0.352649 0.500000 0.000000
O O4 0.500000 0.416537 0.000000
O O5 0.406025 0.853751 0.136787
O O6 0.567715 0.776715 0.161708
O O7 0.291291 0.298515 0.338353
O O8 0.157179 0.302143 0.020867
O O9 0.500000 0.276455 0.500000
#
# Coordination Sequence:
#
# PCOD9331261 Si02
#       5
#     8   4   2   8   8
#     4   9  21  37  57  87 118 148 197 249 293 340
#     4  10  22  38  52  85 119 158 200 228 292 362
#     4   8  18  40  56  92 108 148 198 236 300 350
#     4  11  21  37  59  83 126 153 189 244 291 356
#     4  10  22  35  54  88 118 152 189 234 293 354
#
# _framework density 17.770174000000001
#
# number of rings (size 3 to 8) (size 9 to 14) (size 15 to 20)
#    0.000    2.400    2.667    0.000    3.733    4.267 
#    0.000    0.000    0.000   19.200    0.000    0.000 
#    0.000    0.000    0.000    0.000    0.000    0.000 
#
# Total GULP energy -83673.520599 kJ/mol
# GULP energy per Si atom -5578.234707 kJ/mol
# Density = 1.772973 g / cm^3
# Si number density = 17.770174 Si / 1000 Ang^3
#
#
#
# Elastic Constant Matrix: (Units=GPa)
#
#
# Indices 1 2 3 4 5 6 
#
# 1 123.9641 56.9184 50.0093 0.0005 -0.0003 -0.0002
# 2 56.9184 60.5972 32.9773 0.0027 -0.0007 -0.0111
# 3 50.0093 32.9773 106.0036 0.0081 -0.0035 -0.0270
# 4 0.0005 0.0027 0.0081 7.4993 -0.0008 -0.0205
# 5 -0.0003 -0.0007 -0.0035 -0.0008 34.1020 -0.0009
# 6 -0.0002 -0.0111 -0.0270 -0.0205 -0.0009 -26.1921
#
#
#
# Elastic Compliance Matrix: (Units=1/GPa)
#
#
# Indices 1 2 3 4 5 6 
#
# 1 0.015063 -0.012377 -0.003256 0.000007 0.000000 0.000008
# 2 -0.012377 0.030035 -0.003505 -0.000006 0.000000 -0.000009
# 3 -0.003256 -0.003505 0.012060 -0.000012 0.000001 -0.000011
# 4 0.000007 -0.000006 -0.000012 0.133345 0.000003 -0.000104
# 5 0.000000 0.000000 0.000001 0.000003 0.029324 -0.000001
# 6 0.000008 -0.000009 -0.000011 -0.000104 -0.000001 -0.038179
#
#
# Mechanical properties :
#
#
# Convention : Reuss Voigt Hill
#
# Bulk Modulus (GPa) = 52.95712 63.37500 58.16606
# Shear Modulus (GPa) = 22.10263 13.12585 17.61424
#
# Velocity S-wave (km/s) = 3.53059 2.72075 3.15179
# Velocity P-wave (km/s) = 6.81806 6.75360 6.78590
#
# Compressibility (1/GPa) = 0.01888320
#
# Stress axis : x y z
#
# Youngs Moduli (GPa) = 66.38689 33.29426 82.91838
#
# Poissons Ratio (x) = 0.41208 0.26998
# Poissons Ratio (y) = 0.82166 0.29061
# Poissons Ratio (z) = 0.21615 0.11669
#
# Static dielectric constant tensor:
#      x y z
#    x 1.628520 0.000000 0.000000 
#    y 0.000000 1.572140 0.000000 
#    z 0.000000 0.000000 1.617860 
# 
# From -- ./inp_files/1268.got.cif
#   From: 2010.05.17/outbox.cif.g08.bks.cpg/sg23_1_cif.got.tgz:1268.got - 2010.06.04 12:02:01.
