data_PCOD9331699
_publ_section_title
;
Structure prediction by ZEFSAII (Michael W. Deem and Ramdas Pophale) SiO2 
 PCOD9331699
Probable space group: I 2 2 2
;
_chemical_formula_sum "Si O2"
_cell_formula_units_Z 56
_cell_length_a 9.335485
_cell_length_b 15.791110
_cell_length_c 18.301420
_cell_angle_alpha 90.000000
_cell_angle_beta 90.000000
_cell_angle_gamma 90.000000
_cell_volume 2697.952704
_symmetry_space_group_name_H-M "I 2 2 2"
_symmetry_group_IT_number 23
_symmetry_cell_setting 'orthorhombic'
loop_
_space_group_symop_operation_xyz
x,y,z
-x,-y,z
x,-y,-z
-x,y,-z
1/2+x,1/2+y,1/2+z
1/2-x,1/2-y,1/2+z
1/2+x,1/2-y,1/2-z
1/2-x,1/2+y,1/2-z
loop_
_atom_site_type_symbol
_atom_site_label
_atom_site_fract_x
_atom_site_fract_y
_atom_site_fract_z
Si Si1 0.020198 0.595183 0.913342
Si Si2 0.472062 0.095484 0.173266
Si Si3 0.076451 0.771422 0.079067
Si Si4 0.496403 0.594366 0.172740
Si Si5 0.693899 0.850121 0.703759
Si Si6 0.151551 0.846608 0.809648
Si Si7 0.911167 0.745178 0.425529
O O1 0.170637 0.626943 0.882143
O O2 0.000000 0.500000 0.886190
O O3 0.926931 0.675265 0.887883
O O4 0.000000 0.591653 0.000000
O O5 0.566760 0.107726 0.248411
O O6 0.302580 0.113301 0.168564
O O7 0.532089 0.169149 0.123229
O O8 0.500000 0.000000 0.148871
O O9 0.244595 0.780517 0.065520
O O10 0.978762 0.831298 0.131703
O O11 0.000000 0.772250 0.000000
O O12 0.500000 0.500000 0.140304
O O13 0.645726 0.618567 0.212847
O O14 0.390907 0.597067 0.241018
O O15 0.444401 0.666590 0.116650
O O16 0.684497 0.749926 0.715515
O O17 0.000000 0.748456 0.500000
#
# Coordination Sequence:
#
# PCOD9331699 Si02
#       7
#     8   8   8   8   8   8   8
#     4   9  20  34  58  91 132 175 226 272 333 407
#     4  12  25  44  74 105 137 182 233 286 347 414
#     4  10  23  42  69  96 130 183 229 279 349 413
#     4  12  27  43  67 102 142 182 231 285 346 416
#     4  11  21  40  66  98 137 178 226 282 344 410
#     4  11  22  43  70  99 139 179 228 284 345 414
#     4  12  27  46  69  98 141 183 232 290 354 416
#
# _framework density 20.75648
#
# number of rings (size 3 to 8) (size 9 to 14) (size 15 to 20)
#    0.000    1.000    2.857    3.000   10.000    0.571 
#    0.000    0.000    0.000    3.000    0.000    0.000 
#    0.000    0.000    0.000    0.000    0.000    0.000 
#
# Total GULP energy -155962.832710 kJ/mol
# GULP energy per Si atom -5570.101168 kJ/mol
# Density = 2.070924 g / cm^3
# Si number density = 20.756480 Si / 1000 Ang^3
#
#
#
# Elastic Constant Matrix: (Units=GPa)
#
#
# Indices 1 2 3 4 5 6 
#
# 1 162.1276 31.7909 54.3185 0.0000 0.0000 0.0000
# 2 31.7909 106.0711 32.5218 0.0000 0.0000 0.0000
# 3 54.3185 32.5218 95.5149 0.0000 0.0000 0.0000
# 4 0.0000 0.0000 0.0000 41.1554 0.0000 0.0000
# 5 0.0000 0.0000 0.0000 0.0000 28.9873 0.0000
# 6 0.0000 0.0000 0.0000 0.0000 0.0000 5.0123
#
#
#
# Elastic Compliance Matrix: (Units=1/GPa)
#
#
# Indices 1 2 3 4 5 6 
#
# 1 0.007729 -0.001082 -0.004027 0.000000 0.000000 0.000000
# 2 -0.001082 0.010678 -0.003021 0.000000 0.000000 0.000000
# 3 -0.004027 -0.003021 0.013788 0.000000 0.000000 0.000000
# 4 0.000000 0.000000 0.000000 0.024298 0.000000 0.000000
# 5 0.000000 0.000000 0.000000 0.000000 0.034498 0.000000
# 6 0.000000 0.000000 0.000000 0.000000 0.000000 0.199508
#
#
# Mechanical properties :
#
#
# Convention : Reuss Voigt Hill
#
# Bulk Modulus (GPa) = 62.74932 66.77512 64.76222
# Shear Modulus (GPa) = 16.02196 31.36982 23.69589
#
# Velocity S-wave (km/s) = 2.78133 3.89180 3.38244
# Velocity P-wave (km/s) = 6.37269 7.24122 6.82080
#
# Compressibility (1/GPa) = 0.01593643
#
# Stress axis : x y z
#
# Youngs Moduli (GPa) = 129.37615 93.65065 72.52511
#
# Poissons Ratio (x) = 0.10131 0.29208
# Poissons Ratio (y) = 0.13996 0.21906
# Poissons Ratio (z) = 0.52104 0.28287
#
# Static dielectric constant tensor:
#      x y z
#    x 1.765140 0.000000 0.000000 
#    y 0.000000 1.747540 0.000000 
#    z 0.000000 0.000000 1.744660 
# 
# From -- ./inp_files/26254.got.cif
#   From: 2010.05.17/outbox.cif.g08.bks.cpg/sg23_14_cif.got.tgz:26254.got - 2010.06.04 12:02:01.
