data_PCOD9331621
_publ_section_title
;
Structure prediction by ZEFSAII (Michael W. Deem and Ramdas Pophale) SiO2 
 PCOD9331621
Probable space group: I 2 2 2
;
_chemical_formula_sum "Si O2"
_cell_formula_units_Z 64
_cell_length_a 15.486764
_cell_length_b 17.284412
_cell_length_c 11.883635
_cell_angle_alpha 90.000000
_cell_angle_beta 90.000000
_cell_angle_gamma 90.000000
_cell_volume 3181.006777
_symmetry_space_group_name_H-M "I 2 2 2"
_symmetry_group_IT_number 23
_symmetry_cell_setting 'orthorhombic'
loop_
_space_group_symop_operation_xyz
x,y,z
-x,-y,z
x,-y,-z
-x,y,-z
1/2+x,1/2+y,1/2+z
1/2-x,1/2-y,1/2+z
1/2+x,1/2-y,1/2-z
1/2-x,1/2+y,1/2-z
loop_
_atom_site_type_symbol
_atom_site_label
_atom_site_fract_x
_atom_site_fract_y
_atom_site_fract_z
Si Si1 0.370339 0.045215 0.392173
Si Si2 0.330902 0.349204 0.409668
Si Si3 0.010433 0.091771 0.758706
Si Si4 0.810057 0.917510 0.517225
Si Si5 0.818478 0.115690 0.828090
Si Si6 0.653244 0.194907 0.721079
Si Si7 0.263149 0.047330 0.758513
Si Si8 0.574965 0.707966 0.075362
O O1 0.275637 0.071671 0.441381
O O2 0.401108 0.123911 0.333653
O O3 0.352606 0.984553 0.291526
O O4 0.408436 0.000000 0.500000
O O5 0.416684 0.388774 0.353352
O O6 0.322462 0.364342 0.540641
O O7 0.337237 0.260584 0.372998
O O8 0.247026 0.387541 0.351209
O O9 0.038671 0.134461 0.645320
O O10 0.916081 0.124390 0.786893
O O11 0.000000 0.000000 0.747582
O O12 0.855139 0.835937 0.497266
O O13 0.858867 0.000000 0.500000
O O14 0.782181 0.917991 0.647510
O O15 0.746245 0.165761 0.764796
O O16 0.787762 0.027420 0.805429
O O17 0.610370 0.233834 0.831065
O O18 0.500000 0.743038 0.000000
#
# Coordination Sequence:
#
# PCOD9331621 Si02
#       8
#     8   8   8   8   8   8   8   8
#     4   8  18  32  59  75 110 158 202 242 292 342
#     4  11  21  33  52  77 118 150 196 243 293 358
#     4  11  22  35  52  83 120 160 199 244 280 377
#     4   9  17  31  52  79 110 159 200 234 275 354
#     4  11  22  33  55  72 112 165 193 235 306 346
#     4  10  23  38  49  82 118 154 202 261 284 363
#     4   9  16  32  47  79 109 146 192 235 276 358
#     4  11  24  32  53  81 124 164 202 241 307 349
#
# _framework density 20.119416999999999
#
# number of rings (size 3 to 8) (size 9 to 14) (size 15 to 20)
#    0.000    2.250    3.750    0.750    8.750    0.500 
#    0.000    0.000    0.000    0.000    0.000    0.000 
#    0.000  132.000    0.000    0.000    0.000    0.000 
#
# Total GULP energy -178367.040309 kJ/mol
# GULP energy per Si atom -5573.970010 kJ/mol
# Density = 2.007362 g / cm^3
# Si number density = 20.119417 Si / 1000 Ang^3
#
#
#
# Elastic Constant Matrix: (Units=GPa)
#
#
# Indices 1 2 3 4 5 6 
#
# 1 40.7594 23.0690 26.9310 0.0000 0.0000 0.0000
# 2 23.0690 85.0782 13.5026 0.0000 0.0000 0.0000
# 3 26.9310 13.5026 84.7872 0.0000 0.0000 0.0000
# 4 0.0000 0.0000 0.0000 31.1514 0.0000 0.0000
# 5 0.0000 0.0000 0.0000 0.0000 12.1270 0.0000
# 6 0.0000 0.0000 0.0000 0.0000 0.0000 19.8755
#
#
#
# Elastic Compliance Matrix: (Units=1/GPa)
#
#
# Indices 1 2 3 4 5 6 
#
# 1 0.035775 -0.008102 -0.010073 0.000000 0.000000 0.000000
# 2 -0.008102 0.013893 0.000361 0.000000 0.000000 0.000000
# 3 -0.010073 0.000361 0.014936 0.000000 0.000000 0.000000
# 4 0.000000 0.000000 0.000000 0.032101 0.000000 0.000000
# 5 0.000000 0.000000 0.000000 0.000000 0.082461 0.000000
# 6 0.000000 0.000000 0.000000 0.000000 0.000000 0.050313
#
#
# Mechanical properties :
#
#
# Convention : Reuss Voigt Hill
#
# Bulk Modulus (GPa) = 34.51030 37.51444 36.01237
# Shear Modulus (GPa) = 18.19720 22.43892 20.31806
#
# Velocity S-wave (km/s) = 3.01069 3.34321 3.18130
# Velocity P-wave (km/s) = 5.41069 5.79561 5.60646
#
# Compressibility (1/GPa) = 0.02897686
#
# Stress axis : x y z
#
# Youngs Moduli (GPa) = 27.95220 71.97637 66.95093
#
# Poissons Ratio (x) = 0.58314 0.67441
# Poissons Ratio (y) = 0.22646 -0.02416
# Poissons Ratio (z) = 0.28157 -0.02597
#
# Static dielectric constant tensor:
#      x y z
#    x 1.784310 0.000000 0.000000 
#    y 0.000000 1.754670 0.000000 
#    z 0.000000 0.000000 1.718320 
# 
# From -- ./inp_files/17672.got.cif
#   From: 2010.05.17/outbox.cif.g08.bks.cpg/sg23_9_cif.got.tgz:17672.got - 2010.06.04 12:02:01.
