data_PCOD9331430
_publ_section_title
;
Structure prediction by ZEFSAII (Michael W. Deem and Ramdas Pophale) SiO2 
 PCOD9331430
Probable space group: I 2 2 2
;
_chemical_formula_sum "Si O2"
_cell_formula_units_Z 48
_cell_length_a 28.460848
_cell_length_b 13.745691
_cell_length_c 5.425724
_cell_angle_alpha 90.000000
_cell_angle_beta 90.000000
_cell_angle_gamma 90.000000
_cell_volume 2122.619309
_symmetry_space_group_name_H-M "I 2 2 2"
_symmetry_group_IT_number 23
_symmetry_cell_setting 'orthorhombic'
loop_
_space_group_symop_operation_xyz
x,y,z
-x,-y,z
x,-y,-z
-x,y,-z
1/2+x,1/2+y,1/2+z
1/2-x,1/2-y,1/2+z
1/2+x,1/2-y,1/2-z
1/2-x,1/2+y,1/2-z
loop_
_atom_site_type_symbol
_atom_site_label
_atom_site_fract_x
_atom_site_fract_y
_atom_site_fract_z
Si Si1 0.271814 0.788506 0.137410
Si Si2 0.238988 0.000000 0.000000
Si Si3 0.447282 0.612186 0.559826
Si Si4 0.324108 0.500000 0.000000
Si Si5 0.945579 0.461346 0.239482
Si Si6 0.369400 0.691990 0.199131
Si Si7 0.448239 0.238139 0.091996
O O1 0.239109 0.770648 0.381062
O O2 0.321050 0.748138 0.241747
O O3 0.267963 0.900522 0.046844
O O4 0.206684 0.995727 0.752234
O O5 0.448272 0.500000 0.500000
O O6 0.500000 0.652245 0.500000
O O7 0.401392 0.653385 0.424178
O O8 0.444887 0.648978 0.836997
O O9 0.355054 0.597956 0.032351
O O10 0.926991 0.500000 0.500000
O O11 0.943345 0.345437 0.208369
O O12 0.000000 0.500000 0.239122
O O13 0.920371 0.500000 0.000000
O O14 0.404394 0.771294 0.083476
O O15 0.500000 0.219074 0.000000
#
# Coordination Sequence:
#
# PCOD9331430 Si02
#       7
#     8   4   8   4   8   8   8
#     4  12  26  49  80 113 148 198 256 325 400 470
#     4  12  24  52  76 114 154 192 256 334 408 464
#     4  11  26  45  69 107 160 207 261 322 372 456
#     4  12  26  46  83 106 150 208 257 322 396 488
#     4  10  22  40  70  95 130 189 261 299 369 440
#     4  12  27  44  75 111 148 202 265 309 394 474
#     4  12  25  45  69 105 155 206 258 320 380 455
#
# _framework density 22.613569999999999
#
# number of rings (size 3 to 8) (size 9 to 14) (size 15 to 20)
#    0.000    0.500    6.667    1.000   10.500    0.000 
#    1.500    0.000    0.000    0.000    0.000    0.000 
#    0.000    0.000    0.000    0.000    0.000    0.000 
#
# Total GULP energy -133655.585893 kJ/mol
# GULP energy per Si atom -5568.982746 kJ/mol
# Density = 2.256210 g / cm^3
# Si number density = 22.613570 Si / 1000 Ang^3
#
#
#
# Elastic Constant Matrix: (Units=GPa)
#
#
# Indices 1 2 3 4 5 6 
#
# 1 118.6643 26.5256 19.4421 0.0000 0.0000 0.0000
# 2 26.5256 104.4146 15.9333 0.0000 0.0000 0.0000
# 3 19.4421 15.9333 103.0475 0.0000 0.0001 -0.0001
# 4 0.0000 0.0000 0.0000 39.7014 0.0000 0.0000
# 5 0.0000 0.0000 0.0001 0.0000 19.3611 0.0000
# 6 0.0000 0.0000 -0.0001 0.0000 0.0000 17.4980
#
#
#
# Elastic Compliance Matrix: (Units=1/GPa)
#
#
# Indices 1 2 3 4 5 6 
#
# 1 0.009127 -0.002105 -0.001396 0.000000 0.000000 0.000000
# 2 -0.002105 0.010294 -0.001194 0.000000 0.000000 0.000000
# 3 -0.001396 -0.001194 0.010152 0.000000 0.000000 0.000000
# 4 0.000000 0.000000 0.000000 0.025188 0.000000 0.000000
# 5 0.000000 0.000000 0.000000 0.000000 0.051650 0.000000
# 6 0.000000 0.000000 0.000000 0.000000 0.000000 0.057150
#
#
# Mechanical properties :
#
#
# Convention : Reuss Voigt Hill
#
# Bulk Modulus (GPa) = 49.55223 49.99203 49.77213
# Shear Modulus (GPa) = 27.82719 32.92712 30.37715
#
# Velocity S-wave (km/s) = 3.51173 3.82000 3.66910
# Velocity P-wave (km/s) = 6.19703 6.45071 6.32514
#
# Compressibility (1/GPa) = 0.02018072
#
# Stress axis : x y z
#
# Youngs Moduli (GPa) = 109.57036 97.14064 98.49874
#
# Poissons Ratio (x) = 0.20452 0.13754
# Poissons Ratio (y) = 0.23069 0.11766
# Poissons Ratio (z) = 0.15300 0.11603
#
# Static dielectric constant tensor:
#      x y z
#    x 1.758790 0.000000 0.000000 
#    y 0.000000 2.019020 0.000000 
#    z 0.000000 0.000000 1.942970 
# 
# From -- ./inp_files/4921.got.cif
#   From: 2010.05.17/outbox.cif.g08.bks.cpg/sg23_3_cif.got.tgz:4921.got - 2010.06.04 12:02:01.
