data_PCOD9331000
_publ_section_title
;
Structure prediction by ZEFSAII (Michael W. Deem and Ramdas Pophale) SiO2 
 PCOD9331000
Probable space group: I 2 2 2
;
_chemical_formula_sum "Si O2"
_cell_formula_units_Z 40
_cell_length_a 22.504004
_cell_length_b 7.808471
_cell_length_c 9.972142
_cell_angle_alpha 90.000000
_cell_angle_beta 90.000000
_cell_angle_gamma 90.000000
_cell_volume 1752.323367
_symmetry_space_group_name_H-M "I 2 2 2"
_symmetry_group_IT_number 23
_symmetry_cell_setting 'orthorhombic'
loop_
_space_group_symop_operation_xyz
x,y,z
-x,-y,z
x,-y,-z
-x,y,-z
1/2+x,1/2+y,1/2+z
1/2-x,1/2-y,1/2+z
1/2+x,1/2-y,1/2-z
1/2-x,1/2+y,1/2-z
loop_
_atom_site_type_symbol
_atom_site_label
_atom_site_fract_x
_atom_site_fract_y
_atom_site_fract_z
Si Si1 0.859920 0.656388 0.904382
Si Si2 0.572362 0.702387 0.854852
Si Si3 0.827412 0.829656 0.155146
Si Si4 0.936254 0.786904 0.659844
Si Si5 0.262950 0.466781 0.142778
O O1 0.898616 0.700927 0.776456
O O2 0.794022 0.593669 0.862374
O O3 0.882502 0.500000 0.000000
O O4 0.854966 0.814632 0.008185
O O5 0.625021 0.756065 0.756489
O O6 0.505552 0.761138 0.821865
O O7 0.568616 0.494701 0.838971
O O8 0.583262 0.756953 0.008262
O O9 0.767918 0.715914 0.145531
O O10 0.804858 0.997379 0.232128
O O11 0.295017 0.500000 0.000000
#
# Coordination Sequence:
#
# PCOD9331000 Si02
#       5
#     8   8   8   8   8
#     4   9  21  41  60  88 127 161 207 262 310 376
#     4   9  20  36  64  92 119 160 205 256 305 382
#     4  10  21  39  61  89 120 162 208 249 318 359
#     4   9  19  39  62  91 123 157 204 255 318 369
#     4   9  22  40  56  87 124 161 207 254 302 370
#
# _framework density 22.826837999999999
#
# number of rings (size 3 to 8) (size 9 to 14) (size 15 to 20)
#    0.000    3.200    0.000    1.200    5.600    3.200 
#    3.600   22.000    0.000    9.600    0.000    0.000 
#    0.000    0.000    0.000    0.000    0.000    0.000 
#
# Total GULP energy -111656.290462 kJ/mol
# GULP energy per Si atom -5582.814523 kJ/mol
# Density = 2.277488 g / cm^3
# Si number density = 22.826838 Si / 1000 Ang^3
#
#
#
# Elastic Constant Matrix: (Units=GPa)
#
#
# Indices 1 2 3 4 5 6 
#
# 1 65.7166 1.8953 58.2815 0.0000 0.0000 0.0000
# 2 1.8953 49.4259 26.3619 0.0000 0.0000 0.0000
# 3 58.2815 26.3619 168.3350 0.0000 0.0000 0.0000
# 4 0.0000 0.0000 0.0000 39.5416 0.0000 0.0000
# 5 0.0000 0.0000 0.0000 0.0000 43.6827 0.0000
# 6 0.0000 0.0000 0.0000 0.0000 0.0000 15.8921
#
#
#
# Elastic Compliance Matrix: (Units=1/GPa)
#
#
# Indices 1 2 3 4 5 6 
#
# 1 0.022531 0.003597 -0.008364 0.000000 0.000000 0.000000
# 2 0.003597 0.022651 -0.004793 0.000000 0.000000 0.000000
# 3 -0.008364 -0.004793 0.009587 0.000000 0.000000 0.000000
# 4 0.000000 0.000000 0.000000 0.025290 0.000000 0.000000
# 5 0.000000 0.000000 0.000000 0.000000 0.022892 0.000000
# 6 0.000000 0.000000 0.000000 0.000000 0.000000 0.062924
#
#
# Mechanical properties :
#
#
# Convention : Reuss Voigt Hill
#
# Bulk Modulus (GPa) = 28.05110 50.72831 39.38970
# Shear Modulus (GPa) = 25.39660 32.95254 29.17457
#
# Velocity S-wave (km/s) = 3.33915 3.80358 3.57891
# Velocity P-wave (km/s) = 5.21362 6.44678 5.86271
#
# Compressibility (1/GPa) = 0.03564923
#
# Stress axis : x y z
#
# Youngs Moduli (GPa) = 44.38363 44.14913 104.30927
#
# Poissons Ratio (x) = -0.15881 0.87244
# Poissons Ratio (y) = -0.15965 0.49991
# Poissons Ratio (z) = 0.37122 0.21159
#
# Static dielectric constant tensor:
#      x y z
#    x 1.820780 0.000000 0.000000 
#    y 0.000000 1.977090 0.000000 
#    z 0.000000 0.000000 1.839160 
# 
# From -- ./inp_files/12422.got.cif
#   From: 2010.05.17/outbox.cif.g08.bks.cpg/sg23_7_cif.got.tgz:12422.got - 2010.06.04 12:02:01.
