data_PCOD9331783
_publ_section_title
;
Structure prediction by ZEFSAII (Michael W. Deem and Ramdas Pophale) SiO2 
 PCOD9331783
Probable space group: I 2 2 2
;
_chemical_formula_sum "Si O2"
_cell_formula_units_Z 44
_cell_length_a 9.310874
_cell_length_b 16.856343
_cell_length_c 13.460221
_cell_angle_alpha 90.000000
_cell_angle_beta 90.000000
_cell_angle_gamma 90.000000
_cell_volume 2112.545152
_symmetry_space_group_name_H-M "I 2 2 2"
_symmetry_group_IT_number 23
_symmetry_cell_setting 'orthorhombic'
loop_
_space_group_symop_operation_xyz
x,y,z
-x,-y,z
x,-y,-z
-x,y,-z
1/2+x,1/2+y,1/2+z
1/2-x,1/2-y,1/2+z
1/2+x,1/2-y,1/2-z
1/2-x,1/2+y,1/2-z
loop_
_atom_site_type_symbol
_atom_site_label
_atom_site_fract_x
_atom_site_fract_y
_atom_site_fract_z
Si Si1 0.076995 0.368329 0.406133
Si Si2 0.444515 0.579703 0.311470
Si Si3 0.785760 0.000000 0.000000
Si Si4 0.843068 0.344493 0.267218
Si Si5 0.960396 0.409545 0.884125
Si Si6 0.280375 0.328650 0.241168
O O1 0.182875 0.437826 0.442530
O O2 0.165324 0.314767 0.329807
O O3 0.000000 0.329172 0.500000
O O4 0.940545 0.396400 0.341776
O O5 0.500000 0.500000 0.261426
O O6 0.380596 0.550637 0.419464
O O7 0.311052 0.617679 0.257127
O O8 0.581830 0.635927 0.298800
O O9 0.823090 0.255257 0.305337
O O10 0.931460 0.347432 0.166658
O O11 0.804176 0.384477 0.838688
O O12 0.000000 0.500000 0.853402
O O13 0.000000 0.405616 0.000000
#
# Coordination Sequence:
#
# PCOD9331783 Si02
#       6
#     8   8   4   8   8   8
#     4  11  23  39  66  95 137 178 218 262 338 423
#     4  12  23  38  65 102 140 168 218 280 338 401
#     4  12  24  38  66 112 134 176 218 276 360 412
#     4  11  25  43  66  94 139 186 221 275 341 408
#     4  10  23  46  73  93 122 183 244 276 319 399
#     4  11  25  44  64  98 140 179 222 277 345 399
#
# _framework density 20.827957999999999
#
# number of rings (size 3 to 8) (size 9 to 14) (size 15 to 20)
#    0.000    0.909    3.636    3.818    2.545    1.455 
#    3.273    0.909    0.000    3.273    0.000    0.000 
#    0.000    0.000    0.000    0.000    0.000    0.000 
#
# Total GULP energy -122546.318420 kJ/mol
# GULP energy per Si atom -5570.287201 kJ/mol
# Density = 2.078055 g / cm^3
# Si number density = 20.827958 Si / 1000 Ang^3
#
#
#
# Elastic Constant Matrix: (Units=GPa)
#
#
# Indices 1 2 3 4 5 6 
#
# 1 158.4971 41.1460 39.0690 0.0000 0.0000 0.0000
# 2 41.1460 88.6304 17.1467 -0.0002 0.0000 0.0000
# 3 39.0690 17.1467 91.9127 -0.0003 0.0001 0.0000
# 4 0.0000 -0.0002 -0.0003 23.9167 0.0001 0.0000
# 5 0.0000 0.0000 0.0001 0.0001 19.6925 0.0000
# 6 0.0000 0.0000 0.0000 0.0000 0.0000 24.3047
#
#
#
# Elastic Compliance Matrix: (Units=1/GPa)
#
#
# Indices 1 2 3 4 5 6 
#
# 1 0.007784 -0.003085 -0.002733 0.000000 0.000000 0.000000
# 2 -0.003085 0.012928 -0.001100 0.000000 0.000000 0.000000
# 3 -0.002733 -0.001100 0.012247 0.000000 0.000000 0.000000
# 4 0.000000 0.000000 0.000000 0.041812 0.000000 0.000000
# 5 0.000000 0.000000 0.000000 0.000000 0.050781 0.000000
# 6 0.000000 0.000000 0.000000 0.000000 0.000000 0.041144
#
#
# Mechanical properties :
#
#
# Convention : Reuss Voigt Hill
#
# Bulk Modulus (GPa) = 52.29667 59.30708 55.80187
# Shear Modulus (GPa) = 26.75136 29.69466 28.22301
#
# Velocity S-wave (km/s) = 3.58774 3.77996 3.68510
# Velocity P-wave (km/s) = 6.50583 6.89836 6.70497
#
# Compressibility (1/GPa) = 0.01912168
#
# Stress axis : x y z
#
# Youngs Moduli (GPa) = 128.47201 77.35263 81.65294
#
# Poissons Ratio (x) = 0.23862 0.22317
# Poissons Ratio (y) = 0.39631 0.08986
# Poissons Ratio (z) = 0.35113 0.08513
#
# Static dielectric constant tensor:
#      x y z
#    x 1.788150 0.000000 0.000000 
#    y 0.000000 1.767240 0.000000 
#    z 0.000000 0.000000 1.819730 
# 
# From -- ./inp_files/19958.got.cif
#   From: 2010.05.17/outbox.cif.g08.bks.cpg/sg23_10_cif.got.tgz:19958.got - 2010.06.04 12:02:01.
