data_PCOD9331892
_publ_section_title
;
Structure prediction by ZEFSAII (Michael W. Deem and Ramdas Pophale) SiO2 
 PCOD9331892
Probable space group: I 2 2 2
;
_chemical_formula_sum "Si O2"
_cell_formula_units_Z 48
_cell_length_a 10.881332
_cell_length_b 25.393780
_cell_length_c 8.862162
_cell_angle_alpha 90.000000
_cell_angle_beta 90.000000
_cell_angle_gamma 90.000000
_cell_volume 2448.776217
_symmetry_space_group_name_H-M "I 2 2 2"
_symmetry_group_IT_number 23
_symmetry_cell_setting 'orthorhombic'
loop_
_space_group_symop_operation_xyz
x,y,z
-x,-y,z
x,-y,-z
-x,y,-z
1/2+x,1/2+y,1/2+z
1/2-x,1/2-y,1/2+z
1/2+x,1/2-y,1/2-z
1/2-x,1/2+y,1/2-z
loop_
_atom_site_type_symbol
_atom_site_label
_atom_site_fract_x
_atom_site_fract_y
_atom_site_fract_z
Si Si1 0.255230 0.895478 0.184257
Si Si2 0.143630 0.003664 0.667575
Si Si3 0.754224 0.902168 0.175442
Si Si4 0.636986 0.289224 0.314279
Si Si5 0.495974 0.062765 0.319532
Si Si6 0.146234 0.781780 0.177694
O O1 0.175735 0.942094 0.253953
O O2 0.388479 0.906120 0.253297
O O3 0.194099 0.839808 0.221868
O O4 0.262694 0.900532 0.004006
O O5 0.203535 0.000000 0.500000
O O6 0.182184 0.955534 0.771789
O O7 0.000000 0.000000 0.649516
O O8 0.834024 0.850796 0.216476
O O9 0.623353 0.907293 0.257426
O O10 0.749416 0.257616 0.238662
O O11 0.644133 0.280172 0.495052
O O12 0.496108 0.274496 0.269354
O O13 0.500000 0.064019 0.500000
O O14 0.500000 0.000000 0.274141
#
# Coordination Sequence:
#
# PCOD9331892 Si02
#       6
#     8   8   8   8   8   8
#     4  11  23  40  64  91 125 164 211 262 314 378
#     4  11  23  38  59  90 125 161 205 255 316 383
#     4  11  23  40  64  91 125 164 211 262 314 378
#     4  10  24  45  67  95 128 165 213 266 321 381
#     4  11  23  39  61  93 132 168 208 255 316 381
#     4  10  24  45  67  95 128 165 213 266 321 381
#
# _framework density 19.601628000000002
#
# number of rings (size 3 to 8) (size 9 to 14) (size 15 to 20)
#    0.000    1.333    1.667    3.000    2.333    6.667 
#    0.000    0.000    0.000    0.000    0.000    0.000 
#    0.000    0.000    0.000    0.000    0.000    0.000 
#
# Total GULP energy -134033.712533 kJ/mol
# GULP energy per Si atom -5584.738022 kJ/mol
# Density = 1.955701 g / cm^3
# Si number density = 19.601628 Si / 1000 Ang^3
#
#
#
# Elastic Constant Matrix: (Units=GPa)
#
#
# Indices 1 2 3 4 5 6 
#
# 1 86.9399 -17.8579 -0.8221 0.0001 -0.0002 0.0001
# 2 -17.8579 50.3810 3.1284 0.0001 0.0000 0.0001
# 3 -0.8221 3.1284 32.4512 -0.0002 -0.0019 -0.0002
# 4 0.0001 0.0001 -0.0002 8.7877 -0.0006 -0.0001
# 5 -0.0002 0.0000 -0.0019 -0.0006 22.3881 0.0002
# 6 0.0001 0.0001 -0.0002 -0.0001 0.0002 35.6797
#
#
#
# Elastic Compliance Matrix: (Units=1/GPa)
#
#
# Indices 1 2 3 4 5 6 
#
# 1 0.012406 0.004404 -0.000110 0.000000 0.000000 0.000000
# 2 0.004404 0.021532 -0.001964 0.000000 0.000000 0.000000
# 3 -0.000110 -0.001964 0.031002 0.000001 0.000003 0.000000
# 4 0.000000 0.000000 0.000001 0.113796 0.000003 0.000000
# 5 0.000000 0.000000 0.000003 0.000003 0.044667 0.000000
# 6 0.000000 0.000000 0.000000 0.000000 0.000000 0.028027
#
#
# Mechanical properties :
#
#
# Convention : Reuss Voigt Hill
#
# Bulk Modulus (GPa) = 14.36802 15.40767 14.88784
# Shear Modulus (GPa) = 18.52061 25.72600 22.12330
#
# Velocity S-wave (km/s) = 3.07718 3.62669 3.36318
# Velocity P-wave (km/s) = 4.46892 5.04130 4.76372
#
# Compressibility (1/GPa) = 0.06959901
#
# Stress axis : x y z
#
# Youngs Moduli (GPa) = 80.60749 46.44289 32.25593
#
# Poissons Ratio (x) = -0.20454 0.00356
# Poissons Ratio (y) = -0.35501 0.06336
# Poissons Ratio (z) = 0.00889 0.09122
#
# Static dielectric constant tensor:
#      x y z
#    x 1.778070 0.000000 0.000000 
#    y 0.000000 1.683390 0.000000 
#    z 0.000000 0.000000 1.665800 
# 
# From -- ./inp_files/8661.got.cif
#   From: 2010.05.17/outbox.cif.g08.bks.cpg/sg23_5_cif.got.tgz:8661.got - 2010.06.04 12:02:01.
