data_PCOD9331271
_publ_section_title
;
Structure prediction by ZEFSAII (Michael W. Deem and Ramdas Pophale) SiO2 
 PCOD9331271
Probable space group: I 2 2 2
;
_chemical_formula_sum "Si O2"
_cell_formula_units_Z 40
_cell_length_a 10.129918
_cell_length_b 32.270279
_cell_length_c 5.202940
_cell_angle_alpha 90.000000
_cell_angle_beta 90.000000
_cell_angle_gamma 90.000000
_cell_volume 1700.816529
_symmetry_space_group_name_H-M "I 2 2 2"
_symmetry_group_IT_number 23
_symmetry_cell_setting 'orthorhombic'
loop_
_space_group_symop_operation_xyz
x,y,z
-x,-y,z
x,-y,-z
-x,y,-z
1/2+x,1/2+y,1/2+z
1/2-x,1/2-y,1/2+z
1/2+x,1/2-y,1/2-z
1/2-x,1/2+y,1/2-z
loop_
_atom_site_type_symbol
_atom_site_label
_atom_site_fract_x
_atom_site_fract_y
_atom_site_fract_z
Si Si1 0.241264 0.606128 0.288280
Si Si2 0.147840 0.518469 0.258532
Si Si3 0.591664 0.191932 0.750737
Si Si4 0.372541 0.373136 0.195998
Si Si5 0.906722 0.781463 0.749162
O O1 0.145075 0.567286 0.317282
O O2 0.178820 0.651559 0.284528
O O3 0.352457 0.608694 0.515018
O O4 0.282967 0.600299 0.992069
O O5 0.224024 0.500000 0.500000
O O6 0.000000 0.500000 0.255134
O O7 0.209205 0.500000 0.000000
O O8 0.500000 0.188167 0.500000
O O9 0.663872 0.236792 0.731137
O O10 0.500000 0.193570 0.000000
O O11 0.329824 0.324671 0.224372
O O12 0.500000 0.370822 0.000000
O O13 0.000000 0.779505 0.500000
O O14 0.000000 0.786065 0.000000
#
# Coordination Sequence:
#
# PCOD9331271 Si02
#       5
#     8   8   8   8   8
#     4  12  24  38  67  98 123 174 224 262 336 396
#     4  10  23  41  65  94 130 167 194 263 339 423
#     4  10  22  36  58  91 137 170 214 277 319 399
#     4  11  23  41  63  91 130 172 229 279 304 381
#     4   9  18  36  57  85 126 178 213 263 333 356
#
# _framework density 23.518118999999999
#
# number of rings (size 3 to 8) (size 9 to 14) (size 15 to 20)
#    0.000    1.600    0.000    5.400    5.600    1.600 
#    0.000    0.000    0.000    9.000    0.000    0.000 
#    0.000    0.000    0.000    0.000    0.000    0.000 
#
# Total GULP energy -111413.362575 kJ/mol
# GULP energy per Si atom -5570.668129 kJ/mol
# Density = 2.346459 g / cm^3
# Si number density = 23.518119 Si / 1000 Ang^3
#
#
#
# Elastic Constant Matrix: (Units=GPa)
#
#
# Indices 1 2 3 4 5 6 
#
# 1 40.2022 38.8820 22.2613 0.0091 0.0147 0.0078
# 2 38.8820 139.4950 29.9396 -0.0049 0.0054 0.0066
# 3 22.2613 29.9396 222.2426 0.0589 -0.0158 0.0157
# 4 0.0091 -0.0049 0.0589 26.0249 -0.0086 0.0102
# 5 0.0147 0.0054 -0.0158 -0.0086 22.1079 0.0010
# 6 0.0078 0.0066 0.0157 0.0102 0.0010 29.2938
#
#
#
# Elastic Compliance Matrix: (Units=1/GPa)
#
#
# Indices 1 2 3 4 5 6 
#
# 1 0.035128 -0.009305 -0.002265 -0.000009 -0.000023 -0.000006
# 2 -0.009305 0.009847 -0.000394 0.000006 0.000004 0.000000
# 3 -0.002265 -0.000394 0.004780 -0.000010 0.000005 -0.000002
# 4 -0.000009 0.000006 -0.000010 0.038425 0.000015 -0.000013
# 5 -0.000023 0.000004 0.000005 0.000015 0.045233 -0.000002
# 6 -0.000006 0.000000 -0.000002 -0.000013 -0.000002 0.034137
#
#
# Mechanical properties :
#
#
# Convention : Reuss Voigt Hill
#
# Bulk Modulus (GPa) = 38.72184 64.90061 51.81123
# Shear Modulus (GPa) = 24.98908 36.20912 30.59910
#
# Velocity S-wave (km/s) = 3.26321 3.92806 3.61097
# Velocity P-wave (km/s) = 5.54062 6.94470 6.28201
#
# Compressibility (1/GPa) = 0.02582522
#
# Stress axis : x y z
#
# Youngs Moduli (GPa) = 28.46712 101.55300 209.22157
#
# Poissons Ratio (x) = 0.94498 0.47391
# Poissons Ratio (y) = 0.26489 0.08253
# Poissons Ratio (z) = 0.06448 0.04006
#
# Static dielectric constant tensor:
#      x y z
#    x 1.942590 0.000010 -0.000060 
#    y 0.000010 1.902350 -0.000060 
#    z -0.000060 -0.000060 1.927570 
# 
# From -- ./inp_files/1844.got.cif
#   From: 2010.05.17/outbox.cif.g08.bks.cpg/sg23_1_cif.got.tgz:1844.got - 2010.06.04 12:02:01.
