data_PCOD9331373
_publ_section_title
;
Structure prediction by ZEFSAII (Michael W. Deem and Ramdas Pophale) SiO2 
 PCOD9331373
Probable space group: I 2 2 2
;
_chemical_formula_sum "Si O2"
_cell_formula_units_Z 40
_cell_length_a 17.263671
_cell_length_b 8.275874
_cell_length_c 13.899986
_cell_angle_alpha 90.000000
_cell_angle_beta 90.000000
_cell_angle_gamma 90.000000
_cell_volume 1985.918327
_symmetry_space_group_name_H-M "I 2 2 2"
_symmetry_group_IT_number 23
_symmetry_cell_setting 'orthorhombic'
loop_
_space_group_symop_operation_xyz
x,y,z
-x,-y,z
x,-y,-z
-x,y,-z
1/2+x,1/2+y,1/2+z
1/2-x,1/2-y,1/2+z
1/2+x,1/2-y,1/2-z
1/2-x,1/2+y,1/2-z
loop_
_atom_site_type_symbol
_atom_site_label
_atom_site_fract_x
_atom_site_fract_y
_atom_site_fract_z
Si Si1 0.166438 0.551440 0.710376
Si Si2 0.465481 0.669239 0.608581
Si Si3 0.000000 0.500000 0.773734
Si Si4 0.230601 0.000000 0.500000
Si Si5 0.242278 0.750938 0.362602
Si Si6 0.789511 0.817751 0.936501
O O1 0.194881 0.651961 0.802299
O O2 0.196691 0.367379 0.706498
O O3 0.213030 0.632109 0.622030
O O4 0.074750 0.543095 0.710102
O O5 0.500000 0.500000 0.649220
O O6 0.500000 0.684904 0.500000
O O7 0.483016 0.837558 0.663532
O O8 0.373068 0.642294 0.604020
O O9 0.284155 0.877581 0.558598
O O10 0.281471 0.647447 0.448731
O O11 0.191042 0.881736 0.422529
#
# Coordination Sequence:
#
# PCOD9331373 Si02
#       6
#     8   8   4   4   8   8
#     4  12  24  42  70  96 142 179 232 278 348 418
#     4  11  25  40  66 102 140 175 227 291 365 423
#     4  12  27  44  61 104 142 184 228 292 344 414
#     4   8  20  38  67  93 126 166 234 272 328 407
#     4  10  22  39  68 100 125 180 221 278 336 417
#     4  10  23  44  67 101 133 187 226 278 349 418
#
# _framework density 20.141815000000001
#
# number of rings (size 3 to 8) (size 9 to 14) (size 15 to 20)
#    1.200    0.200    0.000    5.700   11.200    0.000 
#    3.600    2.000    0.000    1.200    0.000    0.000 
#    0.000    0.000    0.000    0.000    0.000    0.000 
#
# Total GULP energy -111338.966834 kJ/mol
# GULP energy per Si atom -5566.948342 kJ/mol
# Density = 2.009597 g / cm^3
# Si number density = 20.141815 Si / 1000 Ang^3
#
#
#
# Elastic Constant Matrix: (Units=GPa)
#
#
# Indices 1 2 3 4 5 6 
#
# 1 158.7911 65.6135 61.2541 0.0000 0.0000 0.0000
# 2 65.6135 101.9421 41.3402 0.0000 0.0000 0.0000
# 3 61.2541 41.3402 86.4026 0.0000 0.0000 0.0000
# 4 0.0000 0.0000 0.0000 42.9311 0.0000 0.0000
# 5 0.0000 0.0000 0.0000 0.0000 10.7894 0.0000
# 6 0.0000 0.0000 0.0000 0.0000 0.0000 18.5623
#
#
#
# Elastic Compliance Matrix: (Units=1/GPa)
#
#
# Indices 1 2 3 4 5 6 
#
# 1 0.010068 -0.004449 -0.005009 0.000000 0.000000 0.000000
# 2 -0.004449 0.014137 -0.003610 0.000000 0.000000 0.000000
# 3 -0.005009 -0.003610 0.016852 0.000000 0.000000 0.000000
# 4 0.000000 0.000000 0.000000 0.023293 0.000000 0.000000
# 5 0.000000 0.000000 0.000000 0.000000 0.092684 0.000000
# 6 0.000000 0.000000 0.000000 0.000000 0.000000 0.053873
#
#
# Mechanical properties :
#
#
# Convention : Reuss Voigt Hill
#
# Bulk Modulus (GPa) = 67.01845 75.95017 71.48431
# Shear Modulus (GPa) = 20.65976 26.38509 23.52243
#
# Velocity S-wave (km/s) = 3.20615 3.62327 3.42108
# Velocity P-wave (km/s) = 6.85940 7.43597 7.15350
#
# Compressibility (1/GPa) = 0.01492126
#
# Stress axis : x y z
#
# Youngs Moduli (GPa) = 99.32296 70.73695 59.33995
#
# Poissons Ratio (x) = 0.31470 0.29724
# Poissons Ratio (y) = 0.44188 0.21421
# Poissons Ratio (z) = 0.49752 0.25536
#
# Static dielectric constant tensor:
#      x y z
#    x 1.647280 0.000000 0.000000 
#    y 0.000000 1.876860 0.000000 
#    z 0.000000 0.000000 1.776520 
# 
# From -- ./inp_files/21378.got.cif
#   From: 2010.05.17/outbox.cif.g08.bks.cpg/sg23_11_cif.got.tgz:21378.got - 2010.06.04 12:02:01.
