data_PCOD9331226
_publ_section_title
;
Structure prediction by ZEFSAII (Michael W. Deem and Ramdas Pophale) SiO2 
 PCOD9331226
Probable space group: I 2 2 2
;
_chemical_formula_sum "Si O2"
_cell_formula_units_Z 32
_cell_length_a 13.602621
_cell_length_b 17.082868
_cell_length_c 6.503564
_cell_angle_alpha 90.000000
_cell_angle_beta 90.000000
_cell_angle_gamma 90.000000
_cell_volume 1511.244737
_symmetry_space_group_name_H-M "I 2 2 2"
_symmetry_group_IT_number 23
_symmetry_cell_setting 'orthorhombic'
loop_
_space_group_symop_operation_xyz
x,y,z
-x,-y,z
x,-y,-z
-x,y,-z
1/2+x,1/2+y,1/2+z
1/2-x,1/2-y,1/2+z
1/2+x,1/2-y,1/2-z
1/2-x,1/2+y,1/2-z
loop_
_atom_site_type_symbol
_atom_site_label
_atom_site_fract_x
_atom_site_fract_y
_atom_site_fract_z
Si Si1 0.500000 0.787906 0.000000
Si Si2 0.645208 0.429450 0.662217
Si Si3 0.602015 0.257300 0.601235
Si Si4 0.000000 0.500000 0.000000
Si Si5 0.355055 0.125403 0.685876
Si Si6 0.500000 0.500000 0.000000
O O1 0.572670 0.744345 0.159488
O O2 0.418209 0.834702 0.131810
O O3 0.640254 0.500000 0.500000
O O4 0.624580 0.346642 0.549631
O O5 0.754193 0.414926 0.747702
O O6 0.569570 0.449252 0.847193
O O7 0.500000 0.234305 0.500000
O O8 0.668581 0.190339 0.494417
O O9 0.927748 0.557409 0.117610
#
# Coordination Sequence:
#
# PCOD9331226 Si02
#       6
#     4   8   8   2   8   2
#     4  10  21  43  72 100 138 194 224 303 363 427
#     4  12  28  46  76 107 145 196 248 299 366 436
#     4  10  22  47  67 103 142 184 237 298 357 431
#     4  12  22  50  64 102 148 176 234 310 348 434
#     4  11  26  43  71 105 147 181 241 292 366 434
#     4  12  26  52  72 102 152 194 244 326 332 436
#
# _framework density 21.174596999999999
#
# number of rings (size 3 to 8) (size 9 to 14) (size 15 to 20)
#    0.000    1.000    3.750    3.375    7.000    4.000 
#    0.000    0.000    0.000    0.000    0.000    0.000 
#    0.000    0.000    0.000    0.000    0.000    0.000 
#
# Total GULP energy -89156.811900 kJ/mol
# GULP energy per Si atom -5572.300744 kJ/mol
# Density = 2.112640 g / cm^3
# Si number density = 21.174597 Si / 1000 Ang^3
#
#
#
# Elastic Constant Matrix: (Units=GPa)
#
#
# Indices 1 2 3 4 5 6 
#
# 1 103.4499 21.6785 28.0096 0.0000 0.0000 0.0000
# 2 21.6785 148.6719 65.2440 0.0000 0.0000 0.0000
# 3 28.0096 65.2440 97.7775 0.0000 0.0000 0.0000
# 4 0.0000 0.0000 0.0000 -55.1841 0.0000 0.0000
# 5 0.0000 0.0000 0.0000 0.0000 29.8345 0.0000
# 6 0.0000 0.0000 0.0000 0.0000 0.0000 12.6471
#
#
#
# Elastic Compliance Matrix: (Units=1/GPa)
#
#
# Indices 1 2 3 4 5 6 
#
# 1 0.010489 -0.000298 -0.002806 0.000000 0.000000 0.000000
# 2 -0.000298 0.009520 -0.006267 0.000000 0.000000 0.000000
# 3 -0.002806 -0.006267 0.015213 0.000000 0.000000 0.000000
# 4 0.000000 0.000000 0.000000 -0.018121 0.000000 0.000000
# 5 0.000000 0.000000 0.000000 0.000000 0.033518 0.000000
# 6 0.000000 0.000000 0.000000 0.000000 0.000000 0.079069
#
#
# Mechanical properties :
#
#
# Convention : Reuss Voigt Hill
#
# Bulk Modulus (GPa) = 60.68028 64.41817 62.54923
# Shear Modulus (GPa) = 32.48385 13.12398 22.80392
#
# Velocity S-wave (km/s) = 3.92100 2.49228 3.28525
# Velocity P-wave (km/s) = 7.01558 6.22658 6.63282
#
# Compressibility (1/GPa) = 0.01647982
#
# Stress axis : x y z
#
# Youngs Moduli (GPa) = 95.34120 105.04293 65.73428
#
# Poissons Ratio (x) = 0.03132 0.18443
# Poissons Ratio (y) = 0.02843 0.41195
# Poissons Ratio (z) = 0.26749 0.65830
#
# Static dielectric constant tensor:
#      x y z
#    x 2.222630 0.000000 0.000000 
#    y 0.000000 1.726540 0.000000 
#    z 0.000000 0.000000 2.031300 
# 
# From -- ./inp_files/2150.got.cif
#   From: 2010.05.17/outbox.cif.g08.bks.cpg/sg23_2_cif.got.tgz:2150.got - 2010.06.04 12:02:01.
