data_PCOD9331519
_publ_section_title
;
Structure prediction by ZEFSAII (Michael W. Deem and Ramdas Pophale) SiO2 
 PCOD9331519
Probable space group: I 2 2 2
;
_chemical_formula_sum "Si O2"
_cell_formula_units_Z 20
_cell_length_a 19.160102
_cell_length_b 8.829126
_cell_length_c 5.467440
_cell_angle_alpha 90.000000
_cell_angle_beta 90.000000
_cell_angle_gamma 90.000000
_cell_volume 924.910175
_symmetry_space_group_name_H-M "I 2 2 2"
_symmetry_group_IT_number 23
_symmetry_cell_setting 'orthorhombic'
loop_
_space_group_symop_operation_xyz
x,y,z
-x,-y,z
x,-y,-z
-x,y,-z
1/2+x,1/2+y,1/2+z
1/2-x,1/2-y,1/2+z
1/2+x,1/2-y,1/2-z
1/2-x,1/2+y,1/2-z
loop_
_atom_site_type_symbol
_atom_site_label
_atom_site_fract_x
_atom_site_fract_y
_atom_site_fract_z
Si Si1 0.217004 0.316574 0.995763
Si Si2 0.000000 0.000000 0.500000
Si Si3 0.434848 0.249791 0.677753
Si Si4 0.500000 0.000000 0.000000
O O1 0.256697 0.248107 0.234622
O O2 0.137177 0.265050 0.037703
O O3 0.222140 0.500000 0.000000
O O4 0.947950 0.103303 0.657994
O O5 0.500000 0.251379 0.500000
O O6 0.448622 0.104160 0.844173
#
# Coordination Sequence:
#
# PCOD9331519 Si02
#       4
#     8   2   8   2
#     4  12  30  50  78 113 157 204 253 316 385 455
#     4  10  26  42  76 108 144 190 256 314 374 450
#     4  11  25  46  74 107 146 194 253 310 378 443
#     4  10  22  42  76 104 140 190 260 302 374 450
#
# _framework density 21.623722000000001
#
# number of rings (size 3 to 8) (size 9 to 14) (size 15 to 20)
#    0.000    0.800    0.000    4.800   19.600    3.200 
#    0.000    0.000    0.000    0.000    0.000    0.000 
#    0.000    0.000    0.000    0.000    0.000    0.000 
#
# Total GULP energy -55974.257755 kJ/mol
# GULP energy per Si atom -5597.425775 kJ/mol
# Density = 2.157451 g / cm^3
# Si number density = 21.623722 Si / 1000 Ang^3
#
#
#
# Elastic Constant Matrix: (Units=GPa)
#
#
# Indices 1 2 3 4 5 6 
#
# 1 154.3972 41.8307 54.1722 0.0000 0.0000 0.0000
# 2 41.8307 167.0331 68.6219 0.0000 0.0000 0.0000
# 3 54.1722 68.6219 130.4746 0.0000 0.0000 0.0000
# 4 0.0000 0.0000 0.0000 89.9741 0.0000 0.0000
# 5 0.0000 0.0000 0.0000 0.0000 44.3807 0.0000
# 6 0.0000 0.0000 0.0000 0.0000 0.0000 0.3239
#
#
#
# Elastic Compliance Matrix: (Units=1/GPa)
#
#
# Indices 1 2 3 4 5 6 
#
# 1 0.007660 -0.000780 -0.002770 0.000000 0.000000 0.000000
# 2 -0.000780 0.007716 -0.003734 0.000000 0.000000 0.000000
# 3 -0.002770 -0.003734 0.010778 0.000000 0.000000 0.000000
# 4 0.000000 0.000000 0.000000 0.011114 0.000000 0.000000
# 5 0.000000 0.000000 0.000000 0.000000 0.022532 0.000000
# 6 0.000000 0.000000 0.000000 0.000000 0.000000 3.087060
#
#
# Mechanical properties :
#
#
# Convention : Reuss Voigt Hill
#
# Bulk Modulus (GPa) = 86.31454 86.79496 86.55475
# Shear Modulus (GPa) = 1.57963 46.08777 23.83370
#
# Velocity S-wave (km/s) = 0.85563 4.62167 3.32354
# Velocity P-wave (km/s) = 6.40151 8.28889 7.40557
#
# Compressibility (1/GPa) = 0.01158553
#
# Stress axis : x y z
#
# Youngs Moduli (GPa) = 130.54634 129.59311 92.77737
#
# Poissons Ratio (x) = 0.10113 0.25699
# Poissons Ratio (y) = 0.10187 0.34647
# Poissons Ratio (z) = 0.36162 0.48395
#
# Static dielectric constant tensor:
#      x y z
#    x 1.766710 0.000000 0.000000 
#    y 0.000000 1.763170 0.000000 
#    z 0.000000 0.000000 1.855840 
# 
# From -- ./inp_files/287.got.cif
#   From: 2010.05.17/outbox.cif.g08.bks.cpg/sg23_1_cif.got.tgz:287.got - 2010.06.04 12:02:01.
