data_PCOD9331644
_publ_section_title
;
Structure prediction by ZEFSAII (Michael W. Deem and Ramdas Pophale) SiO2 
 PCOD9331644
Probable space group: I 2 2 2
;
_chemical_formula_sum "Si O2"
_cell_formula_units_Z 56
_cell_length_a 5.194300
_cell_length_b 21.648896
_cell_length_c 22.193697
_cell_angle_alpha 90.000000
_cell_angle_beta 90.000000
_cell_angle_gamma 90.000000
_cell_volume 2495.700325
_symmetry_space_group_name_H-M "I 2 2 2"
_symmetry_group_IT_number 23
_symmetry_cell_setting 'orthorhombic'
loop_
_space_group_symop_operation_xyz
x,y,z
-x,-y,z
x,-y,-z
-x,y,-z
1/2+x,1/2+y,1/2+z
1/2-x,1/2-y,1/2+z
1/2+x,1/2-y,1/2-z
1/2-x,1/2+y,1/2-z
loop_
_atom_site_type_symbol
_atom_site_label
_atom_site_fract_x
_atom_site_fract_y
_atom_site_fract_z
Si Si1 0.884200 0.855142 0.139541
Si Si2 0.748331 0.380267 0.014413
Si Si3 0.872237 0.565438 0.345236
Si Si4 0.361134 0.062531 0.701693
Si Si5 0.094575 0.215844 0.257265
Si Si6 0.357048 0.375475 0.847873
Si Si7 0.753253 0.242068 0.962676
O O1 0.612443 0.888936 0.146753
O O2 0.973744 0.831606 0.204824
O O3 0.813120 0.794427 0.099131
O O4 0.117124 0.903760 0.123499
O O5 0.728010 0.365678 0.084170
O O6 0.500000 0.418296 0.000000
O O7 0.749738 0.318025 0.971315
O O8 0.000000 0.416354 0.000000
O O9 0.810592 0.557264 0.273518
O O10 0.000000 0.500000 0.365917
O O11 0.596354 0.109284 0.688665
O O12 0.095066 0.078589 0.667248
O O13 0.500000 0.000000 0.680214
O O14 0.393461 0.230126 0.251624
O O15 0.039351 0.188801 0.322484
O O16 0.500000 0.222066 0.000000
O O17 0.000000 0.222673 0.000000
#
# Coordination Sequence:
#
# PCOD9331644 Si02
#       7
#     8   8   8   8   8   8   8
#     4  12  23  42  64  94 137 172 223 272 338 402
#     4  10  23  40  61  87 123 175 225 263 313 384
#     4  11  22  41  67 100 133 169 214 272 346 415
#     4  11  22  41  67 100 133 169 214 272 346 415
#     4  12  26  36  59  94 137 178 208 274 344 408
#     4  12  23  42  64  94 137 172 223 272 338 402
#     4  10  23  40  61  87 123 175 225 263 313 384
#
# _framework density 22.438590999999999
#
# number of rings (size 3 to 8) (size 9 to 14) (size 15 to 20)
#    0.000    0.857    2.857    4.286    8.000    2.286 
#    0.000    0.000    0.000   12.857    0.000    0.000 
#    0.000    0.000    0.000    0.000    0.000    0.000 
#
# Total GULP energy -156000.517489 kJ/mol
# GULP energy per Si atom -5571.447053 kJ/mol
# Density = 2.238752 g / cm^3
# Si number density = 22.438591 Si / 1000 Ang^3
#
#
#
# Elastic Constant Matrix: (Units=GPa)
#
#
# Indices 1 2 3 4 5 6 
#
# 1 160.7961 19.7517 24.3571 0.0000 0.0000 0.0000
# 2 19.7517 59.3691 -1.4217 0.0000 0.0000 0.0000
# 3 24.3571 -1.4217 24.7366 0.0000 0.0000 0.0000
# 4 0.0000 0.0000 0.0000 13.6321 0.0000 0.0000
# 5 0.0000 0.0000 0.0000 0.0000 31.8432 0.0000
# 6 0.0000 0.0000 0.0000 0.0000 0.0000 26.9517
#
#
#
# Elastic Compliance Matrix: (Units=1/GPa)
#
#
# Indices 1 2 3 4 5 6 
#
# 1 0.007736 -0.002760 -0.007776 0.000000 0.000000 0.000000
# 2 -0.002760 0.017852 0.003744 0.000000 0.000000 0.000000
# 3 -0.007776 0.003744 0.048298 0.000000 0.000000 0.000000
# 4 0.000000 0.000000 0.000000 0.073356 0.000000 0.000000
# 5 0.000000 0.000000 0.000000 0.000000 0.031404 0.000000
# 6 0.000000 0.000000 0.000000 0.000000 0.000000 0.037103
#
#
# Mechanical properties :
#
#
# Convention : Reuss Voigt Hill
#
# Bulk Modulus (GPa) = 16.58354 36.69731 26.64043
# Shear Modulus (GPa) = 20.04544 27.96640 24.00592
#
# Velocity S-wave (km/s) = 2.99213 3.53420 3.27440
# Velocity P-wave (km/s) = 4.39816 5.74841 5.11801
#
# Compressibility (1/GPa) = 0.06030077
#
# Stress axis : x y z
#
# Youngs Moduli (GPa) = 129.26673 56.01730 20.70496
#
# Poissons Ratio (x) = 0.15460 0.16100
# Poissons Ratio (y) = 0.35676 -0.07751
# Poissons Ratio (z) = 1.00516 -0.20970
#
# Static dielectric constant tensor:
#      x y z
#    x 1.913250 0.000000 0.000000 
#    y 0.000000 1.948960 0.000000 
#    z 0.000000 0.000000 1.819890 
# 
# From -- ./inp_files/27703.got.cif
#   From: 2010.05.17/outbox.cif.g08.bks.cpg/sg23_14_cif.got.tgz:27703.got - 2010.06.04 12:02:01.
