data_PCOD9331103
_publ_section_title
;
Structure prediction by ZEFSAII (Michael W. Deem and Ramdas Pophale) SiO2 
 PCOD9331103
Probable space group: I 2 2 2
;
_chemical_formula_sum "Si O2"
_cell_formula_units_Z 56
_cell_length_a 14.407959
_cell_length_b 7.358482
_cell_length_c 22.520102
_cell_angle_alpha 90.000000
_cell_angle_beta 90.000000
_cell_angle_gamma 90.000000
_cell_volume 2387.597135
_symmetry_space_group_name_H-M "I 2 2 2"
_symmetry_group_IT_number 23
_symmetry_cell_setting 'orthorhombic'
loop_
_space_group_symop_operation_xyz
x,y,z
-x,-y,z
x,-y,-z
-x,y,-z
1/2+x,1/2+y,1/2+z
1/2-x,1/2-y,1/2+z
1/2+x,1/2-y,1/2-z
1/2-x,1/2+y,1/2-z
loop_
_atom_site_type_symbol
_atom_site_label
_atom_site_fract_x
_atom_site_fract_y
_atom_site_fract_z
Si Si1 0.238260 0.276890 0.451506
Si Si2 0.630246 0.835892 0.209177
Si Si3 0.220107 0.678837 0.419373
Si Si4 0.897936 0.292758 0.858271
Si Si5 0.580653 0.734933 0.772166
Si Si6 0.255538 0.892892 0.676052
Si Si7 0.542273 0.297798 0.558276
O O1 0.195597 0.473229 0.436655
O O2 0.206383 0.216169 0.517673
O O3 0.228810 0.168235 0.390857
O O4 0.349353 0.301933 0.452242
O O5 0.673085 0.785067 0.144630
O O6 0.527572 0.752055 0.213047
O O7 0.695244 0.789266 0.266843
O O8 0.619372 0.059279 0.212359
O O9 0.329353 0.694757 0.404319
O O10 0.912225 0.190544 0.797153
O O11 0.836362 0.464152 0.838910
O O12 0.999556 0.307044 0.886198
O O13 0.650602 0.589724 0.800174
O O14 0.500000 0.500000 0.563637
O O15 0.500000 0.209739 0.500000
#
# Coordination Sequence:
#
# PCOD9331103 Si02
#       7
#     8   8   8   8   8   8   8
#     4  11  22  37  63  92 129 175 221 266 326 397
#     4  10  21  40  68  90 127 174 227 279 326 404
#     4  11  20  39  63  92 129 176 218 266 335 396
#     4  11  22  38  63  95 135 171 211 273 345 393
#     4  10  21  40  64  95 127 169 227 281 331 396
#     4  11  23  39  63  94 135 168 216 285 340 390
#     4  11  19  36  59  92 129 168 218 261 315 406
#
# _framework density 23.454545
#
# number of rings (size 3 to 8) (size 9 to 14) (size 15 to 20)
#    0.000    1.286    5.714    1.714    0.000    2.286 
#    0.000    2.143    0.000    0.000    0.000    2.000 
#    0.000    0.000    0.000    0.000    0.000    0.000 
#
# Total GULP energy -155955.734308 kJ/mol
# GULP energy per Si atom -5569.847654 kJ/mol
# Density = 2.340116 g / cm^3
# Si number density = 23.454545 Si / 1000 Ang^3
#
#
#
# Elastic Constant Matrix: (Units=GPa)
#
#
# Indices 1 2 3 4 5 6 
#
# 1 86.3870 22.5255 45.6149 0.0000 0.0000 0.0000
# 2 22.5255 49.9791 31.1349 0.0000 0.0000 0.0000
# 3 45.6149 31.1349 232.4937 0.0000 0.0000 0.0000
# 4 0.0000 0.0000 0.0000 17.7587 0.0000 0.0000
# 5 0.0000 0.0000 0.0000 0.0000 38.9859 0.0000
# 6 0.0000 0.0000 0.0000 0.0000 0.0000 27.4014
#
#
#
# Elastic Compliance Matrix: (Units=1/GPa)
#
#
# Indices 1 2 3 4 5 6 
#
# 1 0.013975 -0.005008 -0.002071 0.000000 0.000000 0.000000
# 2 -0.005008 0.023624 -0.002181 0.000000 0.000000 0.000000
# 3 -0.002071 -0.002181 0.005000 0.000000 0.000000 0.000000
# 4 0.000000 0.000000 0.000000 0.056310 0.000000 0.000000
# 5 0.000000 0.000000 0.000000 0.000000 0.025650 0.000000
# 6 0.000000 0.000000 0.000000 0.000000 0.000000 0.036494
#
#
# Mechanical properties :
#
#
# Convention : Reuss Voigt Hill
#
# Bulk Modulus (GPa) = 41.53170 63.04561 52.28866
# Shear Modulus (GPa) = 26.65218 34.80152 30.72685
#
# Velocity S-wave (km/s) = 3.37461 3.85617 3.62340
# Velocity P-wave (km/s) = 5.73845 6.83850 6.31248
#
# Compressibility (1/GPa) = 0.02407799
#
# Stress axis : x y z
#
# Youngs Moduli (GPa) = 71.55412 42.32924 200.01398
#
# Poissons Ratio (x) = 0.21200 0.41428
# Poissons Ratio (y) = 0.35837 0.43624
# Poissons Ratio (z) = 0.14821 0.09232
#
# Static dielectric constant tensor:
#      x y z
#    x 1.963980 0.000000 0.000000 
#    y 0.000000 2.069070 0.000000 
#    z 0.000000 0.000000 1.941380 
# 
# From -- ./inp_files/26986.got.cif
#   From: 2010.05.17/outbox.cif.g08.bks.cpg/sg23_14_cif.got.tgz:26986.got - 2010.06.04 12:02:01.
