data_PCOD9331517
_publ_section_title
;
Structure prediction by ZEFSAII (Michael W. Deem and Ramdas Pophale) SiO2 
 PCOD9331517
Probable space group: I 2 2 2
;
_chemical_formula_sum "Si O2"
_cell_formula_units_Z 32
_cell_length_a 32.564555
_cell_length_b 8.192802
_cell_length_c 4.756281
_cell_angle_alpha 90.000000
_cell_angle_beta 90.000000
_cell_angle_gamma 90.000000
_cell_volume 1268.951758
_symmetry_space_group_name_H-M "I 2 2 2"
_symmetry_group_IT_number 23
_symmetry_cell_setting 'orthorhombic'
loop_
_space_group_symop_operation_xyz
x,y,z
-x,-y,z
x,-y,-z
-x,y,-z
1/2+x,1/2+y,1/2+z
1/2-x,1/2-y,1/2+z
1/2+x,1/2-y,1/2-z
1/2-x,1/2+y,1/2-z
loop_
_atom_site_type_symbol
_atom_site_label
_atom_site_fract_x
_atom_site_fract_y
_atom_site_fract_z
Si Si1 0.385427 0.500000 0.000000
Si Si2 0.568039 0.000000 0.500000
Si Si3 0.356825 0.158134 0.200656
Si Si4 0.766249 0.660839 0.688214
Si Si5 0.000000 0.725702 0.000000
Si Si6 0.943071 0.000000 0.000000
O O1 0.360719 0.660824 0.918763
O O2 0.413756 0.440383 0.744840
O O3 0.600462 0.122248 0.640575
O O4 0.533882 0.113176 0.341502
O O5 0.311396 0.156258 0.331091
O O6 0.355252 0.000000 0.000000
O O7 0.758164 0.500000 0.500000
O O8 0.763703 0.799665 0.445808
O O9 0.029555 0.857957 0.145293
#
# Coordination Sequence:
#
# PCOD9331517 Si02
#       6
#     4   4   8   8   4   4
#     4  12  26  47  77 108 151 195 254 309 382 441
#     4  11  22  48  69 108 145 203 250 311 378 443
#     4  11  27  46  76 109 152 198 253 311 379 457
#     4  11  27  48  77 112 154 195 250 313 384 462
#     4  10  22  42  74 100 154 194 256 308 378 440
#     4  11  24  46  68 108 146 194 250 314 364 444
#
# _framework density 25.217665
#
# number of rings (size 3 to 8) (size 9 to 14) (size 15 to 20)
#    0.000    1.000    2.500    2.250   10.500    2.000 
#    4.500    1.250    0.000    0.000    0.000    0.000 
#    0.000    0.000    0.000    0.000    0.000    0.000 
#
# Total GULP energy -89085.153847 kJ/mol
# GULP energy per Si atom -5567.822115 kJ/mol
# Density = 2.516027 g / cm^3
# Si number density = 25.217665 Si / 1000 Ang^3
#
#
#
# Elastic Constant Matrix: (Units=GPa)
#
#
# Indices 1 2 3 4 5 6 
#
# 1 167.1156 60.4418 34.7265 0.0001 -0.0007 0.0013
# 2 60.4418 174.1861 22.0949 0.0001 -0.0013 0.0021
# 3 34.7265 22.0949 60.2240 0.0000 -0.0017 0.0020
# 4 0.0001 0.0001 0.0000 41.7645 -0.0012 0.0018
# 5 -0.0007 -0.0013 -0.0017 -0.0012 50.7304 -0.0140
# 6 0.0013 0.0021 0.0020 0.0018 -0.0140 -382.5429
#
#
#
# Elastic Compliance Matrix: (Units=1/GPa)
#
#
# Indices 1 2 3 4 5 6 
#
# 1 0.007497 -0.002153 -0.003533 0.000000 0.000000 0.000000
# 2 -0.002153 0.006640 -0.001194 0.000000 0.000000 0.000000
# 3 -0.003533 -0.001194 0.019080 0.000000 0.000001 0.000000
# 4 0.000000 0.000000 0.000000 0.023944 0.000001 0.000000
# 5 0.000000 0.000000 0.000001 0.000001 0.019712 -0.000001
# 6 0.000000 0.000000 0.000000 0.000000 -0.000001 -0.002614
#
#
# Mechanical properties :
#
#
# Convention : Reuss Voigt Hill
#
# Bulk Modulus (GPa) = 51.39915 70.67245 61.03580
# Shear Modulus (GPa) = 52.90775 -39.05877 6.92449
#
# Velocity S-wave (km/s) = 4.58541 -3.93983 1.65887
# Velocity P-wave (km/s) = 6.96140 2.71835 5.28444
#
# Compressibility (1/GPa) = 0.01945557
#
# Stress axis : x y z
#
# Youngs Moduli (GPa) = 133.39078 150.61053 52.41100
#
# Poissons Ratio (x) = 0.32430 0.18516
# Poissons Ratio (y) = 0.28722 0.06260
# Poissons Ratio (z) = 0.47125 0.17988
#
# Static dielectric constant tensor:
#      x y z
#    x 1.987060 0.000000 0.000000 
#    y 0.000000 1.915760 -0.000030 
#    z 0.000000 -0.000030 2.134540 
# 
# From -- ./inp_files/5227.got.cif
#   From: 2010.05.17/outbox.cif.g08.bks.cpg/sg23_3_cif.got.tgz:5227.got - 2010.06.04 12:02:01.
