data_PCOD9331716
_publ_section_title
;
Structure prediction by ZEFSAII (Michael W. Deem and Ramdas Pophale) SiO2 
 PCOD9331716
Probable space group: I 2 2 2
;
_chemical_formula_sum "Si O2"
_cell_formula_units_Z 60
_cell_length_a 20.489128
_cell_length_b 11.696058
_cell_length_c 11.852848
_cell_angle_alpha 90.000000
_cell_angle_beta 90.000000
_cell_angle_gamma 90.000000
_cell_volume 2840.440550
_symmetry_space_group_name_H-M "I 2 2 2"
_symmetry_group_IT_number 23
_symmetry_cell_setting 'orthorhombic'
loop_
_space_group_symop_operation_xyz
x,y,z
-x,-y,z
x,-y,-z
-x,y,-z
1/2+x,1/2+y,1/2+z
1/2-x,1/2-y,1/2+z
1/2+x,1/2-y,1/2-z
1/2-x,1/2+y,1/2-z
loop_
_atom_site_type_symbol
_atom_site_label
_atom_site_fract_x
_atom_site_fract_y
_atom_site_fract_z
Si Si1 0.333176 0.011439 0.788686
Si Si2 0.078182 0.868458 0.496866
Si Si3 0.099058 0.261254 0.275284
Si Si4 0.334774 0.248168 0.175083
Si Si5 0.488640 0.632481 0.634682
Si Si6 0.797808 0.322649 0.893339
Si Si7 0.843131 0.795635 0.910159
Si Si8 0.265356 0.500000 0.500000
O O1 0.354822 0.880591 0.794733
O O2 0.392251 0.103068 0.801772
O O3 0.300229 0.055451 0.671517
O O4 0.281693 0.013422 0.891907
O O5 0.103386 0.804601 0.607759
O O6 0.105917 0.811785 0.384286
O O7 0.000000 0.862181 0.500000
O O8 0.098373 0.000000 0.500000
O O9 0.161253 0.243662 0.194077
O O10 0.036916 0.214585 0.205216
O O11 0.274242 0.271811 0.091190
O O12 0.304692 0.291184 0.293184
O O13 0.500000 0.500000 0.672439
O O14 0.500000 0.635470 0.500000
O O15 0.414317 0.674370 0.636927
O O16 0.835901 0.315692 0.011819
O O17 0.814592 0.894171 0.989066
#
# Coordination Sequence:
#
# PCOD9331716 Si02
#       8
#     8   8   8   8   8   8   8   4
#     4  10  23  43  68  97 147 188 233 300 367 450
#     4  11  27  47  71 105 144 187 240 309 373 447
#     4  10  23  45  66  99 148 186 241 304 367 437
#     4  12  25  44  70 107 138 194 241 290 380 456
#     4  11  22  39  67 104 142 186 245 305 372 437
#     4  10  24  43  65 103 141 183 230 302 364 427
#     4  12  24  39  68 104 139 184 243 300 364 446
#     4  12  20  38  67 100 141 184 242 304 376 440
#
# _framework density 21.123484000000001
#
# number of rings (size 3 to 8) (size 9 to 14) (size 15 to 20)
#    0.800    0.267    4.000    2.400    5.600    1.600 
#    0.000    3.333    0.000    0.800    0.000    0.000 
#    0.000    0.000    0.000    0.000    0.000    0.000 
#
# Total GULP energy -167161.574125 kJ/mol
# GULP energy per Si atom -5572.052471 kJ/mol
# Density = 2.107541 g / cm^3
# Si number density = 21.123484 Si / 1000 Ang^3
#
#
#
# Elastic Constant Matrix: (Units=GPa)
#
#
# Indices 1 2 3 4 5 6 
#
# 1 73.9356 45.1370 29.1747 0.0000 0.0000 0.0000
# 2 45.1370 153.9337 55.2005 0.0000 0.0000 0.0000
# 3 29.1747 55.2005 120.4644 0.0000 0.0000 0.0000
# 4 0.0000 0.0000 0.0000 20.5085 0.0000 0.0000
# 5 0.0000 0.0000 0.0000 0.0000 31.3199 0.0000
# 6 0.0000 0.0000 0.0000 0.0000 0.0000 25.7266
#
#
#
# Elastic Compliance Matrix: (Units=1/GPa)
#
#
# Indices 1 2 3 4 5 6 
#
# 1 0.016942 -0.004184 -0.002186 0.000000 0.000000 0.000000
# 2 -0.004184 0.008807 -0.003022 0.000000 0.000000 0.000000
# 3 -0.002186 -0.003022 0.010216 0.000000 0.000000 0.000000
# 4 0.000000 0.000000 0.000000 0.048760 0.000000 0.000000
# 5 0.000000 0.000000 0.000000 0.000000 0.031929 0.000000
# 6 0.000000 0.000000 0.000000 0.000000 0.000000 0.038870
#
#
# Mechanical properties :
#
#
# Convention : Reuss Voigt Hill
#
# Bulk Modulus (GPa) = 58.20658 67.48422 62.84540
# Shear Modulus (GPa) = 27.77241 30.09910 28.93576
#
# Velocity S-wave (km/s) = 3.62990 3.77890 3.70515
# Velocity P-wave (km/s) = 6.72186 7.14541 6.93687
#
# Compressibility (1/GPa) = 0.01718019
#
# Stress axis : x y z
#
# Youngs Moduli (GPa) = 59.02456 113.54687 97.89028
#
# Poissons Ratio (x) = 0.47507 0.21398
# Poissons Ratio (y) = 0.24696 0.29586
# Poissons Ratio (z) = 0.12902 0.34317
#
# Static dielectric constant tensor:
#      x y z
#    x 1.796760 0.000000 0.000000 
#    y 0.000000 1.822880 0.000000 
#    z 0.000000 0.000000 1.829000 
# 
# From -- ./inp_files/18040.got.cif
#   From: 2010.05.17/outbox.cif.g08.bks.cpg/sg23_10_cif.got.tgz:18040.got - 2010.06.04 12:02:01.
