data_PCOD9331774
_publ_section_title
;
Structure prediction by ZEFSAII (Michael W. Deem and Ramdas Pophale) SiO2 
 PCOD9331774
Probable space group: I 2 2 2
;
_chemical_formula_sum "Si O2"
_cell_formula_units_Z 30
_cell_length_a 10.226178
_cell_length_b 5.247709
_cell_length_c 24.301571
_cell_angle_alpha 90.000000
_cell_angle_beta 90.000000
_cell_angle_gamma 90.000000
_cell_volume 1304.119660
_symmetry_space_group_name_H-M "I 2 2 2"
_symmetry_group_IT_number 23
_symmetry_cell_setting 'orthorhombic'
loop_
_space_group_symop_operation_xyz
x,y,z
-x,-y,z
x,-y,-z
-x,y,-z
1/2+x,1/2+y,1/2+z
1/2-x,1/2-y,1/2+z
1/2+x,1/2-y,1/2-z
1/2-x,1/2+y,1/2-z
loop_
_atom_site_type_symbol
_atom_site_label
_atom_site_fract_x
_atom_site_fract_y
_atom_site_fract_z
Si Si1 0.213664 0.718949 0.284053
Si Si2 0.321221 0.376103 0.058071
Si Si3 0.000000 0.000000 0.346346
Si Si4 0.000000 0.500000 0.500000
Si Si5 0.082549 0.747965 0.880954
O O1 0.230618 0.466920 0.247789
O O2 0.308995 0.681405 0.335677
O O3 0.068092 0.791292 0.306376
O O4 0.381714 0.535728 0.109330
O O5 0.401486 0.121835 0.045633
O O6 0.169573 0.332708 0.067355
O O7 0.346997 0.500000 0.000000
O O8 0.000000 0.500000 0.863450
O O9 0.000000 0.000000 0.890956
#
# Coordination Sequence:
#
# PCOD9331774 Si02
#       5
#     8   8   4   2   8
#     4  11  26  44  74 105 142 193 238 299 355 416
#     4  11  24  46  72 107 142 188 236 306 352 422
#     4  10  23  46  70 104 138 182 243 290 354 420
#     4  12  22  40  82  94 148 176 258 282 362 404
#     4  11  27  48  72 106 153 188 238 289 364 440
#
# _framework density 23.004026
#
# number of rings (size 3 to 8) (size 9 to 14) (size 15 to 20)
#    0.000    1.067    2.667    1.600    9.333    4.800 
#    0.000    0.000    0.000    0.000    0.000    0.000 
#    0.000    0.000    0.000    0.000    0.000    0.000 
#
# Total GULP energy -83630.658187 kJ/mol
# GULP energy per Si atom -5575.377212 kJ/mol
# Density = 2.295167 g / cm^3
# Si number density = 23.004026 Si / 1000 Ang^3
#
#
#
# Elastic Constant Matrix: (Units=GPa)
#
#
# Indices 1 2 3 4 5 6 
#
# 1 95.6491 11.3586 -7.3157 0.0000 0.0000 0.0000
# 2 11.3586 62.6147 -11.4016 0.0000 0.0000 0.0000
# 3 -7.3157 -11.4016 44.7950 0.0000 0.0000 0.0000
# 4 0.0000 0.0000 0.0000 26.7126 0.0000 0.0000
# 5 0.0000 0.0000 0.0000 0.0000 -24.0036 0.0000
# 6 0.0000 0.0000 0.0000 0.0000 0.0000 44.2926
#
#
#
# Elastic Compliance Matrix: (Units=1/GPa)
#
#
# Indices 1 2 3 4 5 6 
#
# 1 0.010759 -0.001711 0.001322 0.000000 0.000000 0.000000
# 2 -0.001711 0.017019 0.004052 0.000000 0.000000 0.000000
# 3 0.001322 0.004052 0.023571 0.000000 0.000000 0.000000
# 4 0.000000 0.000000 0.000000 0.037435 0.000000 0.000000
# 5 0.000000 0.000000 0.000000 0.000000 -0.041660 0.000000
# 6 0.000000 0.000000 0.000000 0.000000 0.000000 0.022577
#
#
# Mechanical properties :
#
#
# Convention : Reuss Voigt Hill
#
# Bulk Modulus (GPa) = 17.04302 20.92683 18.98493
# Shear Modulus (GPa) = 61.02454 23.42815 42.22634
#
# Velocity S-wave (km/s) = 5.15610 3.19476 4.28905
# Velocity P-wave (km/s) = 6.54767 4.76712 5.72701
#
# Compressibility (1/GPa) = 0.05867503
#
# Stress axis : x y z
#
# Youngs Moduli (GPa) = 92.94401 58.75787 42.42470
#
# Poissons Ratio (x) = 0.10054 -0.05607
# Poissons Ratio (y) = 0.15904 -0.17192
# Poissons Ratio (z) = -0.12283 -0.23811
#
# Static dielectric constant tensor:
#      x y z
#    x 1.882150 0.000000 0.000000 
#    y 0.000000 4.429540 0.000000 
#    z 0.000000 0.000000 1.896100 
# 
# From -- ./inp_files/772.got.cif
#   From: 2010.05.17/outbox.cif.g08.bks.cpg/sg23_1_cif.got.tgz:772.got - 2010.06.04 12:02:01.
