data_PCOD9331994
_publ_section_title
;
Structure prediction by ZEFSAII (Michael W. Deem and Ramdas Pophale) SiO2 
 PCOD9331994
Probable space group: I 2 2 2
;
_chemical_formula_sum "Si O2"
_cell_formula_units_Z 40
_cell_length_a 15.678907
_cell_length_b 13.955404
_cell_length_c 7.083189
_cell_angle_alpha 90.000000
_cell_angle_beta 90.000000
_cell_angle_gamma 90.000000
_cell_volume 1549.840579
_symmetry_space_group_name_H-M "I 2 2 2"
_symmetry_group_IT_number 23
_symmetry_cell_setting 'orthorhombic'
loop_
_space_group_symop_operation_xyz
x,y,z
-x,-y,z
x,-y,-z
-x,y,-z
1/2+x,1/2+y,1/2+z
1/2-x,1/2-y,1/2+z
1/2+x,1/2-y,1/2-z
1/2-x,1/2+y,1/2-z
loop_
_atom_site_type_symbol
_atom_site_label
_atom_site_fract_x
_atom_site_fract_y
_atom_site_fract_z
Si Si1 0.402668 0.028426 0.216048
Si Si2 0.756819 0.393622 0.851616
Si Si3 0.338466 0.706719 0.198153
Si Si4 0.118867 0.905383 0.078740
Si Si5 0.522263 0.772707 0.281501
O O1 0.409732 0.144384 0.227477
O O2 0.500000 0.000000 0.260113
O O3 0.339899 0.961036 0.336553
O O4 0.385006 0.000000 0.000000
O O5 0.708608 0.640227 0.957245
O O6 0.778936 0.296486 0.741478
O O7 0.689956 0.445007 0.718285
O O8 0.349087 0.652985 0.397252
O O9 0.433803 0.754323 0.166012
O O10 0.064317 0.831441 0.201358
O O11 0.078142 0.000000 0.000000
O O12 0.500000 0.797766 0.500000
#
# Coordination Sequence:
#
# PCOD9331994 Si02
#       5
#     8   8   8   8   8
#     4  11  25  46  78 124 174 220 287 364 453 531
#     4  12  25  47  79 119 171 212 285 350 441 515
#     4  11  25  49  79 119 159 224 274 355 430 523
#     4  11  27  51  79 114 161 222 281 351 423 519
#     4  10  25  52  81 116 164 224 293 356 440 531
#
# _framework density 25.809107999999998
#
# number of rings (size 3 to 8) (size 9 to 14) (size 15 to 20)
#    0.000    1.000    4.000    0.600    2.800    7.200 
#    7.200    2.000    0.000    7.200    0.000    0.000 
#    0.000    0.000    0.000    0.000    0.000    0.000 
#
# Total GULP energy -111833.771938 kJ/mol
# GULP energy per Si atom -5591.688597 kJ/mol
# Density = 2.575037 g / cm^3
# Si number density = 25.809108 Si / 1000 Ang^3
#
#
#
# Elastic Constant Matrix: (Units=GPa)
#
#
# Indices 1 2 3 4 5 6 
#
# 1 133.1144 50.5760 74.4928 0.0000 0.0000 0.0000
# 2 50.5760 173.7133 46.3785 0.0000 0.0000 0.0000
# 3 74.4928 46.3785 116.3948 0.0000 0.0000 0.0000
# 4 0.0000 0.0000 0.0000 30.5868 0.0000 0.0000
# 5 0.0000 0.0000 0.0000 0.0000 10.9876 0.0000
# 6 0.0000 0.0000 0.0000 0.0000 0.0000 54.7238
#
#
#
# Elastic Compliance Matrix: (Units=1/GPa)
#
#
# Indices 1 2 3 4 5 6 
#
# 1 0.012103 -0.001629 -0.007097 0.000000 0.000000 0.000000
# 2 -0.001629 0.006661 -0.001612 0.000000 0.000000 0.000000
# 3 -0.007097 -0.001612 0.013775 0.000000 0.000000 0.000000
# 4 0.000000 0.000000 0.000000 0.032694 0.000000 0.000000
# 5 0.000000 0.000000 0.000000 0.000000 0.091012 0.000000
# 6 0.000000 0.000000 0.000000 0.000000 0.000000 0.018274
#
#
# Mechanical properties :
#
#
# Convention : Reuss Voigt Hill
#
# Bulk Modulus (GPa) = 84.28305 85.12411 84.70358
# Shear Modulus (GPa) = 25.10696 36.04464 30.57580
#
# Velocity S-wave (km/s) = 3.12235 3.74115 3.44567
# Velocity P-wave (km/s) = 6.76210 7.19134 6.98002
#
# Compressibility (1/GPa) = 0.01186478
#
# Stress axis : x y z
#
# Youngs Moduli (GPa) = 82.62665 150.12400 72.59272
#
# Poissons Ratio (x) = 0.24455 0.51516
# Poissons Ratio (y) = 0.13460 0.11699
# Poissons Ratio (z) = 0.58637 0.24195
#
# Static dielectric constant tensor:
#      x y z
#    x 2.107120 0.000000 0.000000 
#    y 0.000000 0.936560 0.000000 
#    z 0.000000 0.000000 1.989590 
# 
# From -- ./inp_files/16516.got.cif
#   From: 2010.05.17/outbox.cif.g08.bks.cpg/sg23_9_cif.got.tgz:16516.got - 2010.06.04 12:02:01.
