data_PCOD9331089
_publ_section_title
;
Structure prediction by ZEFSAII (Michael W. Deem and Ramdas Pophale) SiO2 
 PCOD9331089
Probable space group: I 2 2 2
;
_chemical_formula_sum "Si O2"
_cell_formula_units_Z 64
_cell_length_a 11.855451
_cell_length_b 30.214721
_cell_length_c 9.245549
_cell_angle_alpha 90.000000
_cell_angle_beta 90.000000
_cell_angle_gamma 90.000000
_cell_volume 3311.840196
_symmetry_space_group_name_H-M "I 2 2 2"
_symmetry_group_IT_number 23
_symmetry_cell_setting 'orthorhombic'
loop_
_space_group_symop_operation_xyz
x,y,z
-x,-y,z
x,-y,-z
-x,y,-z
1/2+x,1/2+y,1/2+z
1/2-x,1/2-y,1/2+z
1/2+x,1/2-y,1/2-z
1/2-x,1/2+y,1/2-z
loop_
_atom_site_type_symbol
_atom_site_label
_atom_site_fract_x
_atom_site_fract_y
_atom_site_fract_z
Si Si1 0.168367 0.599214 0.824394
Si Si2 0.619693 0.648019 0.800144
Si Si3 0.135365 0.842247 0.226681
Si Si4 0.466586 0.127840 0.150552
Si Si5 0.877478 0.776163 0.535907
Si Si6 0.634854 0.007723 0.169724
Si Si7 0.296600 0.073773 0.348551
Si Si8 0.233454 0.312225 0.551035
O O1 0.286734 0.623880 0.814072
O O2 0.162000 0.557359 0.718604
O O3 0.073442 0.632760 0.757867
O O4 0.157301 0.581116 0.988311
O O5 0.494413 0.642740 0.735576
O O6 0.622751 0.679043 0.941395
O O7 0.680583 0.601317 0.830368
O O8 0.691704 0.677673 0.689839
O O9 0.134024 0.794006 0.301731
O O10 0.199638 0.837507 0.075083
O O11 0.382757 0.098321 0.242326
O O12 0.390002 0.168297 0.092349
O O13 0.500000 0.104571 0.000000
O O14 0.784805 0.738832 0.510094
O O15 0.000000 0.756615 0.500000
O O16 0.700584 0.975402 0.282204
O O17 0.500000 0.000000 0.188159
O O18 0.662631 0.000000 0.000000
#
# Coordination Sequence:
#
# PCOD9331089 Si02
#       8
#     8   8   8   8   8   8   8   8
#     4  12  23  39  65  95 127 168 212 260 333 390
#     4  10  23  42  63  90 128 173 218 268 321 391
#     4  11  23  40  65  89 126 176 216 258 328 392
#     4  11  21  36  59  94 127 166 205 259 324 379
#     4  10  21  40  63  90 125 168 217 272 326 383
#     4  11  24  40  66  96 129 166 209 265 331 397
#     4  11  23  40  64  92 130 167 214 269 321 391
#     4  11  22  38  64  92 127 168 219 271 319 379
#
# _framework density 19.324604000000001
#
# number of rings (size 3 to 8) (size 9 to 14) (size 15 to 20)
#    0.000    1.125    3.750    3.000    1.750    0.500 
#    0.000    0.625    2.750    2.250    0.000    0.000 
#    0.000    0.000    0.000    0.000    0.000    0.000 
#
# Total GULP energy -178367.235441 kJ/mol
# GULP energy per Si atom -5573.976108 kJ/mol
# Density = 1.928062 g / cm^3
# Si number density = 19.324604 Si / 1000 Ang^3
#
#
#
# Elastic Constant Matrix: (Units=GPa)
#
#
# Indices 1 2 3 4 5 6 
#
# 1 120.4020 41.0547 32.2874 -0.0001 -0.0004 -0.0001
# 2 41.0547 59.8634 15.2194 0.0000 -0.0007 -0.0002
# 3 32.2874 15.2194 108.6992 -0.0015 0.0073 -0.0001
# 4 -0.0001 0.0000 -0.0015 17.0296 0.0016 0.0000
# 5 -0.0004 -0.0007 0.0073 0.0016 10.1136 -0.0007
# 6 -0.0001 -0.0002 -0.0001 0.0000 -0.0007 26.8236
#
#
#
# Elastic Compliance Matrix: (Units=1/GPa)
#
#
# Indices 1 2 3 4 5 6 
#
# 1 0.011404 -0.007216 -0.002377 0.000000 0.000002 0.000000
# 2 -0.007216 0.021888 -0.000921 0.000000 0.000002 0.000000
# 3 -0.002377 -0.000921 0.010035 0.000001 -0.000007 0.000000
# 4 0.000000 0.000000 0.000001 0.058721 -0.000009 0.000000
# 5 0.000002 0.000002 -0.000007 -0.000009 0.098876 0.000003
# 6 0.000000 0.000000 0.000000 0.000000 0.000003 0.037281
#
#
# Mechanical properties :
#
#
# Convention : Reuss Voigt Hill
#
# Bulk Modulus (GPa) = 44.84807 51.78750 48.31779
# Shear Modulus (GPa) = 18.75009 24.15357 21.45183
#
# Velocity S-wave (km/s) = 3.11830 3.53921 3.33540
# Velocity P-wave (km/s) = 6.01857 6.59987 6.31591
#
# Compressibility (1/GPa) = 0.02229750
#
# Stress axis : x y z
#
# Youngs Moduli (GPa) = 87.69225 45.68738 99.65442
#
# Poissons Ratio (x) = 0.32969 0.23686
# Poissons Ratio (y) = 0.63282 0.09179
# Poissons Ratio (z) = 0.20843 0.04208
#
# Static dielectric constant tensor:
#      x y z
#    x 1.693580 0.000000 0.000000 
#    y 0.000000 1.713660 0.000000 
#    z 0.000000 0.000000 1.749370 
# 
# From -- ./inp_files/8983.got.cif
#   From: 2010.05.17/outbox.cif.g08.bks.cpg/sg23_5_cif.got.tgz:8983.got - 2010.06.04 12:02:01.
