data_PCOD9331237
_publ_section_title
;
Structure prediction by ZEFSAII (Michael W. Deem and Ramdas Pophale) SiO2 
 PCOD9331237
Probable space group: I 2 2 2
;
_chemical_formula_sum "Si O2"
_cell_formula_units_Z 64
_cell_length_a 8.995046
_cell_length_b 23.158884
_cell_length_c 14.666565
_cell_angle_alpha 90.000000
_cell_angle_beta 90.000000
_cell_angle_gamma 90.000000
_cell_volume 3055.268816
_symmetry_space_group_name_H-M "I 2 2 2"
_symmetry_group_IT_number 23
_symmetry_cell_setting 'orthorhombic'
loop_
_space_group_symop_operation_xyz
x,y,z
-x,-y,z
x,-y,-z
-x,y,-z
1/2+x,1/2+y,1/2+z
1/2-x,1/2-y,1/2+z
1/2+x,1/2-y,1/2-z
1/2-x,1/2+y,1/2-z
loop_
_atom_site_type_symbol
_atom_site_label
_atom_site_fract_x
_atom_site_fract_y
_atom_site_fract_z
Si Si1 0.634433 0.460298 0.329817
Si Si2 0.644849 0.767644 0.341874
Si Si3 0.417489 0.133140 0.587113
Si Si4 0.974267 0.845233 0.103146
Si Si5 0.655293 0.207089 0.868275
Si Si6 0.145022 0.194582 0.492021
Si Si7 0.953460 0.418458 0.397129
Si Si8 0.859241 0.536093 0.229599
O O1 0.500000 0.500000 0.366901
O O2 0.552991 0.397538 0.325558
O O3 0.786981 0.444450 0.383695
O O4 0.712557 0.496693 0.246699
O O5 0.525493 0.817496 0.370087
O O6 0.594927 0.703571 0.372565
O O7 0.660212 0.769837 0.233945
O O8 0.795373 0.785008 0.394312
O O9 0.500000 0.103982 0.500000
O O10 0.283477 0.165626 0.539935
O O11 0.353058 0.090445 0.663059
O O12 0.820570 0.810551 0.102115
O O13 0.000000 0.868226 0.000000
O O14 0.604010 0.254081 0.939061
O O15 0.559674 0.149135 0.874633
O O16 0.000000 0.154896 0.500000
O O17 0.000000 0.427827 0.500000
O O18 0.076184 0.443148 0.327779
O O19 0.000000 0.500000 0.192130
#
# Coordination Sequence:
#
# PCOD9331237 Si02
#       8
#     8   8   8   8   8   8   8   8
#     4  10  25  43  63  95 137 180 222 278 346 406
#     4  11  22  43  70  96 137 181 226 278 351 425
#     4  10  21  44  72  96 134 178 229 290 350 407
#     4  11  22  43  65  93 136 180 220 277 340 417
#     4  11  22  39  65  99 130 176 222 274 336 403
#     4  11  24  40  62 105 146 170 221 284 344 421
#     4  10  22  42  68  94 129 170 228 283 326 404
#     4  10  22  44  70  98 129 177 238 286 329 410
#
# _framework density 20.947420999999999
#
# number of rings (size 3 to 8) (size 9 to 14) (size 15 to 20)
#    0.000    1.500    3.750    0.750    1.750    6.750 
#    6.750    0.000    0.000    0.000    0.000    0.000 
#    0.000    0.000    0.000    0.000    0.000    0.000 
#
# Total GULP energy -178400.733866 kJ/mol
# GULP energy per Si atom -5575.022933 kJ/mol
# Density = 2.089974 g / cm^3
# Si number density = 20.947421 Si / 1000 Ang^3
#
#
#
# Elastic Constant Matrix: (Units=GPa)
#
#
# Indices 1 2 3 4 5 6 
#
# 1 50.8171 9.6615 22.9293 0.0000 0.0000 0.0000
# 2 9.6615 80.6828 34.5023 0.0000 0.0000 0.0000
# 3 22.9293 34.5023 123.5406 0.0001 0.0000 0.0000
# 4 0.0000 0.0000 0.0001 35.6684 0.0000 0.0000
# 5 0.0000 0.0000 0.0000 0.0000 10.8487 0.0000
# 6 0.0000 0.0000 0.0000 0.0000 0.0000 15.0061
#
#
#
# Elastic Compliance Matrix: (Units=1/GPa)
#
#
# Indices 1 2 3 4 5 6 
#
# 1 0.021546 -0.000988 -0.003723 0.000000 0.000000 0.000000
# 2 -0.000988 0.014120 -0.003760 0.000000 0.000000 0.000000
# 3 -0.003723 -0.003760 0.009836 0.000000 0.000000 0.000000
# 4 0.000000 0.000000 0.000000 0.028036 0.000000 0.000000
# 5 0.000000 0.000000 0.000000 0.000000 0.092177 0.000000
# 6 0.000000 0.000000 0.000000 0.000000 0.000000 0.066640
#
#
# Mechanical properties :
#
#
# Convention : Reuss Voigt Hill
#
# Bulk Modulus (GPa) = 35.01424 43.24741 39.13082
# Shear Modulus (GPa) = 19.31866 24.83446 22.07656
#
# Velocity S-wave (km/s) = 3.04014 3.44693 3.24991
# Velocity P-wave (km/s) = 5.39211 6.04420 5.72744
#
# Compressibility (1/GPa) = 0.02855981
#
# Stress axis : x y z
#
# Youngs Moduli (GPa) = 46.41201 70.81906 101.67094
#
# Poissons Ratio (x) = 0.06997 0.37853
# Poissons Ratio (y) = 0.04585 0.38230
# Poissons Ratio (z) = 0.17279 0.26629
#
# Static dielectric constant tensor:
#      x y z
#    x 1.892390 0.000000 0.000000 
#    y 0.000000 1.825730 0.000000 
#    z 0.000000 0.000000 1.700650 
# 
# From -- ./inp_files/20338.got.cif
#   From: 2010.05.17/outbox.cif.g08.bks.cpg/sg23_11_cif.got.tgz:20338.got - 2010.06.04 12:02:01.
