data_PCOD9331530
_publ_section_title
;
Structure prediction by ZEFSAII (Michael W. Deem and Ramdas Pophale) SiO2 
 PCOD9331530
Probable space group: I 2 2 2
;
_chemical_formula_sum "Si O2"
_cell_formula_units_Z 48
_cell_length_a 9.501328
_cell_length_b 29.628835
_cell_length_c 8.411601
_cell_angle_alpha 90.000000
_cell_angle_beta 90.000000
_cell_angle_gamma 90.000000
_cell_volume 2367.977384
_symmetry_space_group_name_H-M "I 2 2 2"
_symmetry_group_IT_number 23
_symmetry_cell_setting 'orthorhombic'
loop_
_space_group_symop_operation_xyz
x,y,z
-x,-y,z
x,-y,-z
-x,y,-z
1/2+x,1/2+y,1/2+z
1/2-x,1/2-y,1/2+z
1/2+x,1/2-y,1/2-z
1/2-x,1/2+y,1/2-z
loop_
_atom_site_type_symbol
_atom_site_label
_atom_site_fract_x
_atom_site_fract_y
_atom_site_fract_z
Si Si1 0.000000 0.920632 0.500000
Si Si2 0.844835 0.477895 0.345172
Si Si3 0.875709 0.157500 0.719089
Si Si4 0.157026 0.374604 0.540608
Si Si5 0.840783 0.761572 0.524670
Si Si6 0.788415 0.000000 0.500000
Si Si7 0.160246 0.188831 0.858090
O O1 0.062171 0.887107 0.633565
O O2 0.878931 0.955894 0.550079
O O3 0.768193 0.500000 0.500000
O O4 0.849743 0.426337 0.403088
O O5 0.786356 0.485209 0.166184
O O6 0.000000 0.500000 0.338090
O O7 0.732824 0.148006 0.810180
O O8 0.844581 0.196037 0.593082
O O9 0.997867 0.175079 0.836251
O O10 0.253821 0.357432 0.393519
O O11 0.000000 0.360625 0.500000
O O12 0.812185 0.784218 0.694150
O O13 0.722793 0.725080 0.482528
O O14 0.000000 0.742196 0.500000
#
# Coordination Sequence:
#
# PCOD9331530 Si02
#       7
#     4   8   8   8   8   4   8
#     4  11  22  44  72 104 142 186 240 308 361 442
#     4  11  24  45  69  99 142 188 238 299 367 440
#     4  11  23  46  72 102 145 188 237 305 363 435
#     4  12  25  45  67 100 142 184 238 298 356 438
#     4  10  22  43  68 101 143 185 238 294 364 433
#     4  11  25  44  74 106 143 187 244 302 378 443
#     4  11  23  41  71 101 139 189 236 299 362 431
#
# _framework density 20.270464
#
# number of rings (size 3 to 8) (size 9 to 14) (size 15 to 20)
#    0.000    1.000    5.833    2.250    2.333    2.667 
#    0.000    5.833    0.000    0.000    0.000    0.000 
#    0.000    0.000    0.000    0.000    0.000    0.000 
#
# Total GULP energy -133703.303267 kJ/mol
# GULP energy per Si atom -5570.970969 kJ/mol
# Density = 2.022433 g / cm^3
# Si number density = 20.270464 Si / 1000 Ang^3
#
#
#
# Elastic Constant Matrix: (Units=GPa)
#
#
# Indices 1 2 3 4 5 6 
#
# 1 91.0586 49.8904 39.4446 0.0027 -0.0025 -0.0019
# 2 49.8904 159.0273 55.8355 0.0006 -0.0008 -0.0005
# 3 39.4446 55.8355 123.0897 0.0113 0.0049 -0.0031
# 4 0.0027 0.0006 0.0113 26.8074 0.0020 -0.0013
# 5 -0.0025 -0.0008 0.0049 0.0020 36.4882 0.0007
# 6 -0.0019 -0.0005 -0.0031 -0.0013 0.0007 28.9671
#
#
#
# Elastic Compliance Matrix: (Units=1/GPa)
#
#
# Indices 1 2 3 4 5 6 
#
# 1 0.014132 -0.003382 -0.002994 0.000000 0.000001 0.000001
# 2 -0.003382 0.008289 -0.002676 0.000001 0.000000 0.000000
# 3 -0.002994 -0.002676 0.010298 -0.000004 -0.000002 0.000001
# 4 0.000000 0.000001 -0.000004 0.037303 -0.000002 0.000002
# 5 0.000001 0.000000 -0.000002 -0.000002 0.027406 -0.000001
# 6 0.000001 0.000000 0.000001 0.000002 -0.000001 0.034522
#
#
# Mechanical properties :
#
#
# Convention : Reuss Voigt Hill
#
# Bulk Modulus (GPa) = 68.43170 73.72407 71.07788
# Shear Modulus (GPa) = 32.27334 33.65289 32.96312
#
# Velocity S-wave (km/s) = 3.99449 4.07897 4.03695
# Velocity P-wave (km/s) = 7.42342 7.65723 7.54123
#
# Compressibility (1/GPa) = 0.01461311
#
# Stress axis : x y z
#
# Youngs Moduli (GPa) = 70.76054 120.64319 97.10910
#
# Poissons Ratio (x) = 0.40804 0.29079
# Poissons Ratio (y) = 0.23933 0.25988
# Poissons Ratio (z) = 0.21189 0.32286
#
# Static dielectric constant tensor:
#      x y z
#    x 1.711100 0.000000 0.000000 
#    y 0.000000 1.738440 0.000000 
#    z 0.000000 0.000000 1.796290 
# 
# From -- ./inp_files/7408.got.cif
#   From: 2010.05.17/outbox.cif.g08.bks.cpg/sg23_4_cif.got.tgz:7408.got - 2010.06.04 12:02:01.
