data_PCOD9331253
_publ_section_title
;
Structure prediction by ZEFSAII (Michael W. Deem and Ramdas Pophale) SiO2 
 PCOD9331253
Probable space group: I 2 2 2
;
_chemical_formula_sum "Si O2"
_cell_formula_units_Z 48
_cell_length_a 16.278753
_cell_length_b 27.070636
_cell_length_c 5.134508
_cell_angle_alpha 90.000000
_cell_angle_beta 90.000000
_cell_angle_gamma 90.000000
_cell_volume 2262.655459
_symmetry_space_group_name_H-M "I 2 2 2"
_symmetry_group_IT_number 23
_symmetry_cell_setting 'orthorhombic'
loop_
_space_group_symop_operation_xyz
x,y,z
-x,-y,z
x,-y,-z
-x,y,-z
1/2+x,1/2+y,1/2+z
1/2-x,1/2-y,1/2+z
1/2+x,1/2-y,1/2-z
1/2-x,1/2+y,1/2-z
loop_
_atom_site_type_symbol
_atom_site_label
_atom_site_fract_x
_atom_site_fract_y
_atom_site_fract_z
Si Si1 0.860067 0.440514 0.718679
Si Si2 0.274074 0.500000 0.500000
Si Si3 0.298353 0.887214 0.696098
Si Si4 0.000000 0.500000 0.000000
Si Si5 0.552150 0.317107 0.263097
Si Si6 0.267304 0.279650 0.697386
Si Si7 0.000000 0.000000 0.500000
Si Si8 0.879073 0.075872 0.784492
O O1 0.790846 0.483993 0.721664
O O2 0.843801 0.415672 0.434892
O O3 0.845113 0.398187 0.931174
O O4 0.943407 0.466938 0.808501
O O5 0.337067 0.545746 0.516571
O O6 0.283493 0.830321 0.768203
O O7 0.206244 0.908949 0.643869
O O8 0.500000 0.295282 0.500000
O O9 0.638468 0.290264 0.228264
O O10 0.575717 0.373379 0.339771
O O11 0.500000 0.317802 0.000000
O O12 0.264362 0.260801 0.401855
O O13 0.940385 0.037255 0.654448
#
# Coordination Sequence:
#
# PCOD9331253 Si02
#       8
#     8   4   8   2   8   8   2   8
#     4  11  23  40  63  94 133 174 224 277 331 378
#     4  10  22  38  58  90 130 190 228 266 294 392
#     4  10  23  43  64  93 134 170 214 276 334 386
#     4  12  24  40  72  98 128 184 236 278 332 408
#     4  11  24  42  62  96 135 168 199 267 332 374
#     4  11  23  44  77 100 121 170 228 267 331 423
#     4  12  20  32  52  96 138 174 226 248 282 374
#     4  10  22  33  57  87 133 177 213 252 304 363
#
# _framework density 21.214013999999999
#
# number of rings (size 3 to 8) (size 9 to 14) (size 15 to 20)
#    0.000    1.333    0.833    5.000    2.333    9.667 
#    0.000    0.000   18.333    0.000    0.000    0.000 
#    0.000    0.000    0.000    0.000    0.000    0.000 
#
# Total GULP energy -133839.587966 kJ/mol
# GULP energy per Si atom -5576.649499 kJ/mol
# Density = 2.116573 g / cm^3
# Si number density = 21.214014 Si / 1000 Ang^3
#
#
#
# Elastic Constant Matrix: (Units=GPa)
#
#
# Indices 1 2 3 4 5 6 
#
# 1 117.4010 18.9219 22.7911 0.0002 -0.0003 0.0003
# 2 18.9219 64.3672 7.2086 -0.0001 -0.0015 -0.0004
# 3 22.7911 7.2086 83.8408 0.0090 0.0303 0.0133
# 4 0.0002 -0.0001 0.0090 26.2078 0.0025 0.0015
# 5 -0.0003 -0.0015 0.0303 0.0025 25.7938 0.0036
# 6 0.0003 -0.0004 0.0133 0.0015 0.0036 9.5839
#
#
#
# Elastic Compliance Matrix: (Units=1/GPa)
#
#
# Indices 1 2 3 4 5 6 
#
# 1 0.009373 -0.002494 -0.002333 0.000001 0.000003 0.000003
# 2 -0.002494 0.016351 -0.000728 0.000000 0.000002 0.000002
# 3 -0.002333 -0.000728 0.012624 -0.000004 -0.000015 -0.000017
# 4 0.000001 0.000000 -0.000004 0.038157 -0.000004 -0.000006
# 5 0.000003 0.000002 -0.000015 -0.000004 0.038769 -0.000014
# 6 0.000003 0.000002 -0.000017 -0.000006 -0.000014 0.104342
#
#
# Mechanical properties :
#
#
# Convention : Reuss Voigt Hill
#
# Bulk Modulus (GPa) = 36.71473 40.38359 38.54916
# Shear Modulus (GPa) = 20.85032 26.76293 23.80662
#
# Velocity S-wave (km/s) = 3.13845 3.55571 3.35358
# Velocity P-wave (km/s) = 5.52065 5.99458 5.76249
#
# Compressibility (1/GPa) = 0.02723703
#
# Stress axis : x y z
#
# Youngs Moduli (GPa) = 106.69207 61.16013 79.21242
#
# Poissons Ratio (x) = 0.15253 0.18484
# Poissons Ratio (y) = 0.26609 0.05766
# Poissons Ratio (z) = 0.24896 0.04452
#
# Static dielectric constant tensor:
#      x y z
#    x 1.794080 0.000000 0.000000 
#    y 0.000000 1.821390 0.000000 
#    z 0.000000 0.000000 1.769950 
# 
# From -- ./inp_files/2628.got.cif
#   From: 2010.05.17/outbox.cif.g08.bks.cpg/sg23_2_cif.got.tgz:2628.got - 2010.06.04 12:02:01.
