data_PCOD9331309
_publ_section_title
;
Structure prediction by ZEFSAII (Michael W. Deem and Ramdas Pophale) SiO2 
 PCOD9331309
Probable space group: I 2 2 2
;
_chemical_formula_sum "Si O2"
_cell_formula_units_Z 46
_cell_length_a 17.704198
_cell_length_b 14.809733
_cell_length_c 8.308528
_cell_angle_alpha 90.000000
_cell_angle_beta 90.000000
_cell_angle_gamma 90.000000
_cell_volume 2178.449891
_symmetry_space_group_name_H-M "I 2 2 2"
_symmetry_group_IT_number 23
_symmetry_cell_setting 'orthorhombic'
loop_
_space_group_symop_operation_xyz
x,y,z
-x,-y,z
x,-y,-z
-x,y,-z
1/2+x,1/2+y,1/2+z
1/2-x,1/2-y,1/2+z
1/2+x,1/2-y,1/2-z
1/2-x,1/2+y,1/2-z
loop_
_atom_site_type_symbol
_atom_site_label
_atom_site_fract_x
_atom_site_fract_y
_atom_site_fract_z
Si Si1 0.089072 0.392856 0.481832
Si Si2 0.000000 0.500000 0.000000
Si Si3 0.311230 0.764333 0.211161
Si Si4 0.828985 0.000000 0.000000
Si Si5 0.113988 0.631536 0.169916
Si Si6 0.653706 0.306206 0.560273
Si Si7 0.281057 0.567818 0.141570
O O1 0.101120 0.500000 0.500000
O O2 0.128001 0.340863 0.335612
O O3 0.127180 0.355699 0.641548
O O4 0.000000 0.376516 0.500000
O O5 0.949507 0.438159 0.116342
O O6 0.316715 0.735093 0.394024
O O7 0.321669 0.665867 0.127502
O O8 0.228340 0.802802 0.171723
O O9 0.872295 0.091780 0.041681
O O10 0.788176 0.027861 0.826987
O O11 0.193409 0.592501 0.108830
O O12 0.094235 0.731740 0.113082
O O13 0.306066 0.500000 0.000000
#
# Coordination Sequence:
#
# PCOD9331309 Si02
#       7
#     8   2   8   4   8   8   8
#     4  11  25  40  60  89 128 166 203 248 314 387
#     4  12  24  40  62  86 128 160 212 240 316 400
#     4  10  22  38  57  93 120 159 203 256 314 363
#     4  10  22  38  64  96 120 164 204 264 324 366
#     4  11  25  39  59  92 121 169 200 255 315 374
#     4  10  23  38  63  89 125 159 208 266 309 368
#     4  10  22  39  64  92 126 159 206 264 313 372
#
# _framework density 21.115931
#
# number of rings (size 3 to 8) (size 9 to 14) (size 15 to 20)
#    0.000    1.565    0.870    4.174   17.043    0.000 
#    0.000    0.000    0.000    1.043    0.000    0.000 
#    0.000    0.000    0.000    0.000    0.000    0.000 
#
# Total GULP energy -128231.549399 kJ/mol
# GULP energy per Si atom -5575.284756 kJ/mol
# Density = 2.106787 g / cm^3
# Si number density = 21.115931 Si / 1000 Ang^3
#
#
#
# Elastic Constant Matrix: (Units=GPa)
#
#
# Indices 1 2 3 4 5 6 
#
# 1 41.3447 32.3625 -8.7973 0.0000 0.0000 0.0000
# 2 32.3625 150.4044 14.4695 0.0000 0.0000 0.0000
# 3 -8.7973 14.4695 42.8880 0.0000 0.0000 0.0000
# 4 0.0000 0.0000 0.0000 35.7171 0.0000 0.0000
# 5 0.0000 0.0000 0.0000 0.0000 4.2008 0.0000
# 6 0.0000 0.0000 0.0000 0.0000 0.0000 2.9618
#
#
#
# Elastic Compliance Matrix: (Units=1/GPa)
#
#
# Indices 1 2 3 4 5 6 
#
# 1 0.032297 -0.007841 0.009270 0.000000 0.000000 0.000000
# 2 -0.007841 0.008776 -0.004569 0.000000 0.000000 0.000000
# 3 0.009270 -0.004569 0.026760 0.000000 0.000000 0.000000
# 4 0.000000 0.000000 0.000000 0.027998 0.000000 0.000000
# 5 0.000000 0.000000 0.000000 0.000000 0.238049 0.000000
# 6 0.000000 0.000000 0.000000 0.000000 0.000000 0.337636
#
#
# Mechanical properties :
#
#
# Convention : Reuss Voigt Hill
#
# Bulk Modulus (GPa) = 16.24634 34.52297 25.38466
# Shear Modulus (GPa) = 7.16011 21.68275 14.42143
#
# Velocity S-wave (km/s) = 1.84343 3.20792 2.61619
# Velocity P-wave (km/s) = 3.49879 5.48687 4.60148
#
# Compressibility (1/GPa) = 0.06155231
#
# Stress axis : x y z
#
# Youngs Moduli (GPa) = 30.96252 113.95358 37.36970
#
# Poissons Ratio (x) = 0.89354 -0.34643
# Poissons Ratio (y) = 0.24278 0.17075
# Poissons Ratio (z) = -0.28703 0.52066
#
# Static dielectric constant tensor:
#      x y z
#    x 1.758340 0.000000 0.000000 
#    y 0.000000 1.821570 0.000000 
#    z 0.000000 0.000000 1.847280 
# 
# From -- ./inp_files/11958.got.cif
#   From: 2010.05.17/outbox.cif.g08.bks.cpg/sg23_6_cif.got.tgz:11958.got - 2010.06.04 12:02:01.
