data_PCOD9331712
_publ_section_title
;
Structure prediction by ZEFSAII (Michael W. Deem and Ramdas Pophale) SiO2 
 PCOD9331712
Probable space group: I 2 2 2
;
_chemical_formula_sum "Si O2"
_cell_formula_units_Z 44
_cell_length_a 5.653839
_cell_length_b 13.782769
_cell_length_c 25.061820
_cell_angle_alpha 90.000000
_cell_angle_beta 90.000000
_cell_angle_gamma 90.000000
_cell_volume 1952.956280
_symmetry_space_group_name_H-M "I 2 2 2"
_symmetry_group_IT_number 23
_symmetry_cell_setting 'orthorhombic'
loop_
_space_group_symop_operation_xyz
x,y,z
-x,-y,z
x,-y,-z
-x,y,-z
1/2+x,1/2+y,1/2+z
1/2-x,1/2-y,1/2+z
1/2+x,1/2-y,1/2-z
1/2-x,1/2+y,1/2-z
loop_
_atom_site_type_symbol
_atom_site_label
_atom_site_fract_x
_atom_site_fract_y
_atom_site_fract_z
Si Si1 0.251749 0.860152 0.282256
Si Si2 0.155802 0.359715 0.945563
Si Si3 0.000000 0.500000 0.500000
Si Si4 0.500000 0.500000 0.000000
Si Si5 0.751749 0.860153 0.217744
Si Si6 0.155802 0.140285 0.945563
Si Si7 0.000000 0.000000 0.854932
Si Si8 0.000000 0.500000 0.145068
O O1 0.496437 0.864002 0.247087
O O2 0.257826 0.750000 0.307004
O O3 0.996437 0.864002 0.252914
O O4 0.289994 0.954835 0.319214
O O5 0.365604 0.428995 0.961100
O O6 0.224385 0.250000 0.934860
O O7 0.047383 0.409543 0.893959
O O8 0.000000 0.361631 0.000000
O O9 0.865604 0.571005 0.461100
O O10 0.789995 0.954835 0.180787
O O11 0.047383 0.090457 0.893959
O O12 0.000000 0.138369 0.000000
#
# Coordination Sequence:
#
# PCOD9331712 Si02
#       8
#     8   8   2   2   8   8   4   4
#     4  10  23  43  66  97 136 176 224 284 344 408
#     4  11  24  43  63  94 136 173 221 276 332 403
#     4  12  20  44  66  96 124 186 216 280 336 392
#     4  12  20  44  66  96 124 186 216 280 336 392
#     4  10  23  43  66  97 136 176 224 284 344 408
#     4  11  24  43  63  94 136 173 221 276 332 403
#     4  12  21  42  65  96 126 179 223 278 338 412
#     4  12  21  42  65  96 126 179 223 278 338 412
#
# _framework density 22.529948999999998
#
# number of rings (size 3 to 8) (size 9 to 14) (size 15 to 20)
#    0.000    1.091    3.636    2.727    0.000    2.909 
#    0.000    3.636    0.000    0.000    0.000    0.000 
#    0.000    0.000    0.000    0.000    0.000    0.000 
#
# Total GULP energy -122684.106996 kJ/mol
# GULP energy per Si atom -5576.550318 kJ/mol
# Density = 2.247867 g / cm^3
# Si number density = 22.529949 Si / 1000 Ang^3
#
#
#
# Elastic Constant Matrix: (Units=GPa)
#
#
# Indices 1 2 3 4 5 6 
#
# 1 91.7075 42.3143 26.8086 0.0000 0.0000 0.0000
# 2 42.3143 205.9660 40.6207 0.0000 0.0000 0.0000
# 3 26.8086 40.6207 53.2358 0.0000 0.0000 0.0000
# 4 0.0000 0.0000 0.0000 234.1246 0.0000 0.0000
# 5 0.0000 0.0000 0.0000 0.0000 -8.2011 0.0000
# 6 0.0000 0.0000 0.0000 0.0000 0.0000 14.6383
#
#
#
# Elastic Compliance Matrix: (Units=1/GPa)
#
#
# Indices 1 2 3 4 5 6 
#
# 1 0.013249 -0.001655 -0.005409 0.000000 0.000000 0.000000
# 2 -0.001655 0.005922 -0.003685 0.000000 0.000000 0.000000
# 3 -0.005409 -0.003685 0.024320 0.000000 0.000000 0.000000
# 4 0.000000 0.000000 0.000000 0.004271 0.000000 0.000000
# 5 0.000000 0.000000 0.000000 0.000000 -0.121935 0.000000
# 6 0.000000 0.000000 0.000000 0.000000 0.000000 0.068314
#
#
# Mechanical properties :
#
#
# Convention : Reuss Voigt Hill
#
# Bulk Modulus (GPa) = 45.47005 63.37737 54.42371
# Shear Modulus (GPa) = 217.67010 64.19010 140.93010
#
# Velocity S-wave (km/s) = 9.83989 5.34349 7.91758
# Velocity P-wave (km/s) = 12.21981 8.14014 10.38233
#
# Compressibility (1/GPa) = 0.02199250
#
# Stress axis : x y z
#
# Youngs Moduli (GPa) = 75.47647 168.86179 41.11809
#
# Poissons Ratio (x) = 0.27949 0.22241
# Poissons Ratio (y) = 0.12493 0.15153
# Poissons Ratio (z) = 0.40826 0.62228
#
# Static dielectric constant tensor:
#      x y z
#    x 1.867650 0.000000 0.000000 
#    y 0.000000 1.823820 0.000000 
#    z 0.000000 0.000000 2.111230 
# 
# From -- ./inp_files/28934.got.cif
#   From: 2010.05.17/outbox.cif.g08.bks.cpg/sg23_15_cif.got.tgz:28934.got - 2010.06.04 12:02:01.
