data_PCOD9331510
_publ_section_title
;
Structure prediction by ZEFSAII (Michael W. Deem and Ramdas Pophale) SiO2 
 PCOD9331510
Probable space group: I 2 2 2
;
_chemical_formula_sum "Si O2"
_cell_formula_units_Z 34
_cell_length_a 23.534922
_cell_length_b 5.552491
_cell_length_c 11.136434
_cell_angle_alpha 90.000000
_cell_angle_beta 90.000000
_cell_angle_gamma 90.000000
_cell_volume 1455.280715
_symmetry_space_group_name_H-M "I 2 2 2"
_symmetry_group_IT_number 23
_symmetry_cell_setting 'orthorhombic'
loop_
_space_group_symop_operation_xyz
x,y,z
-x,-y,z
x,-y,-z
-x,y,-z
1/2+x,1/2+y,1/2+z
1/2-x,1/2-y,1/2+z
1/2+x,1/2-y,1/2-z
1/2-x,1/2+y,1/2-z
loop_
_atom_site_type_symbol
_atom_site_label
_atom_site_fract_x
_atom_site_fract_y
_atom_site_fract_z
Si Si1 0.885926 0.764396 0.569684
Si Si2 0.557361 0.142299 0.683945
Si Si3 0.326154 0.094387 0.631453
Si Si4 0.000000 0.000000 0.000000
Si Si5 0.269794 0.878945 0.870743
O O1 0.891047 0.500000 0.500000
O O2 0.920786 0.750250 0.692233
O O3 0.820032 0.816555 0.606932
O O4 0.906105 0.000000 0.500000
O O5 0.608076 0.962466 0.644609
O O6 0.540573 0.335946 0.583140
O O7 0.500000 0.000000 0.706253
O O8 0.292210 0.984779 0.745178
O O9 0.307901 0.000000 0.500000
O O10 0.298380 0.355454 0.639106
O O11 0.275089 0.000000 0.000000
#
# Coordination Sequence:
#
# PCOD9331510 Si02
#       5
#     8   8   8   2   8
#     4  10  24  48  81 113 152 197 250 320 387 455
#     4  11  27  50  73 108 148 199 257 317 373 454
#     4  11  22  43  68 105 142 187 249 296 376 453
#     4  12  26  52  74  98 156 200 258 318 376 448
#     4  10  22  42  70 107 151 190 240 316 379 455
#
# _framework density 23.363187
#
# number of rings (size 3 to 8) (size 9 to 14) (size 15 to 20)
#    0.000    1.412    0.000    3.882    3.294    4.235 
#   25.412    0.000    2.588    1.412    0.000    0.000 
#    0.000    0.000    0.000    0.000    0.000    0.000 
#
# Total GULP energy -94654.547971 kJ/mol
# GULP energy per Si atom -5567.914587 kJ/mol
# Density = 2.331001 g / cm^3
# Si number density = 23.363187 Si / 1000 Ang^3
#
#
#
# Elastic Constant Matrix: (Units=GPa)
#
#
# Indices 1 2 3 4 5 6 
#
# 1 190.9328 57.9366 74.4291 0.0000 0.0000 0.0000
# 2 57.9366 59.1302 44.0408 0.0000 0.0000 0.0000
# 3 74.4291 44.0408 178.4068 0.0000 0.0000 0.0000
# 4 0.0000 0.0000 0.0000 42.0453 0.0000 0.0000
# 5 0.0000 0.0000 0.0000 0.0000 33.9808 0.0000
# 6 0.0000 0.0000 0.0000 0.0000 0.0000 29.2595
#
#
#
# Elastic Compliance Matrix: (Units=1/GPa)
#
#
# Indices 1 2 3 4 5 6 
#
# 1 0.007846 -0.006433 -0.001685 0.000000 0.000000 0.000000
# 2 -0.006433 0.025995 -0.003733 0.000000 0.000000 0.000000
# 3 -0.001685 -0.003733 0.007230 0.000000 0.000000 0.000000
# 4 0.000000 0.000000 0.000000 0.023784 0.000000 0.000000
# 5 0.000000 0.000000 0.000000 0.000000 0.029428 0.000000
# 6 0.000000 0.000000 0.000000 0.000000 0.000000 0.034177
#
#
# Mechanical properties :
#
#
# Convention : Reuss Voigt Hill
#
# Bulk Modulus (GPa) = 57.57557 86.80920 72.19239
# Shear Modulus (GPa) = 31.65486 37.86134 34.75810
#
# Velocity S-wave (km/s) = 3.68489 4.02998 3.86129
# Velocity P-wave (km/s) = 6.54231 7.67407 7.13068
#
# Compressibility (1/GPa) = 0.01736848
#
# Stress axis : x y z
#
# Youngs Moduli (GPa) = 127.44708 38.46842 138.31325
#
# Poissons Ratio (x) = 0.24745 0.23312
# Poissons Ratio (y) = 0.81982 0.51639
# Poissons Ratio (z) = 0.21481 0.14362
#
# Static dielectric constant tensor:
#      x y z
#    x 1.954470 0.000000 0.000000 
#    y 0.000000 1.925350 0.000000 
#    z 0.000000 0.000000 1.771300 
# 
# From -- ./inp_files/1585.got.cif
#   From: 2010.05.17/outbox.cif.g08.bks.cpg/sg23_1_cif.got.tgz:1585.got - 2010.06.04 12:02:01.
