data_PCOD9331910
_publ_section_title
;
Structure prediction by ZEFSAII (Michael W. Deem and Ramdas Pophale) SiO2 
 PCOD9331910
Probable space group: I 2 2 2
;
_chemical_formula_sum "Si O2"
_cell_formula_units_Z 64
_cell_length_a 11.920901
_cell_length_b 15.367627
_cell_length_c 17.929207
_cell_angle_alpha 90.000000
_cell_angle_beta 90.000000
_cell_angle_gamma 90.000000
_cell_volume 3284.558290
_symmetry_space_group_name_H-M "I 2 2 2"
_symmetry_group_IT_number 23
_symmetry_cell_setting 'orthorhombic'
loop_
_space_group_symop_operation_xyz
x,y,z
-x,-y,z
x,-y,-z
-x,y,-z
1/2+x,1/2+y,1/2+z
1/2-x,1/2-y,1/2+z
1/2+x,1/2-y,1/2-z
1/2-x,1/2+y,1/2-z
loop_
_atom_site_type_symbol
_atom_site_label
_atom_site_fract_x
_atom_site_fract_y
_atom_site_fract_z
Si Si1 0.715430 0.834254 0.172709
Si Si2 0.406704 0.770764 0.682923
Si Si3 0.959852 0.590970 0.086354
Si Si4 0.207792 0.765467 0.568102
Si Si5 0.760432 0.165985 0.411846
Si Si6 0.456099 0.594687 0.284869
Si Si7 0.367637 0.903575 0.987130
Si Si8 0.989236 0.100039 0.607845
O O1 0.625706 0.816996 0.238548
O O2 0.759427 0.738486 0.150289
O O3 0.825890 0.888894 0.194312
O O4 0.660820 0.871550 0.096632
O O5 0.487490 0.831041 0.633349
O O6 0.289347 0.765032 0.638294
O O7 0.465836 0.676458 0.690816
O O8 0.825979 0.588547 0.095669
O O9 0.000000 0.500000 0.117551
O O10 0.000000 0.597100 0.000000
O O11 0.269385 0.795844 0.492765
O O12 0.171313 0.668278 0.546768
O O13 0.105862 0.834392 0.577252
O O14 0.889758 0.141591 0.407140
O O15 0.500000 0.500000 0.311925
O O16 0.465189 0.594639 0.195532
O O17 0.500000 0.907963 0.000000
O O18 0.319349 0.000000 0.000000
O O19 0.000000 0.000000 0.580913
#
# Coordination Sequence:
#
# PCOD9331910 Si02
#       8
#     8   8   8   8   8   8   8   8
#     4  11  23  44  70  96 139 174 229 288 347 399
#     4  12  24  44  70 100 132 185 225 287 348 414
#     4  11  25  42  65  98 137 174 224 274 345 422
#     4  11  23  40  67  96 133 177 225 275 353 408
#     4  11  22  41  65  91 132 179 218 281 332 416
#     4  11  25  42  67 103 139 175 228 285 344 412
#     4  10  24  46  70  99 133 178 233 288 339 410
#     4  11  24  40  65 102 133 173 224 279 344 415
#
# _framework density 19.485116999999999
#
# number of rings (size 3 to 8) (size 9 to 14) (size 15 to 20)
#    0.000    1.000    5.000    1.875    3.500    1.000 
#    2.250    0.000    0.000    0.000    0.000    0.000 
#    0.000    0.000    0.000    0.000    0.000    0.000 
#
# Total GULP energy -178532.133964 kJ/mol
# GULP energy per Si atom -5579.129186 kJ/mol
# Density = 1.944077 g / cm^3
# Si number density = 19.485117 Si / 1000 Ang^3
#
#
#
# Elastic Constant Matrix: (Units=GPa)
#
#
# Indices 1 2 3 4 5 6 
#
# 1 76.6420 16.9976 15.8189 0.0000 0.0000 0.0000
# 2 16.9976 116.7197 15.2573 0.0000 0.0000 0.0000
# 3 15.8189 15.2573 85.2338 0.0000 0.0000 0.0000
# 4 0.0000 0.0000 0.0000 22.4370 0.0000 0.0000
# 5 0.0000 0.0000 0.0000 0.0000 11.1059 0.0000
# 6 0.0000 0.0000 0.0000 0.0000 0.0000 35.0782
#
#
#
# Elastic Compliance Matrix: (Units=1/GPa)
#
#
# Indices 1 2 3 4 5 6 
#
# 1 0.013899 -0.001727 -0.002270 0.000000 0.000000 0.000000
# 2 -0.001727 0.008987 -0.001288 0.000000 0.000000 0.000000
# 3 -0.002270 -0.001288 0.012384 0.000000 0.000000 0.000000
# 4 0.000000 0.000000 0.000000 0.044569 0.000000 0.000000
# 5 0.000000 0.000000 0.000000 0.000000 0.090042 0.000000
# 6 0.000000 0.000000 0.000000 0.000000 0.000000 0.028508
#
#
# Mechanical properties :
#
#
# Convention : Reuss Voigt Hill
#
# Bulk Modulus (GPa) = 40.48704 41.63811 41.06257
# Shear Modulus (GPa) = 23.02072 29.09232 26.05652
#
# Velocity S-wave (km/s) = 3.44095 3.86820 3.66081
# Velocity P-wave (km/s) = 6.05066 6.43165 6.24406
#
# Compressibility (1/GPa) = 0.02469926
#
# Stress axis : x y z
#
# Youngs Moduli (GPa) = 71.94566 111.26593 80.74661
#
# Poissons Ratio (x) = 0.19219 0.18333
# Poissons Ratio (y) = 0.12427 0.10402
# Poissons Ratio (z) = 0.16335 0.14333
#
# Static dielectric constant tensor:
#      x y z
#    x 1.720670 0.000000 0.000000 
#    y 0.000000 1.718580 0.000000 
#    z 0.000000 0.000000 1.679000 
# 
# From -- ./inp_files/24447.got.cif
#   From: 2010.05.17/outbox.cif.g08.bks.cpg/sg23_13_cif.got.tgz:24447.got - 2010.06.04 12:02:01.
