data_PCOD9331314
_publ_section_title
;
Structure prediction by ZEFSAII (Michael W. Deem and Ramdas Pophale) SiO2 
 PCOD9331314
Probable space group: I 2 2 2
;
_chemical_formula_sum "Si O2"
_cell_formula_units_Z 56
_cell_length_a 12.882751
_cell_length_b 14.212828
_cell_length_c 17.270646
_cell_angle_alpha 90.000000
_cell_angle_beta 90.000000
_cell_angle_gamma 90.000000
_cell_volume 3162.260881
_symmetry_space_group_name_H-M "I 2 2 2"
_symmetry_group_IT_number 23
_symmetry_cell_setting 'orthorhombic'
loop_
_space_group_symop_operation_xyz
x,y,z
-x,-y,z
x,-y,-z
-x,y,-z
1/2+x,1/2+y,1/2+z
1/2-x,1/2-y,1/2+z
1/2+x,1/2-y,1/2-z
1/2-x,1/2+y,1/2-z
loop_
_atom_site_type_symbol
_atom_site_label
_atom_site_fract_x
_atom_site_fract_y
_atom_site_fract_z
Si Si1 0.376774 0.103863 0.500000
Si Si2 0.163990 0.268234 0.853470
Si Si3 0.618157 0.811194 0.819568
Si Si4 0.624320 0.000000 0.912358
Si Si5 0.336010 0.768234 0.353470
Si Si6 0.618157 0.811193 0.180432
Si Si7 0.500000 0.386780 0.405983
O O1 0.500000 0.095114 0.500000
O O2 0.350643 0.162607 0.424418
O O3 0.350643 0.162607 0.575582
O O4 0.329331 0.000000 0.500000
O O5 0.287009 0.254815 0.843206
O O6 0.121764 0.312235 0.773578
O O7 0.099346 0.171909 0.872510
O O8 0.621765 0.812236 0.726422
O O9 0.500000 0.785628 0.842811
O O10 0.647028 0.908485 0.861780
O O11 0.647027 0.091515 0.861780
O O12 0.500000 0.000000 0.921003
O O13 0.669604 0.000000 0.000000
O O14 0.212991 0.754814 0.343206
O O15 0.400655 0.671909 0.372510
O O16 0.500000 0.500000 0.388279
O O17 0.500000 0.377878 0.500000
#
# Coordination Sequence:
#
# PCOD9331314 Si02
#       7
#     8   8   8   8   8   8   8
#     4  11  22  38  63  89 120 153 196 251 291 355
#     4  11  21  40  61  89 120 156 201 241 301 360
#     4  10  22  38  60  85 120 157 197 249 294 351
#     4   9  20  36  56  88 116 154 199 238 297 349
#     4  11  21  40  61  89 120 156 201 241 301 360
#     4  10  22  38  60  85 120 157 197 249 294 351
#     4  11  22  38  62  92 124 157 197 247 303 360
#
# _framework density 17.708849000000001
#
# number of rings (size 3 to 8) (size 9 to 14) (size 15 to 20)
#    0.000    1.571    4.286    0.000    6.000    0.000 
#    0.000    0.000    0.000    0.857    0.000    0.000 
#    0.000    0.000    0.000    0.000    0.000    0.000 
#
# Total GULP energy -155989.103476 kJ/mol
# GULP energy per Si atom -5571.039410 kJ/mol
# Density = 1.766854 g / cm^3
# Si number density = 17.708849 Si / 1000 Ang^3
#
#
#
# Elastic Constant Matrix: (Units=GPa)
#
#
# Indices 1 2 3 4 5 6 
#
# 1 113.1390 27.6169 33.7090 0.0000 0.0000 0.0000
# 2 27.6169 101.9570 78.7416 0.0000 0.0000 0.0000
# 3 33.7090 78.7416 146.5111 0.0000 0.0000 0.0000
# 4 0.0000 0.0000 0.0000 26.3404 0.0000 0.0000
# 5 0.0000 0.0000 0.0000 0.0000 -9.3843 0.0000
# 6 0.0000 0.0000 0.0000 0.0000 0.0000 14.3830
#
#
#
# Elastic Compliance Matrix: (Units=1/GPa)
#
#
# Indices 1 2 3 4 5 6 
#
# 1 0.009627 -0.001534 -0.001391 0.000000 0.000000 0.000000
# 2 -0.001534 0.017012 -0.008790 0.000000 0.000000 0.000000
# 3 -0.001391 -0.008790 0.011870 0.000000 0.000000 0.000000
# 4 0.000000 0.000000 0.000000 0.037964 0.000000 0.000000
# 5 0.000000 0.000000 0.000000 0.000000 -0.106561 0.000000
# 6 0.000000 0.000000 0.000000 0.000000 0.000000 0.069527
#
#
# Mechanical properties :
#
#
# Convention : Reuss Voigt Hill
#
# Bulk Modulus (GPa) = 66.31340 71.30466 68.80903
# Shear Modulus (GPa) = 73.64222 21.03713 47.33967
#
# Velocity S-wave (km/s) = 6.45564 3.45040 5.17593
# Velocity P-wave (km/s) = 9.64856 7.49840 8.64063
#
# Compressibility (1/GPa) = 0.01507991
#
# Stress axis : x y z
#
# Youngs Moduli (GPa) = 103.86994 58.78136 84.24818
#
# Poissons Ratio (x) = 0.09015 0.11717
# Poissons Ratio (y) = 0.15930 0.74056
# Poissons Ratio (z) = 0.14446 0.51670
#
# Static dielectric constant tensor:
#      x y z
#    x 1.623920 0.000000 0.000000 
#    y 0.000000 1.611690 0.000000 
#    z 0.000000 0.000000 1.610640 
# 
# From -- ./inp_files/20900.got.cif
#   From: 2010.05.17/outbox.cif.g08.bks.cpg/sg23_11_cif.got.tgz:20900.got - 2010.06.04 12:02:01.
