data_PCOD9331868
_publ_section_title
;
Structure prediction by ZEFSAII (Michael W. Deem and Ramdas Pophale) SiO2 
 PCOD9331868
Probable space group: I 2 2 2
;
_chemical_formula_sum "Si O2"
_cell_formula_units_Z 28
_cell_length_a 13.908779
_cell_length_b 17.140769
_cell_length_c 5.590444
_cell_angle_alpha 90.000000
_cell_angle_beta 90.000000
_cell_angle_gamma 90.000000
_cell_volume 1332.801921
_symmetry_space_group_name_H-M "I 2 2 2"
_symmetry_group_IT_number 23
_symmetry_cell_setting 'orthorhombic'
loop_
_space_group_symop_operation_xyz
x,y,z
-x,-y,z
x,-y,-z
-x,y,-z
1/2+x,1/2+y,1/2+z
1/2-x,1/2-y,1/2+z
1/2+x,1/2-y,1/2-z
1/2-x,1/2+y,1/2-z
loop_
_atom_site_type_symbol
_atom_site_label
_atom_site_fract_x
_atom_site_fract_y
_atom_site_fract_z
Si Si1 0.764530 0.579604 0.626896
Si Si2 0.942916 0.684067 0.743480
Si Si3 0.875039 0.000000 0.500000
Si Si4 0.909133 0.859912 0.824718
O O1 0.800820 0.500000 0.500000
O O2 0.849221 0.629971 0.738675
O O3 0.692345 0.550868 0.829398
O O4 0.694971 0.627294 0.447225
O O5 0.912153 0.774502 0.709832
O O6 0.000000 0.662768 0.500000
O O7 0.000000 0.677032 0.000000
O O8 0.925184 0.935678 0.663065
O O9 0.000000 0.859915 0.000000
#
# Coordination Sequence:
#
# PCOD9331868 Si02
#       4
#     8   8   4   8
#     4  10  25  46  71 104 138 187 237 295 357 419
#     4  11  28  48  73 107 143 190 242 290 352 424
#     4  10  24  43  71 100 144 180 241 288 365 416
#     4  10  25  43  69 108 141 186 234 293 361 427
#
# _framework density 21.008371
#
# number of rings (size 3 to 8) (size 9 to 14) (size 15 to 20)
#    0.000    1.714    0.000    0.000   20.000    6.857 
#    0.000    0.000    0.000    0.000    0.000    0.000 
#    0.000    0.000    0.000    0.000    0.000    0.000 
#
# Total GULP energy -78194.262540 kJ/mol
# GULP energy per Si atom -5585.304467 kJ/mol
# Density = 2.096056 g / cm^3
# Si number density = 21.008371 Si / 1000 Ang^3
#
#
#
# Elastic Constant Matrix: (Units=GPa)
#
#
# Indices 1 2 3 4 5 6 
#
# 1 90.8202 55.5301 21.9187 0.0000 0.0000 0.0000
# 2 55.5301 101.7100 9.6612 0.0000 0.0000 0.0000
# 3 21.9187 9.6612 62.6660 0.0000 0.0000 0.0000
# 4 0.0000 0.0000 0.0000 -34.9051 0.0000 0.0000
# 5 0.0000 0.0000 0.0000 0.0000 20.2876 0.0000
# 6 0.0000 0.0000 0.0000 0.0000 0.0000 27.3387
#
#
#
# Elastic Compliance Matrix: (Units=1/GPa)
#
#
# Indices 1 2 3 4 5 6 
#
# 1 0.017852 -0.009289 -0.004812 0.000000 0.000000 0.000000
# 2 -0.009289 0.014812 0.000966 0.000000 0.000000 0.000000
# 3 -0.004812 0.000966 0.017492 0.000000 0.000000 0.000000
# 4 0.000000 0.000000 0.000000 -0.028649 0.000000 0.000000
# 5 0.000000 0.000000 0.000000 0.000000 0.049291 0.000000
# 6 0.000000 0.000000 0.000000 0.000000 0.000000 0.036578
#
#
# Mechanical properties :
#
#
# Convention : Reuss Voigt Hill
#
# Bulk Modulus (GPa) = 41.86884 47.71292 44.79088
# Shear Modulus (GPa) = 35.30859 13.74999 24.52929
#
# Velocity S-wave (km/s) = 4.10407 2.56110 3.42072
# Velocity P-wave (km/s) = 6.51389 5.61305 6.08017
#
# Compressibility (1/GPa) = 0.02388411
#
# Stress axis : x y z
#
# Youngs Moduli (GPa) = 56.01645 67.51351 57.16965
#
# Poissons Ratio (x) = 0.62716 0.27510
# Poissons Ratio (y) = 0.52036 -0.05520
# Poissons Ratio (z) = 0.26955 -0.06519
#
# Static dielectric constant tensor:
#      x y z
#    x 1.768840 0.000000 0.000000 
#    y 0.000000 1.791140 0.000000 
#    z 0.000000 0.000000 1.809430 
# 
# From -- ./inp_files/2070.got.cif
#   From: 2010.05.17/outbox.cif.g08.bks.cpg/sg23_2_cif.got.tgz:2070.got - 2010.06.04 12:02:01.
