data_PCOD9331923
_publ_section_title
;
Structure prediction by ZEFSAII (Michael W. Deem and Ramdas Pophale) SiO2 
 PCOD9331923
Probable space group: I 2 2 2
;
_chemical_formula_sum "Si O2"
_cell_formula_units_Z 58
_cell_length_a 26.285611
_cell_length_b 17.153762
_cell_length_c 5.480126
_cell_angle_alpha 90.000000
_cell_angle_beta 90.000000
_cell_angle_gamma 90.000000
_cell_volume 2470.973004
_symmetry_space_group_name_H-M "I 2 2 2"
_symmetry_group_IT_number 23
_symmetry_cell_setting 'orthorhombic'
loop_
_space_group_symop_operation_xyz
x,y,z
-x,-y,z
x,-y,-z
-x,y,-z
1/2+x,1/2+y,1/2+z
1/2-x,1/2-y,1/2+z
1/2+x,1/2-y,1/2-z
1/2-x,1/2+y,1/2-z
loop_
_atom_site_type_symbol
_atom_site_label
_atom_site_fract_x
_atom_site_fract_y
_atom_site_fract_z
Si Si1 0.840594 0.089893 0.502877
Si Si2 0.943255 0.706968 0.601617
Si Si3 0.000000 0.000000 0.000000
Si Si4 0.049062 0.126404 0.673879
Si Si5 0.200926 0.585876 0.460624
Si Si6 0.899411 0.577094 0.853449
Si Si7 0.361957 0.191253 0.703669
Si Si8 0.696858 0.334108 0.495772
O O1 0.900348 0.099455 0.461120
O O2 0.829529 0.119108 0.775467
O O3 0.824203 0.000000 0.500000
O O4 0.814517 0.135369 0.270902
O O5 0.942798 0.785337 0.772482
O O6 0.934422 0.613885 0.645819
O O7 0.895127 0.726861 0.422863
O O8 0.000000 0.709845 0.500000
O O9 0.036738 0.059340 0.862488
O O10 0.000000 0.127540 0.500000
O O11 0.224097 0.500000 0.500000
O O12 0.157950 0.574379 0.253585
O O13 0.169823 0.618599 0.690326
O O14 0.243979 0.651105 0.431273
O O15 0.912623 0.500000 0.000000
O O16 0.902212 0.651765 0.027627
O O17 0.324961 0.248046 0.554633
#
# Coordination Sequence:
#
# PCOD9331923 Si02
#       8
#     8   8   2   8   8   8   8   8
#     4  12  26  46  68 105 153 196 248 319 375 449
#     4  10  24  47  75 108 151 195 253 321 390 468
#     4  12  26  40  76 102 142 200 258 308 382 460
#     4  11  25  45  69 103 145 198 259 307 385 458
#     4  11  25  46  73 106 146 198 249 318 385 467
#     4  11  24  46  77 105 145 198 255 321 398 463
#     4  11  25  46  73 107 147 197 249 320 383 463
#     4  12  29  45  74 110 151 199 256 311 384 463
#
# _framework density 23.472534
#
# number of rings (size 3 to 8) (size 9 to 14) (size 15 to 20)
#    0.000    0.828    2.759    3.103    9.655    3.310 
#    0.000    2.069    0.000    0.000    0.000    0.000 
#    0.000    0.000    0.000    0.000    0.000    0.000 
#
# Total GULP energy -161760.882097 kJ/mol
# GULP energy per Si atom -5577.961452 kJ/mol
# Density = 2.341911 g / cm^3
# Si number density = 23.472534 Si / 1000 Ang^3
#
#
#
# Elastic Constant Matrix: (Units=GPa)
#
#
# Indices 1 2 3 4 5 6 
#
# 1 65.3652 5.7295 -3.1729 0.0000 0.0000 0.0000
# 2 5.7295 150.3611 26.2529 0.0000 0.0000 0.0000
# 3 -3.1729 26.2529 36.2660 0.0000 0.0000 0.0000
# 4 0.0000 0.0000 0.0000 41.3032 0.0000 0.0000
# 5 0.0000 0.0000 0.0000 0.0000 3.3948 0.0000
# 6 0.0000 0.0000 0.0000 0.0000 0.0000 24.1524
#
#
#
# Elastic Compliance Matrix: (Units=1/GPa)
#
#
# Indices 1 2 3 4 5 6 
#
# 1 0.015481 -0.000946 0.002039 0.000000 0.000000 0.000000
# 2 -0.000946 0.007671 -0.005636 0.000000 0.000000 0.000000
# 3 0.002039 -0.005636 0.031832 0.000000 0.000000 0.000000
# 4 0.000000 0.000000 0.000000 0.024211 0.000000 0.000000
# 5 0.000000 0.000000 0.000000 0.000000 0.294565 0.000000
# 6 0.000000 0.000000 0.000000 0.000000 0.000000 0.041404
#
#
# Mechanical properties :
#
#
# Convention : Reuss Voigt Hill
#
# Bulk Modulus (GPa) = 21.78720 34.40126 28.09423
# Shear Modulus (GPa) = 11.37535 28.64895 20.01215
#
# Velocity S-wave (km/s) = 2.20381 3.49740 2.92306
# Velocity P-wave (km/s) = 3.97213 5.56748 4.83605
#
# Compressibility (1/GPa) = 0.04589851
#
# Stress axis : x y z
#
# Youngs Moduli (GPa) = 64.59714 130.36696 31.41498
#
# Poissons Ratio (x) = 0.12332 -0.06406
# Poissons Ratio (y) = 0.06110 0.17704
# Poissons Ratio (z) = -0.13172 0.73469
#
# Static dielectric constant tensor:
#      x y z
#    x 1.139280 0.000000 0.000000 
#    y 0.000000 1.916180 0.000000 
#    z 0.000000 0.000000 6.659590 
# 
# From -- ./inp_files/5025.got.cif
#   From: 2010.05.17/outbox.cif.g08.bks.cpg/sg23_3_cif.got.tgz:5025.got - 2010.06.04 12:02:01.
