data_PCOD9331371
_publ_section_title
;
Structure prediction by ZEFSAII (Michael W. Deem and Ramdas Pophale) SiO2 
 PCOD9331371
Probable space group: I 2 2 2
;
_chemical_formula_sum "Si O2"
_cell_formula_units_Z 48
_cell_length_a 15.352487
_cell_length_b 7.126182
_cell_length_c 17.114379
_cell_angle_alpha 90.000000
_cell_angle_beta 90.000000
_cell_angle_gamma 90.000000
_cell_volume 1872.392071
_symmetry_space_group_name_H-M "I 2 2 2"
_symmetry_group_IT_number 23
_symmetry_cell_setting 'orthorhombic'
loop_
_space_group_symop_operation_xyz
x,y,z
-x,-y,z
x,-y,-z
-x,y,-z
1/2+x,1/2+y,1/2+z
1/2-x,1/2-y,1/2+z
1/2+x,1/2-y,1/2-z
1/2-x,1/2+y,1/2-z
loop_
_atom_site_type_symbol
_atom_site_label
_atom_site_fract_x
_atom_site_fract_y
_atom_site_fract_z
Si Si1 0.284122 0.317630 0.112817
Si Si2 0.902006 0.193561 0.729880
Si Si3 0.357637 0.726673 0.502985
Si Si4 0.253109 0.511139 0.737804
Si Si5 0.016556 0.275955 0.589958
Si Si6 0.495080 0.275166 0.378735
O O1 0.232709 0.300782 0.031729
O O2 0.248990 0.488550 0.166620
O O3 0.265578 0.142293 0.171506
O O4 0.386028 0.295089 0.102493
O O5 0.818746 0.330687 0.719470
O O6 0.859828 0.999635 0.764072
O O7 0.950480 0.178504 0.648997
O O8 0.970269 0.274550 0.793055
O O9 0.349957 0.500000 0.500000
O O10 0.429886 0.788226 0.439197
O O11 0.401237 0.778277 0.585903
O O12 0.000000 0.500000 0.603385
O O13 0.000000 0.239388 0.500000
O O14 0.500000 0.500000 0.384754
#
# Coordination Sequence:
#
# PCOD9331371 Si02
#       6
#     8   8   8   8   8   8
#     4  11  22  41  67 101 139 178 232 286 343 424
#     4  11  22  43  69 102 139 179 230 291 350 420
#     4   9  18  32  60 100 135 166 220 283 334 404
#     4  10  22  39  67 103 133 180 229 279 349 411
#     4  11  26  44  66  98 136 184 238 289 345 417
#     4   9  18  34  60 103 135 166 221 280 341 400
#
# _framework density 25.635656999999998
#
# number of rings (size 3 to 8) (size 9 to 14) (size 15 to 20)
#    0.000    1.833    5.000    1.000    4.667    0.000 
#    0.000    1.667    0.000    0.000    0.000   21.000 
#    0.000    0.000    0.000    0.000    0.000    0.000 
#
# Total GULP energy -133817.466228 kJ/mol
# GULP energy per Si atom -5575.727760 kJ/mol
# Density = 2.557731 g / cm^3
# Si number density = 25.635657 Si / 1000 Ang^3
#
#
#
# Elastic Constant Matrix: (Units=GPa)
#
#
# Indices 1 2 3 4 5 6 
#
# 1 207.0879 56.7630 91.2233 0.0000 0.0000 0.0000
# 2 56.7630 102.6984 52.6768 0.0000 0.0000 0.0000
# 3 91.2233 52.6768 149.5059 0.0000 0.0000 0.0000
# 4 0.0000 0.0000 0.0000 29.2469 0.0000 0.0000
# 5 0.0000 0.0000 0.0000 0.0000 68.3896 0.0000
# 6 0.0000 0.0000 0.0000 0.0000 0.0000 10.9650
#
#
#
# Elastic Compliance Matrix: (Units=1/GPa)
#
#
# Indices 1 2 3 4 5 6 
#
# 1 0.006934 -0.002029 -0.003516 0.000000 0.000000 0.000000
# 2 -0.002029 0.012479 -0.003159 0.000000 0.000000 0.000000
# 3 -0.003516 -0.003159 0.009947 0.000000 0.000000 0.000000
# 4 0.000000 0.000000 0.000000 0.034192 0.000000 0.000000
# 5 0.000000 0.000000 0.000000 0.000000 0.014622 0.000000
# 6 0.000000 0.000000 0.000000 0.000000 0.000000 0.091199
#
#
# Mechanical properties :
#
#
# Convention : Reuss Voigt Hill
#
# Bulk Modulus (GPa) = 83.66570 95.62425 89.64497
# Shear Modulus (GPa) = 26.21036 38.96223 32.58629
#
# Velocity S-wave (km/s) = 3.20100 3.90275 3.56916
# Velocity P-wave (km/s) = 6.80949 7.59545 7.21318
#
# Compressibility (1/GPa) = 0.01195233
#
# Stress axis : x y z
#
# Youngs Moduli (GPa) = 144.22162 80.13489 100.53382
#
# Poissons Ratio (x) = 0.16260 0.35346
# Poissons Ratio (y) = 0.29263 0.31756
# Poissons Ratio (z) = 0.50706 0.25313
#
# Static dielectric constant tensor:
#      x y z
#    x 2.008630 0.000000 0.000000 
#    y 0.000000 2.311060 0.000000 
#    z 0.000000 0.000000 2.021270 
# 
# From -- ./inp_files/24747.got.cif
#   From: 2010.05.17/outbox.cif.g08.bks.cpg/sg23_13_cif.got.tgz:24747.got - 2010.06.04 12:02:01.
