data_PCOD9331177
_publ_section_title
;
Structure prediction by ZEFSAII (Michael W. Deem and Ramdas Pophale) SiO2 
 PCOD9331177
Probable space group: I 2 2 2
;
_chemical_formula_sum "Si O2"
_cell_formula_units_Z 44
_cell_length_a 7.566041
_cell_length_b 17.952020
_cell_length_c 13.939503
_cell_angle_alpha 90.000000
_cell_angle_beta 90.000000
_cell_angle_gamma 90.000000
_cell_volume 1893.343022
_symmetry_space_group_name_H-M "I 2 2 2"
_symmetry_group_IT_number 23
_symmetry_cell_setting 'orthorhombic'
loop_
_space_group_symop_operation_xyz
x,y,z
-x,-y,z
x,-y,-z
-x,y,-z
1/2+x,1/2+y,1/2+z
1/2-x,1/2-y,1/2+z
1/2+x,1/2-y,1/2-z
1/2-x,1/2+y,1/2-z
loop_
_atom_site_type_symbol
_atom_site_label
_atom_site_fract_x
_atom_site_fract_y
_atom_site_fract_z
Si Si1 0.729936 0.772094 0.371502
Si Si2 0.367306 0.602040 0.585394
Si Si3 0.026244 0.682795 0.315137
Si Si4 0.500000 0.123097 0.500000
Si Si5 0.357077 0.056169 0.692714
Si Si6 0.500000 0.500000 0.250617
Si Si7 0.000000 0.404053 0.500000
O O1 0.660482 0.690229 0.401140
O O2 0.936953 0.757515 0.356886
O O3 0.663099 0.798077 0.267245
O O4 0.652642 0.827392 0.450125
O O5 0.500000 0.587931 0.500000
O O6 0.465734 0.568545 0.677605
O O7 0.174750 0.566091 0.556768
O O8 0.881334 0.631141 0.257202
O O9 0.088495 0.640806 0.410968
O O10 0.413773 0.077617 0.586164
O O11 0.500000 0.000000 0.736419
O O12 0.177357 0.008838 0.690304
#
# Coordination Sequence:
#
# PCOD9331177 Si02
#       7
#     8   8   8   4   8   4   4
#     4  10  21  41  71  99 137 184 241 298 369 437
#     4  11  24  41  68 105 144 190 242 302 370 442
#     4  10  23  41  68 104 139 187 235 302 374 438
#     4  10  23  46  76  99 144 194 234 312 378 433
#     4  11  25  47  73 103 148 196 244 297 375 439
#     4  12  25  46  71 114 142 192 258 301 365 458
#     4  10  22  42  59 102 144 181 236 290 378 434
#
# _framework density 23.239318999999998
#
# number of rings (size 3 to 8) (size 9 to 14) (size 15 to 20)
#    0.000    1.455    4.545    0.545    5.091    2.909 
#    0.000    3.182    4.000    0.000    0.000    0.000 
#    0.000    0.000    0.000    0.000    0.000    0.000 
#
# Total GULP energy -122694.144770 kJ/mol
# GULP energy per Si atom -5577.006580 kJ/mol
# Density = 2.318642 g / cm^3
# Si number density = 23.239319 Si / 1000 Ang^3
#
#
#
# Elastic Constant Matrix: (Units=GPa)
#
#
# Indices 1 2 3 4 5 6 
#
# 1 89.8869 24.6112 18.0517 0.0000 0.0000 0.0000
# 2 24.6112 63.6010 27.0016 0.0000 0.0000 0.0000
# 3 18.0517 27.0016 128.8881 0.0000 0.0000 0.0000
# 4 0.0000 0.0000 0.0000 24.1069 0.0000 0.0000
# 5 0.0000 0.0000 0.0000 0.0000 23.8134 0.0000
# 6 0.0000 0.0000 0.0000 0.0000 0.0000 20.5235
#
#
#
# Elastic Compliance Matrix: (Units=1/GPa)
#
#
# Indices 1 2 3 4 5 6 
#
# 1 0.012520 -0.004501 -0.000811 0.000000 0.000000 0.000000
# 2 -0.004501 0.018876 -0.003324 0.000000 0.000000 0.000000
# 3 -0.000811 -0.003324 0.008569 0.000000 0.000000 0.000000
# 4 0.000000 0.000000 0.000000 0.041482 0.000000 0.000000
# 5 0.000000 0.000000 0.000000 0.000000 0.041993 0.000000
# 6 0.000000 0.000000 0.000000 0.000000 0.000000 0.048725
#
#
# Mechanical properties :
#
#
# Convention : Reuss Voigt Hill
#
# Bulk Modulus (GPa) = 44.06491 46.85611 45.46051
# Shear Modulus (GPa) = 25.38074 27.86952 26.62513
#
# Velocity S-wave (km/s) = 3.30835 3.46676 3.38848
# Velocity P-wave (km/s) = 5.79621 6.01920 5.90876
#
# Compressibility (1/GPa) = 0.02269379
#
# Stress axis : x y z
#
# Youngs Moduli (GPa) = 79.87095 52.97776 116.70538
#
# Poissons Ratio (x) = 0.23844 0.09461
# Poissons Ratio (y) = 0.35947 0.38794
# Poissons Ratio (z) = 0.06475 0.17610
#
# Static dielectric constant tensor:
#      x y z
#    x 1.972670 0.000000 0.000000 
#    y 0.000000 1.877260 0.000000 
#    z 0.000000 0.000000 1.910910 
# 
# From -- ./inp_files/19961.got.cif
#   From: 2010.05.17/outbox.cif.g08.bks.cpg/sg23_10_cif.got.tgz:19961.got - 2010.06.04 12:02:01.
