data_PCOD9331807
_publ_section_title
;
Structure prediction by ZEFSAII (Michael W. Deem and Ramdas Pophale) SiO2 
 PCOD9331807
Probable space group: I 2 2 2
;
_chemical_formula_sum "Si O2"
_cell_formula_units_Z 38
_cell_length_a 28.192375
_cell_length_b 6.405065
_cell_length_c 11.474445
_cell_angle_alpha 90.000000
_cell_angle_beta 90.000000
_cell_angle_gamma 90.000000
_cell_volume 2071.986367
_symmetry_space_group_name_H-M "I 2 2 2"
_symmetry_group_IT_number 23
_symmetry_cell_setting 'orthorhombic'
loop_
_space_group_symop_operation_xyz
x,y,z
-x,-y,z
x,-y,-z
-x,y,-z
1/2+x,1/2+y,1/2+z
1/2-x,1/2-y,1/2+z
1/2+x,1/2-y,1/2-z
1/2-x,1/2+y,1/2-z
loop_
_atom_site_type_symbol
_atom_site_label
_atom_site_fract_x
_atom_site_fract_y
_atom_site_fract_z
Si Si1 0.207571 0.491065 0.363176
Si Si2 0.339577 0.000000 0.500000
Si Si3 0.000000 0.000000 0.500000
Si Si4 0.547983 0.122602 0.882065
Si Si5 0.133532 0.250981 0.782183
Si Si6 0.811301 0.849412 0.181388
O O1 0.197481 0.500000 0.500000
O O2 0.178503 0.668250 0.293719
O O3 0.192557 0.275364 0.302442
O O4 0.263418 0.522714 0.341985
O O5 0.367680 0.131887 0.405147
O O6 0.312980 0.174107 0.579009
O O7 0.968431 0.849558 0.577282
O O8 0.588581 0.165592 0.789475
O O9 0.500000 0.000000 0.842756
O O10 0.564193 0.000000 0.000000
O O11 0.144392 0.007963 0.809375
#
# Coordination Sequence:
#
# PCOD9331807 Si02
#       6
#     8   4   2   8   8   8
#     4  11  23  36  57  86 120 158 208 250 299 360
#     4  10  24  40  60  80 124 164 211 251 308 358
#     4   8  18  36  62  90 126 152 188 264 320 356
#     4   9  20  39  63  93 125 157 200 255 311 367
#     4  11  22  39  61  87 120 165 203 252 306 367
#     4  11  23  39  57  87 120 166 205 256 303 356
#
# _framework density 18.339888999999999
#
# number of rings (size 3 to 8) (size 9 to 14) (size 15 to 20)
#    0.000    1.895    2.105    2.526    2.947    9.263 
#    0.000    0.526    0.000    0.000    0.000    0.000 
#    0.000    0.000    0.000    0.000    0.000    0.000 
#
# Total GULP energy -105914.651415 kJ/mol
# GULP energy per Si atom -5574.455338 kJ/mol
# Density = 1.829815 g / cm^3
# Si number density = 18.339889 Si / 1000 Ang^3
#
#
#
# Elastic Constant Matrix: (Units=GPa)
#
#
# Indices 1 2 3 4 5 6 
#
# 1 86.1519 40.3282 48.5305 0.0000 0.0000 0.0000
# 2 40.3282 125.0865 57.0565 0.0000 0.0000 0.0000
# 3 48.5305 57.0565 151.2245 0.0000 0.0000 0.0000
# 4 0.0000 0.0000 0.0000 10.2108 0.0000 0.0000
# 5 0.0000 0.0000 0.0000 0.0000 21.5549 0.0000
# 6 0.0000 0.0000 0.0000 0.0000 0.0000 -9.7861
#
#
#
# Elastic Compliance Matrix: (Units=1/GPa)
#
#
# Indices 1 2 3 4 5 6 
#
# 1 0.015175 -0.003226 -0.003653 0.000000 0.000000 0.000000
# 2 -0.003226 0.010342 -0.002867 0.000000 0.000000 0.000000
# 3 -0.003653 -0.002867 0.008866 0.000000 0.000000 0.000000
# 4 0.000000 0.000000 0.000000 0.097936 0.000000 0.000000
# 5 0.000000 0.000000 0.000000 0.000000 0.046393 0.000000
# 6 0.000000 0.000000 0.000000 0.000000 0.000000 -0.102186
#
#
# Mechanical properties :
#
#
# Convention : Reuss Voigt Hill
#
# Bulk Modulus (GPa) = 67.14807 72.69923 69.92365
# Shear Modulus (GPa) = 49.51317 18.83242 34.17279
#
# Velocity S-wave (km/s) = 5.20155 3.20794 4.32128
# Velocity P-wave (km/s) = 8.53038 7.31076 7.94401
#
# Compressibility (1/GPa) = 0.01489246
#
# Stress axis : x y z
#
# Youngs Moduli (GPa) = 65.89639 96.69047 112.78421
#
# Poissons Ratio (x) = 0.31197 0.41197
# Poissons Ratio (y) = 0.21261 0.32332
# Poissons Ratio (z) = 0.24070 0.27718
#
# Static dielectric constant tensor:
#      x y z
#    x 1.667430 0.000000 0.000000 
#    y 0.000000 1.680020 0.000000 
#    z 0.000000 0.000000 1.662980 
# 
# From -- ./inp_files/1727.got.cif
#   From: 2010.05.17/outbox.cif.g08.bks.cpg/sg23_1_cif.got.tgz:1727.got - 2010.06.04 12:02:01.
