data_PCOD9331465
_publ_section_title
;
Structure prediction by ZEFSAII (Michael W. Deem and Ramdas Pophale) SiO2 
 PCOD9331465
Probable space group: I 2 2 2
;
_chemical_formula_sum "Si O2"
_cell_formula_units_Z 58
_cell_length_a 26.466777
_cell_length_b 8.284514
_cell_length_c 12.024483
_cell_angle_alpha 90.000000
_cell_angle_beta 90.000000
_cell_angle_gamma 90.000000
_cell_volume 2636.540865
_symmetry_space_group_name_H-M "I 2 2 2"
_symmetry_group_IT_number 23
_symmetry_cell_setting 'orthorhombic'
loop_
_space_group_symop_operation_xyz
x,y,z
-x,-y,z
x,-y,-z
-x,y,-z
1/2+x,1/2+y,1/2+z
1/2-x,1/2-y,1/2+z
1/2+x,1/2-y,1/2-z
1/2-x,1/2+y,1/2-z
loop_
_atom_site_type_symbol
_atom_site_label
_atom_site_fract_x
_atom_site_fract_y
_atom_site_fract_z
Si Si1 0.912544 0.148470 0.858240
Si Si2 0.186471 0.276857 0.052654
Si Si3 0.970391 0.669814 0.295914
Si Si4 0.204706 0.344832 0.574623
Si Si5 0.339232 0.889484 0.676116
Si Si6 0.427618 0.681932 0.760131
Si Si7 0.000000 0.000000 0.000000
Si Si8 0.899225 0.303731 0.500705
O O1 0.858056 0.155256 0.914201
O O2 0.926303 0.315053 0.794931
O O3 0.912438 0.997261 0.773720
O O4 0.958980 0.113766 0.940005
O O5 0.243149 0.246492 0.092268
O O6 0.167875 0.438945 0.116076
O O7 0.188239 0.282135 0.918311
O O8 0.941039 0.727337 0.405803
O O9 0.000000 0.500000 0.311292
O O10 0.012972 0.790459 0.251346
O O11 0.217191 0.500000 0.500000
O O12 0.182286 0.385976 0.697579
O O13 0.160250 0.257487 0.501973
O O14 0.394870 0.810026 0.689042
O O15 0.418030 0.725677 0.887675
O O16 0.897533 0.500000 0.500000
#
# Coordination Sequence:
#
# PCOD9331465 Si02
#       8
#     8   8   8   8   8   8   2   8
#     4  12  27  43  70  98 140 189 241 300 370 443
#     4  11  26  45  74 103 139 193 243 303 372 440
#     4  12  23  41  72 104 142 192 239 303 376 441
#     4  10  25  42  74 105 141 185 239 305 376 435
#     4  10  25  48  71 105 145 182 252 302 361 466
#     4  11  22  43  67 101 141 188 237 297 367 444
#     4  12  24  48  54  90 136 176 230 288 346 434
#     4  10  22  41  69 102 140 185 240 298 368 448
#
# _framework density 21.998522000000001
#
# number of rings (size 3 to 8) (size 9 to 14) (size 15 to 20)
#    0.000    1.103    2.759    2.069    8.690    1.655 
#    0.000    4.138    0.000    0.000    0.000    0.000 
#    0.000    0.000    0.000    0.000    0.000    0.000 
#
# Total GULP energy -161619.562846 kJ/mol
# GULP energy per Si atom -5573.088374 kJ/mol
# Density = 2.194845 g / cm^3
# Si number density = 21.998522 Si / 1000 Ang^3
#
#
#
# Elastic Constant Matrix: (Units=GPa)
#
#
# Indices 1 2 3 4 5 6 
#
# 1 142.3680 34.2472 40.3502 0.0000 0.0000 0.0000
# 2 34.2472 68.6822 31.7444 0.0000 0.0000 0.0000
# 3 40.3502 31.7444 102.0434 0.0000 0.0000 0.0000
# 4 0.0000 0.0000 0.0000 -1.8459 0.0000 0.0000
# 5 0.0000 0.0000 0.0000 0.0000 35.7419 0.0000
# 6 0.0000 0.0000 0.0000 0.0000 0.0000 26.8681
#
#
#
# Elastic Compliance Matrix: (Units=1/GPa)
#
#
# Indices 1 2 3 4 5 6 
#
# 1 0.008445 -0.003116 -0.002370 0.000000 0.000000 0.000000
# 2 -0.003116 0.018154 -0.004416 0.000000 0.000000 0.000000
# 3 -0.002370 -0.004416 0.012111 0.000000 0.000000 0.000000
# 4 0.000000 0.000000 0.000000 -0.541727 0.000000 0.000000
# 5 0.000000 0.000000 0.000000 0.000000 0.027978 0.000000
# 6 0.000000 0.000000 0.000000 0.000000 0.000000 0.037219
#
#
# Mechanical properties :
#
#
# Convention : Reuss Voigt Hill
#
# Bulk Modulus (GPa) = 52.88954 58.41967 55.65461
# Shear Modulus (GPa) = -12.14433 25.93628 6.89597
#
# Velocity S-wave (km/s) = -2.35213 3.43738 1.77244
# Velocity P-wave (km/s) = 4.08875 6.50907 5.43534
#
# Compressibility (1/GPa) = 0.01890733
#
# Stress axis : x y z
#
# Youngs Moduli (GPa) = 118.40919 55.08370 82.57215
#
# Poissons Ratio (x) = 0.17162 0.19571
# Poissons Ratio (y) = 0.36892 0.36460
# Poissons Ratio (z) = 0.28066 0.24323
#
# Static dielectric constant tensor:
#      x y z
#    x 1.821260 0.000000 0.000000 
#    y 0.000000 1.860300 0.000000 
#    z 0.000000 0.000000 1.836220 
# 
# From -- ./inp_files/18611.got.cif
#   From: 2010.05.17/outbox.cif.g08.bks.cpg/sg23_10_cif.got.tgz:18611.got - 2010.06.04 12:02:01.
