data_PCOD9331689
_publ_section_title
;
Structure prediction by ZEFSAII (Michael W. Deem and Ramdas Pophale) SiO2 
 PCOD9331689
Probable space group: I 2 2 2
;
_chemical_formula_sum "Si O2"
_cell_formula_units_Z 30
_cell_length_a 12.262176
_cell_length_b 8.172453
_cell_length_c 12.780127
_cell_angle_alpha 90.000000
_cell_angle_beta 90.000000
_cell_angle_gamma 90.000000
_cell_volume 1280.722816
_symmetry_space_group_name_H-M "I 2 2 2"
_symmetry_group_IT_number 23
_symmetry_cell_setting 'orthorhombic'
loop_
_space_group_symop_operation_xyz
x,y,z
-x,-y,z
x,-y,-z
-x,y,-z
1/2+x,1/2+y,1/2+z
1/2-x,1/2-y,1/2+z
1/2+x,1/2-y,1/2-z
1/2-x,1/2+y,1/2-z
loop_
_atom_site_type_symbol
_atom_site_label
_atom_site_fract_x
_atom_site_fract_y
_atom_site_fract_z
Si Si1 0.811834 0.990560 0.125704
Si Si2 0.206499 0.354255 0.893944
Si Si3 0.500000 0.000000 0.500000
Si Si4 0.179159 0.820938 0.386676
Si Si5 0.500000 0.500000 0.774186
O O1 0.745554 0.026372 0.347072
O O2 0.714773 0.862214 0.140771
O O3 0.912019 0.924044 0.194439
O O4 0.836177 0.000000 0.000000
O O5 0.205254 0.178745 0.840372
O O6 0.292369 0.328297 0.989532
O O7 0.084137 0.388292 0.935103
O O8 0.059706 0.869475 0.348443
#
# Coordination Sequence:
#
# PCOD9331689 Si02
#       5
#     8   8   2   8   4
#     4  10  23  42  66  95 130 179 229 275 337 423
#     4   9  20  40  68  90 134 175 227 273 343 415
#     4   8  16  32  66 102 120 182 234 276 318 402
#     4   9  22  43  59  96 131 172 221 287 332 410
#     4  12  25  37  70 100 134 176 220 289 355 386
#
# _framework density 23.424271999999998
#
# number of rings (size 3 to 8) (size 9 to 14) (size 15 to 20)
#    0.000    2.667    0.000    0.400   14.933    2.133 
#    0.000    4.000    0.000    8.000    0.000    0.000 
#    0.000    0.000    0.000    0.000    0.000    0.000 
#
# Total GULP energy -83658.405234 kJ/mol
# GULP energy per Si atom -5577.227016 kJ/mol
# Density = 2.337096 g / cm^3
# Si number density = 23.424272 Si / 1000 Ang^3
#
#
#
# Elastic Constant Matrix: (Units=GPa)
#
#
# Indices 1 2 3 4 5 6 
#
# 1 112.7889 60.1719 57.8770 0.0000 0.0000 0.0000
# 2 60.1719 194.1228 39.0371 0.0000 0.0000 0.0000
# 3 57.8770 39.0371 98.0586 0.0000 0.0000 0.0000
# 4 0.0000 0.0000 0.0000 40.8455 0.0000 0.0000
# 5 0.0000 0.0000 0.0000 0.0000 48.3968 0.0000
# 6 0.0000 0.0000 0.0000 0.0000 0.0000 39.9240
#
#
#
# Elastic Compliance Matrix: (Units=1/GPa)
#
#
# Indices 1 2 3 4 5 6 
#
# 1 0.014103 -0.002932 -0.007157 0.000000 0.000000 0.000000
# 2 -0.002932 0.006209 -0.000741 0.000000 0.000000 0.000000
# 3 -0.007157 -0.000741 0.014717 0.000000 0.000000 0.000000
# 4 0.000000 0.000000 0.000000 0.024482 0.000000 0.000000
# 5 0.000000 0.000000 0.000000 0.000000 0.020663 0.000000
# 6 0.000000 0.000000 0.000000 0.000000 0.000000 0.025048
#
#
# Mechanical properties :
#
#
# Convention : Reuss Voigt Hill
#
# Bulk Modulus (GPa) = 74.79922 79.90471 77.35197
# Shear Modulus (GPa) = 38.06965 42.35889 40.21427
#
# Velocity S-wave (km/s) = 4.03578 4.25706 4.14790
# Velocity P-wave (km/s) = 7.32928 7.63868 7.48558
#
# Compressibility (1/GPa) = 0.01336912
#
# Stress axis : x y z
#
# Youngs Moduli (GPa) = 70.90796 161.04755 67.94842
#
# Poissons Ratio (x) = 0.47224 0.48627
# Poissons Ratio (y) = 0.20792 0.05037
# Poissons Ratio (z) = 0.50745 0.11937
#
# Static dielectric constant tensor:
#      x y z
#    x 1.889540 0.000000 0.000000 
#    y 0.000000 1.877930 0.000000 
#    z 0.000000 0.000000 2.082760 
# 
# From -- ./inp_files/15247.got.cif
#   From: 2010.05.17/outbox.cif.g08.bks.cpg/sg23_8_cif.got.tgz:15247.got - 2010.06.04 12:02:01.
