data_PCOD9331772
_publ_section_title
;
Structure prediction by ZEFSAII (Michael W. Deem and Ramdas Pophale) SiO2 
 PCOD9331772
Probable space group: I 2 2 2
;
_chemical_formula_sum "Si O2"
_cell_formula_units_Z 40
_cell_length_a 6.200123
_cell_length_b 16.888440
_cell_length_c 16.737111
_cell_angle_alpha 90.000000
_cell_angle_beta 90.000000
_cell_angle_gamma 90.000000
_cell_volume 1752.549676
_symmetry_space_group_name_H-M "I 2 2 2"
_symmetry_group_IT_number 23
_symmetry_cell_setting 'orthorhombic'
loop_
_space_group_symop_operation_xyz
x,y,z
-x,-y,z
x,-y,-z
-x,y,-z
1/2+x,1/2+y,1/2+z
1/2-x,1/2-y,1/2+z
1/2+x,1/2-y,1/2-z
1/2-x,1/2+y,1/2-z
loop_
_atom_site_type_symbol
_atom_site_label
_atom_site_fract_x
_atom_site_fract_y
_atom_site_fract_z
Si Si1 0.500000 0.000000 0.500000
Si Si2 0.827781 0.071056 0.368444
Si Si3 0.835151 0.573331 0.614285
Si Si4 0.992066 0.646234 0.242657
Si Si5 0.836643 0.784643 0.364150
Si Si6 0.000000 0.706118 0.500000
Si Si7 0.000000 0.000000 0.000000
O O1 0.661624 0.049879 0.441074
O O2 0.687930 0.085567 0.288181
O O3 0.969613 0.151658 0.372979
O O4 0.000000 0.000000 0.363690
O O5 0.828054 0.599903 0.705429
O O6 0.922336 0.649785 0.569574
O O7 0.633002 0.551746 0.561788
O O8 0.000000 0.500000 0.607111
O O9 0.114694 0.679346 0.166250
O O10 0.895528 0.717682 0.296767
O O11 0.816019 0.753751 0.454567
#
# Coordination Sequence:
#
# PCOD9331772 Si02
#       7
#     2   8   8   8   8   4   2
#     4  12  30  52  78 114 160 206 272 328 380 462
#     4  12  28  50  78 114 153 207 265 318 393 469
#     4  11  24  45  68 107 146 193 245 311 377 469
#     4  11  26  48  72 112 158 193 255 320 387 464
#     4  11  25  47  74 110 149 204 248 320 385 464
#     4  10  23  46  69  98 156 184 252 308 375 456
#     4  12  22  44  74 102 144 198 248 300 388 442
#
# _framework density 22.823889999999999
#
# number of rings (size 3 to 8) (size 9 to 14) (size 15 to 20)
#    0.000    0.800    4.000    1.500    9.800    3.200 
#    0.000    0.000    0.000    0.000    0.000    0.000 
#    0.000    0.000    0.000    0.000    0.000    0.000 
#
# Total GULP energy -111639.233272 kJ/mol
# GULP energy per Si atom -5581.961664 kJ/mol
# Density = 2.277194 g / cm^3
# Si number density = 22.823890 Si / 1000 Ang^3
#
#
#
# Elastic Constant Matrix: (Units=GPa)
#
#
# Indices 1 2 3 4 5 6 
#
# 1 60.1139 38.0302 16.0190 0.0000 0.0000 0.0000
# 2 38.0302 82.8117 64.1217 0.0000 0.0000 0.0000
# 3 16.0190 64.1217 80.9611 0.0000 0.0000 0.0000
# 4 0.0000 0.0000 0.0000 43.2957 0.0000 0.0000
# 5 0.0000 0.0000 0.0000 0.0000 36.6134 0.0000
# 6 0.0000 0.0000 0.0000 0.0000 0.0000 21.1606
#
#
#
# Elastic Compliance Matrix: (Units=1/GPa)
#
#
# Indices 1 2 3 4 5 6 
#
# 1 0.027107 -0.021450 0.011625 0.000000 0.000000 0.000000
# 2 -0.021450 0.048197 -0.033928 0.000000 0.000000 0.000000
# 3 0.011625 -0.033928 0.036923 0.000000 0.000000 0.000000
# 4 0.000000 0.000000 0.000000 0.023097 0.000000 0.000000
# 5 0.000000 0.000000 0.000000 0.000000 0.027312 0.000000
# 6 0.000000 0.000000 0.000000 0.000000 0.000000 0.047258
#
#
# Mechanical properties :
#
#
# Convention : Reuss Voigt Hill
#
# Bulk Modulus (GPa) = 40.45168 51.13650 45.79409
# Shear Modulus (GPa) = 16.35902 27.26167 21.81035
#
# Velocity S-wave (km/s) = 2.68012 3.45981 3.09462
# Velocity P-wave (km/s) = 5.22870 6.19789 5.73381
#
# Compressibility (1/GPa) = 0.02472085
#
# Stress axis : x y z
#
# Youngs Moduli (GPa) = 36.89027 20.74806 27.08344
#
# Poissons Ratio (x) = 0.44505 -0.31485
# Poissons Ratio (y) = 0.79130 0.91890
# Poissons Ratio (z) = -0.42886 0.70395
#
# Static dielectric constant tensor:
#      x y z
#    x 2.428670 0.000000 0.000000 
#    y 0.000000 2.098170 0.000000 
#    z 0.000000 0.000000 1.894150 
# 
# From -- ./inp_files/23061.got.cif
#   From: 2010.05.17/outbox.cif.g08.bks.cpg/sg23_12_cif.got.tgz:23061.got - 2010.06.04 12:02:01.
