data_PCOD9331347
_publ_section_title
;
Structure prediction by ZEFSAII (Michael W. Deem and Ramdas Pophale) SiO2 
 PCOD9331347
Probable space group: I 2 2 2
;
_chemical_formula_sum "Si O2"
_cell_formula_units_Z 40
_cell_length_a 17.488318
_cell_length_b 11.947307
_cell_length_c 8.246709
_cell_angle_alpha 90.000000
_cell_angle_beta 90.000000
_cell_angle_gamma 90.000000
_cell_volume 1723.053393
_symmetry_space_group_name_H-M "I 2 2 2"
_symmetry_group_IT_number 23
_symmetry_cell_setting 'orthorhombic'
loop_
_space_group_symop_operation_xyz
x,y,z
-x,-y,z
x,-y,-z
-x,y,-z
1/2+x,1/2+y,1/2+z
1/2-x,1/2-y,1/2+z
1/2+x,1/2-y,1/2-z
1/2-x,1/2+y,1/2-z
loop_
_atom_site_type_symbol
_atom_site_label
_atom_site_fract_x
_atom_site_fract_y
_atom_site_fract_z
Si Si1 0.853773 0.639288 0.777460
Si Si2 0.916804 0.697873 0.461788
Si Si3 0.139565 0.322080 0.121784
Si Si4 0.680514 0.363990 0.860457
Si Si5 0.315253 0.430924 0.668236
O O1 0.901284 0.617035 0.614884
O O2 0.841380 0.774113 0.776777
O O3 0.769640 0.593731 0.737737
O O4 0.888783 0.623779 0.954151
O O5 0.903836 0.645846 0.286274
O O6 0.855197 0.798430 0.486628
O O7 0.000000 0.745224 0.500000
O O8 0.228028 0.361992 0.127403
O O9 0.143016 0.186179 0.131455
O O10 0.650944 0.483498 0.802311
O O11 0.308069 0.500000 0.500000
#
# Coordination Sequence:
#
# PCOD9331347 Si02
#       5
#     8   8   8   8   8
#     4   9  21  35  56  87 119 156 210 253 315 373
#     4  10  22  39  59  88 130 167 202 262 327 374
#     4  11  20  37  60  86 123 159 210 262 304 386
#     4   9  19  36  56  91 117 155 207 254 310 365
#     4  11  18  34  63  91 122 159 210 267 309 365
#
# _framework density 23.214603
#
# number of rings (size 3 to 8) (size 9 to 14) (size 15 to 20)
#    1.200    0.800    2.000    3.600    0.000    4.000 
#    0.000    2.000    0.000    6.600    0.000    5.600 
#    0.000    0.000    0.000    0.000    0.000    0.000 
#
# Total GULP energy -111419.655235 kJ/mol
# GULP energy per Si atom -5570.982762 kJ/mol
# Density = 2.316177 g / cm^3
# Si number density = 23.214603 Si / 1000 Ang^3
#
#
#
# Elastic Constant Matrix: (Units=GPa)
#
#
# Indices 1 2 3 4 5 6 
#
# 1 36.3465 -21.6428 12.8321 0.0000 0.0000 0.0000
# 2 -21.6428 104.9780 17.4567 0.0000 0.0000 0.0000
# 3 12.8321 17.4567 225.9156 0.0000 0.0000 0.0000
# 4 0.0000 0.0000 0.0000 17.9793 0.0000 0.0000
# 5 0.0000 0.0000 0.0000 0.0000 3.7472 0.0000
# 6 0.0000 0.0000 0.0000 0.0000 0.0000 -4.9971
#
#
#
# Elastic Compliance Matrix: (Units=1/GPa)
#
#
# Indices 1 2 3 4 5 6 
#
# 1 0.032601 0.007121 -0.002402 0.000000 0.000000 0.000000
# 2 0.007121 0.011205 -0.001270 0.000000 0.000000 0.000000
# 3 -0.002402 -0.001270 0.004661 0.000000 0.000000 0.000000
# 4 0.000000 0.000000 0.000000 0.055619 0.000000 0.000000
# 5 0.000000 0.000000 0.000000 0.000000 0.266863 0.000000
# 6 0.000000 0.000000 0.000000 0.000000 0.000000 -0.200117
#
#
# Mechanical properties :
#
#
# Convention : Reuss Voigt Hill
#
# Bulk Modulus (GPa) = 18.06234 42.72577 30.39405
# Shear Modulus (GPa) = 27.41383 27.25219 27.33301
#
# Velocity S-wave (km/s) = 3.44013 3.42998 3.43506
# Velocity P-wave (km/s) = 4.85560 5.84217 5.37158
#
# Compressibility (1/GPa) = 0.05536381
#
# Stress axis : x y z
#
# Youngs Moduli (GPa) = 30.67394 89.24536 214.54541
#
# Poissons Ratio (x) = -0.63548 0.51533
# Poissons Ratio (y) = -0.21842 0.27253
# Poissons Ratio (z) = 0.07368 0.11337
#
# Static dielectric constant tensor:
#      x y z
#    x 1.872470 0.000000 0.000000 
#    y 0.000000 1.931020 0.000000 
#    z 0.000000 0.000000 2.002720 
# 
# From -- ./inp_files/10890.got.cif
#   From: 2010.05.17/outbox.cif.g08.bks.cpg/sg23_6_cif.got.tgz:10890.got - 2010.06.04 12:02:01.
