data_PCOD9331468
_publ_section_title
;
Structure prediction by ZEFSAII (Michael W. Deem and Ramdas Pophale) SiO2 
 PCOD9331468
Probable space group: I 2 2 2
;
_chemical_formula_sum "Si O2"
_cell_formula_units_Z 30
_cell_length_a 13.160728
_cell_length_b 10.846768
_cell_length_c 8.492050
_cell_angle_alpha 90.000000
_cell_angle_beta 90.000000
_cell_angle_gamma 90.000000
_cell_volume 1212.251715
_symmetry_space_group_name_H-M "I 2 2 2"
_symmetry_group_IT_number 23
_symmetry_cell_setting 'orthorhombic'
loop_
_space_group_symop_operation_xyz
x,y,z
-x,-y,z
x,-y,-z
-x,y,-z
1/2+x,1/2+y,1/2+z
1/2-x,1/2-y,1/2+z
1/2+x,1/2-y,1/2-z
1/2-x,1/2+y,1/2-z
loop_
_atom_site_type_symbol
_atom_site_label
_atom_site_fract_x
_atom_site_fract_y
_atom_site_fract_z
Si Si1 0.500000 0.792500 0.500000
Si Si2 0.276662 0.877067 0.582393
Si Si3 0.827106 0.317470 0.388411
Si Si4 0.500000 0.000000 0.000000
Si Si5 0.980831 0.857364 0.690898
O O1 0.397132 0.866869 0.542449
O O2 0.471003 0.716012 0.340187
O O3 0.225557 0.747876 0.533162
O O4 0.257496 0.890314 0.767878
O O5 0.236061 0.000000 0.500000
O O6 0.867683 0.196499 0.296855
O O7 0.922432 0.407686 0.414132
O O8 0.000000 0.834552 0.500000
O O9 0.000000 0.000000 0.714714
#
# Coordination Sequence:
#
# PCOD9331468 Si02
#       5
#     4   8   8   2   8
#     4  10  24  46  68 108 150 200 250 312 394 448
#     4  11  28  45  76 109 154 197 256 322 379 465
#     4  11  28  45  75 109 147 204 256 312 390 457
#     4  12  28  52  76 106 160 204 254 318 384 472
#     4  10  22  41  70  99 140 189 249 314 379 449
#
# _framework density 24.747335
#
# number of rings (size 3 to 8) (size 9 to 14) (size 15 to 20)
#    0.000    1.333    1.333    0.800   18.667    0.000 
#    4.800    0.000    0.000    0.000    0.000    0.000 
#    0.000    0.000    0.000    0.000    0.000    0.000 
#
# Total GULP energy -83518.597506 kJ/mol
# GULP energy per Si atom -5567.906500 kJ/mol
# Density = 2.469101 g / cm^3
# Si number density = 24.747335 Si / 1000 Ang^3
#
#
#
# Elastic Constant Matrix: (Units=GPa)
#
#
# Indices 1 2 3 4 5 6 
#
# 1 80.1796 25.8798 17.6214 0.0000 0.0000 0.0000
# 2 25.8798 149.1381 55.3712 0.0000 0.0000 0.0000
# 3 17.6214 55.3712 150.9691 0.0000 0.0000 0.0000
# 4 0.0000 0.0000 0.0000 21.0287 0.0000 0.0000
# 5 0.0000 0.0000 0.0000 0.0000 40.7234 0.0000
# 6 0.0000 0.0000 0.0000 0.0000 0.0000 30.3547
#
#
#
# Elastic Compliance Matrix: (Units=1/GPa)
#
#
# Indices 1 2 3 4 5 6 
#
# 1 0.013299 -0.002004 -0.000817 0.000000 0.000000 0.000000
# 2 -0.002004 0.008064 -0.002724 0.000000 0.000000 0.000000
# 3 -0.000817 -0.002724 0.007718 0.000000 0.000000 0.000000
# 4 0.000000 0.000000 0.000000 0.047554 0.000000 0.000000
# 5 0.000000 0.000000 0.000000 0.000000 0.024556 0.000000
# 6 0.000000 0.000000 0.000000 0.000000 0.000000 0.032944
#
#
# Mechanical properties :
#
#
# Convention : Reuss Voigt Hill
#
# Bulk Modulus (GPa) = 55.58451 64.22574 59.90513
# Shear Modulus (GPa) = 33.06392 37.18231 35.12312
#
# Velocity S-wave (km/s) = 3.65918 3.88039 3.77141
# Velocity P-wave (km/s) = 6.35314 6.78863 6.57449
#
# Compressibility (1/GPa) = 0.01799062
#
# Stress axis : x y z
#
# Youngs Moduli (GPa) = 75.19636 124.00359 129.56287
#
# Poissons Ratio (x) = 0.24854 0.10587
# Poissons Ratio (y) = 0.15072 0.35290
# Poissons Ratio (z) = 0.06144 0.33776
#
# Static dielectric constant tensor:
#      x y z
#    x 2.037090 0.000000 0.000000 
#    y 0.000000 1.969390 0.000000 
#    z 0.000000 0.000000 2.105420 
# 
# From -- ./inp_files/7863.got.cif
#   From: 2010.05.17/outbox.cif.g08.bks.cpg/sg23_4_cif.got.tgz:7863.got - 2010.06.04 12:02:01.
