data_PCOD9331701
_publ_section_title
;
Structure prediction by ZEFSAII (Michael W. Deem and Ramdas Pophale) SiO2 
 PCOD9331701
Probable space group: I 2 2 2
;
_chemical_formula_sum "Si O2"
_cell_formula_units_Z 64
_cell_length_a 12.110232
_cell_length_b 14.801364
_cell_length_c 14.918168
_cell_angle_alpha 90.000000
_cell_angle_beta 90.000000
_cell_angle_gamma 90.000000
_cell_volume 2674.051061
_symmetry_space_group_name_H-M "I 2 2 2"
_symmetry_group_IT_number 23
_symmetry_cell_setting 'orthorhombic'
loop_
_space_group_symop_operation_xyz
x,y,z
-x,-y,z
x,-y,-z
-x,y,-z
1/2+x,1/2+y,1/2+z
1/2-x,1/2-y,1/2+z
1/2+x,1/2-y,1/2-z
1/2-x,1/2+y,1/2-z
loop_
_atom_site_type_symbol
_atom_site_label
_atom_site_fract_x
_atom_site_fract_y
_atom_site_fract_z
Si Si1 0.235220 0.097539 0.851225
Si Si2 0.748367 0.115737 0.809760
Si Si3 0.304459 0.922634 0.615770
Si Si4 0.806351 0.300301 0.479458
Si Si5 0.000159 0.110553 0.229548
Si Si6 0.594931 0.182694 0.453215
Si Si7 0.588028 0.920823 0.715063
Si Si8 0.430646 0.354564 0.922282
O O1 0.256511 0.125962 0.952807
O O2 0.115391 0.132494 0.819208
O O3 0.340060 0.127540 0.790647
O O4 0.243231 0.990581 0.832916
O O5 0.697502 0.132393 0.710940
O O6 0.879866 0.140911 0.810176
O O7 0.666409 0.155185 0.884715
O O8 0.378687 0.892329 0.531618
O O9 0.178084 0.913240 0.590398
O O10 0.331721 0.022223 0.649025
O O11 0.710029 0.232503 0.448967
O O12 0.890340 0.241505 0.537620
O O13 0.002775 0.148800 0.330262
O O14 0.000000 0.000000 0.234356
O O15 0.500000 0.241887 0.500000
O O16 0.549120 0.151761 0.357190
O O17 0.500000 0.000000 0.742685
O O18 0.500000 0.397533 0.000000
#
# Coordination Sequence:
#
# PCOD9331701 Si02
#       8
#     8   8   8   8   8   8   8   8
#     4  10  23  42  70  97 125 177 227 275 332 389
#     4   9  20  43  70  91 126 174 225 283 318 388
#     4   9  20  40  63  91 125 165 220 270 326 389
#     4  11  25  43  61  97 137 171 225 271 334 407
#     4   9  20  41  67  97 125 167 229 278 331 391
#     4  11  23  37  60  98 132 170 208 267 345 398
#     4  11  22  41  68  98 129 170 220 278 335 401
#     4  10  23  44  57  95 132 174 213 261 345 400
#
# _framework density 23.933723000000001
#
# number of rings (size 3 to 8) (size 9 to 14) (size 15 to 20)
#    0.000    2.000    1.250    1.500    5.250    3.250 
#   11.250    1.875    0.000    0.000    0.000    0.000 
#    0.000    0.000    0.000    0.000    0.000    0.000 
#
# Total GULP energy -178451.390221 kJ/mol
# GULP energy per Si atom -5576.605944 kJ/mol
# Density = 2.387925 g / cm^3
# Si number density = 23.933723 Si / 1000 Ang^3
#
#
#
# Elastic Constant Matrix: (Units=GPa)
#
#
# Indices 1 2 3 4 5 6 
#
# 1 71.6549 7.3911 38.2114 0.0000 0.0000 0.0000
# 2 7.3911 34.2866 5.4651 0.0000 0.0000 0.0000
# 3 38.2114 5.4651 125.0616 0.0000 0.0000 0.0000
# 4 0.0000 0.0000 0.0000 27.8467 0.0000 0.0000
# 5 0.0000 0.0000 0.0000 0.0000 27.2844 0.0000
# 6 0.0000 0.0000 0.0000 0.0000 0.0000 15.7103
#
#
#
# Elastic Compliance Matrix: (Units=1/GPa)
#
#
# Indices 1 2 3 4 5 6 
#
# 1 0.016944 -0.002847 -0.005053 0.000000 0.000000 0.000000
# 2 -0.002847 0.029849 -0.000434 0.000000 0.000000 0.000000
# 3 -0.005053 -0.000434 0.009559 0.000000 0.000000 0.000000
# 4 0.000000 0.000000 0.000000 0.035911 0.000000 0.000000
# 5 0.000000 0.000000 0.000000 0.000000 0.036651 0.000000
# 6 0.000000 0.000000 0.000000 0.000000 0.000000 0.063653
#
#
# Mechanical properties :
#
#
# Convention : Reuss Voigt Hill
#
# Bulk Modulus (GPa) = 25.19964 37.01535 31.10750
# Shear Modulus (GPa) = 22.47572 26.16397 24.31984
#
# Velocity S-wave (km/s) = 3.06777 3.30992 3.19114
# Velocity P-wave (km/s) = 4.80625 5.48696 5.15785
#
# Compressibility (1/GPa) = 0.03968311
#
# Stress axis : x y z
#
# Youngs Moduli (GPa) = 59.01839 33.50207 104.61533
#
# Poissons Ratio (x) = 0.09539 0.52858
# Poissons Ratio (y) = 0.16804 0.04545
# Poissons Ratio (z) = 0.29820 0.01455
#
# Static dielectric constant tensor:
#      x y z
#    x 1.987980 0.000000 0.000000 
#    y 0.000000 1.968490 0.000000 
#    z 0.000000 0.000000 1.950220 
# 
# From -- ./inp_files/21052.got.cif
#   From: 2010.05.17/outbox.cif.g08.bks.cpg/sg23_11_cif.got.tgz:21052.got - 2010.06.04 12:02:01.
