data_PCOD9331826
_publ_section_title
;
Structure prediction by ZEFSAII (Michael W. Deem and Ramdas Pophale) SiO2 
 PCOD9331826
Probable space group: I 2 2 2
;
_chemical_formula_sum "Si O2"
_cell_formula_units_Z 34
_cell_length_a 14.800839
_cell_length_b 5.523940
_cell_length_c 17.784896
_cell_angle_alpha 90.000000
_cell_angle_beta 90.000000
_cell_angle_gamma 90.000000
_cell_volume 1454.074362
_symmetry_space_group_name_H-M "I 2 2 2"
_symmetry_group_IT_number 23
_symmetry_cell_setting 'orthorhombic'
loop_
_space_group_symop_operation_xyz
x,y,z
-x,-y,z
x,-y,-z
-x,y,-z
1/2+x,1/2+y,1/2+z
1/2-x,1/2-y,1/2+z
1/2+x,1/2-y,1/2-z
1/2-x,1/2+y,1/2-z
loop_
_atom_site_type_symbol
_atom_site_label
_atom_site_fract_x
_atom_site_fract_y
_atom_site_fract_z
Si Si1 0.803667 0.536787 0.363302
Si Si2 0.000000 0.000000 0.000000
Si Si3 0.857112 0.658972 0.925993
Si Si4 0.000000 0.500000 0.348816
Si Si5 0.500000 0.500000 0.248465
Si Si6 0.840177 0.283623 0.805690
O O1 0.736031 0.704594 0.408734
O O2 0.813491 0.635674 0.277764
O O3 0.749373 0.288687 0.351467
O O4 0.905493 0.521055 0.392306
O O5 0.063632 0.838902 0.051625
O O6 0.883215 0.496323 0.854366
O O7 0.844695 0.500000 0.000000
O O8 0.010925 0.750185 0.299936
O O9 0.409475 0.561298 0.295129
#
# Coordination Sequence:
#
# PCOD9331826 Si02
#       6
#     8   2   8   4   4   8
#     4  11  23  45  73 114 155 205 274 339 396 484
#     4  12  30  58  72 120 172 216 278 322 430 516
#     4  12  28  50  77 112 167 220 270 333 420 499
#     4  10  24  44  74 115 161 196 266 342 406 456
#     4  10  24  41  70 121 157 203 260 338 411 474
#     4  11  23  44  76 112 156 210 269 342 403 479
#
# _framework density 23.382572
#
# number of rings (size 3 to 8) (size 9 to 14) (size 15 to 20)
#    0.000    0.941    2.353    3.176    6.588    5.647 
#   12.706    0.000    0.000   10.588    0.000    0.000 
#    0.000    0.000    0.000    0.000    0.000    0.000 
#
# Total GULP energy -95196.496700 kJ/mol
# GULP energy per Si atom -5599.793924 kJ/mol
# Density = 2.332935 g / cm^3
# Si number density = 23.382572 Si / 1000 Ang^3
#
#
#
# Elastic Constant Matrix: (Units=GPa)
#
#
# Indices 1 2 3 4 5 6 
#
# 1 207.9348 75.4189 46.2332 0.0000 0.0000 0.0000
# 2 75.4189 135.1652 48.4816 0.0000 0.0000 0.0000
# 3 46.2332 48.4816 87.4257 0.0000 0.0000 0.0000
# 4 0.0000 0.0000 0.0000 42.9313 0.0000 0.0000
# 5 0.0000 0.0000 0.0000 0.0000 -19.4345 0.0000
# 6 0.0000 0.0000 0.0000 0.0000 0.0000 18.7215
#
#
#
# Elastic Compliance Matrix: (Units=1/GPa)
#
#
# Indices 1 2 3 4 5 6 
#
# 1 0.006227 -0.002863 -0.001705 0.000000 0.000000 0.000000
# 2 -0.002863 0.010551 -0.004337 0.000000 0.000000 0.000000
# 3 -0.001705 -0.004337 0.014745 0.000000 0.000000 0.000000
# 4 0.000000 0.000000 0.000000 0.023293 0.000000 0.000000
# 5 0.000000 0.000000 0.000000 0.000000 -0.051455 0.000000
# 6 0.000000 0.000000 0.000000 0.000000 0.000000 0.053415
#
#
# Mechanical properties :
#
#
# Convention : Reuss Voigt Hill
#
# Bulk Modulus (GPa) = 72.92524 85.64367 79.28445
# Shear Modulus (GPa) = 63.16481 25.80311 44.48396
#
# Velocity S-wave (km/s) = 5.20310 3.32553 4.36643
# Velocity P-wave (km/s) = 8.20682 7.17302 7.70727
#
# Compressibility (1/GPa) = 0.01371267
#
# Stress axis : x y z
#
# Youngs Moduli (GPa) = 160.59937 94.77432 67.81772
#
# Poissons Ratio (x) = 0.27130 0.11565
# Poissons Ratio (y) = 0.45974 0.29415
# Poissons Ratio (z) = 0.27388 0.41107
#
# Static dielectric constant tensor:
#      x y z
#    x 1.907240 0.000000 0.000000 
#    y 0.000000 1.942690 0.000000 
#    z 0.000000 0.000000 1.856770 
# 
# From -- ./inp_files/3012.got.cif
#   From: 2010.05.17/outbox.cif.g08.bks.cpg/sg23_2_cif.got.tgz:3012.got - 2010.06.04 12:02:01.
