data_PCOD9331873
_publ_section_title
;
Structure prediction by ZEFSAII (Michael W. Deem and Ramdas Pophale) SiO2 
 PCOD9331873
Probable space group: I 2 2 2
;
_chemical_formula_sum "Si O2"
_cell_formula_units_Z 24
_cell_length_a 5.958781
_cell_length_b 10.577932
_cell_length_c 17.971683
_cell_angle_alpha 90.000000
_cell_angle_beta 90.000000
_cell_angle_gamma 90.000000
_cell_volume 1132.783579
_symmetry_space_group_name_H-M "I 2 2 2"
_symmetry_group_IT_number 23
_symmetry_cell_setting 'orthorhombic'
loop_
_space_group_symop_operation_xyz
x,y,z
-x,-y,z
x,-y,-z
-x,y,-z
1/2+x,1/2+y,1/2+z
1/2-x,1/2-y,1/2+z
1/2+x,1/2-y,1/2-z
1/2-x,1/2+y,1/2-z
loop_
_atom_site_type_symbol
_atom_site_label
_atom_site_fract_x
_atom_site_fract_y
_atom_site_fract_z
Si Si1 0.000000 0.500000 0.755671
Si Si2 0.000000 0.500000 0.000000
Si Si3 0.313606 0.608686 0.123457
Si Si4 0.334137 0.891210 0.113115
Si Si5 0.000000 0.000000 0.000000
O O1 0.141371 0.405287 0.807323
O O2 0.176988 0.568163 0.700105
O O3 0.838955 0.418194 0.051922
O O4 0.500000 0.500000 0.129644
O O5 0.416321 0.747672 0.114942
O O6 0.500000 0.000000 0.084037
O O7 0.127256 0.908205 0.058179
#
# Coordination Sequence:
#
# PCOD9331873 Si02
#       5
#     4   2   8   8   2
#     4   9  26  40  66 101 128 164 226 261 330 388
#     4  10  24  44  64 106 126 174 226 260 322 402
#     4  11  24  44  71  95 135 173 214 276 327 383
#     4  10  26  42  66  99 130 172 223 264 327 390
#     4  12  24  44  68  92 138 178 214 274 322 382
#
# _framework density 21.186748000000001
#
# number of rings (size 3 to 8) (size 9 to 14) (size 15 to 20)
#    1.000    0.667    0.000    2.000    7.000   10.667 
#    0.000    0.000    0.000    0.000    0.000    0.000 
#    0.000    0.000    0.000    0.000    0.000    0.000 
#
# Total GULP energy -66844.072074 kJ/mol
# GULP energy per Si atom -5570.339340 kJ/mol
# Density = 2.113853 g / cm^3
# Si number density = 21.186748 Si / 1000 Ang^3
#
#
#
# Elastic Constant Matrix: (Units=GPa)
#
#
# Indices 1 2 3 4 5 6 
#
# 1 53.7341 30.8232 40.5886 0.0000 0.0000 0.0000
# 2 30.8232 169.2687 39.5719 0.0000 0.0000 0.0000
# 3 40.5886 39.5719 150.3834 0.0000 0.0000 0.0000
# 4 0.0000 0.0000 0.0000 35.4184 0.0000 0.0000
# 5 0.0000 0.0000 0.0000 0.0000 -63.3338 0.0000
# 6 0.0000 0.0000 0.0000 0.0000 0.0000 25.9868
#
#
#
# Elastic Compliance Matrix: (Units=1/GPa)
#
#
# Indices 1 2 3 4 5 6 
#
# 1 0.024860 -0.003152 -0.005880 0.000000 0.000000 0.000000
# 2 -0.003152 0.006695 -0.000911 0.000000 0.000000 0.000000
# 3 -0.005880 -0.000911 0.008476 0.000000 0.000000 0.000000
# 4 0.000000 0.000000 0.000000 0.028234 0.000000 0.000000
# 5 0.000000 0.000000 0.000000 0.000000 -0.015789 0.000000
# 6 0.000000 0.000000 0.000000 0.000000 0.000000 0.038481
#
#
# Mechanical properties :
#
#
# Convention : Reuss Voigt Hill
#
# Bulk Modulus (GPa) = 49.64133 66.15042 57.89588
# Shear Modulus (GPa) = 42.53204 17.10777 29.81990
#
# Velocity S-wave (km/s) = 4.48536 2.84469 3.75571
# Velocity P-wave (km/s) = 7.09266 6.48691 6.79654
#
# Compressibility (1/GPa) = 0.02014450
#
# Stress axis : x y z
#
# Youngs Moduli (GPa) = 40.22516 149.37150 117.97398
#
# Poissons Ratio (x) = 0.47085 0.69372
# Poissons Ratio (y) = 0.12680 0.10746
# Poissons Ratio (z) = 0.23653 0.13606
#
# Static dielectric constant tensor:
#      x y z
#    x 1.736490 0.000000 0.000000 
#    y 0.000000 1.769850 0.000000 
#    z 0.000000 0.000000 1.770590 
# 
# From -- ./inp_files/1233.got.cif
#   From: 2010.05.17/outbox.cif.g08.bks.cpg/sg23_1_cif.got.tgz:1233.got - 2010.06.04 12:02:01.
