data_PCOD9331980
_publ_section_title
;
Structure prediction by ZEFSAII (Michael W. Deem and Ramdas Pophale) SiO2 
 PCOD9331980
Probable space group: I 2 2 2
;
_chemical_formula_sum "Si O2"
_cell_formula_units_Z 30
_cell_length_a 9.514983
_cell_length_b 9.651198
_cell_length_c 13.978873
_cell_angle_alpha 90.000000
_cell_angle_beta 90.000000
_cell_angle_gamma 90.000000
_cell_volume 1283.693675
_symmetry_space_group_name_H-M "I 2 2 2"
_symmetry_group_IT_number 23
_symmetry_cell_setting 'orthorhombic'
loop_
_space_group_symop_operation_xyz
x,y,z
-x,-y,z
x,-y,-z
-x,y,-z
1/2+x,1/2+y,1/2+z
1/2-x,1/2-y,1/2+z
1/2+x,1/2-y,1/2-z
1/2-x,1/2+y,1/2-z
loop_
_atom_site_type_symbol
_atom_site_label
_atom_site_fract_x
_atom_site_fract_y
_atom_site_fract_z
Si Si1 0.000000 0.000000 0.500000
Si Si2 0.690046 0.286763 0.637180
Si Si3 0.240303 0.000000 0.000000
Si Si4 0.730609 0.299069 0.944208
Si Si5 0.942184 0.344814 0.768680
O O1 0.900179 0.900670 0.561838
O O2 0.653597 0.430340 0.585020
O O3 0.696863 0.178675 0.549129
O O4 0.844254 0.304079 0.680580
O O5 0.579085 0.247918 0.716335
O O6 0.314610 0.863945 0.954921
O O7 0.843356 0.322849 0.861726
O O8 0.000000 0.500000 0.761014
#
# Coordination Sequence:
#
# PCOD9331980 Si02
#       5
#     2   8   4   8   8
#     4  12  24  42  74 112 144 196 258 324 396 434
#     4  10  26  48  78 105 154 202 254 309 393 457
#     4   8  24  50  72 102 148 213 245 304 382 481
#     4  10  25  47  74 105 157 203 251 314 394 464
#     4  12  27  47  76 116 154 197 261 333 379 457
#
# _framework density 23.370061
#
# number of rings (size 3 to 8) (size 9 to 14) (size 15 to 20)
#    1.600    0.000    0.000    2.400    7.467    3.733 
#    0.000    0.000    0.000    0.000    0.000    0.000 
#    0.000    0.000    0.000    0.000    0.000    0.000 
#
# Total GULP energy -83748.903205 kJ/mol
# GULP energy per Si atom -5583.260214 kJ/mol
# Density = 2.331687 g / cm^3
# Si number density = 23.370061 Si / 1000 Ang^3
#
#
#
# Elastic Constant Matrix: (Units=GPa)
#
#
# Indices 1 2 3 4 5 6 
#
# 1 88.3351 29.8949 6.9379 0.0000 0.0000 0.0000
# 2 29.8949 97.0389 -11.5319 0.0000 0.0000 0.0000
# 3 6.9379 -11.5319 73.5475 0.0000 0.0000 0.0000
# 4 0.0000 0.0000 0.0000 7.4856 0.0000 0.0000
# 5 0.0000 0.0000 0.0000 0.0000 30.5705 0.0000
# 6 0.0000 0.0000 0.0000 0.0000 0.0000 35.2528
#
#
#
# Elastic Compliance Matrix: (Units=1/GPa)
#
#
# Indices 1 2 3 4 5 6 
#
# 1 0.012887 -0.004193 -0.001873 0.000000 0.000000 0.000000
# 2 -0.004193 0.011865 0.002256 0.000000 0.000000 0.000000
# 3 -0.001873 0.002256 0.014127 0.000000 0.000000 0.000000
# 4 0.000000 0.000000 0.000000 0.133589 0.000000 0.000000
# 5 0.000000 0.000000 0.000000 0.000000 0.032711 0.000000
# 6 0.000000 0.000000 0.000000 0.000000 0.000000 0.028367
#
#
# Mechanical properties :
#
#
# Convention : Reuss Voigt Hill
#
# Bulk Modulus (GPa) = 31.99078 34.39146 33.19112
# Shear Modulus (GPa) = 19.87405 30.23649 25.05527
#
# Velocity S-wave (km/s) = 2.91934 3.60086 3.27786
# Velocity P-wave (km/s) = 5.00818 5.66006 5.34407
#
# Compressibility (1/GPa) = 0.03125901
#
# Stress axis : x y z
#
# Youngs Moduli (GPa) = 77.60059 84.28274 70.78624
#
# Poissons Ratio (x) = 0.35336 0.13258
# Poissons Ratio (y) = 0.32534 -0.15968
# Poissons Ratio (z) = 0.14534 -0.19013
#
# Static dielectric constant tensor:
#      x y z
#    x 1.856280 0.000000 0.000000 
#    y 0.000000 1.953650 0.000000 
#    z 0.000000 0.000000 1.935590 
# 
# From -- ./inp_files/19522.got.cif
#   From: 2010.05.17/outbox.cif.g08.bks.cpg/sg23_10_cif.got.tgz:19522.got - 2010.06.04 12:02:01.
