data_PCOD9331820
_publ_section_title
;
Structure prediction by ZEFSAII (Michael W. Deem and Ramdas Pophale) SiO2 
 PCOD9331820
Probable space group: I 2 2 2
;
_chemical_formula_sum "Si O2"
_cell_formula_units_Z 44
_cell_length_a 28.794303
_cell_length_b 9.128673
_cell_length_c 8.826260
_cell_angle_alpha 90.000000
_cell_angle_beta 90.000000
_cell_angle_gamma 90.000000
_cell_volume 2320.015772
_symmetry_space_group_name_H-M "I 2 2 2"
_symmetry_group_IT_number 23
_symmetry_cell_setting 'orthorhombic'
loop_
_space_group_symop_operation_xyz
x,y,z
-x,-y,z
x,-y,-z
-x,y,-z
1/2+x,1/2+y,1/2+z
1/2-x,1/2-y,1/2+z
1/2+x,1/2-y,1/2-z
1/2-x,1/2+y,1/2-z
loop_
_atom_site_type_symbol
_atom_site_label
_atom_site_fract_x
_atom_site_fract_y
_atom_site_fract_z
Si Si1 0.191157 0.687997 0.323117
Si Si2 0.778948 0.138402 0.608715
Si Si3 0.873954 0.500000 0.500000
Si Si4 0.653793 0.516197 0.329996
Si Si5 0.051241 0.249778 0.500136
Si Si6 0.551154 0.509075 0.248032
O O1 0.209075 0.733959 0.490711
O O2 0.234691 0.659538 0.215078
O O3 0.157673 0.551340 0.358253
O O4 0.164927 0.826141 0.246135
O O5 0.822136 0.099381 0.717003
O O6 0.770353 0.000000 0.500000
O O7 0.907715 0.637481 0.470455
O O8 0.673221 0.500000 0.500000
O O9 0.598768 0.491265 0.336515
O O10 0.056079 0.162562 0.658058
O O11 0.000000 0.319771 0.500000
O O12 0.050796 0.121267 0.375641
O O13 0.500000 0.500000 0.321442
#
# Coordination Sequence:
#
# PCOD9331820 Si02
#       6
#     8   8   4   8   8   8
#     4  11  24  39  61  89 121 159 203 256 315 370
#     4  10  24  41  61  82 120 160 207 249 301 369
#     4  12  21  32  60  92 126 146 207 246 320 354
#     4  11  22  39  61  87 120 160 209 255 301 367
#     4   9  18  34  58  88 123 157 195 251 306 369
#     4   9  18  36  59  86 118 158 205 246 303 367
#
# _framework density 18.965387
#
# number of rings (size 3 to 8) (size 9 to 14) (size 15 to 20)
#    0.000    1.818    1.818    3.545   11.455    0.364 
#    3.273    0.000    0.000    0.000    0.000    0.000 
#    0.000    0.000    0.000    0.000    0.000    0.000 
#
# Total GULP energy -122695.801095 kJ/mol
# GULP energy per Si atom -5577.081868 kJ/mol
# Density = 1.892222 g / cm^3
# Si number density = 18.965387 Si / 1000 Ang^3
#
#
#
# Elastic Constant Matrix: (Units=GPa)
#
#
# Indices 1 2 3 4 5 6 
#
# 1 155.1831 41.1399 57.1065 0.0000 0.0000 0.0000
# 2 41.1399 64.8457 24.1380 0.0000 0.0000 0.0000
# 3 57.1065 24.1380 114.9600 0.0000 0.0000 0.0000
# 4 0.0000 0.0000 0.0000 9.5984 0.0000 0.0000
# 5 0.0000 0.0000 0.0000 0.0000 28.3039 0.0000
# 6 0.0000 0.0000 0.0000 0.0000 0.0000 18.9029
#
#
#
# Elastic Compliance Matrix: (Units=1/GPa)
#
#
# Indices 1 2 3 4 5 6 
#
# 1 0.008881 -0.004331 -0.003502 0.000000 0.000000 0.000000
# 2 -0.004331 0.018840 -0.001805 0.000000 0.000000 0.000000
# 3 -0.003502 -0.001805 0.010817 0.000000 0.000000 0.000000
# 4 0.000000 0.000000 0.000000 0.104184 0.000000 0.000000
# 5 0.000000 0.000000 0.000000 0.000000 0.035331 0.000000
# 6 0.000000 0.000000 0.000000 0.000000 0.000000 0.052902
#
#
# Mechanical properties :
#
#
# Convention : Reuss Voigt Hill
#
# Bulk Modulus (GPa) = 51.91149 64.41751 58.16450
# Shear Modulus (GPa) = 19.48168 25.53468 22.50818
#
# Velocity S-wave (km/s) = 3.20851 3.67329 3.44874
# Velocity P-wave (km/s) = 6.41538 7.21320 6.82596
#
# Compressibility (1/GPa) = 0.01926356
#
# Stress axis : x y z
#
# Youngs Moduli (GPa) = 112.60132 53.07738 92.44383
#
# Poissons Ratio (x) = 0.22986 0.32377
# Poissons Ratio (y) = 0.48763 0.16683
# Poissons Ratio (z) = 0.39436 0.09579
#
# Static dielectric constant tensor:
#      x y z
#    x 1.696960 0.000000 0.000000 
#    y 0.000000 1.668900 0.000000 
#    z 0.000000 0.000000 1.641420 
# 
# From -- ./inp_files/7251.got.cif
#   From: 2010.05.17/outbox.cif.g08.bks.cpg/sg23_4_cif.got.tgz:7251.got - 2010.06.04 12:02:01.
