data_PCOD9331557
_publ_section_title
;
Structure prediction by ZEFSAII (Michael W. Deem and Ramdas Pophale) SiO2 
 PCOD9331557
Probable space group: I 2 2 2
;
_chemical_formula_sum "Si O2"
_cell_formula_units_Z 46
_cell_length_a 11.704763
_cell_length_b 22.423992
_cell_length_c 8.348281
_cell_angle_alpha 90.000000
_cell_angle_beta 90.000000
_cell_angle_gamma 90.000000
_cell_volume 2191.152542
_symmetry_space_group_name_H-M "I 2 2 2"
_symmetry_group_IT_number 23
_symmetry_cell_setting 'orthorhombic'
loop_
_space_group_symop_operation_xyz
x,y,z
-x,-y,z
x,-y,-z
-x,y,-z
1/2+x,1/2+y,1/2+z
1/2-x,1/2-y,1/2+z
1/2+x,1/2-y,1/2-z
1/2-x,1/2+y,1/2-z
loop_
_atom_site_type_symbol
_atom_site_label
_atom_site_fract_x
_atom_site_fract_y
_atom_site_fract_z
Si Si1 0.680069 0.543353 0.633208
Si Si2 0.235864 0.150772 0.923030
Si Si3 0.885134 0.889629 0.402562
Si Si4 0.711932 0.058454 0.347607
Si Si5 0.908853 0.243209 0.646305
Si Si6 0.500000 0.000000 0.500000
Si Si7 0.500000 0.716194 0.500000
O O1 0.632346 0.500000 0.500000
O O2 0.750083 0.599021 0.557939
O O3 0.586848 0.574291 0.742574
O O4 0.752893 0.498462 0.741567
O O5 0.261945 0.115208 0.761286
O O6 0.320051 0.206592 0.908939
O O7 0.108289 0.176450 0.944902
O O8 0.790694 0.926542 0.499593
O O9 0.850334 0.822313 0.359303
O O10 0.000000 0.886401 0.500000
O O11 0.584019 0.043296 0.401008
O O12 0.000000 0.243234 0.500000
O O13 0.959516 0.248735 0.830449
#
# Coordination Sequence:
#
# PCOD9331557 Si02
#       7
#     8   8   8   8   8   2   4
#     4  10  22  44  68 102 139 184 234 297 369 439
#     4  11  26  48  70 107 145 191 247 308 374 442
#     4  11  22  44  71 105 142 181 244 311 369 443
#     4  11  25  44  72 103 144 193 245 304 366 449
#     4  11  27  47  75 108 149 193 249 307 374 448
#     4  12  24  46  68 104 144 198 250 294 366 448
#     4  12  26  47  77 108 154 198 244 318 376 450
#
# _framework density 20.993518000000002
#
# number of rings (size 3 to 8) (size 9 to 14) (size 15 to 20)
#    0.000    1.043    3.478    2.087    4.870    3.478 
#    3.130    3.043    0.000    0.000    0.000    0.000 
#    0.000    0.000    0.000    0.000    0.000    0.000 
#
# Total GULP energy -128180.870367 kJ/mol
# GULP energy per Si atom -5573.081320 kJ/mol
# Density = 2.094574 g / cm^3
# Si number density = 20.993518 Si / 1000 Ang^3
#
#
#
# Elastic Constant Matrix: (Units=GPa)
#
#
# Indices 1 2 3 4 5 6 
#
# 1 103.0937 68.7084 45.4212 0.0000 0.0003 0.0000
# 2 68.7084 154.4216 72.4236 0.0004 -0.0002 0.0001
# 3 45.4212 72.4236 121.4881 0.0014 -0.0012 0.0007
# 4 0.0000 0.0004 0.0014 35.5454 -0.0002 0.0002
# 5 0.0003 -0.0002 -0.0012 -0.0002 9.1044 -0.0004
# 6 0.0000 0.0001 0.0007 0.0002 -0.0004 16.9177
#
#
#
# Elastic Compliance Matrix: (Units=1/GPa)
#
#
# Indices 1 2 3 4 5 6 
#
# 1 0.014178 -0.005306 -0.002138 0.000000 -0.000001 0.000000
# 2 -0.005306 0.010974 -0.004559 0.000000 0.000000 0.000000
# 3 -0.002138 -0.004559 0.011748 0.000000 0.000001 0.000000
# 4 0.000000 0.000000 0.000000 0.028133 0.000001 0.000000
# 5 -0.000001 0.000000 0.000001 0.000001 0.109837 0.000002
# 6 0.000000 0.000000 0.000000 0.000000 0.000002 0.059110
#
#
# Mechanical properties :
#
#
# Convention : Reuss Voigt Hill
#
# Bulk Modulus (GPa) = 77.54239 83.56776 80.55508
# Shear Modulus (GPa) = 19.06337 25.14352 22.10345
#
# Velocity S-wave (km/s) = 3.01667 3.46451 3.24832
# Velocity P-wave (km/s) = 7.01073 7.47640 7.24731
#
# Compressibility (1/GPa) = 0.01289617
#
# Stress axis : x y z
#
# Youngs Moduli (GPa) = 70.53265 91.12048 85.12008
#
# Poissons Ratio (x) = 0.48345 0.18197
# Poissons Ratio (y) = 0.37422 0.38803
# Poissons Ratio (z) = 0.15079 0.41539
#
# Static dielectric constant tensor:
#      x y z
#    x 1.693750 0.000000 0.000000 
#    y 0.000000 1.947110 0.000000 
#    z 0.000000 0.000000 1.826460 
# 
# From -- ./inp_files/8699.got.cif
#   From: 2010.05.17/outbox.cif.g08.bks.cpg/sg23_5_cif.got.tgz:8699.got - 2010.06.04 12:02:01.
