data_PCOD9331746
_publ_section_title
;
Structure prediction by ZEFSAII (Michael W. Deem and Ramdas Pophale) SiO2 
 PCOD9331746
Probable space group: I 2 2 2
;
_chemical_formula_sum "Si O2"
_cell_formula_units_Z 36
_cell_length_a 22.976305
_cell_length_b 7.646703
_cell_length_c 9.245444
_cell_angle_alpha 90.000000
_cell_angle_beta 90.000000
_cell_angle_gamma 90.000000
_cell_volume 1624.359611
_symmetry_space_group_name_H-M "I 2 2 2"
_symmetry_group_IT_number 23
_symmetry_cell_setting 'orthorhombic'
loop_
_space_group_symop_operation_xyz
x,y,z
-x,-y,z
x,-y,-z
-x,y,-z
1/2+x,1/2+y,1/2+z
1/2-x,1/2-y,1/2+z
1/2+x,1/2-y,1/2-z
1/2-x,1/2+y,1/2-z
loop_
_atom_site_type_symbol
_atom_site_label
_atom_site_fract_x
_atom_site_fract_y
_atom_site_fract_z
Si Si1 0.500000 0.000000 0.284499
Si Si2 0.118537 0.648179 0.766139
Si Si3 0.425503 0.311022 0.437489
Si Si4 0.706471 0.299819 0.047056
Si Si5 0.180433 0.289221 0.772996
O O1 0.443564 0.921384 0.205301
O O2 0.528848 0.832497 0.371332
O O3 0.152442 0.768572 0.654125
O O4 0.159402 0.484927 0.802901
O O5 0.103532 0.727311 0.921050
O O6 0.443481 0.500000 0.500000
O O7 0.374874 0.329343 0.316685
O O8 0.764130 0.240594 0.131336
O O9 0.712634 0.500000 0.000000
O O10 0.696184 0.206686 0.895164
#
# Coordination Sequence:
#
# PCOD9331746 Si02
#       5
#     4   8   8   8   8
#     4  10  23  44  69  98 133 174 223 274 329 388
#     4  11  23  42  66  93 130 172 217 273 332 392
#     4  11  22  41  70 100 130 173 223 273 326 393
#     4  12  24  40  64  97 131 170 220 274 334 402
#     4  11  23  41  64  95 133 172 213 273 339 396
#
# _framework density 22.162580999999999
#
# number of rings (size 3 to 8) (size 9 to 14) (size 15 to 20)
#    0.000    0.889    0.000   10.000    0.000    3.556 
#    0.000   11.111    0.000    5.333    0.000    0.000 
#    0.000    0.000    0.000    0.000    0.000    0.000 
#
# Total GULP energy -100545.367344 kJ/mol
# GULP energy per Si atom -5585.853741 kJ/mol
# Density = 2.211214 g / cm^3
# Si number density = 22.162581 Si / 1000 Ang^3
#
#
#
# Elastic Constant Matrix: (Units=GPa)
#
#
# Indices 1 2 3 4 5 6 
#
# 1 168.5815 25.5981 61.1112 0.0000 0.0000 0.0000
# 2 25.5981 103.3477 14.4394 0.0000 0.0000 0.0000
# 3 61.1112 14.4394 100.9505 0.0000 0.0000 0.0000
# 4 0.0000 0.0000 0.0000 29.8241 0.0000 0.0000
# 5 0.0000 0.0000 0.0000 0.0000 44.8381 0.0000
# 6 0.0000 0.0000 0.0000 0.0000 0.0000 22.3043
#
#
#
# Elastic Compliance Matrix: (Units=1/GPa)
#
#
# Indices 1 2 3 4 5 6 
#
# 1 0.007765 -0.001292 -0.004516 0.000000 0.000000 0.000000
# 2 -0.001292 0.010088 -0.000661 0.000000 0.000000 0.000000
# 3 -0.004516 -0.000661 0.012734 0.000000 0.000000 0.000000
# 4 0.000000 0.000000 0.000000 0.033530 0.000000 0.000000
# 5 0.000000 0.000000 0.000000 0.000000 0.022302 0.000000
# 6 0.000000 0.000000 0.000000 0.000000 0.000000 0.044835
#
#
# Mechanical properties :
#
#
# Convention : Reuss Voigt Hill
#
# Bulk Modulus (GPa) = 56.65750 63.90857 60.28304
# Shear Modulus (GPa) = 33.31659 37.50870 35.41264
#
# Velocity S-wave (km/s) = 3.88142 4.11838 4.00166
# Velocity P-wave (km/s) = 6.76071 7.17730 6.97212
#
# Compressibility (1/GPa) = 0.01764991
#
# Stress axis : x y z
#
# Youngs Moduli (GPa) = 128.78172 99.12288 78.52985
#
# Poissons Ratio (x) = 0.12811 0.35462
# Poissons Ratio (y) = 0.16644 0.05188
# Poissons Ratio (z) = 0.58155 0.06549
#
# Static dielectric constant tensor:
#      x y z
#    x 1.881190 0.000000 0.000000 
#    y 0.000000 1.438810 0.000000 
#    z 0.000000 0.000000 1.918800 
# 
# From -- ./inp_files/11655.got.cif
#   From: 2010.05.17/outbox.cif.g08.bks.cpg/sg23_6_cif.got.tgz:11655.got - 2010.06.04 12:02:01.
