data_PCOD9331303
_publ_section_title
;
Structure prediction by ZEFSAII (Michael W. Deem and Ramdas Pophale) SiO2 
 PCOD9331303
Probable space group: I 2 2 2
;
_chemical_formula_sum "Si O2"
_cell_formula_units_Z 26
_cell_length_a 25.215962
_cell_length_b 5.364702
_cell_length_c 7.857878
_cell_angle_alpha 90.000000
_cell_angle_beta 90.000000
_cell_angle_gamma 90.000000
_cell_volume 1062.983261
_symmetry_space_group_name_H-M "I 2 2 2"
_symmetry_group_IT_number 23
_symmetry_cell_setting 'orthorhombic'
loop_
_space_group_symop_operation_xyz
x,y,z
-x,-y,z
x,-y,-z
-x,y,-z
1/2+x,1/2+y,1/2+z
1/2-x,1/2-y,1/2+z
1/2+x,1/2-y,1/2-z
1/2-x,1/2+y,1/2-z
loop_
_atom_site_type_symbol
_atom_site_label
_atom_site_fract_x
_atom_site_fract_y
_atom_site_fract_z
Si Si1 0.166095 0.500000 0.000000
Si Si2 0.757515 0.263637 0.357619
Si Si3 0.143799 0.000000 0.500000
Si Si4 0.588863 0.324569 0.665125
Si Si5 0.000000 0.500000 0.000000
O O1 0.204436 0.728595 0.966106
O O2 0.128929 0.410139 0.848584
O O3 0.748964 0.019363 0.240144
O O4 0.812029 0.217313 0.461328
O O5 0.105314 0.976894 0.334493
O O6 0.596572 0.500000 0.500000
O O7 0.533340 0.184795 0.624563
#
# Coordination Sequence:
#
# PCOD9331303 Si02
#       5
#     4   8   4   8   2
#     4  10  22  37  66 101 159 198 253 310 384 460
#     4  11  23  42  66 113 167 211 254 313 376 481
#     4  11  24  43  79 109 155 212 264 311 394 492
#     4  11  23  49  74 109 147 204 257 338 394 474
#     4  10  26  50  78 106 156 196 262 354 418 452
#
# _framework density 24.459465999999999
#
# number of rings (size 3 to 8) (size 9 to 14) (size 15 to 20)
#    0.000    1.231    3.077    2.308    0.000    3.692 
#   11.077    4.615    0.000    0.000    0.000    0.000 
#    0.000    0.000    0.000    0.000    0.000    0.000 
#
# Total GULP energy -72451.183773 kJ/mol
# GULP energy per Si atom -5573.167983 kJ/mol
# Density = 2.440380 g / cm^3
# Si number density = 24.459466 Si / 1000 Ang^3
#
#
#
# Elastic Constant Matrix: (Units=GPa)
#
#
# Indices 1 2 3 4 5 6 
#
# 1 153.3383 46.1393 79.9149 0.0000 0.0000 0.0000
# 2 46.1393 161.0893 82.2851 0.0000 0.0000 0.0000
# 3 79.9149 82.2851 178.8183 0.0000 0.0000 0.0000
# 4 0.0000 0.0000 0.0000 68.2243 0.0000 0.0000
# 5 0.0000 0.0000 0.0000 0.0000 30.1305 0.0000
# 6 0.0000 0.0000 0.0000 0.0000 0.0000 32.9688
#
#
#
# Elastic Compliance Matrix: (Units=1/GPa)
#
#
# Indices 1 2 3 4 5 6 
#
# 1 0.008553 -0.000650 -0.003523 0.000000 0.000000 0.000000
# 2 -0.000650 0.008165 -0.003467 0.000000 0.000000 0.000000
# 3 -0.003523 -0.003467 0.008762 0.000000 0.000000 0.000000
# 4 0.000000 0.000000 0.000000 0.014658 0.000000 0.000000
# 5 0.000000 0.000000 0.000000 0.000000 0.033189 0.000000
# 6 0.000000 0.000000 0.000000 0.000000 0.000000 0.030332
#
#
# Mechanical properties :
#
#
# Convention : Reuss Voigt Hill
#
# Bulk Modulus (GPa) = 98.03862 101.10272 99.57067
# Shear Modulus (GPa) = 40.87022 45.25850 43.06436
#
# Velocity S-wave (km/s) = 4.09214 4.30623 4.20055
# Velocity P-wave (km/s) = 7.90548 8.13323 8.02016
#
# Compressibility (1/GPa) = 0.01020006
#
# Stress axis : x y z
#
# Youngs Moduli (GPa) = 116.91204 122.47930 114.12836
#
# Poissons Ratio (x) = 0.07962 0.40212
# Poissons Ratio (y) = 0.07600 0.39563
# Poissons Ratio (z) = 0.41193 0.42458
#
# Static dielectric constant tensor:
#      x y z
#    x 1.980810 0.000000 0.000000 
#    y 0.000000 2.026790 0.000000 
#    z 0.000000 0.000000 2.102790 
# 
# From -- ./inp_files/461.got.cif
#   From: 2010.05.17/outbox.cif.g08.bks.cpg/sg23_1_cif.got.tgz:461.got - 2010.06.04 12:02:01.
