data_PCOD9331792
_publ_section_title
;
Structure prediction by ZEFSAII (Michael W. Deem and Ramdas Pophale) SiO2 
 PCOD9331792
Probable space group: I 2 2 2
;
_chemical_formula_sum "Si O2"
_cell_formula_units_Z 20
_cell_length_a 10.153639
_cell_length_b 7.859669
_cell_length_c 8.873551
_cell_angle_alpha 90.000000
_cell_angle_beta 90.000000
_cell_angle_gamma 90.000000
_cell_volume 708.147009
_symmetry_space_group_name_H-M "I 2 2 2"
_symmetry_group_IT_number 23
_symmetry_cell_setting 'orthorhombic'
loop_
_space_group_symop_operation_xyz
x,y,z
-x,-y,z
x,-y,-z
-x,y,-z
1/2+x,1/2+y,1/2+z
1/2-x,1/2-y,1/2+z
1/2+x,1/2-y,1/2-z
1/2-x,1/2+y,1/2-z
loop_
_atom_site_type_symbol
_atom_site_label
_atom_site_fract_x
_atom_site_fract_y
_atom_site_fract_z
Si Si1 0.660799 0.335439 0.100865
Si Si2 0.935600 0.762124 0.837725
Si Si3 0.765963 0.000000 0.000000
O O1 0.453948 0.271435 0.788328
O O2 0.684193 0.172122 0.991436
O O3 0.634911 0.500000 0.000000
O O4 0.807030 0.357258 0.173942
O O5 0.863787 0.945699 0.863716
O O6 0.000000 0.721102 0.000000
#
# Coordination Sequence:
#
# PCOD9331792 Si02
#       3
#     8   8   4
#     4  10  24  52  86 125 170 236 287 356 454 513
#     4  10  23  51  87 126 179 221 295 370 423 535
#     4   8  23  50  80 121 181 212 291 378 407 532
#
# _framework density 28.242721
#
# number of rings (size 3 to 8) (size 9 to 14) (size 15 to 20)
#    2.400    0.000    0.000    0.600    0.000    4.000 
#    7.200    6.000    0.000    0.000    0.000    0.000 
#    0.000    0.000    0.000    0.000    0.000    0.000 
#
# Total GULP energy -55938.439611 kJ/mol
# GULP energy per Si atom -5593.843961 kJ/mol
# Density = 2.817844 g / cm^3
# Si number density = 28.242721 Si / 1000 Ang^3
#
#
#
# Elastic Constant Matrix: (Units=GPa)
#
#
# Indices 1 2 3 4 5 6 
#
# 1 307.1428 71.1633 153.0110 0.0000 0.0000 0.0000
# 2 71.1633 155.5902 40.6365 0.0000 0.0000 0.0000
# 3 153.0110 40.6365 193.2945 0.0000 0.0000 0.0000
# 4 0.0000 0.0000 0.0000 28.4155 0.0000 0.0000
# 5 0.0000 0.0000 0.0000 0.0000 74.8638 0.0000
# 6 0.0000 0.0000 0.0000 0.0000 0.0000 -7.2552
#
#
#
# Elastic Compliance Matrix: (Units=1/GPa)
#
#
# Indices 1 2 3 4 5 6 
#
# 1 0.005692 -0.001510 -0.004189 0.000000 0.000000 0.000000
# 2 -0.001510 0.007201 -0.000319 0.000000 0.000000 0.000000
# 3 -0.004189 -0.000319 0.008556 0.000000 0.000000 0.000000
# 4 0.000000 0.000000 0.000000 0.035192 0.000000 0.000000
# 5 0.000000 0.000000 0.000000 0.000000 0.013358 0.000000
# 6 0.000000 0.000000 0.000000 0.000000 0.000000 -0.137833
#
#
# Mechanical properties :
#
#
# Convention : Reuss Voigt Hill
#
# Bulk Modulus (GPa) = 106.21129 131.73879 118.97504
# Shear Modulus (GPa) = -94.94631 45.28593 -24.83019
#
# Velocity S-wave (km/s) = -5.80439 4.00866 -2.96830
# Velocity P-wave (km/s) = 2.68943 8.25665 5.51993
#
# Compressibility (1/GPa) = 0.00941520
#
# Stress axis : x y z
#
# Youngs Moduli (GPa) = 175.67868 138.87242 116.87496
#
# Poissons Ratio (x) = 0.20963 0.48954
# Poissons Ratio (y) = 0.26519 0.03727
# Poissons Ratio (z) = 0.73584 0.04429
#
# Static dielectric constant tensor:
#      x y z
#    x 2.198330 0.000000 0.000000 
#    y 0.000000 2.258730 0.000000 
#    z 0.000000 0.000000 2.267840 
# 
# From -- ./inp_files/5999.got.cif
#   From: 2010.05.17/outbox.cif.g08.bks.cpg/sg23_3_cif.got.tgz:5999.got - 2010.06.04 12:02:01.
