data_PCOD9331864
_publ_section_title
;
Structure prediction by ZEFSAII (Michael W. Deem and Ramdas Pophale) SiO2 
 PCOD9331864
Probable space group: I 2 2 2
;
_chemical_formula_sum "Si O2"
_cell_formula_units_Z 34
_cell_length_a 17.699947
_cell_length_b 9.086731
_cell_length_c 9.602705
_cell_angle_alpha 90.000000
_cell_angle_beta 90.000000
_cell_angle_gamma 90.000000
_cell_volume 1544.447766
_symmetry_space_group_name_H-M "I 2 2 2"
_symmetry_group_IT_number 23
_symmetry_cell_setting 'orthorhombic'
loop_
_space_group_symop_operation_xyz
x,y,z
-x,-y,z
x,-y,-z
-x,y,-z
1/2+x,1/2+y,1/2+z
1/2-x,1/2-y,1/2+z
1/2+x,1/2-y,1/2-z
1/2-x,1/2+y,1/2-z
loop_
_atom_site_type_symbol
_atom_site_label
_atom_site_fract_x
_atom_site_fract_y
_atom_site_fract_z
Si Si1 0.998889 0.675712 0.843442
Si Si2 0.500000 0.500000 0.000000
Si Si3 0.849910 0.696934 0.331904
Si Si4 0.883361 0.783393 0.634338
Si Si5 0.752296 0.508309 0.841649
O O1 0.072733 0.724411 0.754688
O O2 0.000000 0.500000 0.849701
O O3 0.920161 0.711001 0.767973
O O4 0.000000 0.736696 0.000000
O O5 0.446617 0.599983 0.909435
O O6 0.869932 0.687853 0.495374
O O7 0.811959 0.549263 0.271037
O O8 0.791956 0.837239 0.318738
O O9 0.810268 0.879973 0.662136
O O10 0.784350 0.500000 0.000000
#
# Coordination Sequence:
#
# PCOD9331864 Si02
#       5
#     8   2   8   8   8
#     4  11  26  43  69  99 139 174 223 293 346 402
#     4  12  16  44  72  92 132 172 236 294 332 392
#     4  11  23  44  70  99 137 183 228 276 345 413
#     4  11  21  44  74  97 132 183 234 284 343 414
#     4  10  24  43  68 101 143 181 224 290 343 404
#
# _framework density 22.014339
#
# number of rings (size 3 to 8) (size 9 to 14) (size 15 to 20)
#    0.000    1.176    5.882    0.000    6.588    3.765 
#    4.235   10.000    0.000    0.000    0.000    0.000 
#    0.000    0.000    0.000    0.000    0.000    0.000 
#
# Total GULP energy -95011.536908 kJ/mol
# GULP energy per Si atom -5588.913936 kJ/mol
# Density = 2.196423 g / cm^3
# Si number density = 22.014339 Si / 1000 Ang^3
#
#
#
# Elastic Constant Matrix: (Units=GPa)
#
#
# Indices 1 2 3 4 5 6 
#
# 1 60.3083 19.0732 58.3947 0.0000 0.0000 0.0000
# 2 19.0732 66.7373 59.4807 0.0000 0.0000 0.0000
# 3 58.3947 59.4807 162.0531 0.0000 0.0000 0.0000
# 4 0.0000 0.0000 0.0000 58.2319 0.0000 0.0000
# 5 0.0000 0.0000 0.0000 0.0000 38.9720 0.0000
# 6 0.0000 0.0000 0.0000 0.0000 0.0000 74.5999
#
#
#
# Elastic Compliance Matrix: (Units=1/GPa)
#
#
# Indices 1 2 3 4 5 6 
#
# 1 0.025548 0.001343 -0.009699 0.000000 0.000000 0.000000
# 2 0.001343 0.022340 -0.008684 0.000000 0.000000 0.000000
# 3 -0.009699 -0.008684 0.012853 0.000000 0.000000 0.000000
# 4 0.000000 0.000000 0.000000 0.017173 0.000000 0.000000
# 5 0.000000 0.000000 0.000000 0.000000 0.025659 0.000000
# 6 0.000000 0.000000 0.000000 0.000000 0.000000 0.013405
#
#
# Mechanical properties :
#
#
# Convention : Reuss Voigt Hill
#
# Bulk Modulus (GPa) = 37.50739 62.55508 50.03123
# Shear Modulus (GPa) = 31.26094 44.50410 37.88252
#
# Velocity S-wave (km/s) = 3.77241 4.50109 4.15277
# Velocity P-wave (km/s) = 6.00412 7.44919 6.76535
#
# Compressibility (1/GPa) = 0.02666142
#
# Stress axis : x y z
#
# Youngs Moduli (GPa) = 39.14213 44.76333 77.80286
#
# Poissons Ratio (x) = -0.06011 0.75460
# Poissons Ratio (y) = -0.05256 0.67561
# Poissons Ratio (z) = 0.37964 0.38870
#
# Static dielectric constant tensor:
#      x y z
#    x 1.652090 0.000000 0.000000 
#    y 0.000000 1.850030 0.000000 
#    z 0.000000 0.000000 1.830950 
# 
# From -- ./inp_files/6701.got.cif
#   From: 2010.05.17/outbox.cif.g08.bks.cpg/sg23_4_cif.got.tgz:6701.got - 2010.06.04 12:02:01.
