data_PCOD9331307
_publ_section_title
;
Structure prediction by ZEFSAII (Michael W. Deem and Ramdas Pophale) SiO2 
 PCOD9331307
Probable space group: I 2 2 2
;
_chemical_formula_sum "Si O2"
_cell_formula_units_Z 56
_cell_length_a 5.432368
_cell_length_b 17.523520
_cell_length_c 26.795533
_cell_angle_alpha 90.000000
_cell_angle_beta 90.000000
_cell_angle_gamma 90.000000
_cell_volume 2550.779577
_symmetry_space_group_name_H-M "I 2 2 2"
_symmetry_group_IT_number 23
_symmetry_cell_setting 'orthorhombic'
loop_
_space_group_symop_operation_xyz
x,y,z
-x,-y,z
x,-y,-z
-x,y,-z
1/2+x,1/2+y,1/2+z
1/2-x,1/2-y,1/2+z
1/2+x,1/2-y,1/2-z
1/2-x,1/2+y,1/2-z
loop_
_atom_site_type_symbol
_atom_site_label
_atom_site_fract_x
_atom_site_fract_y
_atom_site_fract_z
Si Si1 0.918804 0.914488 0.120855
Si Si2 0.510726 0.678362 0.060269
Si Si3 0.311484 0.797815 0.133786
Si Si4 0.758814 0.588123 0.519883
Si Si5 0.593259 0.216983 0.725619
Si Si6 0.404684 0.913541 0.791946
Si Si7 0.990440 0.586952 0.939738
O O1 0.709866 0.908668 0.079336
O O2 0.853862 0.910311 0.178962
O O3 0.114145 0.850976 0.106948
O O4 0.000000 0.000000 0.111830
O O5 0.480693 0.751546 0.095942
O O6 0.269040 0.627004 0.072145
O O7 0.765985 0.635539 0.073395
O O8 0.500000 0.692086 0.000000
O O9 0.163978 0.739372 0.169763
O O10 0.441923 0.856609 0.172080
O O11 0.757846 0.500000 0.500000
O O12 0.500000 0.619753 0.500000
O O13 0.000000 0.627675 0.500000
O O14 0.323419 0.249375 0.741144
O O15 0.594679 0.127331 0.738833
O O16 0.500000 0.000000 0.792633
O O17 0.000000 0.500000 0.920427
O O18 0.000000 0.582620 0.000000
#
# Coordination Sequence:
#
# PCOD9331307 Si02
#       7
#     8   8   8   8   8   8   8
#     4  12  23  41  64  96 128 187 248 297 341 418
#     4  10  22  40  62  99 142 180 230 280 346 426
#     4  11  25  42  67  95 140 188 227 290 366 430
#     4  10  22  38  56  81 126 173 222 287 342 376
#     4  10  22  44  67  97 129 171 221 288 365 419
#     4  11  24  41  70  98 130 174 245 296 344 423
#     4   9  18  37  68  95 126 171 226 283 336 403
#
# _framework density 21.954072
#
# number of rings (size 3 to 8) (size 9 to 14) (size 15 to 20)
#    0.000    1.571    4.286    0.429    6.000    1.714 
#    2.571    1.429    0.000    8.571    0.000    0.000 
#    0.000    0.000    0.000    0.000    0.000    0.000 
#
# Total GULP energy -156242.350256 kJ/mol
# GULP energy per Si atom -5580.083938 kJ/mol
# Density = 2.190410 g / cm^3
# Si number density = 21.954072 Si / 1000 Ang^3
#
#
#
# Elastic Constant Matrix: (Units=GPa)
#
#
# Indices 1 2 3 4 5 6 
#
# 1 124.8377 49.5784 10.4241 0.0000 0.0000 0.0000
# 2 49.5784 161.3796 48.8996 0.0000 0.0000 0.0000
# 3 10.4241 48.8996 56.5474 0.0000 0.0000 0.0000
# 4 0.0000 0.0000 0.0000 82.6250 0.0000 0.0000
# 5 0.0000 0.0000 0.0000 0.0000 16.6086 0.0000
# 6 0.0000 0.0000 0.0000 0.0000 0.0000 26.0276
#
#
#
# Elastic Compliance Matrix: (Units=1/GPa)
#
#
# Indices 1 2 3 4 5 6 
#
# 1 0.009166 -0.003122 0.001010 0.000000 0.000000 0.000000
# 2 -0.003122 0.009460 -0.007605 0.000000 0.000000 0.000000
# 3 0.001010 -0.007605 0.024075 0.000000 0.000000 0.000000
# 4 0.000000 0.000000 0.000000 0.012103 0.000000 0.000000
# 5 0.000000 0.000000 0.000000 0.000000 0.060210 0.000000
# 6 0.000000 0.000000 0.000000 0.000000 0.000000 0.038421
#
#
# Mechanical properties :
#
#
# Convention : Reuss Voigt Hill
#
# Bulk Modulus (GPa) = 42.98006 62.28543 52.63274
# Shear Modulus (GPa) = 27.68184 40.64308 34.16246
#
# Velocity S-wave (km/s) = 3.55476 4.30732 3.94901
# Velocity P-wave (km/s) = 6.03889 7.29175 6.69470
#
# Compressibility (1/GPa) = 0.02326660
#
# Stress axis : x y z
#
# Youngs Moduli (GPa) = 109.09964 105.70658 41.53736
#
# Poissons Ratio (x) = 0.33001 -0.04196
# Poissons Ratio (y) = 0.34061 0.31590
# Poissons Ratio (z) = -0.11020 0.80392
#
# Static dielectric constant tensor:
#      x y z
#    x 1.858810 0.000000 0.000000 
#    y 0.000000 1.810650 0.000000 
#    z 0.000000 0.000000 1.813750 
# 
# From -- ./inp_files/29956.got.cif
#   From: 2010.05.17/outbox.cif.g08.bks.cpg/sg23_15_cif.got.tgz:29956.got - 2010.06.04 12:02:01.
