data_PCOD9331779
_publ_section_title
;
Structure prediction by ZEFSAII (Michael W. Deem and Ramdas Pophale) SiO2 
 PCOD9331779
Probable space group: I 2 2 2
;
_chemical_formula_sum "Si O2"
_cell_formula_units_Z 40
_cell_length_a 9.051061
_cell_length_b 16.225583
_cell_length_c 10.229489
_cell_angle_alpha 90.000000
_cell_angle_beta 90.000000
_cell_angle_gamma 90.000000
_cell_volume 1502.289881
_symmetry_space_group_name_H-M "I 2 2 2"
_symmetry_group_IT_number 23
_symmetry_cell_setting 'orthorhombic'
loop_
_space_group_symop_operation_xyz
x,y,z
-x,-y,z
x,-y,-z
-x,y,-z
1/2+x,1/2+y,1/2+z
1/2-x,1/2-y,1/2+z
1/2+x,1/2-y,1/2-z
1/2-x,1/2+y,1/2-z
loop_
_atom_site_type_symbol
_atom_site_label
_atom_site_fract_x
_atom_site_fract_y
_atom_site_fract_z
Si Si1 0.997914 0.378027 0.190044
Si Si2 0.352184 0.861569 0.057490
Si Si3 0.429419 0.311496 0.280738
Si Si4 0.293982 0.569987 0.304689
Si Si5 0.705092 0.565992 0.109753
O O1 0.995193 0.279700 0.204674
O O2 0.827873 0.402170 0.196879
O O3 0.072041 0.410769 0.324432
O O4 0.121391 0.411565 0.091661
O O5 0.214494 0.814105 0.123839
O O6 0.500000 0.816945 0.000000
O O7 0.282615 0.916344 0.943647
O O8 0.565844 0.370835 0.312516
O O9 0.371912 0.345887 0.139521
O O10 0.331980 0.481209 0.246864
O O11 0.659053 0.500000 0.000000
#
# Coordination Sequence:
#
# PCOD9331779 Si02
#       5
#     8   8   8   8   8
#     4  10  23  46  71 105 156 207 268 323 411 500
#     4   9  21  43  72 108 148 198 262 328 404 463
#     4  11  23  45  72 111 156 205 274 334 410 493
#     4  11  22  42  70 107 152 197 269 334 399 480
#     4  11  26  49  73 111 156 213 264 342 417 497
#
# _framework density 26.626017999999998
#
# number of rings (size 3 to 8) (size 9 to 14) (size 15 to 20)
#    0.000    1.600    0.000    4.200    0.000    6.400 
#   28.800   12.000    0.000    0.000    0.000    0.000 
#    0.000    0.000    0.000    0.000    0.000    0.000 
#
# Total GULP energy -111642.082027 kJ/mol
# GULP energy per Si atom -5582.104101 kJ/mol
# Density = 2.656542 g / cm^3
# Si number density = 26.626018 Si / 1000 Ang^3
#
#
#
# Elastic Constant Matrix: (Units=GPa)
#
#
# Indices 1 2 3 4 5 6 
#
# 1 219.8959 73.4944 42.6176 0.0000 0.0000 0.0000
# 2 73.4944 159.4413 26.7935 0.0001 0.0002 -0.0001
# 3 42.6176 26.7935 115.6021 0.0001 0.0002 -0.0001
# 4 0.0000 0.0001 0.0001 22.4903 0.0002 -0.0001
# 5 0.0000 0.0002 0.0002 0.0002 33.5607 -0.0001
# 6 0.0000 -0.0001 -0.0001 -0.0001 -0.0001 53.5654
#
#
#
# Elastic Compliance Matrix: (Units=1/GPa)
#
#
# Indices 1 2 3 4 5 6 
#
# 1 0.005625 -0.002335 -0.001532 0.000000 0.000000 0.000000
# 2 -0.002335 0.007496 -0.000876 0.000000 0.000000 0.000000
# 3 -0.001532 -0.000876 0.009418 0.000000 0.000000 0.000000
# 4 0.000000 0.000000 0.000000 0.044464 0.000000 0.000000
# 5 0.000000 0.000000 0.000000 0.000000 0.029797 0.000000
# 6 0.000000 0.000000 0.000000 0.000000 0.000000 0.018669
#
#
# Mechanical properties :
#
#
# Convention : Reuss Voigt Hill
#
# Bulk Modulus (GPa) = 76.62335 86.75002 81.68668
# Shear Modulus (GPa) = 38.66763 45.39220 42.02991
#
# Velocity S-wave (km/s) = 3.81497 4.13341 3.97738
# Velocity P-wave (km/s) = 6.94590 7.44525 7.19990
#
# Compressibility (1/GPa) = 0.01305085
#
# Stress axis : x y z
#
# Youngs Moduli (GPa) = 177.77300 133.41051 106.17474
#
# Poissons Ratio (x) = 0.31156 0.16271
# Poissons Ratio (y) = 0.41517 0.09305
# Poissons Ratio (z) = 0.27243 0.11691
#
# Static dielectric constant tensor:
#      x y z
#    x 2.126930 0.000000 0.000000 
#    y 0.000000 2.138050 0.000000 
#    z 0.000000 0.000000 2.266380 
# 
# From -- ./inp_files/14441.got.cif
#   From: 2010.05.17/outbox.cif.g08.bks.cpg/sg23_8_cif.got.tgz:14441.got - 2010.06.04 12:02:01.
