data_PCOD9331810
_publ_section_title
;
Structure prediction by ZEFSAII (Michael W. Deem and Ramdas Pophale) SiO2 
 PCOD9331810
Probable space group: I 2 2 2
;
_chemical_formula_sum "Si O2"
_cell_formula_units_Z 38
_cell_length_a 28.348467
_cell_length_b 6.457112
_cell_length_c 11.285183
_cell_angle_alpha 90.000000
_cell_angle_beta 90.000000
_cell_angle_gamma 90.000000
_cell_volume 2065.744018
_symmetry_space_group_name_H-M "I 2 2 2"
_symmetry_group_IT_number 23
_symmetry_cell_setting 'orthorhombic'
loop_
_space_group_symop_operation_xyz
x,y,z
-x,-y,z
x,-y,-z
-x,y,-z
1/2+x,1/2+y,1/2+z
1/2-x,1/2-y,1/2+z
1/2+x,1/2-y,1/2-z
1/2-x,1/2+y,1/2-z
loop_
_atom_site_type_symbol
_atom_site_label
_atom_site_fract_x
_atom_site_fract_y
_atom_site_fract_z
Si Si1 0.451689 0.119727 0.381855
Si Si2 0.803530 0.993869 0.863068
Si Si3 0.149978 0.000000 0.500000
Si Si4 0.370228 0.791701 0.796986
Si Si5 0.197819 0.327047 0.329444
Si Si6 0.500000 0.500000 0.500000
O O1 0.415311 0.130523 0.275211
O O2 0.467439 0.348767 0.422198
O O3 0.500000 0.000000 0.350052
O O4 0.433075 0.000000 0.500000
O O5 0.838413 0.842741 0.792964
O O6 0.750361 0.908200 0.851134
O O7 0.804975 0.216245 0.798565
O O8 0.816624 0.000000 0.000000
O O9 0.120660 0.141409 0.591273
O O10 0.182983 0.152721 0.423757
O O11 0.338650 0.985046 0.837316
#
# Coordination Sequence:
#
# PCOD9331810 Si02
#       6
#     8   8   4   8   8   2
#     4   9  21  38  63  93 123 159 195 259 323 362
#     4  11  24  35  58  90 123 166 207 253 300 356
#     4  10  24  40  62  83 120 172 205 248 316 348
#     4  11  23  39  63  89 126 164 208 251 303 375
#     4  11  23  41  57  87 125 166 206 253 301 357
#     4   8  18  40  64  88 132 148 194 256 318 370
#
# _framework density 18.395309999999998
#
# number of rings (size 3 to 8) (size 9 to 14) (size 15 to 20)
#    0.000    1.895    2.105    1.895    7.368    5.053 
#    0.000    0.000    0.000    9.474    0.000    0.000 
#    0.000    0.000    0.000    0.000    0.000    0.000 
#
# Total GULP energy -106125.632277 kJ/mol
# GULP energy per Si atom -5585.559594 kJ/mol
# Density = 1.835344 g / cm^3
# Si number density = 18.395310 Si / 1000 Ang^3
#
#
#
# Elastic Constant Matrix: (Units=GPa)
#
#
# Indices 1 2 3 4 5 6 
#
# 1 74.3668 22.3843 38.7948 0.0000 0.0000 0.0000
# 2 22.3843 103.2738 49.8485 0.0000 0.0000 0.0000
# 3 38.7948 49.8485 131.5335 0.0000 0.0000 0.0000
# 4 0.0000 0.0000 0.0000 21.6132 0.0000 0.0000
# 5 0.0000 0.0000 0.0000 0.0000 -184.2678 0.0000
# 6 0.0000 0.0000 0.0000 0.0000 0.0000 11.0100
#
#
#
# Elastic Compliance Matrix: (Units=1/GPa)
#
#
# Indices 1 2 3 4 5 6 
#
# 1 0.016071 -0.001463 -0.004185 0.000000 0.000000 0.000000
# 2 -0.001463 0.011984 -0.004110 0.000000 0.000000 0.000000
# 3 -0.004185 -0.004110 0.010395 0.000000 0.000000 0.000000
# 4 0.000000 0.000000 0.000000 0.046268 0.000000 0.000000
# 5 0.000000 0.000000 0.000000 0.000000 -0.005427 0.000000
# 6 0.000000 0.000000 0.000000 0.000000 0.000000 0.090826
#
#
# Mechanical properties :
#
#
# Convention : Reuss Voigt Hill
#
# Bulk Modulus (GPa) = 52.82031 59.02547 55.92289
# Shear Modulus (GPa) = 25.51739 -17.11914 4.19912
#
# Velocity S-wave (km/s) = 3.72851 -3.05392 1.51250
# Velocity P-wave (km/s) = 6.87838 4.44090 5.78937
#
# Compressibility (1/GPa) = 0.01893211
#
# Stress axis : x y z
#
# Youngs Moduli (GPa) = 62.22526 83.44439 96.20211
#
# Poissons Ratio (x) = 0.12208 0.40265
# Poissons Ratio (y) = 0.09104 0.39541
# Poissons Ratio (z) = 0.26044 0.34297
#
# Static dielectric constant tensor:
#      x y z
#    x 1.598420 0.000000 0.000000 
#    y 0.000000 1.655210 0.000000 
#    z 0.000000 0.000000 1.645380 
# 
# From -- ./inp_files/1737.got.cif
#   From: 2010.05.17/outbox.cif.g08.bks.cpg/sg23_1_cif.got.tgz:1737.got - 2010.06.04 12:02:01.
