data_PCOD9331478
_publ_section_title
;
Structure prediction by ZEFSAII (Michael W. Deem and Ramdas Pophale) SiO2 
 PCOD9331478
Probable space group: I 2 2 2
;
_chemical_formula_sum "Si O2"
_cell_formula_units_Z 42
_cell_length_a 6.707824
_cell_length_b 17.891968
_cell_length_c 19.434653
_cell_angle_alpha 90.000000
_cell_angle_beta 90.000000
_cell_angle_gamma 90.000000
_cell_volume 2332.472664
_symmetry_space_group_name_H-M "I 2 2 2"
_symmetry_group_IT_number 23
_symmetry_cell_setting 'orthorhombic'
loop_
_space_group_symop_operation_xyz
x,y,z
-x,-y,z
x,-y,-z
-x,y,-z
1/2+x,1/2+y,1/2+z
1/2-x,1/2-y,1/2+z
1/2+x,1/2-y,1/2-z
1/2-x,1/2+y,1/2-z
loop_
_atom_site_type_symbol
_atom_site_label
_atom_site_fract_x
_atom_site_fract_y
_atom_site_fract_z
Si Si1 0.146812 0.847833 0.707241
Si Si2 0.623095 0.423843 0.062530
Si Si3 0.198547 0.181401 0.810528
Si Si4 0.949593 0.087261 0.919125
Si Si5 0.000000 0.500000 0.000000
Si Si6 0.589508 0.917103 0.176135
O O1 0.121633 0.879363 0.631885
O O2 0.259567 0.769160 0.697126
O O3 0.269369 0.902313 0.758080
O O4 0.934240 0.838476 0.744232
O O5 0.500000 0.500000 0.074052
O O6 0.500000 0.386044 0.000000
O O7 0.847102 0.447719 0.042089
O O8 0.409021 0.140191 0.815702
O O9 0.074842 0.147785 0.875198
O O10 0.722549 0.096306 0.892342
O O11 0.000000 0.000000 0.901075
O O12 0.000000 0.095880 0.000000
O O13 0.500000 0.000000 0.174980
#
# Coordination Sequence:
#
# PCOD9331478 Si02
#       6
#     8   8   8   8   2   8
#     4  11  24  40  62  89 127 162 196 265 307 362
#     4   9  21  40  60  91 119 153 204 252 298 365
#     4  11  23  43  58  92 126 158 210 251 312 365
#     4  10  22  42  63  91 126 160 207 256 297 368
#     4   8  18  40  60  90 116 152 204 242 296 382
#     4  11  23  39  66  93 118 164 211 247 306 370
#
# _framework density 18.006641999999999
#
# number of rings (size 3 to 8) (size 9 to 14) (size 15 to 20)
#    0.000    1.905    3.810    0.000    4.000    2.286 
#    5.143    0.000    0.000    0.000    0.000    0.000 
#    0.000    0.000    0.000    0.000    0.000    0.000 
#
# Total GULP energy -117059.199368 kJ/mol
# GULP energy per Si atom -5574.247589 kJ/mol
# Density = 1.796566 g / cm^3
# Si number density = 18.006642 Si / 1000 Ang^3
#
#
#
# Elastic Constant Matrix: (Units=GPa)
#
#
# Indices 1 2 3 4 5 6 
#
# 1 136.5213 42.4599 79.3269 0.0000 0.0000 0.0000
# 2 42.4599 46.2312 57.5744 0.0000 0.0000 0.0000
# 3 79.3269 57.5744 166.7809 0.0000 0.0000 0.0000
# 4 0.0000 0.0000 0.0000 31.6479 0.0000 0.0000
# 5 0.0000 0.0000 0.0000 0.0000 160.5068 0.0000
# 6 0.0000 0.0000 0.0000 0.0000 0.0000 32.0857
#
#
#
# Elastic Compliance Matrix: (Units=1/GPa)
#
#
# Indices 1 2 3 4 5 6 
#
# 1 0.011090 -0.006344 -0.003085 0.000000 0.000000 0.000000
# 2 -0.006344 0.041571 -0.011333 0.000000 0.000000 0.000000
# 3 -0.003085 -0.011333 0.011376 0.000000 0.000000 0.000000
# 4 0.000000 0.000000 0.000000 0.031598 0.000000 0.000000
# 5 0.000000 0.000000 0.000000 0.000000 0.006230 0.000000
# 6 0.000000 0.000000 0.000000 0.000000 0.000000 0.031167
#
#
# Mechanical properties :
#
#
# Convention : Reuss Voigt Hill
#
# Bulk Modulus (GPa) = 44.41975 78.69508 61.55742
# Shear Modulus (GPa) = 27.46356 56.19289 41.82823
#
# Velocity S-wave (km/s) = 3.90961 5.59236 4.82491
# Velocity P-wave (km/s) = 6.71581 9.24649 8.08083
#
# Compressibility (1/GPa) = 0.02251251
#
# Stress axis : x y z
#
# Youngs Moduli (GPa) = 90.16758 24.05549 87.90724
#
# Poissons Ratio (x) = 0.15260 0.27120
# Poissons Ratio (y) = 0.57200 0.99628
# Poissons Ratio (z) = 0.27818 0.27263
#
# Static dielectric constant tensor:
#      x y z
#    x 1.625620 0.000000 0.000000 
#    y 0.000000 1.606860 0.000000 
#    z 0.000000 0.000000 1.612480 
# 
# From -- ./inp_files/25690.got.cif
#   From: 2010.05.17/outbox.cif.g08.bks.cpg/sg23_13_cif.got.tgz:25690.got - 2010.06.04 12:02:01.
