data_PCOD9331073
_publ_section_title
;
Structure prediction by ZEFSAII (Michael W. Deem and Ramdas Pophale) SiO2 
 PCOD9331073
Probable space group: I 2 2 2
;
_chemical_formula_sum "Si O2"
_cell_formula_units_Z 48
_cell_length_a 7.552818
_cell_length_b 14.421272
_cell_length_c 17.811504
_cell_angle_alpha 90.000000
_cell_angle_beta 90.000000
_cell_angle_gamma 90.000000
_cell_volume 1940.051151
_symmetry_space_group_name_H-M "I 2 2 2"
_symmetry_group_IT_number 23
_symmetry_cell_setting 'orthorhombic'
loop_
_space_group_symop_operation_xyz
x,y,z
-x,-y,z
x,-y,-z
-x,y,-z
1/2+x,1/2+y,1/2+z
1/2-x,1/2-y,1/2+z
1/2+x,1/2-y,1/2-z
1/2-x,1/2+y,1/2-z
loop_
_atom_site_type_symbol
_atom_site_label
_atom_site_fract_x
_atom_site_fract_y
_atom_site_fract_z
Si Si1 0.802497 0.452896 0.238362
Si Si2 0.078448 0.776259 0.760464
Si Si3 0.787410 0.393878 0.507981
Si Si4 0.267782 0.625813 0.678592
Si Si5 0.712859 0.974161 0.580742
Si Si6 0.123010 0.726080 0.927377
O O1 0.744384 0.347347 0.253919
O O2 0.737595 0.515896 0.307544
O O3 0.723223 0.476029 0.156127
O O4 0.000000 0.500000 0.232821
O O5 0.105099 0.692035 0.703305
O O6 0.046561 0.735680 0.844017
O O7 0.909233 0.842335 0.758608
O O8 0.729711 0.500000 0.500000
O O9 0.719096 0.360856 0.589612
O O10 0.713358 0.322831 0.447352
O O11 0.000000 0.392060 0.500000
O O12 0.741525 0.864360 0.583308
O O13 0.500000 0.000000 0.578301
O O14 0.787208 0.000000 0.500000
O O15 0.000000 0.704992 0.000000
#
# Coordination Sequence:
#
# PCOD9331073 Si02
#       6
#     8   8   8   8   8   8
#     4  11  25  43  71 100 143 188 240 307 373 442
#     4  12  27  44  72 105 146 192 245 303 375 452
#     4  11  28  47  72 104 146 194 246 314 379 438
#     4  12  26  46  69 106 143 190 245 299 373 450
#     4  10  21  39  71 101 135 179 239 302 367 436
#     4  12  23  46  73 106 137 187 251 300 364 452
#
# _framework density 24.741613000000001
#
# number of rings (size 3 to 8) (size 9 to 14) (size 15 to 20)
#    0.000    0.667    5.000    2.500   11.667    0.333 
#    0.000    0.000    0.000    0.000    0.000    0.000 
#    0.000    0.000    0.000    0.000    0.000    0.000 
#
# Total GULP energy -133901.466814 kJ/mol
# GULP energy per Si atom -5579.227784 kJ/mol
# Density = 2.468530 g / cm^3
# Si number density = 24.741613 Si / 1000 Ang^3
#
#
#
# Elastic Constant Matrix: (Units=GPa)
#
#
# Indices 1 2 3 4 5 6 
#
# 1 55.4368 -7.7955 -7.8774 0.0000 0.0000 0.0000
# 2 -7.7955 100.9112 3.7138 0.0000 0.0000 0.0000
# 3 -7.8774 3.7138 123.2684 0.0000 0.0000 0.0000
# 4 0.0000 0.0000 0.0000 22.7850 0.0000 0.0000
# 5 0.0000 0.0000 0.0000 0.0000 21.5209 0.0000
# 6 0.0000 0.0000 0.0000 0.0000 0.0000 13.2900
#
#
#
# Elastic Compliance Matrix: (Units=1/GPa)
#
#
# Indices 1 2 3 4 5 6 
#
# 1 0.018394 0.001379 0.001134 0.000000 0.000000 0.000000
# 2 0.001379 0.010024 -0.000214 0.000000 0.000000 0.000000
# 3 0.001134 -0.000214 0.008191 0.000000 0.000000 0.000000
# 4 0.000000 0.000000 0.000000 0.043888 0.000000 0.000000
# 5 0.000000 0.000000 0.000000 0.000000 0.046467 0.000000
# 6 0.000000 0.000000 0.000000 0.000000 0.000000 0.075245
#
#
# Mechanical properties :
#
#
# Convention : Reuss Voigt Hill
#
# Bulk Modulus (GPa) = 24.26746 28.41091 26.33919
# Shear Modulus (GPa) = 23.65788 30.95754 27.30771
#
# Velocity S-wave (km/s) = 3.09560 3.54112 3.32583
# Velocity P-wave (km/s) = 4.75464 5.31294 5.04152
#
# Compressibility (1/GPa) = 0.04120744
#
# Stress axis : x y z
#
# Youngs Moduli (GPa) = 54.36669 99.75936 122.08106
#
# Poissons Ratio (x) = -0.13759 -0.13842
# Poissons Ratio (y) = -0.07498 0.02611
# Poissons Ratio (z) = -0.06165 0.02134
#
# Static dielectric constant tensor:
#      x y z
#    x 2.204840 0.000000 0.000000 
#    y 0.000000 2.053990 0.000000 
#    z 0.000000 0.000000 1.887070 
# 
# From -- ./inp_files/9956.got.cif
#   From: 2010.05.17/outbox.cif.g08.bks.cpg/sg23_5_cif.got.tgz:9956.got - 2010.06.04 12:02:01.
