data_PCOD9331504
_publ_section_title
;
Structure prediction by ZEFSAII (Michael W. Deem and Ramdas Pophale) SiO2 
 PCOD9331504
Probable space group: I 2 2 2
;
_chemical_formula_sum "Si O2"
_cell_formula_units_Z 48
_cell_length_a 4.909154
_cell_length_b 30.978436
_cell_length_c 14.125938
_cell_angle_alpha 90.000000
_cell_angle_beta 90.000000
_cell_angle_gamma 90.000000
_cell_volume 2148.243170
_symmetry_space_group_name_H-M "I 2 2 2"
_symmetry_group_IT_number 23
_symmetry_cell_setting 'orthorhombic'
loop_
_space_group_symop_operation_xyz
x,y,z
-x,-y,z
x,-y,-z
-x,y,-z
1/2+x,1/2+y,1/2+z
1/2-x,1/2-y,1/2+z
1/2+x,1/2-y,1/2-z
1/2-x,1/2+y,1/2-z
loop_
_atom_site_type_symbol
_atom_site_label
_atom_site_fract_x
_atom_site_fract_y
_atom_site_fract_z
Si Si1 0.335499 0.739017 0.625887
Si Si2 0.000000 0.671908 0.500000
Si Si3 0.845863 0.791417 0.656974
Si Si4 0.547763 0.049117 0.687890
Si Si5 0.055516 0.049562 0.819763
Si Si6 0.733024 0.121872 0.436008
Si Si7 0.500000 0.389096 0.500000
O O1 0.636147 0.757718 0.606905
O O2 0.337238 0.720849 0.732851
O O3 0.175630 0.702536 0.568779
O O4 0.144533 0.780688 0.620704
O O5 0.757020 0.640224 0.531874
O O6 0.797224 0.841595 0.640860
O O7 0.849608 0.057715 0.729956
O O8 0.422640 0.081652 0.611598
O O9 0.357500 0.052877 0.779471
O O10 0.500000 0.000000 0.653305
O O11 0.042414 0.081051 0.908385
O O12 0.000000 0.000000 0.848423
O O13 0.500000 0.142960 0.500000
O O14 0.000000 0.111652 0.500000
#
# Coordination Sequence:
#
# PCOD9331504 Si02
#       7
#     8   4   8   8   8   8   4
#     4  10  23  43  63  91 128 178 217 270 328 399
#     4  12  26  40  63 100 134 174 217 274 346 382
#     4  10  23  42  66  89 127 174 222 267 332 390
#     4  10  23  45  69  95 133 177 214 270 340 401
#     4  10  22  42  68  96 133 180 222 268 327 391
#     4  12  26  42  68 104 127 168 219 279 335 394
#     4  12  25  38  64 102 136 174 224 274 321 396
#
# _framework density 22.34384
#
# number of rings (size 3 to 8) (size 9 to 14) (size 15 to 20)
#    0.000    1.333    0.000    4.250    8.167    0.333 
#    0.000    4.167    0.000    0.000    0.000    0.000 
#    0.000    0.000    0.000    0.000    0.000    0.000 
#
# Total GULP energy -134031.349748 kJ/mol
# GULP energy per Si atom -5584.639573 kJ/mol
# Density = 2.229298 g / cm^3
# Si number density = 22.343840 Si / 1000 Ang^3
#
#
#
# Elastic Constant Matrix: (Units=GPa)
#
#
# Indices 1 2 3 4 5 6 
#
# 1 92.0601 16.0038 13.0148 0.0000 0.0000 0.0000
# 2 16.0038 115.4748 42.3071 0.0000 0.0000 0.0000
# 3 13.0148 42.3071 46.2396 0.0000 0.0000 0.0000
# 4 0.0000 0.0000 0.0000 23.6270 0.0000 0.0000
# 5 0.0000 0.0000 0.0000 0.0000 26.0981 0.0000
# 6 0.0000 0.0000 0.0000 0.0000 0.0000 33.6767
#
#
#
# Elastic Compliance Matrix: (Units=1/GPa)
#
#
# Indices 1 2 3 4 5 6 
#
# 1 0.011341 -0.000605 -0.002638 0.000000 0.000000 0.000000
# 2 -0.000605 0.013059 -0.011778 0.000000 0.000000 0.000000
# 3 -0.002638 -0.011778 0.033145 0.000000 0.000000 0.000000
# 4 0.000000 0.000000 0.000000 0.042324 0.000000 0.000000
# 5 0.000000 0.000000 0.000000 0.000000 0.038317 0.000000
# 6 0.000000 0.000000 0.000000 0.000000 0.000000 0.029694
#
#
# Mechanical properties :
#
#
# Convention : Reuss Voigt Hill
#
# Bulk Modulus (GPa) = 36.36085 44.04730 40.20407
# Shear Modulus (GPa) = 24.14400 28.84360 26.49380
#
# Velocity S-wave (km/s) = 3.29076 3.59680 3.44718
# Velocity P-wave (km/s) = 5.54504 6.08322 5.82035
#
# Compressibility (1/GPa) = 0.02750211
#
# Stress axis : x y z
#
# Youngs Moduli (GPa) = 88.17834 76.57607 30.17012
#
# Poissons Ratio (x) = 0.04634 0.07960
# Poissons Ratio (y) = 0.05336 0.35534
# Poissons Ratio (z) = 0.23265 0.90191
#
# Static dielectric constant tensor:
#      x y z
#    x 1.808600 0.000000 0.000000 
#    y 0.000000 1.838470 0.000000 
#    z 0.000000 0.000000 1.835470 
# 
# From -- ./inp_files/19257.got.cif
#   From: 2010.05.17/outbox.cif.g08.bks.cpg/sg23_10_cif.got.tgz:19257.got - 2010.06.04 12:02:01.
