data_PCOD9331533
_publ_section_title
;
Structure prediction by ZEFSAII (Michael W. Deem and Ramdas Pophale) SiO2 
 PCOD9331533
Probable space group: I 2 2 2
;
_chemical_formula_sum "Si O2"
_cell_formula_units_Z 56
_cell_length_a 8.753594
_cell_length_b 19.060905
_cell_length_c 14.510525
_cell_angle_alpha 90.000000
_cell_angle_beta 90.000000
_cell_angle_gamma 90.000000
_cell_volume 2421.101754
_symmetry_space_group_name_H-M "I 2 2 2"
_symmetry_group_IT_number 23
_symmetry_cell_setting 'orthorhombic'
loop_
_space_group_symop_operation_xyz
x,y,z
-x,-y,z
x,-y,-z
-x,y,-z
1/2+x,1/2+y,1/2+z
1/2-x,1/2-y,1/2+z
1/2+x,1/2-y,1/2-z
1/2-x,1/2+y,1/2-z
loop_
_atom_site_type_symbol
_atom_site_label
_atom_site_fract_x
_atom_site_fract_y
_atom_site_fract_z
Si Si1 0.988588 0.124976 0.602127
Si Si2 0.111341 0.376264 0.634253
Si Si3 0.855867 0.263143 0.656980
Si Si4 0.909914 0.562921 0.213866
Si Si5 0.191581 0.702208 0.861895
Si Si6 0.830321 0.828969 0.993264
Si Si7 0.138705 0.034044 0.234753
O O1 0.147988 0.162658 0.625883
O O2 0.000000 0.095389 0.500000
O O3 0.868375 0.189108 0.606613
O O4 0.935551 0.069786 0.676486
O O5 0.186144 0.373397 0.532807
O O6 0.260831 0.404874 0.688504
O O7 0.019231 0.302748 0.643824
O O8 0.985111 0.423680 0.685508
O O9 0.820872 0.257353 0.764565
O O10 0.721292 0.306985 0.608565
O O11 0.918239 0.634780 0.156444
O O12 0.746664 0.529962 0.235096
O O13 0.000000 0.500000 0.165661
O O14 0.162563 0.758628 0.941919
O O15 0.000000 0.860366 0.000000
O O16 0.000000 0.000000 0.177337
#
# Coordination Sequence:
#
# PCOD9331533 Si02
#       7
#     8   8   8   8   8   8   8
#     4  12  23  41  66 102 145 181 228 288 352 418
#     4  10  22  43  69  93 134 181 221 282 356 400
#     4  11  24  43  70 100 145 178 228 281 366 425
#     4   9  21  43  67  92 132 189 232 264 336 414
#     4  11  23  42  67 100 136 189 221 291 353 408
#     4  12  26  41  68 111 139 170 237 295 350 427
#     4  11  23  40  70 102 131 182 239 282 328 418
#
# _framework density 23.129966
#
# number of rings (size 3 to 8) (size 9 to 14) (size 15 to 20)
#    0.000    1.143    4.286    1.286    4.000    2.571 
#    0.000    0.000    0.000   56.143    0.000    0.000 
#    0.000    0.000    0.000    0.000    0.000    0.000 
#
# Total GULP energy -156124.029574 kJ/mol
# GULP energy per Si atom -5575.858199 kJ/mol
# Density = 2.307732 g / cm^3
# Si number density = 23.129966 Si / 1000 Ang^3
#
#
#
# Elastic Constant Matrix: (Units=GPa)
#
#
# Indices 1 2 3 4 5 6 
#
# 1 111.4558 2.1240 5.1209 0.0000 0.0000 0.0000
# 2 2.1240 71.1214 14.2301 0.0000 0.0000 0.0000
# 3 5.1209 14.2301 66.0469 0.0000 0.0000 0.0000
# 4 0.0000 0.0000 0.0000 8.9313 0.0000 0.0000
# 5 0.0000 0.0000 0.0000 0.0000 31.5146 0.0000
# 6 0.0000 0.0000 0.0000 0.0000 0.0000 29.1673
#
#
#
# Elastic Compliance Matrix: (Units=1/GPa)
#
#
# Indices 1 2 3 4 5 6 
#
# 1 0.009005 -0.000135 -0.000669 0.000000 0.000000 0.000000
# 2 -0.000135 0.014696 -0.003156 0.000000 0.000000 0.000000
# 3 -0.000669 -0.003156 0.015873 0.000000 0.000000 0.000000
# 4 0.000000 0.000000 0.000000 0.111966 0.000000 0.000000
# 5 0.000000 0.000000 0.000000 0.000000 0.031731 0.000000
# 6 0.000000 0.000000 0.000000 0.000000 0.000000 0.034285
#
#
# Mechanical properties :
#
#
# Convention : Reuss Voigt Hill
#
# Bulk Modulus (GPa) = 31.59167 32.39713 31.99440
# Shear Modulus (GPa) = 21.18394 29.06592 25.12493
#
# Velocity S-wave (km/s) = 3.02961 3.54875 3.29941
# Velocity P-wave (km/s) = 5.09176 5.55234 5.32703
#
# Compressibility (1/GPa) = 0.03165391
#
# Stress axis : x y z
#
# Youngs Moduli (GPa) = 111.04341 68.04610 63.00180
#
# Poissons Ratio (x) = 0.00919 0.04216
# Poissons Ratio (y) = 0.01500 0.19882
# Poissons Ratio (z) = 0.07430 0.21474
#
# Static dielectric constant tensor:
#      x y z
#    x 1.984740 0.000000 0.000000 
#    y 0.000000 1.973940 0.000000 
#    z 0.000000 0.000000 1.845980 
# 
# From -- ./inp_files/20209.got.cif
#   From: 2010.05.17/outbox.cif.g08.bks.cpg/sg23_11_cif.got.tgz:20209.got - 2010.06.04 12:02:01.
