data_PCOD9331903
_publ_section_title
;
Structure prediction by ZEFSAII (Michael W. Deem and Ramdas Pophale) SiO2 
 PCOD9331903
Probable space group: I 2 2 2
;
_chemical_formula_sum "Si O2"
_cell_formula_units_Z 34
_cell_length_a 6.671044
_cell_length_b 11.884223
_cell_length_c 19.045324
_cell_angle_alpha 90.000000
_cell_angle_beta 90.000000
_cell_angle_gamma 90.000000
_cell_volume 1509.916611
_symmetry_space_group_name_H-M "I 2 2 2"
_symmetry_group_IT_number 23
_symmetry_cell_setting 'orthorhombic'
loop_
_space_group_symop_operation_xyz
x,y,z
-x,-y,z
x,-y,-z
-x,y,-z
1/2+x,1/2+y,1/2+z
1/2-x,1/2-y,1/2+z
1/2+x,1/2-y,1/2-z
1/2-x,1/2+y,1/2-z
loop_
_atom_site_type_symbol
_atom_site_label
_atom_site_fract_x
_atom_site_fract_y
_atom_site_fract_z
Si Si1 0.744618 0.156982 0.895164
Si Si2 0.992671 0.881333 0.236798
Si Si3 0.157420 0.717601 0.648457
Si Si4 0.500000 0.500000 0.500000
Si Si5 0.493724 0.127676 0.416377
O O1 0.505078 0.157621 0.900392
O O2 0.810421 0.115280 0.818239
O O3 0.827613 0.285801 0.897536
O O4 0.862631 0.081295 0.951691
O O5 0.186239 0.861827 0.188264
O O6 0.963807 0.781452 0.290723
O O7 0.000000 0.000000 0.275250
O O8 0.293201 0.808404 0.608106
O O9 0.500000 0.119985 0.500000
O O10 0.500000 0.000000 0.387384
#
# Coordination Sequence:
#
# PCOD9331903 Si02
#       5
#     8   8   8   2   8
#     4  11  24  47  70 104 146 190 245 293 368 439
#     4  11  24  44  67 104 142 179 243 299 364 436
#     4  11  25  44  72 105 138 190 236 305 368 437
#     4  12  24  52  72 104 158 200 244 310 356 464
#     4  10  24  46  68 101 142 180 240 301 357 437
#
# _framework density 22.517800999999999
#
# number of rings (size 3 to 8) (size 9 to 14) (size 15 to 20)
#    0.000    1.176    4.706    0.000    3.294    1.882 
#    0.000    9.412    0.000    0.000    0.000    0.000 
#    0.000    0.000    0.000    0.000    0.000    0.000 
#
# Total GULP energy -95073.242141 kJ/mol
# GULP energy per Si atom -5592.543655 kJ/mol
# Density = 2.246655 g / cm^3
# Si number density = 22.517801 Si / 1000 Ang^3
#
#
#
# Elastic Constant Matrix: (Units=GPa)
#
#
# Indices 1 2 3 4 5 6 
#
# 1 153.3461 45.2951 26.3483 0.0000 0.0000 0.0000
# 2 45.2951 137.2656 17.0600 0.0000 0.0000 0.0000
# 3 26.3483 17.0600 62.9859 0.0000 0.0000 0.0000
# 4 0.0000 0.0000 0.0000 4.5516 0.0000 0.0000
# 5 0.0000 0.0000 0.0000 0.0000 17.0036 0.0000
# 6 0.0000 0.0000 0.0000 0.0000 0.0000 36.9430
#
#
#
# Elastic Compliance Matrix: (Units=1/GPa)
#
#
# Indices 1 2 3 4 5 6 
#
# 1 0.007613 -0.002190 -0.002592 0.000000 0.000000 0.000000
# 2 -0.002190 0.008169 -0.001296 0.000000 0.000000 0.000000
# 3 -0.002592 -0.001296 0.017312 0.000000 0.000000 0.000000
# 4 0.000000 0.000000 0.000000 0.219704 0.000000 0.000000
# 5 0.000000 0.000000 0.000000 0.000000 0.058811 0.000000
# 6 0.000000 0.000000 0.000000 0.000000 0.000000 0.027069
#
#
# Mechanical properties :
#
#
# Convention : Reuss Voigt Hill
#
# Bulk Modulus (GPa) = 47.76049 59.00050 53.38050
# Shear Modulus (GPa) = 13.97373 29.35924 21.66649
#
# Velocity S-wave (km/s) = 2.49381 3.61477 3.10529
# Velocity P-wave (km/s) = 5.43583 6.60913 6.05099
#
# Compressibility (1/GPa) = 0.02093781
#
# Stress axis : x y z
#
# Youngs Moduli (GPa) = 131.34684 122.41410 57.76390
#
# Poissons Ratio (x) = 0.26811 0.14970
# Poissons Ratio (y) = 0.28767 0.07489
# Poissons Ratio (z) = 0.34040 0.15870
#
# Static dielectric constant tensor:
#      x y z
#    x 1.848810 0.000000 0.000000 
#    y 0.000000 1.866930 0.000000 
#    z 0.000000 0.000000 1.801150 
# 
# From -- ./inp_files/1570.got.cif
#   From: 2010.05.17/outbox.cif.g08.bks.cpg/sg23_1_cif.got.tgz:1570.got - 2010.06.04 12:02:01.
