data_PCOD9331101
_publ_section_title
;
Structure prediction by ZEFSAII (Michael W. Deem and Ramdas Pophale) SiO2 
 PCOD9331101
Probable space group: I 2 2 2
;
_chemical_formula_sum "Si O2"
_cell_formula_units_Z 58
_cell_length_a 20.787688
_cell_length_b 16.712379
_cell_length_c 8.362890
_cell_angle_alpha 90.000000
_cell_angle_beta 90.000000
_cell_angle_gamma 90.000000
_cell_volume 2905.366002
_symmetry_space_group_name_H-M "I 2 2 2"
_symmetry_group_IT_number 23
_symmetry_cell_setting 'orthorhombic'
loop_
_space_group_symop_operation_xyz
x,y,z
-x,-y,z
x,-y,-z
-x,y,-z
1/2+x,1/2+y,1/2+z
1/2-x,1/2-y,1/2+z
1/2+x,1/2-y,1/2-z
1/2-x,1/2+y,1/2-z
loop_
_atom_site_type_symbol
_atom_site_label
_atom_site_fract_x
_atom_site_fract_y
_atom_site_fract_z
Si Si1 0.444641 0.761368 0.119241
Si Si2 0.605212 0.370428 0.361520
Si Si3 0.306533 0.208454 0.944649
Si Si4 0.815118 0.720699 0.063558
Si Si5 0.490209 0.093716 0.308455
Si Si6 0.757578 0.063858 0.859907
Si Si7 0.000000 0.000000 0.000000
Si Si8 0.643722 0.931297 0.375780
O O1 0.429784 0.687758 0.236620
O O2 0.380247 0.776737 0.018742
O O3 0.466891 0.841666 0.214488
O O4 0.500000 0.738344 0.000000
O O5 0.641357 0.300611 0.470253
O O6 0.670655 0.413926 0.299580
O O7 0.552431 0.435946 0.421320
O O8 0.307685 0.205122 0.752227
O O9 0.255746 0.275985 0.988915
O O10 0.277457 0.136385 0.047011
O O11 0.845736 0.644909 0.984646
O O12 0.500000 0.107152 0.500000
O O13 0.414776 0.097699 0.265534
O O14 0.500000 0.000000 0.273054
O O15 0.706940 0.041839 0.721290
O O16 0.766498 0.000000 0.000000
O O17 0.623099 0.000000 0.500000
#
# Coordination Sequence:
#
# PCOD9331101 Si02
#       8
#     8   8   8   8   8   8   2   8
#     4  11  24  42  64  98 135 172 213 271 335 392
#     4  10  24  43  70  90 125 159 227 269 330 399
#     4  10  21  40  64  93 128 169 215 266 320 391
#     4  10  21  40  66  94 128 165 219 269 319 386
#     4  11  23  39  60  95 142 181 224 256 308 404
#     4  11  23  42  65  96 130 170 223 274 325 388
#     4  12  24  48  66  96 110 168 216 284 336 400
#     4  12  23  38  62  96 134 180 215 264 322 384
#
# _framework density 19.963062000000001
#
# number of rings (size 3 to 8) (size 9 to 14) (size 15 to 20)
#    0.000    1.241    2.069    5.793    4.828    0.276 
#    2.483    1.724    0.000    0.000    0.000    0.000 
#    0.000    0.000    0.000    0.000    0.000    0.000 
#
# Total GULP energy -161446.465349 kJ/mol
# GULP energy per Si atom -5567.119495 kJ/mol
# Density = 1.991763 g / cm^3
# Si number density = 19.963062 Si / 1000 Ang^3
#
#
#
# Elastic Constant Matrix: (Units=GPa)
#
#
# Indices 1 2 3 4 5 6 
#
# 1 187.8349 57.3085 40.6370 0.0000 0.0000 0.0000
# 2 57.3085 80.0095 19.0969 0.0000 0.0000 0.0000
# 3 40.6370 19.0969 40.8104 0.0000 0.0000 0.0000
# 4 0.0000 0.0000 0.0000 20.2667 0.0000 0.0000
# 5 0.0000 0.0000 0.0000 0.0000 39.5794 0.0000
# 6 0.0000 0.0000 0.0000 0.0000 0.0000 13.6521
#
#
#
# Elastic Compliance Matrix: (Units=1/GPa)
#
#
# Indices 1 2 3 4 5 6 
#
# 1 0.007890 -0.004251 -0.005867 0.000000 0.000000 0.000000
# 2 -0.004251 0.016360 -0.003423 0.000000 0.000000 0.000000
# 3 -0.005867 -0.003423 0.031948 0.000000 0.000000 0.000000
# 4 0.000000 0.000000 0.000000 0.049342 0.000000 0.000000
# 5 0.000000 0.000000 0.000000 0.000000 0.025266 0.000000
# 6 0.000000 0.000000 0.000000 0.000000 0.000000 0.073249
#
#
# Mechanical properties :
#
#
# Convention : Reuss Voigt Hill
#
# Bulk Modulus (GPa) = 34.34554 60.30441 47.32498
# Shear Modulus (GPa) = 20.76043 27.47379 24.11711
#
# Velocity S-wave (km/s) = 3.22831 3.71378 3.47952
# Velocity P-wave (km/s) = 5.58013 6.97590 6.31669
#
# Compressibility (1/GPa) = 0.02911586
#
# Stress axis : x y z
#
# Youngs Moduli (GPa) = 126.73929 61.12330 31.30118
#
# Poissons Ratio (x) = 0.25984 0.18366
# Poissons Ratio (y) = 0.53878 0.10713
# Poissons Ratio (z) = 0.74363 0.20921
#
# Static dielectric constant tensor:
#      x y z
#    x 1.744730 0.000000 0.000000 
#    y 0.000000 1.770310 0.000000 
#    z 0.000000 0.000000 1.707810 
# 
# From -- ./inp_files/11284.got.cif
#   From: 2010.05.17/outbox.cif.g08.bks.cpg/sg23_6_cif.got.tgz:11284.got - 2010.06.04 12:02:01.
