data_PCOD9331035
_publ_section_title
;
Structure prediction by ZEFSAII (Michael W. Deem and Ramdas Pophale) SiO2 
 PCOD9331035
Probable space group: I 2 2 2
;
_chemical_formula_sum "Si O2"
_cell_formula_units_Z 56
_cell_length_a 22.817660
_cell_length_b 14.775714
_cell_length_c 7.248146
_cell_angle_alpha 90.000000
_cell_angle_beta 90.000000
_cell_angle_gamma 90.000000
_cell_volume 2443.692262
_symmetry_space_group_name_H-M "I 2 2 2"
_symmetry_group_IT_number 23
_symmetry_cell_setting 'orthorhombic'
loop_
_space_group_symop_operation_xyz
x,y,z
-x,-y,z
x,-y,-z
-x,y,-z
1/2+x,1/2+y,1/2+z
1/2-x,1/2-y,1/2+z
1/2+x,1/2-y,1/2-z
1/2-x,1/2+y,1/2-z
loop_
_atom_site_type_symbol
_atom_site_label
_atom_site_fract_x
_atom_site_fract_y
_atom_site_fract_z
Si Si1 0.687291 0.790794 0.393846
Si Si2 0.611216 0.686619 0.866849
Si Si3 0.547817 0.417138 0.812950
Si Si4 0.798827 0.670640 0.330627
Si Si5 0.940796 0.762135 0.975280
Si Si6 0.702740 0.988208 0.297614
Si Si7 0.330909 0.512271 0.281027
O O1 0.733130 0.708216 0.367802
O O2 0.694211 0.813575 0.610529
O O3 0.618312 0.769989 0.373715
O O4 0.702524 0.879848 0.271546
O O5 0.563590 0.642945 0.005122
O O6 0.653550 0.766716 0.935037
O O7 0.578668 0.717227 0.682696
O O8 0.656699 0.612390 0.790826
O O9 0.500000 0.500000 0.813857
O O10 0.539518 0.349473 0.643509
O O11 0.611062 0.461387 0.778839
O O12 0.816654 0.565016 0.346513
O O13 0.000000 0.703503 0.000000
O O14 0.674110 0.000000 0.500000
O O15 0.770842 0.018266 0.308295
O O16 0.324932 0.500000 0.500000
#
# Coordination Sequence:
#
# PCOD9331035 Si02
#       7
#     8   8   8   8   8   8   8
#     4  10  22  40  65  97 137 184 226 288 352 407
#     4  11  24  44  62  93 137 182 228 286 339 411
#     4  12  27  42  65  92 138 191 231 269 344 413
#     4  10  22  38  65  95 135 179 228 285 348 414
#     4  11  25  43  65  95 137 178 230 288 337 413
#     4  10  21  39  64  95 133 177 229 282 346 416
#     4  12  23  37  56  94 134 175 226 278 330 407
#
# _framework density 22.916143000000002
#
# number of rings (size 3 to 8) (size 9 to 14) (size 15 to 20)
#    0.000    1.143    2.857    3.000    6.000    4.571 
#    0.000    0.000    0.000   10.714    0.000    0.000 
#    0.000   13.714    0.000    0.000    0.000    0.000 
#
# Total GULP energy -156257.278169 kJ/mol
# GULP energy per Si atom -5580.617077 kJ/mol
# Density = 2.286398 g / cm^3
# Si number density = 22.916143 Si / 1000 Ang^3
#
#
#
# Elastic Constant Matrix: (Units=GPa)
#
#
# Indices 1 2 3 4 5 6 
#
# 1 139.7464 52.3782 21.1769 0.0000 0.0000 0.0000
# 2 52.3782 121.2463 36.2646 0.0000 0.0000 0.0000
# 3 21.1769 36.2646 101.4060 0.0000 0.0000 0.0000
# 4 0.0000 0.0000 0.0000 36.6144 0.0000 0.0000
# 5 0.0000 0.0000 0.0000 0.0000 17.8462 0.0000
# 6 0.0000 0.0000 0.0000 0.0000 0.0000 31.3218
#
#
#
# Elastic Compliance Matrix: (Units=1/GPa)
#
#
# Indices 1 2 3 4 5 6 
#
# 1 0.008563 -0.003543 -0.000521 0.000000 0.000000 0.000000
# 2 -0.003543 0.010702 -0.003087 0.000000 0.000000 0.000000
# 3 -0.000521 -0.003087 0.011074 0.000000 0.000000 0.000000
# 4 0.000000 0.000000 0.000000 0.027312 0.000000 0.000000
# 5 0.000000 0.000000 0.000000 0.000000 0.056034 0.000000
# 6 0.000000 0.000000 0.000000 0.000000 0.000000 0.031927
#
#
# Mechanical properties :
#
#
# Convention : Reuss Voigt Hill
#
# Bulk Modulus (GPa) = 62.36079 64.67092 63.51586
# Shear Modulus (GPa) = 30.25542 33.99508 32.12525
#
# Velocity S-wave (km/s) = 3.63749 3.85574 3.74821
# Velocity P-wave (km/s) = 6.70175 6.93573 6.81974
#
# Compressibility (1/GPa) = 0.01603572
#
# Stress axis : x y z
#
# Youngs Moduli (GPa) = 116.78379 93.44275 90.30003
#
# Poissons Ratio (x) = 0.33109 0.04705
# Poissons Ratio (y) = 0.41380 0.27877
# Poissons Ratio (z) = 0.06085 0.28847
#
# Static dielectric constant tensor:
#      x y z
#    x 1.983690 0.000000 0.000000 
#    y 0.000000 2.177780 0.000000 
#    z 0.000000 0.000000 1.974180 
# 
# From -- ./inp_files/12050.got.cif
#   From: 2010.05.17/outbox.cif.g08.bks.cpg/sg23_7_cif.got.tgz:12050.got - 2010.06.04 12:02:01.
