data_PCOD9331121
_publ_section_title
;
Structure prediction by ZEFSAII (Michael W. Deem and Ramdas Pophale) SiO2 
 PCOD9331121
Probable space group: I 2 2 2
;
_chemical_formula_sum "Si O2"
_cell_formula_units_Z 48
_cell_length_a 12.559546
_cell_length_b 13.150439
_cell_length_c 14.117768
_cell_angle_alpha 90.000000
_cell_angle_beta 90.000000
_cell_angle_gamma 90.000000
_cell_volume 2331.740590
_symmetry_space_group_name_H-M "I 2 2 2"
_symmetry_group_IT_number 23
_symmetry_cell_setting 'orthorhombic'
loop_
_space_group_symop_operation_xyz
x,y,z
-x,-y,z
x,-y,-z
-x,y,-z
1/2+x,1/2+y,1/2+z
1/2-x,1/2-y,1/2+z
1/2+x,1/2-y,1/2-z
1/2-x,1/2+y,1/2-z
loop_
_atom_site_type_symbol
_atom_site_label
_atom_site_fract_x
_atom_site_fract_y
_atom_site_fract_z
Si Si1 0.992529 0.205328 0.346272
Si Si2 0.403226 0.192900 0.437763
Si Si3 0.423257 0.089371 0.244927
Si Si4 0.710993 0.043945 0.098043
Si Si5 0.333540 0.738926 0.018505
Si Si6 0.064504 0.097302 0.839877
O O1 0.989585 0.315699 0.295930
O O2 0.897962 0.216036 0.423108
O O3 0.972086 0.124453 0.265266
O O4 0.101812 0.180644 0.399744
O O5 0.500000 0.146954 0.500000
O O6 0.372204 0.132293 0.341477
O O7 0.290932 0.213250 0.489888
O O8 0.448419 0.301789 0.402517
O O9 0.500000 0.000000 0.276652
O O10 0.354996 0.037825 0.159655
O O11 0.653154 0.144411 0.056218
O O12 0.809753 0.077257 0.161104
O O13 0.756385 0.000000 0.000000
O O14 0.000000 0.000000 0.875188
#
# Coordination Sequence:
#
# PCOD9331121 Si02
#       6
#     8   8   8   8   8   8
#     4  10  21  41  64  95 126 167 210 266 315 383
#     4  10  25  43  62  94 128 173 210 264 325 383
#     4  11  22  39  65  95 128 161 213 270 320 377
#     4  11  22  37  66  98 125 162 212 271 323 378
#     4  10  21  40  67  91 127 165 212 263 324 377
#     4  10  25  40  62  92 128 169 213 257 317 383
#
# _framework density 20.585481000000001
#
# number of rings (size 3 to 8) (size 9 to 14) (size 15 to 20)
#    0.000    1.667    3.333    0.000    7.000    2.000 
#    6.000    1.667    0.000    0.000    0.000    0.000 
#    0.000    0.000    0.000    0.000    0.000    0.000 
#
# Total GULP energy -133754.377396 kJ/mol
# GULP energy per Si atom -5573.099058 kJ/mol
# Density = 2.053863 g / cm^3
# Si number density = 20.585481 Si / 1000 Ang^3
#
#
#
# Elastic Constant Matrix: (Units=GPa)
#
#
# Indices 1 2 3 4 5 6 
#
# 1 58.4732 9.0009 36.4112 0.0000 0.0000 0.0000
# 2 9.0009 46.0263 20.0870 0.0000 0.0000 0.0000
# 3 36.4112 20.0870 60.8603 0.0000 0.0000 0.0000
# 4 0.0000 0.0000 0.0000 11.0571 0.0000 0.0000
# 5 0.0000 0.0000 0.0000 0.0000 25.7432 0.0000
# 6 0.0000 0.0000 0.0000 0.0000 0.0000 18.8466
#
#
#
# Elastic Compliance Matrix: (Units=1/GPa)
#
#
# Indices 1 2 3 4 5 6 
#
# 1 0.027429 0.002100 -0.017103 0.000000 0.000000 0.000000
# 2 0.002100 0.025544 -0.009687 0.000000 0.000000 0.000000
# 3 -0.017103 -0.009687 0.029861 0.000000 0.000000 0.000000
# 4 0.000000 0.000000 0.000000 0.090439 0.000000 0.000000
# 5 0.000000 0.000000 0.000000 0.000000 0.038845 0.000000
# 6 0.000000 0.000000 0.000000 0.000000 0.000000 0.053060
#
#
# Mechanical properties :
#
#
# Convention : Reuss Voigt Hill
#
# Bulk Modulus (GPa) = 29.89276 32.92867 31.41071
# Shear Modulus (GPa) = 15.35114 17.78676 16.56895
#
# Velocity S-wave (km/s) = 2.73376 2.94265 2.84013
# Velocity P-wave (km/s) = 4.95151 5.25132 5.10362
#
# Compressibility (1/GPa) = 0.03345292
#
# Stress axis : x y z
#
# Youngs Moduli (GPa) = 36.45824 39.14856 33.48882
#
# Poissons Ratio (x) = -0.08222 0.57276
# Poissons Ratio (y) = -0.07657 0.32441
# Poissons Ratio (z) = 0.62355 0.37924
#
# Static dielectric constant tensor:
#      x y z
#    x 1.764110 0.000000 0.000000 
#    y 0.000000 1.791130 0.000000 
#    z 0.000000 0.000000 1.744890 
# 
# From -- ./inp_files/16695.got.cif
#   From: 2010.05.17/outbox.cif.g08.bks.cpg/sg23_9_cif.got.tgz:16695.got - 2010.06.04 12:02:01.
