data_PCOD9331496
_publ_section_title
;
Structure prediction by ZEFSAII (Michael W. Deem and Ramdas Pophale) SiO2 
 PCOD9331496
Probable space group: I 2 2 2
;
_chemical_formula_sum "Si O2"
_cell_formula_units_Z 26
_cell_length_a 8.050374
_cell_length_b 4.902899
_cell_length_c 29.911545
_cell_angle_alpha 90.000000
_cell_angle_beta 90.000000
_cell_angle_gamma 90.000000
_cell_volume 1180.613785
_symmetry_space_group_name_H-M "I 2 2 2"
_symmetry_group_IT_number 23
_symmetry_cell_setting 'orthorhombic'
loop_
_space_group_symop_operation_xyz
x,y,z
-x,-y,z
x,-y,-z
-x,y,-z
1/2+x,1/2+y,1/2+z
1/2-x,1/2-y,1/2+z
1/2+x,1/2-y,1/2-z
1/2-x,1/2+y,1/2-z
loop_
_atom_site_type_symbol
_atom_site_label
_atom_site_fract_x
_atom_site_fract_y
_atom_site_fract_z
Si Si1 0.837359 0.853928 0.586859
Si Si2 0.000000 0.000000 0.500000
Si Si3 0.810114 0.595985 0.276497
Si Si4 0.825492 0.157183 0.127201
O O1 0.691804 0.065800 0.599037
O O2 0.883116 0.837131 0.534435
O O3 0.800956 0.561431 0.606215
O O4 0.000000 0.000000 0.607686
O O5 0.706252 0.334614 0.259879
O O6 0.730237 0.707673 0.322051
O O7 0.000000 0.500000 0.282487
O O8 0.000000 0.000000 0.126155
#
# Coordination Sequence:
#
# PCOD9331496 Si02
#       4
#     8   2   8   8
#     4  10  22  42  67  91 124 170 215 263 323 388
#     4   8  24  42  74  90 132 162 230 266 332 386
#     4  12  25  43  65  94 131 173 216 266 321 380
#     4  12  24  41  64  97 131 169 215 268 323 385
#
# _framework density 22.022442000000002
#
# number of rings (size 3 to 8) (size 9 to 14) (size 15 to 20)
#    0.923    0.000    0.000    8.308    0.000    2.462 
#    0.000    4.615    0.000    0.000    0.000    0.000 
#    0.000    0.000    0.000    0.000    0.000    0.000 
#
# Total GULP energy -72673.549860 kJ/mol
# GULP energy per Si atom -5590.273066 kJ/mol
# Density = 2.197232 g / cm^3
# Si number density = 22.022442 Si / 1000 Ang^3
#
#
#
# Elastic Constant Matrix: (Units=GPa)
#
#
# Indices 1 2 3 4 5 6 
#
# 1 92.1529 -1.2502 21.5791 0.0000 0.0000 0.0000
# 2 -1.2502 98.6707 18.8044 0.0000 0.0000 0.0000
# 3 21.5791 18.8044 98.8518 0.0000 0.0000 0.0000
# 4 0.0000 0.0000 0.0000 10.9458 0.0000 0.0000
# 5 0.0000 0.0000 0.0000 0.0000 92.9805 0.0000
# 6 0.0000 0.0000 0.0000 0.0000 0.0000 31.1986
#
#
#
# Elastic Compliance Matrix: (Units=1/GPa)
#
#
# Indices 1 2 3 4 5 6 
#
# 1 0.011476 0.000646 -0.002628 0.000000 0.000000 0.000000
# 2 0.000646 0.010552 -0.002148 0.000000 0.000000 0.000000
# 3 -0.002628 -0.002148 0.011099 0.000000 0.000000 0.000000
# 4 0.000000 0.000000 0.000000 0.091359 0.000000 0.000000
# 5 0.000000 0.000000 0.000000 0.000000 0.010755 0.000000
# 6 0.000000 0.000000 0.000000 0.000000 0.000000 0.032053
#
#
# Mechanical properties :
#
#
# Convention : Reuss Voigt Hill
#
# Bulk Modulus (GPa) = 40.21534 40.88244 40.54889
# Shear Modulus (GPa) = 27.19720 43.72780 35.46250
#
# Velocity S-wave (km/s) = 3.51804 4.46084 4.01719
# Velocity P-wave (km/s) = 5.89939 6.71837 6.32215
#
# Compressibility (1/GPa) = 0.02486613
#
# Stress axis : x y z
#
# Youngs Moduli (GPa) = 87.14068 94.76564 90.10187
#
# Poissons Ratio (x) = -0.06124 0.23679
# Poissons Ratio (y) = -0.05631 0.19358
# Poissons Ratio (z) = 0.22901 0.20360
#
# Static dielectric constant tensor:
#      x y z
#    x 1.870050 0.000000 0.000000 
#    y 0.000000 1.761260 0.000000 
#    z 0.000000 0.000000 1.800220 
# 
# From -- ./inp_files/556.got.cif
#   From: 2010.05.17/outbox.cif.g08.bks.cpg/sg23_1_cif.got.tgz:556.got - 2010.06.04 12:02:01.
