data_PCOD9331004
_publ_section_title
;
Structure prediction by ZEFSAII (Michael W. Deem and Ramdas Pophale) SiO2 
 PCOD9331004
Probable space group: I 2 2 2
;
_chemical_formula_sum "Si O2"
_cell_formula_units_Z 44
_cell_length_a 13.660672
_cell_length_b 9.433528
_cell_length_c 16.747419
_cell_angle_alpha 90.000000
_cell_angle_beta 90.000000
_cell_angle_gamma 90.000000
_cell_volume 2158.211949
_symmetry_space_group_name_H-M "I 2 2 2"
_symmetry_group_IT_number 23
_symmetry_cell_setting 'orthorhombic'
loop_
_space_group_symop_operation_xyz
x,y,z
-x,-y,z
x,-y,-z
-x,y,-z
1/2+x,1/2+y,1/2+z
1/2-x,1/2-y,1/2+z
1/2+x,1/2-y,1/2-z
1/2-x,1/2+y,1/2-z
loop_
_atom_site_type_symbol
_atom_site_label
_atom_site_fract_x
_atom_site_fract_y
_atom_site_fract_z
Si Si1 0.000000 0.000000 0.500000
Si Si2 0.199190 0.659470 0.157733
Si Si3 0.139922 0.656155 0.876737
Si Si4 0.000000 0.500000 0.000000
Si Si5 0.399040 0.733790 0.103742
Si Si6 0.768180 0.162095 0.005695
Si Si7 0.511828 0.830565 0.246584
O O1 0.932410 0.097221 0.555296
O O2 0.191752 0.489371 0.151416
O O3 0.312130 0.699965 0.166774
O O4 0.177840 0.741390 0.073682
O O5 0.119807 0.707281 0.222374
O O6 0.070604 0.723130 0.808975
O O7 0.064918 0.596694 0.942850
O O8 0.213696 0.761268 0.921529
O O9 0.343500 0.832744 0.039239
O O10 0.487718 0.789779 0.156337
O O11 0.801221 0.000000 0.000000
O O12 0.500000 0.000000 0.252840
#
# Coordination Sequence:
#
# PCOD9331004 Si02
#       7
#     2   8   8   2   8   8   8
#     4  12  24  50  74  92 126 182 230 266 324 416
#     4   9  19  41  63  94 127 174 228 265 323 402
#     4  11  17  35  69  91 127 179 226 276 330 404
#     4  12  12  30  66  88 120 172 234 262 312 404
#     4  10  24  44  63  98 128 173 222 267 328 400
#     4  10  21  39  61  99 135 169 218 276 338 390
#     4  10  21  42  66  97 130 172 223 282 342 386
#
# _framework density 20.387246000000001
#
# number of rings (size 3 to 8) (size 9 to 14) (size 15 to 20)
#    1.091    0.727    4.545    1.091    0.000    1.455 
#   19.636    3.182    0.000    0.000    0.000    0.000 
#    0.000    0.000    0.000    0.000    0.000    0.000 
#
# Total GULP energy -122480.302344 kJ/mol
# GULP energy per Si atom -5567.286470 kJ/mol
# Density = 2.034084 g / cm^3
# Si number density = 20.387246 Si / 1000 Ang^3
#
#
#
# Elastic Constant Matrix: (Units=GPa)
#
#
# Indices 1 2 3 4 5 6 
#
# 1 67.9909 13.6006 38.1725 0.0000 0.0000 0.0000
# 2 13.6006 54.3707 17.8549 0.0000 0.0000 0.0000
# 3 38.1725 17.8549 81.1167 0.0000 0.0000 0.0000
# 4 0.0000 0.0000 0.0000 19.6609 0.0000 0.0000
# 5 0.0000 0.0000 0.0000 0.0000 29.9461 0.0000
# 6 0.0000 0.0000 0.0000 0.0000 0.0000 22.4228
#
#
#
# Elastic Compliance Matrix: (Units=1/GPa)
#
#
# Indices 1 2 3 4 5 6 
#
# 1 0.020205 -0.002082 -0.009050 0.000000 0.000000 0.000000
# 2 -0.002082 0.020040 -0.003431 0.000000 0.000000 0.000000
# 3 -0.009050 -0.003431 0.017342 0.000000 0.000000 0.000000
# 4 0.000000 0.000000 0.000000 0.050862 0.000000 0.000000
# 5 0.000000 0.000000 0.000000 0.000000 0.033393 0.000000
# 6 0.000000 0.000000 0.000000 0.000000 0.000000 0.044598
#
#
# Mechanical properties :
#
#
# Convention : Reuss Voigt Hill
#
# Bulk Modulus (GPa) = 35.13671 38.08159 36.60915
# Shear Modulus (GPa) = 22.21683 23.32928 22.77306
#
# Velocity S-wave (km/s) = 3.30470 3.38643 3.34582
# Velocity P-wave (km/s) = 5.64212 5.83183 5.73776
#
# Compressibility (1/GPa) = 0.02846026
#
# Stress axis : x y z
#
# Youngs Moduli (GPa) = 49.49164 49.90044 57.66340
#
# Poissons Ratio (x) = 0.10391 0.52186
# Poissons Ratio (y) = 0.10306 0.19785
# Poissons Ratio (z) = 0.44790 0.17122
#
# Static dielectric constant tensor:
#      x y z
#    x 1.782660 0.000000 0.000000 
#    y 0.000000 1.695120 0.000000 
#    z 0.000000 0.000000 1.743260 
# 
# From -- ./inp_files/24703.got.cif
#   From: 2010.05.17/outbox.cif.g08.bks.cpg/sg23_13_cif.got.tgz:24703.got - 2010.06.04 12:02:01.
