data_PCOD9331160
_publ_section_title
;
Structure prediction by ZEFSAII (Michael W. Deem and Ramdas Pophale) SiO2 
 PCOD9331160
Probable space group: I 2 2 2
;
_chemical_formula_sum "Si O2"
_cell_formula_units_Z 48
_cell_length_a 17.097077
_cell_length_b 8.443682
_cell_length_c 13.457674
_cell_angle_alpha 90.000000
_cell_angle_beta 90.000000
_cell_angle_gamma 90.000000
_cell_volume 1942.780520
_symmetry_space_group_name_H-M "I 2 2 2"
_symmetry_group_IT_number 23
_symmetry_cell_setting 'orthorhombic'
loop_
_space_group_symop_operation_xyz
x,y,z
-x,-y,z
x,-y,-z
-x,y,-z
1/2+x,1/2+y,1/2+z
1/2-x,1/2-y,1/2+z
1/2+x,1/2-y,1/2-z
1/2-x,1/2+y,1/2-z
loop_
_atom_site_type_symbol
_atom_site_label
_atom_site_fract_x
_atom_site_fract_y
_atom_site_fract_z
Si Si1 0.760176 0.983548 0.780501
Si Si2 0.838234 0.191319 0.635924
Si Si3 0.019203 0.323817 0.256186
Si Si4 0.387779 0.828063 0.452214
Si Si5 0.720062 0.172792 0.945391
Si Si6 0.075703 0.110979 0.863949
O O1 0.791452 0.035477 0.672474
O O2 0.706658 0.118840 0.832535
O O3 0.711252 0.827005 0.804432
O O4 0.842509 0.973634 0.841073
O O5 0.926281 0.216399 0.673916
O O6 0.834936 0.229291 0.519362
O O7 0.067351 0.335874 0.152039
O O8 0.000000 0.500000 0.293960
O O9 0.940741 0.235254 0.223841
O O10 0.299052 0.773407 0.441938
O O11 0.419125 0.702593 0.532539
O O12 0.393885 0.000000 0.500000
O O13 0.727417 0.000000 0.000000
O O14 0.000000 0.000000 0.863226
#
# Coordination Sequence:
#
# PCOD9331160 Si02
#       6
#     8   8   8   8   8   8
#     4  11  24  42  65  98 131 177 226 278 336 404
#     4  11  24  41  64  94 137 177 226 275 332 402
#     4  12  26  39  60 100 139 176 219 282 339 411
#     4  12  23  37  58  98 137 169 212 268 348 407
#     4  10  21  41  65  91 133 177 223 267 324 402
#     4  12  23  41  62  92 135 177 217 271 344 411
#
# _framework density 24.706858
#
# number of rings (size 3 to 8) (size 9 to 14) (size 15 to 20)
#    0.000    0.667    8.333    0.500    4.667    2.000 
#    0.000    0.000    0.000    4.500    0.000    0.000 
#    0.000    0.000    0.000    0.000    0.000    0.000 
#
# Total GULP energy -134252.214699 kJ/mol
# GULP energy per Si atom -5593.842279 kJ/mol
# Density = 2.465062 g / cm^3
# Si number density = 24.706858 Si / 1000 Ang^3
#
#
#
# Elastic Constant Matrix: (Units=GPa)
#
#
# Indices 1 2 3 4 5 6 
#
# 1 78.0016 2.9282 20.6510 0.0000 0.0000 0.0000
# 2 2.9282 56.3121 7.1532 0.0000 0.0000 0.0000
# 3 20.6510 7.1532 55.4921 0.0000 0.0000 0.0000
# 4 0.0000 0.0000 0.0000 28.9961 0.0000 0.0000
# 5 0.0000 0.0000 0.0000 0.0000 25.0826 0.0000
# 6 0.0000 0.0000 0.0000 0.0000 0.0000 32.2211
#
#
#
# Elastic Compliance Matrix: (Units=1/GPa)
#
#
# Indices 1 2 3 4 5 6 
#
# 1 0.014222 -0.000068 -0.005284 0.000000 0.000000 0.000000
# 2 -0.000068 0.018054 -0.002302 0.000000 0.000000 0.000000
# 3 -0.005284 -0.002302 0.020284 0.000000 0.000000 0.000000
# 4 0.000000 0.000000 0.000000 0.034487 0.000000 0.000000
# 5 0.000000 0.000000 0.000000 0.000000 0.039868 0.000000
# 6 0.000000 0.000000 0.000000 0.000000 0.000000 0.031036
#
#
# Mechanical properties :
#
#
# Convention : Reuss Voigt Hill
#
# Bulk Modulus (GPa) = 26.84445 27.91896 27.38170
# Shear Modulus (GPa) = 26.92871 27.86487 27.39679
#
# Velocity S-wave (km/s) = 3.30499 3.36195 3.33359
# Velocity P-wave (km/s) = 5.04507 5.13759 5.09154
#
# Compressibility (1/GPa) = 0.03725165
#
# Stress axis : x y z
#
# Youngs Moduli (GPa) = 70.31525 55.38903 49.30099
#
# Poissons Ratio (x) = 0.00379 0.26049
# Poissons Ratio (y) = 0.00481 0.11348
# Poissons Ratio (z) = 0.37152 0.12750
#
# Static dielectric constant tensor:
#      x y z
#    x 1.924680 0.000000 0.000000 
#    y 0.000000 2.044460 0.000000 
#    z 0.000000 0.000000 2.010570 
# 
# From -- ./inp_files/22030.got.cif
#   From: 2010.05.17/outbox.cif.g08.bks.cpg/sg23_12_cif.got.tgz:22030.got - 2010.06.04 12:02:01.
