data_PCOD9331053
_publ_section_title
;
Structure prediction by ZEFSAII (Michael W. Deem and Ramdas Pophale) SiO2 
 PCOD9331053
Probable space group: I 2 2 2
;
_chemical_formula_sum "Si O2"
_cell_formula_units_Z 60
_cell_length_a 12.333394
_cell_length_b 10.261639
_cell_length_c 20.344750
_cell_angle_alpha 90.000000
_cell_angle_beta 90.000000
_cell_angle_gamma 90.000000
_cell_volume 2574.848586
_symmetry_space_group_name_H-M "I 2 2 2"
_symmetry_group_IT_number 23
_symmetry_cell_setting 'orthorhombic'
loop_
_space_group_symop_operation_xyz
x,y,z
-x,-y,z
x,-y,-z
-x,y,-z
1/2+x,1/2+y,1/2+z
1/2-x,1/2-y,1/2+z
1/2+x,1/2-y,1/2-z
1/2-x,1/2+y,1/2-z
loop_
_atom_site_type_symbol
_atom_site_label
_atom_site_fract_x
_atom_site_fract_y
_atom_site_fract_z
Si Si1 0.163642 0.000000 0.000000
Si Si2 0.667517 0.520739 0.205770
Si Si3 0.543913 0.174472 0.119073
Si Si4 0.479568 0.302218 0.747780
Si Si5 0.825962 0.420518 0.387475
Si Si6 0.122346 0.699624 0.000241
Si Si7 0.173015 0.298987 0.152445
Si Si8 0.332333 0.579672 0.063778
O O1 0.237027 0.036207 0.061112
O O2 0.113689 0.143511 0.985053
O O3 0.584899 0.606756 0.249011
O O4 0.630722 0.379004 0.229917
O O5 0.785371 0.585123 0.200381
O O6 0.644978 0.511901 0.127209
O O7 0.500179 0.208816 0.191352
O O8 0.433498 0.141806 0.080330
O O9 0.603574 0.289321 0.081417
O O10 0.624381 0.056508 0.135658
O O11 0.444813 0.244195 0.678540
O O12 0.763371 0.315937 0.343004
O O13 0.166243 0.676568 0.925684
O O14 0.208536 0.629272 0.048691
O O15 0.000000 0.649071 0.000000
O O16 0.367107 0.500000 0.000000
#
# Coordination Sequence:
#
# PCOD9331053 Si02
#       8
#     4   8   8   8   8   8   8   8
#     4  10  21  43  64 102 142 170 222 284 356 432
#     4  10  22  46  65  98 136 177 239 286 363 429
#     4  10  21  40  64 101 135 179 228 285 360 423
#     4  10  23  43  66  95 136 183 234 285 342 441
#     4  10  21  39  66  97 136 172 223 285 355 415
#     4  11  24  46  71 104 138 185 236 290 367 447
#     4  11  23  44  69  95 135 184 230 296 348 423
#     4  11  22  44  71 101 144 187 227 308 371 439
#
# _framework density 23.302340999999998
#
# number of rings (size 3 to 8) (size 9 to 14) (size 15 to 20)
#    0.000    1.600    4.000    0.200    1.867    1.333 
#   16.800    8.667    0.000    0.000    0.000    0.000 
#    0.000    0.000    0.000    0.000    0.000    0.000 
#
# Total GULP energy -167115.388539 kJ/mol
# GULP energy per Si atom -5570.512951 kJ/mol
# Density = 2.324930 g / cm^3
# Si number density = 23.302341 Si / 1000 Ang^3
#
#
#
# Elastic Constant Matrix: (Units=GPa)
#
#
# Indices 1 2 3 4 5 6 
#
# 1 90.6788 7.6497 14.3826 0.0000 0.0000 0.0000
# 2 7.6497 59.4590 -8.6382 0.0000 0.0000 0.0000
# 3 14.3826 -8.6382 36.9051 0.0000 0.0000 0.0000
# 4 0.0000 0.0000 0.0000 5.5334 0.0000 0.0000
# 5 0.0000 0.0000 0.0000 0.0000 29.1908 0.0000
# 6 0.0000 0.0000 0.0000 0.0000 0.0000 -0.5386
#
#
#
# Elastic Compliance Matrix: (Units=1/GPa)
#
#
# Indices 1 2 3 4 5 6 
#
# 1 0.012054 -0.002312 -0.005239 0.000000 0.000000 0.000000
# 2 -0.002312 0.017854 0.005080 0.000000 0.000000 0.000000
# 3 -0.005239 0.005080 0.030327 0.000000 0.000000 0.000000
# 4 0.000000 0.000000 0.000000 0.180719 0.000000 0.000000
# 5 0.000000 0.000000 0.000000 0.000000 0.034257 0.000000
# 6 0.000000 0.000000 0.000000 0.000000 0.000000 -1.856735
#
#
# Mechanical properties :
#
#
# Convention : Reuss Voigt Hill
#
# Bulk Modulus (GPa) = 18.08533 23.75899 20.92216
# Shear Modulus (GPa) = -3.20893 18.41371 7.60239
#
# Velocity S-wave (km/s) = -1.17477 2.81411 1.80820
# Velocity P-wave (km/s) = 2.43678 4.55819 3.65479
#
# Compressibility (1/GPa) = 0.05529345
#
# Stress axis : x y z
#
# Youngs Moduli (GPa) = 82.96079 56.01058 32.97375
#
# Poissons Ratio (x) = 0.12949 0.17274
# Poissons Ratio (y) = 0.19179 -0.16750
# Poissons Ratio (z) = 0.43461 -0.28453
#
# Static dielectric constant tensor:
#      x y z
#    x 1.913850 0.000000 0.000000 
#    y 0.000000 1.994590 0.000000 
#    z 0.000000 0.000000 1.845990 
# 
# From -- ./inp_files/26749.got.cif
#   From: 2010.05.17/outbox.cif.g08.bks.cpg/sg23_14_cif.got.tgz:26749.got - 2010.06.04 12:02:01.
