data_PCOD9331938
_publ_section_title
;
Structure prediction by ZEFSAII (Michael W. Deem and Ramdas Pophale) SiO2 
 PCOD9331938
Probable space group: I 2 2 2
;
_chemical_formula_sum "Si O2"
_cell_formula_units_Z 38
_cell_length_a 10.371065
_cell_length_b 26.586239
_cell_length_c 5.910682
_cell_angle_alpha 90.000000
_cell_angle_beta 90.000000
_cell_angle_gamma 90.000000
_cell_volume 1629.738238
_symmetry_space_group_name_H-M "I 2 2 2"
_symmetry_group_IT_number 23
_symmetry_cell_setting 'orthorhombic'
loop_
_space_group_symop_operation_xyz
x,y,z
-x,-y,z
x,-y,-z
-x,y,-z
1/2+x,1/2+y,1/2+z
1/2-x,1/2-y,1/2+z
1/2+x,1/2-y,1/2-z
1/2-x,1/2+y,1/2-z
loop_
_atom_site_type_symbol
_atom_site_label
_atom_site_fract_x
_atom_site_fract_y
_atom_site_fract_z
Si Si1 0.500000 0.316774 0.000000
Si Si2 0.766214 0.633226 0.814595
Si Si3 0.356584 0.440248 0.462074
Si Si4 0.319221 0.241892 0.221676
Si Si5 0.166722 0.552580 0.871455
Si Si6 0.500000 0.000000 0.000000
O O1 0.625569 0.347290 0.090660
O O2 0.439854 0.279432 0.190598
O O3 0.731881 0.593181 0.621027
O O4 0.841002 0.682251 0.730359
O O5 0.856862 0.601641 0.983392
O O6 0.347754 0.500000 0.500000
O O7 0.500000 0.423142 0.500000
O O8 0.311599 0.435642 0.207161
O O9 0.256211 0.251852 0.474607
O O10 0.081551 0.537543 0.657399
O O11 0.164527 0.500000 0.000000
#
# Coordination Sequence:
#
# PCOD9331938 Si02
#       6
#     4   8   8   8   8   2
#     4  10  24  50  78 106 155 200 257 336 386 458
#     4  11  24  43  78 105 148 203 249 311 396 457
#     4  11  23  40  68 111 152 191 242 304 376 466
#     4  10  25  46  76 110 149 198 265 323 383 464
#     4  12  24  48  71 108 148 207 251 308 383 476
#     4  12  26  48  76  94 164 200 248 318 364 470
#
# _framework density 23.316628000000001
#
# number of rings (size 3 to 8) (size 9 to 14) (size 15 to 20)
#    0.000    1.053    3.158    1.579    8.842    2.526 
#    0.000    6.316   18.526    0.000    0.000    0.000 
#    0.000    0.000    0.000    0.000    0.000    0.000 
#
# Total GULP energy -105905.364081 kJ/mol
# GULP energy per Si atom -5573.966531 kJ/mol
# Density = 2.326356 g / cm^3
# Si number density = 23.316628 Si / 1000 Ang^3
#
#
#
# Elastic Constant Matrix: (Units=GPa)
#
#
# Indices 1 2 3 4 5 6 
#
# 1 91.0379 45.8121 45.9675 0.0010 0.0016 0.0009
# 2 45.8121 172.3261 72.5929 0.0008 -0.0002 0.0002
# 3 45.9675 72.5929 114.2323 -0.0757 0.0061 0.0018
# 4 0.0010 0.0008 -0.0757 -0.1550 0.0183 0.0095
# 5 0.0016 -0.0002 0.0061 0.0183 20.6928 0.0012
# 6 0.0009 0.0002 0.0018 0.0095 0.0012 19.8572
#
#
#
# Elastic Compliance Matrix: (Units=1/GPa)
#
#
# Indices 1 2 3 4 5 6 
#
# 1 0.014212 -0.001870 -0.004529 0.002292 -0.000002 -0.000001
# 2 -0.001870 0.008169 -0.004437 0.002197 0.000000 -0.000001
# 3 -0.004529 -0.004437 0.013392 -0.006589 0.000002 0.000002
# 4 0.002292 0.002197 -0.006589 -6.445709 0.005710 0.003098
# 5 -0.000002 0.000000 0.000002 0.005710 0.048321 -0.000006
# 6 -0.000001 -0.000001 0.000002 0.003098 -0.000006 0.050358
#
#
# Mechanical properties :
#
#
# Convention : Reuss Voigt Hill
#
# Bulk Modulus (GPa) = 70.92049 78.48237 74.70143
# Shear Modulus (GPa) = -0.79556 22.29392 10.74918
#
# Velocity S-wave (km/s) = -0.58476 3.09550 2.14944
# Velocity P-wave (km/s) = 5.47963 6.81973 6.18607
#
# Compressibility (1/GPa) = 0.01410030
#
# Stress axis : x y z
#
# Youngs Moduli (GPa) = 70.36074 122.40670 74.67079
#
# Poissons Ratio (x) = 0.22896 0.33818
# Poissons Ratio (y) = 0.13161 0.33135
# Poissons Ratio (z) = 0.31866 0.54317
#
# Static dielectric constant tensor:
#      x y z
#    x 4.914030 -0.000190 -0.000070 
#    y -0.000190 1.887710 0.000000 
#    z -0.000070 0.000000 2.031860 
# 
# From -- ./inp_files/1725.got.cif
#   From: 2010.05.17/outbox.cif.g08.bks.cpg/sg23_1_cif.got.tgz:1725.got - 2010.06.04 12:02:01.
