data_PCOD9331268
_publ_section_title
;
Structure prediction by ZEFSAII (Michael W. Deem and Ramdas Pophale) SiO2 
 PCOD9331268
Probable space group: I 2 2 2
;
_chemical_formula_sum "Si O2"
_cell_formula_units_Z 64
_cell_length_a 14.632726
_cell_length_b 22.727344
_cell_length_c 9.074635
_cell_angle_alpha 90.000000
_cell_angle_beta 90.000000
_cell_angle_gamma 90.000000
_cell_volume 3017.887816
_symmetry_space_group_name_H-M "I 2 2 2"
_symmetry_group_IT_number 23
_symmetry_cell_setting 'orthorhombic'
loop_
_space_group_symop_operation_xyz
x,y,z
-x,-y,z
x,-y,-z
-x,y,-z
1/2+x,1/2+y,1/2+z
1/2-x,1/2-y,1/2+z
1/2+x,1/2-y,1/2-z
1/2-x,1/2+y,1/2-z
loop_
_atom_site_type_symbol
_atom_site_label
_atom_site_fract_x
_atom_site_fract_y
_atom_site_fract_z
Si Si1 0.782047 0.129401 0.500335
Si Si2 0.475440 0.235164 0.326899
Si Si3 0.774153 0.228079 0.250712
Si Si4 0.227883 0.546759 0.762514
Si Si5 0.275196 0.628096 0.508542
Si Si6 0.838160 0.415838 0.247644
Si Si7 0.029506 0.396624 0.172113
Si Si8 0.884626 0.174225 0.760960
O O1 0.776930 0.186875 0.396356
O O2 0.787239 0.073231 0.395114
O O3 0.691592 0.119996 0.601218
O O4 0.862013 0.135977 0.618508
O O5 0.500000 0.241371 0.500000
O O6 0.369562 0.239569 0.284534
O O7 0.520361 0.172417 0.286727
O O8 0.521568 0.291502 0.252211
O O9 0.692992 0.274562 0.263841
O O10 0.759265 0.183494 0.114631
O O11 0.270783 0.571581 0.612933
O O12 0.214334 0.477537 0.761641
O O13 0.127504 0.576744 0.788831
O O14 0.196193 0.619564 0.388369
O O15 0.365858 0.638550 0.411211
O O16 0.945387 0.427366 0.254623
O O17 0.000000 0.403123 0.000000
#
# Coordination Sequence:
#
# PCOD9331268 Si02
#       8
#     8   8   8   8   8   8   8   8
#     4  10  22  36  57  86 116 154 202 253 298 361
#     4  11  22  38  63  93 127 172 202 243 320 377
#     4  11  22  38  62  92 126 163 204 257 308 372
#     4  11  22  39  61  87 122 166 210 259 314 365
#     4  10  22  38  57  86 118 158 208 251 298 365
#     4  11  22  39  61  87 122 166 210 259 314 365
#     4  11  23  35  55  90 128 161 210 254 302 387
#     4  11  22  38  62  92 126 163 204 257 308 372
#
# _framework density 21.206885
#
# number of rings (size 3 to 8) (size 9 to 14) (size 15 to 20)
#    0.000    1.250    2.500    4.875    3.500    1.500 
#    0.000    3.750    0.000    0.000    0.000   61.250 
#    0.000    0.000    0.000    0.000    0.000    0.000 
#
# Total GULP energy -178882.716913 kJ/mol
# GULP energy per Si atom -5590.084904 kJ/mol
# Density = 2.115862 g / cm^3
# Si number density = 21.206885 Si / 1000 Ang^3
#
#
#
# Elastic Constant Matrix: (Units=GPa)
#
#
# Indices 1 2 3 4 5 6 
#
# 1 39.4277 24.1714 6.6102 0.0000 0.0000 0.0000
# 2 24.1714 94.7182 36.3098 0.0000 0.0000 0.0000
# 3 6.6102 36.3098 110.1982 0.0000 0.0000 0.0000
# 4 0.0000 0.0000 0.0000 6.7268 0.0000 0.0000
# 5 0.0000 0.0000 0.0000 0.0000 14.9394 0.0000
# 6 0.0000 0.0000 0.0000 0.0000 0.0000 34.4346
#
#
#
# Elastic Compliance Matrix: (Units=1/GPa)
#
#
# Indices 1 2 3 4 5 6 
#
# 1 0.030133 -0.008008 0.000831 0.000000 0.000000 0.000000
# 2 -0.008008 0.014212 -0.004203 0.000000 0.000000 0.000000
# 3 0.000831 -0.004203 0.010409 0.000000 0.000000 0.000000
# 4 0.000000 0.000000 0.000000 0.148659 0.000000 0.000000
# 5 0.000000 0.000000 0.000000 0.000000 0.066937 0.000000
# 6 0.000000 0.000000 0.000000 0.000000 0.000000 0.029041
#
#
# Mechanical properties :
#
#
# Convention : Reuss Voigt Hill
#
# Bulk Modulus (GPa) = 31.25445 42.05854 36.65650
# Shear Modulus (GPa) = 15.02332 23.03702 19.03017
#
# Velocity S-wave (km/s) = 2.66450 3.29948 2.99884
# Velocity P-wave (km/s) = 4.92300 5.86438 5.41419
#
# Compressibility (1/GPa) = 0.03199544
#
# Stress axis : x y z
#
# Youngs Moduli (GPa) = 33.18612 70.36151 96.06698
#
# Poissons Ratio (x) = 0.56348 -0.07985
# Poissons Ratio (y) = 0.26577 0.40372
# Poissons Ratio (z) = -0.02758 0.29570
#
# Static dielectric constant tensor:
#      x y z
#    x 1.749810 0.000000 0.000000 
#    y 0.000000 1.777360 0.000000 
#    z 0.000000 0.000000 1.797360 
# 
# From -- ./inp_files/10344.got.cif
#   From: 2010.05.17/outbox.cif.g08.bks.cpg/sg23_6_cif.got.tgz:10344.got - 2010.06.04 12:02:01.
