data_PCOD9331369
_publ_section_title
;
Structure prediction by ZEFSAII (Michael W. Deem and Ramdas Pophale) SiO2 
 PCOD9331369
Probable space group: I 2 2 2
;
_chemical_formula_sum "Si O2"
_cell_formula_units_Z 40
_cell_length_a 22.742632
_cell_length_b 7.430127
_cell_length_c 11.440730
_cell_angle_alpha 90.000000
_cell_angle_beta 90.000000
_cell_angle_gamma 90.000000
_cell_volume 1933.261924
_symmetry_space_group_name_H-M "I 2 2 2"
_symmetry_group_IT_number 23
_symmetry_cell_setting 'orthorhombic'
loop_
_space_group_symop_operation_xyz
x,y,z
-x,-y,z
x,-y,-z
-x,y,-z
1/2+x,1/2+y,1/2+z
1/2-x,1/2-y,1/2+z
1/2+x,1/2-y,1/2-z
1/2-x,1/2+y,1/2-z
loop_
_atom_site_type_symbol
_atom_site_label
_atom_site_fract_x
_atom_site_fract_y
_atom_site_fract_z
Si Si1 0.819638 0.718606 0.715406
Si Si2 0.134005 0.196979 0.472558
Si Si3 0.682205 0.358809 0.271221
Si Si4 0.610399 0.935207 0.629858
Si Si5 0.000000 0.500000 0.711425
Si Si6 0.500000 0.250752 0.000000
O O1 0.848046 0.691132 0.586511
O O2 0.750506 0.678189 0.707777
O O3 0.848240 0.584428 0.808647
O O4 0.828782 0.927687 0.754954
O O5 0.162350 0.242770 0.348786
O O6 0.063410 0.175672 0.458999
O O7 0.159246 0.000000 0.500000
O O8 0.643321 0.256814 0.367563
O O9 0.551865 0.929202 0.707868
O O10 0.596881 0.000000 0.500000
O O11 0.020203 0.351594 0.617552
#
# Coordination Sequence:
#
# PCOD9331369 Si02
#       6
#     8   8   8   8   4   4
#     4  11  24  42  66 100 133 173 220 269 331 398
#     4  10  22  39  66  97 135 166 213 279 336 390
#     4  11  24  42  66 100 133 173 220 269 331 398
#     4  12  26  45  66  93 137 183 220 268 329 389
#     4  11  23  42  66  98 125 171 228 274 328 395
#     4  11  19  38  70  96 125 167 220 275 341 382
#
# _framework density 20.690418999999999
#
# number of rings (size 3 to 8) (size 9 to 14) (size 15 to 20)
#    0.000    1.000    6.000    0.600    2.800    1.600 
#    0.000    1.000    0.000    2.400    0.000    0.000 
#    0.000    0.000    0.000    0.000    0.000    0.000 
#
# Total GULP energy -111541.812584 kJ/mol
# GULP energy per Si atom -5577.090629 kJ/mol
# Density = 2.064333 g / cm^3
# Si number density = 20.690419 Si / 1000 Ang^3
#
#
#
# Elastic Constant Matrix: (Units=GPa)
#
#
# Indices 1 2 3 4 5 6 
#
# 1 118.3303 -1.8439 13.6496 0.0000 0.0000 0.0000
# 2 -1.8439 67.0331 -1.7129 0.0000 0.0000 0.0000
# 3 13.6496 -1.7129 83.5459 0.0000 0.0000 0.0000
# 4 0.0000 0.0000 0.0000 27.9968 0.0000 0.0000
# 5 0.0000 0.0000 0.0000 0.0000 32.5594 0.0000
# 6 0.0000 0.0000 0.0000 0.0000 0.0000 18.4128
#
#
#
# Elastic Compliance Matrix: (Units=1/GPa)
#
#
# Indices 1 2 3 4 5 6 
#
# 1 0.008616 0.000201 -0.001404 0.000000 0.000000 0.000000
# 2 0.000201 0.014931 0.000273 0.000000 0.000000 0.000000
# 3 -0.001404 0.000273 0.012204 0.000000 0.000000 0.000000
# 4 0.000000 0.000000 0.000000 0.035718 0.000000 0.000000
# 5 0.000000 0.000000 0.000000 0.000000 0.030713 0.000000
# 6 0.000000 0.000000 0.000000 0.000000 0.000000 0.054310
#
#
# Mechanical properties :
#
#
# Convention : Reuss Voigt Hill
#
# Bulk Modulus (GPa) = 29.50500 32.12165 30.81332
# Shear Modulus (GPa) = 29.47278 33.04825 31.26052
#
# Velocity S-wave (km/s) = 3.77830 4.00093 3.89121
# Velocity P-wave (km/s) = 5.77281 6.07469 5.92567
#
# Compressibility (1/GPa) = 0.03389256
#
# Stress axis : x y z
#
# Youngs Moduli (GPa) = 116.06375 66.97694 81.93780
#
# Poissons Ratio (x) = -0.01347 0.11500
# Poissons Ratio (y) = -0.02335 -0.02239
# Poissons Ratio (z) = 0.16290 -0.01830
#
# Static dielectric constant tensor:
#      x y z
#    x 1.697890 0.000000 0.000000 
#    y 0.000000 1.810820 0.000000 
#    z 0.000000 0.000000 1.744070 
# 
# From -- ./inp_files/14622.got.cif
#   From: 2010.05.17/outbox.cif.g08.bks.cpg/sg23_8_cif.got.tgz:14622.got - 2010.06.04 12:02:01.
