data_PCOD9331229
_publ_section_title
;
Structure prediction by ZEFSAII (Michael W. Deem and Ramdas Pophale) SiO2 
 PCOD9331229
Probable space group: I 2 2 2
;
_chemical_formula_sum "Si O2"
_cell_formula_units_Z 34
_cell_length_a 8.247883
_cell_length_b 13.194059
_cell_length_c 14.540399
_cell_angle_alpha 90.000000
_cell_angle_beta 90.000000
_cell_angle_gamma 90.000000
_cell_volume 1582.330639
_symmetry_space_group_name_H-M "I 2 2 2"
_symmetry_group_IT_number 23
_symmetry_cell_setting 'orthorhombic'
loop_
_space_group_symop_operation_xyz
x,y,z
-x,-y,z
x,-y,-z
-x,y,-z
1/2+x,1/2+y,1/2+z
1/2-x,1/2-y,1/2+z
1/2+x,1/2-y,1/2-z
1/2-x,1/2+y,1/2-z
loop_
_atom_site_type_symbol
_atom_site_label
_atom_site_fract_x
_atom_site_fract_y
_atom_site_fract_z
Si Si1 0.170008 0.820005 0.803539
Si Si2 0.500000 0.500000 0.000000
Si Si3 0.182698 0.240685 0.870367
Si Si4 0.160217 0.195674 0.548250
Si Si5 0.188063 0.515792 0.609661
O O1 0.211267 0.811197 0.696635
O O2 0.299031 0.750095 0.858056
O O3 0.998054 0.773859 0.832742
O O4 0.199732 0.932803 0.840750
O O5 0.612651 0.577721 0.056645
O O6 0.258278 0.128771 0.868139
O O7 0.199825 0.283930 0.973407
O O8 0.000000 0.243225 0.500000
O O9 0.203201 0.500000 0.500000
O O10 0.000000 0.500000 0.635594
#
# Coordination Sequence:
#
# PCOD9331229 Si02
#       5
#     8   2   8   8   8
#     4  12  25  42  68 101 139 178 226 278 336 406
#     4   8  24  40  74  86 132 182 218 272 352 394
#     4  12  25  42  68 101 139 178 226 278 336 406
#     4  10  21  44  66  94 129 177 222 277 335 394
#     4  11  23  42  71 102 134 178 224 281 342 399
#
# _framework density 21.487293000000001
#
# number of rings (size 3 to 8) (size 9 to 14) (size 15 to 20)
#    0.706    0.235    2.353    5.647    0.000    2.824 
#    0.000    4.706    0.000    0.000    0.000    0.000 
#    0.000    0.000    0.000    0.000    0.000    0.000 
#
# Total GULP energy -95049.554691 kJ/mol
# GULP energy per Si atom -5591.150276 kJ/mol
# Density = 2.143839 g / cm^3
# Si number density = 21.487293 Si / 1000 Ang^3
#
#
#
# Elastic Constant Matrix: (Units=GPa)
#
#
# Indices 1 2 3 4 5 6 
#
# 1 87.0473 0.8241 -3.8585 0.0000 0.0000 0.0000
# 2 0.8241 112.8232 4.1913 0.0000 0.0000 0.0000
# 3 -3.8585 4.1913 61.2391 0.0000 0.0000 0.0000
# 4 0.0000 0.0000 0.0000 33.8608 0.0000 0.0000
# 5 0.0000 0.0000 0.0000 0.0000 25.2064 0.0000
# 6 0.0000 0.0000 0.0000 0.0000 0.0000 17.9821
#
#
#
# Elastic Compliance Matrix: (Units=1/GPa)
#
#
# Indices 1 2 3 4 5 6 
#
# 1 0.011522 -0.000111 0.000734 0.000000 0.000000 0.000000
# 2 -0.000111 0.008887 -0.000615 0.000000 0.000000 0.000000
# 3 0.000734 -0.000615 0.016418 0.000000 0.000000 0.000000
# 4 0.000000 0.000000 0.000000 0.029533 0.000000 0.000000
# 5 0.000000 0.000000 0.000000 0.000000 0.039672 0.000000
# 6 0.000000 0.000000 0.000000 0.000000 0.000000 0.055611
#
#
# Mechanical properties :
#
#
# Convention : Reuss Voigt Hill
#
# Bulk Modulus (GPa) = 27.14426 29.26928 28.20677
# Shear Modulus (GPa) = 28.75069 32.74003 30.74536
#
# Velocity S-wave (km/s) = 3.66188 3.90769 3.78678
# Velocity P-wave (km/s) = 5.52624 5.83192 5.68113
#
# Compressibility (1/GPa) = 0.03684020
#
# Stress axis : x y z
#
# Youngs Moduli (GPa) = 86.79367 112.52274 60.90966
#
# Poissons Ratio (x) = 0.01254 -0.04468
# Poissons Ratio (y) = 0.00967 0.03748
# Poissons Ratio (z) = -0.06367 0.06923
#
# Static dielectric constant tensor:
#      x y z
#    x 1.841120 0.000000 0.000000 
#    y 0.000000 1.753160 0.000000 
#    z 0.000000 0.000000 1.759230 
# 
# From -- ./inp_files/19583.got.cif
#   From: 2010.05.17/outbox.cif.g08.bks.cpg/sg23_10_cif.got.tgz:19583.got - 2010.06.04 12:02:01.
