data_PCOD9331352
_publ_section_title
;
Structure prediction by ZEFSAII (Michael W. Deem and Ramdas Pophale) SiO2 
 PCOD9331352
Probable space group: I 2 2 2
;
_chemical_formula_sum "Si O2"
_cell_formula_units_Z 48
_cell_length_a 10.931542
_cell_length_b 17.150145
_cell_length_c 11.973076
_cell_angle_alpha 90.000000
_cell_angle_beta 90.000000
_cell_angle_gamma 90.000000
_cell_volume 2244.682719
_symmetry_space_group_name_H-M "I 2 2 2"
_symmetry_group_IT_number 23
_symmetry_cell_setting 'orthorhombic'
loop_
_space_group_symop_operation_xyz
x,y,z
-x,-y,z
x,-y,-z
-x,y,-z
1/2+x,1/2+y,1/2+z
1/2-x,1/2-y,1/2+z
1/2+x,1/2-y,1/2-z
1/2-x,1/2+y,1/2-z
loop_
_atom_site_type_symbol
_atom_site_label
_atom_site_fract_x
_atom_site_fract_y
_atom_site_fract_z
Si Si1 0.811115 0.671421 0.865848
Si Si2 0.828360 0.827084 0.149950
Si Si3 0.244723 0.350123 0.116960
Si Si4 0.893557 0.848221 0.826313
Si Si5 0.314218 0.086635 0.960489
Si Si6 0.962602 0.588042 0.254947
O O1 0.707914 0.654657 0.775703
O O2 0.840630 0.764283 0.868346
O O3 0.932656 0.632943 0.812768
O O4 0.763804 0.641591 0.984719
O O5 0.817623 0.734177 0.138268
O O6 0.967311 0.853492 0.135053
O O7 0.727671 0.864026 0.067558
O O8 0.367640 0.349882 0.192498
O O9 0.155342 0.411296 0.175396
O O10 0.808652 0.912604 0.884622
O O11 0.417935 0.120085 0.876254
O O12 0.345346 0.000000 0.000000
O O13 0.000000 0.500000 0.275180
#
# Coordination Sequence:
#
# PCOD9331352 Si02
#       6
#     8   8   8   8   8   8
#     4  11  22  38  63  93 129 174 218 268 332 398
#     4  11  22  38  63  93 129 174 218 268 332 398
#     4  10  22  39  61  92 129 173 222 266 325 402
#     4  10  22  39  61  92 129 173 222 266 325 402
#     4  11  24  42  65  95 131 172 220 276 332 391
#     4  11  24  42  65  95 131 172 220 276 332 391
#
# _framework density 21.383870000000002
#
# number of rings (size 3 to 8) (size 9 to 14) (size 15 to 20)
#    0.000    1.333    3.333    2.000    0.000    5.667 
#    0.000    3.333    0.000    0.000    0.000    4.667 
#    0.000    0.000    0.000    0.000    0.000    0.000 
#
# Total GULP energy -133967.078932 kJ/mol
# GULP energy per Si atom -5581.961622 kJ/mol
# Density = 2.133520 g / cm^3
# Si number density = 21.383870 Si / 1000 Ang^3
#
#
#
# Elastic Constant Matrix: (Units=GPa)
#
#
# Indices 1 2 3 4 5 6 
#
# 1 51.4413 12.3973 31.5766 0.0000 0.0000 0.0000
# 2 12.3973 29.6508 17.7895 0.0001 0.0000 0.0000
# 3 31.5766 17.7895 184.8433 0.0002 -0.0001 0.0000
# 4 0.0000 0.0001 0.0002 29.3877 0.0000 0.0000
# 5 0.0000 0.0000 -0.0001 0.0000 28.5853 0.0000
# 6 0.0000 0.0000 0.0000 0.0000 0.0000 14.0098
#
#
#
# Elastic Compliance Matrix: (Units=1/GPa)
#
#
# Indices 1 2 3 4 5 6 
#
# 1 0.023303 -0.007806 -0.003230 0.000000 0.000000 0.000000
# 2 -0.007806 0.038407 -0.002363 0.000000 0.000000 0.000000
# 3 -0.003230 -0.002363 0.006189 0.000000 0.000000 0.000000
# 4 0.000000 0.000000 0.000000 0.034028 0.000000 0.000000
# 5 0.000000 0.000000 0.000000 0.000000 0.034983 0.000000
# 6 0.000000 0.000000 0.000000 0.000000 0.000000 0.071379
#
#
# Mechanical properties :
#
#
# Convention : Reuss Voigt Hill
#
# Bulk Modulus (GPa) = 24.32905 43.27358 33.80132
# Shear Modulus (GPa) = 20.09756 28.00803 24.05280
#
# Velocity S-wave (km/s) = 3.06902 3.62301 3.35746
# Velocity P-wave (km/s) = 4.89494 6.14671 5.55619
#
# Compressibility (1/GPa) = 0.04110313
#
# Stress axis : x y z
#
# Youngs Moduli (GPa) = 42.91244 26.03679 161.57401
#
# Poissons Ratio (x) = 0.20323 0.52183
# Poissons Ratio (y) = 0.33496 0.38179
# Poissons Ratio (z) = 0.13859 0.06152
#
# Static dielectric constant tensor:
#      x y z
#    x 1.786780 0.000000 0.000000 
#    y 0.000000 1.752800 0.000000 
#    z 0.000000 0.000000 1.824090 
# 
# From -- ./inp_files/15746.got.cif
#   From: 2010.05.17/outbox.cif.g08.bks.cpg/sg23_8_cif.got.tgz:15746.got - 2010.06.04 12:02:01.
