data_PCOD9331183
_publ_section_title
;
Structure prediction by ZEFSAII (Michael W. Deem and Ramdas Pophale) SiO2 
 PCOD9331183
Probable space group: I 2 2 2
;
_chemical_formula_sum "Si O2"
_cell_formula_units_Z 54
_cell_length_a 12.360167
_cell_length_b 10.583232
_cell_length_c 21.015885
_cell_angle_alpha 90.000000
_cell_angle_beta 90.000000
_cell_angle_gamma 90.000000
_cell_volume 2749.098738
_symmetry_space_group_name_H-M "I 2 2 2"
_symmetry_group_IT_number 23
_symmetry_cell_setting 'orthorhombic'
loop_
_space_group_symop_operation_xyz
x,y,z
-x,-y,z
x,-y,-z
-x,y,-z
1/2+x,1/2+y,1/2+z
1/2-x,1/2-y,1/2+z
1/2+x,1/2-y,1/2-z
1/2-x,1/2+y,1/2-z
loop_
_atom_site_type_symbol
_atom_site_label
_atom_site_fract_x
_atom_site_fract_y
_atom_site_fract_z
Si Si1 0.383940 0.448094 0.912108
Si Si2 0.822761 0.937716 0.267049
Si Si3 0.697578 0.695624 0.306629
Si Si4 0.464880 0.639335 0.352284
Si Si5 0.198057 0.500000 0.000000
Si Si6 0.320070 0.831983 0.062174
Si Si7 0.000000 0.500000 0.500000
Si Si8 0.618379 0.274038 0.479289
O O1 0.500000 0.500000 0.930363
O O2 0.376288 0.447189 0.836173
O O3 0.279714 0.519055 0.940602
O O4 0.367070 0.309244 0.940403
O O5 0.731983 0.829640 0.276855
O O6 0.903113 0.884487 0.213521
O O7 0.794444 0.078446 0.242391
O O8 0.577172 0.707833 0.335825
O O9 0.772895 0.657801 0.366645
O O10 0.500000 0.500000 0.376529
O O11 0.388491 0.707262 0.403451
O O12 0.130286 0.628491 0.002331
O O13 0.418315 0.921315 0.044063
O O14 0.219380 0.842309 0.013075
O O15 0.500000 0.320837 0.500000
#
# Coordination Sequence:
#
# PCOD9331183 Si02
#       8
#     8   8   8   8   4   8   2   8
#     4  10  21  42  66  91 129 173 218 261 328 395
#     4  10  23  41  65  94 128 167 219 269 318 395
#     4  10  21  46  63  96 129 169 217 269 327 392
#     4  10  22  40  66  96 124 172 225 257 322 408
#     4  10  24  36  64 102 128 165 213 274 332 392
#     4  10  25  42  64  96 131 167 215 278 325 388
#     4  12  28  44  60  96 136 168 220 278 328 388
#     4  11  22  41  67  97 129 168 211 275 331 392
#
# _framework density 19.642800000000001
#
# number of rings (size 3 to 8) (size 9 to 14) (size 15 to 20)
#    0.000    1.778    1.481    1.778   10.370    0.296 
#    8.000    0.000    0.000    0.000    0.000    0.000 
#    0.000    0.000    0.000    0.000    0.000    0.000 
#
# Total GULP energy -150655.239809 kJ/mol
# GULP energy per Si atom -5579.823697 kJ/mol
# Density = 1.959809 g / cm^3
# Si number density = 19.642800 Si / 1000 Ang^3
#
#
#
# Elastic Constant Matrix: (Units=GPa)
#
#
# Indices 1 2 3 4 5 6 
#
# 1 120.5895 45.0536 39.5028 0.0000 0.0000 0.0000
# 2 45.0536 67.6605 27.6000 0.0000 0.0000 0.0000
# 3 39.5028 27.6000 111.7785 0.0000 0.0000 0.0000
# 4 0.0000 0.0000 0.0000 23.4315 0.0000 0.0000
# 5 0.0000 0.0000 0.0000 0.0000 17.4668 0.0000
# 6 0.0000 0.0000 0.0000 0.0000 0.0000 34.1275
#
#
#
# Elastic Compliance Matrix: (Units=1/GPa)
#
#
# Indices 1 2 3 4 5 6 
#
# 1 0.011608 -0.006734 -0.002439 0.000000 0.000000 0.000000
# 2 -0.006734 0.020342 -0.002643 0.000000 0.000000 0.000000
# 3 -0.002439 -0.002643 0.010461 0.000000 0.000000 0.000000
# 4 0.000000 0.000000 0.000000 0.042678 0.000000 0.000000
# 5 0.000000 0.000000 0.000000 0.000000 0.057252 0.000000
# 6 0.000000 0.000000 0.000000 0.000000 0.000000 0.029302
#
#
# Mechanical properties :
#
#
# Convention : Reuss Voigt Hill
#
# Bulk Modulus (GPa) = 53.25509 58.26014 55.75762
# Shear Modulus (GPa) = 24.80975 27.52996 26.16985
#
# Velocity S-wave (km/s) = 3.55779 3.74776 3.65401
# Velocity P-wave (km/s) = 6.63685 6.96073 6.80072
#
# Compressibility (1/GPa) = 0.01877755
#
# Stress axis : x y z
#
# Youngs Moduli (GPa) = 86.15000 49.15964 95.59395
#
# Poissons Ratio (x) = 0.33105 0.23319
# Poissons Ratio (y) = 0.58015 0.25264
# Poissons Ratio (z) = 0.21015 0.12992
#
# Static dielectric constant tensor:
#      x y z
#    x 1.698040 0.000000 0.000000 
#    y 0.000000 1.730830 0.000000 
#    z 0.000000 0.000000 1.716570 
# 
# From -- ./inp_files/26730.got.cif
#   From: 2010.05.17/outbox.cif.g08.bks.cpg/sg23_14_cif.got.tgz:26730.got - 2010.06.04 12:02:01.
