data_PCOD9331323
_publ_section_title
;
Structure prediction by ZEFSAII (Michael W. Deem and Ramdas Pophale) SiO2 
 PCOD9331323
Probable space group: I 2 2 2
;
_chemical_formula_sum "Si O2"
_cell_formula_units_Z 48
_cell_length_a 16.758465
_cell_length_b 9.759726
_cell_length_c 12.247337
_cell_angle_alpha 90.000000
_cell_angle_beta 90.000000
_cell_angle_gamma 90.000000
_cell_volume 2003.150271
_symmetry_space_group_name_H-M "I 2 2 2"
_symmetry_group_IT_number 23
_symmetry_cell_setting 'orthorhombic'
loop_
_space_group_symop_operation_xyz
x,y,z
-x,-y,z
x,-y,-z
-x,y,-z
1/2+x,1/2+y,1/2+z
1/2-x,1/2-y,1/2+z
1/2+x,1/2-y,1/2-z
1/2-x,1/2+y,1/2-z
loop_
_atom_site_type_symbol
_atom_site_label
_atom_site_fract_x
_atom_site_fract_y
_atom_site_fract_z
Si Si1 0.624006 0.344360 0.027259
Si Si2 0.937502 0.122955 0.766254
Si Si3 0.771095 0.004675 0.194330
Si Si4 0.957374 0.632168 0.844454
Si Si5 0.215550 0.312700 0.881562
Si Si6 0.891905 0.592495 0.601925
O O1 0.592823 0.317274 0.149643
O O2 0.718639 0.312382 0.024912
O O3 0.607504 0.500000 0.000000
O O4 0.589549 0.245521 0.936894
O O5 0.858663 0.059725 0.823495
O O6 0.982564 0.241478 0.831476
O O7 0.000000 0.000000 0.747248
O O8 0.743350 0.944566 0.310981
O O9 0.701085 0.947741 0.117691
O O10 0.775209 0.169236 0.184804
O O11 0.876971 0.672813 0.907687
O O12 0.928318 0.585927 0.722356
O O13 0.000000 0.500000 0.889125
O O14 0.918163 0.500000 0.500000
#
# Coordination Sequence:
#
# PCOD9331323 Si02
#       6
#     8   8   8   8   8   8
#     4  11  24  37  61  90 122 159 196 245 298 357
#     4  11  22  39  60  88 124 156 199 242 299 355
#     4  10  22  38  62  83 116 162 207 244 282 357
#     4  11  24  37  61  90 122 159 196 245 298 357
#     4  10  22  40  60  85 116 160 211 238 288 353
#     4  11  22  39  60  88 124 156 199 242 299 355
#
# _framework density 23.962254000000001
#
# number of rings (size 3 to 8) (size 9 to 14) (size 15 to 20)
#    0.000    1.333    3.333    2.000   14.000    4.000 
#    0.000    0.000    0.000    6.000    0.000    0.000 
#    0.000    0.000    0.000    0.000    0.000    0.000 
#
# Total GULP energy -134276.983147 kJ/mol
# GULP energy per Si atom -5594.874298 kJ/mol
# Density = 2.390772 g / cm^3
# Si number density = 23.962254 Si / 1000 Ang^3
#
#
#
# Elastic Constant Matrix: (Units=GPa)
#
#
# Indices 1 2 3 4 5 6 
#
# 1 167.4486 43.1065 15.4430 0.0000 0.0000 0.0000
# 2 43.1065 114.5771 13.4093 0.0000 0.0000 0.0000
# 3 15.4430 13.4093 56.6637 0.0000 0.0000 0.0000
# 4 0.0000 0.0000 0.0000 -21.1764 0.0000 0.0000
# 5 0.0000 0.0000 0.0000 0.0000 -8.1849 0.0000
# 6 0.0000 0.0000 0.0000 0.0000 0.0000 53.9326
#
#
#
# Elastic Compliance Matrix: (Units=1/GPa)
#
#
# Indices 1 2 3 4 5 6 
#
# 1 0.006699 -0.002372 -0.001264 0.000000 0.000000 0.000000
# 2 -0.002372 0.009817 -0.001676 0.000000 0.000000 0.000000
# 3 -0.001264 -0.001676 0.018389 0.000000 0.000000 0.000000
# 4 0.000000 0.000000 0.000000 -0.047222 0.000000 0.000000
# 5 0.000000 0.000000 0.000000 0.000000 -0.122176 0.000000
# 6 0.000000 0.000000 0.000000 0.000000 0.000000 0.018542
#
#
# Mechanical properties :
#
#
# Convention : Reuss Voigt Hill
#
# Bulk Modulus (GPa) = 41.18865 53.62299 47.40582
# Shear Modulus (GPa) = -51.42346 22.69629 -14.36358
#
# Velocity S-wave (km/s) = -4.63754 3.08095 -2.45097
# Velocity P-wave (km/s) = 3.38370 5.92309 3.43756
#
# Compressibility (1/GPa) = 0.02427853
#
# Stress axis : x y z
#
# Youngs Moduli (GPa) = 149.26847 101.86899 54.37944
#
# Poissons Ratio (x) = 0.24168 0.06876
# Poissons Ratio (y) = 0.35413 0.09117
# Poissons Ratio (z) = 0.18873 0.17078
#
# Static dielectric constant tensor:
#      x y z
#    x 1.969710 0.000000 0.000000 
#    y 0.000000 1.857710 0.000000 
#    z 0.000000 0.000000 1.848930 
# 
# From -- ./inp_files/9930.got.cif
#   From: 2010.05.17/outbox.cif.g08.bks.cpg/sg23_5_cif.got.tgz:9930.got - 2010.06.04 12:02:01.
