data_PCOD9331186
_publ_section_title
;
Structure prediction by ZEFSAII (Michael W. Deem and Ramdas Pophale) SiO2 
 PCOD9331186
Probable space group: I 2 2 2
;
_chemical_formula_sum "Si O2"
_cell_formula_units_Z 32
_cell_length_a 12.571485
_cell_length_b 5.537665
_cell_length_c 17.460870
_cell_angle_alpha 90.000000
_cell_angle_beta 90.000000
_cell_angle_gamma 90.000000
_cell_volume 1215.567668
_symmetry_space_group_name_H-M "I 2 2 2"
_symmetry_group_IT_number 23
_symmetry_cell_setting 'orthorhombic'
loop_
_space_group_symop_operation_xyz
x,y,z
-x,-y,z
x,-y,-z
-x,y,-z
1/2+x,1/2+y,1/2+z
1/2-x,1/2-y,1/2+z
1/2+x,1/2-y,1/2-z
1/2-x,1/2+y,1/2-z
loop_
_atom_site_type_symbol
_atom_site_label
_atom_site_fract_x
_atom_site_fract_y
_atom_site_fract_z
Si Si1 0.771391 0.426577 0.914040
Si Si2 0.015761 0.753725 0.870877
Si Si3 0.039405 0.251239 0.588443
Si Si4 0.706201 0.745323 0.287299
O O1 0.858001 0.276949 0.865262
O O2 0.755319 0.505948 0.743524
O O3 0.752948 0.682492 0.871689
O O4 0.798767 0.500000 0.000000
O O5 0.000000 0.500000 0.911167
O O6 0.924841 0.763861 0.802807
O O7 0.000000 0.000000 0.914073
O O8 0.165068 0.228054 0.586323
O O9 0.000000 0.500000 0.624796
O O10 0.000000 0.250403 0.500000
O O11 0.000000 0.000000 0.625001
#
# Coordination Sequence:
#
# PCOD9331186 Si02
#       4
#     8   8   8   8
#     4  11  24  49  86 119 158 205 267 346 398 473
#     4  10  23  46  76 115 159 196 262 322 398 474
#     4  10  21  42  68 105 157 193 255 309 383 477
#     4  11  25  49  75 110 165 215 259 316 401 497
#
# _framework density 26.325150000000001
#
# number of rings (size 3 to 8) (size 9 to 14) (size 15 to 20)
#    0.000    1.500    2.500    3.000    0.000   10.500 
#    0.000   20.000    0.000    0.000    0.000    0.000 
#    0.000    0.000    0.000    0.000    0.000    0.000 
#
# Total GULP energy -89109.539804 kJ/mol
# GULP energy per Si atom -5569.346238 kJ/mol
# Density = 2.626523 g / cm^3
# Si number density = 26.325150 Si / 1000 Ang^3
#
#
#
# Elastic Constant Matrix: (Units=GPa)
#
#
# Indices 1 2 3 4 5 6 
#
# 1 251.7607 78.3694 49.4055 0.0000 0.0000 0.0000
# 2 78.3694 252.9790 62.0365 0.0000 0.0000 0.0000
# 3 49.4055 62.0365 124.8299 0.0000 0.0000 0.0000
# 4 0.0000 0.0000 0.0000 -5.1563 0.0000 0.0000
# 5 0.0000 0.0000 0.0000 0.0000 26.8136 0.0000
# 6 0.0000 0.0000 0.0000 0.0000 0.0000 104.2687
#
#
#
# Elastic Compliance Matrix: (Units=1/GPa)
#
#
# Indices 1 2 3 4 5 6 
#
# 1 0.004563 -0.001105 -0.001257 0.000000 0.000000 0.000000
# 2 -0.001105 0.004769 -0.001933 0.000000 0.000000 0.000000
# 3 -0.001257 -0.001933 0.009469 0.000000 0.000000 0.000000
# 4 0.000000 0.000000 0.000000 -0.193936 0.000000 0.000000
# 5 0.000000 0.000000 0.000000 0.000000 0.037295 0.000000
# 6 0.000000 0.000000 0.000000 0.000000 0.000000 0.009591
#
#
# Mechanical properties :
#
#
# Convention : Reuss Voigt Hill
#
# Bulk Modulus (GPa) = 97.92834 112.13248 105.03041
# Shear Modulus (GPa) = -43.00815 54.50239 5.74712
#
# Velocity S-wave (km/s) = -4.04633 4.55505 1.47914
# Velocity P-wave (km/s) = 3.93064 8.38763 6.54990
#
# Compressibility (1/GPa) = 0.01021155
#
# Stress axis : x y z
#
# Youngs Moduli (GPa) = 219.16965 209.67625 105.61110
#
# Poissons Ratio (x) = 0.23176 0.13270
# Poissons Ratio (y) = 0.24225 0.20411
# Poissons Ratio (z) = 0.27539 0.40524
#
# Static dielectric constant tensor:
#      x y z
#    x 2.313750 0.000000 0.000000 
#    y 0.000000 2.335730 0.000000 
#    z 0.000000 0.000000 2.082530 
# 
# From -- ./inp_files/24557.got.cif
#   From: 2010.05.17/outbox.cif.g08.bks.cpg/sg23_13_cif.got.tgz:24557.got - 2010.06.04 12:02:01.
