data_PCOD9331419
_publ_section_title
;
Structure prediction by ZEFSAII (Michael W. Deem and Ramdas Pophale) SiO2 
 PCOD9331419
Probable space group: I 2 2 2
;
_chemical_formula_sum "Si O2"
_cell_formula_units_Z 58
_cell_length_a 28.695031
_cell_length_b 11.682291
_cell_length_c 7.746737
_cell_angle_alpha 90.000000
_cell_angle_beta 90.000000
_cell_angle_gamma 90.000000
_cell_volume 2596.889859
_symmetry_space_group_name_H-M "I 2 2 2"
_symmetry_group_IT_number 23
_symmetry_cell_setting 'orthorhombic'
loop_
_space_group_symop_operation_xyz
x,y,z
-x,-y,z
x,-y,-z
-x,y,-z
1/2+x,1/2+y,1/2+z
1/2-x,1/2-y,1/2+z
1/2+x,1/2-y,1/2-z
1/2-x,1/2+y,1/2-z
loop_
_atom_site_type_symbol
_atom_site_label
_atom_site_fract_x
_atom_site_fract_y
_atom_site_fract_z
Si Si1 0.077833 0.692366 0.740115
Si Si2 0.660816 0.677699 0.894976
Si Si3 0.125909 0.522509 0.190502
Si Si4 0.319412 0.440931 0.259768
Si Si5 0.994800 0.828468 0.795099
Si Si6 0.711147 0.916555 0.840084
Si Si7 0.500000 0.500000 0.000000
Si Si8 0.107142 0.772636 0.126473
O O1 0.108457 0.774544 0.618611
O O2 0.094598 0.564165 0.698381
O O3 0.022844 0.712119 0.754919
O O4 0.094872 0.733911 0.931590
O O5 0.669852 0.574846 0.761088
O O6 0.694202 0.786818 0.866148
O O7 0.671417 0.620469 0.077118
O O8 0.177863 0.470728 0.195026
O O9 0.124908 0.657228 0.221199
O O10 0.106364 0.500000 0.000000
O O11 0.265739 0.423373 0.306845
O O12 0.354801 0.371831 0.379748
O O13 0.939463 0.816638 0.778596
O O14 0.017370 0.911278 0.649774
O O15 0.000000 0.860261 0.000000
O O16 0.700254 0.000000 0.000000
#
# Coordination Sequence:
#
# PCOD9331419 Si02
#       8
#     8   8   8   8   8   8   2   8
#     4   9  21  42  66  94 131 170 217 271 327 396
#     4  10  25  42  60  90 125 166 214 269 323 401
#     4   9  20  41  68  94 129 173 216 270 335 393
#     4  11  26  39  62  89 124 166 215 266 329 397
#     4  10  24  43  67 101 133 178 229 274 338 409
#     4  11  25  41  63  90 125 172 215 274 333 392
#     4  12  26  40  68  92 136 188 210 284 334 406
#     4  10  22  40  66  98 131 168 218 273 328 402
#
# _framework density 22.334408
#
# number of rings (size 3 to 8) (size 9 to 14) (size 15 to 20)
#    0.000    1.931    0.000    1.034   11.586    1.655 
#    0.000    2.759    0.000    0.828    0.000    0.000 
#    0.000    0.000    0.000    0.000    0.000    0.000 
#
# Total GULP energy -161681.126901 kJ/mol
# GULP energy per Si atom -5575.211272 kJ/mol
# Density = 2.228357 g / cm^3
# Si number density = 22.334408 Si / 1000 Ang^3
#
#
#
# Elastic Constant Matrix: (Units=GPa)
#
#
# Indices 1 2 3 4 5 6 
#
# 1 75.3868 27.3128 12.3755 0.0000 0.0000 0.0000
# 2 27.3128 146.5166 37.9494 0.0000 0.0000 0.0000
# 3 12.3755 37.9494 78.8737 0.0000 0.0000 0.0000
# 4 0.0000 0.0000 0.0000 26.3681 0.0000 0.0000
# 5 0.0000 0.0000 0.0000 0.0000 17.0260 0.0000
# 6 0.0000 0.0000 0.0000 0.0000 0.0000 78.9118
#
#
#
# Elastic Compliance Matrix: (Units=1/GPa)
#
#
# Indices 1 2 3 4 5 6 
#
# 1 0.014309 -0.002383 -0.001099 0.000000 0.000000 0.000000
# 2 -0.002383 0.008194 -0.003568 0.000000 0.000000 0.000000
# 3 -0.001099 -0.003568 0.014568 0.000000 0.000000 0.000000
# 4 0.000000 0.000000 0.000000 0.037925 0.000000 0.000000
# 5 0.000000 0.000000 0.000000 0.000000 0.058734 0.000000
# 6 0.000000 0.000000 0.000000 0.000000 0.000000 0.012672
#
#
# Mechanical properties :
#
#
# Convention : Reuss Voigt Hill
#
# Bulk Modulus (GPa) = 43.53437 50.67251 47.10344
# Shear Modulus (GPa) = 29.73411 39.33713 34.53562
#
# Velocity S-wave (km/s) = 3.65268 4.20131 3.93656
# Velocity P-wave (km/s) = 6.10932 6.80236 6.46513
#
# Compressibility (1/GPa) = 0.02297036
#
# Stress axis : x y z
#
# Youngs Moduli (GPa) = 69.88826 122.04630 68.64457
#
# Poissons Ratio (x) = 0.29081 0.07541
# Poissons Ratio (y) = 0.16653 0.24495
# Poissons Ratio (z) = 0.07678 0.43551
#
# Static dielectric constant tensor:
#      x y z
#    x 1.846310 0.000000 0.000000 
#    y 0.000000 1.827930 0.000000 
#    z 0.000000 0.000000 1.898770 
# 
# From -- ./inp_files/13067.got.cif
#   From: 2010.05.17/outbox.cif.g08.bks.cpg/sg23_7_cif.got.tgz:13067.got - 2010.06.04 12:02:01.
