data_PCOD9331718
_publ_section_title
;
Structure prediction by ZEFSAII (Michael W. Deem and Ramdas Pophale) SiO2 
 PCOD9331718
Probable space group: I 2 2 2
;
_chemical_formula_sum "Si O2"
_cell_formula_units_Z 56
_cell_length_a 13.316225
_cell_length_b 22.757923
_cell_length_c 8.664500
_cell_angle_alpha 90.000000
_cell_angle_beta 90.000000
_cell_angle_gamma 90.000000
_cell_volume 2625.773460
_symmetry_space_group_name_H-M "I 2 2 2"
_symmetry_group_IT_number 23
_symmetry_cell_setting 'orthorhombic'
loop_
_space_group_symop_operation_xyz
x,y,z
-x,-y,z
x,-y,-z
-x,y,-z
1/2+x,1/2+y,1/2+z
1/2-x,1/2-y,1/2+z
1/2+x,1/2-y,1/2-z
1/2-x,1/2+y,1/2-z
loop_
_atom_site_type_symbol
_atom_site_label
_atom_site_fract_x
_atom_site_fract_y
_atom_site_fract_z
Si Si1 0.194578 0.156924 0.781427
Si Si2 0.263017 0.121244 0.289566
Si Si3 0.382155 0.011400 0.180250
Si Si4 0.103615 0.281274 0.292235
Si Si5 0.601524 0.661306 0.597512
Si Si6 0.617620 0.774958 0.157263
Si Si7 0.770265 0.055324 0.404159
O O1 0.309066 0.174727 0.740675
O O2 0.124880 0.208976 0.719952
O O3 0.164161 0.094615 0.710688
O O4 0.185031 0.157329 0.964260
O O5 0.148323 0.117959 0.226215
O O6 0.301043 0.186361 0.248371
O O7 0.263808 0.101671 0.465948
O O8 0.340255 0.076672 0.209001
O O9 0.318338 0.971104 0.297777
O O10 0.500000 0.000000 0.208308
O O11 0.362588 0.000000 0.000000
O O12 0.098086 0.225035 0.179157
O O13 0.127931 0.268232 0.472742
O O14 0.989590 0.303624 0.301957
O O15 0.500000 0.649310 0.500000
O O16 0.813000 0.000000 0.500000
#
# Coordination Sequence:
#
# PCOD9331718 Si02
#       7
#     8   8   8   8   8   8   8
#     4  12  22  41  66  93 139 180 234 291 355 426
#     4  11  23  42  64  96 146 177 239 292 354 436
#     4  10  23  43  69 100 138 186 239 290 357 428
#     4  11  23  38  61  96 144 174 231 271 364 439
#     4  12  24  41  65 103 133 187 235 295 364 436
#     4  11  24  38  62 103 135 188 219 288 364 433
#     4  10  25  44  68  98 136 195 238 295 359 425
#
# _framework density 21.327048000000001
#
# number of rings (size 3 to 8) (size 9 to 14) (size 15 to 20)
#    0.000    1.000    4.286    1.714    4.000    3.714 
#    0.000    0.000    0.000   13.286    0.000    0.000 
#    0.000    0.000    0.000    0.000    0.000    0.000 
#
# Total GULP energy -156151.720887 kJ/mol
# GULP energy per Si atom -5576.847175 kJ/mol
# Density = 2.127851 g / cm^3
# Si number density = 21.327048 Si / 1000 Ang^3
#
#
#
# Elastic Constant Matrix: (Units=GPa)
#
#
# Indices 1 2 3 4 5 6 
#
# 1 81.6623 20.8174 15.0162 0.0003 -0.0001 0.0000
# 2 20.8174 86.2411 43.3598 0.0004 0.0000 0.0000
# 3 15.0162 43.3598 105.6802 0.0012 0.0000 -0.0002
# 4 0.0003 0.0004 0.0012 41.5453 0.0000 -0.0001
# 5 -0.0001 0.0000 0.0000 0.0000 24.9114 0.0000
# 6 0.0000 0.0000 -0.0002 -0.0001 0.0000 24.8504
#
#
#
# Elastic Compliance Matrix: (Units=1/GPa)
#
#
# Indices 1 2 3 4 5 6 
#
# 1 0.013091 -0.002803 -0.000710 0.000000 0.000000 0.000000
# 2 -0.002803 0.015209 -0.005842 0.000000 0.000000 0.000000
# 3 -0.000710 -0.005842 0.011960 0.000000 0.000000 0.000000
# 4 0.000000 0.000000 0.000000 0.024070 0.000000 0.000000
# 5 0.000000 0.000000 0.000000 0.000000 0.040142 0.000000
# 6 0.000000 0.000000 0.000000 0.000000 0.000000 0.040241
#
#
# Mechanical properties :
#
#
# Convention : Reuss Voigt Hill
#
# Bulk Modulus (GPa) = 46.40302 47.99671 47.19986
# Shear Modulus (GPa) = 29.30720 31.22077 30.26398
#
# Velocity S-wave (km/s) = 3.71101 3.83025 3.77110
# Velocity P-wave (km/s) = 6.33776 6.48961 6.41414
#
# Compressibility (1/GPa) = 0.02155032
#
# Stress axis : x y z
#
# Youngs Moduli (GPa) = 76.39051 65.74992 83.61001
#
# Poissons Ratio (x) = 0.18429 0.05937
# Poissons Ratio (y) = 0.21412 0.48844
# Poissons Ratio (z) = 0.05424 0.38411
#
# Static dielectric constant tensor:
#      x y z
#    x 1.819290 0.000000 0.000000 
#    y 0.000000 1.784210 0.000000 
#    z 0.000000 0.000000 1.806500 
# 
# From -- ./inp_files/10218.got.cif
#   From: 2010.05.17/outbox.cif.g08.bks.cpg/sg23_6_cif.got.tgz:10218.got - 2010.06.04 12:02:01.
