data_PCOD9331227
_publ_section_title
;
Structure prediction by ZEFSAII (Michael W. Deem and Ramdas Pophale) SiO2 
 PCOD9331227
Probable space group: I 2 2 2
;
_chemical_formula_sum "Si O2"
_cell_formula_units_Z 32
_cell_length_a 7.482025
_cell_length_b 13.406031
_cell_length_c 11.258281
_cell_angle_alpha 90.000000
_cell_angle_beta 90.000000
_cell_angle_gamma 90.000000
_cell_volume 1129.253534
_symmetry_space_group_name_H-M "I 2 2 2"
_symmetry_group_IT_number 23
_symmetry_cell_setting 'orthorhombic'
loop_
_space_group_symop_operation_xyz
x,y,z
-x,-y,z
x,-y,-z
-x,y,-z
1/2+x,1/2+y,1/2+z
1/2-x,1/2-y,1/2+z
1/2+x,1/2-y,1/2-z
1/2-x,1/2+y,1/2-z
loop_
_atom_site_type_symbol
_atom_site_label
_atom_site_fract_x
_atom_site_fract_y
_atom_site_fract_z
Si Si1 0.992141 0.222726 0.368976
Si Si2 0.117288 0.718497 0.117751
Si Si3 0.805019 0.952589 0.886968
Si Si4 0.294547 0.042229 0.623959
O O1 0.977795 0.286098 0.246897
O O2 0.822716 0.148098 0.371502
O O3 0.000000 0.272394 0.500000
O O4 0.187301 0.170907 0.362901
O O5 0.162895 0.834823 0.099225
O O6 0.000000 0.688216 0.000000
O O7 0.729868 0.982840 0.761668
O O8 0.000000 0.000000 0.883800
O O9 0.709916 0.000000 0.000000
O O10 0.500000 0.000000 0.615057
O O11 0.218003 0.000000 0.500000
#
# Coordination Sequence:
#
# PCOD9331227 Si02
#       4
#     8   8   8   8
#     4  11  26  48  76 112 156 210 261 327 398 472
#     4  11  23  48  75 114 159 207 261 328 391 477
#     4  10  21  43  76 109 149 199 256 320 394 469
#     4  10  25  48  74 111 150 201 266 327 392 473
#
# _framework density 28.337301
#
# number of rings (size 3 to 8) (size 9 to 14) (size 15 to 20)
#    0.000    1.500    2.500    1.500    7.000    0.500 
#   31.500    0.000    0.000    0.000    0.000    0.000 
#    0.000    0.000    0.000    0.000    0.000    0.000 
#
# Total GULP energy -89203.809131 kJ/mol
# GULP energy per Si atom -5575.238071 kJ/mol
# Density = 2.827280 g / cm^3
# Si number density = 28.337301 Si / 1000 Ang^3
#
#
#
# Elastic Constant Matrix: (Units=GPa)
#
#
# Indices 1 2 3 4 5 6 
#
# 1 219.7225 44.8693 96.8890 0.0000 0.0000 0.0000
# 2 44.8693 132.7813 33.0925 0.0000 -0.0001 0.0000
# 3 96.8890 33.0925 300.1750 0.0000 -0.0002 0.0000
# 4 0.0000 0.0000 0.0000 23.6930 -0.0001 0.0000
# 5 0.0000 -0.0001 -0.0002 -0.0001 3.8135 0.0000
# 6 0.0000 0.0000 0.0000 0.0000 0.0000 32.4527
#
#
#
# Elastic Compliance Matrix: (Units=1/GPa)
#
#
# Indices 1 2 3 4 5 6 
#
# 1 0.005574 -0.001476 -0.001637 0.000000 0.000000 0.000000
# 2 -0.001476 0.008135 -0.000420 0.000000 0.000000 0.000000
# 3 -0.001637 -0.000420 0.003906 0.000000 0.000000 0.000000
# 4 0.000000 0.000000 0.000000 0.042207 0.000001 0.000000
# 5 0.000000 0.000000 0.000000 0.000001 0.262228 0.000000
# 6 0.000000 0.000000 0.000000 0.000000 0.000000 0.030814
#
#
# Mechanical properties :
#
#
# Convention : Reuss Voigt Hill
#
# Bulk Modulus (GPa) = 94.79258 111.37559 103.08408
# Shear Modulus (GPa) = 13.75723 43.84703 28.80213
#
# Velocity S-wave (km/s) = 2.20575 3.93787 3.19157
# Velocity P-wave (km/s) = 6.32545 7.75014 7.07375
#
# Compressibility (1/GPa) = 0.01054935
#
# Stress axis : x y z
#
# Youngs Moduli (GPa) = 179.39798 122.93076 256.01831
#
# Poissons Ratio (x) = 0.18142 0.41898
# Poissons Ratio (y) = 0.26475 0.10764
# Poissons Ratio (z) = 0.29359 0.05169
#
# Static dielectric constant tensor:
#      x y z
#    x 2.257080 0.000000 0.000000 
#    y 0.000000 2.767390 0.000000 
#    z 0.000000 0.000000 2.252330 
# 
# From -- ./inp_files/14292.got.cif
#   From: 2010.05.17/outbox.cif.g08.bks.cpg/sg23_8_cif.got.tgz:14292.got - 2010.06.04 12:02:01.
