data_PCOD9331217
_publ_section_title
;
Structure prediction by ZEFSAII (Michael W. Deem and Ramdas Pophale) SiO2 
 PCOD9331217
Probable space group: I 2 2 2
;
_chemical_formula_sum "Si O2"
_cell_formula_units_Z 58
_cell_length_a 30.521431
_cell_length_b 13.750153
_cell_length_c 5.336434
_cell_angle_alpha 90.000000
_cell_angle_beta 90.000000
_cell_angle_gamma 90.000000
_cell_volume 2239.564449
_symmetry_space_group_name_H-M "I 2 2 2"
_symmetry_group_IT_number 23
_symmetry_cell_setting 'orthorhombic'
loop_
_space_group_symop_operation_xyz
x,y,z
-x,-y,z
x,-y,-z
-x,y,-z
1/2+x,1/2+y,1/2+z
1/2-x,1/2-y,1/2+z
1/2+x,1/2-y,1/2-z
1/2-x,1/2+y,1/2-z
loop_
_atom_site_type_symbol
_atom_site_label
_atom_site_fract_x
_atom_site_fract_y
_atom_site_fract_z
Si Si1 0.782952 0.592260 0.249288
Si Si2 0.063036 0.835953 0.650650
Si Si3 0.379722 0.243389 0.213411
Si Si4 0.346733 0.387223 0.565422
Si Si5 0.000000 0.000000 0.500000
Si Si6 0.246668 0.877725 0.747423
Si Si7 0.621416 0.885549 0.715856
Si Si8 0.027313 0.623621 0.752276
O O1 0.753450 0.495762 0.248163
O O2 0.772592 0.649570 0.501430
O O3 0.833139 0.557724 0.228565
O O4 0.770349 0.653372 0.005803
O O5 0.076808 0.805073 0.365254
O O6 0.107806 0.863759 0.793815
O O7 0.031112 0.927221 0.653362
O O8 0.040968 0.738143 0.756027
O O9 0.346154 0.324168 0.311072
O O10 0.381869 0.169323 0.447615
O O11 0.372545 0.185316 0.956518
O O12 0.345095 0.500000 0.500000
O O13 0.304511 0.359080 0.727236
O O14 0.573894 0.932312 0.751984
O O15 0.000000 0.607788 0.500000
O O16 0.000000 0.603571 0.000000
#
# Coordination Sequence:
#
# PCOD9331217 Si02
#       8
#     8   8   8   8   2   8   8   8
#     4  10  21  43  67 102 122 171 210 271 322 396
#     4  11  25  39  63  89 128 169 229 276 325 366
#     4  11  23  43  62  92 121 178 211 276 325 385
#     4  12  24  42  68  88 127 178 226 270 330 385
#     4  12  24  40  62  96 122 176 230 290 318 376
#     4  10  23  41  71  95 132 161 223 257 326 407
#     4  11  23  42  71  93 135 163 225 265 337 384
#     4  11  22  39  64  89 126 169 211 262 312 384
#
# _framework density 25.89789
#
# number of rings (size 3 to 8) (size 9 to 14) (size 15 to 20)
#    0.000    1.103    4.828    3.310    1.931    2.207 
#    0.000    3.448    0.000    0.000    0.000   11.586 
#    0.000    0.000    0.000    0.000    0.000    0.000 
#
# Total GULP energy -162336.271361 kJ/mol
# GULP energy per Si atom -5597.802461 kJ/mol
# Density = 2.583895 g / cm^3
# Si number density = 25.897890 Si / 1000 Ang^3
#
#
#
# Elastic Constant Matrix: (Units=GPa)
#
#
# Indices 1 2 3 4 5 6 
#
# 1 210.1600 36.2445 69.6707 0.0000 -0.0001 0.0001
# 2 36.2445 91.1621 30.0573 0.0001 0.0000 -0.0001
# 3 69.6707 30.0573 220.1054 0.0005 -0.0003 0.0004
# 4 0.0000 0.0001 0.0005 32.9249 0.0000 0.0001
# 5 -0.0001 0.0000 -0.0003 0.0000 38.1519 0.0000
# 6 0.0001 -0.0001 0.0004 0.0001 0.0000 15.1264
#
#
#
# Elastic Compliance Matrix: (Units=1/GPa)
#
#
# Indices 1 2 3 4 5 6 
#
# 1 0.005559 -0.001707 -0.001526 0.000000 0.000000 0.000000
# 2 -0.001707 0.012011 -0.001100 0.000000 0.000000 0.000000
# 3 -0.001526 -0.001100 0.005177 0.000000 0.000000 0.000000
# 4 0.000000 0.000000 0.000000 0.030372 0.000000 0.000000
# 5 0.000000 0.000000 0.000000 0.000000 0.026211 0.000000
# 6 0.000000 0.000000 0.000000 0.000000 0.000000 0.066110
#
#
# Mechanical properties :
#
#
# Convention : Reuss Voigt Hill
#
# Bulk Modulus (GPa) = 71.02366 88.15250 79.58808
# Shear Modulus (GPa) = 31.48650 42.93765 37.21208
#
# Velocity S-wave (km/s) = 3.49061 4.07622 3.79473
# Velocity P-wave (km/s) = 6.61285 7.50110 7.07094
#
# Compressibility (1/GPa) = 0.01407982
#
# Stress axis : x y z
#
# Youngs Moduli (GPa) = 179.89953 83.25909 193.17523
#
# Poissons Ratio (x) = 0.14210 0.29487
# Poissons Ratio (y) = 0.30704 0.21248
# Poissons Ratio (z) = 0.27460 0.09158
#
# Static dielectric constant tensor:
#      x y z
#    x 2.030130 0.000000 0.000000 
#    y 0.000000 2.141820 0.000000 
#    z 0.000000 0.000000 1.268250 
# 
# From -- ./inp_files/5021.got.cif
#   From: 2010.05.17/outbox.cif.g08.bks.cpg/sg23_3_cif.got.tgz:5021.got - 2010.06.04 12:02:01.
