data_PCOD9331493
_publ_section_title
;
Structure prediction by ZEFSAII (Michael W. Deem and Ramdas Pophale) SiO2 
 PCOD9331493
Probable space group: I 2 2 2
;
_chemical_formula_sum "Si O2"
_cell_formula_units_Z 42
_cell_length_a 6.346314
_cell_length_b 18.054252
_cell_length_c 18.515794
_cell_angle_alpha 90.000000
_cell_angle_beta 90.000000
_cell_angle_gamma 90.000000
_cell_volume 2121.501760
_symmetry_space_group_name_H-M "I 2 2 2"
_symmetry_group_IT_number 23
_symmetry_cell_setting 'orthorhombic'
loop_
_space_group_symop_operation_xyz
x,y,z
-x,-y,z
x,-y,-z
-x,y,-z
1/2+x,1/2+y,1/2+z
1/2-x,1/2-y,1/2+z
1/2+x,1/2-y,1/2-z
1/2-x,1/2+y,1/2-z
loop_
_atom_site_type_symbol
_atom_site_label
_atom_site_fract_x
_atom_site_fract_y
_atom_site_fract_z
Si Si1 0.595270 0.917207 0.197003
Si Si2 0.786631 0.193832 0.176602
Si Si3 0.053491 0.917239 0.915248
Si Si4 0.500000 0.000000 0.500000
Si Si5 0.914041 0.159638 0.696486
Si Si6 0.381176 0.577675 0.930287
O O1 0.409672 0.857247 0.199800
O O2 0.763114 0.898097 0.260728
O O3 0.715270 0.906385 0.119717
O O4 0.500000 0.000000 0.202595
O O5 0.906842 0.146557 0.116635
O O6 0.717218 0.276320 0.156830
O O7 0.949803 0.199632 0.242237
O O8 0.000000 0.000000 0.887186
O O9 0.000000 0.918242 0.000000
O O10 0.647310 0.053196 0.451920
O O11 0.075593 0.123575 0.640729
O O12 0.500000 0.500000 0.918597
O O13 0.500000 0.612185 0.000000
#
# Coordination Sequence:
#
# PCOD9331493 Si02
#       6
#     8   8   8   2   8   8
#     4  11  23  41  66  96 123 168 215 256 318 377
#     4  11  23  42  62  92 131 166 214 258 321 380
#     4  10  22  42  66  95 128 164 217 265 304 380
#     4   8  18  44  64  94 120 164 218 276 304 382
#     4  11  24  42  64  95 131 167 207 270 314 378
#     4   9  21  41  64  95 126 158 218 262 315 387
#
# _framework density 19.797295999999999
#
# number of rings (size 3 to 8) (size 9 to 14) (size 15 to 20)
#    0.000    1.905    3.810    0.000    2.667    3.810 
#    5.143    0.000    2.095    0.000    0.000    0.000 
#    0.000    0.000    0.000    0.000    0.000    0.000 
#
# Total GULP energy -117100.625663 kJ/mol
# GULP energy per Si atom -5576.220270 kJ/mol
# Density = 1.975224 g / cm^3
# Si number density = 19.797296 Si / 1000 Ang^3
#
#
#
# Elastic Constant Matrix: (Units=GPa)
#
#
# Indices 1 2 3 4 5 6 
#
# 1 104.4915 43.2969 25.2007 0.0000 0.0000 0.0000
# 2 43.2969 94.6619 47.7454 0.0000 0.0000 0.0000
# 3 25.2007 47.7454 65.8627 0.0000 0.0000 0.0000
# 4 0.0000 0.0000 0.0000 4.7986 0.0000 0.0000
# 5 0.0000 0.0000 0.0000 0.0000 -7.0909 0.0000
# 6 0.0000 0.0000 0.0000 0.0000 0.0000 25.9215
#
#
#
# Elastic Compliance Matrix: (Units=1/GPa)
#
#
# Indices 1 2 3 4 5 6 
#
# 1 0.011846 -0.004937 -0.000953 0.000000 0.000000 0.000000
# 2 -0.004937 0.018711 -0.011675 0.000000 0.000000 0.000000
# 3 -0.000953 -0.011675 0.024011 0.000000 0.000000 0.000000
# 4 0.000000 0.000000 0.000000 0.208392 0.000000 0.000000
# 5 0.000000 0.000000 0.000000 0.000000 -0.141026 0.000000
# 6 0.000000 0.000000 0.000000 0.000000 0.000000 0.038578
#
#
# Mechanical properties :
#
#
# Convention : Reuss Voigt Hill
#
# Bulk Modulus (GPa) = 51.44821 55.27800 53.36311
# Shear Modulus (GPa) = 24.73766 14.64407 19.69087
#
# Velocity S-wave (km/s) = 3.53873 2.72269 3.15719
# Velocity P-wave (km/s) = 6.53764 6.15359 6.34852
#
# Compressibility (1/GPa) = 0.01943702
#
# Stress axis : x y z
#
# Youngs Moduli (GPa) = 84.41757 53.44576 41.64741
#
# Poissons Ratio (x) = 0.26388 0.03971
# Poissons Ratio (y) = 0.41679 0.48622
# Poissons Ratio (z) = 0.08048 0.62396
#
# Static dielectric constant tensor:
#      x y z
#    x 1.734120 0.000000 0.000000 
#    y 0.000000 1.703870 0.000000 
#    z 0.000000 0.000000 1.727950 
# 
# From -- ./inp_files/25667.got.cif
#   From: 2010.05.17/outbox.cif.g08.bks.cpg/sg23_13_cif.got.tgz:25667.got - 2010.06.04 12:02:01.
