data_PCOD9331295
_publ_section_title
;
Structure prediction by ZEFSAII (Michael W. Deem and Ramdas Pophale) SiO2 
 PCOD9331295
Probable space group: I 2 2 2
;
_chemical_formula_sum "Si O2"
_cell_formula_units_Z 60
_cell_length_a 12.996015
_cell_length_b 20.276530
_cell_length_c 11.264685
_cell_angle_alpha 90.000000
_cell_angle_beta 90.000000
_cell_angle_gamma 90.000000
_cell_volume 2968.403195
_symmetry_space_group_name_H-M "I 2 2 2"
_symmetry_group_IT_number 23
_symmetry_cell_setting 'orthorhombic'
loop_
_space_group_symop_operation_xyz
x,y,z
-x,-y,z
x,-y,-z
-x,y,-z
1/2+x,1/2+y,1/2+z
1/2-x,1/2-y,1/2+z
1/2+x,1/2-y,1/2-z
1/2-x,1/2+y,1/2-z
loop_
_atom_site_type_symbol
_atom_site_label
_atom_site_fract_x
_atom_site_fract_y
_atom_site_fract_z
Si Si1 0.777967 0.303940 0.960794
Si Si2 0.555838 0.935154 0.264805
Si Si3 0.500000 0.107495 0.000000
Si Si4 0.746291 0.562273 0.910282
Si Si5 0.866626 0.176117 0.236333
Si Si6 0.480335 0.422311 0.862409
Si Si7 0.977542 0.708598 0.172869
Si Si8 0.174197 0.692164 0.606560
O O1 0.782411 0.378677 0.004765
O O2 0.893974 0.281866 0.930782
O O3 0.723316 0.258080 0.055715
O O4 0.702053 0.300240 0.847882
O O5 0.524491 0.928782 0.125137
O O6 0.672577 0.947361 0.304893
O O7 0.521767 0.865781 0.323576
O O8 0.500000 0.000000 0.313518
O O9 0.601800 0.151816 0.018396
O O10 0.640979 0.585438 0.848963
O O11 0.730140 0.500000 0.000000
O O12 0.934904 0.236518 0.187261
O O13 0.775345 0.152116 0.149112
O O14 0.945349 0.120358 0.280317
O O15 0.500000 0.500000 0.848580
O O16 0.500000 0.403640 0.000000
O O17 0.903765 0.710767 0.288554
#
# Coordination Sequence:
#
# PCOD9331295 Si02
#       8
#     8   8   4   8   8   8   8   8
#     4  11  21  37  59  86 125 163 204 262 320 374
#     4  11  24  42  63  89 124 169 212 260 315 377
#     4  10  23  46  64  84 123 166 218 256 305 376
#     4  12  23  37  64  96 124 160 207 258 325 385
#     4  11  22  37  60  92 126 162 207 258 319 378
#     4  11  21  40  63  91 127 160 196 248 323 393
#     4  10  23  38  56  90 125 161 210 261 316 376
#     4  10  22  37  61  87 118 166 213 258 308 376
#
# _framework density 20.212886999999998
#
# number of rings (size 3 to 8) (size 9 to 14) (size 15 to 20)
#    0.000    1.200    2.667    4.200    0.000    8.800 
#    0.000    0.000    0.000    0.000    0.000    5.600 
#    0.000    0.000    0.000    0.000    0.000    0.000 
#
# Total GULP energy -167443.415474 kJ/mol
# GULP energy per Si atom -5581.447182 kJ/mol
# Density = 2.016688 g / cm^3
# Si number density = 20.212887 Si / 1000 Ang^3
#
#
#
# Elastic Constant Matrix: (Units=GPa)
#
#
# Indices 1 2 3 4 5 6 
#
# 1 175.6507 46.8593 31.1698 0.0000 0.0000 0.0000
# 2 46.8593 88.3857 31.9822 0.0000 0.0000 0.0000
# 3 31.1698 31.9822 31.1847 0.0000 0.0000 0.0000
# 4 0.0000 0.0000 0.0000 2.5891 0.0000 0.0000
# 5 0.0000 0.0000 0.0000 0.0000 44.5251 0.0000
# 6 0.0000 0.0000 0.0000 0.0000 0.0000 30.1066
#
#
#
# Elastic Compliance Matrix: (Units=1/GPa)
#
#
# Indices 1 2 3 4 5 6 
#
# 1 0.007117 -0.001907 -0.005158 0.000000 0.000000 0.000000
# 2 -0.001907 0.018501 -0.017068 0.000000 0.000000 0.000000
# 3 -0.005158 -0.017068 0.054728 0.000000 0.000000 0.000000
# 4 0.000000 0.000000 0.000000 0.386238 0.000000 0.000000
# 5 0.000000 0.000000 0.000000 0.000000 0.022459 0.000000
# 6 0.000000 0.000000 0.000000 0.000000 0.000000 0.033215
#
#
# Mechanical properties :
#
#
# Convention : Reuss Voigt Hill
#
# Bulk Modulus (GPa) = 31.17288 57.24929 44.21109
# Shear Modulus (GPa) = 8.60262 27.79148 18.19705
#
# Velocity S-wave (km/s) = 2.06525 3.71204 3.00370
# Velocity P-wave (km/s) = 4.59813 6.83791 5.82665
#
# Compressibility (1/GPa) = 0.03207916
#
# Stress axis : x y z
#
# Youngs Moduli (GPa) = 140.50586 54.05076 18.27233
#
# Poissons Ratio (x) = 0.10306 0.09425
# Poissons Ratio (y) = 0.26792 0.31188
# Poissons Ratio (z) = 0.72475 0.92256
#
# Static dielectric constant tensor:
#      x y z
#    x 1.739900 0.000000 0.000000 
#    y 0.000000 1.701250 0.000000 
#    z 0.000000 0.000000 1.780440 
# 
# From -- ./inp_files/15984.got.cif
#   From: 2010.05.17/outbox.cif.g08.bks.cpg/sg23_8_cif.got.tgz:15984.got - 2010.06.04 12:02:01.
