data_PCOD9331187
_publ_section_title
;
Structure prediction by ZEFSAII (Michael W. Deem and Ramdas Pophale) SiO2 
 PCOD9331187
Probable space group: I 2 2 2
;
_chemical_formula_sum "Si O2"
_cell_formula_units_Z 58
_cell_length_a 10.820684
_cell_length_b 26.637099
_cell_length_c 10.114121
_cell_angle_alpha 90.000000
_cell_angle_beta 90.000000
_cell_angle_gamma 90.000000
_cell_volume 2915.209592
_symmetry_space_group_name_H-M "I 2 2 2"
_symmetry_group_IT_number 23
_symmetry_cell_setting 'orthorhombic'
loop_
_space_group_symop_operation_xyz
x,y,z
-x,-y,z
x,-y,-z
-x,y,-z
1/2+x,1/2+y,1/2+z
1/2-x,1/2-y,1/2+z
1/2+x,1/2-y,1/2-z
1/2-x,1/2+y,1/2-z
loop_
_atom_site_type_symbol
_atom_site_label
_atom_site_fract_x
_atom_site_fract_y
_atom_site_fract_z
Si Si1 0.172046 0.123164 0.586884
Si Si2 0.133708 0.557999 0.777423
Si Si3 0.277216 0.470890 0.623212
Si Si4 0.578310 0.885534 0.124822
Si Si5 0.758317 0.194258 0.780703
Si Si6 0.000000 0.500000 0.000000
Si Si7 0.349557 0.736548 0.004017
Si Si8 0.596238 0.602423 0.803997
O O1 0.275256 0.102808 0.683876
O O2 0.166728 0.182559 0.565970
O O3 0.180190 0.102090 0.436873
O O4 0.042151 0.106014 0.646566
O O5 0.197352 0.513052 0.697649
O O6 0.017312 0.580034 0.701924
O O7 0.085520 0.534244 0.911306
O O8 0.332453 0.500000 0.500000
O O9 0.187909 0.423997 0.582261
O O10 0.375862 0.446064 0.719052
O O11 0.637242 0.842477 0.217809
O O12 0.500000 0.865232 0.000000
O O13 0.730392 0.225272 0.914258
O O14 0.792096 0.228630 0.652391
O O15 0.867846 0.152852 0.776831
O O16 0.500000 0.746346 0.000000
#
# Coordination Sequence:
#
# PCOD9331187 Si02
#       8
#     8   8   8   8   8   2   8   8
#     4  10  21  42  68  88 129 175 215 269 321 384
#     4  12  24  36  61  98 128 172 219 268 322 378
#     4  11  21  39  65  91 132 174 212 262 324 386
#     4  11  22  41  66  93 132 174 215 266 332 391
#     4  10  23  41  73  99 124 174 219 271 331 403
#     4  12  24  36  58  98 144 160 224 286 306 376
#     4  11  22  46  71  96 137 173 216 276 344 397
#     4   9  20  44  66  90 128 172 213 260 322 390
#
# _framework density 19.895652999999999
#
# number of rings (size 3 to 8) (size 9 to 14) (size 15 to 20)
#    0.000    1.379    5.517    1.241    3.862    2.759 
#    0.000    6.207    3.034    0.000    0.000    0.000 
#    0.000    0.000    0.000    0.000    0.000    0.000 
#
# Total GULP energy -161716.905123 kJ/mol
# GULP energy per Si atom -5576.445004 kJ/mol
# Density = 1.985037 g / cm^3
# Si number density = 19.895653 Si / 1000 Ang^3
#
#
#
# Elastic Constant Matrix: (Units=GPa)
#
#
# Indices 1 2 3 4 5 6 
#
# 1 41.6291 18.9136 33.4559 0.0002 -0.0002 -0.0007
# 2 18.9136 78.7792 50.2465 0.0001 -0.0001 -0.0003
# 3 33.4559 50.2465 87.8816 0.0005 -0.0002 -0.0020
# 4 0.0002 0.0001 0.0005 28.1620 0.0000 -0.0005
# 5 -0.0002 -0.0001 -0.0002 0.0000 35.0102 -0.0001
# 6 -0.0007 -0.0003 -0.0020 -0.0005 -0.0001 -13.2848
#
#
#
# Elastic Compliance Matrix: (Units=1/GPa)
#
#
# Indices 1 2 3 4 5 6 
#
# 1 0.034612 0.000149 -0.013261 0.000000 0.000000 0.000000
# 2 0.000149 0.019980 -0.011480 0.000000 0.000000 0.000001
# 3 -0.013261 -0.011480 0.022991 0.000000 0.000000 -0.000002
# 4 0.000000 0.000000 0.000000 0.035509 0.000000 -0.000001
# 5 0.000000 0.000000 0.000000 0.000000 0.028563 0.000000
# 6 0.000000 0.000001 -0.000002 -0.000001 0.000000 -0.075274
#
#
# Mechanical properties :
#
#
# Convention : Reuss Voigt Hill
#
# Bulk Modulus (GPa) = 35.21475 45.94689 40.58082
# Shear Modulus (GPa) = 39.98907 17.02238 28.50573
#
# Velocity S-wave (km/s) = 4.48810 2.92821 3.78929
# Velocity P-wave (km/s) = 6.67799 5.88019 6.29175
#
# Compressibility (1/GPa) = 0.02839719
#
# Stress axis : x y z
#
# Youngs Moduli (GPa) = 28.89178 50.04904 43.49449
#
# Poissons Ratio (x) = -0.00744 0.57680
# Poissons Ratio (y) = -0.00429 0.49933
# Poissons Ratio (z) = 0.38315 0.57458
#
# Static dielectric constant tensor:
#      x y z
#    x 1.713430 0.000000 0.000000 
#    y 0.000000 1.733310 0.000000 
#    z 0.000000 0.000000 1.739320 
# 
# From -- ./inp_files/8866.got.cif
#   From: 2010.05.17/outbox.cif.g08.bks.cpg/sg23_5_cif.got.tgz:8866.got - 2010.06.04 12:02:01.
