data_PCOD9331490
_publ_section_title
;
Structure prediction by ZEFSAII (Michael W. Deem and Ramdas Pophale) SiO2 
 PCOD9331490
Probable space group: I 2 2 2
;
_chemical_formula_sum "Si O2"
_cell_formula_units_Z 32
_cell_length_a 23.609414
_cell_length_b 5.021601
_cell_length_c 11.179795
_cell_angle_alpha 90.000000
_cell_angle_beta 90.000000
_cell_angle_gamma 90.000000
_cell_volume 1325.443593
_symmetry_space_group_name_H-M "I 2 2 2"
_symmetry_group_IT_number 23
_symmetry_cell_setting 'orthorhombic'
loop_
_space_group_symop_operation_xyz
x,y,z
-x,-y,z
x,-y,-z
-x,y,-z
1/2+x,1/2+y,1/2+z
1/2-x,1/2-y,1/2+z
1/2+x,1/2-y,1/2-z
1/2-x,1/2+y,1/2-z
loop_
_atom_site_type_symbol
_atom_site_label
_atom_site_fract_x
_atom_site_fract_y
_atom_site_fract_z
Si Si1 0.287118 0.749927 0.588022
Si Si2 0.055290 0.638814 0.745645
Si Si3 0.663569 0.752610 0.914747
Si Si4 0.908408 0.145009 0.127826
O O1 0.284451 0.500000 0.500000
O O2 0.225428 0.793506 0.646925
O O3 0.342680 0.689486 0.666368
O O4 0.298959 0.000000 0.500000
O O5 0.111170 0.653762 0.664556
O O6 0.065635 0.436686 0.856648
O O7 0.000000 0.500000 0.686629
O O8 0.056855 0.941326 0.790596
O O9 0.650973 0.500000 0.000000
O O10 0.673186 0.000000 0.000000
O O11 0.908515 0.000000 0.000000
#
# Coordination Sequence:
#
# PCOD9331490 Si02
#       4
#     8   8   8   8
#     4   9  18  36  63  94 123 157 206 260 331 407
#     4  12  26  41  61  93 126 170 228 261 311 404
#     4  10  22  42  66  92 126 163 207 274 336 387
#     4  11  23  41  64  91 128 168 209 271 332 388
#
# _framework density 24.142859000000001
#
# number of rings (size 3 to 8) (size 9 to 14) (size 15 to 20)
#    0.000    1.500    0.000    6.000    0.000    5.500 
#    0.000    1.250    0.000    0.000    0.000    0.000 
#    0.000    0.000    0.000    0.000    0.000    0.000 
#
# Total GULP energy -89245.581058 kJ/mol
# GULP energy per Si atom -5577.848816 kJ/mol
# Density = 2.408791 g / cm^3
# Si number density = 24.142859 Si / 1000 Ang^3
#
#
#
# Elastic Constant Matrix: (Units=GPa)
#
#
# Indices 1 2 3 4 5 6 
#
# 1 236.0246 50.8420 43.0158 0.0000 0.0000 0.0000
# 2 50.8420 167.9705 20.2039 0.0000 0.0000 0.0000
# 3 43.0158 20.2039 22.2941 0.0000 0.0000 0.0000
# 4 0.0000 0.0000 0.0000 20.5229 0.0000 0.0000
# 5 0.0000 0.0000 0.0000 0.0000 22.9800 0.0000
# 6 0.0000 0.0000 0.0000 0.0000 0.0000 45.2678
#
#
#
# Elastic Compliance Matrix: (Units=1/GPa)
#
#
# Indices 1 2 3 4 5 6 
#
# 1 0.006575 -0.000521 -0.012214 0.000000 0.000000 0.000000
# 2 -0.000521 0.006723 -0.005087 0.000000 0.000000 0.000000
# 3 -0.012214 -0.005087 0.073033 0.000000 0.000000 0.000000
# 4 0.000000 0.000000 0.000000 0.048726 0.000000 0.000000
# 5 0.000000 0.000000 0.000000 0.000000 0.043516 0.000000
# 6 0.000000 0.000000 0.000000 0.000000 0.000000 0.022091
#
#
# Mechanical properties :
#
#
# Convention : Reuss Voigt Hill
#
# Bulk Modulus (GPa) = 19.72958 72.71252 46.22105
# Shear Modulus (GPa) = 19.74683 38.56931 29.15807
#
# Velocity S-wave (km/s) = 2.86303 4.00127 3.47901
# Velocity P-wave (km/s) = 4.37253 7.17843 5.94343
#
# Compressibility (1/GPa) = 0.05068532
#
# Stress axis : x y z
#
# Youngs Moduli (GPa) = 152.08695 148.74165 13.69244
#
# Poissons Ratio (x) = 0.07750 0.16725
# Poissons Ratio (y) = 0.07924 0.06966
# Poissons Ratio (z) = 1.85766 0.75672
#
# Static dielectric constant tensor:
#      x y z
#    x 2.100890 0.000000 0.000000 
#    y 0.000000 1.841250 0.000000 
#    z 0.000000 0.000000 1.878950 
# 
# From -- ./inp_files/1356.got.cif
#   From: 2010.05.17/outbox.cif.g08.bks.cpg/sg23_1_cif.got.tgz:1356.got - 2010.06.04 12:02:01.
