data_PCOD9331840
_publ_section_title
;
Structure prediction by ZEFSAII (Michael W. Deem and Ramdas Pophale) SiO2 
 PCOD9331840
Probable space group: I 2 2 2
;
_chemical_formula_sum "Si O2"
_cell_formula_units_Z 56
_cell_length_a 22.744748
_cell_length_b 7.725837
_cell_length_c 14.667502
_cell_angle_alpha 90.000000
_cell_angle_beta 90.000000
_cell_angle_gamma 90.000000
_cell_volume 2577.405950
_symmetry_space_group_name_H-M "I 2 2 2"
_symmetry_group_IT_number 23
_symmetry_cell_setting 'orthorhombic'
loop_
_space_group_symop_operation_xyz
x,y,z
-x,-y,z
x,-y,-z
-x,y,-z
1/2+x,1/2+y,1/2+z
1/2-x,1/2-y,1/2+z
1/2+x,1/2-y,1/2-z
1/2-x,1/2+y,1/2-z
loop_
_atom_site_type_symbol
_atom_site_label
_atom_site_fract_x
_atom_site_fract_y
_atom_site_fract_z
Si Si1 0.137923 0.628220 0.614725
Si Si2 0.650165 0.212745 0.319686
Si Si3 0.560706 0.696555 0.032480
Si Si4 0.947704 0.367627 0.296133
Si Si5 0.228446 0.014139 0.892957
Si Si6 0.353852 0.185146 0.358321
Si Si7 0.564636 0.205747 0.478472
O O1 0.137742 0.728709 0.711979
O O2 0.116315 0.725320 0.524030
O O3 0.090347 0.481131 0.633487
O O4 0.201920 0.542891 0.610978
O O5 0.701159 0.344270 0.347195
O O6 0.590429 0.243774 0.378532
O O7 0.667073 0.015095 0.350077
O O8 0.561539 0.500000 0.000000
O O9 0.500000 0.785690 0.000000
O O10 0.548321 0.699049 0.141194
O O11 0.908267 0.317776 0.210921
O O12 0.000000 0.500000 0.269837
O O13 0.198218 0.179743 0.844280
O O14 0.214420 0.000000 0.000000
O O15 0.383495 0.250734 0.451835
O O16 0.500000 0.278859 0.500000
O O17 0.560157 0.000000 0.500000
#
# Coordination Sequence:
#
# PCOD9331840 Si02
#       7
#     8   8   8   8   8   8   8
#     4  11  26  44  70  99 134 188 235 286 351 418
#     4  10  24  44  67  99 142 176 234 290 347 416
#     4  11  24  44  68 103 141 175 229 296 353 418
#     4  11  23  43  74  98 135 182 234 287 357 419
#     4  12  25  47  69  98 144 185 241 292 348 423
#     4  10  24  42  67 103 133 185 226 286 354 416
#     4   9  18  36  68  96 132 172 220 275 347 421
#
# _framework density 21.727270999999998
#
# number of rings (size 3 to 8) (size 9 to 14) (size 15 to 20)
#    0.000    1.429    2.857    1.286   12.000    0.000 
#    5.143    1.429    0.000    0.000    0.000    0.000 
#    0.000    0.000    0.000    0.000    0.000    0.000 
#
# Total GULP energy -155989.398016 kJ/mol
# GULP energy per Si atom -5571.049929 kJ/mol
# Density = 2.167782 g / cm^3
# Si number density = 21.727271 Si / 1000 Ang^3
#
#
#
# Elastic Constant Matrix: (Units=GPa)
#
#
# Indices 1 2 3 4 5 6 
#
# 1 120.0011 38.2487 8.3398 0.0000 0.0000 0.0000
# 2 38.2487 54.5299 11.8349 0.0000 0.0000 0.0000
# 3 8.3398 11.8349 86.7408 0.0000 0.0000 0.0000
# 4 0.0000 0.0000 0.0000 13.5502 0.0000 0.0000
# 5 0.0000 0.0000 0.0000 0.0000 17.9781 0.0000
# 6 0.0000 0.0000 0.0000 0.0000 0.0000 17.8800
#
#
#
# Elastic Compliance Matrix: (Units=1/GPa)
#
#
# Indices 1 2 3 4 5 6 
#
# 1 0.010733 -0.007527 -0.000005 0.000000 0.000000 0.000000
# 2 -0.007527 0.024177 -0.002575 0.000000 0.000000 0.000000
# 3 -0.000005 -0.002575 0.011880 0.000000 0.000000 0.000000
# 4 0.000000 0.000000 0.000000 0.073800 0.000000 0.000000
# 5 0.000000 0.000000 0.000000 0.000000 0.055623 0.000000
# 6 0.000000 0.000000 0.000000 0.000000 0.000000 0.055929
#
#
# Mechanical properties :
#
#
# Convention : Reuss Voigt Hill
#
# Bulk Modulus (GPa) = 37.62772 42.01317 39.82045
# Shear Modulus (GPa) = 19.14134 23.40489 21.27311
#
# Velocity S-wave (km/s) = 2.97135 3.28565 3.13245
# Velocity P-wave (km/s) = 5.39701 5.81142 5.60804
#
# Compressibility (1/GPa) = 0.02657615
#
# Stress axis : x y z
#
# Youngs Moduli (GPa) = 93.17252 41.36129 84.17219
#
# Poissons Ratio (x) = 0.31133 0.00041
# Poissons Ratio (y) = 0.70133 0.21675
# Poissons Ratio (z) = 0.00046 0.10651
#
# Static dielectric constant tensor:
#      x y z
#    x 1.871420 0.000000 0.000000 
#    y 0.000000 2.007820 0.000000 
#    z 0.000000 0.000000 2.028090 
# 
# From -- ./inp_files/22415.got.cif
#   From: 2010.05.17/outbox.cif.g08.bks.cpg/sg23_12_cif.got.tgz:22415.got - 2010.06.04 12:02:01.
