data_PCOD9331683
_publ_section_title
;
Structure prediction by ZEFSAII (Michael W. Deem and Ramdas Pophale) SiO2 
 PCOD9331683
Probable space group: I 2 2 2
;
_chemical_formula_sum "Si O2"
_cell_formula_units_Z 34
_cell_length_a 9.179820
_cell_length_b 8.775393
_cell_length_c 21.067402
_cell_angle_alpha 90.000000
_cell_angle_beta 90.000000
_cell_angle_gamma 90.000000
_cell_volume 1697.116763
_symmetry_space_group_name_H-M "I 2 2 2"
_symmetry_group_IT_number 23
_symmetry_cell_setting 'orthorhombic'
loop_
_space_group_symop_operation_xyz
x,y,z
-x,-y,z
x,-y,-z
-x,y,-z
1/2+x,1/2+y,1/2+z
1/2-x,1/2-y,1/2+z
1/2+x,1/2-y,1/2-z
1/2-x,1/2+y,1/2-z
loop_
_atom_site_type_symbol
_atom_site_label
_atom_site_fract_x
_atom_site_fract_y
_atom_site_fract_z
Si Si1 0.835884 0.439299 0.809714
Si Si2 0.221202 0.092633 0.560276
Si Si3 0.159598 0.562162 0.430808
Si Si4 0.500000 0.000000 0.500000
Si Si5 0.840515 0.071037 0.807994
O O1 0.733587 0.481767 0.870407
O O2 0.842197 0.255280 0.806183
O O3 0.764171 0.508751 0.747087
O O4 0.000000 0.500000 0.817645
O O5 0.149709 0.255621 0.565010
O O6 0.392861 0.104717 0.541021
O O7 0.161978 0.000000 0.500000
O O8 0.201840 0.500000 0.500000
O O9 0.273467 0.523694 0.375902
O O10 0.000000 0.500000 0.414869
O O11 0.000000 0.000000 0.799832
#
# Coordination Sequence:
#
# PCOD9331683 Si02
#       5
#     8   8   8   2   8
#     4  11  21  41  64  90 128 161 208 263 313 379
#     4   9  19  38  66  95 122 166 211 259 309 373
#     4  10  23  42  62  91 132 163 204 259 318 374
#     4   8  16  36  66  98 120 152 220 254 300 364
#     4  11  25  40  63  94 121 170 211 258 317 373
#
# _framework density 20.033978000000001
#
# number of rings (size 3 to 8) (size 9 to 14) (size 15 to 20)
#    0.706    1.176    1.176    2.118    0.000    9.882 
#    0.000    7.059    0.000    0.000    0.000    0.000 
#    0.000    0.000    0.000    0.000    0.000    0.000 
#
# Total GULP energy -94845.296743 kJ/mol
# GULP energy per Si atom -5579.135103 kJ/mol
# Density = 1.998838 g / cm^3
# Si number density = 20.033978 Si / 1000 Ang^3
#
#
#
# Elastic Constant Matrix: (Units=GPa)
#
#
# Indices 1 2 3 4 5 6 
#
# 1 91.5696 53.1033 41.0931 0.0000 0.0000 0.0000
# 2 53.1033 75.5593 39.4838 0.0000 0.0000 0.0000
# 3 41.0931 39.4838 136.9869 0.0000 0.0000 0.0000
# 4 0.0000 0.0000 0.0000 28.9697 0.0000 0.0000
# 5 0.0000 0.0000 0.0000 0.0000 -95.5657 0.0000
# 6 0.0000 0.0000 0.0000 0.0000 0.0000 37.1884
#
#
#
# Elastic Compliance Matrix: (Units=1/GPa)
#
#
# Indices 1 2 3 4 5 6 
#
# 1 0.018969 -0.012195 -0.002175 0.000000 0.000000 0.000000
# 2 -0.012195 0.023421 -0.003093 0.000000 0.000000 0.000000
# 3 -0.002175 -0.003093 0.008844 0.000000 0.000000 0.000000
# 4 0.000000 0.000000 0.000000 0.034519 0.000000 0.000000
# 5 0.000000 0.000000 0.000000 0.000000 -0.010464 0.000000
# 6 0.000000 0.000000 0.000000 0.000000 0.000000 0.026890
#
#
# Mechanical properties :
#
#
# Convention : Reuss Voigt Hill
#
# Bulk Modulus (GPa) = 61.31683 63.49734 62.40709
# Shear Modulus (GPa) = 35.07787 5.48085 20.27936
#
# Velocity S-wave (km/s) = 4.18894 1.65581 3.18504
# Velocity P-wave (km/s) = 7.35317 5.95141 6.68911
#
# Compressibility (1/GPa) = 0.01630874
#
# Stress axis : x y z
#
# Youngs Moduli (GPa) = 52.71810 42.69662 113.07230
#
# Poissons Ratio (x) = 0.52067 0.24598
# Poissons Ratio (y) = 0.64288 0.34968
# Poissons Ratio (z) = 0.11468 0.13204
#
# Static dielectric constant tensor:
#      x y z
#    x 1.695630 0.000000 0.000000 
#    y 0.000000 1.681740 0.000000 
#    z 0.000000 0.000000 1.753010 
# 
# From -- ./inp_files/6698.got.cif
#   From: 2010.05.17/outbox.cif.g08.bks.cpg/sg23_4_cif.got.tgz:6698.got - 2010.06.04 12:02:01.
