data_PCOD9331264
_publ_section_title
;
Structure prediction by ZEFSAII (Michael W. Deem and Ramdas Pophale) SiO2 
 PCOD9331264
Probable space group: I 2 2 2
;
_chemical_formula_sum "Si O2"
_cell_formula_units_Z 52
_cell_length_a 8.820522
_cell_length_b 13.745206
_cell_length_c 16.921831
_cell_angle_alpha 90.000000
_cell_angle_beta 90.000000
_cell_angle_gamma 90.000000
_cell_volume 2051.600961
_symmetry_space_group_name_H-M "I 2 2 2"
_symmetry_group_IT_number 23
_symmetry_cell_setting 'orthorhombic'
loop_
_space_group_symop_operation_xyz
x,y,z
-x,-y,z
x,-y,-z
-x,y,-z
1/2+x,1/2+y,1/2+z
1/2-x,1/2-y,1/2+z
1/2+x,1/2-y,1/2-z
1/2-x,1/2+y,1/2-z
loop_
_atom_site_type_symbol
_atom_site_label
_atom_site_fract_x
_atom_site_fract_y
_atom_site_fract_z
Si Si1 0.137002 0.655506 0.385228
Si Si2 0.230119 0.865975 0.354595
Si Si3 0.444219 0.110378 0.396638
Si Si4 0.183264 0.357964 0.313165
Si Si5 0.336184 0.697211 0.533122
Si Si6 0.500000 0.500000 0.863386
Si Si7 0.795274 0.134481 0.735747
O O1 0.133399 0.768739 0.359743
O O2 0.201974 0.662099 0.474017
O O3 0.262273 0.610530 0.326523
O O4 0.973390 0.615385 0.357860
O O5 0.394892 0.837591 0.385757
O O6 0.262500 0.910038 0.267020
O O7 0.141242 0.948089 0.404761
O O8 0.343500 0.184442 0.449868
O O9 0.356808 0.110539 0.313876
O O10 0.500000 0.000000 0.416532
O O11 0.306715 0.350942 0.381960
O O12 0.172665 0.248592 0.277309
O O13 0.500000 0.669849 0.500000
O O14 0.430345 0.419159 0.807042
#
# Coordination Sequence:
#
# PCOD9331264 Si02
#       7
#     8   8   8   8   8   4   8
#     4  11  21  40  60  89 126 171 213 259 320 390
#     4  11  22  37  63  90 125 160 219 275 319 378
#     4  11  21  40  59  90 125 171 212 263 326 393
#     4  10  22  39  62  88 122 171 215 263 318 382
#     4  11  24  37  59  92 127 167 213 260 316 391
#     4  12  22  36  60 102 122 154 206 292 322 364
#     4  10  22  35  64  91 122 161 219 268 318 371
#
# _framework density 25.346057999999999
#
# number of rings (size 3 to 8) (size 9 to 14) (size 15 to 20)
#    0.000    1.231    6.154    0.462    2.154    0.308 
#    0.000    0.000    0.000    2.769    0.000    3.231 
#    0.000    0.000    0.000    0.000    0.000    0.000 
#
# Total GULP energy -145150.151505 kJ/mol
# GULP energy per Si atom -5582.698135 kJ/mol
# Density = 2.528837 g / cm^3
# Si number density = 25.346058 Si / 1000 Ang^3
#
#
#
# Elastic Constant Matrix: (Units=GPa)
#
#
# Indices 1 2 3 4 5 6 
#
# 1 86.0099 1.8417 -2.4706 0.0000 0.0000 0.0000
# 2 1.8417 39.9205 -14.3388 0.0000 0.0000 0.0000
# 3 -2.4706 -14.3388 117.5651 0.0000 0.0000 0.0000
# 4 0.0000 0.0000 0.0000 14.6219 0.0000 0.0000
# 5 0.0000 0.0000 0.0000 0.0000 30.8679 0.0000
# 6 0.0000 0.0000 0.0000 0.0000 0.0000 26.3761
#
#
#
# Elastic Compliance Matrix: (Units=1/GPa)
#
#
# Indices 1 2 3 4 5 6 
#
# 1 0.011642 -0.000470 0.000187 0.000000 0.000000 0.000000
# 2 -0.000470 0.026216 0.003188 0.000000 0.000000 0.000000
# 3 0.000187 0.003188 0.008899 0.000000 0.000000 0.000000
# 4 0.000000 0.000000 0.000000 0.068391 0.000000 0.000000
# 5 0.000000 0.000000 0.000000 0.000000 0.032396 0.000000
# 6 0.000000 0.000000 0.000000 0.000000 0.000000 0.037913
#
#
# Mechanical properties :
#
#
# Convention : Reuss Voigt Hill
#
# Bulk Modulus (GPa) = 19.02321 23.72890 21.37606
# Shear Modulus (GPa) = 25.35893 31.60405 28.48149
#
# Velocity S-wave (km/s) = 3.16651 3.53498 3.35581
# Velocity P-wave (km/s) = 4.57064 5.10331 4.84430
#
# Compressibility (1/GPa) = 0.05256737
#
# Stress axis : x y z
#
# Youngs Moduli (GPa) = 85.89580 38.14405 112.37676
#
# Poissons Ratio (x) = 0.01792 -0.02105
# Poissons Ratio (y) = 0.04035 -0.35821
# Poissons Ratio (z) = -0.01609 -0.12159
#
# Static dielectric constant tensor:
#      x y z
#    x 2.030050 0.000000 0.000000 
#    y 0.000000 2.070550 0.000000 
#    z 0.000000 0.000000 2.023880 
# 
# From -- ./inp_files/11245.got.cif
#   From: 2010.05.17/outbox.cif.g08.bks.cpg/sg23_6_cif.got.tgz:11245.got - 2010.06.04 12:02:01.
