data_PCOD9331711
_publ_section_title
;
Structure prediction by ZEFSAII (Michael W. Deem and Ramdas Pophale) SiO2 
 PCOD9331711
Probable space group: I 2 2 2
;
_chemical_formula_sum "Si O2"
_cell_formula_units_Z 48
_cell_length_a 8.058179
_cell_length_b 9.327671
_cell_length_c 26.816699
_cell_angle_alpha 90.000000
_cell_angle_beta 90.000000
_cell_angle_gamma 90.000000
_cell_volume 2015.651505
_symmetry_space_group_name_H-M "I 2 2 2"
_symmetry_group_IT_number 23
_symmetry_cell_setting 'orthorhombic'
loop_
_space_group_symop_operation_xyz
x,y,z
-x,-y,z
x,-y,-z
-x,y,-z
1/2+x,1/2+y,1/2+z
1/2-x,1/2-y,1/2+z
1/2+x,1/2-y,1/2-z
1/2-x,1/2+y,1/2-z
loop_
_atom_site_type_symbol
_atom_site_label
_atom_site_fract_x
_atom_site_fract_y
_atom_site_fract_z
Si Si1 0.607709 0.180535 0.950193
Si Si2 0.253472 0.437254 0.705988
Si Si3 0.311299 0.946658 0.445947
Si Si4 0.679483 0.456609 0.593855
Si Si5 0.337749 0.321625 0.881388
Si Si6 0.088957 0.727915 0.726408
O O1 0.773130 0.279111 0.948321
O O2 0.676755 0.021919 0.940594
O O3 0.497325 0.244316 0.905315
O O4 0.500000 0.201614 0.000000
O O5 0.286461 0.474834 0.648487
O O6 0.208638 0.588753 0.732135
O O7 0.398977 0.339508 0.728489
O O8 0.089338 0.340411 0.714457
O O9 0.500000 0.000000 0.440081
O O10 0.251743 0.000000 0.500000
O O11 0.202368 0.024843 0.403917
O O12 0.500000 0.500000 0.575595
O O13 0.693702 0.286931 0.600529
O O14 0.351598 0.314764 0.822302
#
# Coordination Sequence:
#
# PCOD9331711 Si02
#       6
#     8   8   8   8   8   8
#     4  12  24  45  72 101 136 185 235 286 351 422
#     4  10  23  43  68  97 140 180 233 290 354 416
#     4  11  24  44  67  99 139 177 222 283 346 414
#     4  11  25  45  70 101 140 186 238 295 355 419
#     4  11  23  44  68  98 138 183 233 283 347 421
#     4  10  23  43  65 101 136 180 232 287 347 422
#
# _framework density 23.813641000000001
#
# number of rings (size 3 to 8) (size 9 to 14) (size 15 to 20)
#    0.000    1.167    3.333    2.000    4.667    2.667 
#    6.000    0.833    0.000    0.000    0.000    0.000 
#    0.000    0.000    0.000    0.000    0.000    0.000 
#
# Total GULP energy -134334.535459 kJ/mol
# GULP energy per Si atom -5597.272311 kJ/mol
# Density = 2.375944 g / cm^3
# Si number density = 23.813641 Si / 1000 Ang^3
#
#
#
# Elastic Constant Matrix: (Units=GPa)
#
#
# Indices 1 2 3 4 5 6 
#
# 1 94.2523 14.3846 0.9109 0.0000 0.0000 0.0000
# 2 14.3846 97.7892 39.0706 0.0000 0.0000 0.0000
# 3 0.9109 39.0706 58.0843 0.0000 0.0000 0.0000
# 4 0.0000 0.0000 0.0000 25.6767 0.0000 0.0000
# 5 0.0000 0.0000 0.0000 0.0000 19.8561 0.0000
# 6 0.0000 0.0000 0.0000 0.0000 0.0000 40.0425
#
#
#
# Elastic Compliance Matrix: (Units=1/GPa)
#
#
# Indices 1 2 3 4 5 6 
#
# 1 0.010919 -0.002103 0.001243 0.000000 0.000000 0.000000
# 2 -0.002103 0.014389 -0.009646 0.000000 0.000000 0.000000
# 3 0.001243 -0.009646 0.023685 0.000000 0.000000 0.000000
# 4 0.000000 0.000000 0.000000 0.038946 0.000000 0.000000
# 5 0.000000 0.000000 0.000000 0.000000 0.050362 0.000000
# 6 0.000000 0.000000 0.000000 0.000000 0.000000 0.024973
#
#
# Mechanical properties :
#
#
# Convention : Reuss Voigt Hill
#
# Bulk Modulus (GPa) = 35.73713 39.87310 37.80512
# Shear Modulus (GPa) = 25.82459 30.16570 27.99515
#
# Velocity S-wave (km/s) = 3.29666 3.56299 3.43241
# Velocity P-wave (km/s) = 5.43417 5.80575 5.62303
#
# Compressibility (1/GPa) = 0.02798210
#
# Stress axis : x y z
#
# Youngs Moduli (GPa) = 91.58569 69.49566 42.22021
#
# Poissons Ratio (x) = 0.14614 -0.05249
# Poissons Ratio (y) = 0.19259 0.40726
# Poissons Ratio (z) = -0.11387 0.67036
#
# Static dielectric constant tensor:
#      x y z
#    x 1.947980 0.000000 0.000000 
#    y 0.000000 1.993010 0.000000 
#    z 0.000000 0.000000 1.837200 
# 
# From -- ./inp_files/30253.got.cif
#   From: 2010.05.17/outbox.cif.g08.bks.cpg/sg23_16_cif.got.tgz:30253.got - 2010.06.04 12:02:01.
