data_PCOD9331361
_publ_section_title
;
Structure prediction by ZEFSAII (Michael W. Deem and Ramdas Pophale) SiO2 
 PCOD9331361
Probable space group: I 2 2 2
;
_chemical_formula_sum "Si O2"
_cell_formula_units_Z 48
_cell_length_a 15.290067
_cell_length_b 11.351697
_cell_length_c 13.388938
_cell_angle_alpha 90.000000
_cell_angle_beta 90.000000
_cell_angle_gamma 90.000000
_cell_volume 2323.893972
_symmetry_space_group_name_H-M "I 2 2 2"
_symmetry_group_IT_number 23
_symmetry_cell_setting 'orthorhombic'
loop_
_space_group_symop_operation_xyz
x,y,z
-x,-y,z
x,-y,-z
-x,y,-z
1/2+x,1/2+y,1/2+z
1/2-x,1/2-y,1/2+z
1/2+x,1/2-y,1/2-z
1/2-x,1/2+y,1/2-z
loop_
_atom_site_type_symbol
_atom_site_label
_atom_site_fract_x
_atom_site_fract_y
_atom_site_fract_z
Si Si1 0.378994 0.839735 0.170974
Si Si2 0.687973 0.000000 0.500000
Si Si3 0.831889 0.135154 0.818428
Si Si4 0.221340 0.746463 0.484515
Si Si5 0.500000 0.500000 0.264207
Si Si6 0.062780 0.762143 0.332360
Si Si7 0.153430 0.430998 0.783617
O O1 0.358915 0.758491 0.267114
O O2 0.473643 0.799659 0.134107
O O3 0.380304 0.973864 0.204250
O O4 0.305964 0.809796 0.089266
O O5 0.742878 0.879123 0.506885
O O6 0.639073 0.980205 0.394742
O O7 0.789056 0.165190 0.924182
O O8 0.756307 0.083228 0.745018
O O9 0.917585 0.054407 0.822843
O O10 0.135587 0.754715 0.416331
O O11 0.538687 0.605552 0.197606
O O12 0.103696 0.690828 0.238272
#
# Coordination Sequence:
#
# PCOD9331361 Si02
#       7
#     8   4   8   8   4   8   8
#     4  11  22  42  65  97 138 172 224 287 340 405
#     4  12  22  38  72 100 130 178 238 284 316 430
#     4  10  22  39  65 100 132 178 217 280 337 402
#     4  11  23  40  68 105 130 176 234 278 356 401
#     4  10  22  42  69  93 146 180 226 277 345 408
#     4  10  24  41  66 103 135 180 219 291 347 408
#     4  11  23  42  69  97 139 179 232 276 350 408
#
# _framework density 20.654987999999999
#
# number of rings (size 3 to 8) (size 9 to 14) (size 15 to 20)
#    0.000    1.333    3.333    2.000    4.667    2.667 
#    0.000    5.000    0.000    7.000    0.000    0.000 
#    0.000    0.000    0.000    0.000    0.000    0.000 
#
# Total GULP energy -134114.611934 kJ/mol
# GULP energy per Si atom -5588.108831 kJ/mol
# Density = 2.060798 g / cm^3
# Si number density = 20.654988 Si / 1000 Ang^3
#
#
#
# Elastic Constant Matrix: (Units=GPa)
#
#
# Indices 1 2 3 4 5 6 
#
# 1 78.4062 29.2329 16.6945 0.0000 0.0000 0.0000
# 2 29.2329 105.2477 31.9673 0.0000 0.0000 0.0000
# 3 16.6945 31.9673 94.5413 0.0000 0.0000 0.0000
# 4 0.0000 0.0000 0.0000 22.3059 0.0000 0.0000
# 5 0.0000 0.0000 0.0000 0.0000 14.7905 0.0000
# 6 0.0000 0.0000 0.0000 0.0000 0.0000 43.7682
#
#
#
# Elastic Compliance Matrix: (Units=1/GPa)
#
#
# Indices 1 2 3 4 5 6 
#
# 1 0.014375 -0.003590 -0.001324 0.000000 0.000000 0.000000
# 2 -0.003590 0.011486 -0.003250 0.000000 0.000000 0.000000
# 3 -0.001324 -0.003250 0.011910 0.000000 0.000000 0.000000
# 4 0.000000 0.000000 0.000000 0.044831 0.000000 0.000000
# 5 0.000000 0.000000 0.000000 0.000000 0.067611 0.000000
# 6 0.000000 0.000000 0.000000 0.000000 0.000000 0.022848
#
#
# Mechanical properties :
#
#
# Convention : Reuss Voigt Hill
#
# Bulk Modulus (GPa) = 46.63807 48.22051 47.42929
# Shear Modulus (GPa) = 25.44062 29.52629 27.48345
#
# Velocity S-wave (km/s) = 3.51336 3.78497 3.65169
# Velocity P-wave (km/s) = 6.25195 6.51903 6.38688
#
# Compressibility (1/GPa) = 0.02144171
#
# Stress axis : x y z
#
# Youngs Moduli (GPa) = 69.56660 87.06506 83.96276
#
# Poissons Ratio (x) = 0.31260 0.11119
# Poissons Ratio (y) = 0.24977 0.27285
# Poissons Ratio (z) = 0.09213 0.28293
#
# Static dielectric constant tensor:
#      x y z
#    x 1.737740 0.000000 0.000000 
#    y 0.000000 1.725470 0.000000 
#    z 0.000000 0.000000 1.735810 
# 
# From -- ./inp_files/17426.got.cif
#   From: 2010.05.17/outbox.cif.g08.bks.cpg/sg23_9_cif.got.tgz:17426.got - 2010.06.04 12:02:01.
