data_PCOD9331242
_publ_section_title
;
Structure prediction by ZEFSAII (Michael W. Deem and Ramdas Pophale) SiO2 
 PCOD9331242
Probable space group: I 2 2 2
;
_chemical_formula_sum "Si O2"
_cell_formula_units_Z 28
_cell_length_a 9.557540
_cell_length_b 14.684618
_cell_length_c 8.327534
_cell_angle_alpha 90.000000
_cell_angle_beta 90.000000
_cell_angle_gamma 90.000000
_cell_volume 1168.759603
_symmetry_space_group_name_H-M "I 2 2 2"
_symmetry_group_IT_number 23
_symmetry_cell_setting 'orthorhombic'
loop_
_space_group_symop_operation_xyz
x,y,z
-x,-y,z
x,-y,-z
-x,y,-z
1/2+x,1/2+y,1/2+z
1/2-x,1/2-y,1/2+z
1/2+x,1/2-y,1/2-z
1/2-x,1/2+y,1/2-z
loop_
_atom_site_type_symbol
_atom_site_label
_atom_site_fract_x
_atom_site_fract_y
_atom_site_fract_z
Si Si1 0.778643 0.136211 0.558111
Si Si2 0.602304 0.249215 0.778329
Si Si3 0.000000 0.500000 0.500000
Si Si4 0.663750 0.134300 0.231389
Si Si5 0.000000 0.000000 0.500000
O O1 0.686472 0.163396 0.708135
O O2 0.850609 0.220538 0.456875
O O3 0.683916 0.097317 0.412392
O O4 0.901174 0.066666 0.599844
O O5 0.442982 0.220901 0.751688
O O6 0.679539 0.331926 0.684264
O O7 0.094692 0.564725 0.610725
#
# Coordination Sequence:
#
# PCOD9331242 Si02
#       5
#     8   8   2   8   2
#     4  10  24  40  72  94 140 181 228 283 340 413
#     4  10  21  45  66 102 130 188 233 268 337 422
#     4  12  24  46  62 110 144 174 218 302 368 390
#     4  10  24  40  72  94 140 181 228 283 340 413
#     4  12  24  46  62 110 144 174 218 302 368 390
#
# _framework density 23.957024000000001
#
# number of rings (size 3 to 8) (size 9 to 14) (size 15 to 20)
#    1.714    0.000    0.000    4.286    4.000    0.000 
#    0.000    0.000    0.000    3.429    0.000    0.000 
#    0.000    0.000    0.000    0.000    0.000    0.000 
#
# Total GULP energy -77983.966406 kJ/mol
# GULP energy per Si atom -5570.283315 kJ/mol
# Density = 2.390250 g / cm^3
# Si number density = 23.957024 Si / 1000 Ang^3
#
#
#
# Elastic Constant Matrix: (Units=GPa)
#
#
# Indices 1 2 3 4 5 6 
#
# 1 116.8848 38.5325 54.0479 0.0000 0.0000 0.0000
# 2 38.5325 80.9683 47.3460 0.0000 0.0000 0.0000
# 3 54.0479 47.3460 76.0796 0.0000 0.0000 0.0000
# 4 0.0000 0.0000 0.0000 19.5104 0.0000 0.0000
# 5 0.0000 0.0000 0.0000 0.0000 29.2740 0.0000
# 6 0.0000 0.0000 0.0000 0.0000 0.0000 54.4783
#
#
#
# Elastic Compliance Matrix: (Units=1/GPa)
#
#
# Indices 1 2 3 4 5 6 
#
# 1 0.012817 -0.001219 -0.008347 0.000000 0.000000 0.000000
# 2 -0.001219 0.019532 -0.011289 0.000000 0.000000 0.000000
# 3 -0.008347 -0.011289 0.026099 0.000000 0.000000 0.000000
# 4 0.000000 0.000000 0.000000 0.051255 0.000000 0.000000
# 5 0.000000 0.000000 0.000000 0.000000 0.034160 0.000000
# 6 0.000000 0.000000 0.000000 0.000000 0.000000 0.018356
#
#
# Mechanical properties :
#
#
# Convention : Reuss Voigt Hill
#
# Bulk Modulus (GPa) = 59.74280 61.53172 60.63726
# Shear Modulus (GPa) = 23.86545 29.58629 26.72587
#
# Velocity S-wave (km/s) = 3.15965 3.51803 3.34365
# Velocity P-wave (km/s) = 6.18893 6.49939 6.34606
#
# Compressibility (1/GPa) = 0.01673842
#
# Stress axis : x y z
#
# Youngs Moduli (GPa) = 78.02273 51.19824 38.31505
#
# Poissons Ratio (x) = 0.06240 0.31981
# Poissons Ratio (y) = 0.09509 0.43255
# Poissons Ratio (z) = 0.65124 0.57800
#
# Static dielectric constant tensor:
#      x y z
#    x 1.951710 0.000000 0.000000 
#    y 0.000000 2.022780 0.000000 
#    z 0.000000 0.000000 1.905940 
# 
# From -- ./inp_files/7775.got.cif
#   From: 2010.05.17/outbox.cif.g08.bks.cpg/sg23_4_cif.got.tgz:7775.got - 2010.06.04 12:02:01.
