data_PCOD9331662
_publ_section_title
;
Structure prediction by ZEFSAII (Michael W. Deem and Ramdas Pophale) SiO2 
 PCOD9331662
Probable space group: I 2 2 2
;
_chemical_formula_sum "Si O2"
_cell_formula_units_Z 58
_cell_length_a 5.292814
_cell_length_b 28.190575
_cell_length_c 18.237483
_cell_angle_alpha 90.000000
_cell_angle_beta 90.000000
_cell_angle_gamma 90.000000
_cell_volume 2721.168698
_symmetry_space_group_name_H-M "I 2 2 2"
_symmetry_group_IT_number 23
_symmetry_cell_setting 'orthorhombic'
loop_
_space_group_symop_operation_xyz
x,y,z
-x,-y,z
x,-y,-z
-x,y,-z
1/2+x,1/2+y,1/2+z
1/2-x,1/2-y,1/2+z
1/2+x,1/2-y,1/2-z
1/2-x,1/2+y,1/2-z
loop_
_atom_site_type_symbol
_atom_site_label
_atom_site_fract_x
_atom_site_fract_y
_atom_site_fract_z
Si Si1 0.578822 0.125942 0.686026
Si Si2 0.343404 0.264352 0.707265
Si Si3 0.500000 0.500000 0.000000
Si Si4 0.322376 0.955206 0.378766
Si Si5 0.967855 0.946087 0.238127
Si Si6 0.263450 0.805636 0.044647
Si Si7 0.839727 0.853613 0.805487
Si Si8 0.096856 0.292283 0.919434
O O1 0.469621 0.093423 0.620613
O O2 0.724959 0.085454 0.734474
O O3 0.351086 0.146625 0.736241
O O4 0.699327 0.168592 0.638208
O O5 0.069540 0.254473 0.740004
O O6 0.411294 0.320519 0.705359
O O7 0.389968 0.237851 0.629474
O O8 0.675033 0.467318 0.951210
O O9 0.125801 0.949865 0.313058
O O10 0.500000 0.000000 0.362347
O O11 0.094602 0.908494 0.184105
O O12 0.000000 0.000000 0.209261
O O13 0.272142 0.831535 0.122043
O O14 0.289350 0.749718 0.061483
O O15 0.500000 0.823116 0.000000
O O16 0.000000 0.812107 0.000000
O O17 0.000000 0.309136 0.000000
#
# Coordination Sequence:
#
# PCOD9331662 Si02
#       8
#     8   8   2   8   8   8   8   8
#     4  11  22  42  64  97 132 178 229 285 339 413
#     4  11  22  41  65  94 133 179 227 280 333 408
#     4  12  22  36  60  86 116 188 228 296 348 398
#     4  11  22  39  58  83 123 172 236 282 343 398
#     4  11  22  41  66  97 130 173 231 291 342 407
#     4  10  24  47  71 102 144 182 223 282 351 427
#     4  10  24  37  71 103 128 180 227 275 349 417
#     4  10  23  41  63  97 137 176 224 279 341 400
#
# _framework density 21.314371999999999
#
# number of rings (size 3 to 8) (size 9 to 14) (size 15 to 20)
#    0.000    1.379    3.448    1.034    1.931    7.724 
#    9.931    0.000    1.517    0.414    0.000    0.000 
#    0.000    0.000    0.000    0.000    0.000    0.000 
#
# Total GULP energy -161722.103626 kJ/mol
# GULP energy per Si atom -5576.624263 kJ/mol
# Density = 2.126586 g / cm^3
# Si number density = 21.314372 Si / 1000 Ang^3
#
#
#
# Elastic Constant Matrix: (Units=GPa)
#
#
# Indices 1 2 3 4 5 6 
#
# 1 61.0309 23.3339 22.3891 0.0000 -0.0001 0.0000
# 2 23.3339 144.7954 37.9365 0.0000 -0.0003 0.0000
# 3 22.3891 37.9365 98.9771 -0.0001 -0.0017 0.0000
# 4 0.0000 0.0000 -0.0001 201.1961 0.0002 0.0000
# 5 -0.0001 -0.0003 -0.0017 0.0002 311.4553 0.0000
# 6 0.0000 0.0000 0.0000 0.0000 0.0000 24.9442
#
#
#
# Elastic Compliance Matrix: (Units=1/GPa)
#
#
# Indices 1 2 3 4 5 6 
#
# 1 0.018418 -0.002086 -0.003367 0.000000 0.000000 0.000000
# 2 -0.002086 0.007914 -0.002561 0.000000 0.000000 0.000000
# 3 -0.003367 -0.002561 0.011847 0.000000 0.000000 0.000000
# 4 0.000000 0.000000 0.000000 0.004970 0.000000 0.000000
# 5 0.000000 0.000000 0.000000 0.000000 0.003211 0.000000
# 6 0.000000 0.000000 0.000000 0.000000 0.000000 0.040089
#
#
# Mechanical properties :
#
#
# Convention : Reuss Voigt Hill
#
# Bulk Modulus (GPa) = 45.14668 52.45805 48.80236
# Shear Modulus (GPa) = 45.51274 122.26207 83.88740
#
# Velocity S-wave (km/s) = 4.62595 7.58194 6.28034
# Velocity P-wave (km/s) = 7.05407 10.06543 8.69117
#
# Compressibility (1/GPa) = 0.02215002
#
# Stress axis : x y z
#
# Youngs Moduli (GPa) = 54.29558 126.36615 84.41244
#
# Poissons Ratio (x) = 0.26360 0.28419
# Poissons Ratio (y) = 0.11326 0.21620
# Poissons Ratio (z) = 0.18279 0.32366
#
# Static dielectric constant tensor:
#      x y z
#    x 0.930010 -0.000020 0.000000 
#    y -0.000020 -24.187600 0.000000 
#    z 0.000000 0.000000 1.829760 
# 
# From -- ./inp_files/23282.got.cif
#   From: 2010.05.17/outbox.cif.g08.bks.cpg/sg23_12_cif.got.tgz:23282.got - 2010.06.04 12:02:01.
