data_PCOD9331427
_publ_section_title
;
Structure prediction by ZEFSAII (Michael W. Deem and Ramdas Pophale) SiO2 
 PCOD9331427
Probable space group: I 2 2 2
;
_chemical_formula_sum "Si O2"
_cell_formula_units_Z 28
_cell_length_a 12.096305
_cell_length_b 19.360639
_cell_length_c 5.177975
_cell_angle_alpha 90.000000
_cell_angle_beta 90.000000
_cell_angle_gamma 90.000000
_cell_volume 1212.641327
_symmetry_space_group_name_H-M "I 2 2 2"
_symmetry_group_IT_number 23
_symmetry_cell_setting 'orthorhombic'
loop_
_space_group_symop_operation_xyz
x,y,z
-x,-y,z
x,-y,-z
-x,y,-z
1/2+x,1/2+y,1/2+z
1/2-x,1/2-y,1/2+z
1/2+x,1/2-y,1/2-z
1/2-x,1/2+y,1/2-z
loop_
_atom_site_type_symbol
_atom_site_label
_atom_site_fract_x
_atom_site_fract_y
_atom_site_fract_z
Si Si1 0.600816 0.874665 0.203105
Si Si2 0.821625 0.929756 0.350249
Si Si3 0.500000 0.334368 0.000000
Si Si4 0.000000 0.500000 0.000000
Si Si5 0.000000 0.258246 0.000000
Si Si6 0.000000 0.000000 0.000000
O O1 0.730533 0.891207 0.172097
O O2 0.594319 0.812289 0.408492
O O3 0.565618 0.947702 0.322079
O O4 0.500000 0.860190 0.000000
O O5 0.887020 0.878201 0.541976
O O6 0.783582 0.000000 0.500000
O O7 0.921070 0.954206 0.172193
O O8 0.523510 0.288271 0.252153
#
# Coordination Sequence:
#
# PCOD9331427 Si02
#       6
#     8   8   4   2   4   2
#     4  11  25  48  75 117 158 203 270 327 407 474
#     4  12  26  47  79 117 156 209 267 340 406 472
#     4  12  25  52  78 111 164 206 270 318 394 487
#     4  10  22  40  70 108 150 194 242 338 376 462
#     4  11  27  51  77 114 154 216 264 318 397 479
#     4  12  24  44  72 126 154 198 268 330 420 476
#
# _framework density 23.090095000000002
#
# number of rings (size 3 to 8) (size 9 to 14) (size 15 to 20)
#    0.000    0.571    5.714    1.286    4.000    2.286 
#    0.000    0.000    0.000    0.000    0.000    0.000 
#    0.000    0.000    0.000    0.000    0.000    0.000 
#
# Total GULP energy -78027.190502 kJ/mol
# GULP energy per Si atom -5573.370750 kJ/mol
# Density = 2.303754 g / cm^3
# Si number density = 23.090095 Si / 1000 Ang^3
#
#
#
# Elastic Constant Matrix: (Units=GPa)
#
#
# Indices 1 2 3 4 5 6 
#
# 1 157.2200 37.0968 47.0475 0.0000 0.0000 0.0000
# 2 37.0968 128.0334 41.3101 0.0000 0.0000 0.0001
# 3 47.0475 41.3101 105.0833 0.0003 0.0001 -0.0009
# 4 0.0000 0.0000 0.0003 44.3415 0.0001 0.0000
# 5 0.0000 0.0000 0.0001 0.0001 25.3672 0.0000
# 6 0.0000 0.0001 -0.0009 0.0000 0.0000 9.4459
#
#
#
# Elastic Compliance Matrix: (Units=1/GPa)
#
#
# Indices 1 2 3 4 5 6 
#
# 1 0.007515 -0.001250 -0.002873 0.000000 0.000000 0.000000
# 2 -0.001250 0.009153 -0.003038 0.000000 0.000000 0.000000
# 3 -0.002873 -0.003038 0.011997 0.000000 0.000000 0.000001
# 4 0.000000 0.000000 0.000000 0.022552 0.000000 0.000000
# 5 0.000000 0.000000 0.000000 0.000000 0.039421 0.000000
# 6 0.000000 0.000000 0.000001 0.000000 0.000000 0.105866
#
#
# Mechanical properties :
#
#
# Convention : Reuss Voigt Hill
#
# Bulk Modulus (GPa) = 69.72789 71.24950 70.48870
# Shear Modulus (GPa) = 23.19013 33.48975 28.33994
#
# Velocity S-wave (km/s) = 3.17256 3.81254 3.50718
# Velocity P-wave (km/s) = 6.60938 7.09258 6.85524
#
# Compressibility (1/GPa) = 0.01434146
#
# Stress axis : x y z
#
# Youngs Moduli (GPa) = 133.06085 109.25233 83.35377
#
# Poissons Ratio (x) = 0.13662 0.23949
# Poissons Ratio (y) = 0.16639 0.25326
# Poissons Ratio (z) = 0.38230 0.33195
#
# Static dielectric constant tensor:
#      x y z
#    x 1.981430 0.000000 0.000000 
#    y 0.000000 1.993960 0.000000 
#    z 0.000000 0.000000 1.948560 
# 
# From -- ./inp_files/1329.got.cif
#   From: 2010.05.17/outbox.cif.g08.bks.cpg/sg23_1_cif.got.tgz:1329.got - 2010.06.04 12:02:01.
