data_PCOD9331442
_publ_section_title
;
Structure prediction by ZEFSAII (Michael W. Deem and Ramdas Pophale) SiO2 
 PCOD9331442
Probable space group: I 2 2 2
;
_chemical_formula_sum "Si O2"
_cell_formula_units_Z 44
_cell_length_a 13.983321
_cell_length_b 17.942035
_cell_length_c 8.468936
_cell_angle_alpha 90.000000
_cell_angle_beta 90.000000
_cell_angle_gamma 90.000000
_cell_volume 2124.764873
_symmetry_space_group_name_H-M "I 2 2 2"
_symmetry_group_IT_number 23
_symmetry_cell_setting 'orthorhombic'
loop_
_space_group_symop_operation_xyz
x,y,z
-x,-y,z
x,-y,-z
-x,y,-z
1/2+x,1/2+y,1/2+z
1/2-x,1/2-y,1/2+z
1/2+x,1/2-y,1/2-z
1/2-x,1/2+y,1/2-z
loop_
_atom_site_type_symbol
_atom_site_label
_atom_site_fract_x
_atom_site_fract_y
_atom_site_fract_z
Si Si1 0.765773 0.283260 0.742761
Si Si2 0.944650 0.207875 0.158063
Si Si3 0.210387 0.138557 0.433959
Si Si4 0.000000 0.500000 0.249625
Si Si5 0.476139 0.161046 0.829426
Si Si6 0.000000 0.862221 0.500000
Si Si7 0.158962 0.500000 0.000000
O O1 0.669039 0.303419 0.647517
O O2 0.785057 0.195244 0.713864
O O3 0.862878 0.325909 0.694723
O O4 0.738796 0.307217 0.919937
O O5 0.969115 0.294949 0.190814
O O6 0.980445 0.172717 0.323590
O O7 0.000000 0.184053 0.000000
O O8 0.105032 0.105411 0.465184
O O9 0.280931 0.069449 0.438226
O O10 0.983397 0.422570 0.336176
O O11 0.089112 0.477814 0.140991
O O12 0.500000 0.195717 0.000000
#
# Coordination Sequence:
#
# PCOD9331442 Si02
#       7
#     8   8   8   4   8   4   4
#     4  11  22  37  64  95 129 175 230 278 343 414
#     4  11  22  38  64  97 133 172 222 292 338 400
#     4  11  22  42  64  98 131 174 229 292 342 416
#     4  11  25  40  58  98 134 180 222 265 361 416
#     4  12  22  41  63  94 137 177 225 289 340 413
#     4  10  22  41  62  97 126 160 234 280 336 401
#     4  11  24  41  66  96 136 177 232 279 354 434
#
# _framework density 20.708175000000001
#
# number of rings (size 3 to 8) (size 9 to 14) (size 15 to 20)
#    0.000    0.909    4.545    3.545    2.545    0.364 
#    0.000    0.000    0.000    0.000    0.000    1.273 
#    0.000    0.000    0.000    0.000    0.000    0.000 
#
# Total GULP energy -122576.794113 kJ/mol
# GULP energy per Si atom -5571.672460 kJ/mol
# Density = 2.066104 g / cm^3
# Si number density = 20.708175 Si / 1000 Ang^3
#
#
#
# Elastic Constant Matrix: (Units=GPa)
#
#
# Indices 1 2 3 4 5 6 
#
# 1 106.9001 8.2733 1.7616 0.0000 0.0000 0.0000
# 2 8.2733 49.0765 1.0105 0.0000 0.0000 0.0000
# 3 1.7616 1.0105 64.8707 0.0000 0.0000 0.0000
# 4 0.0000 0.0000 0.0000 -12.6759 0.0000 0.0000
# 5 0.0000 0.0000 0.0000 0.0000 17.1443 0.0000
# 6 0.0000 0.0000 0.0000 0.0000 0.0000 25.1568
#
#
#
# Elastic Compliance Matrix: (Units=1/GPa)
#
#
# Indices 1 2 3 4 5 6 
#
# 1 0.009482 -0.001594 -0.000233 0.000000 0.000000 0.000000
# 2 -0.001594 0.020651 -0.000278 0.000000 0.000000 0.000000
# 3 -0.000233 -0.000278 0.015426 0.000000 0.000000 0.000000
# 4 0.000000 0.000000 0.000000 -0.078890 0.000000 0.000000
# 5 0.000000 0.000000 0.000000 0.000000 0.058328 0.000000
# 6 0.000000 0.000000 0.000000 0.000000 0.000000 0.039751
#
#
# Mechanical properties :
#
#
# Convention : Reuss Voigt Hill
#
# Bulk Modulus (GPa) = 24.18439 26.99312 25.58876
# Shear Modulus (GPa) = 60.43045 19.91184 40.17115
#
# Velocity S-wave (km/s) = 5.40789 3.10424 4.40917
# Velocity P-wave (km/s) = 7.12023 5.09036 6.18908
#
# Compressibility (1/GPa) = 0.04134898
#
# Stress axis : x y z
#
# Youngs Moduli (GPa) = 105.46631 48.42446 64.82592
#
# Poissons Ratio (x) = 0.07717 0.01508
# Poissons Ratio (y) = 0.16807 0.01805
# Poissons Ratio (z) = 0.02454 0.01348
#
# Static dielectric constant tensor:
#      x y z
#    x 1.754740 0.000000 0.000000 
#    y 0.000000 1.871140 0.000000 
#    z 0.000000 0.000000 1.760630 
# 
# From -- ./inp_files/9863.got.cif
#   From: 2010.05.17/outbox.cif.g08.bks.cpg/sg23_5_cif.got.tgz:9863.got - 2010.06.04 12:02:01.
