data_PCOD9331547
_publ_section_title
;
Structure prediction by ZEFSAII (Michael W. Deem and Ramdas Pophale) SiO2 
 PCOD9331547
Probable space group: I 2 2 2
;
_chemical_formula_sum "Si O2"
_cell_formula_units_Z 60
_cell_length_a 22.190741
_cell_length_b 22.115143
_cell_length_c 5.207622
_cell_angle_alpha 90.000000
_cell_angle_beta 90.000000
_cell_angle_gamma 90.000000
_cell_volume 2555.647842
_symmetry_space_group_name_H-M "I 2 2 2"
_symmetry_group_IT_number 23
_symmetry_cell_setting 'orthorhombic'
loop_
_space_group_symop_operation_xyz
x,y,z
-x,-y,z
x,-y,-z
-x,y,-z
1/2+x,1/2+y,1/2+z
1/2-x,1/2-y,1/2+z
1/2+x,1/2-y,1/2-z
1/2-x,1/2+y,1/2-z
loop_
_atom_site_type_symbol
_atom_site_label
_atom_site_fract_x
_atom_site_fract_y
_atom_site_fract_z
Si Si1 0.000000 0.736513 0.000000
Si Si2 0.473933 0.567065 0.252693
Si Si3 0.929266 0.219321 0.406499
Si Si4 0.779961 0.904210 0.869918
Si Si5 0.651218 0.961075 0.764022
Si Si6 0.604394 0.825028 0.771271
Si Si7 0.230650 0.281836 0.117544
Si Si8 0.148841 0.104831 0.393067
O O1 0.945565 0.778569 0.893338
O O2 0.038496 0.690143 0.830320
O O3 0.500000 0.500000 0.253350
O O4 0.500000 0.598532 0.500000
O O5 0.403445 0.565880 0.237311
O O6 0.500000 0.597032 0.000000
O O7 0.897418 0.283771 0.470674
O O8 0.886520 0.167359 0.524491
O O9 0.000000 0.220001 0.500000
O O10 0.720818 0.944780 0.833827
O O11 0.762549 0.839916 0.743131
O O12 0.829807 0.924557 0.661336
O O13 0.801622 0.894694 0.163402
O O14 0.618087 0.896062 0.768061
O O15 0.648322 0.000000 0.500000
O O16 0.626675 0.000000 0.000000
O O17 0.660057 0.796145 0.614246
O O18 0.245364 0.231747 0.333756
#
# Coordination Sequence:
#
# PCOD9331547 Si02
#       8
#     4   8   8   8   8   8   8   8
#     4  10  24  44  71 108 149 194 244 290 382 448
#     4  10  22  44  63  90 128 182 250 288 342 395
#     4  10  23  40  67 103 146 190 233 294 363 444
#     4  11  25  43  64 106 137 178 239 294 360 434
#     4  11  26  50  76 102 142 187 245 311 384 442
#     4  10  24  43  74 102 145 193 238 304 374 451
#     4  11  23  39  68 103 143 183 230 285 353 444
#     4  12  24  42  69 101 147 187 237 299 357 428
#
# _framework density 23.477415000000001
#
# number of rings (size 3 to 8) (size 9 to 14) (size 15 to 20)
#    0.000    1.333    0.000    4.400    9.333    2.133 
#   16.800    0.333    0.000    0.000    0.000    0.000 
#    0.000    0.000    0.000    0.000    0.000    0.000 
#
# Total GULP energy -167320.441680 kJ/mol
# GULP energy per Si atom -5577.348056 kJ/mol
# Density = 2.342398 g / cm^3
# Si number density = 23.477415 Si / 1000 Ang^3
#
#
#
# Elastic Constant Matrix: (Units=GPa)
#
#
# Indices 1 2 3 4 5 6 
#
# 1 75.7875 41.2500 27.5625 0.0000 0.0000 0.0000
# 2 41.2500 150.1889 45.6338 0.0000 0.0000 0.0000
# 3 27.5625 45.6338 137.9375 0.0000 0.0000 0.0000
# 4 0.0000 0.0000 0.0000 -44.9980 0.0000 0.0000
# 5 0.0000 0.0000 0.0000 0.0000 41.1030 0.0000
# 6 0.0000 0.0000 0.0000 0.0000 0.0000 28.9729
#
#
#
# Elastic Compliance Matrix: (Units=1/GPa)
#
#
# Indices 1 2 3 4 5 6 
#
# 1 0.015965 -0.003797 -0.001934 0.000000 0.000000 0.000000
# 2 -0.003797 0.008306 -0.001989 0.000000 0.000000 0.000000
# 3 -0.001934 -0.001989 0.008294 0.000000 0.000000 0.000000
# 4 0.000000 0.000000 0.000000 -0.022223 0.000000 0.000000
# 5 0.000000 0.000000 0.000000 0.000000 0.024329 0.000000
# 6 0.000000 0.000000 0.000000 0.000000 0.000000 0.034515
#
#
# Mechanical properties :
#
#
# Convention : Reuss Voigt Hill
#
# Bulk Modulus (GPa) = 58.39612 65.86738 62.13175
# Shear Modulus (GPa) = 55.35038 21.64675 38.49857
#
# Velocity S-wave (km/s) = 4.86078 3.03978 4.05385
# Velocity P-wave (km/s) = 7.51201 6.35900 6.95942
#
# Compressibility (1/GPa) = 0.01712442
#
# Stress axis : x y z
#
# Youngs Moduli (GPa) = 62.63751 120.40157 120.56788
#
# Poissons Ratio (x) = 0.45719 0.23316
# Poissons Ratio (y) = 0.23785 0.23980
# Poissons Ratio (z) = 0.12113 0.23947
#
# Static dielectric constant tensor:
#      x y z
#    x 1.932600 0.000000 0.000000 
#    y 0.000000 1.811300 0.000000 
#    z 0.000000 0.000000 2.279280 
# 
# From -- ./inp_files/4553.got.cif
#   From: 2010.05.17/outbox.cif.g08.bks.cpg/sg23_3_cif.got.tgz:4553.got - 2010.06.04 12:02:01.
