data_PCOD9331729
_publ_section_title
;
Structure prediction by ZEFSAII (Michael W. Deem and Ramdas Pophale) SiO2 
 PCOD9331729
Probable space group: I 2 2 2
;
_chemical_formula_sum "Si O2"
_cell_formula_units_Z 16
_cell_length_a 7.340226
_cell_length_b 5.285271
_cell_length_c 17.067967
_cell_angle_alpha 90.000000
_cell_angle_beta 90.000000
_cell_angle_gamma 90.000000
_cell_volume 662.153207
_symmetry_space_group_name_H-M "I 2 2 2"
_symmetry_group_IT_number 23
_symmetry_cell_setting 'orthorhombic'
loop_
_space_group_symop_operation_xyz
x,y,z
-x,-y,z
x,-y,-z
-x,y,-z
1/2+x,1/2+y,1/2+z
1/2-x,1/2-y,1/2+z
1/2+x,1/2-y,1/2-z
1/2-x,1/2+y,1/2-z
loop_
_atom_site_type_symbol
_atom_site_label
_atom_site_fract_x
_atom_site_fract_y
_atom_site_fract_z
Si Si1 0.203226 0.602150 0.205750
Si Si2 0.294497 0.251946 0.965475
O O1 0.302140 0.346158 0.236467
O O2 0.291842 0.717293 0.127360
O O3 0.000000 0.500000 0.190227
O O4 0.204100 0.500000 0.000000
O O5 0.500000 0.250400 0.000000
O O6 0.208649 0.000000 0.000000
#
# Coordination Sequence:
#
# PCOD9331729 Si02
#       2
#     8   8
#     4  12  28  47  77 118 160 205 261 321 396 467
#     4  10  23  43  76 106 148 200 256 311 390 451
#
# _framework density 24.163589999999999
#
# number of rings (size 3 to 8) (size 9 to 14) (size 15 to 20)
#    0.000    1.000    0.000    4.500   21.000    1.000 
#    0.000    2.500    0.000    0.000    0.000    0.000 
#    0.000    0.000    0.000    0.000    0.000    0.000 
#
# Total GULP energy -44732.262271 kJ/mol
# GULP energy per Si atom -5591.532784 kJ/mol
# Density = 2.410859 g / cm^3
# Si number density = 24.163590 Si / 1000 Ang^3
#
#
#
# Elastic Constant Matrix: (Units=GPa)
#
#
# Indices 1 2 3 4 5 6 
#
# 1 135.2365 29.1811 49.9063 0.0000 0.0000 0.0000
# 2 29.1811 274.9735 80.8567 0.0000 0.0000 0.0000
# 3 49.9063 80.8567 166.3256 0.0000 0.0000 0.0000
# 4 0.0000 0.0000 0.0000 56.6698 0.0000 0.0000
# 5 0.0000 0.0000 0.0000 0.0000 23.5213 0.0000
# 6 0.0000 0.0000 0.0000 0.0000 0.0000 -2.4512
#
#
#
# Elastic Compliance Matrix: (Units=1/GPa)
#
#
# Indices 1 2 3 4 5 6 
#
# 1 0.008322 -0.000174 -0.002413 0.000000 0.000000 0.000000
# 2 -0.000174 0.004247 -0.002012 0.000000 0.000000 0.000000
# 3 -0.002413 -0.002012 0.007715 0.000000 0.000000 0.000000
# 4 0.000000 0.000000 0.000000 0.017646 0.000000 0.000000
# 5 0.000000 0.000000 0.000000 0.000000 0.042515 0.000000
# 6 0.000000 0.000000 0.000000 0.000000 0.000000 -0.407966
#
#
# Mechanical properties :
#
#
# Convention : Reuss Voigt Hill
#
# Bulk Modulus (GPa) = 90.20334 99.60266 94.90300
# Shear Modulus (GPa) = -15.89179 43.32075 13.71448
#
# Velocity S-wave (km/s) = -2.56730 4.23875 2.38495
# Velocity P-wave (km/s) = 5.35007 8.07872 6.85160
#
# Compressibility (1/GPa) = 0.01108606
#
# Stress axis : x y z
#
# Youngs Moduli (GPa) = 120.15934 235.46496 129.62522
#
# Poissons Ratio (x) = 0.04091 0.31274
# Poissons Ratio (y) = 0.02088 0.26086
# Poissons Ratio (z) = 0.28990 0.47386
#
# Static dielectric constant tensor:
#      x y z
#    x 1.908210 0.000000 0.000000 
#    y 0.000000 1.947060 0.000000 
#    z 0.000000 0.000000 1.969280 
# 
# From -- ./inp_files/202.got.cif
#   From: 2010.05.17/outbox.cif.g08.bks.cpg/sg23_1_cif.got.tgz:202.got - 2010.06.04 12:02:01.
