data_PCOD9331607
_publ_section_title
;
Structure prediction by ZEFSAII (Michael W. Deem and Ramdas Pophale) SiO2 
 PCOD9331607
Probable space group: I 2 2 2
;
_chemical_formula_sum "Si O2"
_cell_formula_units_Z 44
_cell_length_a 6.390189
_cell_length_b 22.748460
_cell_length_c 14.480297
_cell_angle_alpha 90.000000
_cell_angle_beta 90.000000
_cell_angle_gamma 90.000000
_cell_volume 2104.956738
_symmetry_space_group_name_H-M "I 2 2 2"
_symmetry_group_IT_number 23
_symmetry_cell_setting 'orthorhombic'
loop_
_space_group_symop_operation_xyz
x,y,z
-x,-y,z
x,-y,-z
-x,y,-z
1/2+x,1/2+y,1/2+z
1/2-x,1/2-y,1/2+z
1/2+x,1/2-y,1/2-z
1/2-x,1/2+y,1/2-z
loop_
_atom_site_type_symbol
_atom_site_label
_atom_site_fract_x
_atom_site_fract_y
_atom_site_fract_z
Si Si1 0.000000 0.697596 0.500000
Si Si2 0.688479 0.594170 0.939463
Si Si3 0.789527 0.243167 0.158105
Si Si4 0.000000 0.500000 0.000000
Si Si5 0.304103 0.403783 0.566631
Si Si6 0.933764 0.847320 0.251030
Si Si7 0.500000 0.193653 0.500000
Si Si8 0.500000 0.000000 0.000000
O O1 0.096917 0.732681 0.586730
O O2 0.185856 0.654711 0.468130
O O3 0.584845 0.616915 0.845485
O O4 0.500000 0.571505 0.000000
O O5 0.860938 0.543117 0.936434
O O6 0.801914 0.649953 0.989660
O O7 0.727728 0.293865 0.229522
O O8 0.977389 0.265676 0.090748
O O9 0.857596 0.185648 0.214787
O O10 0.500000 0.414580 0.500000
O O11 0.372562 0.390612 0.669545
O O12 0.145742 0.457668 0.559771
#
# Coordination Sequence:
#
# PCOD9331607 Si02
#       8
#     4   8   8   2   8   8   4   2
#     4  11  22  39  68  92 140 183 214 259 334 394
#     4  10  23  43  69  95 130 176 225 284 333 398
#     4  11  22  38  64 103 142 185 215 264 322 400
#     4  10  22  50  68  94 124 178 226 292 356 376
#     4  11  22  46  65  97 130 174 221 283 331 403
#     4  11  24  38  66 101 137 173 224 265 322 402
#     4   9  22  37  62  94 140 177 218 257 322 398
#     4  10  26  42  76  86 128 174 222 284 360 376
#
# _framework density 20.903043
#
# number of rings (size 3 to 8) (size 9 to 14) (size 15 to 20)
#    0.000    1.455    1.818    2.727    7.636    0.727 
#    3.273    3.636    0.000    0.000    0.000    0.000 
#    0.000    0.000    0.000    0.000    0.000    0.000 
#
# Total GULP energy -122866.705377 kJ/mol
# GULP energy per Si atom -5584.850244 kJ/mol
# Density = 2.085547 g / cm^3
# Si number density = 20.903043 Si / 1000 Ang^3
#
#
#
# Elastic Constant Matrix: (Units=GPa)
#
#
# Indices 1 2 3 4 5 6 
#
# 1 90.0291 47.4503 61.0899 0.0000 0.0000 0.0000
# 2 47.4503 111.4199 52.9115 0.0000 0.0000 0.0000
# 3 61.0899 52.9115 127.2829 -0.0001 0.0000 0.0000
# 4 0.0000 0.0000 -0.0001 32.0335 0.0000 0.0000
# 5 0.0000 0.0000 0.0000 0.0000 28.7794 0.0000
# 6 0.0000 0.0000 0.0000 0.0000 0.0000 24.6973
#
#
#
# Elastic Compliance Matrix: (Units=1/GPa)
#
#
# Indices 1 2 3 4 5 6 
#
# 1 0.018093 -0.004462 -0.006829 0.000000 0.000000 0.000000
# 2 -0.004462 0.012283 -0.002964 0.000000 0.000000 0.000000
# 3 -0.006829 -0.002964 0.012366 0.000000 0.000000 0.000000
# 4 0.000000 0.000000 0.000000 0.031217 0.000000 0.000000
# 5 0.000000 0.000000 0.000000 0.000000 0.034747 0.000000
# 6 0.000000 0.000000 0.000000 0.000000 0.000000 0.040490
#
#
# Mechanical properties :
#
#
# Convention : Reuss Voigt Hill
#
# Bulk Modulus (GPa) = 70.26696 72.40389 71.33543
# Shear Modulus (GPa) = 27.40438 28.25406 27.82922
#
# Velocity S-wave (km/s) = 3.62473 3.68050 3.65272
# Velocity P-wave (km/s) = 7.15590 7.26461 7.21046
#
# Compressibility (1/GPa) = 0.01423144
#
# Stress axis : x y z
#
# Youngs Moduli (GPa) = 55.26921 81.41205 80.86461
#
# Poissons Ratio (x) = 0.36330 0.55222
# Poissons Ratio (y) = 0.24663 0.23971
# Poissons Ratio (z) = 0.37743 0.24133
#
# Static dielectric constant tensor:
#      x y z
#    x 1.823230 0.000000 0.000000 
#    y 0.000000 1.745410 0.000000 
#    z 0.000000 0.000000 1.752020 
# 
# From -- ./inp_files/19213.got.cif
#   From: 2010.05.17/outbox.cif.g08.bks.cpg/sg23_10_cif.got.tgz:19213.got - 2010.06.04 12:02:01.
