data_PCOD9331146
_publ_section_title
;
Structure prediction by ZEFSAII (Michael W. Deem and Ramdas Pophale) SiO2 
 PCOD9331146
Probable space group: I 2 2 2
;
_chemical_formula_sum "Si O2"
_cell_formula_units_Z 52
_cell_length_a 9.694669
_cell_length_b 12.406885
_cell_length_c 18.461380
_cell_angle_alpha 90.000000
_cell_angle_beta 90.000000
_cell_angle_gamma 90.000000
_cell_volume 2220.546664
_symmetry_space_group_name_H-M "I 2 2 2"
_symmetry_group_IT_number 23
_symmetry_cell_setting 'orthorhombic'
loop_
_space_group_symop_operation_xyz
x,y,z
-x,-y,z
x,-y,-z
-x,y,-z
1/2+x,1/2+y,1/2+z
1/2-x,1/2-y,1/2+z
1/2+x,1/2-y,1/2-z
1/2-x,1/2+y,1/2-z
loop_
_atom_site_type_symbol
_atom_site_label
_atom_site_fract_x
_atom_site_fract_y
_atom_site_fract_z
Si Si1 0.284704 0.144741 0.966192
Si Si2 0.141919 0.022647 0.383460
Si Si3 0.592934 0.102535 0.392661
Si Si4 0.500000 0.000000 0.882259
Si Si5 0.984870 0.675293 0.737105
Si Si6 0.000000 0.813242 0.500000
Si Si7 0.756578 0.219641 0.677034
Si Si8 0.000000 0.206578 0.000000
O O1 0.378643 0.050225 0.931752
O O2 0.241135 0.214279 0.895638
O O3 0.134950 0.130295 0.999457
O O4 0.379378 0.224463 0.015254
O O5 0.074471 0.104071 0.443971
O O6 0.249375 0.093484 0.338583
O O7 0.244290 0.926371 0.407573
O O8 0.000000 0.000000 0.341222
O O9 0.559402 0.123218 0.307610
O O10 0.539567 0.207512 0.435919
O O11 0.500000 0.000000 0.416099
O O12 0.551584 0.091217 0.826196
O O13 0.092842 0.755556 0.703280
O O14 0.855376 0.742742 0.763615
#
# Coordination Sequence:
#
# PCOD9331146 Si02
#       8
#     8   8   8   4   8   4   8   4
#     4  10  22  43  69  99 134 182 236 282 346 408
#     4  11  22  36  58  96 132 173 222 274 337 413
#     4  12  22  39  66 103 143 175 218 288 364 409
#     4  10  22  43  76  95 132 192 242 280 330 422
#     4  11  21  43  69  97 135 176 229 290 348 410
#     4  10  21  41  60  90 138 182 232 271 329 420
#     4  10  22  40  63  97 132 176 227 279 349 411
#     4  12  23  40  70 109 144 174 222 295 359 428
#
# _framework density 23.417659
#
# number of rings (size 3 to 8) (size 9 to 14) (size 15 to 20)
#    0.000    1.231    3.846    2.308    2.154    2.769 
#    2.769    0.000    0.000    9.231    0.000    0.000 
#    0.000    0.000    0.000    0.000    0.000    0.000 
#
# Total GULP energy -144960.965226 kJ/mol
# GULP energy per Si atom -5575.421739 kJ/mol
# Density = 2.336436 g / cm^3
# Si number density = 23.417659 Si / 1000 Ang^3
#
#
#
# Elastic Constant Matrix: (Units=GPa)
#
#
# Indices 1 2 3 4 5 6 
#
# 1 130.4092 39.0477 -18.9671 0.0000 0.0000 0.0000
# 2 39.0477 82.5668 27.7930 0.0000 0.0000 0.0000
# 3 -18.9671 27.7930 50.3262 0.0000 0.0000 0.0000
# 4 0.0000 0.0000 0.0000 16.2298 0.0000 0.0000
# 5 0.0000 0.0000 0.0000 0.0000 23.9670 0.0000
# 6 0.0000 0.0000 0.0000 0.0000 0.0000 14.7570
#
#
#
# Elastic Compliance Matrix: (Units=1/GPa)
#
#
# Indices 1 2 3 4 5 6 
#
# 1 0.011524 -0.008490 0.009032 0.000000 0.000000 0.000000
# 2 -0.008490 0.021132 -0.014870 0.000000 0.000000 0.000000
# 3 0.009032 -0.014870 0.031487 0.000000 0.000000 0.000000
# 4 0.000000 0.000000 0.000000 0.061615 0.000000 0.000000
# 5 0.000000 0.000000 0.000000 0.000000 0.041724 0.000000
# 6 0.000000 0.000000 0.000000 0.000000 0.000000 0.067764
#
#
# Mechanical properties :
#
#
# Convention : Reuss Voigt Hill
#
# Bulk Modulus (GPa) = 28.18027 39.89438 34.03732
# Shear Modulus (GPa) = 18.13359 25.35268 21.74313
#
# Velocity S-wave (km/s) = 2.78574 3.29391 3.05042
# Velocity P-wave (km/s) = 4.73361 5.61600 5.19358
#
# Compressibility (1/GPa) = 0.03548583
#
# Stress axis : x y z
#
# Youngs Moduli (GPa) = 86.77536 47.32130 31.75955
#
# Poissons Ratio (x) = 0.40177 -0.28685
# Poissons Ratio (y) = 0.73674 0.47227
# Poissons Ratio (z) = -0.78376 0.70368
#
# Static dielectric constant tensor:
#      x y z
#    x 1.920820 0.000000 0.000000 
#    y 0.000000 2.165130 0.000000 
#    z 0.000000 0.000000 1.911500 
# 
# From -- ./inp_files/26235.got.cif
#   From: 2010.05.17/outbox.cif.g08.bks.cpg/sg23_14_cif.got.tgz:26235.got - 2010.06.04 12:02:01.
