data_PCOD9331382
_publ_section_title
;
Structure prediction by ZEFSAII (Michael W. Deem and Ramdas Pophale) SiO2 
 PCOD9331382
Probable space group: I 2 2 2
;
_chemical_formula_sum "Si O2"
_cell_formula_units_Z 64
_cell_length_a 16.020547
_cell_length_b 21.135961
_cell_length_c 9.431398
_cell_angle_alpha 90.000000
_cell_angle_beta 90.000000
_cell_angle_gamma 90.000000
_cell_volume 3193.562438
_symmetry_space_group_name_H-M "I 2 2 2"
_symmetry_group_IT_number 23
_symmetry_cell_setting 'orthorhombic'
loop_
_space_group_symop_operation_xyz
x,y,z
-x,-y,z
x,-y,-z
-x,y,-z
1/2+x,1/2+y,1/2+z
1/2-x,1/2-y,1/2+z
1/2+x,1/2-y,1/2-z
1/2-x,1/2+y,1/2-z
loop_
_atom_site_type_symbol
_atom_site_label
_atom_site_fract_x
_atom_site_fract_y
_atom_site_fract_z
Si Si1 0.057246 0.630787 0.367527
Si Si2 0.167116 0.838438 0.198702
Si Si3 0.589845 0.928390 0.435003
Si Si4 0.492080 0.735072 0.829148
Si Si5 0.275111 0.793688 0.954896
Si Si6 0.355064 0.351951 0.763343
Si Si7 0.403168 0.566011 0.470715
Si Si8 0.746624 0.643182 0.038652
O O1 0.082167 0.583200 0.237937
O O2 0.007823 0.690207 0.298159
O O3 0.136890 0.669590 0.434279
O O4 0.000000 0.606169 0.500000
O O5 0.092228 0.796374 0.265674
O O6 0.210715 0.882923 0.314796
O O7 0.239409 0.801895 0.113406
O O8 0.128066 0.880564 0.075778
O O9 0.500000 0.910366 0.500000
O O10 0.663950 0.883114 0.491883
O O11 0.605137 0.000000 0.500000
O O12 0.571893 0.699461 0.768261
O O13 0.500000 0.727390 0.000000
O O14 0.218118 0.825679 0.835563
O O15 0.263680 0.718603 0.933785
O O16 0.390223 0.413712 0.689139
O O17 0.317977 0.368808 0.913723
O O18 0.359333 0.500000 0.500000
O O19 0.500000 0.561297 0.500000
#
# Coordination Sequence:
#
# PCOD9331382 Si02
#       8
#     8   8   8   8   8   8   8   8
#     4  11  23  44  73 100 136 180 222 279 357 417
#     4  11  22  36  62  94 134 172 213 264 332 397
#     4  11  28  50  67  94 135 179 238 290 333 397
#     4  11  20  37  63 104 142 170 207 267 350 422
#     4  11  23  39  62 106 137 161 219 272 340 421
#     4  11  22  38  65  94 135 166 211 270 332 411
#     4  10  22  40  58  83 127 174 220 259 303 384
#     4  12  22  41  68  96 132 167 205 285 339 388
#
# _framework density 20.040315
#
# number of rings (size 3 to 8) (size 9 to 14) (size 15 to 20)
#    0.000    1.000    5.000    2.250    3.500    1.000 
#    0.000    1.250    0.000    2.250    0.000    0.000 
#    0.000    0.000    0.000    0.000    0.000    0.000 
#
# Total GULP energy -178336.005254 kJ/mol
# GULP energy per Si atom -5573.000164 kJ/mol
# Density = 1.999470 g / cm^3
# Si number density = 20.040315 Si / 1000 Ang^3
#
#
#
# Elastic Constant Matrix: (Units=GPa)
#
#
# Indices 1 2 3 4 5 6 
#
# 1 103.6251 12.6861 27.6518 0.0000 0.0000 0.0000
# 2 12.6861 56.8436 18.4447 0.0000 0.0000 0.0000
# 3 27.6518 18.4447 93.4408 0.0000 0.0000 0.0000
# 4 0.0000 0.0000 0.0000 18.2029 0.0000 0.0000
# 5 0.0000 0.0000 0.0000 0.0000 27.0463 0.0000
# 6 0.0000 0.0000 0.0000 0.0000 0.0000 309.7717
#
#
#
# Elastic Compliance Matrix: (Units=1/GPa)
#
#
# Indices 1 2 3 4 5 6 
#
# 1 0.010586 -0.001438 -0.002849 0.000000 0.000000 0.000000
# 2 -0.001438 0.018991 -0.003323 0.000000 0.000000 0.000000
# 3 -0.002849 -0.003323 0.012201 0.000000 0.000000 0.000000
# 4 0.000000 0.000000 0.000000 0.054936 0.000000 0.000000
# 5 0.000000 0.000000 0.000000 0.000000 0.036974 0.000000
# 6 0.000000 0.000000 0.000000 0.000000 0.000000 0.003228
#
#
# Mechanical properties :
#
#
# Convention : Reuss Voigt Hill
#
# Bulk Modulus (GPa) = 37.65314 41.27497 39.46405
# Shear Modulus (GPa) = 31.05772 84.01263 57.53517
#
# Velocity S-wave (km/s) = 3.94097 6.48173 5.36396
# Velocity P-wave (km/s) = 6.28791 8.75544 7.62219
#
# Compressibility (1/GPa) = 0.02655821
#
# Stress axis : x y z
#
# Youngs Moduli (GPa) = 94.46025 52.65539 81.96035
#
# Poissons Ratio (x) = 0.07573 0.23350
# Poissons Ratio (y) = 0.13585 0.27237
# Poissons Ratio (z) = 0.26911 0.17498
#
# Static dielectric constant tensor:
#      x y z
#    x 1.763270 0.000000 0.000000 
#    y 0.000000 1.873540 0.000000 
#    z 0.000000 0.000000 1.469890 
# 
# From -- ./inp_files/10365.got.cif
#   From: 2010.05.17/outbox.cif.g08.bks.cpg/sg23_6_cif.got.tgz:10365.got - 2010.06.04 12:02:01.
