data_PCOD9331752
_publ_section_title
;
Structure prediction by ZEFSAII (Michael W. Deem and Ramdas Pophale) SiO2 
 PCOD9331752
Probable space group: I 2 2 2
;
_chemical_formula_sum "Si O2"
_cell_formula_units_Z 44
_cell_length_a 12.777285
_cell_length_b 27.979566
_cell_length_c 6.034967
_cell_angle_alpha 90.000000
_cell_angle_beta 90.000000
_cell_angle_gamma 90.000000
_cell_volume 2157.518137
_symmetry_space_group_name_H-M "I 2 2 2"
_symmetry_group_IT_number 23
_symmetry_cell_setting 'orthorhombic'
loop_
_space_group_symop_operation_xyz
x,y,z
-x,-y,z
x,-y,-z
-x,y,-z
1/2+x,1/2+y,1/2+z
1/2-x,1/2-y,1/2+z
1/2+x,1/2-y,1/2-z
1/2-x,1/2+y,1/2-z
loop_
_atom_site_type_symbol
_atom_site_label
_atom_site_fract_x
_atom_site_fract_y
_atom_site_fract_z
Si Si1 0.500000 0.811708 0.500000
Si Si2 0.383504 0.354549 0.025445
Si Si3 0.275949 0.682741 0.581567
Si Si4 0.620761 0.983628 0.249136
Si Si5 0.386016 0.741211 0.224808
Si Si6 0.174580 0.625707 0.214900
O O1 0.477873 0.777360 0.290041
O O2 0.399429 0.844370 0.549304
O O3 0.333999 0.355371 0.267056
O O4 0.500000 0.374206 0.000000
O O5 0.391301 0.297525 0.969392
O O6 0.293741 0.376856 0.873087
O O7 0.364328 0.707134 0.433035
O O8 0.215979 0.725773 0.700883
O O9 0.187777 0.656626 0.436302
O O10 0.629217 0.926421 0.249644
O O11 0.500000 0.000000 0.249526
O O12 0.661929 0.000000 0.500000
O O13 0.662596 0.000000 0.000000
#
# Coordination Sequence:
#
# PCOD9331752 Si02
#       6
#     4   8   8   8   8   8
#     4  12  22  38  59  94 138 174 227 272 336 402
#     4  11  24  40  62  85 132 182 233 276 325 388
#     4  11  21  39  58  87 130 173 233 278 320 393
#     4  10  23  44  73 103 137 168 203 270 358 439
#     4  11  21  34  55  86 127 182 225 274 320 376
#     4  11  26  40  64 102 128 170 219 283 339 416
#
# _framework density 20.393803999999999
#
# number of rings (size 3 to 8) (size 9 to 14) (size 15 to 20)
#    0.000    1.091    3.636    3.273    5.091    5.091 
#    0.000    0.000    0.000    0.545    0.000    0.000 
#    0.000    0.000    0.000    0.000    0.000    0.000 
#
# Total GULP energy -122643.732426 kJ/mol
# GULP energy per Si atom -5574.715110 kJ/mol
# Density = 2.034739 g / cm^3
# Si number density = 20.393804 Si / 1000 Ang^3
#
#
#
# Elastic Constant Matrix: (Units=GPa)
#
#
# Indices 1 2 3 4 5 6 
#
# 1 93.3397 20.4537 -0.3638 -0.0017 0.0107 -0.0076
# 2 20.4537 94.4553 11.5146 0.0022 0.0070 -0.0027
# 3 -0.3638 11.5146 80.2350 0.0308 0.0356 -0.0368
# 4 -0.0017 0.0022 0.0308 14.0337 -0.0044 -0.0042
# 5 0.0107 0.0070 0.0356 -0.0044 19.7184 0.0105
# 6 -0.0076 -0.0027 -0.0368 -0.0042 0.0105 22.4272
#
#
#
# Elastic Compliance Matrix: (Units=1/GPa)
#
#
# Indices 1 2 3 4 5 6 
#
# 1 0.011260 -0.002488 0.000408 0.000001 -0.000006 0.000004
# 2 -0.002488 0.011325 -0.001637 0.000002 0.000000 -0.000002
# 3 0.000408 -0.001637 0.012700 -0.000028 -0.000023 0.000021
# 4 0.000001 0.000002 -0.000028 0.071257 0.000016 0.000013
# 5 -0.000006 0.000000 -0.000023 0.000016 0.050714 -0.000024
# 6 0.000004 -0.000002 0.000021 0.000013 -0.000024 0.044589
#
#
# Mechanical properties :
#
#
# Convention : Reuss Voigt Hill
#
# Bulk Modulus (GPa) = 35.90320 36.80434 36.35377
# Shear Modulus (GPa) = 22.87669 26.99756 24.93713
#
# Velocity S-wave (km/s) = 3.35288 3.64237 3.50062
# Velocity P-wave (km/s) = 5.71247 5.98123 5.84839
#
# Compressibility (1/GPa) = 0.02785267
#
# Stress axis : x y z
#
# Youngs Moduli (GPa) = 88.80701 88.29782 78.73929
#
# Poissons Ratio (x) = 0.21970 -0.03214
# Poissons Ratio (y) = 0.22096 0.12886
# Poissons Ratio (z) = -0.03624 0.14451
#
# Static dielectric constant tensor:
#      x y z
#    x 1.731740 0.000000 0.000000 
#    y 0.000000 1.672720 -0.000020 
#    z 0.000000 -0.000020 1.872800 
# 
# From -- ./inp_files/2518.got.cif
#   From: 2010.05.17/outbox.cif.g08.bks.cpg/sg23_2_cif.got.tgz:2518.got - 2010.06.04 12:02:01.
