data_PCOD9331915
_publ_section_title
;
Structure prediction by ZEFSAII (Michael W. Deem and Ramdas Pophale) SiO2 
 PCOD9331915
Probable space group: I 2 2 2
;
_chemical_formula_sum "Si O2"
_cell_formula_units_Z 26
_cell_length_a 4.782234
_cell_length_b 18.538544
_cell_length_c 12.472594
_cell_angle_alpha 90.000000
_cell_angle_beta 90.000000
_cell_angle_gamma 90.000000
_cell_volume 1105.765996
_symmetry_space_group_name_H-M "I 2 2 2"
_symmetry_group_IT_number 23
_symmetry_cell_setting 'orthorhombic'
loop_
_space_group_symop_operation_xyz
x,y,z
-x,-y,z
x,-y,-z
-x,y,-z
1/2+x,1/2+y,1/2+z
1/2-x,1/2-y,1/2+z
1/2+x,1/2-y,1/2-z
1/2-x,1/2+y,1/2-z
loop_
_atom_site_type_symbol
_atom_site_label
_atom_site_fract_x
_atom_site_fract_y
_atom_site_fract_z
Si Si1 0.000000 0.500000 0.349345
Si Si2 0.000000 0.000000 0.000000
Si Si3 0.000000 0.662923 0.000000
Si Si4 0.300287 0.712444 0.199014
Si Si5 0.350800 0.574835 0.826575
O O1 0.261817 0.531731 0.418698
O O2 0.142691 0.442690 0.270415
O O3 0.180548 0.712047 0.079164
O O4 0.811088 0.611728 0.074909
O O5 0.050396 0.732650 0.278231
O O6 0.426125 0.633198 0.212192
O O7 0.500000 0.500000 0.856975
#
# Coordination Sequence:
#
# PCOD9331915 Si02
#       5
#     4   2   4   8   8
#     4  11  24  47  80 116 164 213 266 329 400 484
#     4  10  24  46  74 104 170 222 252 306 402 484
#     4  12  28  51  87 122 168 214 276 340 429 474
#     4  12  28  52  81 115 170 218 270 329 408 501
#     4  12  27  49  87 131 162 212 268 357 409 488
#
# _framework density 23.513110999999999
#
# number of rings (size 3 to 8) (size 9 to 14) (size 15 to 20)
#    0.000    0.308    4.615    2.769    0.000    9.231 
#    0.000    1.538   27.077    0.000    0.000    0.000 
#    0.000    0.000    0.000    0.000    0.000    0.000 
#
# Total GULP energy -72710.880160 kJ/mol
# GULP energy per Si atom -5593.144628 kJ/mol
# Density = 2.345959 g / cm^3
# Si number density = 23.513111 Si / 1000 Ang^3
#
#
#
# Elastic Constant Matrix: (Units=GPa)
#
#
# Indices 1 2 3 4 5 6 
#
# 1 213.0703 78.9917 102.3164 0.0000 0.0000 0.0000
# 2 78.9917 122.5832 74.0274 0.0000 0.0000 0.0000
# 3 102.3164 74.0274 152.2881 0.0000 0.0000 0.0000
# 4 0.0000 0.0000 0.0000 9.2098 0.0000 0.0000
# 5 0.0000 0.0000 0.0000 0.0000 68.5909 0.0000
# 6 0.0000 0.0000 0.0000 0.0000 0.0000 66.4580
#
#
#
# Elastic Compliance Matrix: (Units=1/GPa)
#
#
# Indices 1 2 3 4 5 6 
#
# 1 0.007438 -0.002513 -0.003776 0.000000 0.000000 0.000000
# 2 -0.002513 0.012396 -0.004338 0.000000 0.000000 0.000000
# 3 -0.003776 -0.004338 0.011212 0.000000 0.000000 0.000000
# 4 0.000000 0.000000 0.000000 0.108580 0.000000 0.000000
# 5 0.000000 0.000000 0.000000 0.000000 0.014579 0.000000
# 6 0.000000 0.000000 0.000000 0.000000 0.000000 0.015047
#
#
# Mechanical properties :
#
#
# Convention : Reuss Voigt Hill
#
# Bulk Modulus (GPa) = 102.10613 110.95697 106.53155
# Shear Modulus (GPa) = 25.80386 44.35880 35.08133
#
# Velocity S-wave (km/s) = 3.31633 4.34816 3.86682
# Velocity P-wave (km/s) = 7.62781 8.51472 8.08344
#
# Compressibility (1/GPa) = 0.00979373
#
# Stress axis : x y z
#
# Youngs Moduli (GPa) = 134.44452 80.66821 89.19095
#
# Poissons Ratio (x) = 0.20270 0.33677
# Poissons Ratio (y) = 0.33783 0.38688
# Poissons Ratio (z) = 0.50764 0.34991
#
# Static dielectric constant tensor:
#      x y z
#    x 1.984780 0.000000 0.000000 
#    y 0.000000 1.851910 0.000000 
#    z 0.000000 0.000000 1.919630 
# 
# From -- ./inp_files/13713.got.cif
#   From: 2010.05.17/outbox.cif.g08.bks.cpg/sg23_7_cif.got.tgz:13713.got - 2010.06.04 12:02:01.
