data_PCOD9331654
_publ_section_title
;
Structure prediction by ZEFSAII (Michael W. Deem and Ramdas Pophale) SiO2 
 PCOD9331654
Probable space group: I 2 2 2
;
_chemical_formula_sum "Si O2"
_cell_formula_units_Z 40
_cell_length_a 15.141366
_cell_length_b 14.565237
_cell_length_c 7.880257
_cell_angle_alpha 90.000000
_cell_angle_beta 90.000000
_cell_angle_gamma 90.000000
_cell_volume 1737.892842
_symmetry_space_group_name_H-M "I 2 2 2"
_symmetry_group_IT_number 23
_symmetry_cell_setting 'orthorhombic'
loop_
_space_group_symop_operation_xyz
x,y,z
-x,-y,z
x,-y,-z
-x,y,-z
1/2+x,1/2+y,1/2+z
1/2-x,1/2-y,1/2+z
1/2+x,1/2-y,1/2-z
1/2-x,1/2+y,1/2-z
loop_
_atom_site_type_symbol
_atom_site_label
_atom_site_fract_x
_atom_site_fract_y
_atom_site_fract_z
Si Si1 0.682762 0.770405 0.672114
Si Si2 0.152717 0.344452 0.795075
Si Si3 0.782473 0.530506 0.303461
Si Si4 0.413105 0.459132 0.309536
Si Si5 0.495170 0.280766 0.198526
O O1 0.767769 0.704455 0.688899
O O2 0.669203 0.806681 0.482855
O O3 0.593768 0.719564 0.729895
O O4 0.692645 0.863371 0.782748
O O5 0.160915 0.453887 0.790681
O O6 0.057728 0.313716 0.724597
O O7 0.784164 0.500000 0.500000
O O8 0.682132 0.521667 0.234859
O O9 0.500000 0.500000 0.222232
O O10 0.410573 0.500000 0.500000
O O11 0.433862 0.351901 0.301251
O O12 0.500000 0.303180 0.000000
#
# Coordination Sequence:
#
# PCOD9331654 Si02
#       5
#     8   8   8   8   8
#     4  12  26  45  72 103 149 192 240 296 358 433
#     4  12  26  45  72 104 146 192 241 293 363 428
#     4  11  23  45  72 104 142 189 240 298 357 425
#     4  10  23  40  71 103 142 181 236 289 364 415
#     4  12  26  46  72 109 141 191 242 297 362 430
#
# _framework density 23.016378
#
# number of rings (size 3 to 8) (size 9 to 14) (size 15 to 20)
#    0.000    0.600    2.000    6.000    8.400    1.200 
#    3.600    4.000    0.000    0.000    0.000    0.000 
#    0.000    0.000    0.000    0.000    0.000    0.000 
#
# Total GULP energy -111942.956472 kJ/mol
# GULP energy per Si atom -5597.147824 kJ/mol
# Density = 2.296399 g / cm^3
# Si number density = 23.016378 Si / 1000 Ang^3
#
#
#
# Elastic Constant Matrix: (Units=GPa)
#
#
# Indices 1 2 3 4 5 6 
#
# 1 49.2464 -20.9654 -3.3028 0.0000 0.0000 0.0000
# 2 -20.9654 81.9426 0.8082 0.0000 0.0000 0.0000
# 3 -3.3028 0.8082 103.2855 0.0000 0.0000 0.0000
# 4 0.0000 0.0000 0.0000 32.8885 0.0000 0.0000
# 5 0.0000 0.0000 0.0000 0.0000 19.3443 0.0000
# 6 0.0000 0.0000 0.0000 0.0000 0.0000 41.8898
#
#
#
# Elastic Compliance Matrix: (Units=1/GPa)
#
#
# Indices 1 2 3 4 5 6 
#
# 1 0.022837 0.005836 0.000685 0.000000 0.000000 0.000000
# 2 0.005836 0.013696 0.000079 0.000000 0.000000 0.000000
# 3 0.000685 0.000079 0.009703 0.000000 0.000000 0.000000
# 4 0.000000 0.000000 0.000000 0.030406 0.000000 0.000000
# 5 0.000000 0.000000 0.000000 0.000000 0.051695 0.000000
# 6 0.000000 0.000000 0.000000 0.000000 0.000000 0.023872
#
#
# Mechanical properties :
#
#
# Convention : Reuss Voigt Hill
#
# Bulk Modulus (GPa) = 16.82482 20.83939 18.83210
# Shear Modulus (GPa) = 31.48212 36.02014 33.75113
#
# Velocity S-wave (km/s) = 3.70241 3.96027 3.83351
# Velocity P-wave (km/s) = 5.05993 5.47590 5.27202
#
# Compressibility (1/GPa) = 0.05943602
#
# Stress axis : x y z
#
# Youngs Moduli (GPa) = 43.78948 73.01364 103.05912
#
# Poissons Ratio (x) = -0.42611 -0.07055
# Poissons Ratio (y) = -0.25556 -0.00819
# Poissons Ratio (z) = -0.02998 -0.00580
#
# Static dielectric constant tensor:
#      x y z
#    x 1.833320 0.000000 0.000000 
#    y 0.000000 1.936100 0.000000 
#    z 0.000000 0.000000 1.873240 
# 
# From -- ./inp_files/9582.got.cif
#   From: 2010.05.17/outbox.cif.g08.bks.cpg/sg23_5_cif.got.tgz:9582.got - 2010.06.04 12:02:01.
