data_PCOD9331021
_publ_section_title
;
Structure prediction by ZEFSAII (Michael W. Deem and Ramdas Pophale) SiO2 
 PCOD9331021
Probable space group: I 2 2 2
;
_chemical_formula_sum "Si O2"
_cell_formula_units_Z 32
_cell_length_a 10.531887
_cell_length_b 8.090272
_cell_length_c 19.652475
_cell_angle_alpha 90.000000
_cell_angle_beta 90.000000
_cell_angle_gamma 90.000000
_cell_volume 1674.505454
_symmetry_space_group_name_H-M "I 2 2 2"
_symmetry_group_IT_number 23
_symmetry_cell_setting 'orthorhombic'
loop_
_space_group_symop_operation_xyz
x,y,z
-x,-y,z
x,-y,-z
-x,y,-z
1/2+x,1/2+y,1/2+z
1/2-x,1/2-y,1/2+z
1/2+x,1/2-y,1/2-z
1/2-x,1/2+y,1/2-z
loop_
_atom_site_type_symbol
_atom_site_label
_atom_site_fract_x
_atom_site_fract_y
_atom_site_fract_z
Si Si1 0.000000 0.500000 0.389050
Si Si2 0.341311 0.865919 0.695503
Si Si3 0.419981 0.790067 0.234795
Si Si4 0.710734 0.000000 0.000000
Si Si5 0.359376 0.834055 0.532947
O O1 0.964485 0.649540 0.339446
O O2 0.880517 0.463539 0.436299
O O3 0.449940 0.743541 0.726465
O O4 0.201573 0.823094 0.722996
O O5 0.355635 0.857232 0.614308
O O6 0.372111 0.048499 0.723629
O O7 0.790732 0.836650 0.984727
O O8 0.500000 0.823800 0.500000
O O9 0.299836 0.000000 0.500000
#
# Coordination Sequence:
#
# PCOD9331021 Si02
#       5
#     4   8   8   4   8
#     4   9  20  38  62  84 125 166 202 260 313 372
#     4  10  22  41  60  93 121 164 207 257 317 365
#     4  10  21  39  64  86 126 162 203 265 309 368
#     4  11  21  40  64  90 125 167 206 254 318 377
#     4  11  23  40  63  94 127 162 208 260 311 377
#
# _framework density 19.110120999999999
#
# number of rings (size 3 to 8) (size 9 to 14) (size 15 to 20)
#    0.000    2.000    2.500    3.375    0.000    9.000 
#    4.500    2.500    0.000    0.000    0.000    0.000 
#    0.000    0.000    0.000    0.000    0.000    0.000 
#
# Total GULP energy -89212.002846 kJ/mol
# GULP energy per Si atom -5575.750178 kJ/mol
# Density = 1.906663 g / cm^3
# Si number density = 19.110121 Si / 1000 Ang^3
#
#
#
# Elastic Constant Matrix: (Units=GPa)
#
#
# Indices 1 2 3 4 5 6 
#
# 1 73.0537 28.0328 32.4574 0.0000 0.0000 0.0000
# 2 28.0328 79.5237 35.0973 0.0000 0.0000 0.0000
# 3 32.4574 35.0973 149.2388 0.0000 0.0000 0.0000
# 4 0.0000 0.0000 0.0000 42.6722 0.0000 0.0000
# 5 0.0000 0.0000 0.0000 0.0000 2.1742 0.0000
# 6 0.0000 0.0000 0.0000 0.0000 0.0000 31.2527
#
#
#
# Elastic Compliance Matrix: (Units=1/GPa)
#
#
# Indices 1 2 3 4 5 6 
#
# 1 0.016624 -0.004758 -0.002496 0.000000 0.000000 0.000000
# 2 -0.004758 0.015393 -0.002585 0.000000 0.000000 0.000000
# 3 -0.002496 -0.002585 0.007852 0.000000 0.000000 0.000000
# 4 0.000000 0.000000 0.000000 0.023434 0.000000 0.000000
# 5 0.000000 0.000000 0.000000 0.000000 0.459930 0.000000
# 6 0.000000 0.000000 0.000000 0.000000 0.000000 0.031997
#
#
# Mechanical properties :
#
#
# Convention : Reuss Voigt Hill
#
# Bulk Modulus (GPa) = 49.53277 54.77679 52.15478
# Shear Modulus (GPa) = 8.59639 28.96841 18.78240
#
# Velocity S-wave (km/s) = 2.12323 3.89764 3.13845
# Velocity P-wave (km/s) = 5.65568 6.99867 6.36271
#
# Compressibility (1/GPa) = 0.02018865
#
# Stress axis : x y z
#
# Youngs Moduli (GPa) = 60.15562 64.96395 127.36272
#
# Poissons Ratio (x) = 0.30911 0.31795
# Poissons Ratio (y) = 0.28623 0.32927
# Poissons Ratio (z) = 0.15017 0.16795
#
# Static dielectric constant tensor:
#      x y z
#    x 1.531490 0.000000 0.000000 
#    y 0.000000 1.669040 0.000000 
#    z 0.000000 0.000000 1.653540 
# 
# From -- ./inp_files/8140.got.cif
#   From: 2010.05.17/outbox.cif.g08.bks.cpg/sg23_5_cif.got.tgz:8140.got - 2010.06.04 12:02:01.
