data_PCOD9331663
_publ_section_title
;
Structure prediction by ZEFSAII (Michael W. Deem and Ramdas Pophale) SiO2 
 PCOD9331663
Probable space group: I 2 2 2
;
_chemical_formula_sum "Si O2"
_cell_formula_units_Z 60
_cell_length_a 11.550339
_cell_length_b 22.051332
_cell_length_c 11.672253
_cell_angle_alpha 90.000000
_cell_angle_beta 90.000000
_cell_angle_gamma 90.000000
_cell_volume 2972.927041
_symmetry_space_group_name_H-M "I 2 2 2"
_symmetry_group_IT_number 23
_symmetry_cell_setting 'orthorhombic'
loop_
_space_group_symop_operation_xyz
x,y,z
-x,-y,z
x,-y,-z
-x,y,-z
1/2+x,1/2+y,1/2+z
1/2-x,1/2-y,1/2+z
1/2+x,1/2-y,1/2-z
1/2-x,1/2+y,1/2-z
loop_
_atom_site_type_symbol
_atom_site_label
_atom_site_fract_x
_atom_site_fract_y
_atom_site_fract_z
Si Si1 0.000000 0.158885 0.000000
Si Si2 0.831014 0.837309 0.603510
Si Si3 0.092401 0.835931 0.656713
Si Si4 0.259537 0.920468 0.759558
Si Si5 0.308530 0.939897 0.261687
Si Si6 0.787670 0.070973 0.016793
Si Si7 0.017350 0.623447 0.137202
Si Si8 0.878142 0.744552 0.166808
O O1 0.102869 0.114225 0.960450
O O2 0.060226 0.203969 0.090928
O O3 0.862763 0.846220 0.471155
O O4 0.770265 0.895287 0.661674
O O5 0.740131 0.782494 0.615780
O O6 0.955023 0.826793 0.661271
O O7 0.134611 0.893561 0.728907
O O8 0.147311 0.776050 0.712434
O O9 0.273156 0.912251 0.896255
O O10 0.353867 0.884918 0.683953
O O11 0.271250 0.990644 0.727464
O O12 0.438062 0.927792 0.304231
O O13 0.293398 0.924262 0.127767
O O14 0.822528 0.000000 0.000000
O O15 0.964687 0.687871 0.174655
O O16 0.000000 0.619604 0.000000
#
# Coordination Sequence:
#
# PCOD9331663 Si02
#       8
#     4   8   8   8   8   8   8   8
#     4  12  21  40  70  94 125 184 214 272 340 394
#     4  10  25  45  61  95 133 166 219 274 331 398
#     4  11  24  42  65  92 130 170 215 275 327 398
#     4  11  23  41  68  98 129 175 227 269 339 396
#     4  10  23  43  66  95 134 174 216 282 333 396
#     4  10  23  41  64 100 135 170 226 281 332 404
#     4  11  24  43  65  99 135 175 227 280 329 406
#     4  11  24  40  67  93 127 174 214 270 328 401
#
# _framework density 20.182129
#
# number of rings (size 3 to 8) (size 9 to 14) (size 15 to 20)
#    0.000    1.333    2.000    3.000    1.867    5.867 
#    0.000    3.333    0.000    0.000    0.000    0.000 
#    0.000    0.000    0.000    0.000    0.000    0.000 
#
# Total GULP energy -167574.208457 kJ/mol
# GULP energy per Si atom -5585.806949 kJ/mol
# Density = 2.013619 g / cm^3
# Si number density = 20.182129 Si / 1000 Ang^3
#
#
#
# Elastic Constant Matrix: (Units=GPa)
#
#
# Indices 1 2 3 4 5 6 
#
# 1 80.4036 30.8706 25.5192 0.0000 0.0000 0.0000
# 2 30.8706 86.3198 40.8717 0.0000 0.0000 0.0000
# 3 25.5192 40.8717 96.5078 0.0000 0.0000 0.0000
# 4 0.0000 0.0000 0.0000 30.7709 0.0000 0.0000
# 5 0.0000 0.0000 0.0000 0.0000 22.9414 0.0000
# 6 0.0000 0.0000 0.0000 0.0000 0.0000 35.6777
#
#
#
# Elastic Compliance Matrix: (Units=1/GPa)
#
#
# Indices 1 2 3 4 5 6 
#
# 1 0.014744 -0.004287 -0.002083 0.000000 0.000000 0.000000
# 2 -0.004287 0.015737 -0.005531 0.000000 0.000000 0.000000
# 3 -0.002083 -0.005531 0.013255 0.000000 0.000000 0.000000
# 4 0.000000 0.000000 0.000000 0.032498 0.000000 0.000000
# 5 0.000000 0.000000 0.000000 0.000000 0.043589 0.000000
# 6 0.000000 0.000000 0.000000 0.000000 0.000000 0.028029
#
#
# Mechanical properties :
#
#
# Convention : Reuss Voigt Hill
#
# Bulk Modulus (GPa) = 50.16526 50.86161 50.51343
# Shear Modulus (GPa) = 28.04268 28.94263 28.49265
#
# Velocity S-wave (km/s) = 3.73162 3.79102 3.76144
# Velocity P-wave (km/s) = 6.59370 6.66472 6.62930
#
# Compressibility (1/GPa) = 0.01993411
#
# Stress axis : x y z
#
# Youngs Moduli (GPa) = 67.82282 63.54539 75.44182
#
# Poissons Ratio (x) = 0.27239 0.15718
# Poissons Ratio (y) = 0.29073 0.41728
# Poissons Ratio (z) = 0.14130 0.35148
#
# Static dielectric constant tensor:
#      x y z
#    x 1.725750 0.000000 0.000000 
#    y 0.000000 1.696960 0.000000 
#    z 0.000000 0.000000 1.739020 
# 
# From -- ./inp_files/15964.got.cif
#   From: 2010.05.17/outbox.cif.g08.bks.cpg/sg23_8_cif.got.tgz:15964.got - 2010.06.04 12:02:01.
