data_PCOD9331014
_publ_section_title
;
Structure prediction by ZEFSAII (Michael W. Deem and Ramdas Pophale) SiO2 
 PCOD9331014
Probable space group: I 2 2 2
;
_chemical_formula_sum "Si O2"
_cell_formula_units_Z 52
_cell_length_a 13.542425
_cell_length_b 21.497671
_cell_length_c 9.155873
_cell_angle_alpha 90.000000
_cell_angle_beta 90.000000
_cell_angle_gamma 90.000000
_cell_volume 2665.554774
_symmetry_space_group_name_H-M "I 2 2 2"
_symmetry_group_IT_number 23
_symmetry_cell_setting 'orthorhombic'
loop_
_space_group_symop_operation_xyz
x,y,z
-x,-y,z
x,-y,-z
-x,y,-z
1/2+x,1/2+y,1/2+z
1/2-x,1/2-y,1/2+z
1/2+x,1/2-y,1/2-z
1/2-x,1/2+y,1/2-z
loop_
_atom_site_type_symbol
_atom_site_label
_atom_site_fract_x
_atom_site_fract_y
_atom_site_fract_z
Si Si1 0.500000 0.649548 0.500000
Si Si2 0.792331 0.984713 0.328870
Si Si3 0.683160 0.381371 0.690544
Si Si4 0.339488 0.840734 0.964637
Si Si5 0.397367 0.966084 0.853227
Si Si6 0.350794 0.351687 0.737225
Si Si7 0.889562 0.800902 0.537326
O O1 0.404769 0.617703 0.571573
O O2 0.555802 0.676243 0.646037
O O3 0.813988 0.049279 0.250157
O O4 0.801559 0.000000 0.500000
O O5 0.680638 0.968844 0.277570
O O6 0.857582 0.925977 0.273066
O O7 0.786896 0.360243 0.617436
O O8 0.653759 0.333966 0.819935
O O9 0.408852 0.894988 0.903028
O O10 0.245200 0.839992 0.858390
O O11 0.387020 0.773378 0.956978
O O12 0.500000 0.000000 0.819872
O O13 0.355516 0.000000 0.000000
O O14 0.331452 0.320356 0.892540
O O15 0.000000 0.823511 0.500000
#
# Coordination Sequence:
#
# PCOD9331014 Si02
#       7
#     4   8   8   8   8   8   8
#     4  10  22  39  56  86 120 154 201 256 292 358
#     4  11  22  38  63  87 122 161 202 249 312 355
#     4  11  22  40  61  88 120 162 201 253 304 360
#     4  10  23  39  65  87 120 161 200 246 308 364
#     4  10  21  39  63  91 117 149 205 255 300 359
#     4  10  22  40  59  88 120 159 202 251 301 361
#     4  12  23  39  60  90 123 161 203 246 301 362
#
# _framework density 19.508133999999998
#
# number of rings (size 3 to 8) (size 9 to 14) (size 15 to 20)
#    0.000    1.385    4.615    0.923    2.154    1.538 
#    0.000    1.538    0.000    0.000    0.000    0.000 
#    0.000    0.000    0.000    0.000    0.000    0.000 
#
# Total GULP energy -144857.156560 kJ/mol
# GULP energy per Si atom -5571.429098 kJ/mol
# Density = 1.946373 g / cm^3
# Si number density = 19.508134 Si / 1000 Ang^3
#
#
#
# Elastic Constant Matrix: (Units=GPa)
#
#
# Indices 1 2 3 4 5 6 
#
# 1 55.9576 -0.5678 3.3100 0.0000 0.0000 0.0000
# 2 -0.5678 115.4194 11.9178 -0.0002 0.0000 0.0000
# 3 3.3100 11.9178 87.9828 -0.0006 0.0000 0.0000
# 4 0.0000 -0.0002 -0.0006 22.7734 0.0000 0.0000
# 5 0.0000 0.0000 0.0000 0.0000 18.7491 0.0000
# 6 0.0000 0.0000 0.0000 0.0000 0.0000 16.3550
#
#
#
# Elastic Compliance Matrix: (Units=1/GPa)
#
#
# Indices 1 2 3 4 5 6 
#
# 1 0.017913 0.000160 -0.000696 0.000000 0.000000 0.000000
# 2 0.000160 0.008788 -0.001196 0.000000 0.000000 0.000000
# 3 -0.000696 -0.001196 0.011554 0.000000 0.000000 0.000000
# 4 0.000000 0.000000 0.000000 0.043911 0.000000 0.000000
# 5 0.000000 0.000000 0.000000 0.000000 0.053336 0.000000
# 6 0.000000 0.000000 0.000000 0.000000 0.000000 0.061143
#
#
# Mechanical properties :
#
#
# Convention : Reuss Voigt Hill
#
# Bulk Modulus (GPa) = 28.74246 32.07553 30.40899
# Shear Modulus (GPa) = 23.61747 27.88881 25.75314
#
# Velocity S-wave (km/s) = 3.48321 3.78511 3.63729
# Velocity P-wave (km/s) = 5.56260 5.96494 5.76728
#
# Compressibility (1/GPa) = 0.03479174
#
# Stress axis : x y z
#
# Youngs Moduli (GPa) = 55.82398 113.78655 86.54942
#
# Poissons Ratio (x) = -0.01820 0.06020
# Poissons Ratio (y) = -0.00893 0.10355
# Poissons Ratio (z) = 0.03883 0.13614
#
# Static dielectric constant tensor:
#      x y z
#    x 1.713440 0.000000 0.000000 
#    y 0.000000 1.687370 0.000000 
#    z 0.000000 0.000000 1.762260 
# 
# From -- ./inp_files/10150.got.cif
#   From: 2010.05.17/outbox.cif.g08.bks.cpg/sg23_6_cif.got.tgz:10150.got - 2010.06.04 12:02:01.
