data_PCOD9331733
_publ_section_title
;
Structure prediction by ZEFSAII (Michael W. Deem and Ramdas Pophale) SiO2 
 PCOD9331733
Probable space group: I 2 2 2
;
_chemical_formula_sum "Si O2"
_cell_formula_units_Z 48
_cell_length_a 14.478006
_cell_length_b 16.360031
_cell_length_c 9.769380
_cell_angle_alpha 90.000000
_cell_angle_beta 90.000000
_cell_angle_gamma 90.000000
_cell_volume 2313.981472
_symmetry_space_group_name_H-M "I 2 2 2"
_symmetry_group_IT_number 23
_symmetry_cell_setting 'orthorhombic'
loop_
_space_group_symop_operation_xyz
x,y,z
-x,-y,z
x,-y,-z
-x,y,-z
1/2+x,1/2+y,1/2+z
1/2-x,1/2-y,1/2+z
1/2+x,1/2-y,1/2-z
1/2-x,1/2+y,1/2-z
loop_
_atom_site_type_symbol
_atom_site_label
_atom_site_fract_x
_atom_site_fract_y
_atom_site_fract_z
Si Si1 0.396937 0.535502 0.355805
Si Si2 0.659971 0.718313 0.584070
Si Si3 0.751653 0.550175 0.862876
Si Si4 0.444232 0.078034 0.223975
Si Si5 0.810739 0.764837 0.388344
Si Si6 0.500000 0.792586 0.000000
Si Si7 0.000000 0.337901 0.000000
O O1 0.500000 0.500000 0.337151
O O2 0.361599 0.500000 0.500000
O O3 0.390298 0.633538 0.376361
O O4 0.332537 0.514826 0.227082
O O5 0.745549 0.708320 0.481385
O O6 0.695383 0.755218 0.727608
O O7 0.588110 0.779480 0.514841
O O8 0.839941 0.555833 0.763752
O O9 0.724456 0.642458 0.904174
O O10 0.771573 0.500000 0.000000
O O11 0.490472 0.107736 0.365531
O O12 0.500000 0.000000 0.172279
O O13 0.454569 0.150440 0.115950
O O14 0.916831 0.757898 0.433527
#
# Coordination Sequence:
#
# PCOD9331733 Si02
#       7
#     8   8   8   8   8   4   4
#     4  10  23  44  66 100 137 180 228 273 344 416
#     4  11  24  42  72  99 137 181 228 281 343 410
#     4  11  25  45  70 102 138 178 227 288 344 410
#     4  12  26  45  68 101 137 182 233 281 345 408
#     4  11  25  44  67 104 136 180 230 280 345 409
#     4  12  25  46  69 100 144 180 228 290 339 414
#     4  12  21  44  69  98 136 178 228 284 339 408
#
# _framework density 20.743468
#
# number of rings (size 3 to 8) (size 9 to 14) (size 15 to 20)
#    0.000    0.833    3.333    4.500    0.000    7.000 
#    0.000    0.000    0.000    0.000    0.000    0.000 
#    0.000    0.000    0.000    0.000    0.000    0.000 
#
# Total GULP energy -134234.050954 kJ/mol
# GULP energy per Si atom -5593.085456 kJ/mol
# Density = 2.069626 g / cm^3
# Si number density = 20.743468 Si / 1000 Ang^3
#
#
#
# Elastic Constant Matrix: (Units=GPa)
#
#
# Indices 1 2 3 4 5 6 
#
# 1 129.9917 39.2415 36.2700 0.0000 0.0000 0.0000
# 2 39.2415 46.9810 9.7686 0.0000 0.0000 0.0000
# 3 36.2700 9.7686 102.4209 0.0000 0.0000 0.0000
# 4 0.0000 0.0000 0.0000 -711.2996 0.0000 0.0000
# 5 0.0000 0.0000 0.0000 0.0000 34.9595 0.0000
# 6 0.0000 0.0000 0.0000 0.0000 0.0000 25.0865
#
#
#
# Elastic Compliance Matrix: (Units=1/GPa)
#
#
# Indices 1 2 3 4 5 6 
#
# 1 0.011193 -0.008697 -0.003134 0.000000 0.000000 0.000000
# 2 -0.008697 0.028474 0.000364 0.000000 0.000000 0.000000
# 3 -0.003134 0.000364 0.010839 0.000000 0.000000 0.000000
# 4 0.000000 0.000000 0.000000 -0.001406 0.000000 0.000000
# 5 0.000000 0.000000 0.000000 0.000000 0.028605 0.000000
# 6 0.000000 0.000000 0.000000 0.000000 0.000000 0.039862
#
#
# Mechanical properties :
#
#
# Convention : Reuss Voigt Hill
#
# Bulk Modulus (GPa) = 36.26989 49.99487 43.13238
# Shear Modulus (GPa) = 33.40213 -117.30982 -41.95384
#
# Velocity S-wave (km/s) = 4.01714 -7.52831 -4.50211
# Velocity P-wave (km/s) = 6.24816 7.17031 2.48736
#
# Compressibility (1/GPa) = 0.02757108
#
# Stress axis : x y z
#
# Youngs Moduli (GPa) = 89.34338 35.11985 92.26128
#
# Poissons Ratio (x) = 0.30545 0.28916
# Poissons Ratio (y) = 0.77704 -0.03360
# Poissons Ratio (z) = 0.28002 -0.01279
#
# Static dielectric constant tensor:
#      x y z
#    x 2.988050 0.000000 0.000000 
#    y 0.000000 1.767510 0.000000 
#    z 0.000000 0.000000 1.726750 
# 
# From -- ./inp_files/9977.got.cif
#   From: 2010.05.17/outbox.cif.g08.bks.cpg/sg23_5_cif.got.tgz:9977.got - 2010.06.04 12:02:01.
