data_PCOD9331830
_publ_section_title
;
Structure prediction by ZEFSAII (Michael W. Deem and Ramdas Pophale) SiO2 
 PCOD9331830
Probable space group: I 2 2 2
;
_chemical_formula_sum "Si O2"
_cell_formula_units_Z 56
_cell_length_a 21.687046
_cell_length_b 4.950837
_cell_length_c 21.347268
_cell_angle_alpha 90.000000
_cell_angle_beta 90.000000
_cell_angle_gamma 90.000000
_cell_volume 2292.035453
_symmetry_space_group_name_H-M "I 2 2 2"
_symmetry_group_IT_number 23
_symmetry_cell_setting 'orthorhombic'
loop_
_space_group_symop_operation_xyz
x,y,z
-x,-y,z
x,-y,-z
-x,y,-z
1/2+x,1/2+y,1/2+z
1/2-x,1/2-y,1/2+z
1/2+x,1/2-y,1/2-z
1/2-x,1/2+y,1/2-z
loop_
_atom_site_type_symbol
_atom_site_label
_atom_site_fract_x
_atom_site_fract_y
_atom_site_fract_z
Si Si1 0.291226 0.949490 0.250051
Si Si2 0.838430 0.175218 0.347372
Si Si3 0.261222 0.350282 0.933976
Si Si4 0.135897 0.686451 0.133717
Si Si5 0.558918 0.313010 0.191719
Si Si6 0.107461 0.526212 0.568751
Si Si7 0.058981 0.798433 0.835442
O O1 0.231895 0.146786 0.248225
O O2 0.324946 0.044640 0.186999
O O3 0.332183 0.045960 0.306801
O O4 0.879701 0.223016 0.408502
O O5 0.777854 0.048596 0.376320
O O6 0.880659 0.998564 0.303554
O O7 0.191168 0.263303 0.916853
O O8 0.322503 0.156947 0.936426
O O9 0.259144 0.500000 0.000000
O O10 0.079376 0.467663 0.123769
O O11 0.112027 0.980094 0.152930
O O12 0.500000 0.500000 0.183048
O O13 0.568762 0.147314 0.127084
O O14 0.552918 0.198357 0.262599
O O15 0.079852 0.500000 0.500000
O O16 0.000000 0.000000 0.847580
#
# Coordination Sequence:
#
# PCOD9331830 Si02
#       7
#     8   8   8   8   8   8   8
#     4  12  23  36  60  97 138 167 210 283 347 415
#     4  11  22  38  60  89 127 168 218 272 344 397
#     4  11  24  41  65  97 136 176 220 278 342 429
#     4  12  24  41  70 103 137 178 229 278 354 426
#     4  10  24  42  63  92 130 178 237 290 343 405
#     4  11  23  41  66  89 131 183 228 283 343 400
#     4  11  25  46  70 102 139 178 226 291 355 418
#
# _framework density 24.432428999999999
#
# number of rings (size 3 to 8) (size 9 to 14) (size 15 to 20)
#    0.000    0.857    4.286    3.000    4.000    0.571 
#    0.000    2.143    0.000    2.571    0.000    0.000 
#    0.000    0.000    0.000    0.000    0.000    0.000 
#
# Total GULP energy -156213.183862 kJ/mol
# GULP energy per Si atom -5579.042281 kJ/mol
# Density = 2.437682 g / cm^3
# Si number density = 24.432429 Si / 1000 Ang^3
#
#
#
# Elastic Constant Matrix: (Units=GPa)
#
#
# Indices 1 2 3 4 5 6 
#
# 1 110.0345 42.3741 32.0319 0.0000 0.0000 0.0000
# 2 42.3741 81.2055 15.7441 0.0000 0.0000 0.0000
# 3 32.0319 15.7441 61.4597 0.0000 0.0000 0.0000
# 4 0.0000 0.0000 0.0000 32.8778 0.0000 0.0000
# 5 0.0000 0.0000 0.0000 0.0000 17.6863 0.0000
# 6 0.0000 0.0000 0.0000 0.0000 0.0000 49.2484
#
#
#
# Elastic Compliance Matrix: (Units=1/GPa)
#
#
# Indices 1 2 3 4 5 6 
#
# 1 0.012786 -0.005661 -0.005214 0.000000 0.000000 0.000000
# 2 -0.005661 0.015464 -0.001011 0.000000 0.000000 0.000000
# 3 -0.005214 -0.001011 0.019247 0.000000 0.000000 0.000000
# 4 0.000000 0.000000 0.000000 0.030416 0.000000 0.000000
# 5 0.000000 0.000000 0.000000 0.000000 0.056541 0.000000
# 6 0.000000 0.000000 0.000000 0.000000 0.000000 0.020305
#
#
# Mechanical properties :
#
#
# Convention : Reuss Voigt Hill
#
# Bulk Modulus (GPa) = 42.14789 48.11109 45.12949
# Shear Modulus (GPa) = 26.81837 30.79913 28.80875
#
# Velocity S-wave (km/s) = 3.31668 3.55432 3.43756
# Velocity P-wave (km/s) = 5.65291 6.04802 5.85380
#
# Compressibility (1/GPa) = 0.02372598
#
# Stress axis : x y z
#
# Youngs Moduli (GPa) = 78.21156 64.66436 51.95594
#
# Poissons Ratio (x) = 0.36607 0.27088
# Poissons Ratio (y) = 0.44276 0.05253
# Poissons Ratio (z) = 0.40776 0.06538
#
# Static dielectric constant tensor:
#      x y z
#    x 2.111820 0.000000 0.000000 
#    y 0.000000 2.011230 0.000000 
#    z 0.000000 0.000000 1.938410 
# 
# From -- ./inp_files/28681.got.cif
#   From: 2010.05.17/outbox.cif.g08.bks.cpg/sg23_15_cif.got.tgz:28681.got - 2010.06.04 12:02:01.
