data_PCOD9331454
_publ_section_title
;
Structure prediction by ZEFSAII (Michael W. Deem and Ramdas Pophale) SiO2 
 PCOD9331454
Probable space group: I 2 2 2
;
_chemical_formula_sum "Si O2"
_cell_formula_units_Z 58
_cell_length_a 26.591670
_cell_length_b 11.760504
_cell_length_c 8.869742
_cell_angle_alpha 90.000000
_cell_angle_beta 90.000000
_cell_angle_gamma 90.000000
_cell_volume 2773.847201
_symmetry_space_group_name_H-M "I 2 2 2"
_symmetry_group_IT_number 23
_symmetry_cell_setting 'orthorhombic'
loop_
_space_group_symop_operation_xyz
x,y,z
-x,-y,z
x,-y,-z
-x,y,-z
1/2+x,1/2+y,1/2+z
1/2-x,1/2-y,1/2+z
1/2+x,1/2-y,1/2-z
1/2-x,1/2+y,1/2-z
loop_
_atom_site_type_symbol
_atom_site_label
_atom_site_fract_x
_atom_site_fract_y
_atom_site_fract_z
Si Si1 0.641170 0.890923 0.803741
Si Si2 0.618610 0.859924 0.128929
Si Si3 0.810485 0.217146 0.160810
Si Si4 0.409853 0.391994 0.403484
Si Si5 0.736064 0.116813 0.412056
Si Si6 0.029549 0.813701 0.353980
Si Si7 0.945999 0.711795 0.135870
Si Si8 0.000000 0.500000 0.000000
O O1 0.688033 0.909376 0.694735
O O2 0.605455 0.799824 0.726523
O O3 0.611643 0.009266 0.827482
O O4 0.651250 0.853648 0.975267
O O5 0.650886 0.804750 0.261200
O O6 0.566651 0.792241 0.106341
O O7 0.849707 0.124425 0.096999
O O8 0.777040 0.163271 0.293645
O O9 0.779380 0.285866 0.033992
O O10 0.424498 0.500000 0.500000
O O11 0.433648 0.398014 0.236905
O O12 0.433926 0.282586 0.486099
O O13 0.749887 0.000000 0.500000
O O14 0.000000 0.855744 0.500000
O O15 0.986860 0.772285 0.239080
O O16 0.965726 0.586720 0.093950
#
# Coordination Sequence:
#
# PCOD9331454 Si02
#       8
#     8   8   8   8   8   8   8   2
#     4  11  22  39  67 101 141 180 219 282 349 420
#     4  10  22  41  66 101 145 176 220 280 356 413
#     4  11  25  46  70  99 133 181 234 296 357 428
#     4  11  26  49  69  95 140 191 237 284 348 425
#     4  12  25  45  73 102 138 178 240 296 363 436
#     4  11  22  43  68 104 138 181 233 285 335 401
#     4  12  23  40  68 101 141 183 227 279 336 420
#     4  12  24  36  68 104 136 180 230 270 344 404
#
# _framework density 20.909586000000001
#
# number of rings (size 3 to 8) (size 9 to 14) (size 15 to 20)
#    0.000    0.828    5.517    1.655    2.897    2.207 
#    4.966    1.379    0.000    0.000    0.000    0.000 
#    0.000    0.000    0.000    0.000    0.000    0.000 
#
# Total GULP energy -162003.012990 kJ/mol
# GULP energy per Si atom -5586.310793 kJ/mol
# Density = 2.086200 g / cm^3
# Si number density = 20.909586 Si / 1000 Ang^3
#
#
#
# Elastic Constant Matrix: (Units=GPa)
#
#
# Indices 1 2 3 4 5 6 
#
# 1 72.7236 32.1561 40.9575 0.0000 0.0000 0.0000
# 2 32.1561 61.2731 37.3314 0.0000 0.0000 0.0000
# 3 40.9575 37.3314 123.6692 0.0000 0.0000 0.0000
# 4 0.0000 0.0000 0.0000 27.0543 0.0000 0.0000
# 5 0.0000 0.0000 0.0000 0.0000 53.2139 0.0000
# 6 0.0000 0.0000 0.0000 0.0000 0.0000 14.2119
#
#
#
# Elastic Compliance Matrix: (Units=1/GPa)
#
#
# Indices 1 2 3 4 5 6 
#
# 1 0.019484 -0.007712 -0.004125 0.000000 0.000000 0.000000
# 2 -0.007712 0.023051 -0.004404 0.000000 0.000000 0.000000
# 3 -0.004125 -0.004404 0.010782 0.000000 0.000000 0.000000
# 4 0.000000 0.000000 0.000000 0.036963 0.000000 0.000000
# 5 0.000000 0.000000 0.000000 0.000000 0.018792 0.000000
# 6 0.000000 0.000000 0.000000 0.000000 0.000000 0.070363
#
#
# Mechanical properties :
#
#
# Convention : Reuss Voigt Hill
#
# Bulk Modulus (GPa) = 47.99744 53.17287 50.58515
# Shear Modulus (GPa) = 22.84554 28.71074 25.77814
#
# Velocity S-wave (km/s) = 3.30902 3.70954 3.51499
# Velocity P-wave (km/s) = 6.13221 6.62063 6.38110
#
# Compressibility (1/GPa) = 0.02083444
#
# Stress axis : x y z
#
# Youngs Moduli (GPa) = 51.32483 43.38220 92.75048
#
# Poissons Ratio (x) = 0.33456 0.38257
# Poissons Ratio (y) = 0.39582 0.40849
# Poissons Ratio (z) = 0.21170 0.19106
#
# Static dielectric constant tensor:
#      x y z
#    x 1.754280 0.000000 0.000000 
#    y 0.000000 1.765450 0.000000 
#    z 0.000000 0.000000 1.782380 
# 
# From -- ./inp_files/13072.got.cif
#   From: 2010.05.17/outbox.cif.g08.bks.cpg/sg23_7_cif.got.tgz:13072.got - 2010.06.04 12:02:01.
