data_PCOD9331111
_publ_section_title
;
Structure prediction by ZEFSAII (Michael W. Deem and Ramdas Pophale) SiO2 
 PCOD9331111
Probable space group: I 2 2 2
;
_chemical_formula_sum "Si O2"
_cell_formula_units_Z 56
_cell_length_a 15.824689
_cell_length_b 8.155586
_cell_length_c 20.868301
_cell_angle_alpha 90.000000
_cell_angle_beta 90.000000
_cell_angle_gamma 90.000000
_cell_volume 2693.254831
_symmetry_space_group_name_H-M "I 2 2 2"
_symmetry_group_IT_number 23
_symmetry_cell_setting 'orthorhombic'
loop_
_space_group_symop_operation_xyz
x,y,z
-x,-y,z
x,-y,-z
-x,y,-z
1/2+x,1/2+y,1/2+z
1/2-x,1/2-y,1/2+z
1/2+x,1/2-y,1/2-z
1/2-x,1/2+y,1/2-z
loop_
_atom_site_type_symbol
_atom_site_label
_atom_site_fract_x
_atom_site_fract_y
_atom_site_fract_z
Si Si1 0.681843 0.681510 0.120325
Si Si2 0.528642 0.319386 0.659460
Si Si3 0.627544 0.848186 0.593168
Si Si4 0.145250 0.728184 0.051535
Si Si5 0.571112 0.618714 0.877884
Si Si6 0.834878 0.312228 0.519875
Si Si7 0.045429 0.674241 0.290820
O O1 0.782456 0.699968 0.124032
O O2 0.649520 0.499568 0.138423
O O3 0.625790 0.805888 0.162254
O O4 0.661290 0.706812 0.045181
O O5 0.500000 0.500000 0.678993
O O6 0.449590 0.209196 0.636465
O O7 0.590944 0.337082 0.599217
O O8 0.570279 0.228379 0.719602
O O9 0.617644 0.767145 0.522713
O O10 0.632524 0.042248 0.577435
O O11 0.242901 0.778675 0.050284
O O12 0.500000 0.500000 0.907208
O O13 0.597466 0.754581 0.928639
O O14 0.525365 0.700127 0.817592
O O15 0.843469 0.500000 0.500000
O O16 0.000000 0.500000 0.291504
#
# Coordination Sequence:
#
# PCOD9331111 Si02
#       7
#     8   8   8   8   8   8   8
#     4  10  21  40  65  94 130 166 214 267 325 385
#     4  12  26  43  64  95 129 173 219 270 326 393
#     4  10  21  42  67  96 128 168 213 268 329 386
#     4  10  22  40  67  94 131 167 213 269 328 386
#     4  10  21  40  66  94 134 171 216 267 324 387
#     4  11  22  37  64 102 136 167 217 269 325 392
#     4  11  24  45  65  91 130 172 220 267 325 396
#
# _framework density 20.792686
#
# number of rings (size 3 to 8) (size 9 to 14) (size 15 to 20)
#    0.000    1.429    1.429    4.286    4.000    5.714 
#    2.571    3.571    0.000    0.000    0.000    0.000 
#    0.000    0.000    0.000    0.000    0.000    0.000 
#
# Total GULP energy -156540.362366 kJ/mol
# GULP energy per Si atom -5590.727227 kJ/mol
# Density = 2.074536 g / cm^3
# Si number density = 20.792686 Si / 1000 Ang^3
#
#
#
# Elastic Constant Matrix: (Units=GPa)
#
#
# Indices 1 2 3 4 5 6 
#
# 1 72.5723 11.4854 47.1514 0.0000 0.0000 0.0000
# 2 11.4854 76.9941 10.6245 0.0000 0.0000 0.0000
# 3 47.1514 10.6245 64.8976 0.0000 0.0000 0.0000
# 4 0.0000 0.0000 0.0000 33.3622 0.0000 0.0000
# 5 0.0000 0.0000 0.0000 0.0000 -11.7748 0.0000
# 6 0.0000 0.0000 0.0000 0.0000 0.0000 22.4734
#
#
#
# Elastic Compliance Matrix: (Units=1/GPa)
#
#
# Indices 1 2 3 4 5 6 
#
# 1 0.026229 -0.001313 -0.018842 0.000000 0.000000 0.000000
# 2 -0.001313 0.013354 -0.001232 0.000000 0.000000 0.000000
# 3 -0.018842 -0.001232 0.029300 0.000000 0.000000 0.000000
# 4 0.000000 0.000000 0.000000 0.029974 0.000000 0.000000
# 5 0.000000 0.000000 0.000000 0.000000 -0.084927 0.000000
# 6 0.000000 0.000000 0.000000 0.000000 0.000000 0.044497
#
#
# Mechanical properties :
#
#
# Convention : Reuss Voigt Hill
#
# Bulk Modulus (GPa) = 38.30066 39.22073 38.76070
# Shear Modulus (GPa) = 45.49440 18.49234 31.99337
#
# Velocity S-wave (km/s) = 4.68268 2.98546 3.92686
# Velocity P-wave (km/s) = 6.90630 5.54866 6.26437
#
# Compressibility (1/GPa) = 0.02610921
#
# Stress axis : x y z
#
# Youngs Moduli (GPa) = 38.12592 74.88453 34.12954
#
# Poissons Ratio (x) = 0.09830 0.64306
# Poissons Ratio (y) = 0.05005 0.04206
# Poissons Ratio (z) = 0.71836 0.09229
#
# Static dielectric constant tensor:
#      x y z
#    x 1.750550 0.000000 0.000000 
#    y 0.000000 1.775320 0.000000 
#    z 0.000000 0.000000 1.722810 
# 
# From -- ./inp_files/26995.got.cif
#   From: 2010.05.17/outbox.cif.g08.bks.cpg/sg23_14_cif.got.tgz:26995.got - 2010.06.04 12:02:01.
