data_PCOD9331340
_publ_section_title
;
Structure prediction by ZEFSAII (Michael W. Deem and Ramdas Pophale) SiO2 
 PCOD9331340
Probable space group: I 2 2 2
;
_chemical_formula_sum "Si O2"
_cell_formula_units_Z 28
_cell_length_a 9.860959
_cell_length_b 14.776839
_cell_length_c 7.567247
_cell_angle_alpha 90.000000
_cell_angle_beta 90.000000
_cell_angle_gamma 90.000000
_cell_volume 1102.652343
_symmetry_space_group_name_H-M "I 2 2 2"
_symmetry_group_IT_number 23
_symmetry_cell_setting 'orthorhombic'
loop_
_space_group_symop_operation_xyz
x,y,z
-x,-y,z
x,-y,-z
-x,y,-z
1/2+x,1/2+y,1/2+z
1/2-x,1/2-y,1/2+z
1/2+x,1/2-y,1/2-z
1/2-x,1/2+y,1/2-z
loop_
_atom_site_type_symbol
_atom_site_label
_atom_site_fract_x
_atom_site_fract_y
_atom_site_fract_z
Si Si1 0.926532 0.667595 0.335740
Si Si2 0.106452 0.140258 0.273685
Si Si3 0.678113 0.459398 0.701411
Si Si4 0.000000 0.746897 0.000000
O O1 0.880207 0.770076 0.389672
O O2 0.803665 0.606085 0.278691
O O3 0.000000 0.623989 0.500000
O O4 0.027264 0.687674 0.172047
O O5 0.955525 0.095361 0.265565
O O6 0.196175 0.053548 0.307478
O O7 0.116482 0.187567 0.078424
O O8 0.661450 0.500000 0.500000
#
# Coordination Sequence:
#
# PCOD9331340 Si02
#       4
#     8   8   8   4
#     4  10  22  38  68  99 129 168 226 268 326 386
#     4   9  19  40  65  97 131 172 225 259 334 388
#     4  11  18  37  70  94 126 181 214 268 324 397
#     4   8  18  43  62  89 136 166 212 271 321 388
#
# _framework density 25.393317
#
# number of rings (size 3 to 8) (size 9 to 14) (size 15 to 20)
#    1.714    0.571    2.857    0.857    0.000    5.143 
#    0.000    2.857   12.571    1.714   14.857    0.000 
#    0.000    0.000    0.000    0.000    0.000    0.000 
#
# Total GULP energy -78041.790729 kJ/mol
# GULP energy per Si atom -5574.413623 kJ/mol
# Density = 2.533552 g / cm^3
# Si number density = 25.393317 Si / 1000 Ang^3
#
#
#
# Elastic Constant Matrix: (Units=GPa)
#
#
# Indices 1 2 3 4 5 6 
#
# 1 73.3193 84.6014 12.7808 0.0000 0.0000 0.0000
# 2 84.6014 154.1994 17.2645 0.0000 0.0000 0.0000
# 3 12.7808 17.2645 65.2995 0.0000 0.0000 0.0000
# 4 0.0000 0.0000 0.0000 16.3084 0.0000 0.0000
# 5 0.0000 0.0000 0.0000 0.0000 16.9919 0.0000
# 6 0.0000 0.0000 0.0000 0.0000 0.0000 22.4482
#
#
#
# Elastic Compliance Matrix: (Units=1/GPa)
#
#
# Indices 1 2 3 4 5 6 
#
# 1 0.037411 -0.020307 -0.001953 0.000000 0.000000 0.000000
# 2 -0.020307 0.017706 -0.000707 0.000000 0.000000 0.000000
# 3 -0.001953 -0.000707 0.015883 0.000000 0.000000 0.000000
# 4 0.000000 0.000000 0.000000 0.061318 0.000000 0.000000
# 5 0.000000 0.000000 0.000000 0.000000 0.058852 0.000000
# 6 0.000000 0.000000 0.000000 0.000000 0.000000 0.044547
#
#
# Mechanical properties :
#
#
# Convention : Reuss Voigt Hill
#
# Bulk Modulus (GPa) = 39.89443 58.01239 48.95341
# Shear Modulus (GPa) = 17.24106 23.02781 20.13444
#
# Velocity S-wave (km/s) = 2.60851 3.01465 2.81891
# Velocity P-wave (km/s) = 4.98168 5.91715 5.46945
#
# Compressibility (1/GPa) = 0.02506615
#
# Stress axis : x y z
#
# Youngs Moduli (GPa) = 26.73009 56.47950 62.95961
#
# Poissons Ratio (x) = 1.14692 0.12299
# Poissons Ratio (y) = 0.54280 0.04449
# Poissons Ratio (z) = 0.05221 0.03991
#
# Static dielectric constant tensor:
#      x y z
#    x 2.070100 0.000000 0.000000 
#    y 0.000000 2.035490 0.000000 
#    z 0.000000 0.000000 2.199970 
# 
# From -- ./inp_files/8042.got.cif
#   From: 2010.05.17/outbox.cif.g08.bks.cpg/sg23_5_cif.got.tgz:8042.got - 2010.06.04 12:02:01.
