data_PCOD9331148
_publ_section_title
;
Structure prediction by ZEFSAII (Michael W. Deem and Ramdas Pophale) SiO2 
 PCOD9331148
Probable space group: I 2 2 2
;
_chemical_formula_sum "Si O2"
_cell_formula_units_Z 32
_cell_length_a 12.224099
_cell_length_b 13.412658
_cell_length_c 8.900162
_cell_angle_alpha 90.000000
_cell_angle_beta 90.000000
_cell_angle_gamma 90.000000
_cell_volume 1459.249728
_symmetry_space_group_name_H-M "I 2 2 2"
_symmetry_group_IT_number 23
_symmetry_cell_setting 'orthorhombic'
loop_
_space_group_symop_operation_xyz
x,y,z
-x,-y,z
x,-y,-z
-x,y,-z
1/2+x,1/2+y,1/2+z
1/2-x,1/2-y,1/2+z
1/2+x,1/2-y,1/2-z
1/2-x,1/2+y,1/2-z
loop_
_atom_site_type_symbol
_atom_site_label
_atom_site_fract_x
_atom_site_fract_y
_atom_site_fract_z
Si Si1 0.374844 0.642482 0.720609
Si Si2 0.000000 0.000000 0.000000
Si Si3 0.357971 0.153581 0.915865
Si Si4 0.500000 0.341424 0.000000
Si Si5 0.420329 0.124813 0.237224
Si Si6 0.500000 0.000000 0.500000
O O1 0.425194 0.573370 0.595067
O O2 0.245858 0.644001 0.689945
O O3 0.410244 0.758792 0.716768
O O4 0.430571 0.603468 0.873873
O O5 0.460456 0.103267 0.834628
O O6 0.405958 0.266363 0.933495
O O7 0.342852 0.114999 0.088514
O O8 0.421007 0.064046 0.390930
#
# Coordination Sequence:
#
# PCOD9331148 Si02
#       6
#     8   2   8   4   8   2
#     4  10  21  41  61  85 122 164 204 254 310 361
#     4  12  26  34  56  92 128 170 206 244 300 386
#     4   8  18  41  65  84 120 166 199 255 320 364
#     4   8  20  39  66  91 114 158 218 261 298 369
#     4   9  22  39  61  92 121 156 213 256 304 375
#     4  12  22  34  56  90 128 156 194 268 296 340
#
# _framework density 21.929078000000001
#
# number of rings (size 3 to 8) (size 9 to 14) (size 15 to 20)
#    0.000    3.500    0.000    0.750    0.000   16.500 
#    0.000    2.500    0.000    0.000    0.000    0.000 
#    0.000    0.000    0.000    0.000    0.000    0.000 
#
# Total GULP energy -89098.236882 kJ/mol
# GULP energy per Si atom -5568.639805 kJ/mol
# Density = 2.187917 g / cm^3
# Si number density = 21.929078 Si / 1000 Ang^3
#
#
#
# Elastic Constant Matrix: (Units=GPa)
#
#
# Indices 1 2 3 4 5 6 
#
# 1 122.5841 18.9719 56.2227 0.0000 0.0000 0.0000
# 2 18.9719 71.4727 47.4336 0.0000 0.0000 0.0000
# 3 56.2227 47.4336 151.9645 0.0000 0.0000 0.0000
# 4 0.0000 0.0000 0.0000 -47.4925 0.0000 0.0000
# 5 0.0000 0.0000 0.0000 0.0000 29.5465 0.0000
# 6 0.0000 0.0000 0.0000 0.0000 0.0000 -3.8881
#
#
#
# Elastic Compliance Matrix: (Units=1/GPa)
#
#
# Indices 1 2 3 4 5 6 
#
# 1 0.009828 -0.000247 -0.003559 0.000000 0.000000 0.000000
# 2 -0.000247 0.017653 -0.005419 0.000000 0.000000 0.000000
# 3 -0.003559 -0.005419 0.009589 0.000000 0.000000 0.000000
# 4 0.000000 0.000000 0.000000 -0.021056 0.000000 0.000000
# 5 0.000000 0.000000 0.000000 0.000000 0.033845 0.000000
# 6 0.000000 0.000000 0.000000 0.000000 0.000000 -0.257194
#
#
# Mechanical properties :
#
#
# Convention : Reuss Voigt Hill
#
# Bulk Modulus (GPa) = 53.70428 65.69751 59.70089
# Shear Modulus (GPa) = -27.37044 10.52605 -8.42220
#
# Velocity S-wave (km/s) = -3.53673 2.19328 -1.96188
# Velocity P-wave (km/s) = 2.80450 6.03640 4.70655
#
# Compressibility (1/GPa) = 0.01862049
#
# Stress axis : x y z
#
# Youngs Moduli (GPa) = 101.74751 56.64701 104.28930
#
# Poissons Ratio (x) = 0.01398 0.37118
# Poissons Ratio (y) = 0.02511 0.56513
# Poissons Ratio (z) = 0.36214 0.30696
#
# Static dielectric constant tensor:
#      x y z
#    x 1.822260 0.000000 0.000000 
#    y 0.000000 1.882400 0.000000 
#    z 0.000000 0.000000 1.882770 
# 
# From -- ./inp_files/8004.got.cif
#   From: 2010.05.17/outbox.cif.g08.bks.cpg/sg23_5_cif.got.tgz:8004.got - 2010.06.04 12:02:01.
