data_PCOD9331588
_publ_section_title
;
Structure prediction by ZEFSAII (Michael W. Deem and Ramdas Pophale) SiO2 
 PCOD9331588
Probable space group: I 2 2 2
;
_chemical_formula_sum "Si O2"
_cell_formula_units_Z 64
_cell_length_a 22.961674
_cell_length_b 10.087591
_cell_length_c 14.429420
_cell_angle_alpha 90.000000
_cell_angle_beta 90.000000
_cell_angle_gamma 90.000000
_cell_volume 3342.257349
_symmetry_space_group_name_H-M "I 2 2 2"
_symmetry_group_IT_number 23
_symmetry_cell_setting 'orthorhombic'
loop_
_space_group_symop_operation_xyz
x,y,z
-x,-y,z
x,-y,-z
-x,y,-z
1/2+x,1/2+y,1/2+z
1/2-x,1/2-y,1/2+z
1/2+x,1/2-y,1/2-z
1/2-x,1/2+y,1/2-z
loop_
_atom_site_type_symbol
_atom_site_label
_atom_site_fract_x
_atom_site_fract_y
_atom_site_fract_z
Si Si1 0.210973 0.266978 0.852795
Si Si2 0.259752 0.746826 0.346636
Si Si3 0.953277 0.886105 0.227584
Si Si4 0.654657 0.483698 0.394510
Si Si5 0.657964 0.024038 0.398142
Si Si6 0.529373 0.863596 0.599867
Si Si7 0.057116 0.855157 0.549956
Si Si8 0.314235 0.659946 0.005069
O O1 0.241735 0.289675 0.755448
O O2 0.159648 0.376576 0.858437
O O3 0.262516 0.292450 0.926993
O O4 0.183468 0.122261 0.864573
O O5 0.296285 0.630372 0.394842
O O6 0.300118 0.877335 0.344061
O O7 0.203316 0.783522 0.405617
O O8 0.893486 0.934829 0.179038
O O9 0.973102 0.754142 0.173275
O O10 0.949359 0.866369 0.338762
O O11 0.000000 0.000000 0.210757
O O12 0.631248 0.500000 0.500000
O O13 0.596809 0.096303 0.412079
O O14 0.683229 0.000000 0.500000
O O15 0.500000 0.830546 0.500000
O O16 0.500000 0.000000 0.632912
O O17 0.120997 0.794219 0.532851
O O18 0.000000 0.792158 0.500000
O O19 0.060124 0.000000 0.500000
O O20 0.314508 0.500000 0.000000
#
# Coordination Sequence:
#
# PCOD9331588 Si02
#       8
#     8   8   8   8   8   8   8   8
#     4  12  25  39  68  98 133 177 226 272 341 409
#     4  12  23  42  63  99 131 174 223 277 334 400
#     4  12  27  42  70 102 134 181 230 286 346 403
#     4  12  26  41  62 102 150 169 213 292 350 397
#     4  12  21  45  66  89 132 183 223 269 327 402
#     4  11  26  44  68  97 138 184 234 273 334 420
#     4  10  22  46  70  97 130 175 233 288 331 405
#     4  11  22  40  68  92 126 178 226 267 329 408
#
# _framework density 19.148733
#
# number of rings (size 3 to 8) (size 9 to 14) (size 15 to 20)
#    0.000    0.500    7.500    1.500    7.000    0.000 
#    0.000    0.000    0.000    0.375    0.000    0.000 
#    0.000    0.000    0.000    0.000    0.000    0.000 
#
# Total GULP energy -178628.466428 kJ/mol
# GULP energy per Si atom -5582.139576 kJ/mol
# Density = 1.910515 g / cm^3
# Si number density = 19.148733 Si / 1000 Ang^3
#
#
#
# Elastic Constant Matrix: (Units=GPa)
#
#
# Indices 1 2 3 4 5 6 
#
# 1 111.3265 31.2248 37.6352 0.0000 0.0000 0.0000
# 2 31.2248 103.9413 22.0341 0.0000 0.0000 0.0000
# 3 37.6352 22.0341 86.2077 0.0000 0.0000 0.0000
# 4 0.0000 0.0000 0.0000 21.9786 0.0000 0.0000
# 5 0.0000 0.0000 0.0000 0.0000 23.8392 0.0000
# 6 0.0000 0.0000 0.0000 0.0000 0.0000 -174.1871
#
#
#
# Elastic Compliance Matrix: (Units=1/GPa)
#
#
# Indices 1 2 3 4 5 6 
#
# 1 0.011093 -0.002438 -0.004220 0.000000 0.000000 0.000000
# 2 -0.002438 0.010708 -0.001673 0.000000 0.000000 0.000000
# 3 -0.004220 -0.001673 0.013870 0.000000 0.000000 0.000000
# 4 0.000000 0.000000 0.000000 0.045499 0.000000 0.000000
# 5 0.000000 0.000000 0.000000 0.000000 0.041948 0.000000
# 6 0.000000 0.000000 0.000000 0.000000 0.000000 -0.005741
#
#
# Mechanical properties :
#
#
# Convention : Reuss Voigt Hill
#
# Bulk Modulus (GPa) = 52.60386 53.69596 53.14991
# Shear Modulus (GPa) = 35.61949 -11.63511 11.99219
#
# Velocity S-wave (km/s) = 4.31762 -2.46766 2.50524
# Velocity P-wave (km/s) = 7.23786 4.47026 6.01539
#
# Compressibility (1/GPa) = 0.01901001
#
# Stress axis : x y z
#
# Youngs Moduli (GPa) = 90.14810 93.39047 72.10051
#
# Poissons Ratio (x) = 0.22767 0.30424
# Poissons Ratio (y) = 0.21977 0.12059
# Poissons Ratio (z) = 0.38039 0.15620
#
# Static dielectric constant tensor:
#      x y z
#    x 1.737200 0.000000 0.000000 
#    y 0.000000 1.669000 0.000000 
#    z 0.000000 0.000000 1.653410 
# 
# From -- ./inp_files/22603.got.cif
#   From: 2010.05.17/outbox.cif.g08.bks.cpg/sg23_12_cif.got.tgz:22603.got - 2010.06.04 12:02:01.
