data_PCOD9331330
_publ_section_title
;
Structure prediction by ZEFSAII (Michael W. Deem and Ramdas Pophale) SiO2 
 PCOD9331330
Probable space group: I 2 2 2
;
_chemical_formula_sum "Si O2"
_cell_formula_units_Z 34
_cell_length_a 4.922514
_cell_length_b 29.673593
_cell_length_c 9.163738
_cell_angle_alpha 90.000000
_cell_angle_beta 90.000000
_cell_angle_gamma 90.000000
_cell_volume 1338.535086
_symmetry_space_group_name_H-M "I 2 2 2"
_symmetry_group_IT_number 23
_symmetry_cell_setting 'orthorhombic'
loop_
_space_group_symop_operation_xyz
x,y,z
-x,-y,z
x,-y,-z
-x,y,-z
1/2+x,1/2+y,1/2+z
1/2-x,1/2-y,1/2+z
1/2+x,1/2-y,1/2-z
1/2-x,1/2+y,1/2-z
loop_
_atom_site_type_symbol
_atom_site_label
_atom_site_fract_x
_atom_site_fract_y
_atom_site_fract_z
Si Si1 0.500000 0.150538 0.000000
Si Si2 0.703771 0.460448 0.777392
Si Si3 0.500000 0.832441 0.500000
Si Si4 0.000000 0.000000 0.000000
Si Si5 0.327990 0.218380 0.753912
Si Si6 0.285314 0.097715 0.272305
O O1 0.331325 0.183776 0.890595
O O2 0.662948 0.118039 0.888586
O O3 0.500000 0.500000 0.839165
O O4 0.687896 0.471562 0.606078
O O5 0.522158 0.416534 0.797393
O O6 0.012686 0.445397 0.806619
O O7 0.712442 0.805263 0.598466
O O8 0.644536 0.863738 0.383591
O O9 0.622632 0.240641 0.734869
#
# Coordination Sequence:
#
# PCOD9331330 Si02
#       6
#     4   8   4   2   8   8
#     4  10  24  38  65  92 120 160 206 254 309 372
#     4  10  22  38  63  92 120 168 210 261 301 366
#     4  10  26  42  65  95 132 168 198 264 324 370
#     4   8  20  34  64  86 120 150 224 248 306 334
#     4  11  24  43  66  92 123 163 208 252 308 379
#     4  11  23  41  61  93 129 161 209 258 317 365
#
# _framework density 25.400903
#
# number of rings (size 3 to 8) (size 9 to 14) (size 15 to 20)
#    0.706    0.941    0.000    3.529    0.000   13.176 
#    0.000    3.529    0.000    0.000    0.000    0.000 
#    0.000    0.000    0.000    0.000    0.000    0.000 
#
# Total GULP energy -95005.194380 kJ/mol
# GULP energy per Si atom -5588.540846 kJ/mol
# Density = 2.534309 g / cm^3
# Si number density = 25.400903 Si / 1000 Ang^3
#
#
#
# Elastic Constant Matrix: (Units=GPa)
#
#
# Indices 1 2 3 4 5 6 
#
# 1 76.7400 0.3419 9.6942 0.0000 0.0002 0.0000
# 2 0.3419 73.1966 30.0096 0.0001 0.0003 0.0000
# 3 9.6942 30.0096 137.0103 0.0000 0.0011 0.0000
# 4 0.0000 0.0001 0.0000 4.9805 0.0003 0.0001
# 5 0.0002 0.0003 0.0011 0.0003 -38.8749 0.0001
# 6 0.0000 0.0000 0.0000 0.0001 0.0001 10.5693
#
#
#
# Elastic Compliance Matrix: (Units=1/GPa)
#
#
# Indices 1 2 3 4 5 6 
#
# 1 0.013157 0.000352 -0.001008 0.000000 0.000000 0.000000
# 2 0.000352 0.015019 -0.003315 0.000000 0.000000 0.000000
# 3 -0.001008 -0.003315 0.008096 0.000000 0.000000 0.000000
# 4 0.000000 0.000000 0.000000 0.200784 0.000002 -0.000001
# 5 0.000000 0.000000 0.000000 0.000002 -0.025724 0.000000
# 6 0.000000 0.000000 0.000000 -0.000001 0.000000 0.094614
#
#
# Mechanical properties :
#
#
# Convention : Reuss Voigt Hill
#
# Bulk Modulus (GPa) = 35.29768 40.78204 38.03986
# Shear Modulus (GPa) = 15.46405 11.79505 13.62955
#
# Velocity S-wave (km/s) = 2.47006 2.15723 2.31893
# Velocity P-wave (km/s) = 4.69695 4.72176 4.70937
#
# Compressibility (1/GPa) = 0.02833047
#
# Stress axis : x y z
#
# Youngs Moduli (GPa) = 76.00645 66.58182 123.51725
#
# Poissons Ratio (x) = -0.02342 0.12450
# Poissons Ratio (y) = -0.02674 0.40941
# Poissons Ratio (z) = 0.07661 0.22069
#
# Static dielectric constant tensor:
#      x y z
#    x 1.934910 -0.000010 0.000000 
#    y -0.000010 3.734020 0.000000 
#    z 0.000000 0.000000 2.020900 
# 
# From -- ./inp_files/5813.got.cif
#   From: 2010.05.17/outbox.cif.g08.bks.cpg/sg23_3_cif.got.tgz:5813.got - 2010.06.04 12:02:01.
