data_PCOD9331470
_publ_section_title
;
Structure prediction by ZEFSAII (Michael W. Deem and Ramdas Pophale) SiO2 
 PCOD9331470
Probable space group: I 2 2 2
;
_chemical_formula_sum "Si O2"
_cell_formula_units_Z 30
_cell_length_a 20.436062
_cell_length_b 8.266314
_cell_length_c 8.206086
_cell_angle_alpha 90.000000
_cell_angle_beta 90.000000
_cell_angle_gamma 90.000000
_cell_volume 1386.261538
_symmetry_space_group_name_H-M "I 2 2 2"
_symmetry_group_IT_number 23
_symmetry_cell_setting 'orthorhombic'
loop_
_space_group_symop_operation_xyz
x,y,z
-x,-y,z
x,-y,-z
-x,y,-z
1/2+x,1/2+y,1/2+z
1/2-x,1/2-y,1/2+z
1/2+x,1/2-y,1/2-z
1/2-x,1/2+y,1/2-z
loop_
_atom_site_type_symbol
_atom_site_label
_atom_site_fract_x
_atom_site_fract_y
_atom_site_fract_z
Si Si1 0.000000 0.000000 0.500000
Si Si2 0.283715 0.410305 0.764828
Si Si3 0.167567 0.686193 0.018100
Si Si4 0.615431 0.689371 0.158586
Si Si5 0.678430 0.000000 0.000000
O O1 0.047477 0.112781 0.605842
O O2 0.240076 0.322400 0.900643
O O3 0.324188 0.292049 0.644525
O O4 0.330726 0.546195 0.836467
O O5 0.227785 0.494052 0.653457
O O6 0.119008 0.755798 0.153467
O O7 0.148778 0.500000 0.000000
O O8 0.635266 0.839379 0.039588
#
# Coordination Sequence:
#
# PCOD9331470 Si02
#       5
#     2   8   8   8   4
#     4  12  32  50  66  92 136 214 242 290 336 434
#     4  11  23  40  71 114 150 176 223 303 374 426
#     4  11  23  39  71 113 146 178 223 300 376 430
#     4  11  26  43  70  98 149 188 245 281 354 437
#     4  10  22  41  72 111 134 174 222 308 366 420
#
# _framework density 21.640937999999998
#
# number of rings (size 3 to 8) (size 9 to 14) (size 15 to 20)
#    0.000    1.067    2.667    3.200   13.067    0.533 
#    0.000    2.667    0.000    4.800    0.000    0.000 
#    0.000    0.000    0.000    0.000    0.000    0.000 
#
# Total GULP energy -83853.330350 kJ/mol
# GULP energy per Si atom -5590.222023 kJ/mol
# Density = 2.159168 g / cm^3
# Si number density = 21.640938 Si / 1000 Ang^3
#
#
#
# Elastic Constant Matrix: (Units=GPa)
#
#
# Indices 1 2 3 4 5 6 
#
# 1 127.4623 65.2849 42.6208 0.0000 0.0000 0.0000
# 2 65.2849 172.0164 61.1827 0.0000 0.0000 0.0000
# 3 42.6208 61.1827 107.6474 0.0000 0.0000 0.0000
# 4 0.0000 0.0000 0.0000 61.0647 0.0000 0.0000
# 5 0.0000 0.0000 0.0000 0.0000 26.6333 0.0000
# 6 0.0000 0.0000 0.0000 0.0000 0.0000 30.9231
#
#
#
# Elastic Compliance Matrix: (Units=1/GPa)
#
#
# Indices 1 2 3 4 5 6 
#
# 1 0.010173 -0.003044 -0.002298 0.000000 0.000000 0.000000
# 2 -0.003044 0.008197 -0.003454 0.000000 0.000000 0.000000
# 3 -0.002298 -0.003454 0.012162 0.000000 0.000000 0.000000
# 4 0.000000 0.000000 0.000000 0.016376 0.000000 0.000000
# 5 0.000000 0.000000 0.000000 0.000000 0.037547 0.000000
# 6 0.000000 0.000000 0.000000 0.000000 0.000000 0.032338
#
#
# Mechanical properties :
#
#
# Convention : Reuss Voigt Hill
#
# Bulk Modulus (GPa) = 77.26983 82.81142 80.04063
# Shear Modulus (GPa) = 36.04966 39.59340 37.82153
#
# Velocity S-wave (km/s) = 4.08586 4.28198 4.18507
# Velocity P-wave (km/s) = 7.61852 7.92441 7.77297
#
# Compressibility (1/GPa) = 0.01294166
#
# Stress axis : x y z
#
# Youngs Moduli (GPa) = 98.30267 121.99667 82.22075
#
# Poissons Ratio (x) = 0.37130 0.18893
# Poissons Ratio (y) = 0.29919 0.28398
# Poissons Ratio (z) = 0.22588 0.42135
#
# Static dielectric constant tensor:
#      x y z
#    x 1.728840 0.000000 0.000000 
#    y 0.000000 1.935980 0.000000 
#    z 0.000000 0.000000 1.905450 
# 
# From -- ./inp_files/6627.got.cif
#   From: 2010.05.17/outbox.cif.g08.bks.cpg/sg23_4_cif.got.tgz:6627.got - 2010.06.04 12:02:01.
