data_PCOD9331136
_publ_section_title
;
Structure prediction by ZEFSAII (Michael W. Deem and Ramdas Pophale) SiO2 
 PCOD9331136
Probable space group: I 2 2 2
;
_chemical_formula_sum "Si O2"
_cell_formula_units_Z 56
_cell_length_a 13.417305
_cell_length_b 12.526083
_cell_length_c 13.673377
_cell_angle_alpha 90.000000
_cell_angle_beta 90.000000
_cell_angle_gamma 90.000000
_cell_volume 2298.033554
_symmetry_space_group_name_H-M "I 2 2 2"
_symmetry_group_IT_number 23
_symmetry_cell_setting 'orthorhombic'
loop_
_space_group_symop_operation_xyz
x,y,z
-x,-y,z
x,-y,-z
-x,y,-z
1/2+x,1/2+y,1/2+z
1/2-x,1/2-y,1/2+z
1/2+x,1/2-y,1/2-z
1/2-x,1/2+y,1/2-z
loop_
_atom_site_type_symbol
_atom_site_label
_atom_site_fract_x
_atom_site_fract_y
_atom_site_fract_z
Si Si1 0.658429 0.334544 0.895530
Si Si2 0.714364 0.096264 0.129226
Si Si3 0.525837 0.617073 0.775895
Si Si4 0.733797 0.663203 0.878344
Si Si5 0.743230 0.870596 0.088835
Si Si6 0.444630 0.235774 0.599879
Si Si7 0.653135 0.037290 0.322990
O O1 0.547973 0.369540 0.868380
O O2 0.669444 0.211820 0.859476
O O3 0.737966 0.407455 0.838689
O O4 0.693020 0.344665 0.009362
O O5 0.757568 0.213775 0.147822
O O6 0.631727 0.063909 0.209066
O O7 0.774871 0.985135 0.130079
O O8 0.689864 0.109175 0.015018
O O9 0.500000 0.500000 0.735833
O O10 0.639019 0.631663 0.812012
O O11 0.508166 0.706276 0.693414
O O12 0.824989 0.582528 0.857787
O O13 0.840990 0.798691 0.082612
O O14 0.500000 0.250503 0.500000
O O15 0.421844 0.111294 0.617754
#
# Coordination Sequence:
#
# PCOD9331136 Si02
#       7
#     8   8   8   8   8   8   8
#     4  10  23  39  67 100 137 183 236 298 368 422
#     4  10  21  40  70  98 136 181 248 285 350 439
#     4  12  24  40  68 107 142 186 243 309 369 423
#     4  11  22  42  68 103 141 182 236 305 354 441
#     4   9  22  43  69 102 135 192 241 297 355 435
#     4  11  26  45  66 105 148 187 241 298 363 434
#     4  11  22  40  68 101 139 189 238 284 364 437
#
# _framework density 24.368660999999999
#
# number of rings (size 3 to 8) (size 9 to 14) (size 15 to 20)
#    0.000    1.429    2.857    1.714    4.000    2.000 
#    0.000    2.143    0.000   30.000    0.000    0.000 
#    0.000    0.000    0.000    0.000    0.000    0.000 
#
# Total GULP energy -156292.671221 kJ/mol
# GULP energy per Si atom -5581.881115 kJ/mol
# Density = 2.431320 g / cm^3
# Si number density = 24.368661 Si / 1000 Ang^3
#
#
#
# Elastic Constant Matrix: (Units=GPa)
#
#
# Indices 1 2 3 4 5 6 
#
# 1 52.9392 20.9301 13.4324 0.0000 0.0000 0.0000
# 2 20.9301 208.6677 23.1944 0.0000 0.0000 0.0000
# 3 13.4324 23.1944 131.8836 0.0000 0.0000 0.0000
# 4 0.0000 0.0000 0.0000 27.8472 0.0000 0.0000
# 5 0.0000 0.0000 0.0000 0.0000 18.6607 0.0000
# 6 0.0000 0.0000 0.0000 0.0000 0.0000 14.1452
#
#
#
# Elastic Compliance Matrix: (Units=1/GPa)
#
#
# Indices 1 2 3 4 5 6 
#
# 1 0.020046 -0.001819 -0.001722 0.000000 0.000000 0.000000
# 2 -0.001819 0.005053 -0.000703 0.000000 0.000000 0.000000
# 3 -0.001722 -0.000703 0.007882 0.000000 0.000000 0.000000
# 4 0.000000 0.000000 0.000000 0.035910 0.000000 0.000000
# 5 0.000000 0.000000 0.000000 0.000000 0.053588 0.000000
# 6 0.000000 0.000000 0.000000 0.000000 0.000000 0.070695
#
#
# Mechanical properties :
#
#
# Convention : Reuss Voigt Hill
#
# Bulk Modulus (GPa) = 40.83050 56.51156 48.67103
# Shear Modulus (GPa) = 23.82919 34.52620 29.17770
#
# Velocity S-wave (km/s) = 3.13047 3.76816 3.46402
# Velocity P-wave (km/s) = 5.46426 6.49405 6.00128
#
# Compressibility (1/GPa) = 0.02449149
#
# Stress axis : x y z
#
# Youngs Moduli (GPa) = 49.88593 197.90331 126.87932
#
# Poissons Ratio (x) = 0.36004 0.21845
# Poissons Ratio (y) = 0.09076 0.08924
# Poissons Ratio (z) = 0.08589 0.13920
#
# Static dielectric constant tensor:
#      x y z
#    x 1.924790 0.000000 0.000000 
#    y 0.000000 1.987440 0.000000 
#    z 0.000000 0.000000 2.060910 
# 
# From -- ./inp_files/21616.got.cif
#   From: 2010.05.17/outbox.cif.g08.bks.cpg/sg23_11_cif.got.tgz:21616.got - 2010.06.04 12:02:01.
