data_PCOD9331542
_publ_section_title
;
Structure prediction by ZEFSAII (Michael W. Deem and Ramdas Pophale) SiO2 
 PCOD9331542
Probable space group: I 2 2 2
;
_chemical_formula_sum "Si O2"
_cell_formula_units_Z 48
_cell_length_a 8.283200
_cell_length_b 8.271122
_cell_length_c 31.472602
_cell_angle_alpha 90.000000
_cell_angle_beta 90.000000
_cell_angle_gamma 90.000000
_cell_volume 2156.230695
_symmetry_space_group_name_H-M "I 2 2 2"
_symmetry_group_IT_number 23
_symmetry_cell_setting 'orthorhombic'
loop_
_space_group_symop_operation_xyz
x,y,z
-x,-y,z
x,-y,-z
-x,y,-z
1/2+x,1/2+y,1/2+z
1/2-x,1/2-y,1/2+z
1/2+x,1/2-y,1/2-z
1/2-x,1/2+y,1/2-z
loop_
_atom_site_type_symbol
_atom_site_label
_atom_site_fract_x
_atom_site_fract_y
_atom_site_fract_z
Si Si1 0.632537 0.878096 0.117738
Si Si2 0.706599 0.650079 0.227823
Si Si3 0.208744 0.203445 0.891404
Si Si4 0.052455 0.818314 0.548578
Si Si5 0.592675 0.826474 0.654412
Si Si6 0.640005 0.713753 0.803194
O O1 0.541498 0.810573 0.077027
O O2 0.730071 0.722757 0.135968
O O3 0.500000 0.000000 0.141226
O O4 0.760771 0.013921 0.105516
O O5 0.866810 0.713596 0.203407
O O6 0.686516 0.465213 0.213215
O O7 0.544787 0.738112 0.211394
O O8 0.743087 0.666443 0.277444
O O9 0.263976 0.290237 0.934954
O O10 0.322155 0.278184 0.853186
O O11 0.031693 0.228305 0.873733
O O12 0.000000 0.793859 0.500000
O O13 0.000000 0.000000 0.559582
O O14 0.500000 0.000000 0.653937
#
# Coordination Sequence:
#
# PCOD9331542 Si02
#       6
#     8   8   8   8   8   8
#     4  10  23  41  67 100 135 180 229 295 360 436
#     4  11  25  42  63  93 133 190 238 303 354 438
#     4  11  23  40  67 101 136 183 234 296 363 432
#     4  10  22  43  72 104 140 185 238 289 361 451
#     4  12  23  42  67  97 141 189 240 300 362 436
#     4  11  25  43  65  96 137 185 242 297 369 431
#
# _framework density 22.261067000000001
#
# number of rings (size 3 to 8) (size 9 to 14) (size 15 to 20)
#    0.000    1.167    1.667    4.500    4.667    3.000 
#    0.000    0.833    0.000    7.000    0.000    0.000 
#    0.000    0.000    0.000    0.000    0.000    0.000 
#
# Total GULP energy -133668.809236 kJ/mol
# GULP energy per Si atom -5569.533718 kJ/mol
# Density = 2.221040 g / cm^3
# Si number density = 22.261067 Si / 1000 Ang^3
#
#
#
# Elastic Constant Matrix: (Units=GPa)
#
#
# Indices 1 2 3 4 5 6 
#
# 1 128.4863 29.0288 38.9598 0.0000 0.0000 0.0000
# 2 29.0288 62.3497 33.9212 0.0000 0.0000 0.0000
# 3 38.9598 33.9212 102.2742 0.0000 0.0000 0.0000
# 4 0.0000 0.0000 0.0000 27.8174 0.0000 0.0000
# 5 0.0000 0.0000 0.0000 0.0000 4.3770 0.0000
# 6 0.0000 0.0000 0.0000 0.0000 0.0000 39.5859
#
#
#
# Elastic Compliance Matrix: (Units=1/GPa)
#
#
# Indices 1 2 3 4 5 6 
#
# 1 0.009211 -0.002903 -0.002546 0.000000 0.000000 0.000000
# 2 -0.002903 0.020485 -0.005688 0.000000 0.000000 0.000000
# 3 -0.002546 -0.005688 0.012634 0.000000 0.000000 0.000000
# 4 0.000000 0.000000 0.000000 0.035949 0.000000 0.000000
# 5 0.000000 0.000000 0.000000 0.000000 0.228469 0.000000
# 6 0.000000 0.000000 0.000000 0.000000 0.000000 0.025262
#
#
# Mechanical properties :
#
#
# Convention : Reuss Voigt Hill
#
# Bulk Modulus (GPa) = 49.86266 55.21442 52.53854
# Shear Modulus (GPa) = 13.85162 27.10273 20.47718
#
# Velocity S-wave (km/s) = 2.49717 3.49305 3.03622
# Velocity P-wave (km/s) = 5.54636 6.41292 5.99532
#
# Compressibility (1/GPa) = 0.02005509
#
# Stress axis : x y z
#
# Youngs Moduli (GPa) = 108.56807 48.81621 79.15127
#
# Poissons Ratio (x) = 0.14173 0.20150
# Poissons Ratio (y) = 0.31521 0.45023
# Poissons Ratio (z) = 0.27639 0.27768
#
# Static dielectric constant tensor:
#      x y z
#    x 1.960480 0.000000 0.000000 
#    y 0.000000 1.878900 0.000000 
#    z 0.000000 0.000000 1.820820 
# 
# From -- ./inp_files/30242.got.cif
#   From: 2010.05.17/outbox.cif.g08.bks.cpg/sg23_16_cif.got.tgz:30242.got - 2010.06.04 12:02:01.
