data_PCOD9331686
_publ_section_title
;
Structure prediction by ZEFSAII (Michael W. Deem and Ramdas Pophale) SiO2 
 PCOD9331686
Probable space group: I 2 2 2
;
_chemical_formula_sum "Si O2"
_cell_formula_units_Z 64
_cell_length_a 10.617432
_cell_length_b 9.499515
_cell_length_c 30.634464
_cell_angle_alpha 90.000000
_cell_angle_beta 90.000000
_cell_angle_gamma 90.000000
_cell_volume 3089.805964
_symmetry_space_group_name_H-M "I 2 2 2"
_symmetry_group_IT_number 23
_symmetry_cell_setting 'orthorhombic'
loop_
_space_group_symop_operation_xyz
x,y,z
-x,-y,z
x,-y,-z
-x,y,-z
1/2+x,1/2+y,1/2+z
1/2-x,1/2-y,1/2+z
1/2+x,1/2-y,1/2-z
1/2-x,1/2+y,1/2-z
loop_
_atom_site_type_symbol
_atom_site_label
_atom_site_fract_x
_atom_site_fract_y
_atom_site_fract_z
Si Si1 0.217627 0.749679 0.144652
Si Si2 0.235435 0.768900 0.352147
Si Si3 0.820352 0.134307 0.557923
Si Si4 0.150570 0.510199 0.205923
Si Si5 0.688226 0.666569 0.510398
Si Si6 0.470709 0.334875 0.591506
Si Si7 0.890574 0.182599 0.438384
Si Si8 0.849544 0.500225 0.305923
O O1 0.299293 0.665927 0.108965
O O2 0.191810 0.662363 0.188543
O O3 0.284611 0.892476 0.160281
O O4 0.087821 0.771088 0.117885
O O5 0.286221 0.904171 0.327738
O O6 0.349218 0.702368 0.379921
O O7 0.125345 0.802123 0.386488
O O8 0.193737 0.655536 0.317343
O O9 0.722149 0.230514 0.530337
O O10 0.964486 0.177481 0.548163
O O11 0.820437 0.965727 0.550012
O O12 0.185074 0.472849 0.255519
O O13 0.000000 0.500000 0.202516
O O14 0.675855 0.500000 0.500000
O O15 0.571674 0.708402 0.542301
O O16 0.813786 0.691722 0.539467
O O17 0.500000 0.500000 0.589161
O O18 0.000000 0.500000 0.310250
#
# Coordination Sequence:
#
# PCOD9331686 Si02
#       8
#     8   8   8   8   8   8   8   8
#     4  12  23  42  70  98 132 183 223 275 349 408
#     4  11  21  43  67  93 136 174 227 279 336 411
#     4  11  23  41  66  94 134 173 223 276 331 408
#     4  11  23  42  67 100 137 174 230 288 344 407
#     4  11  25  42  65  99 129 170 220 283 331 399
#     4  11  23  42  69  94 132 178 220 273 350 410
#     4  10  23  42  65  92 132 179 218 271 337 400
#     4  11  25  42  66 100 137 178 229 286 339 412
#
# _framework density 20.713276
#
# number of rings (size 3 to 8) (size 9 to 14) (size 15 to 20)
#    0.000    1.000    3.750    3.000    1.750    3.750 
#    0.000    0.000    2.750    3.000    0.000    0.000 
#    0.000    0.000    0.000    0.000    0.000    0.000 
#
# Total GULP energy -178697.164290 kJ/mol
# GULP energy per Si atom -5584.286384 kJ/mol
# Density = 2.066613 g / cm^3
# Si number density = 20.713276 Si / 1000 Ang^3
#
#
#
# Elastic Constant Matrix: (Units=GPa)
#
#
# Indices 1 2 3 4 5 6 
#
# 1 82.9377 22.8999 34.3597 0.0000 0.0000 0.0000
# 2 22.8999 71.0677 15.4728 0.0000 0.0000 0.0000
# 3 34.3597 15.4728 106.8620 0.0000 0.0000 0.0000
# 4 0.0000 0.0000 0.0000 62.2738 0.0000 0.0000
# 5 0.0000 0.0000 0.0000 0.0000 15.7357 0.0000
# 6 0.0000 0.0000 0.0000 0.0000 0.0000 20.4816
#
#
#
# Elastic Compliance Matrix: (Units=1/GPa)
#
#
# Indices 1 2 3 4 5 6 
#
# 1 0.014876 -0.003874 -0.004222 0.000000 0.000000 0.000000
# 2 -0.003874 0.015538 -0.001004 0.000000 0.000000 0.000000
# 3 -0.004222 -0.001004 0.010861 0.000000 0.000000 0.000000
# 4 0.000000 0.000000 0.000000 0.016058 0.000000 0.000000
# 5 0.000000 0.000000 0.000000 0.000000 0.063550 0.000000
# 6 0.000000 0.000000 0.000000 0.000000 0.000000 0.048824
#
#
# Mechanical properties :
#
#
# Convention : Reuss Voigt Hill
#
# Bulk Modulus (GPa) = 43.33888 45.14802 44.24345
# Shear Modulus (GPa) = 25.56239 32.24054 28.90147
#
# Velocity S-wave (km/s) = 3.51680 3.94955 3.73944
# Velocity P-wave (km/s) = 6.12039 6.53013 6.32857
#
# Compressibility (1/GPa) = 0.02307397
#
# Stress axis : x y z
#
# Youngs Moduli (GPa) = 67.22172 64.35800 92.07395
#
# Poissons Ratio (x) = 0.24934 0.38876
# Poissons Ratio (y) = 0.26043 0.09245
# Poissons Ratio (z) = 0.28383 0.06462
#
# Static dielectric constant tensor:
#      x y z
#    x 1.711150 0.000000 0.000000 
#    y 0.000000 1.780110 0.000000 
#    z 0.000000 0.000000 1.760980 
# 
# From -- ./inp_files/30490.got.cif
#   From: 2010.05.17/outbox.cif.g08.bks.cpg/sg23_16_cif.got.tgz:30490.got - 2010.06.04 12:02:01.
