data_PCOD9331154
_publ_section_title
;
Structure prediction by ZEFSAII (Michael W. Deem and Ramdas Pophale) SiO2 
 PCOD9331154
Probable space group: I 2 2 2
;
_chemical_formula_sum "Si O2"
_cell_formula_units_Z 32
_cell_length_a 18.280553
_cell_length_b 13.940814
_cell_length_c 5.373584
_cell_angle_alpha 90.000000
_cell_angle_beta 90.000000
_cell_angle_gamma 90.000000
_cell_volume 1369.435255
_symmetry_space_group_name_H-M "I 2 2 2"
_symmetry_group_IT_number 23
_symmetry_cell_setting 'orthorhombic'
loop_
_space_group_symop_operation_xyz
x,y,z
-x,-y,z
x,-y,-z
-x,y,-z
1/2+x,1/2+y,1/2+z
1/2-x,1/2-y,1/2+z
1/2+x,1/2-y,1/2-z
1/2-x,1/2+y,1/2-z
loop_
_atom_site_type_symbol
_atom_site_label
_atom_site_fract_x
_atom_site_fract_y
_atom_site_fract_z
Si Si1 0.583406 0.040451 0.254245
Si Si2 0.582135 0.250988 0.085769
Si Si3 0.837100 0.059549 0.754086
Si Si4 0.218495 0.297393 0.718640
O O1 0.582778 0.154856 0.251209
O O2 0.500000 0.000000 0.254090
O O3 0.619758 0.000000 0.500000
O O4 0.615713 0.000000 0.000000
O O5 0.614567 0.344446 0.218126
O O6 0.500000 0.268561 0.000000
O O7 0.634789 0.222100 0.853880
O O8 0.754196 0.097832 0.780838
O O9 0.844754 0.000000 0.500000
O O10 0.857029 0.000000 0.000000
O O11 0.260218 0.246325 0.485400
#
# Coordination Sequence:
#
# PCOD9331154 Si02
#       4
#     8   8   8   8
#     4  10  21  41  63 100 145 176 225 288 375 433
#     4  11  24  48  79 111 150 188 244 319 373 435
#     4  11  25  49  74 107 151 204 252 288 358 454
#     4  10  23  47  72 101 140 198 247 295 359 426
#
# _framework density 23.367296
#
# number of rings (size 3 to 8) (size 9 to 14) (size 15 to 20)
#    0.000    1.500    2.500    3.000    0.000    7.500 
#    0.000   12.500    0.000    0.000    0.000    0.000 
#    0.000    0.000    0.000    0.000    0.000    0.000 
#
# Total GULP energy -89519.835160 kJ/mol
# GULP energy per Si atom -5594.989697 kJ/mol
# Density = 2.331411 g / cm^3
# Si number density = 23.367296 Si / 1000 Ang^3
#
#
#
# Elastic Constant Matrix: (Units=GPa)
#
#
# Indices 1 2 3 4 5 6 
#
# 1 156.6615 58.3252 32.6333 0.0000 0.0000 0.0000
# 2 58.3252 206.2683 91.6054 0.0000 0.0000 0.0000
# 3 32.6333 91.6054 155.1324 0.0000 0.0000 0.0000
# 4 0.0000 0.0000 0.0000 12.1013 0.0000 0.0000
# 5 0.0000 0.0000 0.0000 0.0000 8.2988 0.0000
# 6 0.0000 0.0000 0.0000 0.0000 0.0000 18.1823
#
#
#
# Elastic Compliance Matrix: (Units=1/GPa)
#
#
# Indices 1 2 3 4 5 6 
#
# 1 0.007154 -0.001836 -0.000421 0.000000 0.000000 0.000000
# 2 -0.001836 0.007043 -0.003772 0.000000 0.000000 0.000000
# 3 -0.000421 -0.003772 0.008762 0.000000 0.000000 0.000000
# 4 0.000000 0.000000 0.000000 0.082636 0.000000 0.000000
# 5 0.000000 0.000000 0.000000 0.000000 0.120500 0.000000
# 6 0.000000 0.000000 0.000000 0.000000 0.000000 0.054999
#
#
# Mechanical properties :
#
#
# Convention : Reuss Voigt Hill
#
# Bulk Modulus (GPa) = 91.73763 98.13223 94.93493
# Shear Modulus (GPa) = 16.84716 30.08302 23.46509
#
# Velocity S-wave (km/s) = 2.68800 3.59193 3.17233
# Velocity P-wave (km/s) = 6.99843 7.69995 7.35756
#
# Compressibility (1/GPa) = 0.01090065
#
# Stress axis : x y z
#
# Youngs Moduli (GPa) = 139.77343 141.99293 114.12653
#
# Poissons Ratio (x) = 0.26072 0.04802
# Poissons Ratio (y) = 0.25665 0.43053
# Poissons Ratio (z) = 0.05881 0.53565
#
# Static dielectric constant tensor:
#      x y z
#    x 1.968230 0.000000 0.000000 
#    y 0.000000 1.891440 0.000000 
#    z 0.000000 0.000000 1.981410 
# 
# From -- ./inp_files/1358.got.cif
#   From: 2010.05.17/outbox.cif.g08.bks.cpg/sg23_1_cif.got.tgz:1358.got - 2010.06.04 12:02:01.
