data_PCOD9331993
_publ_section_title
;
Structure prediction by ZEFSAII (Michael W. Deem and Ramdas Pophale) SiO2 
 PCOD9331993
Probable space group: I 2 2 2
;
_chemical_formula_sum "Si O2"
_cell_formula_units_Z 34
_cell_length_a 5.847300
_cell_length_b 13.314375
_cell_length_c 18.799276
_cell_angle_alpha 90.000000
_cell_angle_beta 90.000000
_cell_angle_gamma 90.000000
_cell_volume 1463.582759
_symmetry_space_group_name_H-M "I 2 2 2"
_symmetry_group_IT_number 23
_symmetry_cell_setting 'orthorhombic'
loop_
_space_group_symop_operation_xyz
x,y,z
-x,-y,z
x,-y,-z
-x,y,-z
1/2+x,1/2+y,1/2+z
1/2-x,1/2-y,1/2+z
1/2+x,1/2-y,1/2-z
1/2-x,1/2+y,1/2-z
loop_
_atom_site_type_symbol
_atom_site_label
_atom_site_fract_x
_atom_site_fract_y
_atom_site_fract_z
Si Si1 0.000000 0.500000 0.500000
Si Si2 0.649329 0.400105 0.603369
Si Si3 0.241876 0.963470 0.418559
Si Si4 0.021505 0.620302 0.726262
Si Si5 0.830956 0.256455 0.862133
O O1 0.151834 0.571085 0.549568
O O2 0.500000 0.500000 0.607550
O O3 0.748589 0.372677 0.680226
O O4 0.494396 0.305854 0.586308
O O5 0.220460 0.844194 0.408454
O O6 0.500000 0.000000 0.394590
O O7 0.235435 0.000000 0.500000
O O8 0.000000 0.000000 0.383369
O O9 0.045780 0.681190 0.798922
O O10 0.000000 0.500000 0.735231
O O11 0.830114 0.674896 0.677587
#
# Coordination Sequence:
#
# PCOD9331993 Si02
#       5
#     2   8   8   8   8
#     4  12  26  52  76 110 166 204 268 344 396 486
#     4  12  25  49  74 115 155 208 264 329 405 486
#     4  10  25  52  74 111 157 209 265 327 393 484
#     4  12  25  45  74 116 153 203 264 327 398 486
#     4  12  26  45  82 113 157 206 263 329 418 477
#
# _framework density 23.230663
#
# number of rings (size 3 to 8) (size 9 to 14) (size 15 to 20)
#    0.000    0.471    5.882    1.059    3.294    2.824 
#   16.941    0.000    0.000    0.000    0.000    0.000 
#    0.000    0.000    0.000    0.000    0.000    0.000 
#
# Total GULP energy -94940.595450 kJ/mol
# GULP energy per Si atom -5584.740909 kJ/mol
# Density = 2.317779 g / cm^3
# Si number density = 23.230663 Si / 1000 Ang^3
#
#
#
# Elastic Constant Matrix: (Units=GPa)
#
#
# Indices 1 2 3 4 5 6 
#
# 1 129.9728 78.3792 22.2280 0.0000 0.0000 0.0000
# 2 78.3792 220.4814 53.8180 0.0000 0.0000 0.0000
# 3 22.2280 53.8180 92.8919 0.0000 0.0000 0.0000
# 4 0.0000 0.0000 0.0000 -322.1041 0.0000 0.0000
# 5 0.0000 0.0000 0.0000 0.0000 7.7250 0.0000
# 6 0.0000 0.0000 0.0000 0.0000 0.0000 20.2722
#
#
#
# Elastic Compliance Matrix: (Units=1/GPa)
#
#
# Indices 1 2 3 4 5 6 
#
# 1 0.009805 -0.003393 -0.000381 0.000000 0.000000 0.000000
# 2 -0.003393 0.006456 -0.002929 0.000000 0.000000 0.000000
# 3 -0.000381 -0.002929 0.012553 0.000000 0.000000 0.000000
# 4 0.000000 0.000000 0.000000 -0.003105 0.000000 0.000000
# 5 0.000000 0.000000 0.000000 0.000000 0.129450 0.000000
# 6 0.000000 0.000000 0.000000 0.000000 0.000000 0.049329
#
#
# Mechanical properties :
#
#
# Convention : Reuss Voigt Hill
#
# Bulk Modulus (GPa) = 64.89155 83.57741 74.23448
# Shear Modulus (GPa) = 22.41854 -39.56000 -8.57073
#
# Velocity S-wave (km/s) = 3.10988 -4.13112 -1.92287
# Velocity P-wave (km/s) = 6.39448 3.64697 5.20527
#
# Compressibility (1/GPa) = 0.01541033
#
# Stress axis : x y z
#
# Youngs Moduli (GPa) = 101.98943 154.88276 79.66139
#
# Poissons Ratio (x) = 0.52546 0.03032
# Poissons Ratio (y) = 0.34602 0.23331
# Poissons Ratio (z) = 0.03882 0.45362
#
# Static dielectric constant tensor:
#      x y z
#    x 2.268040 0.000000 0.000000 
#    y 0.000000 1.936450 0.000000 
#    z 0.000000 0.000000 1.887420 
# 
# From -- ./inp_files/25604.got.cif
#   From: 2010.05.17/outbox.cif.g08.bks.cpg/sg23_13_cif.got.tgz:25604.got - 2010.06.04 12:02:01.
