data_PCOD9331418
_publ_section_title
;
Structure prediction by ZEFSAII (Michael W. Deem and Ramdas Pophale) SiO2 
 PCOD9331418
Probable space group: I 2 2 2
;
_chemical_formula_sum "Si O2"
_cell_formula_units_Z 56
_cell_length_a 5.206908
_cell_length_b 16.773250
_cell_length_c 30.312745
_cell_angle_alpha 90.000000
_cell_angle_beta 90.000000
_cell_angle_gamma 90.000000
_cell_volume 2647.417226
_symmetry_space_group_name_H-M "I 2 2 2"
_symmetry_group_IT_number 23
_symmetry_cell_setting 'orthorhombic'
loop_
_space_group_symop_operation_xyz
x,y,z
-x,-y,z
x,-y,-z
-x,y,-z
1/2+x,1/2+y,1/2+z
1/2-x,1/2-y,1/2+z
1/2+x,1/2-y,1/2-z
1/2-x,1/2+y,1/2-z
loop_
_atom_site_type_symbol
_atom_site_label
_atom_site_fract_x
_atom_site_fract_y
_atom_site_fract_z
Si Si1 0.928366 0.908168 0.114238
Si Si2 0.590291 0.684809 0.074943
Si Si3 0.286645 0.781059 0.144683
Si Si4 0.767103 0.655524 0.527638
Si Si5 0.661929 0.207879 0.730431
Si Si6 0.402264 0.910543 0.801082
Si Si7 0.932622 0.593125 0.948627
O O1 0.738658 0.889449 0.074400
O O2 0.831726 0.903160 0.164646
O O3 0.124056 0.833658 0.110407
O O4 0.000000 0.000000 0.108169
O O5 0.496383 0.730842 0.118458
O O6 0.656277 0.753732 0.039698
O O7 0.355639 0.625650 0.060762
O O8 0.858621 0.639743 0.080468
O O9 0.145091 0.721067 0.178174
O O10 0.400250 0.849537 0.176283
O O11 0.500000 0.651537 0.500000
O O12 0.000000 0.620324 0.500000
O O13 0.433831 0.259273 0.752009
O O14 0.643697 0.120503 0.751809
O O15 0.500000 0.000000 0.802198
O O16 0.000000 0.500000 0.941838
O O17 0.000000 0.609071 0.000000
#
# Coordination Sequence:
#
# PCOD9331418 Si02
#       7
#     8   8   8   8   8   8   8
#     4  12  24  42  64  97 134 186 234 291 340 404
#     4  12  23  40  68  96 131 174 223 275 336 408
#     4  11  23  40  66 100 136 175 225 277 332 410
#     4  12  26  44  65  96 137 183 236 289 343 401
#     4  10  22  40  66  97 131 168 216 273 331 392
#     4  11  22  41  68  99 135 176 231 276 333 404
#     4  11  24  42  66  95 128 169 222 280 340 403
#
# _framework density 21.15269
#
# number of rings (size 3 to 8) (size 9 to 14) (size 15 to 20)
#    0.000    0.714    4.286    4.714    0.000    1.429 
#    0.000    2.857    0.000    8.571    0.000    0.000 
#    0.000    0.000    0.000    0.000    0.000    0.000 
#
# Total GULP energy -156306.332535 kJ/mol
# GULP energy per Si atom -5582.369019 kJ/mol
# Density = 2.110455 g / cm^3
# Si number density = 21.152690 Si / 1000 Ang^3
#
#
#
# Elastic Constant Matrix: (Units=GPa)
#
#
# Indices 1 2 3 4 5 6 
#
# 1 104.5931 13.5450 7.9722 0.0000 0.0000 0.0000
# 2 13.5450 97.9562 45.0114 0.0000 0.0000 0.0000
# 3 7.9722 45.0114 80.2308 0.0000 0.0000 0.0000
# 4 0.0000 0.0000 0.0000 26.9791 0.0000 0.0000
# 5 0.0000 0.0000 0.0000 0.0000 36.4295 0.0000
# 6 0.0000 0.0000 0.0000 0.0000 0.0000 55.5951
#
#
#
# Elastic Compliance Matrix: (Units=1/GPa)
#
#
# Indices 1 2 3 4 5 6 
#
# 1 0.009740 -0.001215 -0.000286 0.000000 0.000000 0.000000
# 2 -0.001215 0.013906 -0.007681 0.000000 0.000000 0.000000
# 3 -0.000286 -0.007681 0.016802 0.000000 0.000000 0.000000
# 4 0.000000 0.000000 0.000000 0.037066 0.000000 0.000000
# 5 0.000000 0.000000 0.000000 0.000000 0.027450 0.000000
# 6 0.000000 0.000000 0.000000 0.000000 0.000000 0.017987
#
#
# Mechanical properties :
#
#
# Convention : Reuss Voigt Hill
#
# Bulk Modulus (GPa) = 45.28314 46.20412 45.74363
# Shear Modulus (GPa) = 33.63006 38.21753 35.92380
#
# Velocity S-wave (km/s) = 3.99165 4.25519 4.12552
# Velocity P-wave (km/s) = 6.53441 6.78475 6.66076
#
# Compressibility (1/GPa) = 0.02208327
#
# Stress axis : x y z
#
# Youngs Moduli (GPa) = 102.66888 71.91083 59.51811
#
# Poissons Ratio (x) = 0.08740 0.01702
# Poissons Ratio (y) = 0.12479 0.45715
# Poissons Ratio (z) = 0.02936 0.55234
#
# Static dielectric constant tensor:
#      x y z
#    x 1.846800 0.000000 0.000000 
#    y 0.000000 1.778640 0.000000 
#    z 0.000000 0.000000 1.790140 
# 
# From -- ./inp_files/29955.got.cif
#   From: 2010.05.17/outbox.cif.g08.bks.cpg/sg23_15_cif.got.tgz:29955.got - 2010.06.04 12:02:01.
