data_PCOD9331550
_publ_section_title
;
Structure prediction by ZEFSAII (Michael W. Deem and Ramdas Pophale) SiO2 
 PCOD9331550
Probable space group: I 2 2 2
;
_chemical_formula_sum "Si O2"
_cell_formula_units_Z 56
_cell_length_a 13.347791
_cell_length_b 11.905730
_cell_length_c 15.323031
_cell_angle_alpha 90.000000
_cell_angle_beta 90.000000
_cell_angle_gamma 90.000000
_cell_volume 2435.062471
_symmetry_space_group_name_H-M "I 2 2 2"
_symmetry_group_IT_number 23
_symmetry_cell_setting 'orthorhombic'
loop_
_space_group_symop_operation_xyz
x,y,z
-x,-y,z
x,-y,-z
-x,y,-z
1/2+x,1/2+y,1/2+z
1/2-x,1/2-y,1/2+z
1/2+x,1/2-y,1/2-z
1/2-x,1/2+y,1/2-z
loop_
_atom_site_type_symbol
_atom_site_label
_atom_site_fract_x
_atom_site_fract_y
_atom_site_fract_z
Si Si1 0.664376 0.322623 0.217822
Si Si2 0.271509 0.380095 0.043935
Si Si3 0.385528 0.794320 0.715361
Si Si4 0.104043 0.304166 0.443896
Si Si5 0.399292 0.438592 0.208283
Si Si6 0.117190 0.505183 0.329483
Si Si7 0.903197 0.360494 0.842028
O O1 0.774068 0.299829 0.177822
O O2 0.588313 0.270826 0.144897
O O3 0.658470 0.452513 0.242609
O O4 0.641572 0.254845 0.304598
O O5 0.332433 0.387441 0.133397
O O6 0.153972 0.380489 0.068253
O O7 0.294957 0.500000 0.000000
O O8 0.317420 0.272072 0.996720
O O9 0.415899 0.664640 0.727277
O O10 0.476429 0.852631 0.662965
O O11 0.368213 0.863909 0.806502
O O12 0.152459 0.421015 0.406443
O O13 0.000000 0.316849 0.500000
O O14 0.500000 0.500000 0.176394
O O15 0.130555 0.445823 0.235076
O O16 0.000000 0.500000 0.349053
#
# Coordination Sequence:
#
# PCOD9331550 Si02
#       7
#     8   8   8   8   8   8   8
#     4  11  22  41  70 104 138 183 240 293 355 420
#     4  12  25  40  67 104 150 184 235 294 369 431
#     4  11  23  42  74 100 140 183 247 295 342 426
#     4  11  25  42  65 101 146 182 226 297 371 422
#     4  12  23  40  70 107 136 182 233 301 356 416
#     4   9  22  41  66  94 132 185 233 283 349 421
#     4  10  22  44  65 102 141 183 238 293 343 430
#
# _framework density 22.997357000000001
#
# number of rings (size 3 to 8) (size 9 to 14) (size 15 to 20)
#    0.000    1.143    4.286    1.714    6.000    0.286 
#    0.000    0.714    3.143    0.000    0.000    0.000 
#    0.000    0.000    0.000    0.000    0.000    0.000 
#
# Total GULP energy -156119.651417 kJ/mol
# GULP energy per Si atom -5575.701836 kJ/mol
# Density = 2.294501 g / cm^3
# Si number density = 22.997357 Si / 1000 Ang^3
#
#
#
# Elastic Constant Matrix: (Units=GPa)
#
#
# Indices 1 2 3 4 5 6 
#
# 1 109.7297 14.5929 10.0761 0.0000 0.0000 0.0000
# 2 14.5929 139.1516 22.4760 0.0000 0.0000 0.0000
# 3 10.0761 22.4760 35.0040 0.0000 0.0000 0.0000
# 4 0.0000 0.0000 0.0000 30.2300 0.0000 0.0000
# 5 0.0000 0.0000 0.0000 0.0000 32.3492 0.0000
# 6 0.0000 0.0000 0.0000 0.0000 0.0000 22.8223
#
#
#
# Elastic Compliance Matrix: (Units=1/GPa)
#
#
# Indices 1 2 3 4 5 6 
#
# 1 0.009407 -0.000613 -0.002315 0.000000 0.000000 0.000000
# 2 -0.000613 0.008058 -0.004998 0.000000 0.000000 0.000000
# 3 -0.002315 -0.004998 0.032443 0.000000 0.000000 0.000000
# 4 0.000000 0.000000 0.000000 0.033080 0.000000 0.000000
# 5 0.000000 0.000000 0.000000 0.000000 0.030913 0.000000
# 6 0.000000 0.000000 0.000000 0.000000 0.000000 0.043817
#
#
# Mechanical properties :
#
#
# Convention : Reuss Voigt Hill
#
# Bulk Modulus (GPa) = 29.36087 42.01949 35.69018
# Shear Modulus (GPa) = 27.03866 32.86299 29.95083
#
# Velocity S-wave (km/s) = 3.43261 3.78430 3.61274
# Velocity P-wave (km/s) = 5.33903 6.11602 5.74068
#
# Compressibility (1/GPa) = 0.03405893
#
# Stress axis : x y z
#
# Youngs Moduli (GPa) = 106.30021 124.10214 30.82291
#
# Poissons Ratio (x) = 0.07604 0.07134
# Poissons Ratio (y) = 0.06513 0.15404
# Poissons Ratio (z) = 0.24604 0.62021
#
# Static dielectric constant tensor:
#      x y z
#    x 1.956810 0.000000 0.000000 
#    y 0.000000 2.011650 0.000000 
#    z 0.000000 0.000000 1.875040 
# 
# From -- ./inp_files/21617.got.cif
#   From: 2010.05.17/outbox.cif.g08.bks.cpg/sg23_11_cif.got.tgz:21617.got - 2010.06.04 12:02:01.
