data_PCOD9331946
_publ_section_title
;
Structure prediction by ZEFSAII (Michael W. Deem and Ramdas Pophale) SiO2 
 PCOD9331946
Probable space group: I 2 2 2
;
_chemical_formula_sum "Si O2"
_cell_formula_units_Z 64
_cell_length_a 14.755028
_cell_length_b 17.836276
_cell_length_c 11.694037
_cell_angle_alpha 90.000000
_cell_angle_beta 90.000000
_cell_angle_gamma 90.000000
_cell_volume 3077.575285
_symmetry_space_group_name_H-M "I 2 2 2"
_symmetry_group_IT_number 23
_symmetry_cell_setting 'orthorhombic'
loop_
_space_group_symop_operation_xyz
x,y,z
-x,-y,z
x,-y,-z
-x,y,-z
1/2+x,1/2+y,1/2+z
1/2-x,1/2-y,1/2+z
1/2+x,1/2-y,1/2-z
1/2-x,1/2+y,1/2-z
loop_
_atom_site_type_symbol
_atom_site_label
_atom_site_fract_x
_atom_site_fract_y
_atom_site_fract_z
Si Si1 0.021232 0.655968 0.869458
Si Si2 0.281660 0.838562 0.445928
Si Si3 0.018598 0.171023 0.170250
Si Si4 0.728337 0.333406 0.406338
Si Si5 0.454463 0.426653 0.876990
Si Si6 0.157503 0.603176 0.193160
Si Si7 0.645143 0.430869 0.582588
Si Si8 0.714002 0.479422 0.829340
O O1 0.129420 0.652609 0.864461
O O2 0.994814 0.742913 0.850591
O O3 0.950383 0.610488 0.793789
O O4 0.000000 0.633978 0.000000
O O5 0.248816 0.753359 0.430659
O O6 0.311942 0.852031 0.577551
O O7 0.214556 0.902869 0.400825
O O8 0.121675 0.161227 0.127802
O O9 0.024986 0.144960 0.301336
O O10 0.942200 0.120330 0.110584
O O11 0.788858 0.365712 0.303517
O O12 0.724672 0.383156 0.520781
O O13 0.500000 0.500000 0.819051
O O14 0.351726 0.455260 0.877522
O O15 0.500000 0.419139 0.000000
O O16 0.188230 0.518199 0.170819
O O17 0.621286 0.500000 0.500000
O O18 0.682418 0.462163 0.701683
#
# Coordination Sequence:
#
# PCOD9331946 Si02
#       8
#     8   8   8   8   8   8   8   8
#     4   9  21  43  65  92 122 167 218 276 320 383
#     4  10  25  41  66  91 130 171 218 266 335 390
#     4  11  21  39  63  91 130 173 212 261 324 392
#     4  11  24  40  62  99 127 171 216 273 322 402
#     4  11  24  37  57  92 142 170 212 256 327 408
#     4  11  22  41  65  95 130 160 219 279 322 380
#     4  12  23  39  62  95 130 171 217 262 327 395
#     4  12  25  40  63  96 131 177 217 272 327 393
#
# _framework density 20.795593
#
# number of rings (size 3 to 8) (size 9 to 14) (size 15 to 20)
#    0.000    1.125    3.750    3.000    7.000    2.000 
#    0.000    1.875    0.000    0.000    0.000    0.000 
#    0.000    0.000    0.000    0.000    0.000    0.000 
#
# Total GULP energy -178718.321548 kJ/mol
# GULP energy per Si atom -5584.947548 kJ/mol
# Density = 2.074826 g / cm^3
# Si number density = 20.795593 Si / 1000 Ang^3
#
#
#
# Elastic Constant Matrix: (Units=GPa)
#
#
# Indices 1 2 3 4 5 6 
#
# 1 69.9068 20.8869 26.5130 0.0000 0.0000 0.0000
# 2 20.8869 79.9457 34.6617 0.0000 0.0000 0.0000
# 3 26.5130 34.6617 123.2203 0.0000 0.0000 0.0000
# 4 0.0000 0.0000 0.0000 28.8186 0.0000 0.0000
# 5 0.0000 0.0000 0.0000 0.0000 27.3971 0.0000
# 6 0.0000 0.0000 0.0000 0.0000 0.0000 23.0221
#
#
#
# Elastic Compliance Matrix: (Units=1/GPa)
#
#
# Indices 1 2 3 4 5 6 
#
# 1 0.016225 -0.003104 -0.002618 0.000000 0.000000 0.000000
# 2 -0.003104 0.014840 -0.003507 0.000000 0.000000 0.000000
# 3 -0.002618 -0.003507 0.009665 0.000000 0.000000 0.000000
# 4 0.000000 0.000000 0.000000 0.034700 0.000000 0.000000
# 5 0.000000 0.000000 0.000000 0.000000 0.036500 0.000000
# 6 0.000000 0.000000 0.000000 0.000000 0.000000 0.043437
#
#
# Mechanical properties :
#
#
# Convention : Reuss Voigt Hill
#
# Bulk Modulus (GPa) = 44.89715 48.57734 46.73725
# Shear Modulus (GPa) = 27.58652 28.58163 28.08407
#
# Velocity S-wave (km/s) = 3.64614 3.71132 3.67888
# Velocity P-wave (km/s) = 6.27395 6.46339 6.36937
#
# Compressibility (1/GPa) = 0.02227313
#
# Stress axis : x y z
#
# Youngs Moduli (GPa) = 61.63306 67.38655 103.46367
#
# Poissons Ratio (x) = 0.20917 0.27086
# Poissons Ratio (y) = 0.19131 0.36280
# Poissons Ratio (z) = 0.16135 0.23629
#
# Static dielectric constant tensor:
#      x y z
#    x 1.822720 0.000000 0.000000 
#    y 0.000000 1.756160 0.000000 
#    z 0.000000 0.000000 1.760110 
# 
# From -- ./inp_files/16968.got.cif
#   From: 2010.05.17/outbox.cif.g08.bks.cpg/sg23_9_cif.got.tgz:16968.got - 2010.06.04 12:02:01.
