data_PCOD9331117
_publ_section_title
;
Structure prediction by ZEFSAII (Michael W. Deem and Ramdas Pophale) SiO2 
 PCOD9331117
Probable space group: I 2 2 2
;
_chemical_formula_sum "Si O2"
_cell_formula_units_Z 58
_cell_length_a 10.486302
_cell_length_b 10.158121
_cell_length_c 25.515134
_cell_angle_alpha 90.000000
_cell_angle_beta 90.000000
_cell_angle_gamma 90.000000
_cell_volume 2717.900767
_symmetry_space_group_name_H-M "I 2 2 2"
_symmetry_group_IT_number 23
_symmetry_cell_setting 'orthorhombic'
loop_
_space_group_symop_operation_xyz
x,y,z
-x,-y,z
x,-y,-z
-x,y,-z
1/2+x,1/2+y,1/2+z
1/2-x,1/2-y,1/2+z
1/2+x,1/2-y,1/2-z
1/2-x,1/2+y,1/2-z
loop_
_atom_site_type_symbol
_atom_site_label
_atom_site_fract_x
_atom_site_fract_y
_atom_site_fract_z
Si Si1 0.615653 0.089373 0.884212
Si Si2 0.377387 0.286050 0.755626
Si Si3 0.685341 0.179398 0.576214
Si Si4 0.455230 0.649012 0.125341
Si Si5 0.359363 0.480147 0.438927
Si Si6 0.500000 0.000000 0.500000
Si Si7 0.572839 0.876266 0.314505
Si Si8 0.769491 0.513505 0.275723
O O1 0.561891 0.238255 0.885465
O O2 0.646557 0.026653 0.826378
O O3 0.500000 0.000000 0.906032
O O4 0.748840 0.069639 0.914028
O O5 0.416802 0.318861 0.814625
O O6 0.482956 0.209798 0.722068
O O7 0.353079 0.419910 0.722957
O O8 0.269069 0.169649 0.764363
O O9 0.834654 0.147293 0.585591
O O10 0.682257 0.330021 0.561285
O O11 0.631973 0.188543 0.635403
O O12 0.595611 0.089489 0.537551
O O13 0.500000 0.500000 0.125034
O O14 0.500000 0.500000 0.414309
O O15 0.370863 0.500000 0.500000
O O16 0.670167 0.946281 0.275522
O O17 0.500000 0.000000 0.338858
#
# Coordination Sequence:
#
# PCOD9331117 Si02
#       8
#     8   8   8   8   8   2   8   8
#     4  12  23  49  75 103 155 204 237 316 389 445
#     4  11  23  40  63 107 147 200 242 302 367 461
#     4  12  25  50  72 107 148 198 259 322 384 465
#     4  12  27  46  74 112 156 196 257 314 388 477
#     4  11  27  50  77 108 144 193 265 319 378 464
#     4  12  28  48  84 100 156 208 252 344 410 428
#     4  10  21  40  66  96 145 189 241 299 373 445
#     4  11  22  38  66  99 150 194 241 291 374 460
#
# _framework density 21.339998999999999
#
# number of rings (size 3 to 8) (size 9 to 14) (size 15 to 20)
#    0.000    0.690    6.207    1.241    3.862    2.483 
#    0.000    1.724    0.000    0.000    0.000    0.000 
#    0.000    0.000    0.000    0.000    0.000    0.000 
#
# Total GULP energy -161617.809630 kJ/mol
# GULP energy per Si atom -5573.027918 kJ/mol
# Density = 2.129143 g / cm^3
# Si number density = 21.339999 Si / 1000 Ang^3
#
#
#
# Elastic Constant Matrix: (Units=GPa)
#
#
# Indices 1 2 3 4 5 6 
#
# 1 115.4933 73.4272 46.7974 0.0000 0.0000 0.0000
# 2 73.4272 161.3767 21.7884 0.0000 0.0000 0.0000
# 3 46.7974 21.7884 80.8878 0.0000 0.0000 0.0000
# 4 0.0000 0.0000 0.0000 2.6801 0.0000 0.0000
# 5 0.0000 0.0000 0.0000 0.0000 12.4956 0.0000
# 6 0.0000 0.0000 0.0000 0.0000 0.0000 34.4545
#
#
#
# Elastic Compliance Matrix: (Units=1/GPa)
#
#
# Indices 1 2 3 4 5 6 
#
# 1 0.015473 -0.006052 -0.007322 0.000000 0.000000 0.000000
# 2 -0.006052 0.008797 0.001131 0.000000 0.000000 0.000000
# 3 -0.007322 0.001131 0.016294 0.000000 0.000000 0.000000
# 4 0.000000 0.000000 0.000000 0.373114 0.000000 0.000000
# 5 0.000000 0.000000 0.000000 0.000000 0.080028 0.000000
# 6 0.000000 0.000000 0.000000 0.000000 0.000000 0.029024
#
#
# Mechanical properties :
#
#
# Convention : Reuss Voigt Hill
#
# Bulk Modulus (GPa) = 62.18719 71.30929 66.74824
# Shear Modulus (GPa) = 9.04857 24.30903 16.67880
#
# Velocity S-wave (km/s) = 2.06141 3.37876 2.79870
# Velocity P-wave (km/s) = 5.90511 6.97923 6.46452
#
# Compressibility (1/GPa) = 0.01608048
#
# Stress axis : x y z
#
# Youngs Moduli (GPa) = 64.63055 113.66967 61.37274
#
# Poissons Ratio (x) = 0.68788 0.44934
# Poissons Ratio (y) = 0.39112 -0.06944
# Poissons Ratio (z) = 0.47319 -0.12860
#
# Static dielectric constant tensor:
#      x y z
#    x 1.966510 0.000000 0.000000 
#    y 0.000000 1.944060 0.000000 
#    z 0.000000 0.000000 1.680160 
# 
# From -- ./inp_files/29461.got.cif
#   From: 2010.05.17/outbox.cif.g08.bks.cpg/sg23_15_cif.got.tgz:29461.got - 2010.06.04 12:02:01.
