data_PCOD9331762
_publ_section_title
;
Structure prediction by ZEFSAII (Michael W. Deem and Ramdas Pophale) SiO2 
 PCOD9331762
Probable space group: I 2 2 2
;
_chemical_formula_sum "Si O2"
_cell_formula_units_Z 54
_cell_length_a 14.537795
_cell_length_b 13.070359
_cell_length_c 14.311589
_cell_angle_alpha 90.000000
_cell_angle_beta 90.000000
_cell_angle_gamma 90.000000
_cell_volume 2719.405131
_symmetry_space_group_name_H-M "I 2 2 2"
_symmetry_group_IT_number 23
_symmetry_cell_setting 'orthorhombic'
loop_
_space_group_symop_operation_xyz
x,y,z
-x,-y,z
x,-y,-z
-x,y,-z
1/2+x,1/2+y,1/2+z
1/2-x,1/2-y,1/2+z
1/2+x,1/2-y,1/2-z
1/2-x,1/2+y,1/2-z
loop_
_atom_site_type_symbol
_atom_site_label
_atom_site_fract_x
_atom_site_fract_y
_atom_site_fract_z
Si Si1 0.356202 0.571056 0.843919
Si Si2 0.000000 0.000000 0.500000
Si Si3 0.448854 0.783857 0.402140
Si Si4 0.000000 0.500000 0.816850
Si Si5 0.698297 0.023119 0.763772
Si Si6 0.762638 0.279563 0.390400
Si Si7 0.750431 0.898845 0.936359
Si Si8 0.554587 0.404006 0.647961
O O1 0.426580 0.551586 0.928391
O O2 0.264060 0.501609 0.825459
O O3 0.322670 0.687324 0.852335
O O4 0.408449 0.556883 0.746656
O O5 0.500000 0.766809 0.500000
O O6 0.469195 0.899670 0.373169
O O7 0.341075 0.760962 0.401208
O O8 0.493662 0.696217 0.337661
O O9 0.091549 0.466967 0.761316
O O10 0.732178 0.123653 0.820060
O O11 0.706216 0.928223 0.837199
O O12 0.791736 0.314227 0.495262
O O13 0.856452 0.876321 0.913216
O O14 0.748321 0.000000 0.000000
O O15 0.500000 0.500000 0.605705
#
# Coordination Sequence:
#
# PCOD9331762 Si02
#       8
#     8   2   8   4   8   8   8   8
#     4  11  24  47  64  97 131 178 219 271 334 399
#     4  12  28  48  68  94 136 176 224 268 332 406
#     4  12  24  39  67 101 134 176 224 277 341 410
#     4  12  25  46  63  98 142 194 222 261 340 431
#     4  10  23  45  71  96 138 173 226 282 335 402
#     4  11  22  44  67 101 134 171 224 284 337 391
#     4   9  19  37  64  97 129 162 211 284 335 373
#     4  11  21  38  68  99 130 165 224 281 334 389
#
# _framework density 19.857285000000001
#
# number of rings (size 3 to 8) (size 9 to 14) (size 15 to 20)
#    0.000    1.185    3.704    3.778    0.000    1.185 
#   10.667    2.593    0.000    0.000    0.000    0.000 
#    0.000    0.000    0.000    0.000    0.000    0.000 
#
# Total GULP energy -150573.596918 kJ/mol
# GULP energy per Si atom -5576.799886 kJ/mol
# Density = 1.981209 g / cm^3
# Si number density = 19.857285 Si / 1000 Ang^3
#
#
#
# Elastic Constant Matrix: (Units=GPa)
#
#
# Indices 1 2 3 4 5 6 
#
# 1 100.4657 34.0747 32.6755 0.0000 0.0000 0.0000
# 2 34.0747 83.6904 11.6102 0.0000 0.0000 0.0000
# 3 32.6755 11.6102 59.5404 0.0000 0.0000 0.0000
# 4 0.0000 0.0000 0.0000 5.9667 0.0000 0.0000
# 5 0.0000 0.0000 0.0000 0.0000 5.9855 0.0000
# 6 0.0000 0.0000 0.0000 0.0000 0.0000 31.1109
#
#
#
# Elastic Compliance Matrix: (Units=1/GPa)
#
#
# Indices 1 2 3 4 5 6 
#
# 1 0.013678 -0.004654 -0.006599 0.000000 0.000000 0.000000
# 2 -0.004654 0.013864 -0.000150 0.000000 0.000000 0.000000
# 3 -0.006599 -0.000150 0.020446 0.000000 0.000000 0.000000
# 4 0.000000 0.000000 0.000000 0.167597 0.000000 0.000000
# 5 0.000000 0.000000 0.000000 0.000000 0.167072 0.000000
# 6 0.000000 0.000000 0.000000 0.000000 0.000000 0.032143
#
#
# Mechanical properties :
#
#
# Convention : Reuss Voigt Hill
#
# Bulk Modulus (GPa) = 39.70794 44.49081 42.09937
# Shear Modulus (GPa) = 11.21078 19.63502 15.42290
#
# Velocity S-wave (km/s) = 2.37864 3.14794 2.78993
# Velocity P-wave (km/s) = 5.25205 5.97215 5.62364
#
# Compressibility (1/GPa) = 0.02518388
#
# Stress axis : x y z
#
# Youngs Moduli (GPa) = 73.10835 72.12770 48.90918
#
# Poissons Ratio (x) = 0.33566 0.32276
# Poissons Ratio (y) = 0.34022 0.00732
# Poissons Ratio (z) = 0.48245 0.01079
#
# Static dielectric constant tensor:
#      x y z
#    x 1.728610 0.000000 0.000000 
#    y 0.000000 1.737040 0.000000 
#    z 0.000000 0.000000 1.713260 
# 
# From -- ./inp_files/16813.got.cif
#   From: 2010.05.17/outbox.cif.g08.bks.cpg/sg23_9_cif.got.tgz:16813.got - 2010.06.04 12:02:01.
