data_PCOD9331245
_publ_section_title
;
Structure prediction by ZEFSAII (Michael W. Deem and Ramdas Pophale) SiO2 
 PCOD9331245
Probable space group: I 2 2 2
;
_chemical_formula_sum "Si O2"
_cell_formula_units_Z 48
_cell_length_a 15.118794
_cell_length_b 9.655578
_cell_length_c 14.970995
_cell_angle_alpha 90.000000
_cell_angle_beta 90.000000
_cell_angle_gamma 90.000000
_cell_volume 2185.476251
_symmetry_space_group_name_H-M "I 2 2 2"
_symmetry_group_IT_number 23
_symmetry_cell_setting 'orthorhombic'
loop_
_space_group_symop_operation_xyz
x,y,z
-x,-y,z
x,-y,-z
-x,y,-z
1/2+x,1/2+y,1/2+z
1/2-x,1/2-y,1/2+z
1/2+x,1/2-y,1/2-z
1/2-x,1/2+y,1/2-z
loop_
_atom_site_type_symbol
_atom_site_label
_atom_site_fract_x
_atom_site_fract_y
_atom_site_fract_z
Si Si1 0.500000 0.500000 0.000000
Si Si2 0.915458 0.163840 0.654100
Si Si3 0.500000 0.000000 0.500000
Si Si4 0.320523 0.410644 0.217603
Si Si5 0.580282 0.863528 0.174452
Si Si6 0.659093 0.000000 0.000000
Si Si7 0.861662 0.482518 0.139732
Si Si8 0.733766 0.707158 0.393874
O O1 0.439848 0.397657 0.942587
O O2 0.988330 0.278550 0.675756
O O3 0.819611 0.230931 0.655462
O O4 0.899301 0.021141 0.706654
O O5 0.429217 0.059742 0.573154
O O6 0.232500 0.449276 0.162662
O O7 0.303215 0.401406 0.322769
O O8 0.349685 0.261311 0.182368
O O9 0.594697 0.951112 0.264275
O O10 0.600623 0.952381 0.085395
O O11 0.723601 0.872194 0.976432
O O12 0.835031 0.332940 0.095870
#
# Coordination Sequence:
#
# PCOD9331245 Si02
#       8
#     2   8   2   8   8   4   8   8
#     4  12  20  38  60 106 128 172 232 272 344 420
#     4  11  23  39  68  98 136 180 225 283 347 415
#     4  12  28  46  72  96 130 184 244 284 320 418
#     4  10  21  46  67  95 136 186 229 280 343 414
#     4  11  23  42  70 103 144 177 226 288 357 416
#     4  12  24  41  68 109 138 178 212 291 362 422
#     4  10  25  45  66 100 131 184 237 281 336 406
#     4  10  24  41  65  99 137 176 224 280 347 413
#
# _framework density 21.963177000000002
#
# number of rings (size 3 to 8) (size 9 to 14) (size 15 to 20)
#    0.000    1.333    3.333    1.000    4.667    2.667 
#    3.000    0.000    0.000    0.000    0.000    0.000 
#    0.000    0.000    0.000    0.000    0.000    0.000 
#
# Total GULP energy -133895.512245 kJ/mol
# GULP energy per Si atom -5578.979677 kJ/mol
# Density = 2.191319 g / cm^3
# Si number density = 21.963177 Si / 1000 Ang^3
#
#
#
# Elastic Constant Matrix: (Units=GPa)
#
#
# Indices 1 2 3 4 5 6 
#
# 1 113.9639 30.1981 49.8254 0.0000 0.0000 0.0000
# 2 30.1981 67.9553 42.9847 0.0000 0.0000 0.0000
# 3 49.8254 42.9847 108.3649 0.0000 0.0000 0.0000
# 4 0.0000 0.0000 0.0000 12.5652 0.0000 0.0000
# 5 0.0000 0.0000 0.0000 0.0000 39.6054 0.0000
# 6 0.0000 0.0000 0.0000 0.0000 0.0000 28.2498
#
#
#
# Elastic Compliance Matrix: (Units=1/GPa)
#
#
# Indices 1 2 3 4 5 6 
#
# 1 0.011247 -0.002305 -0.004257 0.000000 0.000000 0.000000
# 2 -0.002305 0.020117 -0.006920 0.000000 0.000000 0.000000
# 3 -0.004257 -0.006920 0.013930 0.000000 0.000000 0.000000
# 4 0.000000 0.000000 0.000000 0.079585 0.000000 0.000000
# 5 0.000000 0.000000 0.000000 0.000000 0.025249 0.000000
# 6 0.000000 0.000000 0.000000 0.000000 0.000000 0.035399
#
#
# Mechanical properties :
#
#
# Convention : Reuss Voigt Hill
#
# Bulk Modulus (GPa) = 54.55458 59.58896 57.07177
# Shear Modulus (GPa) = 22.87282 27.23579 25.05430
#
# Velocity S-wave (km/s) = 3.23060 3.52528 3.38115
# Velocity P-wave (km/s) = 6.22967 6.61516 6.42530
#
# Compressibility (1/GPa) = 0.01833027
#
# Stress axis : x y z
#
# Youngs Moduli (GPa) = 88.91588 49.70910 71.78679
#
# Poissons Ratio (x) = 0.11459 0.30557
# Poissons Ratio (y) = 0.20497 0.49675
# Poissons Ratio (z) = 0.37849 0.34398
#
# Static dielectric constant tensor:
#      x y z
#    x 2.550430 0.000000 0.000000 
#    y 0.000000 1.885790 0.000000 
#    z 0.000000 0.000000 1.855740 
# 
# From -- ./inp_files/22072.got.cif
#   From: 2010.05.17/outbox.cif.g08.bks.cpg/sg23_12_cif.got.tgz:22072.got - 2010.06.04 12:02:01.
