data_PCOD9331895
_publ_section_title
;
Structure prediction by ZEFSAII (Michael W. Deem and Ramdas Pophale) SiO2 
 PCOD9331895
Probable space group: I 2 2 2
;
_chemical_formula_sum "Si O2"
_cell_formula_units_Z 48
_cell_length_a 9.937918
_cell_length_b 12.983858
_cell_length_c 18.054198
_cell_angle_alpha 90.000000
_cell_angle_beta 90.000000
_cell_angle_gamma 90.000000
_cell_volume 2329.578595
_symmetry_space_group_name_H-M "I 2 2 2"
_symmetry_group_IT_number 23
_symmetry_cell_setting 'orthorhombic'
loop_
_space_group_symop_operation_xyz
x,y,z
-x,-y,z
x,-y,-z
-x,y,-z
1/2+x,1/2+y,1/2+z
1/2-x,1/2-y,1/2+z
1/2+x,1/2-y,1/2-z
1/2-x,1/2+y,1/2-z
loop_
_atom_site_type_symbol
_atom_site_label
_atom_site_fract_x
_atom_site_fract_y
_atom_site_fract_z
Si Si1 0.422495 0.340009 0.765990
Si Si2 0.500000 0.500000 0.887501
Si Si3 0.500000 0.000000 0.818448
Si Si4 0.879366 0.325177 0.223437
Si Si5 0.000000 0.000000 0.859070
Si Si6 0.224125 0.577056 0.567594
Si Si7 0.727916 0.500000 0.000000
Si Si8 0.870430 0.290446 0.050550
O O1 0.439736 0.412266 0.836178
O O2 0.274390 0.296118 0.765440
O O3 0.529730 0.251706 0.768778
O O4 0.452338 0.407732 0.693790
O O5 0.624974 0.463665 0.936302
O O6 0.591752 0.066185 0.761976
O O7 0.394462 0.062175 0.871314
O O8 0.910487 0.311611 0.136372
O O9 0.130828 0.035999 0.903485
O O10 0.187997 0.500000 0.500000
O O11 0.260581 0.696727 0.548247
O O12 0.812530 0.599879 0.977021
O O13 0.000000 0.262521 0.000000
#
# Coordination Sequence:
#
# PCOD9331895 Si02
#       8
#     8   4   4   8   4   8   4   8
#     4  11  24  43  74 103 146 184 247 298 375 430
#     4  10  24  45  71 102 140 202 230 304 358 460
#     4  12  29  46  73 108 150 192 250 308 371 444
#     4  12  26  46  72 109 143 194 240 312 366 441
#     4  11  21  45  69 105 139 186 240 298 364 442
#     4  12  26  50  73 107 148 196 252 307 372 440
#     4  11  25  46  70 108 153 191 248 294 382 453
#     4  12  27  47  75 110 147 196 243 310 375 446
#
# _framework density 20.604585
#
# number of rings (size 3 to 8) (size 9 to 14) (size 15 to 20)
#    0.000    0.500    5.000    2.750    2.333    2.667 
#    3.000    0.000    0.000    0.000    0.000    0.000 
#    0.000    0.000    0.000    0.000    0.000    0.000 
#
# Total GULP energy -134078.821911 kJ/mol
# GULP energy per Si atom -5586.617580 kJ/mol
# Density = 2.055769 g / cm^3
# Si number density = 20.604585 Si / 1000 Ang^3
#
#
#
# Elastic Constant Matrix: (Units=GPa)
#
#
# Indices 1 2 3 4 5 6 
#
# 1 121.1661 16.1171 15.5071 0.0000 0.0000 0.0000
# 2 16.1171 79.9731 8.3426 0.0000 0.0000 0.0000
# 3 15.5071 8.3426 75.7332 0.0000 0.0000 0.0000
# 4 0.0000 0.0000 0.0000 35.6303 0.0000 0.0000
# 5 0.0000 0.0000 0.0000 0.0000 43.8401 0.0000
# 6 0.0000 0.0000 0.0000 0.0000 0.0000 38.4731
#
#
#
# Elastic Compliance Matrix: (Units=1/GPa)
#
#
# Indices 1 2 3 4 5 6 
#
# 1 0.008668 -0.001580 -0.001601 0.000000 0.000000 0.000000
# 2 -0.001580 0.012938 -0.001102 0.000000 0.000000 0.000000
# 3 -0.001601 -0.001102 0.013653 0.000000 0.000000 0.000000
# 4 0.000000 0.000000 0.000000 0.028066 0.000000 0.000000
# 5 0.000000 0.000000 0.000000 0.000000 0.022810 0.000000
# 6 0.000000 0.000000 0.000000 0.000000 0.000000 0.025992
#
#
# Mechanical properties :
#
#
# Convention : Reuss Voigt Hill
#
# Bulk Modulus (GPa) = 37.46130 39.64513 38.55321
# Shear Modulus (GPa) = 38.58312 39.38242 38.98277
#
# Velocity S-wave (km/s) = 4.33199 4.37663 4.35437
# Velocity P-wave (km/s) = 6.57587 6.69497 6.63569
#
# Compressibility (1/GPa) = 0.02669422
#
# Stress axis : x y z
#
# Youngs Moduli (GPa) = 115.36466 77.29456 73.24184
#
# Poissons Ratio (x) = 0.12212 0.11725
# Poissons Ratio (y) = 0.18227 0.08069
# Poissons Ratio (z) = 0.18468 0.08515
#
# Static dielectric constant tensor:
#      x y z
#    x 1.672980 0.000000 0.000000 
#    y 0.000000 1.736150 0.000000 
#    z 0.000000 0.000000 1.741060 
# 
# From -- ./inp_files/23777.got.cif
#   From: 2010.05.17/outbox.cif.g08.bks.cpg/sg23_12_cif.got.tgz:23777.got - 2010.06.04 12:02:01.
