data_PCOD9331216
_publ_section_title
;
Structure prediction by ZEFSAII (Michael W. Deem and Ramdas Pophale) SiO2 
 PCOD9331216
Probable space group: I 2 2 2
;
_chemical_formula_sum "Si O2"
_cell_formula_units_Z 44
_cell_length_a 7.866018
_cell_length_b 29.964343
_cell_length_c 8.235852
_cell_angle_alpha 90.000000
_cell_angle_beta 90.000000
_cell_angle_gamma 90.000000
_cell_volume 1941.190822
_symmetry_space_group_name_H-M "I 2 2 2"
_symmetry_group_IT_number 23
_symmetry_cell_setting 'orthorhombic'
loop_
_space_group_symop_operation_xyz
x,y,z
-x,-y,z
x,-y,-z
-x,y,-z
1/2+x,1/2+y,1/2+z
1/2-x,1/2-y,1/2+z
1/2+x,1/2-y,1/2-z
1/2-x,1/2+y,1/2-z
loop_
_atom_site_type_symbol
_atom_site_label
_atom_site_fract_x
_atom_site_fract_y
_atom_site_fract_z
Si Si1 0.809016 0.452473 0.938870
Si Si2 0.500000 0.873989 0.000000
Si Si3 0.242609 0.297911 0.382855
Si Si4 0.105031 0.791345 0.758093
Si Si5 0.731990 0.385675 0.212445
Si Si6 0.944243 0.950850 0.815057
O O1 0.747743 0.446616 0.753194
O O2 0.735910 0.500000 0.000000
O O3 0.757247 0.409645 0.041513
O O4 0.000000 0.455618 0.000000
O O5 0.628307 0.841798 0.900464
O O6 0.374224 0.895172 0.857324
O O7 0.134262 0.255414 0.328523
O O8 0.405796 0.302758 0.267092
O O9 0.321674 0.288026 0.559493
O O10 0.209965 0.833100 0.689149
O O11 0.553777 0.408511 0.260666
O O12 0.000000 0.000000 0.755461
O O13 0.000000 0.952330 0.000000
#
# Coordination Sequence:
#
# PCOD9331216 Si02
#       6
#     8   4   8   8   8   8
#     4  11  25  48  71 102 148 186 239 315 373 442
#     4  10  24  42  66 105 138 186 239 316 346 458
#     4  10  21  43  66  94 146 172 237 287 371 412
#     4  10  22  41  67 100 131 192 223 299 349 451
#     4  11  24  42  72 101 141 184 250 291 376 441
#     4  11  25  46  73 102 140 192 243 304 379 447
#
# _framework density 22.666499000000002
#
# number of rings (size 3 to 8) (size 9 to 14) (size 15 to 20)
#    0.000    1.455    1.818    2.727    7.636    0.000 
#   16.364    0.000    0.000    0.000    0.000    0.000 
#    0.000    0.000    0.000    0.000    0.000    0.000 
#
# Total GULP energy -122537.429406 kJ/mol
# GULP energy per Si atom -5569.883155 kJ/mol
# Density = 2.261491 g / cm^3
# Si number density = 22.666499 Si / 1000 Ang^3
#
#
#
# Elastic Constant Matrix: (Units=GPa)
#
#
# Indices 1 2 3 4 5 6 
#
# 1 117.1887 5.1092 44.5684 -0.0001 0.0000 0.0001
# 2 5.1092 68.6693 21.7719 -0.0001 0.0000 0.0002
# 3 44.5684 21.7719 82.7611 -0.0001 -0.0001 0.0005
# 4 -0.0001 -0.0001 -0.0001 23.9886 0.0000 0.0003
# 5 0.0000 0.0000 -0.0001 0.0000 40.4874 0.0000
# 6 0.0001 0.0002 0.0005 0.0003 0.0000 19.1863
#
#
#
# Elastic Compliance Matrix: (Units=1/GPa)
#
#
# Indices 1 2 3 4 5 6 
#
# 1 0.010812 0.001136 -0.006121 0.000000 0.000000 0.000000
# 2 0.001136 0.016007 -0.004823 0.000000 0.000000 0.000000
# 3 -0.006121 -0.004823 0.016648 0.000000 0.000000 0.000000
# 4 0.000000 0.000000 0.000000 0.041686 0.000000 -0.000001
# 5 0.000000 0.000000 0.000000 0.000000 0.024699 0.000000
# 6 0.000000 0.000000 0.000000 -0.000001 0.000000 0.052120
#
#
# Mechanical properties :
#
#
# Convention : Reuss Voigt Hill
#
# Bulk Modulus (GPa) = 41.92637 45.72421 43.82529
# Shear Modulus (GPa) = 26.37982 29.87711 28.12847
#
# Velocity S-wave (km/s) = 3.41519 3.63453 3.52656
# Velocity P-wave (km/s) = 5.83854 6.15056 5.99658
#
# Compressibility (1/GPa) = 0.02385134
#
# Stress axis : x y z
#
# Youngs Moduli (GPa) = 92.49250 62.47214 60.06685
#
# Poissons Ratio (x) = -0.07099 0.36768
# Poissons Ratio (y) = -0.10510 0.28970
# Poissons Ratio (z) = 0.56617 0.30130
#
# Static dielectric constant tensor:
#      x y z
#    x 1.770910 0.000000 0.000000 
#    y 0.000000 1.836750 0.000000 
#    z 0.000000 0.000000 1.891100 
# 
# From -- ./inp_files/7249.got.cif
#   From: 2010.05.17/outbox.cif.g08.bks.cpg/sg23_4_cif.got.tgz:7249.got - 2010.06.04 12:02:01.
