data_PCOD9331423
_publ_section_title
;
Structure prediction by ZEFSAII (Michael W. Deem and Ramdas Pophale) SiO2 
 PCOD9331423
Probable space group: I 2 2 2
;
_chemical_formula_sum "Si O2"
_cell_formula_units_Z 64
_cell_length_a 8.494518
_cell_length_b 27.170121
_cell_length_c 12.192238
_cell_angle_alpha 90.000000
_cell_angle_beta 90.000000
_cell_angle_gamma 90.000000
_cell_volume 2813.932952
_symmetry_space_group_name_H-M "I 2 2 2"
_symmetry_group_IT_number 23
_symmetry_cell_setting 'orthorhombic'
loop_
_space_group_symop_operation_xyz
x,y,z
-x,-y,z
x,-y,-z
-x,y,-z
1/2+x,1/2+y,1/2+z
1/2-x,1/2-y,1/2+z
1/2+x,1/2-y,1/2-z
1/2-x,1/2+y,1/2-z
loop_
_atom_site_type_symbol
_atom_site_label
_atom_site_fract_x
_atom_site_fract_y
_atom_site_fract_z
Si Si1 0.299439 0.876742 0.275008
Si Si2 0.140848 0.190371 0.069647
Si Si3 0.300025 0.399524 0.724340
Si Si4 0.920913 0.782968 0.747609
Si Si5 0.984021 0.554103 0.629399
Si Si6 0.449037 0.442109 0.122499
Si Si7 0.091106 0.354998 0.901103
Si Si8 0.198716 0.763353 0.597004
O O1 0.161369 0.836847 0.251563
O O2 0.390316 0.907166 0.179580
O O3 0.224065 0.918982 0.354002
O O4 0.443130 0.843396 0.322388
O O5 0.203507 0.150650 0.154980
O O6 0.035281 0.224624 0.147502
O O7 0.260839 0.219302 0.989056
O O8 0.000000 0.164931 0.000000
O O9 0.197829 0.434796 0.651634
O O10 0.459841 0.420166 0.771738
O O11 0.200670 0.390685 0.834068
O O12 0.981104 0.773906 0.364458
O O13 0.781776 0.747621 0.785430
O O14 0.000000 0.500000 0.678601
O O15 0.000000 0.553892 0.500000
O O16 0.500000 0.500000 0.123945
O O17 0.500000 0.424590 0.000000
O O18 0.203961 0.311127 0.942309
O O19 0.000000 0.379458 0.000000
#
# Coordination Sequence:
#
# PCOD9331423 Si02
#       8
#     8   8   8   8   8   8   8   8
#     4  11  23  41  70  97 135 185 224 287 359 423
#     4  10  22  40  68  94 133 178 225 291 344 415
#     4  11  22  43  69  97 138 183 227 288 354 421
#     4  11  22  42  65  95 132 176 234 281 352 407
#     4  10  24  43  68 104 140 179 234 288 353 432
#     4  11  23  41  69 105 139 177 233 292 360 435
#     4  11  22  41  66  91 133 178 225 281 346 408
#     4  11  23  41  66  94 132 175 230 293 335 409
#
# _framework density 22.743967000000001
#
# number of rings (size 3 to 8) (size 9 to 14) (size 15 to 20)
#    0.000    1.250    2.500    3.375    3.500    0.000 
#    0.000    1.875    8.250    8.250    0.000    0.000 
#    0.000    0.000    0.000    0.000    0.000    0.000 
#
# Total GULP energy -178164.654468 kJ/mol
# GULP energy per Si atom -5567.645452 kJ/mol
# Density = 2.269220 g / cm^3
# Si number density = 22.743967 Si / 1000 Ang^3
#
#
#
# Elastic Constant Matrix: (Units=GPa)
#
#
# Indices 1 2 3 4 5 6 
#
# 1 78.6933 21.3374 19.3626 0.0000 0.0000 0.0000
# 2 21.3374 43.8056 5.0551 0.0000 0.0000 0.0000
# 3 19.3626 5.0551 72.3626 0.0000 -0.0001 0.0000
# 4 0.0000 0.0000 0.0000 19.9190 -0.0001 -0.0001
# 5 0.0000 0.0000 -0.0001 -0.0001 -8.6934 0.0000
# 6 0.0000 0.0000 0.0000 -0.0001 0.0000 16.8584
#
#
#
# Elastic Compliance Matrix: (Units=1/GPa)
#
#
# Indices 1 2 3 4 5 6 
#
# 1 0.015547 -0.007150 -0.003661 0.000000 0.000000 0.000000
# 2 -0.007150 0.026302 0.000076 0.000000 0.000000 0.000000
# 3 -0.003661 0.000076 0.014793 0.000000 0.000000 0.000000
# 4 0.000000 0.000000 0.000000 0.050203 -0.000001 0.000000
# 5 0.000000 0.000000 0.000000 -0.000001 -0.115030 0.000000
# 6 0.000000 0.000000 0.000000 0.000000 0.000000 0.059318
#
#
# Mechanical properties :
#
#
# Convention : Reuss Voigt Hill
#
# Bulk Modulus (GPa) = 28.43120 31.81909 30.12515
# Shear Modulus (GPa) = 59.29233 15.55723 37.42478
#
# Velocity S-wave (km/s) = 5.11137 2.61821 4.06085
# Velocity P-wave (km/s) = 6.88204 4.81254 5.93814
#
# Compressibility (1/GPa) = 0.03517263
#
# Stress axis : x y z
#
# Youngs Moduli (GPa) = 64.32086 38.01947 67.59744
#
# Poissons Ratio (x) = 0.27186 0.24744
# Poissons Ratio (y) = 0.45992 -0.00513
# Poissons Ratio (z) = 0.23545 -0.00288
#
# Static dielectric constant tensor:
#      x y z
#    x 2.010290 0.000000 0.000000 
#    y 0.000000 1.969860 0.000000 
#    z 0.000000 0.000000 1.829940 
# 
# From -- ./inp_files/15011.got.cif
#   From: 2010.05.17/outbox.cif.g08.bks.cpg/sg23_8_cif.got.tgz:15011.got - 2010.06.04 12:02:01.
