data_PCOD9331293
_publ_section_title
;
Structure prediction by ZEFSAII (Michael W. Deem and Ramdas Pophale) SiO2 
 PCOD9331293
Probable space group: I 2 2 2
;
_chemical_formula_sum "Si O2"
_cell_formula_units_Z 32
_cell_length_a 13.813686
_cell_length_b 8.517186
_cell_length_c 11.049361
_cell_angle_alpha 90.000000
_cell_angle_beta 90.000000
_cell_angle_gamma 90.000000
_cell_volume 1299.998569
_symmetry_space_group_name_H-M "I 2 2 2"
_symmetry_group_IT_number 23
_symmetry_cell_setting 'orthorhombic'
loop_
_space_group_symop_operation_xyz
x,y,z
-x,-y,z
x,-y,-z
-x,y,-z
1/2+x,1/2+y,1/2+z
1/2-x,1/2-y,1/2+z
1/2+x,1/2-y,1/2-z
1/2-x,1/2+y,1/2-z
loop_
_atom_site_type_symbol
_atom_site_label
_atom_site_fract_x
_atom_site_fract_y
_atom_site_fract_z
Si Si1 0.235303 0.013851 0.864486
Si Si2 0.866764 0.309684 0.238803
Si Si3 0.116273 0.172680 0.494873
Si Si4 0.437639 0.664882 0.263681
O O1 0.308866 0.971001 0.755063
O O2 0.145064 0.890215 0.855456
O O3 0.186084 0.182146 0.843567
O O4 0.276704 0.000000 0.000000
O O5 0.857685 0.252570 0.379323
O O6 0.980247 0.292995 0.206733
O O7 0.120528 0.223214 0.355237
O O8 0.000000 0.164705 0.500000
O O9 0.160599 0.000000 0.500000
O O10 0.500000 0.500000 0.240483
#
# Coordination Sequence:
#
# PCOD9331293 Si02
#       4
#     8   8   8   8
#     4  11  24  38  61  97 129 165 214 264 319 385
#     4  10  22  37  60  90 129 162 212 265 317 377
#     4   9  12  28  57  82 103 151 206 248 291 359
#     4   9  17  35  62  86 117 164 211 251 307 389
#
# _framework density 24.615411000000002
#
# number of rings (size 3 to 8) (size 9 to 14) (size 15 to 20)
#    0.000    2.250    7.500    0.000    3.500    4.500 
#    0.000    1.250    0.000    0.000    0.000   10.500 
#    0.000    0.000    0.000    0.000    0.000    0.000 
#
# Total GULP energy -89109.212665 kJ/mol
# GULP energy per Si atom -5569.325792 kJ/mol
# Density = 2.455939 g / cm^3
# Si number density = 24.615411 Si / 1000 Ang^3
#
#
#
# Elastic Constant Matrix: (Units=GPa)
#
#
# Indices 1 2 3 4 5 6 
#
# 1 102.0290 8.4114 -7.2370 0.0000 0.0000 0.0000
# 2 8.4114 36.0658 6.0161 0.0000 0.0000 0.0000
# 3 -7.2370 6.0161 51.8072 0.0000 0.0000 0.0000
# 4 0.0000 0.0000 0.0000 29.2295 0.0000 0.0000
# 5 0.0000 0.0000 0.0000 0.0000 42.9892 0.0000
# 6 0.0000 0.0000 0.0000 0.0000 0.0000 37.9948
#
#
#
# Elastic Compliance Matrix: (Units=1/GPa)
#
#
# Indices 1 2 3 4 5 6 
#
# 1 0.010142 -0.002653 0.001725 0.000000 0.000000 0.000000
# 2 -0.002653 0.028969 -0.003735 0.000000 0.000000 0.000000
# 3 0.001725 -0.003735 0.019977 0.000000 0.000000 0.000000
# 4 0.000000 0.000000 0.000000 0.034212 0.000000 0.000000
# 5 0.000000 0.000000 0.000000 0.000000 0.023262 0.000000
# 6 0.000000 0.000000 0.000000 0.000000 0.000000 0.026319
#
#
# Mechanical properties :
#
#
# Convention : Reuss Voigt Hill
#
# Bulk Modulus (GPa) = 20.09552 22.69808 21.39680
# Shear Modulus (GPa) = 29.62187 34.22348 31.92267
#
# Velocity S-wave (km/s) = 3.47275 3.73275 3.60510
# Velocity P-wave (km/s) = 4.92560 5.27438 5.10297
#
# Compressibility (1/GPa) = 0.04976233
#
# Stress axis : x y z
#
# Youngs Moduli (GPa) = 98.59781 34.51986 50.05762
#
# Poissons Ratio (x) = 0.09159 -0.08634
# Poissons Ratio (y) = 0.26159 0.18694
# Poissons Ratio (z) = -0.17007 0.12892
#
# Static dielectric constant tensor:
#      x y z
#    x 1.977860 0.000000 0.000000 
#    y 0.000000 2.184720 0.000000 
#    z 0.000000 0.000000 1.947910 
# 
# From -- ./inp_files/7822.got.cif
#   From: 2010.05.17/outbox.cif.g08.bks.cpg/sg23_4_cif.got.tgz:7822.got - 2010.06.04 12:02:01.
