data_PCOD9331524
_publ_section_title
;
Structure prediction by ZEFSAII (Michael W. Deem and Ramdas Pophale) SiO2 
 PCOD9331524
Probable space group: I 2 2 2
;
_chemical_formula_sum "Si O2"
_cell_formula_units_Z 34
_cell_length_a 12.114409
_cell_length_b 4.966052
_cell_length_c 22.205547
_cell_angle_alpha 90.000000
_cell_angle_beta 90.000000
_cell_angle_gamma 90.000000
_cell_volume 1335.903140
_symmetry_space_group_name_H-M "I 2 2 2"
_symmetry_group_IT_number 23
_symmetry_cell_setting 'orthorhombic'
loop_
_space_group_symop_operation_xyz
x,y,z
-x,-y,z
x,-y,-z
-x,y,-z
1/2+x,1/2+y,1/2+z
1/2-x,1/2-y,1/2+z
1/2+x,1/2-y,1/2-z
1/2-x,1/2+y,1/2-z
loop_
_atom_site_type_symbol
_atom_site_label
_atom_site_fract_x
_atom_site_fract_y
_atom_site_fract_z
Si Si1 0.500000 0.500000 0.500000
Si Si2 0.688779 0.423439 0.586441
Si Si3 0.076022 0.761589 0.724482
Si Si4 0.576958 0.260268 0.086629
Si Si5 0.868145 0.553412 0.157842
O O1 0.586511 0.349096 0.543122
O O2 0.805614 0.329186 0.559315
O O3 0.674592 0.733229 0.607529
O O4 0.675373 0.242480 0.645399
O O5 0.104774 0.840313 0.656341
O O6 0.160096 0.675629 0.776724
O O7 0.000000 0.500000 0.716218
O O8 0.000000 0.000000 0.749892
O O9 0.500000 0.500000 0.063340
O O10 0.500000 0.000000 0.084967
O O11 0.000000 0.500000 0.155117
#
# Coordination Sequence:
#
# PCOD9331524 Si02
#       5
#     2   8   8   8   8
#     4  12  28  50  66 110 132 182 248 300 372 400
#     4  12  25  41  70  92 139 181 230 301 344 416
#     4   9  18  33  60  92 139 175 219 272 334 425
#     4  10  22  43  65  99 136 182 226 279 347 423
#     4  11  20  38  60 100 134 180 224 282 353 424
#
# _framework density 25.450949000000001
#
# number of rings (size 3 to 8) (size 9 to 14) (size 15 to 20)
#    0.000    1.412    2.353    4.235    0.000    3.765 
#    0.000    0.588    0.000    1.412    0.000    0.000 
#    0.000    0.000    0.000    0.000    0.000    0.000 
#
# Total GULP energy -94924.802051 kJ/mol
# GULP energy per Si atom -5583.811885 kJ/mol
# Density = 2.539302 g / cm^3
# Si number density = 25.450949 Si / 1000 Ang^3
#
#
#
# Elastic Constant Matrix: (Units=GPa)
#
#
# Indices 1 2 3 4 5 6 
#
# 1 179.5286 20.3357 28.8061 0.0000 0.0000 0.0000
# 2 20.3357 122.2077 16.0944 0.0000 0.0000 0.0000
# 3 28.8061 16.0944 116.4690 0.0000 0.0000 0.0000
# 4 0.0000 0.0000 0.0000 6.9746 0.0000 0.0000
# 5 0.0000 0.0000 0.0000 0.0000 11.4502 0.0000
# 6 0.0000 0.0000 0.0000 0.0000 0.0000 30.2890
#
#
#
# Elastic Compliance Matrix: (Units=1/GPa)
#
#
# Indices 1 2 3 4 5 6 
#
# 1 0.005876 -0.000801 -0.001343 0.000000 0.000000 0.000000
# 2 -0.000801 0.008444 -0.000969 0.000000 0.000000 0.000000
# 3 -0.001343 -0.000969 0.009052 0.000000 0.000000 0.000000
# 4 0.000000 0.000000 0.000000 0.143377 0.000000 0.000000
# 5 0.000000 0.000000 0.000000 0.000000 0.087335 0.000000
# 6 0.000000 0.000000 0.000000 0.000000 0.000000 0.033015
#
#
# Mechanical properties :
#
#
# Convention : Reuss Voigt Hill
#
# Bulk Modulus (GPa) = 58.31880 60.96417 59.64149
# Shear Modulus (GPa) = 16.72024 33.27405 24.99714
#
# Velocity S-wave (km/s) = 2.56590 3.61969 3.13736
# Velocity P-wave (km/s) = 5.63404 6.44012 6.05052
#
# Compressibility (1/GPa) = 0.01714713
#
# Stress axis : x y z
#
# Youngs Moduli (GPa) = 170.17464 118.43214 110.47384
#
# Poissons Ratio (x) = 0.09486 0.14833
# Poissons Ratio (y) = 0.13631 0.10701
# Poissons Ratio (z) = 0.22849 0.11472
#
# Static dielectric constant tensor:
#      x y z
#    x 2.032500 0.000000 0.000000 
#    y 0.000000 1.751390 0.000000 
#    z 0.000000 0.000000 2.126650 
# 
# From -- ./inp_files/28199.got.cif
#   From: 2010.05.17/outbox.cif.g08.bks.cpg/sg23_15_cif.got.tgz:28199.got - 2010.06.04 12:02:01.
