data_PCOD9331343
_publ_section_title
;
Structure prediction by ZEFSAII (Michael W. Deem and Ramdas Pophale) SiO2 
 PCOD9331343
Probable space group: I 2 2 2
;
_chemical_formula_sum "Si O2"
_cell_formula_units_Z 32
_cell_length_a 8.957945
_cell_length_b 5.164052
_cell_length_c 30.950522
_cell_angle_alpha 90.000000
_cell_angle_beta 90.000000
_cell_angle_gamma 90.000000
_cell_volume 1431.749290
_symmetry_space_group_name_H-M "I 2 2 2"
_symmetry_group_IT_number 23
_symmetry_cell_setting 'orthorhombic'
loop_
_space_group_symop_operation_xyz
x,y,z
-x,-y,z
x,-y,-z
-x,y,-z
1/2+x,1/2+y,1/2+z
1/2-x,1/2-y,1/2+z
1/2+x,1/2-y,1/2-z
1/2-x,1/2+y,1/2-z
loop_
_atom_site_type_symbol
_atom_site_label
_atom_site_fract_x
_atom_site_fract_y
_atom_site_fract_z
Si Si1 0.500000 0.500000 0.000000
Si Si2 0.500000 0.000000 0.500000
Si Si3 0.170816 0.106887 0.861524
Si Si4 0.000000 0.000000 0.248203
Si Si5 0.249740 0.682364 0.541678
Si Si6 0.712418 0.138450 0.306152
O O1 0.602121 0.340346 0.032265
O O2 0.604018 0.152664 0.532490
O O3 0.238277 0.096857 0.909456
O O4 0.182003 0.387358 0.837262
O O5 0.255520 0.889346 0.834237
O O6 0.000000 0.000000 0.864772
O O7 0.929877 0.760262 0.220364
O O8 0.145773 0.918825 0.275554
O O9 0.252683 0.500000 0.500000
#
# Coordination Sequence:
#
# PCOD9331343 Si02
#       6
#     2   2   8   4   8   8
#     4  10  26  48  72 104 148 218 258 314 392 470
#     4  10  22  38  76 104 136 206 254 306 386 474
#     4  12  28  47  80 121 155 201 269 336 389 474
#     4  12  30  57  82 114 162 218 262 332 429 490
#     4  11  25  47  73 108 154 207 255 320 396 467
#     4  12  30  51  83 116 159 208 266 333 402 492
#
# _framework density 22.350283000000001
#
# number of rings (size 3 to 8) (size 9 to 14) (size 15 to 20)
#    0.000    0.500    1.250    4.500   14.000    6.000 
#    4.500    0.000    0.000    0.000    0.000    0.000 
#    0.000    0.000    0.000    0.000    0.000    0.000 
#
# Total GULP energy -89326.343785 kJ/mol
# GULP energy per Si atom -5582.896487 kJ/mol
# Density = 2.229941 g / cm^3
# Si number density = 22.350283 Si / 1000 Ang^3
#
#
#
# Elastic Constant Matrix: (Units=GPa)
#
#
# Indices 1 2 3 4 5 6 
#
# 1 121.8677 57.6120 66.3683 0.0000 0.0000 0.0000
# 2 57.6120 169.6101 92.8231 0.0000 0.0000 0.0000
# 3 66.3683 92.8231 193.3969 0.0000 0.0000 0.0000
# 4 0.0000 0.0000 0.0000 32.5637 0.0000 0.0000
# 5 0.0000 0.0000 0.0000 0.0000 111.9947 0.0000
# 6 0.0000 0.0000 0.0000 0.0000 0.0000 65.9460
#
#
#
# Elastic Compliance Matrix: (Units=1/GPa)
#
#
# Indices 1 2 3 4 5 6 
#
# 1 0.010662 -0.002196 -0.002605 0.000000 0.000000 0.000000
# 2 -0.002196 0.008449 -0.003301 0.000000 0.000000 0.000000
# 3 -0.002605 -0.003301 0.007649 0.000000 0.000000 0.000000
# 4 0.000000 0.000000 0.000000 0.030709 0.000000 0.000000
# 5 0.000000 0.000000 0.000000 0.000000 0.008929 0.000000
# 6 0.000000 0.000000 0.000000 0.000000 0.000000 0.015164
#
#
# Mechanical properties :
#
#
# Convention : Reuss Voigt Hill
#
# Bulk Modulus (GPa) = 94.73896 102.05349 98.39623
# Shear Modulus (GPa) = 49.36537 59.97230 54.66884
#
# Velocity S-wave (km/s) = 4.70479 5.18567 4.95107
# Velocity P-wave (km/s) = 8.48491 9.03410 8.76381
#
# Compressibility (1/GPa) = 0.01055532
#
# Stress axis : x y z
#
# Youngs Moduli (GPa) = 93.78676 118.36313 130.73260
#
# Poissons Ratio (x) = 0.25994 0.34056
# Poissons Ratio (y) = 0.20597 0.43159
# Poissons Ratio (z) = 0.24432 0.39076
#
# Static dielectric constant tensor:
#      x y z
#    x 1.808130 0.000000 0.000000 
#    y 0.000000 1.806430 0.000000 
#    z 0.000000 0.000000 -1.544760 
# 
# From -- ./inp_files/30088.got.cif
#   From: 2010.05.17/outbox.cif.g08.bks.cpg/sg23_16_cif.got.tgz:30088.got - 2010.06.04 12:02:01.
