data_PCOD9331372
_publ_section_title
;
Structure prediction by ZEFSAII (Michael W. Deem and Ramdas Pophale) SiO2 
 PCOD9331372
Probable space group: I 2 2 2
;
_chemical_formula_sum "Si O2"
_cell_formula_units_Z 48
_cell_length_a 29.053294
_cell_length_b 14.050633
_cell_length_c 5.527300
_cell_angle_alpha 90.000000
_cell_angle_beta 90.000000
_cell_angle_gamma 90.000000
_cell_volume 2256.338772
_symmetry_space_group_name_H-M "I 2 2 2"
_symmetry_group_IT_number 23
_symmetry_cell_setting 'orthorhombic'
loop_
_space_group_symop_operation_xyz
x,y,z
-x,-y,z
x,-y,-z
-x,y,-z
1/2+x,1/2+y,1/2+z
1/2-x,1/2-y,1/2+z
1/2+x,1/2-y,1/2-z
1/2-x,1/2+y,1/2-z
loop_
_atom_site_type_symbol
_atom_site_label
_atom_site_fract_x
_atom_site_fract_y
_atom_site_fract_z
Si Si1 0.268244 0.707782 0.380537
Si Si2 0.219105 0.000000 0.000000
Si Si3 0.449969 0.609400 0.578828
Si Si4 0.336836 0.500000 0.000000
Si Si5 0.946676 0.461282 0.243402
Si Si6 0.373229 0.688532 0.237075
Si Si7 0.447792 0.237980 0.077518
O O1 0.254034 0.763263 0.623802
O O2 0.255878 0.597882 0.437564
O O3 0.323248 0.716352 0.336239
O O4 0.190442 0.019847 0.751576
O O5 0.449322 0.500000 0.500000
O O6 0.500000 0.647677 0.500000
O O7 0.406291 0.654487 0.450905
O O8 0.448110 0.650783 0.846832
O O9 0.363609 0.596113 0.067916
O O10 0.928296 0.500000 0.500000
O O11 0.942043 0.347223 0.232717
O O12 0.000000 0.500000 0.242281
O O13 0.924459 0.500000 0.000000
O O14 0.404375 0.766331 0.101023
O O15 0.500000 0.218271 0.000000
#
# Coordination Sequence:
#
# PCOD9331372 Si02
#       7
#     8   4   8   4   8   8   8
#     4  11  25  45  74 108 138 182 244 301 357 429
#     4  10  22  44  76 104 137 182 231 294 360 434
#     4  11  25  40  61 100 153 192 230 286 346 431
#     4  10  22  40  67 106 138 188 240 274 339 454
#     4  10  22  39  67  90 122 169 249 292 325 395
#     4  11  25  40  69 100 141 187 236 289 360 431
#     4  12  24  41  65 100 137 189 235 292 356 416
#
# _framework density 21.273399999999999
#
# number of rings (size 3 to 8) (size 9 to 14) (size 15 to 20)
#    0.000    1.167    3.333    3.000   16.333    0.000 
#    0.000    0.000    1.833    2.000    2.167    0.000 
#    0.000    0.000    0.000    0.000    0.000    0.000 
#
# Total GULP energy -133661.198109 kJ/mol
# GULP energy per Si atom -5569.216588 kJ/mol
# Density = 2.122498 g / cm^3
# Si number density = 21.273400 Si / 1000 Ang^3
#
#
#
# Elastic Constant Matrix: (Units=GPa)
#
#
# Indices 1 2 3 4 5 6 
#
# 1 125.2286 40.8473 52.3397 0.0000 0.0000 0.0000
# 2 40.8473 89.6445 36.0600 0.0000 0.0000 0.0000
# 3 52.3397 36.0600 129.1445 0.0000 0.0000 0.0000
# 4 0.0000 0.0000 0.0000 49.6565 0.0000 0.0000
# 5 0.0000 0.0000 0.0000 0.0000 32.9738 0.0000
# 6 0.0000 0.0000 0.0000 0.0000 0.0000 9.6661
#
#
#
# Elastic Compliance Matrix: (Units=1/GPa)
#
#
# Indices 1 2 3 4 5 6 
#
# 1 0.010486 -0.003457 -0.003284 0.000000 0.000000 0.000000
# 2 -0.003457 0.013706 -0.002426 0.000000 0.000000 0.000000
# 3 -0.003284 -0.002426 0.009752 0.000000 0.000000 0.000000
# 4 0.000000 0.000000 0.000000 0.020138 0.000000 0.000000
# 5 0.000000 0.000000 0.000000 0.000000 0.030327 0.000000
# 6 0.000000 0.000000 0.000000 0.000000 0.000000 0.103454
#
#
# Mechanical properties :
#
#
# Convention : Reuss Voigt Hill
#
# Bulk Modulus (GPa) = 64.06520 66.94573 65.50547
# Shear Modulus (GPa) = 23.65172 32.77733 28.21453
#
# Velocity S-wave (km/s) = 3.33798 3.92952 3.64577
# Velocity P-wave (km/s) = 6.71094 7.21981 6.97002
#
# Compressibility (1/GPa) = 0.01560910
#
# Stress axis : x y z
#
# Youngs Moduli (GPa) = 95.36838 72.95982 102.54506
#
# Poissons Ratio (x) = 0.25220 0.33680
# Poissons Ratio (y) = 0.32966 0.24879
# Poissons Ratio (z) = 0.31323 0.17701
#
# Static dielectric constant tensor:
#      x y z
#    x 1.747270 0.000000 0.000000 
#    y 0.000000 1.825390 0.000000 
#    z 0.000000 0.000000 1.870890 
# 
# From -- ./inp_files/4920.got.cif
#   From: 2010.05.17/outbox.cif.g08.bks.cpg/sg23_3_cif.got.tgz:4920.got - 2010.06.04 12:02:01.
