data_PCOD9331732
_publ_section_title
;
Structure prediction by ZEFSAII (Michael W. Deem and Ramdas Pophale) SiO2 
 PCOD9331732
Probable space group: I 2 2 2
;
_chemical_formula_sum "Si O2"
_cell_formula_units_Z 36
_cell_length_a 8.123727
_cell_length_b 13.927323
_cell_length_c 15.050444
_cell_angle_alpha 90.000000
_cell_angle_beta 90.000000
_cell_angle_gamma 90.000000
_cell_volume 1702.833872
_symmetry_space_group_name_H-M "I 2 2 2"
_symmetry_group_IT_number 23
_symmetry_cell_setting 'orthorhombic'
loop_
_space_group_symop_operation_xyz
x,y,z
-x,-y,z
x,-y,-z
-x,y,-z
1/2+x,1/2+y,1/2+z
1/2-x,1/2-y,1/2+z
1/2+x,1/2-y,1/2-z
1/2-x,1/2+y,1/2-z
loop_
_atom_site_type_symbol
_atom_site_label
_atom_site_fract_x
_atom_site_fract_y
_atom_site_fract_z
Si Si1 0.187858 0.022017 0.603424
Si Si2 0.000000 0.500000 0.782656
Si Si3 0.183570 0.758817 0.362221
Si Si4 0.695078 0.608463 0.491827
Si Si5 0.650659 0.814133 0.815132
O O1 0.337929 0.974501 0.658410
O O2 0.226531 0.135025 0.606867
O O3 0.192476 0.000000 0.500000
O O4 0.000000 0.000000 0.636585
O O5 0.058368 0.591569 0.724899
O O6 0.241030 0.676779 0.429466
O O7 0.257784 0.757146 0.263034
O O8 0.988173 0.752495 0.356365
O O9 0.763453 0.500000 0.500000
O O10 0.500000 0.603847 0.500000
O O11 0.736307 0.650575 0.395277
#
# Coordination Sequence:
#
# PCOD9331732 Si02
#       5
#     8   4   8   8   8
#     4  10  24  41  67 101 135 185 229 292 351 423
#     4  10  23  44  65 100 138 180 232 286 354 418
#     4  11  25  42  68  99 134 179 231 291 350 421
#     4  11  25  46  70 102 142 185 235 291 355 430
#     4  11  24  42  68 101 133 186 228 292 351 420
#
# _framework density 21.141228999999999
#
# number of rings (size 3 to 8) (size 9 to 14) (size 15 to 20)
#    0.000    1.333    0.000    3.667    9.333    4.444 
#   16.000    0.000    0.000    0.000    0.000    0.000 
#    0.000    0.000    0.000    0.000    0.000    0.000 
#
# Total GULP energy -100580.897949 kJ/mol
# GULP energy per Si atom -5587.827664 kJ/mol
# Density = 2.109311 g / cm^3
# Si number density = 21.141229 Si / 1000 Ang^3
#
#
#
# Elastic Constant Matrix: (Units=GPa)
#
#
# Indices 1 2 3 4 5 6 
#
# 1 111.8949 16.9561 57.4370 0.0000 0.0000 0.0000
# 2 16.9561 92.7998 55.7603 0.0000 0.0000 0.0000
# 3 57.4370 55.7603 141.0664 0.0000 0.0000 0.0000
# 4 0.0000 0.0000 0.0000 388.3046 0.0000 0.0001
# 5 0.0000 0.0000 0.0000 0.0000 49.6253 0.0000
# 6 0.0000 0.0000 0.0000 0.0001 0.0000 71.7387
#
#
#
# Elastic Compliance Matrix: (Units=1/GPa)
#
#
# Indices 1 2 3 4 5 6 
#
# 1 0.011358 0.000923 -0.004989 0.000000 0.000000 0.000000
# 2 0.000923 0.014207 -0.005992 0.000000 0.000000 0.000000
# 3 -0.004989 -0.005992 0.011489 0.000000 0.000000 0.000000
# 4 0.000000 0.000000 0.000000 0.002575 0.000000 0.000000
# 5 0.000000 0.000000 0.000000 0.000000 0.020151 0.000000
# 6 0.000000 0.000000 0.000000 0.000000 0.000000 0.013939
#
#
# Mechanical properties :
#
#
# Convention : Reuss Voigt Hill
#
# Bulk Modulus (GPa) = 59.03963 67.34089 63.19026
# Shear Modulus (GPa) = 50.26010 116.30756 83.28383
#
# Velocity S-wave (km/s) = 4.88110 7.42523 6.28328
# Velocity P-wave (km/s) = 7.73005 10.26811 9.08812
#
# Compressibility (1/GPa) = 0.01693777
#
# Stress axis : x y z
#
# Youngs Moduli (GPa) = 88.04186 70.38582 87.04257
#
# Poissons Ratio (x) = -0.06494 0.43428
# Poissons Ratio (y) = -0.08123 0.52152
# Poissons Ratio (z) = 0.43927 0.42172
#
# Static dielectric constant tensor:
#      x y z
#    x 1.757510 0.000000 0.000000 
#    y 0.000000 1.789000 0.000000 
#    z 0.000000 0.000000 -2.288830 
# 
# From -- ./inp_files/19715.got.cif
#   From: 2010.05.17/outbox.cif.g08.bks.cpg/sg23_10_cif.got.tgz:19715.got - 2010.06.04 12:02:01.
