data_PCOD9331500
_publ_section_title
;
Structure prediction by ZEFSAII (Michael W. Deem and Ramdas Pophale) SiO2 
 PCOD9331500
Probable space group: I 2 2 2
;
_chemical_formula_sum "Si O2"
_cell_formula_units_Z 38
_cell_length_a 7.185243
_cell_length_b 12.143388
_cell_length_c 22.707644
_cell_angle_alpha 90.000000
_cell_angle_beta 90.000000
_cell_angle_gamma 90.000000
_cell_volume 1981.314459
_symmetry_space_group_name_H-M "I 2 2 2"
_symmetry_group_IT_number 23
_symmetry_cell_setting 'orthorhombic'
loop_
_space_group_symop_operation_xyz
x,y,z
-x,-y,z
x,-y,-z
-x,y,-z
1/2+x,1/2+y,1/2+z
1/2-x,1/2-y,1/2+z
1/2+x,1/2-y,1/2-z
1/2-x,1/2+y,1/2-z
loop_
_atom_site_type_symbol
_atom_site_label
_atom_site_fract_x
_atom_site_fract_y
_atom_site_fract_z
Si Si1 0.462326 0.375963 0.801987
Si Si2 0.166823 0.908806 0.924255
Si Si3 0.671105 0.267198 0.316208
Si Si4 0.500000 0.214408 0.500000
Si Si5 0.500000 0.000000 0.000000
Si Si6 0.884786 0.387359 0.116874
O O1 0.500000 0.500000 0.780002
O O2 0.369303 0.305016 0.749964
O O3 0.651204 0.312979 0.819117
O O4 0.320846 0.389909 0.856352
O O5 0.198095 0.874590 0.856935
O O6 0.114406 0.797736 0.959104
O O7 0.355916 0.943604 0.955464
O O8 0.000000 0.000000 0.929515
O O9 0.496597 0.202983 0.344605
O O10 0.612541 0.143646 0.547742
O O11 0.000000 0.500000 0.124174
#
# Coordination Sequence:
#
# PCOD9331500 Si02
#       6
#     8   8   8   4   2   8
#     4  12  24  44  68 100 132 173 227 272 336 400
#     4  11  23  43  63  97 132 171 216 274 327 392
#     4  11  25  42  67  95 130 176 215 275 334 394
#     4  10  22  42  68  88 130 168 212 270 338 378
#     4  12  22  40  64  94 130 160 222 262 316 402
#     4  11  23  43  66  93 131 171 217 276 328 395
#
# _framework density 19.179186000000001
#
# number of rings (size 3 to 8) (size 9 to 14) (size 15 to 20)
#    0.000    0.842    6.316    0.947    2.947    0.000 
#    5.684    0.000    0.000    0.000    0.000    0.000 
#    0.000    0.000    0.000    0.000    0.000    0.000 
#
# Total GULP energy -105993.230385 kJ/mol
# GULP energy per Si atom -5578.591073 kJ/mol
# Density = 1.913553 g / cm^3
# Si number density = 19.179186 Si / 1000 Ang^3
#
#
#
# Elastic Constant Matrix: (Units=GPa)
#
#
# Indices 1 2 3 4 5 6 
#
# 1 88.0890 22.9740 7.4700 0.0000 0.0000 0.0000
# 2 22.9740 71.4078 11.6200 0.0000 0.0000 0.0000
# 3 7.4700 11.6200 79.1293 0.0000 0.0000 0.0000
# 4 0.0000 0.0000 0.0000 34.1880 0.0000 0.0000
# 5 0.0000 0.0000 0.0000 0.0000 11.7339 0.0000
# 6 0.0000 0.0000 0.0000 0.0000 0.0000 23.3542
#
#
#
# Elastic Compliance Matrix: (Units=1/GPa)
#
#
# Indices 1 2 3 4 5 6 
#
# 1 0.012420 -0.003898 -0.000600 0.000000 0.000000 0.000000
# 2 -0.003898 0.015570 -0.001918 0.000000 0.000000 0.000000
# 3 -0.000600 -0.001918 0.012976 0.000000 0.000000 0.000000
# 4 0.000000 0.000000 0.000000 0.029250 0.000000 0.000000
# 5 0.000000 0.000000 0.000000 0.000000 0.085223 0.000000
# 6 0.000000 0.000000 0.000000 0.000000 0.000000 0.042819
#
#
# Mechanical properties :
#
#
# Convention : Reuss Voigt Hill
#
# Bulk Modulus (GPa) = 35.54579 35.86156 35.70367
# Shear Modulus (GPa) = 22.67895 26.95938 24.81917
#
# Velocity S-wave (km/s) = 3.44245 3.75328 3.60122
# Velocity P-wave (km/s) = 5.86296 6.12548 5.99566
#
# Compressibility (1/GPa) = 0.02813273
#
# Stress axis : x y z
#
# Youngs Moduli (GPa) = 80.51733 64.22441 77.06583
#
# Poissons Ratio (x) = 0.25036 0.04624
# Poissons Ratio (y) = 0.31387 0.14785
# Poissons Ratio (z) = 0.04831 0.12321
#
# Static dielectric constant tensor:
#      x y z
#    x 1.799040 0.000000 0.000000 
#    y 0.000000 1.681790 0.000000 
#    z 0.000000 0.000000 1.684810 
# 
# From -- ./inp_files/28877.got.cif
#   From: 2010.05.17/outbox.cif.g08.bks.cpg/sg23_15_cif.got.tgz:28877.got - 2010.06.04 12:02:01.
