data_PCOD9331167
_publ_section_title
;
Structure prediction by ZEFSAII (Michael W. Deem and Ramdas Pophale) SiO2 
 PCOD9331167
Probable space group: I 2 2 2
;
_chemical_formula_sum "Si O2"
_cell_formula_units_Z 32
_cell_length_a 9.341476
_cell_length_b 9.209878
_cell_length_c 15.040249
_cell_angle_alpha 90.000000
_cell_angle_beta 90.000000
_cell_angle_gamma 90.000000
_cell_volume 1293.970591
_symmetry_space_group_name_H-M "I 2 2 2"
_symmetry_group_IT_number 23
_symmetry_cell_setting 'orthorhombic'
loop_
_space_group_symop_operation_xyz
x,y,z
-x,-y,z
x,-y,-z
-x,y,-z
1/2+x,1/2+y,1/2+z
1/2-x,1/2-y,1/2+z
1/2+x,1/2-y,1/2-z
1/2-x,1/2+y,1/2-z
loop_
_atom_site_type_symbol
_atom_site_label
_atom_site_fract_x
_atom_site_fract_y
_atom_site_fract_z
Si Si1 0.888297 0.224966 0.420622
Si Si2 0.333792 0.999072 0.184339
Si Si3 0.385760 0.695455 0.225368
Si Si4 0.073871 0.343649 0.085874
O O1 0.839460 0.391337 0.399007
O O2 0.000000 0.500000 0.286975
O O3 0.000000 0.218885 0.500000
O O4 0.975620 0.169806 0.334440
O O5 0.304194 0.828868 0.175540
O O6 0.226227 0.069092 0.254688
O O7 0.242486 0.360287 0.065720
O O8 0.431959 0.751968 0.323228
O O9 0.000000 0.500000 0.095401
O O10 0.000000 0.271326 0.000000
#
# Coordination Sequence:
#
# PCOD9331167 Si02
#       4
#     8   8   8   8
#     4  10  22  39  67 102 133 176 225 271 332 405
#     4   9  20  40  66  97 136 175 217 272 330 391
#     4  10  21  41  68 100 133 177 226 271 334 401
#     4  10  22  41  65  95 136 176 217 277 335 388
#
# _framework density 24.730081999999999
#
# number of rings (size 3 to 8) (size 9 to 14) (size 15 to 20)
#    0.000    2.250    0.000    2.250    0.000   14.500 
#    0.000   23.750    0.000   15.000    0.000   42.000 
#    0.000    0.000    0.000    0.000    0.000    0.000 
#
# Total GULP energy -89493.061001 kJ/mol
# GULP energy per Si atom -5593.316313 kJ/mol
# Density = 2.467380 g / cm^3
# Si number density = 24.730082 Si / 1000 Ang^3
#
#
#
# Elastic Constant Matrix: (Units=GPa)
#
#
# Indices 1 2 3 4 5 6 
#
# 1 195.2205 65.2199 72.8153 0.0000 0.0000 0.0000
# 2 65.2199 99.3139 10.8066 0.0000 0.0000 0.0000
# 3 72.8153 10.8066 148.2446 0.0000 0.0000 0.0000
# 4 0.0000 0.0000 0.0000 4.7508 0.0000 0.0000
# 5 0.0000 0.0000 0.0000 0.0000 49.8747 0.0000
# 6 0.0000 0.0000 0.0000 0.0000 0.0000 48.7429
#
#
#
# Elastic Compliance Matrix: (Units=1/GPa)
#
#
# Indices 1 2 3 4 5 6 
#
# 1 0.008129 -0.004943 -0.003632 0.000000 0.000000 0.000000
# 2 -0.004943 0.013155 0.001469 0.000000 0.000000 0.000000
# 3 -0.003632 0.001469 0.008423 0.000000 0.000000 0.000000
# 4 0.000000 0.000000 0.000000 0.210490 0.000000 0.000000
# 5 0.000000 0.000000 0.000000 0.000000 0.020050 0.000000
# 6 0.000000 0.000000 0.000000 0.000000 0.000000 0.020516
#
#
# Mechanical properties :
#
#
# Convention : Reuss Voigt Hill
#
# Bulk Modulus (GPa) = 64.54145 82.27362 73.40753
# Shear Modulus (GPa) = 16.65892 40.26950 28.46421
#
# Velocity S-wave (km/s) = 2.59825 4.03967 3.39631
# Velocity P-wave (km/s) = 5.92927 7.42290 6.71773
#
# Compressibility (1/GPa) = 0.01549392
#
# Stress axis : x y z
#
# Youngs Moduli (GPa) = 123.02348 76.01543 118.72749
#
# Poissons Ratio (x) = 0.37573 0.43125
# Poissons Ratio (y) = 0.60808 -0.17439
# Poissons Ratio (z) = 0.44686 -0.11166
#
# Static dielectric constant tensor:
#      x y z
#    x 1.938260 0.000000 0.000000 
#    y 0.000000 2.084470 0.000000 
#    z 0.000000 0.000000 1.991520 
# 
# From -- ./inp_files/20502.got.cif
#   From: 2010.05.17/outbox.cif.g08.bks.cpg/sg23_11_cif.got.tgz:20502.got - 2010.06.04 12:02:01.
