data_PCOD9331248
_publ_section_title
;
Structure prediction by ZEFSAII (Michael W. Deem and Ramdas Pophale) SiO2 
 PCOD9331248
Probable space group: I 2 2 2
;
_chemical_formula_sum "Si O2"
_cell_formula_units_Z 12
_cell_length_a 12.771460
_cell_length_b 6.822398
_cell_length_c 4.950241
_cell_angle_alpha 90.000000
_cell_angle_beta 90.000000
_cell_angle_gamma 90.000000
_cell_volume 431.324315
_symmetry_space_group_name_H-M "I 2 2 2"
_symmetry_group_IT_number 23
_symmetry_cell_setting 'orthorhombic'
loop_
_space_group_symop_operation_xyz
x,y,z
-x,-y,z
x,-y,-z
-x,y,-z
1/2+x,1/2+y,1/2+z
1/2-x,1/2-y,1/2+z
1/2+x,1/2-y,1/2-z
1/2-x,1/2+y,1/2-z
loop_
_atom_site_type_symbol
_atom_site_label
_atom_site_fract_x
_atom_site_fract_y
_atom_site_fract_z
Si Si1 0.876085 0.779208 0.022646
Si Si2 0.822697 0.500000 0.500000
O O1 0.863585 0.681608 0.309774
O O2 0.667991 0.848142 0.280446
O O3 0.000000 0.805147 0.000000
O O4 0.818286 0.000000 0.000000
#
# Coordination Sequence:
#
# PCOD9331248 Si02
#       2
#     8   4
#     4   9  22  48  81 118 162 212 274 334 408 489
#     4  10  21  48  85 112 166 214 266 344 406 484
#
# _framework density 27.821293000000001
#
# number of rings (size 3 to 8) (size 9 to 14) (size 15 to 20)
#    2.000    0.667    0.000    0.000    0.000    2.667 
#    6.000   13.333   44.000    0.000    0.000    0.000 
#    0.000    0.000    0.000    0.000    0.000    0.000 
#
# Total GULP energy -33422.460304 kJ/mol
# GULP energy per Si atom -5570.410051 kJ/mol
# Density = 2.775797 g / cm^3
# Si number density = 27.821293 Si / 1000 Ang^3
#
#
#
# Elastic Constant Matrix: (Units=GPa)
#
#
# Indices 1 2 3 4 5 6 
#
# 1 292.6658 80.6103 53.7259 0.0000 0.0000 0.0000
# 2 80.6103 165.6053 77.8664 0.0000 0.0000 0.0000
# 3 53.7259 77.8664 273.3266 0.0000 0.0000 0.0000
# 4 0.0000 0.0000 0.0000 -19.1082 0.0000 0.0000
# 5 0.0000 0.0000 0.0000 0.0000 20.4855 0.0000
# 6 0.0000 0.0000 0.0000 0.0000 0.0000 31.6520
#
#
#
# Elastic Compliance Matrix: (Units=1/GPa)
#
#
# Indices 1 2 3 4 5 6 
#
# 1 0.003962 -0.001804 -0.000265 0.000000 0.000000 0.000000
# 2 -0.001804 0.007794 -0.001866 0.000000 0.000000 0.000000
# 3 -0.000265 -0.001866 0.004242 0.000000 0.000000 0.000000
# 4 0.000000 0.000000 0.000000 -0.052333 0.000000 0.000000
# 5 0.000000 0.000000 0.000000 0.000000 0.048815 0.000000
# 6 0.000000 0.000000 0.000000 0.000000 0.000000 0.031594
#
#
# Mechanical properties :
#
#
# Convention : Reuss Voigt Hill
#
# Bulk Modulus (GPa) = 123.01735 128.44477 125.73106
# Shear Modulus (GPa) = 91.48614 41.23218 66.35916
#
# Velocity S-wave (km/s) = 5.74063 3.85390 4.88914
# Velocity P-wave (km/s) = 9.39430 8.12843 8.78420
#
# Compressibility (1/GPa) = 0.00812893
#
# Stress axis : x y z
#
# Youngs Moduli (GPa) = 252.37004 128.30500 235.72640
#
# Poissons Ratio (x) = 0.23149 0.06244
# Poissons Ratio (y) = 0.45533 0.43980
# Poissons Ratio (z) = 0.06685 0.23938
#
# Static dielectric constant tensor:
#      x y z
#    x 2.548340 0.000000 0.000000 
#    y 0.000000 2.314750 0.000000 
#    z 0.000000 0.000000 1.910380 
# 
# From -- ./inp_files/72.got.cif
#   From: 2010.05.17/outbox.cif.g08.bks.cpg/sg23_1_cif.got.tgz:72.got - 2010.06.04 12:02:01.
