data_PCOD9331233
_publ_section_title
;
Structure prediction by ZEFSAII (Michael W. Deem and Ramdas Pophale) SiO2 
 PCOD9331233
Probable space group: I 2 2 2
;
_chemical_formula_sum "Si O2"
_cell_formula_units_Z 56
_cell_length_a 14.742626
_cell_length_b 15.778380
_cell_length_c 10.774151
_cell_angle_alpha 90.000000
_cell_angle_beta 90.000000
_cell_angle_gamma 90.000000
_cell_volume 2506.226498
_symmetry_space_group_name_H-M "I 2 2 2"
_symmetry_group_IT_number 23
_symmetry_cell_setting 'orthorhombic'
loop_
_space_group_symop_operation_xyz
x,y,z
-x,-y,z
x,-y,-z
-x,y,-z
1/2+x,1/2+y,1/2+z
1/2-x,1/2-y,1/2+z
1/2+x,1/2-y,1/2-z
1/2-x,1/2+y,1/2-z
loop_
_atom_site_type_symbol
_atom_site_label
_atom_site_fract_x
_atom_site_fract_y
_atom_site_fract_z
Si Si1 0.602046 0.410868 0.946359
Si Si2 0.210533 0.446764 0.615911
Si Si3 0.692001 0.756426 0.121340
Si Si4 0.892259 0.514243 0.144260
Si Si5 0.418521 0.273088 0.366375
Si Si6 0.612647 0.208598 0.372798
Si Si7 0.901684 0.960052 0.842740
O O1 0.661349 0.325047 0.960838
O O2 0.596994 0.431296 0.800644
O O3 0.638549 0.500000 0.000000
O O4 0.500000 0.398161 0.000000
O O5 0.173625 0.500000 0.500000
O O6 0.192076 0.350996 0.571348
O O7 0.161522 0.464099 0.748397
O O8 0.315647 0.478790 0.634095
O O9 0.630126 0.751404 0.241550
O O10 0.794143 0.747616 0.167952
O O11 0.884255 0.613503 0.173335
O O12 0.000000 0.500000 0.149277
O O13 0.863216 0.500000 0.000000
O O14 0.524888 0.262706 0.339045
O O15 0.392202 0.209913 0.476856
O O16 0.394273 0.368346 0.409161
O O17 0.000000 0.000000 0.868234
#
# Coordination Sequence:
#
# PCOD9331233 Si02
#       7
#     8   8   8   8   8   8   8
#     4  10  21  44  70 107 145 182 252 323 390 448
#     4  12  27  46  64 105 150 195 250 299 380 462
#     4  11  24  42  67 102 140 191 240 306 376 453
#     4  11  23  45  73  98 132 188 245 309 369 446
#     4  10  22  42  65  99 134 175 247 307 375 448
#     4  11  22  42  68  96 132 183 240 306 370 447
#     4  11  22  41  69  99 141 191 237 309 378 458
#
# _framework density 22.344348
#
# number of rings (size 3 to 8) (size 9 to 14) (size 15 to 20)
#    0.000    1.143    1.429    6.857    0.000    5.143 
#   12.857    0.000    0.000    0.000    0.000    0.000 
#    0.000    0.000    0.000    0.000    0.000    0.000 
#
# Total GULP energy -156402.284165 kJ/mol
# GULP energy per Si atom -5585.795863 kJ/mol
# Density = 2.229349 g / cm^3
# Si number density = 22.344348 Si / 1000 Ang^3
#
#
#
# Elastic Constant Matrix: (Units=GPa)
#
#
# Indices 1 2 3 4 5 6 
#
# 1 105.5157 39.6009 27.7934 0.0000 0.0000 0.0000
# 2 39.6009 173.6562 18.3235 0.0000 0.0000 0.0000
# 3 27.7934 18.3235 70.8768 0.0000 0.0000 0.0000
# 4 0.0000 0.0000 0.0000 259.1807 0.0000 0.0000
# 5 0.0000 0.0000 0.0000 0.0000 -14.7724 0.0000
# 6 0.0000 0.0000 0.0000 0.0000 0.0000 26.2674
#
#
#
# Elastic Compliance Matrix: (Units=1/GPa)
#
#
# Indices 1 2 3 4 5 6 
#
# 1 0.011313 -0.002171 -0.003875 0.000000 0.000000 0.000000
# 2 -0.002171 0.006337 -0.000787 0.000000 0.000000 0.000000
# 3 -0.003875 -0.000787 0.015832 0.000000 0.000000 0.000000
# 4 0.000000 0.000000 0.000000 0.003858 0.000000 0.000000
# 5 0.000000 0.000000 0.000000 0.000000 -0.067694 0.000000
# 6 0.000000 0.000000 0.000000 0.000000 0.000000 0.038070
#
#
# Mechanical properties :
#
#
# Convention : Reuss Voigt Hill
#
# Bulk Modulus (GPa) = 50.46468 57.94269 54.20369
# Shear Modulus (GPa) = 178.66024 71.75722 125.20873
#
# Velocity S-wave (km/s) = 8.95161 5.67309 7.49384
# Velocity P-wave (km/s) = 11.37874 8.30060 9.95931
#
# Compressibility (1/GPa) = 0.01981584
#
# Stress axis : x y z
#
# Youngs Moduli (GPa) = 88.39636 157.81361 63.16357
#
# Poissons Ratio (x) = 0.34260 0.24475
# Poissons Ratio (y) = 0.19190 0.04970
# Poissons Ratio (z) = 0.34253 0.12418
#
# Static dielectric constant tensor:
#      x y z
#    x 0.378280 0.000000 0.000000 
#    y 0.000000 1.915770 0.000000 
#    z 0.000000 0.000000 2.076870 
# 
# From -- ./inp_files/16771.got.cif
#   From: 2010.05.17/outbox.cif.g08.bks.cpg/sg23_9_cif.got.tgz:16771.got - 2010.06.04 12:02:01.
