data_PCOD9331907
_publ_section_title
;
Structure prediction by ZEFSAII (Michael W. Deem and Ramdas Pophale) SiO2 
 PCOD9331907
Probable space group: I 2 2 2
;
_chemical_formula_sum "Si O2"
_cell_formula_units_Z 64
_cell_length_a 14.838496
_cell_length_b 23.112196
_cell_length_c 8.451672
_cell_angle_alpha 90.000000
_cell_angle_beta 90.000000
_cell_angle_gamma 90.000000
_cell_volume 2898.502839
_symmetry_space_group_name_H-M "I 2 2 2"
_symmetry_group_IT_number 23
_symmetry_cell_setting 'orthorhombic'
loop_
_space_group_symop_operation_xyz
x,y,z
-x,-y,z
x,-y,-z
-x,y,-z
1/2+x,1/2+y,1/2+z
1/2-x,1/2-y,1/2+z
1/2+x,1/2-y,1/2-z
1/2-x,1/2+y,1/2-z
loop_
_atom_site_type_symbol
_atom_site_label
_atom_site_fract_x
_atom_site_fract_y
_atom_site_fract_z
Si Si1 0.904407 0.243458 0.417789
Si Si2 0.732450 0.358528 0.006179
Si Si3 0.587367 0.193337 0.395321
Si Si4 0.339725 0.465566 0.164296
Si Si5 0.612232 0.295748 0.588803
Si Si6 0.307989 0.156827 0.919650
Si Si7 0.999371 0.088894 0.164411
Si Si8 0.790713 0.078216 0.828698
O O1 0.848078 0.187851 0.481764
O O2 0.919931 0.243973 0.231429
O O3 0.852866 0.302226 0.451356
O O4 0.000000 0.241426 0.500000
O O5 0.823346 0.324247 0.988037
O O6 0.717950 0.408042 0.871605
O O7 0.745183 0.391852 0.170588
O O8 0.500000 0.174125 0.500000
O O9 0.594531 0.263752 0.422106
O O10 0.616694 0.164250 0.224254
O O11 0.440140 0.444921 0.208760
O O12 0.299191 0.509164 0.295831
O O13 0.343187 0.500000 0.000000
O O14 0.716480 0.309240 0.624848
O O15 0.558825 0.354407 0.624897
O O16 0.264955 0.101190 0.017354
O O17 0.104551 0.099051 0.188822
O O18 0.000000 0.055868 0.000000
#
# Coordination Sequence:
#
# PCOD9331907 Si02
#       8
#     8   8   8   8   8   8   8   8
#     4  12  24  39  67  99 141 192 244 303 371 450
#     4  11  23  44  69 103 147 194 253 306 376 448
#     4  12  26  44  70 100 145 190 249 311 384 458
#     4  10  24  46  69 103 152 208 262 314 377 456
#     4  12  22  42  63  97 141 193 237 295 368 449
#     4  12  24  43  63 100 141 196 245 306 374 453
#     4  12  23  40  65 103 148 194 250 296 368 450
#     4  11  26  41  69  98 148 200 249 308 370 451
#
# _framework density 22.080366000000001
#
# number of rings (size 3 to 8) (size 9 to 14) (size 15 to 20)
#    0.000    0.500    5.000    3.000    1.750    4.000 
#    0.000    0.000    0.000    3.375    0.000    0.000 
#    7.500    0.000    0.000    0.000    0.000    0.000 
#
# Total GULP energy -178280.208334 kJ/mol
# GULP energy per Si atom -5571.256510 kJ/mol
# Density = 2.203011 g / cm^3
# Si number density = 22.080366 Si / 1000 Ang^3
#
#
#
# Elastic Constant Matrix: (Units=GPa)
#
#
# Indices 1 2 3 4 5 6 
#
# 1 120.5583 62.6241 31.5804 0.0001 0.0000 0.0000
# 2 62.6241 120.3510 36.4269 0.0000 0.0000 0.0000
# 3 31.5804 36.4269 102.6324 0.0004 0.0000 -0.0001
# 4 0.0001 0.0000 0.0004 53.1601 0.0000 -0.0001
# 5 0.0000 0.0000 0.0000 0.0000 43.7947 0.0000
# 6 0.0000 0.0000 -0.0001 -0.0001 0.0000 23.5953
#
#
#
# Elastic Compliance Matrix: (Units=1/GPa)
#
#
# Indices 1 2 3 4 5 6 
#
# 1 0.011597 -0.005550 -0.001598 0.000000 0.000000 0.000000
# 2 -0.005550 0.011966 -0.002539 0.000000 0.000000 0.000000
# 3 -0.001598 -0.002539 0.011136 0.000000 0.000000 0.000000
# 4 0.000000 0.000000 0.000000 0.018811 0.000000 0.000000
# 5 0.000000 0.000000 0.000000 0.000000 0.022834 0.000000
# 6 0.000000 0.000000 0.000000 0.000000 0.000000 0.042381
#
#
# Mechanical properties :
#
#
# Convention : Reuss Voigt Hill
#
# Bulk Modulus (GPa) = 65.26075 67.20050 66.23062
# Shear Modulus (GPa) = 34.91417 38.30406 36.60911
#
# Velocity S-wave (km/s) = 3.98078 4.16956 4.07626
# Velocity P-wave (km/s) = 7.12384 7.32672 7.22599
#
# Compressibility (1/GPa) = 0.01532315
#
# Stress axis : x y z
#
# Youngs Moduli (GPa) = 86.23196 83.57223 89.79494
#
# Poissons Ratio (x) = 0.46387 0.14352
# Poissons Ratio (y) = 0.47863 0.22799
# Poissons Ratio (z) = 0.13783 0.21219
#
# Static dielectric constant tensor:
#      x y z
#    x 1.723080 0.000000 0.000000 
#    y 0.000000 1.886820 0.000000 
#    z 0.000000 0.000000 1.920180 
# 
# From -- ./inp_files/10358.got.cif
#   From: 2010.05.17/outbox.cif.g08.bks.cpg/sg23_6_cif.got.tgz:10358.got - 2010.06.04 12:02:01.
