data_PCOD9331862
_publ_section_title
;
Structure prediction by ZEFSAII (Michael W. Deem and Ramdas Pophale) SiO2 
 PCOD9331862
Probable space group: I 2 2 2
;
_chemical_formula_sum "Si O2"
_cell_formula_units_Z 60
_cell_length_a 6.440514
_cell_length_b 25.186964
_cell_length_c 18.825481
_cell_angle_alpha 90.000000
_cell_angle_beta 90.000000
_cell_angle_gamma 90.000000
_cell_volume 3053.812943
_symmetry_space_group_name_H-M "I 2 2 2"
_symmetry_group_IT_number 23
_symmetry_cell_setting 'orthorhombic'
loop_
_space_group_symop_operation_xyz
x,y,z
-x,-y,z
x,-y,-z
-x,y,-z
1/2+x,1/2+y,1/2+z
1/2-x,1/2-y,1/2+z
1/2+x,1/2-y,1/2-z
1/2-x,1/2+y,1/2-z
loop_
_atom_site_type_symbol
_atom_site_label
_atom_site_fract_x
_atom_site_fract_y
_atom_site_fract_z
Si Si1 0.320335 0.366865 0.317058
Si Si2 0.500000 0.000000 0.385182
Si Si3 0.358779 0.806688 0.565387
Si Si4 0.434171 0.795196 0.081033
Si Si5 0.134774 0.947771 0.300383
Si Si6 0.643862 0.418942 0.066495
Si Si7 0.946048 0.307967 0.791613
Si Si8 0.794743 0.194727 0.812925
O O1 0.173149 0.346073 0.380508
O O2 0.324682 0.422678 0.277178
O O3 0.246716 0.332262 0.248810
O O4 0.550162 0.349934 0.339010
O O5 0.647481 0.037433 0.337255
O O6 0.335555 0.039203 0.424967
O O7 0.500000 0.790116 0.500000
O O8 0.215979 0.756249 0.586339
O O9 0.228081 0.859726 0.551366
O O10 0.518470 0.821686 0.627697
O O11 0.640818 0.784838 0.126440
O O12 0.500000 0.803853 0.000000
O O13 0.994604 0.917767 0.360841
O O14 0.000000 0.000000 0.288894
O O15 0.500000 0.435055 0.000000
O O16 0.925053 0.244864 0.786489
O O17 0.150745 0.326244 0.749978
#
# Coordination Sequence:
#
# PCOD9331862 Si02
#       8
#     8   4   8   8   8   8   8   8
#     4  11  23  38  66  90 122 166 209 262 326 381
#     4  10  24  49  66  88 127 164 222 280 329 368
#     4  12  25  41  59  88 137 180 214 266 314 371
#     4  11  25  40  59  92 131 170 212 252 316 397
#     4  10  24  43  67  94 123 157 218 279 325 387
#     4  11  26  41  63  91 123 178 220 274 320 378
#     4  11  20  34  56  87 119 167 210 251 302 369
#     4  11  20  36  60  88 122 162 209 256 303 380
#
# _framework density 19.647569000000001
#
# number of rings (size 3 to 8) (size 9 to 14) (size 15 to 20)
#    0.000    1.067    2.667    3.600    5.600    6.133 
#    0.000    0.000    0.000    0.000    0.000    7.000 
#    0.000    0.000    0.000    0.000    0.000    0.000 
#
# Total GULP energy -167439.934763 kJ/mol
# GULP energy per Si atom -5581.331159 kJ/mol
# Density = 1.960285 g / cm^3
# Si number density = 19.647569 Si / 1000 Ang^3
#
#
#
# Elastic Constant Matrix: (Units=GPa)
#
#
# Indices 1 2 3 4 5 6 
#
# 1 98.9842 26.9981 27.3475 0.0000 0.0000 0.0000
# 2 26.9981 55.3734 15.9297 0.0000 0.0000 0.0000
# 3 27.3475 15.9297 90.9832 0.0000 0.0000 0.0000
# 4 0.0000 0.0000 0.0000 21.8706 0.0000 0.0000
# 5 0.0000 0.0000 0.0000 0.0000 27.3526 0.0000
# 6 0.0000 0.0000 0.0000 0.0000 0.0000 22.6858
#
#
#
# Elastic Compliance Matrix: (Units=1/GPa)
#
#
# Indices 1 2 3 4 5 6 
#
# 1 0.012288 -0.005190 -0.002785 0.000000 0.000000 0.000000
# 2 -0.005190 0.021209 -0.002153 0.000000 0.000000 0.000000
# 3 -0.002785 -0.002153 0.012205 0.000000 0.000000 0.000000
# 4 0.000000 0.000000 0.000000 0.045724 0.000000 0.000000
# 5 0.000000 0.000000 0.000000 0.000000 0.036560 0.000000
# 6 0.000000 0.000000 0.000000 0.000000 0.000000 0.044080
#
#
# Mechanical properties :
#
#
# Convention : Reuss Voigt Hill
#
# Bulk Modulus (GPa) = 39.29927 42.87681 41.08804
# Shear Modulus (GPa) = 24.90001 26.05283 25.47642
#
# Velocity S-wave (km/s) = 3.56382 3.64539 3.60484
# Velocity P-wave (km/s) = 6.08112 6.29196 6.18744
#
# Compressibility (1/GPa) = 0.02544577
#
# Stress axis : x y z
#
# Youngs Moduli (GPa) = 81.38340 47.14956 81.93306
#
# Poissons Ratio (x) = 0.24470 0.22816
# Poissons Ratio (y) = 0.42237 0.17644
# Poissons Ratio (z) = 0.22663 0.10153
#
# Static dielectric constant tensor:
#      x y z
#    x 1.729700 0.000000 0.000000 
#    y 0.000000 1.746320 0.000000 
#    z 0.000000 0.000000 1.736610 
# 
# From -- ./inp_files/25808.got.cif
#   From: 2010.05.17/outbox.cif.g08.bks.cpg/sg23_13_cif.got.tgz:25808.got - 2010.06.04 12:02:01.
