data_PCOD9331852
_publ_section_title
;
Structure prediction by ZEFSAII (Michael W. Deem and Ramdas Pophale) SiO2 
 PCOD9331852
Probable space group: I 2 2 2
;
_chemical_formula_sum "Si O2"
_cell_formula_units_Z 56
_cell_length_a 20.685527
_cell_length_b 13.800748
_cell_length_c 8.468579
_cell_angle_alpha 90.000000
_cell_angle_beta 90.000000
_cell_angle_gamma 90.000000
_cell_volume 2417.573902
_symmetry_space_group_name_H-M "I 2 2 2"
_symmetry_group_IT_number 23
_symmetry_cell_setting 'orthorhombic'
loop_
_space_group_symop_operation_xyz
x,y,z
-x,-y,z
x,-y,-z
-x,y,-z
1/2+x,1/2+y,1/2+z
1/2-x,1/2-y,1/2+z
1/2+x,1/2-y,1/2-z
1/2-x,1/2+y,1/2-z
loop_
_atom_site_type_symbol
_atom_site_label
_atom_site_fract_x
_atom_site_fract_y
_atom_site_fract_z
Si Si1 0.768890 0.820980 0.745055
Si Si2 0.539826 0.233590 0.161249
Si Si3 0.844530 0.500000 0.000000
Si Si4 0.090992 0.048266 0.338334
Si Si5 0.613385 0.406328 0.584607
Si Si6 0.226490 0.130634 0.394661
Si Si7 0.000000 0.230931 0.000000
Si Si8 0.857496 0.434971 0.662047
O O1 0.830980 0.838117 0.851702
O O2 0.793255 0.829081 0.566017
O O3 0.737456 0.716557 0.772668
O O4 0.715593 0.900260 0.797639
O O5 0.563422 0.344599 0.168749
O O6 0.503300 0.215153 0.329803
O O7 0.599513 0.160602 0.142420
O O8 0.500000 0.222108 0.000000
O O9 0.794864 0.582488 0.937923
O O10 0.880415 0.476617 0.834908
O O11 0.169807 0.060227 0.336824
O O12 0.073062 0.000000 0.500000
O O13 0.072940 0.966241 0.213547
O O14 0.643887 0.500000 0.500000
O O15 0.563006 0.337548 0.499191
O O16 0.860150 0.500000 0.500000
#
# Coordination Sequence:
#
# PCOD9331852 Si02
#       8
#     8   8   4   8   8   8   4   8
#     4  11  25  40  70 109 144 191 236 307 368 437
#     4  12  29  49  76 104 145 197 249 306 364 431
#     4  10  24  42  72 109 149 188 234 312 366 432
#     4  12  22  44  70 101 146 188 239 290 357 438
#     4  12  25  41  71 102 146 190 229 291 361 444
#     4  11  23  40  66 107 148 185 240 293 377 431
#     4  12  29  48  70 113 148 194 254 289 366 445
#     4  11  26  50  75 108 145 193 251 304 368 431
#
# _framework density 23.163717999999999
#
# number of rings (size 3 to 8) (size 9 to 14) (size 15 to 20)
#    0.000    0.571    5.000    2.357    8.000    2.857 
#    0.000    0.000    0.000    0.000    0.000    0.000 
#    0.000    0.000    0.000    0.000    0.000    0.000 
#
# Total GULP energy -156389.192240 kJ/mol
# GULP energy per Si atom -5585.328294 kJ/mol
# Density = 2.311100 g / cm^3
# Si number density = 23.163718 Si / 1000 Ang^3
#
#
#
# Elastic Constant Matrix: (Units=GPa)
#
#
# Indices 1 2 3 4 5 6 
#
# 1 78.2319 12.5831 27.9368 0.0000 0.0000 0.0000
# 2 12.5831 53.0262 25.9712 0.0000 0.0000 0.0000
# 3 27.9368 25.9712 156.5861 0.0000 0.0000 0.0000
# 4 0.0000 0.0000 0.0000 20.2348 0.0000 0.0000
# 5 0.0000 0.0000 0.0000 0.0000 31.3504 0.0000
# 6 0.0000 0.0000 0.0000 0.0000 0.0000 25.9490
#
#
#
# Elastic Compliance Matrix: (Units=1/GPa)
#
#
# Indices 1 2 3 4 5 6 
#
# 1 0.013898 -0.002268 -0.002104 0.000000 0.000000 0.000000
# 2 -0.002268 0.020896 -0.003061 0.000000 0.000000 0.000000
# 3 -0.002104 -0.003061 0.007269 0.000000 0.000000 0.000000
# 4 0.000000 0.000000 0.000000 0.049420 0.000000 0.000000
# 5 0.000000 0.000000 0.000000 0.000000 0.031897 0.000000
# 6 0.000000 0.000000 0.000000 0.000000 0.000000 0.038537
#
#
# Mechanical properties :
#
#
# Convention : Reuss Voigt Hill
#
# Bulk Modulus (GPa) = 36.76644 46.75850 41.76247
# Shear Modulus (GPa) = 26.90346 30.26370 28.58358
#
# Velocity S-wave (km/s) = 3.41170 3.61849 3.51662
# Velocity P-wave (km/s) = 5.60593 6.13905 5.87854
#
# Compressibility (1/GPa) = 0.02719872
#
# Stress axis : x y z
#
# Youngs Moduli (GPa) = 71.95046 47.85585 137.56524
#
# Poissons Ratio (x) = 0.10853 0.28937
# Poissons Ratio (y) = 0.16317 0.42111
# Poissons Ratio (z) = 0.15135 0.14650
#
# Static dielectric constant tensor:
#      x y z
#    x 1.849090 0.000000 0.000000 
#    y 0.000000 1.830720 0.000000 
#    z 0.000000 0.000000 2.069570 
# 
# From -- ./inp_files/12085.got.cif
#   From: 2010.05.17/outbox.cif.g08.bks.cpg/sg23_7_cif.got.tgz:12085.got - 2010.06.04 12:02:01.
