data_PCOD9331583
_publ_section_title
;
Structure prediction by ZEFSAII (Michael W. Deem and Ramdas Pophale) SiO2 
 PCOD9331583
Probable space group: I 2 2 2
;
_chemical_formula_sum "Si O2"
_cell_formula_units_Z 40
_cell_length_a 5.394002
_cell_length_b 28.184551
_cell_length_c 11.967205
_cell_angle_alpha 90.000000
_cell_angle_beta 90.000000
_cell_angle_gamma 90.000000
_cell_volume 1819.344551
_symmetry_space_group_name_H-M "I 2 2 2"
_symmetry_group_IT_number 23
_symmetry_cell_setting 'orthorhombic'
loop_
_space_group_symop_operation_xyz
x,y,z
-x,-y,z
x,-y,-z
-x,y,-z
1/2+x,1/2+y,1/2+z
1/2-x,1/2-y,1/2+z
1/2+x,1/2-y,1/2-z
1/2-x,1/2+y,1/2-z
loop_
_atom_site_type_symbol
_atom_site_label
_atom_site_fract_x
_atom_site_fract_y
_atom_site_fract_z
Si Si1 0.298305 0.585853 0.402021
Si Si2 0.500000 0.326846 0.000000
Si Si3 0.000000 0.000000 0.500000
Si Si4 0.000000 0.613216 0.000000
Si Si5 0.000000 0.500000 0.500000
Si Si6 0.886436 0.251023 0.679500
Si Si7 0.000000 0.328287 0.500000
Si Si8 0.343612 0.952822 0.679529
O O1 0.500000 0.587367 0.500000
O O2 0.154987 0.634876 0.423685
O O3 0.321677 0.575633 0.270571
O O4 0.158946 0.536864 0.430459
O O5 0.515943 0.293309 0.108052
O O6 0.750600 0.356590 0.003882
O O7 0.833450 0.969318 0.419065
O O8 0.022713 0.582974 0.885544
O O9 0.618013 0.240441 0.735199
O O10 0.862240 0.294124 0.589026
O O11 0.500000 0.000000 0.714794
#
# Coordination Sequence:
#
# PCOD9331583 Si02
#       8
#     8   4   2   4   2   8   4   8
#     4  11  26  45  74 105 150 201 254 317 387 465
#     4  11  27  45  73 115 147 187 259 312 382 472
#     4  12  24  44  68 114 142 222 254 328 390 454
#     4  12  25  48  74 114 150 196 264 321 388 458
#     4  10  22  46  60 108 138 188 244 296 376 446
#     4  11  26  49  79 107 151 197 242 315 397 462
#     4  10  28  47  71 113 141 192 262 300 392 472
#     4  12  26  46  72 103 157 201 260 326 390 457
#
# _framework density 21.985938999999998
#
# number of rings (size 3 to 8) (size 9 to 14) (size 15 to 20)
#    0.000    0.800    3.000    2.100   11.200    1.600 
#    0.000    0.000    0.000    0.000    0.000    0.000 
#    0.000    0.000    0.000    0.000    0.000    0.000 
#
# Total GULP energy -111522.945032 kJ/mol
# GULP energy per Si atom -5576.147252 kJ/mol
# Density = 2.193590 g / cm^3
# Si number density = 21.985939 Si / 1000 Ang^3
#
#
#
# Elastic Constant Matrix: (Units=GPa)
#
#
# Indices 1 2 3 4 5 6 
#
# 1 74.7593 26.7210 26.9653 0.0000 0.0000 0.0000
# 2 26.7210 121.4388 35.5950 0.0000 0.0000 0.0000
# 3 26.9653 35.5950 132.4884 0.0000 0.0000 0.0001
# 4 0.0000 0.0000 0.0000 28.2388 0.0000 0.0000
# 5 0.0000 0.0000 0.0000 0.0000 64.8286 0.0000
# 6 0.0000 0.0000 0.0001 0.0000 0.0000 11.1184
#
#
#
# Elastic Compliance Matrix: (Units=1/GPa)
#
#
# Indices 1 2 3 4 5 6 
#
# 1 0.015179 -0.002642 -0.002379 0.000000 0.000000 0.000000
# 2 -0.002642 0.009399 -0.001987 0.000000 0.000000 0.000000
# 3 -0.002379 -0.001987 0.008566 0.000000 0.000000 0.000000
# 4 0.000000 0.000000 0.000000 0.035412 0.000000 0.000000
# 5 0.000000 0.000000 0.000000 0.000000 0.015425 0.000000
# 6 0.000000 0.000000 0.000000 0.000000 0.000000 0.089941
#
#
# Mechanical properties :
#
#
# Convention : Reuss Voigt Hill
#
# Bulk Modulus (GPa) = 52.28696 56.36102 54.32399
# Shear Modulus (GPa) = 25.73135 36.79751 31.26443
#
# Velocity S-wave (km/s) = 3.42476 4.09551 3.77506
# Velocity P-wave (km/s) = 6.28269 6.93216 6.61540
#
# Compressibility (1/GPa) = 0.01912523
#
# Stress axis : x y z
#
# Youngs Moduli (GPa) = 65.88048 106.39965 116.74045
#
# Poissons Ratio (x) = 0.28116 0.27778
# Poissons Ratio (y) = 0.17409 0.23199
# Poissons Ratio (z) = 0.15676 0.21144
#
# Static dielectric constant tensor:
#      x y z
#    x 1.963410 0.000000 0.000000 
#    y 0.000000 1.818830 0.000000 
#    z 0.000000 0.000000 1.965230 
# 
# From -- ./inp_files/1787.got.cif
#   From: 2010.05.17/outbox.cif.g08.bks.cpg/sg23_1_cif.got.tgz:1787.got - 2010.06.04 12:02:01.
