data_PCOD9331540
_publ_section_title
;
Structure prediction by ZEFSAII (Michael W. Deem and Ramdas Pophale) SiO2 
 PCOD9331540
Probable space group: I 2 2 2
;
_chemical_formula_sum "Si O2"
_cell_formula_units_Z 58
_cell_length_a 32.970290
_cell_length_b 7.174478
_cell_length_c 11.464465
_cell_angle_alpha 90.000000
_cell_angle_beta 90.000000
_cell_angle_gamma 90.000000
_cell_volume 2711.857520
_symmetry_space_group_name_H-M "I 2 2 2"
_symmetry_group_IT_number 23
_symmetry_cell_setting 'orthorhombic'
loop_
_space_group_symop_operation_xyz
x,y,z
-x,-y,z
x,-y,-z
-x,y,-z
1/2+x,1/2+y,1/2+z
1/2-x,1/2-y,1/2+z
1/2+x,1/2-y,1/2-z
1/2-x,1/2+y,1/2-z
loop_
_atom_site_type_symbol
_atom_site_label
_atom_site_fract_x
_atom_site_fract_y
_atom_site_fract_z
Si Si1 0.271784 0.877427 0.382585
Si Si2 0.023629 0.310027 0.608945
Si Si3 0.691955 0.802892 0.219904
Si Si4 0.500000 0.000000 0.500000
Si Si5 0.386214 0.771500 0.930741
Si Si6 0.519129 0.683416 0.675925
Si Si7 0.896941 0.139232 0.682099
Si Si8 0.834761 0.044487 0.875036
O O1 0.227048 0.805351 0.350596
O O2 0.298368 0.690070 0.395182
O O3 0.271597 0.000000 0.500000
O O4 0.289932 0.013181 0.281840
O O5 0.070179 0.358416 0.593547
O O6 0.000000 0.500000 0.621885
O O7 0.000000 0.214397 0.500000
O O8 0.016592 0.211530 0.729742
O O9 0.653770 0.842048 0.135143
O O10 0.678384 0.651358 0.317252
O O11 0.476771 0.143291 0.586777
O O12 0.393882 0.565311 0.876237
O O13 0.384068 0.763856 0.071165
O O14 0.500000 0.500000 0.617305
O O15 0.559673 0.670954 0.756092
O O16 0.864723 0.143859 0.785454
O O17 0.854212 0.000000 0.000000
#
# Coordination Sequence:
#
# PCOD9331540 Si02
#       8
#     8   8   8   2   8   8   8   8
#     4  12  25  45  73 105 142 196 237 291 376 441
#     4  11  22  40  73 104 146 185 227 294 364 433
#     4  11  25  44  73 106 148 184 241 307 362 440
#     4  12  30  48  62  98 136 188 258 290 352 438
#     4  10  22  43  71 112 142 182 238 304 369 436
#     4  12  24  46  71  98 136 188 236 294 360 433
#     4  10  23  42  74 104 139 183 241 301 364 432
#     4  11  24  46  67 100 143 188 240 289 354 434
#
# _framework density 21.387554999999999
#
# number of rings (size 3 to 8) (size 9 to 14) (size 15 to 20)
#    0.000    0.966    6.207    0.207    3.862    2.483 
#    1.241    1.379    0.000    0.000    0.000    0.000 
#    0.000    0.000    0.000    0.000    0.000    0.000 
#
# Total GULP energy -161822.076128 kJ/mol
# GULP energy per Si atom -5580.071591 kJ/mol
# Density = 2.133888 g / cm^3
# Si number density = 21.387555 Si / 1000 Ang^3
#
#
#
# Elastic Constant Matrix: (Units=GPa)
#
#
# Indices 1 2 3 4 5 6 
#
# 1 139.5299 29.4429 72.8528 0.0000 0.0000 0.0000
# 2 29.4429 83.0835 37.3810 0.0000 0.0000 0.0000
# 3 72.8528 37.3810 168.4425 0.0000 0.0000 0.0000
# 4 0.0000 0.0000 0.0000 0.9801 0.0000 0.0000
# 5 0.0000 0.0000 0.0000 0.0000 7.6410 0.0000
# 6 0.0000 0.0000 0.0000 0.0000 0.0000 31.0937
#
#
#
# Elastic Compliance Matrix: (Units=1/GPa)
#
#
# Indices 1 2 3 4 5 6 
#
# 1 0.009464 -0.001680 -0.003720 0.000000 0.000000 0.000000
# 2 -0.001680 0.013669 -0.002307 0.000000 0.000000 0.000000
# 3 -0.003720 -0.002307 0.008058 0.000000 0.000000 0.000000
# 4 0.000000 0.000000 0.000000 1.020326 0.000000 0.000000
# 5 0.000000 0.000000 0.000000 0.000000 0.130873 0.000000
# 6 0.000000 0.000000 0.000000 0.000000 0.000000 0.032161
#
#
# Mechanical properties :
#
#
# Convention : Reuss Voigt Hill
#
# Bulk Modulus (GPa) = 63.38521 74.48993 68.93757
# Shear Modulus (GPa) = 4.04785 24.70155 14.37470
#
# Velocity S-wave (km/s) = 1.37722 3.40214 2.59531
# Velocity P-wave (km/s) = 5.67713 7.09486 6.42522
#
# Compressibility (1/GPa) = 0.01577655
#
# Stress axis : x y z
#
# Youngs Moduli (GPa) = 105.66397 73.15635 124.10296
#
# Poissons Ratio (x) = 0.12290 0.46172
# Poissons Ratio (y) = 0.17751 0.28630
# Poissons Ratio (z) = 0.39312 0.16877
#
# Static dielectric constant tensor:
#      x y z
#    x 1.761700 0.000000 0.000000 
#    y 0.000000 1.945000 0.000000 
#    z 0.000000 0.000000 1.807390 
# 
# From -- ./inp_files/18779.got.cif
#   From: 2010.05.17/outbox.cif.g08.bks.cpg/sg23_10_cif.got.tgz:18779.got - 2010.06.04 12:02:01.
