data_PCOD9331828
_publ_section_title
;
Structure prediction by ZEFSAII (Michael W. Deem and Ramdas Pophale) SiO2 
 PCOD9331828
Probable space group: I 2 2 2
;
_chemical_formula_sum "Si O2"
_cell_formula_units_Z 38
_cell_length_a 33.205157
_cell_length_b 9.632323
_cell_length_c 4.904869
_cell_angle_alpha 90.000000
_cell_angle_beta 90.000000
_cell_angle_gamma 90.000000
_cell_volume 1568.787022
_symmetry_space_group_name_H-M "I 2 2 2"
_symmetry_group_IT_number 23
_symmetry_cell_setting 'orthorhombic'
loop_
_space_group_symop_operation_xyz
x,y,z
-x,-y,z
x,-y,-z
-x,y,-z
1/2+x,1/2+y,1/2+z
1/2-x,1/2-y,1/2+z
1/2+x,1/2-y,1/2-z
1/2-x,1/2+y,1/2-z
loop_
_atom_site_type_symbol
_atom_site_label
_atom_site_fract_x
_atom_site_fract_y
_atom_site_fract_z
Si Si1 0.435466 0.791745 0.716983
Si Si2 0.870618 0.500000 0.000000
Si Si3 0.340094 0.500000 0.000000
Si Si4 0.079660 0.884559 0.709514
Si Si5 0.175574 0.500000 0.500000
Si Si6 0.500000 0.000000 0.500000
Si Si7 0.778086 0.242737 0.394522
O O1 0.396790 0.879307 0.631917
O O2 0.435427 0.658064 0.509916
O O3 0.472408 0.895102 0.672341
O O4 0.429635 0.750362 0.028385
O O5 0.848636 0.570071 0.256374
O O6 0.372778 0.427043 0.796742
O O7 0.309887 0.616853 0.882435
O O8 0.061010 0.000000 0.500000
O O9 0.199808 0.614241 0.334040
O O10 0.740609 0.233577 0.192574
#
# Coordination Sequence:
#
# PCOD9331828 Si02
#       7
#     8   4   4   8   4   2   8
#     4  11  22  45  63 106 129 174 218 266 338 400
#     4  11  22  36  68  88 128 161 214 281 308 398
#     4  10  24  43  68  94 126 185 218 285 340 380
#     4  10  24  41  71  94 132 172 235 274 318 397
#     4  12  24  42  60  97 122 170 224 280 332 389
#     4  10  28  42  78  96 152 174 208 276 360 400
#     4  12  25  41  61  90 131 171 220 276 344 412
#
# _framework density 24.222536000000002
#
# number of rings (size 3 to 8) (size 9 to 14) (size 15 to 20)
#    0.632    0.421    0.000    6.947    0.000    7.579 
#    0.000    3.158    0.000    0.000    0.000    0.000 
#    0.000    0.000    0.000    0.000    0.000    0.000 
#
# Total GULP energy -106114.169311 kJ/mol
# GULP energy per Si atom -5584.956280 kJ/mol
# Density = 2.416740 g / cm^3
# Si number density = 24.222536 Si / 1000 Ang^3
#
#
#
# Elastic Constant Matrix: (Units=GPa)
#
#
# Indices 1 2 3 4 5 6 
#
# 1 88.1391 29.8465 19.0607 -0.0004 -0.0002 -0.0010
# 2 29.8465 84.9251 7.5732 -0.0028 -0.0012 -0.0034
# 3 19.0607 7.5732 113.5043 -0.0030 -0.0021 -0.0055
# 4 -0.0004 -0.0028 -0.0030 30.4101 -0.0013 -0.0038
# 5 -0.0002 -0.0012 -0.0021 -0.0013 -0.1216 -0.0014
# 6 -0.0010 -0.0034 -0.0055 -0.0038 -0.0014 10.1188
#
#
#
# Elastic Compliance Matrix: (Units=1/GPa)
#
#
# Indices 1 2 3 4 5 6 
#
# 1 0.013286 -0.004497 -0.001931 0.000000 0.000051 -0.000001
# 2 -0.004497 0.013368 -0.000137 0.000001 -0.000122 0.000004
# 3 -0.001931 -0.000137 0.009144 0.000001 -0.000151 0.000005
# 4 0.000000 0.000001 0.000001 0.032884 -0.000346 0.000012
# 5 0.000051 -0.000122 -0.000151 -0.000346 -8.221786 -0.001150
# 6 -0.000001 0.000004 0.000005 0.000012 -0.001150 0.098825
#
#
# Mechanical properties :
#
#
# Convention : Reuss Voigt Hill
#
# Bulk Modulus (GPa) = 44.11567 44.39216 44.25391
# Shear Modulus (GPa) = -0.62239 23.42066 11.39914
#
# Velocity S-wave (km/s) = -0.50745 3.11287 2.17169
# Velocity P-wave (km/s) = 4.23189 5.59343 4.95961
#
# Compressibility (1/GPa) = 0.02266768
#
# Stress axis : x y z
#
# Youngs Moduli (GPa) = 75.26611 74.80678 109.36556
#
# Poissons Ratio (x) = 0.33642 0.21119
# Poissons Ratio (y) = 0.33848 0.01495
# Poissons Ratio (z) = 0.14535 0.01023
#
# Static dielectric constant tensor:
#      x y z
#    x 1.949230 0.000000 0.000000 
#    y 0.000000 1.960800 0.000000 
#    z 0.000000 0.000000 2.018290 
# 
# From -- ./inp_files/5291.got.cif
#   From: 2010.05.17/outbox.cif.g08.bks.cpg/sg23_3_cif.got.tgz:5291.got - 2010.06.04 12:02:01.
