data_PCOD9331139
_publ_section_title
;
Structure prediction by ZEFSAII (Michael W. Deem and Ramdas Pophale) SiO2 
 PCOD9331139
Probable space group: I 2 2 2
;
_chemical_formula_sum "Si O2"
_cell_formula_units_Z 52
_cell_length_a 11.383641
_cell_length_b 7.863128
_cell_length_c 24.484570
_cell_angle_alpha 90.000000
_cell_angle_beta 90.000000
_cell_angle_gamma 90.000000
_cell_volume 2191.638989
_symmetry_space_group_name_H-M "I 2 2 2"
_symmetry_group_IT_number 23
_symmetry_cell_setting 'orthorhombic'
loop_
_space_group_symop_operation_xyz
x,y,z
-x,-y,z
x,-y,-z
-x,y,-z
1/2+x,1/2+y,1/2+z
1/2-x,1/2-y,1/2+z
1/2+x,1/2-y,1/2-z
1/2-x,1/2+y,1/2-z
loop_
_atom_site_type_symbol
_atom_site_label
_atom_site_fract_x
_atom_site_fract_y
_atom_site_fract_z
Si Si1 0.495564 0.303811 0.604650
Si Si2 0.755888 0.197592 0.058376
Si Si3 0.162720 0.296992 0.327080
Si Si4 0.754881 0.011629 0.257459
Si Si5 0.265253 0.206523 0.061400
Si Si6 0.424064 0.327621 0.159397
Si Si7 0.500000 0.000000 0.689179
O O1 0.500000 0.500000 0.624204
O O2 0.603270 0.290203 0.562217
O O3 0.370124 0.265101 0.577862
O O4 0.514469 0.167672 0.652072
O O5 0.706834 0.272204 0.114741
O O6 0.720188 0.998456 0.061118
O O7 0.713635 0.267569 0.000562
O O8 0.241115 0.456156 0.307175
O O9 0.023597 0.313327 0.331017
O O10 0.189762 0.162666 0.279122
O O11 0.839312 0.144962 0.288941
O O12 0.621113 0.020102 0.278388
O O13 0.348725 0.288127 0.106192
O O14 0.500000 0.500000 0.152719
#
# Coordination Sequence:
#
# PCOD9331139 Si02
#       7
#     8   8   8   8   8   8   4
#     4  10  21  40  72 107 145 183 230 299 360 424
#     4  10  22  41  69 109 139 184 240 290 352 440
#     4  11  26  44  69  96 139 181 240 289 353 426
#     4  11  26  45  67 100 136 181 237 294 352 424
#     4  10  21  42  72 102 147 184 227 295 366 419
#     4  10  24  47  67 101 140 182 234 294 358 435
#     4  12  22  42  73 106 136 183 242 292 360 432
#
# _framework density 23.726538000000001
#
# number of rings (size 3 to 8) (size 9 to 14) (size 15 to 20)
#    0.000    1.538    3.077    0.462    4.308    3.077 
#    0.000   13.846    0.000    0.000    0.000    0.000 
#    0.000    0.000    0.000    0.000    0.000    0.000 
#
# Total GULP energy -145483.038296 kJ/mol
# GULP energy per Si atom -5595.501473 kJ/mol
# Density = 2.367254 g / cm^3
# Si number density = 23.726538 Si / 1000 Ang^3
#
#
#
# Elastic Constant Matrix: (Units=GPa)
#
#
# Indices 1 2 3 4 5 6 
#
# 1 144.7904 32.8087 71.8247 0.0000 0.0000 0.0000
# 2 32.8087 61.5669 40.7571 0.0000 0.0000 0.0000
# 3 71.8247 40.7571 155.1245 0.0000 0.0000 0.0000
# 4 0.0000 0.0000 0.0000 21.8691 0.0000 0.0000
# 5 0.0000 0.0000 0.0000 0.0000 26.7089 0.0000
# 6 0.0000 0.0000 0.0000 0.0000 0.0000 31.8989
#
#
#
# Elastic Compliance Matrix: (Units=1/GPa)
#
#
# Indices 1 2 3 4 5 6 
#
# 1 0.009284 -0.002544 -0.003630 0.000000 0.000000 0.000000
# 2 -0.002544 0.020360 -0.004171 0.000000 0.000000 0.000000
# 3 -0.003630 -0.004171 0.009223 0.000000 0.000000 0.000000
# 4 0.000000 0.000000 0.000000 0.045727 0.000000 0.000000
# 5 0.000000 0.000000 0.000000 0.000000 0.037441 0.000000
# 6 0.000000 0.000000 0.000000 0.000000 0.000000 0.031349
#
#
# Mechanical properties :
#
#
# Convention : Reuss Voigt Hill
#
# Bulk Modulus (GPa) = 55.01899 72.47366 63.74632
# Shear Modulus (GPa) = 27.75737 30.50147 29.12942
#
# Velocity S-wave (km/s) = 3.42407 3.58934 3.50768
# Velocity P-wave (km/s) = 6.23470 6.91299 6.58259
#
# Compressibility (1/GPa) = 0.01817554
#
# Stress axis : x y z
#
# Youngs Moduli (GPa) = 107.71497 49.11682 108.42290
#
# Poissons Ratio (x) = 0.12496 0.39358
# Poissons Ratio (y) = 0.27405 0.45226
# Poissons Ratio (z) = 0.39101 0.20488
#
# Static dielectric constant tensor:
#      x y z
#    x 1.862180 0.000000 0.000000 
#    y 0.000000 2.038250 0.000000 
#    z 0.000000 0.000000 1.892790 
# 
# From -- ./inp_files/29433.got.cif
#   From: 2010.05.17/outbox.cif.g08.bks.cpg/sg23_15_cif.got.tgz:29433.got - 2010.06.04 12:02:01.
