data_PCOD9331503
_publ_section_title
;
Structure prediction by ZEFSAII (Michael W. Deem and Ramdas Pophale) SiO2 
 PCOD9331503
Probable space group: I 2 2 2
;
_chemical_formula_sum "Si O2"
_cell_formula_units_Z 40
_cell_length_a 7.742785
_cell_length_b 8.816665
_cell_length_c 24.272779
_cell_angle_alpha 90.000000
_cell_angle_beta 90.000000
_cell_angle_gamma 90.000000
_cell_volume 1656.994402
_symmetry_space_group_name_H-M "I 2 2 2"
_symmetry_group_IT_number 23
_symmetry_cell_setting 'orthorhombic'
loop_
_space_group_symop_operation_xyz
x,y,z
-x,-y,z
x,-y,-z
-x,y,-z
1/2+x,1/2+y,1/2+z
1/2-x,1/2-y,1/2+z
1/2+x,1/2-y,1/2-z
1/2-x,1/2+y,1/2-z
loop_
_atom_site_type_symbol
_atom_site_label
_atom_site_fract_x
_atom_site_fract_y
_atom_site_fract_z
Si Si1 0.561471 0.827035 0.784248
Si Si2 0.803329 0.741770 0.983438
Si Si3 0.702480 0.047726 0.114256
Si Si4 0.701210 0.747598 0.669543
Si Si5 0.696508 0.448055 0.919038
O O1 0.706604 0.841190 0.831979
O O2 0.605543 0.748498 0.727239
O O3 0.401735 0.746733 0.812675
O O4 0.500000 0.000000 0.771667
O O5 0.746969 0.876715 0.943363
O O6 0.786650 0.589731 0.947432
O O7 0.693121 0.694196 0.037673
O O8 0.000000 0.766549 0.000000
O O9 0.500000 0.000000 0.111334
O O10 0.815352 0.903243 0.132675
O O11 0.687364 0.893016 0.631361
O O12 0.500000 0.500000 0.907010
#
# Coordination Sequence:
#
# PCOD9331503 Si02
#       5
#     8   8   8   8   8
#     4   9  21  40  64  97 131 169 213 265 325 383
#     4  11  24  43  66  98 134 170 220 281 337 386
#     4   9  21  43  67  97 132 174 219 263 327 400
#     4  10  22  42  68  96 129 171 219 267 322 387
#     4  11  23  40  67  98 129 181 231 266 324 400
#
# _framework density 24.140094999999999
#
# number of rings (size 3 to 8) (size 9 to 14) (size 15 to 20)
#    0.000    2.400    0.000    4.800    0.000   10.400 
#    0.000   11.000    0.000    2.400    0.000    0.000 
#    0.000    0.000    0.000    0.000    0.000    0.000 
#
# Total GULP energy -111816.953131 kJ/mol
# GULP energy per Si atom -5590.847657 kJ/mol
# Density = 2.408515 g / cm^3
# Si number density = 24.140095 Si / 1000 Ang^3
#
#
#
# Elastic Constant Matrix: (Units=GPa)
#
#
# Indices 1 2 3 4 5 6 
#
# 1 48.0019 21.4219 17.9079 0.0000 0.0000 0.0000
# 2 21.4219 53.0135 49.4590 0.0000 0.0000 0.0000
# 3 17.9079 49.4590 100.5376 0.0000 0.0000 0.0000
# 4 0.0000 0.0000 0.0000 34.9432 0.0000 0.0000
# 5 0.0000 0.0000 0.0000 0.0000 5.6666 0.0000
# 6 0.0000 0.0000 0.0000 0.0000 0.0000 22.1381
#
#
#
# Elastic Compliance Matrix: (Units=1/GPa)
#
#
# Indices 1 2 3 4 5 6 
#
# 1 0.025467 -0.011198 0.000973 0.000000 0.000000 0.000000
# 2 -0.011198 0.039789 -0.017579 0.000000 0.000000 0.000000
# 3 0.000973 -0.017579 0.018421 0.000000 0.000000 0.000000
# 4 0.000000 0.000000 0.000000 0.028618 0.000000 0.000000
# 5 0.000000 0.000000 0.000000 0.000000 0.176472 0.000000
# 6 0.000000 0.000000 0.000000 0.000000 0.000000 0.045171
#
#
# Mechanical properties :
#
#
# Convention : Reuss Voigt Hill
#
# Bulk Modulus (GPa) = 35.62842 42.12561 38.87701
# Shear Modulus (GPa) = 12.53434 20.06718 16.30076
#
# Velocity S-wave (km/s) = 2.28114 2.88632 2.60139
# Velocity P-wave (km/s) = 4.66146 5.34754 5.01624
#
# Compressibility (1/GPa) = 0.02806748
#
# Stress axis : x y z
#
# Youngs Moduli (GPa) = 39.26627 25.13268 54.28500
#
# Poissons Ratio (x) = 0.28145 -0.05281
# Poissons Ratio (y) = 0.43972 0.95429
# Poissons Ratio (z) = -0.03820 0.44181
#
# Static dielectric constant tensor:
#      x y z
#    x 1.921500 0.000000 0.000000 
#    y 0.000000 2.015240 0.000000 
#    z 0.000000 0.000000 1.964130 
# 
# From -- ./inp_files/27874.got.cif
#   From: 2010.05.17/outbox.cif.g08.bks.cpg/sg23_14_cif.got.tgz:27874.got - 2010.06.04 12:02:01.
