data_PCOD9331158
_publ_section_title
;
Structure prediction by ZEFSAII (Michael W. Deem and Ramdas Pophale) SiO2 
 PCOD9331158
Probable space group: I 2 2 2
;
_chemical_formula_sum "Si O2"
_cell_formula_units_Z 34
_cell_length_a 10.724293
_cell_length_b 27.044529
_cell_length_c 4.989519
_cell_angle_alpha 90.000000
_cell_angle_beta 90.000000
_cell_angle_gamma 90.000000
_cell_volume 1447.127425
_symmetry_space_group_name_H-M "I 2 2 2"
_symmetry_group_IT_number 23
_symmetry_cell_setting 'orthorhombic'
loop_
_space_group_symop_operation_xyz
x,y,z
-x,-y,z
x,-y,-z
-x,y,-z
1/2+x,1/2+y,1/2+z
1/2-x,1/2-y,1/2+z
1/2+x,1/2-y,1/2-z
1/2-x,1/2+y,1/2-z
loop_
_atom_site_type_symbol
_atom_site_label
_atom_site_fract_x
_atom_site_fract_y
_atom_site_fract_z
Si Si1 0.358472 0.057630 0.423156
Si Si2 0.632179 0.205004 0.399213
Si Si3 0.500000 0.500000 0.500000
Si Si4 0.711089 0.684840 0.600251
Si Si5 0.700351 0.580836 0.404241
O O1 0.500000 0.071123 0.500000
O O2 0.268187 0.086341 0.623108
O O3 0.346569 0.000000 0.500000
O O4 0.306201 0.064800 0.123193
O O5 0.500000 0.186283 0.500000
O O6 0.634877 0.264663 0.430908
O O7 0.738680 0.185868 0.599038
O O8 0.669826 0.191349 0.098404
O O9 0.595736 0.538655 0.364308
O O10 0.650974 0.633146 0.514682
#
# Coordination Sequence:
#
# PCOD9331158 Si02
#       5
#     8   8   2   8   8
#     4  11  23  43  65  91 126 165 217 278 321 369
#     4  10  21  41  64  91 130 158 205 268 320 377
#     4  12  28  46  66  94 140 178 220 268 296 412
#     4  10  23  39  62  96 122 164 212 255 317 385
#     4  12  25  43  67  96 130 175 220 260 326 383
#
# _framework density 23.494821000000002
#
# number of rings (size 3 to 8) (size 9 to 14) (size 15 to 20)
#    0.000    1.176    2.353    2.824    1.647    9.412 
#    0.000    0.000    0.000    0.000    0.000    0.000 
#    0.000    0.000    0.000    0.000    0.000    0.000 
#
# Total GULP energy -95025.419516 kJ/mol
# GULP energy per Si atom -5589.730560 kJ/mol
# Density = 2.344135 g / cm^3
# Si number density = 23.494821 Si / 1000 Ang^3
#
#
#
# Elastic Constant Matrix: (Units=GPa)
#
#
# Indices 1 2 3 4 5 6 
#
# 1 91.5862 14.7342 6.1209 -0.0163 -0.0080 -0.0012
# 2 14.7342 178.2258 5.2717 -0.0207 -0.0063 0.0117
# 3 6.1209 5.2717 77.8069 -0.0117 0.0245 -0.0191
# 4 -0.0163 -0.0207 -0.0117 31.3966 0.0097 0.0350
# 5 -0.0080 -0.0063 0.0245 0.0097 8.3652 0.0094
# 6 -0.0012 0.0117 -0.0191 0.0350 0.0094 -18.3483
#
#
#
# Elastic Compliance Matrix: (Units=1/GPa)
#
#
# Indices 1 2 3 4 5 6 
#
# 1 0.011117 -0.000895 -0.000814 0.000005 0.000012 0.000000
# 2 -0.000895 0.005694 -0.000315 0.000003 0.000004 0.000004
# 3 -0.000814 -0.000315 0.012938 0.000004 -0.000039 -0.000014
# 4 0.000005 0.000003 0.000004 0.031851 -0.000037 0.000061
# 5 0.000012 0.000004 -0.000039 -0.000037 0.119542 0.000061
# 6 0.000000 0.000004 -0.000014 0.000061 0.000061 -0.054501
#
#
# Mechanical properties :
#
#
# Convention : Reuss Voigt Hill
#
# Bulk Modulus (GPa) = 38.90995 44.43028 41.67012
# Shear Modulus (GPa) = 35.90501 25.71552 30.81026
#
# Velocity S-wave (km/s) = 3.91347 3.31194 3.62520
# Velocity P-wave (km/s) = 6.08419 5.79457 5.94114
#
# Compressibility (1/GPa) = 0.02570036
#
# Stress axis : x y z
#
# Youngs Moduli (GPa) = 89.95185 175.61792 77.29324
#
# Poissons Ratio (x) = 0.15718 0.06291
# Poissons Ratio (y) = 0.08051 0.02438
# Poissons Ratio (z) = 0.07321 0.05539
#
# Static dielectric constant tensor:
#      x y z
#    x 1.939600 0.000020 0.000000 
#    y 0.000020 1.982930 -0.000070 
#    z 0.000000 -0.000070 1.824130 
# 
# From -- ./inp_files/845.got.cif
#   From: 2010.05.17/outbox.cif.g08.bks.cpg/sg23_1_cif.got.tgz:845.got - 2010.06.04 12:02:01.
