data_PCOD9331214
_publ_section_title
;
Structure prediction by ZEFSAII (Michael W. Deem and Ramdas Pophale) SiO2 
 PCOD9331214
Probable space group: I 2 2 2
;
_chemical_formula_sum "Si O2"
_cell_formula_units_Z 64
_cell_length_a 29.946346
_cell_length_b 12.227251
_cell_length_c 8.373574
_cell_angle_alpha 90.000000
_cell_angle_beta 90.000000
_cell_angle_gamma 90.000000
_cell_volume 3066.080325
_symmetry_space_group_name_H-M "I 2 2 2"
_symmetry_group_IT_number 23
_symmetry_cell_setting 'orthorhombic'
loop_
_space_group_symop_operation_xyz
x,y,z
-x,-y,z
x,-y,-z
-x,y,-z
1/2+x,1/2+y,1/2+z
1/2-x,1/2-y,1/2+z
1/2+x,1/2-y,1/2-z
1/2-x,1/2+y,1/2-z
loop_
_atom_site_type_symbol
_atom_site_label
_atom_site_fract_x
_atom_site_fract_y
_atom_site_fract_z
Si Si1 0.093293 0.721671 0.800013
Si Si2 0.550494 0.003064 0.695760
Si Si3 0.550456 0.459208 0.315238
Si Si4 0.688047 0.077236 0.866690
Si Si5 0.616836 0.181537 0.665315
Si Si6 0.273574 0.467643 0.814034
Si Si7 0.864596 0.083040 0.314898
Si Si8 0.824259 0.218864 0.584453
O O1 0.071587 0.608968 0.743174
O O2 0.060646 0.828537 0.801112
O O3 0.137866 0.737636 0.699297
O O4 0.108189 0.699533 0.980706
O O5 0.500000 0.000000 0.747237
O O6 0.551870 0.000000 0.500000
O O7 0.575384 0.114847 0.739639
O O8 0.500000 0.500000 0.270127
O O9 0.556254 0.500000 0.500000
O O10 0.590496 0.514520 0.214230
O O11 0.658154 0.104787 0.713374
O O12 0.732235 0.017843 0.803120
O O13 0.693546 0.192284 0.959636
O O14 0.665901 0.000000 0.000000
O O15 0.625165 0.300684 0.734623
O O16 0.318815 0.526956 0.752603
O O17 0.284544 0.338642 0.821107
O O18 0.263853 0.500000 0.000000
O O19 0.849745 0.120222 0.491574
#
# Coordination Sequence:
#
# PCOD9331214 Si02
#       8
#     8   8   8   8   8   8   8   8
#     4  11  21  38  65  96 130 178 224 272 341 410
#     4   9  20  35  59  89 122 165 216 274 324 386
#     4  11  23  36  65 104 137 171 228 291 330 407
#     4  11  25  41  63  94 129 171 224 286 340 407
#     4  10  22  40  65  90 128 178 223 279 339 404
#     4  10  23  42  65  92 126 171 221 278 339 415
#     4  10  21  43  64  92 133 175 211 279 349 402
#     4  10  23  41  64  89 135 170 216 276 339 415
#
# _framework density 20.873556000000001
#
# number of rings (size 3 to 8) (size 9 to 14) (size 15 to 20)
#    0.000    1.750    2.500    0.750    1.750    9.000 
#    0.000    1.250    0.000    4.875    0.000    0.000 
#    0.000    0.000    0.000    0.000    0.000    0.000 
#
# Total GULP energy -178453.009775 kJ/mol
# GULP energy per Si atom -5576.656555 kJ/mol
# Density = 2.082605 g / cm^3
# Si number density = 20.873556 Si / 1000 Ang^3
#
#
#
# Elastic Constant Matrix: (Units=GPa)
#
#
# Indices 1 2 3 4 5 6 
#
# 1 105.4875 44.2951 30.3144 0.0000 0.0000 0.0000
# 2 44.2951 100.5950 26.2398 0.0000 0.0000 0.0000
# 3 30.3144 26.2398 32.1475 0.0000 0.0000 0.0000
# 4 0.0000 0.0000 0.0000 28.4205 0.0000 0.0000
# 5 0.0000 0.0000 0.0000 0.0000 21.9488 0.0000
# 6 0.0000 0.0000 0.0000 0.0000 0.0000 36.2958
#
#
#
# Elastic Compliance Matrix: (Units=1/GPa)
#
#
# Indices 1 2 3 4 5 6 
#
# 1 0.013875 -0.003426 -0.010287 0.000000 0.000000 0.000000
# 2 -0.003426 0.013476 -0.007769 0.000000 0.000000 0.000000
# 3 -0.010287 -0.007769 0.047148 0.000000 0.000000 0.000000
# 4 0.000000 0.000000 0.000000 0.035186 0.000000 0.000000
# 5 0.000000 0.000000 0.000000 0.000000 0.045561 0.000000
# 6 0.000000 0.000000 0.000000 0.000000 0.000000 0.027551
#
#
# Mechanical properties :
#
#
# Convention : Reuss Voigt Hill
#
# Bulk Modulus (GPa) = 31.71074 48.88095 40.29584
# Shear Modulus (GPa) = 21.16205 26.49175 23.82690
#
# Velocity S-wave (km/s) = 3.18751 3.56638 3.38226
# Velocity P-wave (km/s) = 5.36393 6.35824 5.88214
#
# Compressibility (1/GPa) = 0.03153506
#
# Stress axis : x y z
#
# Youngs Moduli (GPa) = 72.07370 74.20651 21.20971
#
# Poissons Ratio (x) = 0.25424 0.21819
# Poissons Ratio (y) = 0.24693 0.16477
# Poissons Ratio (z) = 0.74143 0.57649
#
# Static dielectric constant tensor:
#      x y z
#    x 1.762160 0.000000 0.000000 
#    y 0.000000 1.810160 0.000000 
#    z 0.000000 0.000000 1.773560 
# 
# From -- ./inp_files/13494.got.cif
#   From: 2010.05.17/outbox.cif.g08.bks.cpg/sg23_7_cif.got.tgz:13494.got - 2010.06.04 12:02:01.
