data_PCOD9331722
_publ_section_title
;
Structure prediction by ZEFSAII (Michael W. Deem and Ramdas Pophale) SiO2 
 PCOD9331722
Probable space group: I 2 2 2
;
_chemical_formula_sum "Si O2"
_cell_formula_units_Z 24
_cell_length_a 7.356593
_cell_length_b 5.273078
_cell_length_c 27.626220
_cell_angle_alpha 90.000000
_cell_angle_beta 90.000000
_cell_angle_gamma 90.000000
_cell_volume 1071.673252
_symmetry_space_group_name_H-M "I 2 2 2"
_symmetry_group_IT_number 23
_symmetry_cell_setting 'orthorhombic'
loop_
_space_group_symop_operation_xyz
x,y,z
-x,-y,z
x,-y,-z
-x,y,-z
1/2+x,1/2+y,1/2+z
1/2-x,1/2-y,1/2+z
1/2+x,1/2-y,1/2-z
1/2-x,1/2+y,1/2-z
loop_
_atom_site_type_symbol
_atom_site_label
_atom_site_fract_x
_atom_site_fract_y
_atom_site_fract_z
Si Si1 0.878740 0.254725 0.120029
Si Si2 0.705045 0.751676 0.978492
Si Si3 0.796872 0.097643 0.721689
O O1 0.723166 0.237969 0.079052
O O2 0.795795 0.306574 0.172655
O O3 0.000000 0.500000 0.107897
O O4 0.000000 0.000000 0.120060
O O5 0.790395 0.500000 0.000000
O O6 0.500000 0.751707 0.000000
O O7 0.795182 0.000000 0.000000
O O8 0.799572 0.345616 0.756436
O O9 0.000000 0.000000 0.712435
#
# Coordination Sequence:
#
# PCOD9331722 Si02
#       3
#     8   8   8
#     4  12  26  45  73 106 145 186 239 294 363 421
#     4  10  23  43  69  97 144 181 243 283 351 422
#     4  12  26  47  75 105 147 189 239 299 357 429
#
# _framework density 22.394884000000001
#
# number of rings (size 3 to 8) (size 9 to 14) (size 15 to 20)
#    0.000    0.667    0.000    8.000    4.667    4.000 
#    6.000    0.000    0.000    0.000    0.000    0.000 
#    0.000    0.000    0.000    0.000    0.000    0.000 
#
# Total GULP energy -67120.128373 kJ/mol
# GULP energy per Si atom -5593.344031 kJ/mol
# Density = 2.234391 g / cm^3
# Si number density = 22.394884 Si / 1000 Ang^3
#
#
#
# Elastic Constant Matrix: (Units=GPa)
#
#
# Indices 1 2 3 4 5 6 
#
# 1 131.9046 47.6328 63.2719 0.0000 0.0000 0.0000
# 2 47.6328 233.1732 68.8164 0.0000 0.0000 0.0000
# 3 63.2719 68.8164 186.0317 0.0000 0.0000 0.0000
# 4 0.0000 0.0000 0.0000 23.8815 0.0000 0.0000
# 5 0.0000 0.0000 0.0000 0.0000 44.0840 0.0000
# 6 0.0000 0.0000 0.0000 0.0000 0.0000 7.1333
#
#
#
# Elastic Compliance Matrix: (Units=1/GPa)
#
#
# Indices 1 2 3 4 5 6 
#
# 1 0.009297 -0.001084 -0.002761 0.000000 0.000000 0.000000
# 2 -0.001084 0.004941 -0.001459 0.000000 0.000000 0.000000
# 3 -0.002761 -0.001459 0.006854 0.000000 0.000000 0.000000
# 4 0.000000 0.000000 0.000000 0.041873 0.000000 0.000000
# 5 0.000000 0.000000 0.000000 0.000000 0.022684 0.000000
# 6 0.000000 0.000000 0.000000 0.000000 0.000000 0.140188
#
#
# Mechanical properties :
#
#
# Convention : Reuss Voigt Hill
#
# Bulk Modulus (GPa) = 95.38673 101.17241 98.27957
# Shear Modulus (GPa) = 20.83847 39.77898 30.30873
#
# Velocity S-wave (km/s) = 3.05372 4.21913 3.68282
# Velocity P-wave (km/s) = 7.42423 8.30719 7.87809
#
# Compressibility (1/GPa) = 0.01048364
#
# Stress axis : x y z
#
# Youngs Moduli (GPa) = 107.55919 202.39934 145.89751
#
# Poissons Ratio (x) = 0.21948 0.40282
# Poissons Ratio (y) = 0.11664 0.21284
# Poissons Ratio (z) = 0.29697 0.29527
#
# Static dielectric constant tensor:
#      x y z
#    x 1.822190 0.000000 0.000000 
#    y 0.000000 1.846430 0.000000 
#    z 0.000000 0.000000 1.815350 
# 
# From -- ./inp_files/411.got.cif
#   From: 2010.05.17/outbox.cif.g08.bks.cpg/sg23_1_cif.got.tgz:411.got - 2010.06.04 12:02:01.
