data_PCOD9331927
_publ_section_title
;
Structure prediction by ZEFSAII (Michael W. Deem and Ramdas Pophale) SiO2 
 PCOD9331927
Probable space group: I 2 2 2
;
_chemical_formula_sum "Si O2"
_cell_formula_units_Z 64
_cell_length_a 10.895031
_cell_length_b 9.404878
_cell_length_c 30.589828
_cell_angle_alpha 90.000000
_cell_angle_beta 90.000000
_cell_angle_gamma 90.000000
_cell_volume 3134.430695
_symmetry_space_group_name_H-M "I 2 2 2"
_symmetry_group_IT_number 23
_symmetry_cell_setting 'orthorhombic'
loop_
_space_group_symop_operation_xyz
x,y,z
-x,-y,z
x,-y,-z
-x,y,-z
1/2+x,1/2+y,1/2+z
1/2-x,1/2-y,1/2+z
1/2+x,1/2-y,1/2-z
1/2-x,1/2+y,1/2-z
loop_
_atom_site_type_symbol
_atom_site_label
_atom_site_fract_x
_atom_site_fract_y
_atom_site_fract_z
Si Si1 0.806251 0.913697 0.311694
Si Si2 0.144841 0.028599 0.448775
Si Si3 0.502429 0.669502 0.254524
Si Si4 0.365722 0.069690 0.233685
Si Si5 0.980711 0.826576 0.143347
Si Si6 0.777689 0.168362 0.375594
Si Si7 0.140915 0.462857 0.638099
Si Si8 0.731673 0.730920 0.395109
O O1 0.895938 0.816406 0.281783
O O2 0.709311 0.968987 0.276226
O O3 0.764734 0.808129 0.349520
O O4 0.832953 0.056969 0.339843
O O5 0.199053 0.180318 0.432726
O O6 0.158506 0.000000 0.500000
O O7 0.223199 0.918372 0.420203
O O8 0.000000 0.000000 0.437930
O O9 0.500000 0.500000 0.255653
O O10 0.614273 0.760573 0.235949
O O11 0.496325 0.713566 0.305214
O O12 0.303644 0.034184 0.187508
O O13 0.500000 0.000000 0.236601
O O14 0.852566 0.746884 0.132998
O O15 0.084216 0.772043 0.109276
O O16 0.000000 0.000000 0.141684
O O17 0.863937 0.303619 0.379110
O O18 0.214913 0.572070 0.608458
O O19 0.000000 0.500000 0.643228
#
# Coordination Sequence:
#
# PCOD9331927 Si02
#       8
#     8   8   8   8   8   8   8   8
#     4  11  23  35  56  85 123 174 229 276 317 381
#     4  10  24  48  76 103 131 160 207 279 353 429
#     4  11  23  36  53  80 123 176 227 272 319 364
#     4  11  22  34  50  79 121 163 221 270 313 357
#     4  11  22  41  62  92 136 185 226 277 333 403
#     4  11  23  40  67  93 131 171 221 273 341 401
#     4  11  22  36  59  90 126 173 222 276 324 386
#     4  11  23  41  66  94 130 176 226 273 343 406
#
# _framework density 20.418381
#
# number of rings (size 3 to 8) (size 9 to 14) (size 15 to 20)
#    0.000    1.125    2.500    4.500    1.750    6.500 
#    0.000    1.875    0.000    3.000    0.000    0.000 
#    0.000    0.000    0.000    0.000    0.000    0.000 
#
# Total GULP energy -178335.748545 kJ/mol
# GULP energy per Si atom -5572.992142 kJ/mol
# Density = 2.037191 g / cm^3
# Si number density = 20.418381 Si / 1000 Ang^3
#
#
#
# Elastic Constant Matrix: (Units=GPa)
#
#
# Indices 1 2 3 4 5 6 
#
# 1 51.1876 9.9455 19.7265 0.0000 0.0000 0.0000
# 2 9.9455 109.5270 26.5645 0.0000 0.0000 0.0000
# 3 19.7265 26.5645 84.4387 0.0000 0.0000 0.0000
# 4 0.0000 0.0000 0.0000 -22.1251 0.0000 0.0000
# 5 0.0000 0.0000 0.0000 0.0000 15.5901 0.0000
# 6 0.0000 0.0000 0.0000 0.0000 0.0000 32.8023
#
#
#
# Elastic Compliance Matrix: (Units=1/GPa)
#
#
# Indices 1 2 3 4 5 6 
#
# 1 0.021533 -0.000796 -0.004780 0.000000 0.000000 0.000000
# 2 -0.000796 0.009914 -0.002933 0.000000 0.000000 0.000000
# 3 -0.004780 -0.002933 0.013882 0.000000 0.000000 0.000000
# 4 0.000000 0.000000 0.000000 -0.045198 0.000000 0.000000
# 5 0.000000 0.000000 0.000000 0.000000 0.064143 0.000000
# 6 0.000000 0.000000 0.000000 0.000000 0.000000 0.030486
#
#
# Mechanical properties :
#
#
# Convention : Reuss Voigt Hill
#
# Bulk Modulus (GPa) = 35.32197 39.73627 37.52912
# Shear Modulus (GPa) = 41.24894 17.84791 29.54843
#
# Velocity S-wave (km/s) = 4.49952 2.95974 3.80827
# Velocity P-wave (km/s) = 6.65815 5.58421 6.14469
#
# Compressibility (1/GPa) = 0.02831099
#
# Stress axis : x y z
#
# Youngs Moduli (GPa) = 46.44091 100.86955 72.03396
#
# Poissons Ratio (x) = 0.08028 0.34433
# Poissons Ratio (y) = 0.03696 0.21127
# Poissons Ratio (z) = 0.22199 0.29585
#
# Static dielectric constant tensor:
#      x y z
#    x 1.957660 0.000000 0.000000 
#    y 0.000000 1.806600 0.000000 
#    z 0.000000 0.000000 1.691900 
# 
# From -- ./inp_files/30478.got.cif
#   From: 2010.05.17/outbox.cif.g08.bks.cpg/sg23_16_cif.got.tgz:30478.got - 2010.06.04 12:02:01.
