data_PCOD9331918
_publ_section_title
;
Structure prediction by ZEFSAII (Michael W. Deem and Ramdas Pophale) SiO2 
 PCOD9331918
Probable space group: I 2 2 2
;
_chemical_formula_sum "Si O2"
_cell_formula_units_Z 34
_cell_length_a 10.249939
_cell_length_b 9.341186
_cell_length_c 14.213471
_cell_angle_alpha 90.000000
_cell_angle_beta 90.000000
_cell_angle_gamma 90.000000
_cell_volume 1360.891333
_symmetry_space_group_name_H-M "I 2 2 2"
_symmetry_group_IT_number 23
_symmetry_cell_setting 'orthorhombic'
loop_
_space_group_symop_operation_xyz
x,y,z
-x,-y,z
x,-y,-z
-x,y,-z
1/2+x,1/2+y,1/2+z
1/2-x,1/2-y,1/2+z
1/2+x,1/2-y,1/2-z
1/2-x,1/2+y,1/2-z
loop_
_atom_site_type_symbol
_atom_site_label
_atom_site_fract_x
_atom_site_fract_y
_atom_site_fract_z
Si Si1 0.681705 0.900979 0.090723
Si Si2 0.714327 0.341864 0.702659
Si Si3 0.845758 0.667183 0.986250
Si Si4 0.971744 0.208651 0.667060
Si Si5 0.500000 0.500000 0.000000
O O1 0.541066 0.846230 0.121312
O O2 0.748501 0.999544 0.169148
O O3 0.765704 0.762742 0.060421
O O4 0.676962 0.000000 0.000000
O O5 0.675215 0.241142 0.614902
O O6 0.592097 0.352772 0.772209
O O7 0.851455 0.265367 0.728746
O O8 0.811879 0.500000 0.000000
O O9 0.000000 0.678544 0.000000
O O10 0.935726 0.108329 0.577343
#
# Coordination Sequence:
#
# PCOD9331918 Si02
#       5
#     8   8   8   8   2
#     4  10  24  48  79 108 152 204 264 322 402 482
#     4  11  28  49  77 116 156 207 264 335 400 483
#     4  10  24  46  78 113 159 206 261 326 404 482
#     4  12  29  49  79 112 158 207 266 332 405 481
#     4  12  28  48  82 114 158 208 270 322 408 488
#
# _framework density 24.983626999999998
#
# number of rings (size 3 to 8) (size 9 to 14) (size 15 to 20)
#    0.000    1.176    0.000    3.529   13.176    7.059 
#    4.235    0.000    0.000    0.000    0.000    0.000 
#    0.000    0.000    0.000    0.000    0.000    0.000 
#
# Total GULP energy -95164.696201 kJ/mol
# GULP energy per Si atom -5597.923306 kJ/mol
# Density = 2.492676 g / cm^3
# Si number density = 24.983627 Si / 1000 Ang^3
#
#
#
# Elastic Constant Matrix: (Units=GPa)
#
#
# Indices 1 2 3 4 5 6 
#
# 1 167.0449 62.1120 57.4107 0.0000 0.0000 0.0000
# 2 62.1120 165.5973 35.8644 0.0000 0.0000 0.0000
# 3 57.4107 35.8644 92.6250 0.0000 0.0000 0.0000
# 4 0.0000 0.0000 0.0000 41.1348 0.0000 0.0000
# 5 0.0000 0.0000 0.0000 0.0000 47.8576 0.0000
# 6 0.0000 0.0000 0.0000 0.0000 0.0000 25.0365
#
#
#
# Elastic Compliance Matrix: (Units=1/GPa)
#
#
# Indices 1 2 3 4 5 6 
#
# 1 0.008266 -0.002173 -0.004282 0.000000 0.000000 0.000000
# 2 -0.002173 0.007163 -0.001427 0.000000 0.000000 0.000000
# 3 -0.004282 -0.001427 0.014003 0.000000 0.000000 0.000000
# 4 0.000000 0.000000 0.000000 0.024310 0.000000 0.000000
# 5 0.000000 0.000000 0.000000 0.000000 0.020895 0.000000
# 6 0.000000 0.000000 0.000000 0.000000 0.000000 0.039942
#
#
# Mechanical properties :
#
#
# Convention : Reuss Voigt Hill
#
# Bulk Modulus (GPa) = 73.16230 81.78237 77.47233
# Shear Modulus (GPa) = 37.06497 40.79779 38.93138
#
# Velocity S-wave (km/s) = 3.85589 4.04540 3.95178
# Velocity P-wave (km/s) = 7.01224 7.39093 7.20407
#
# Compressibility (1/GPa) = 0.01366824
#
# Stress axis : x y z
#
# Youngs Moduli (GPa) = 120.97613 139.61099 71.41491
#
# Poissons Ratio (x) = 0.30338 0.30580
# Poissons Ratio (y) = 0.26289 0.10188
# Poissons Ratio (z) = 0.51803 0.19916
#
# Static dielectric constant tensor:
#      x y z
#    x 2.002000 0.000000 0.000000 
#    y 0.000000 1.990740 0.000000 
#    z 0.000000 0.000000 1.965240 
# 
# From -- ./inp_files/20564.got.cif
#   From: 2010.05.17/outbox.cif.g08.bks.cpg/sg23_11_cif.got.tgz:20564.got - 2010.06.04 12:02:01.
