data_PCOD9331922
_publ_section_title
;
Structure prediction by ZEFSAII (Michael W. Deem and Ramdas Pophale) SiO2 
 PCOD9331922
Probable space group: I 2 2 2
;
_chemical_formula_sum "Si O2"
_cell_formula_units_Z 30
_cell_length_a 10.368794
_cell_length_b 25.727867
_cell_length_c 4.996672
_cell_angle_alpha 90.000000
_cell_angle_beta 90.000000
_cell_angle_gamma 90.000000
_cell_volume 1332.946964
_symmetry_space_group_name_H-M "I 2 2 2"
_symmetry_group_IT_number 23
_symmetry_cell_setting 'orthorhombic'
loop_
_space_group_symop_operation_xyz
x,y,z
-x,-y,z
x,-y,-z
-x,y,-z
1/2+x,1/2+y,1/2+z
1/2-x,1/2-y,1/2+z
1/2+x,1/2-y,1/2-z
1/2-x,1/2+y,1/2-z
loop_
_atom_site_type_symbol
_atom_site_label
_atom_site_fract_x
_atom_site_fract_y
_atom_site_fract_z
Si Si1 0.123483 0.098470 0.188208
Si Si2 0.500000 0.500000 0.500000
Si Si3 0.165079 0.740688 0.151650
Si Si4 0.913269 0.623497 0.759667
Si Si5 0.000000 0.182601 0.500000
O O1 0.277460 0.099510 0.154605
O O2 0.109088 0.140428 0.423327
O O3 0.000000 0.116791 0.000000
O O4 0.084169 0.037903 0.188535
O O5 0.282879 0.742883 0.363645
O O6 0.117499 0.682091 0.147053
O O7 0.060899 0.779641 0.277942
O O8 0.000000 0.626953 0.500000
O O9 0.000000 0.598864 0.000000
#
# Coordination Sequence:
#
# PCOD9331922 Si02
#       5
#     8   2   8   8   4
#     4  10  24  47  74 100 137 191 250 308 359 434
#     4   8  24  50  78  96 134 176 266 314 364 424
#     4  12  25  40  62 103 152 198 240 283 351 445
#     4  12  26  44  69 109 156 189 235 301 376 440
#     4  12  24  35  74  98 142 191 246 286 352 434
#
# _framework density 22.506519999999998
#
# number of rings (size 3 to 8) (size 9 to 14) (size 15 to 20)
#    0.800    0.000    4.000    3.200    3.733    0.533 
#    0.000    0.667    0.000    1.600    0.000    0.000 
#    0.000    0.000    0.000    0.000    0.000    0.000 
#
# Total GULP energy -83530.948748 kJ/mol
# GULP energy per Si atom -5568.729917 kJ/mol
# Density = 2.245529 g / cm^3
# Si number density = 22.506520 Si / 1000 Ang^3
#
#
#
# Elastic Constant Matrix: (Units=GPa)
#
#
# Indices 1 2 3 4 5 6 
#
# 1 190.6601 49.0431 32.3786 -0.0130 0.0100 -0.0004
# 2 49.0431 115.5369 -6.3813 -0.0180 0.0110 -0.0213
# 3 32.3786 -6.3813 59.2546 -0.0398 -0.0023 0.0479
# 4 -0.0130 -0.0180 -0.0398 -5.5368 0.0107 -0.0176
# 5 0.0100 0.0110 -0.0023 0.0107 49.9515 -0.0265
# 6 -0.0004 -0.0213 0.0479 -0.0176 -0.0265 30.5995
#
#
#
# Elastic Compliance Matrix: (Units=1/GPa)
#
#
# Indices 1 2 3 4 5 6 
#
# 1 0.006714 -0.003071 -0.003999 0.000023 -0.000001 0.000004
# 2 -0.003071 0.010112 0.002767 -0.000046 -0.000001 0.000003
# 3 -0.003999 0.002767 0.019360 -0.000139 0.000001 -0.000028
# 4 0.000023 -0.000046 -0.000139 -0.180608 0.000039 -0.000104
# 5 -0.000001 -0.000001 0.000001 0.000039 0.020019 0.000017
# 6 0.000004 0.000003 -0.000028 -0.000104 0.000017 0.032680
#
#
# Mechanical properties :
#
#
# Convention : Reuss Voigt Hill
#
# Bulk Modulus (GPa) = 36.26016 57.28139 46.77077
# Shear Modulus (GPa) = -67.63721 34.36359 -16.63681
#
# Velocity S-wave (km/s) = -5.48794 3.91170 -2.72177
# Velocity P-wave (km/s) = 4.90008 6.77556 3.30888
#
# Compressibility (1/GPa) = 0.02757848
#
# Stress axis : x y z
#
# Youngs Moduli (GPa) = 148.94121 98.89646 51.65379
#
# Poissons Ratio (x) = 0.30370 0.20659
# Poissons Ratio (y) = 0.45738 -0.14292
# Poissons Ratio (z) = 0.59569 -0.27364
#
# Static dielectric constant tensor:
#      x y z
#    x 2.021200 -0.000030 -0.000190 
#    y -0.000030 1.795090 -0.000030 
#    z -0.000190 -0.000030 1.851880 
# 
# From -- ./inp_files/757.got.cif
#   From: 2010.05.17/outbox.cif.g08.bks.cpg/sg23_1_cif.got.tgz:757.got - 2010.06.04 12:02:01.
