data_PCOD9331964
_publ_section_title
;
Structure prediction by ZEFSAII (Michael W. Deem and Ramdas Pophale) SiO2 
 PCOD9331964
Probable space group: I 2 2 2
;
_chemical_formula_sum "Si O2"
_cell_formula_units_Z 64
_cell_length_a 9.795448
_cell_length_b 10.862508
_cell_length_c 30.421363
_cell_angle_alpha 90.000000
_cell_angle_beta 90.000000
_cell_angle_gamma 90.000000
_cell_volume 3236.928311
_symmetry_space_group_name_H-M "I 2 2 2"
_symmetry_group_IT_number 23
_symmetry_cell_setting 'orthorhombic'
loop_
_space_group_symop_operation_xyz
x,y,z
-x,-y,z
x,-y,-z
-x,y,-z
1/2+x,1/2+y,1/2+z
1/2-x,1/2-y,1/2+z
1/2+x,1/2-y,1/2-z
1/2-x,1/2+y,1/2-z
loop_
_atom_site_type_symbol
_atom_site_label
_atom_site_fract_x
_atom_site_fract_y
_atom_site_fract_z
Si Si1 0.478110 0.647834 0.448635
Si Si2 0.481416 0.146664 0.950404
Si Si3 0.898188 0.181340 0.678823
Si Si4 0.162600 0.023389 0.170114
Si Si5 0.638040 0.918208 0.759989
Si Si6 0.702272 0.592779 0.174764
Si Si7 0.729737 0.695600 0.396190
Si Si8 0.266800 0.767195 0.893928
O O1 0.500000 0.500000 0.441067
O O2 0.500000 0.669657 0.500000
O O3 0.582727 0.720328 0.416919
O O4 0.330604 0.691553 0.433488
O O5 0.326661 0.168147 0.936809
O O6 0.583666 0.202398 0.913653
O O7 0.500000 0.000000 0.949967
O O8 0.500000 0.193352 0.000000
O O9 0.871894 0.290638 0.713121
O O10 0.814714 0.213575 0.634601
O O11 0.061955 0.170814 0.677352
O O12 0.842293 0.045154 0.686953
O O13 0.244639 0.996146 0.214728
O O14 0.211234 0.922952 0.134604
O O15 0.212519 0.149504 0.147222
O O16 0.000000 0.000000 0.175985
O O17 0.683175 0.881790 0.711018
O O18 0.500000 0.000000 0.760843
O O19 0.747070 0.629076 0.125305
#
# Coordination Sequence:
#
# PCOD9331964 Si02
#       8
#     8   8   8   8   8   8   8   8
#     4  11  21  37  62 101 142 173 218 288 358 404
#     4  11  21  33  59  98 132 165 219 286 338 398
#     4  10  25  45  65  93 131 175 220 270 334 405
#     4  11  22  38  62  94 130 179 213 265 343 405
#     4  11  27  43  71 100 127 166 228 283 333 398
#     4  11  26  44  67  91 132 177 217 277 334 397
#     4  11  19  39  61  88 132 172 218 263 335 406
#     4  12  21  38  64  93 133 177 222 266 346 408
#
# _framework density 19.771830999999999
#
# number of rings (size 3 to 8) (size 9 to 14) (size 15 to 20)
#    0.000    1.000    5.000    1.500    7.000    3.000 
#    0.000    0.000    0.000    4.500    0.000    0.000 
#    0.000    0.000    0.000    0.000    0.000    0.000 
#
# Total GULP energy -178394.994799 kJ/mol
# GULP energy per Si atom -5574.843587 kJ/mol
# Density = 1.972683 g / cm^3
# Si number density = 19.771831 Si / 1000 Ang^3
#
#
#
# Elastic Constant Matrix: (Units=GPa)
#
#
# Indices 1 2 3 4 5 6 
#
# 1 87.8524 21.2377 20.4109 0.0000 0.0000 0.0000
# 2 21.2377 59.0397 29.0877 0.0000 0.0000 0.0000
# 3 20.4109 29.0877 96.9594 0.0000 0.0000 0.0000
# 4 0.0000 0.0000 0.0000 24.4641 0.0000 0.0000
# 5 0.0000 0.0000 0.0000 0.0000 35.1609 0.0000
# 6 0.0000 0.0000 0.0000 0.0000 0.0000 20.2206
#
#
#
# Elastic Compliance Matrix: (Units=1/GPa)
#
#
# Indices 1 2 3 4 5 6 
#
# 1 0.012656 -0.003802 -0.001524 0.000000 0.000000 0.000000
# 2 -0.003802 0.021017 -0.005505 0.000000 0.000000 0.000000
# 3 -0.001524 -0.005505 0.012286 0.000000 0.000000 0.000000
# 4 0.000000 0.000000 0.000000 0.040876 0.000000 0.000000
# 5 0.000000 0.000000 0.000000 0.000000 0.028441 0.000000
# 6 0.000000 0.000000 0.000000 0.000000 0.000000 0.049455
#
#
# Mechanical properties :
#
#
# Convention : Reuss Voigt Hill
#
# Bulk Modulus (GPa) = 41.15509 42.81379 41.98444
# Shear Modulus (GPa) = 25.70815 27.51011 26.60913
#
# Velocity S-wave (km/s) = 3.60980 3.73417 3.67251
# Velocity P-wave (km/s) = 6.18340 6.34767 6.26607
#
# Compressibility (1/GPa) = 0.02429833
#
# Stress axis : x y z
#
# Youngs Moduli (GPa) = 79.01524 47.57940 81.39485
#
# Poissons Ratio (x) = 0.18089 0.12401
# Poissons Ratio (y) = 0.30041 0.44807
# Poissons Ratio (z) = 0.12039 0.26192
#
# Static dielectric constant tensor:
#      x y z
#    x 1.697250 0.000000 0.000000 
#    y 0.000000 1.727020 0.000000 
#    z 0.000000 0.000000 1.714680 
# 
# From -- ./inp_files/30348.got.cif
#   From: 2010.05.17/outbox.cif.g08.bks.cpg/sg23_16_cif.got.tgz:30348.got - 2010.06.04 12:02:01.
