data_PCOD9331097
_publ_section_title
;
Structure prediction by ZEFSAII (Michael W. Deem and Ramdas Pophale) SiO2 
 PCOD9331097
Probable space group: I 2 2 2
;
_chemical_formula_sum "Si O2"
_cell_formula_units_Z 64
_cell_length_a 17.308240
_cell_length_b 22.674530
_cell_length_c 7.817997
_cell_angle_alpha 90.000000
_cell_angle_beta 90.000000
_cell_angle_gamma 90.000000
_cell_volume 3068.221450
_symmetry_space_group_name_H-M "I 2 2 2"
_symmetry_group_IT_number 23
_symmetry_cell_setting 'orthorhombic'
loop_
_space_group_symop_operation_xyz
x,y,z
-x,-y,z
x,-y,-z
-x,y,-z
1/2+x,1/2+y,1/2+z
1/2-x,1/2-y,1/2+z
1/2+x,1/2-y,1/2-z
1/2-x,1/2+y,1/2-z
loop_
_atom_site_type_symbol
_atom_site_label
_atom_site_fract_x
_atom_site_fract_y
_atom_site_fract_z
Si Si1 0.872084 0.658283 0.239204
Si Si2 0.335697 0.776651 0.612085
Si Si3 0.540632 0.843246 0.171713
Si Si4 0.664303 0.276651 0.112085
Si Si5 0.540632 0.656754 0.671713
Si Si6 0.872084 0.841717 0.739204
Si Si7 0.162961 0.069687 0.009192
Si Si8 0.337039 0.069687 0.009192
O O1 0.847896 0.706277 0.385532
O O2 0.840002 0.598156 0.318998
O O3 0.963633 0.646892 0.217416
O O4 0.842021 0.688267 0.066073
O O5 0.403534 0.799263 0.732552
O O6 0.250000 0.787691 0.682752
O O7 0.347896 0.706277 0.614468
O O8 0.500000 0.818996 0.000000
O O9 0.594033 0.898376 0.114531
O O10 0.596466 0.299263 0.232553
O O11 0.657979 0.311733 0.933927
O O12 0.500000 0.681004 0.500000
O O13 0.463633 0.646892 0.782584
O O14 0.594033 0.601624 0.614531
O O15 0.840002 0.901844 0.818998
O O16 0.250000 0.080180 0.078835
O O17 0.150172 0.000000 0.000000
O O18 0.349828 0.000000 0.000000
#
# Coordination Sequence:
#
# PCOD9331097 Si02
#       8
#     8   8   8   8   8   8   8   8
#     4  11  23  38  59  89 123 161 203 252 308 368
#     4  12  23  39  62  90 125 160 203 254 311 371
#     4  10  22  38  60  87 120 158 198 247 307 367
#     4  12  23  39  62  90 125 160 203 254 311 371
#     4  10  22  38  60  87 120 158 198 247 307 367
#     4  11  23  38  59  89 123 161 203 252 308 368
#     4  10  21  40  64  89 119 159 207 252 300 363
#     4  10  21  40  64  89 119 159 207 252 300 363
#
# _framework density 20.858989000000001
#
# number of rings (size 3 to 8) (size 9 to 14) (size 15 to 20)
#    0.000    1.250    0.000    7.500    0.000    6.500 
#    0.000    1.250    0.000   10.500    0.000    0.000 
#    0.000    0.000    0.000    0.000    0.000    0.000 
#
# Total GULP energy -178502.349965 kJ/mol
# GULP energy per Si atom -5578.198436 kJ/mol
# Density = 2.081151 g / cm^3
# Si number density = 20.858989 Si / 1000 Ang^3
#
#
#
# Elastic Constant Matrix: (Units=GPa)
#
#
# Indices 1 2 3 4 5 6 
#
# 1 177.5303 38.6857 17.7556 0.0000 0.0000 0.0000
# 2 38.6857 125.1848 49.4114 0.0000 0.0000 0.0000
# 3 17.7556 49.4114 61.9034 0.0000 0.0000 0.0000
# 4 0.0000 0.0000 0.0000 18.1180 0.0000 0.0000
# 5 0.0000 0.0000 0.0000 0.0000 34.7868 0.0000
# 6 0.0000 0.0000 0.0000 0.0000 0.0000 35.8129
#
#
#
# Elastic Compliance Matrix: (Units=1/GPa)
#
#
# Indices 1 2 3 4 5 6 
#
# 1 0.006045 -0.001728 -0.000354 0.000000 0.000000 0.000000
# 2 -0.001728 0.012157 -0.009208 0.000000 0.000000 0.000000
# 3 -0.000354 -0.009208 0.023606 0.000000 0.000000 0.000000
# 4 0.000000 0.000000 0.000000 0.055194 0.000000 0.000000
# 5 0.000000 0.000000 0.000000 0.000000 0.028747 0.000000
# 6 0.000000 0.000000 0.000000 0.000000 0.000000 0.027923
#
#
# Mechanical properties :
#
#
# Convention : Reuss Voigt Hill
#
# Bulk Modulus (GPa) = 52.01198 64.03599 58.02398
# Shear Modulus (GPa) = 27.37330 34.99457 31.18393
#
# Velocity S-wave (km/s) = 3.62650 4.10038 3.87070
# Velocity P-wave (km/s) = 6.52108 7.29271 6.91766
#
# Compressibility (1/GPa) = 0.01922634
#
# Stress axis : x y z
#
# Youngs Moduli (GPa) = 165.42955 82.25978 42.36298
#
# Poissons Ratio (x) = 0.14216 0.01501
# Poissons Ratio (y) = 0.28589 0.39007
# Poissons Ratio (z) = 0.05863 0.75743
#
# Static dielectric constant tensor:
#      x y z
#    x 1.793000 0.000000 0.000000 
#    y 0.000000 1.719680 0.000000 
#    z 0.000000 0.000000 1.825110 
# 
# From -- ./inp_files/11411.got.cif
#   From: 2010.05.17/outbox.cif.g08.bks.cpg/sg23_6_cif.got.tgz:11411.got - 2010.06.04 12:02:01.
