data_PCOD9331555
_publ_section_title
;
Structure prediction by ZEFSAII (Michael W. Deem and Ramdas Pophale) SiO2 
 PCOD9331555
Probable space group: I 2 2 2
;
_chemical_formula_sum "Si O2"
_cell_formula_units_Z 64
_cell_length_a 30.702924
_cell_length_b 5.152303
_cell_length_c 17.627880
_cell_angle_alpha 90.000000
_cell_angle_beta 90.000000
_cell_angle_gamma 90.000000
_cell_volume 2788.567865
_symmetry_space_group_name_H-M "I 2 2 2"
_symmetry_group_IT_number 23
_symmetry_cell_setting 'orthorhombic'
loop_
_space_group_symop_operation_xyz
x,y,z
-x,-y,z
x,-y,-z
-x,y,-z
1/2+x,1/2+y,1/2+z
1/2-x,1/2-y,1/2+z
1/2+x,1/2-y,1/2-z
1/2-x,1/2+y,1/2-z
loop_
_atom_site_type_symbol
_atom_site_label
_atom_site_fract_x
_atom_site_fract_y
_atom_site_fract_z
Si Si1 0.190234 0.721429 0.772589
Si Si2 0.702766 0.080755 0.581580
Si Si3 0.627645 0.428874 0.648918
Si Si4 0.062095 0.758049 0.947754
Si Si5 0.705206 0.408543 0.120301
Si Si6 0.027122 0.255425 0.218171
Si Si7 0.647201 0.918142 0.085798
Si Si8 0.606410 0.056894 0.765699
O O1 0.208229 0.645990 0.854970
O O2 0.219869 0.850286 0.708496
O O3 0.158472 0.485331 0.749605
O O4 0.153674 0.934632 0.784911
O O5 0.664896 0.271425 0.606605
O O6 0.752283 0.175782 0.573832
O O7 0.688018 0.000000 0.500000
O O8 0.606554 0.638065 0.592408
O O9 0.593932 0.242735 0.693726
O O10 0.032252 0.729650 0.873528
O O11 0.065481 0.500000 0.000000
O O12 0.048737 0.000000 0.000000
O O13 0.682883 0.681647 0.095647
O O14 0.669032 0.189479 0.110523
O O15 0.074748 0.310353 0.254227
O O16 0.000000 0.500000 0.245461
O O17 0.000000 0.000000 0.237738
O O18 0.608659 0.857204 0.146564
O O19 0.634065 0.000000 0.000000
#
# Coordination Sequence:
#
# PCOD9331555 Si02
#       8
#     8   8   8   8   8   8   8   8
#     4  10  23  39  68  88 126 176 235 275 336 411
#     4  11  27  40  60  96 137 178 233 298 355 403
#     4  11  23  42  65  91 131 184 236 282 341 409
#     4  12  27  44  69  94 134 177 228 285 330 399
#     4  11  25  45  66  97 136 180 230 295 353 415
#     4  12  26  44  69 101 135 175 217 269 342 410
#     4  11  23  43  73 102 133 177 228 285 353 414
#     4  10  22  44  67 101 133 173 228 281 332 421
#
# _framework density 22.950851
#
# number of rings (size 3 to 8) (size 9 to 14) (size 15 to 20)
#    0.000    1.000    2.500    3.375    7.000    1.500 
#    0.000    0.000    0.000    0.375    0.000    2.625 
#    0.000    0.000    0.000    0.000    0.000    0.000 
#
# Total GULP energy -178360.810154 kJ/mol
# GULP energy per Si atom -5573.775317 kJ/mol
# Density = 2.289861 g / cm^3
# Si number density = 22.950851 Si / 1000 Ang^3
#
#
#
# Elastic Constant Matrix: (Units=GPa)
#
#
# Indices 1 2 3 4 5 6 
#
# 1 57.3584 28.6157 16.5561 0.0000 0.0000 0.0000
# 2 28.6157 126.2209 35.4745 0.0000 0.0000 0.0000
# 3 16.5561 35.4745 104.7273 0.0000 0.0000 0.0000
# 4 0.0000 0.0000 0.0000 24.9471 0.0000 0.0000
# 5 0.0000 0.0000 0.0000 0.0000 -6.5230 0.0000
# 6 0.0000 0.0000 0.0000 0.0000 0.0000 2.6216
#
#
#
# Elastic Compliance Matrix: (Units=1/GPa)
#
#
# Indices 1 2 3 4 5 6 
#
# 1 0.019958 -0.004021 -0.001793 0.000000 0.000000 0.000000
# 2 -0.004021 0.009566 -0.002605 0.000000 0.000000 0.000000
# 3 -0.001793 -0.002605 0.010714 0.000000 0.000000 0.000000
# 4 0.000000 0.000000 0.000000 0.040085 0.000000 0.000000
# 5 0.000000 0.000000 0.000000 0.000000 -0.153305 0.000000
# 6 0.000000 0.000000 0.000000 0.000000 0.000000 0.381444
#
#
# Mechanical properties :
#
#
# Convention : Reuss Voigt Hill
#
# Bulk Modulus (GPa) = 42.73294 49.95549 46.34421
# Shear Modulus (GPa) = 15.01050 18.05316 16.53183
#
# Velocity S-wave (km/s) = 2.56017 2.80768 2.68678
# Velocity P-wave (km/s) = 5.23441 5.68545 5.46458
#
# Compressibility (1/GPa) = 0.02340115
#
# Stress axis : x y z
#
# Youngs Moduli (GPa) = 50.10602 104.53446 93.33233
#
# Poissons Ratio (x) = 0.42030 0.16736
# Poissons Ratio (y) = 0.20146 0.24311
# Poissons Ratio (z) = 0.08985 0.27229
#
# Static dielectric constant tensor:
#      x y z
#    x 1.962510 0.000000 0.000000 
#    y 0.000000 2.235640 0.000000 
#    z 0.000000 0.000000 2.018730 
# 
# From -- ./inp_files/25497.got.cif
#   From: 2010.05.17/outbox.cif.g08.bks.cpg/sg23_13_cif.got.tgz:25497.got - 2010.06.04 12:02:01.
