data_PCOD9331027
_publ_section_title
;
Structure prediction by ZEFSAII (Michael W. Deem and Ramdas Pophale) SiO2 
 PCOD9331027
Probable space group: I 2 2 2
;
_chemical_formula_sum "Si O2"
_cell_formula_units_Z 40
_cell_length_a 5.390212
_cell_length_b 30.404185
_cell_length_c 11.755847
_cell_angle_alpha 90.000000
_cell_angle_beta 90.000000
_cell_angle_gamma 90.000000
_cell_volume 1926.607019
_symmetry_space_group_name_H-M "I 2 2 2"
_symmetry_group_IT_number 23
_symmetry_cell_setting 'orthorhombic'
loop_
_space_group_symop_operation_xyz
x,y,z
-x,-y,z
x,-y,-z
-x,y,-z
1/2+x,1/2+y,1/2+z
1/2-x,1/2-y,1/2+z
1/2+x,1/2-y,1/2-z
1/2-x,1/2+y,1/2-z
loop_
_atom_site_type_symbol
_atom_site_label
_atom_site_fract_x
_atom_site_fract_y
_atom_site_fract_z
Si Si1 0.169179 0.286133 0.399563
Si Si2 0.136715 0.881495 0.123368
Si Si3 0.245801 0.518672 0.630430
Si Si4 0.499138 0.344342 0.128035
Si Si5 0.998444 0.287086 0.155860
O O1 0.500000 0.385567 0.500000
O O2 0.201681 0.338307 0.398571
O O3 0.427049 0.260411 0.393641
O O4 0.000000 0.270310 0.500000
O O5 0.262845 0.928900 0.133577
O O6 0.481816 0.776348 0.212735
O O7 0.015948 0.870993 0.249817
O O8 0.500000 0.500000 0.681395
O O9 0.246428 0.500000 0.500000
O O10 0.000000 0.500000 0.686840
O O11 0.756380 0.317172 0.134133
O O12 0.250853 0.313333 0.126945
O O13 0.500000 0.365975 0.000000
#
# Coordination Sequence:
#
# PCOD9331027 Si02
#       5
#     8   8   8   8   8
#     4  11  24  39  63  93 129 169 226 287 311 378
#     4  11  23  40  65 103 128 165 222 275 326 383
#     4  10  21  39  64  91 128 167 195 256 333 408
#     4  11  25  43  66  91 131 178 221 264 317 399
#     4  11  24  43  61  88 130 181 220 262 336 374
#
# _framework density 20.761887000000002
#
# number of rings (size 3 to 8) (size 9 to 14) (size 15 to 20)
#    0.000    1.200    2.000    4.800    2.800    8.000 
#    0.000    0.000    0.000    0.600    0.000    2.800 
#    0.000    0.000    0.000    0.000    0.000    0.000 
#
# Total GULP energy -111441.499676 kJ/mol
# GULP energy per Si atom -5572.074984 kJ/mol
# Density = 2.071463 g / cm^3
# Si number density = 20.761887 Si / 1000 Ang^3
#
#
#
# Elastic Constant Matrix: (Units=GPa)
#
#
# Indices 1 2 3 4 5 6 
#
# 1 133.7172 45.1951 27.8669 0.0000 0.0000 0.0000
# 2 45.1951 144.9045 25.2281 0.0000 0.0000 0.0000
# 3 27.8669 25.2281 174.4337 0.0000 0.0000 0.0000
# 4 0.0000 0.0000 0.0000 2.2009 0.0000 0.0000
# 5 0.0000 0.0000 0.0000 0.0000 21.4438 0.0000
# 6 0.0000 0.0000 0.0000 0.0000 0.0000 -9.7900
#
#
#
# Elastic Compliance Matrix: (Units=1/GPa)
#
#
# Indices 1 2 3 4 5 6 
#
# 1 0.008527 -0.002485 -0.001003 0.000000 0.000000 0.000000
# 2 -0.002485 0.007804 -0.000732 0.000000 0.000000 0.000000
# 3 -0.001003 -0.000732 0.005999 0.000000 0.000000 0.000000
# 4 0.000000 0.000000 0.000000 0.454363 0.000000 0.000000
# 5 0.000000 0.000000 0.000000 0.000000 0.046633 0.000000
# 6 0.000000 0.000000 0.000000 0.000000 0.000000 -0.102145
#
#
# Mechanical properties :
#
#
# Convention : Reuss Voigt Hill
#
# Bulk Modulus (GPa) = 71.99069 72.18175 72.08622
# Shear Modulus (GPa) = 11.51410 26.42196 18.96803
#
# Velocity S-wave (km/s) = 2.35750 3.57125 3.02586
# Velocity P-wave (km/s) = 6.49308 7.20049 6.85592
#
# Compressibility (1/GPa) = 0.01389069
#
# Stress axis : x y z
#
# Youngs Moduli (GPa) = 117.26909 128.14678 166.69812
#
# Poissons Ratio (x) = 0.31845 0.16718
# Poissons Ratio (y) = 0.29142 0.12196
# Poissons Ratio (z) = 0.11761 0.09375
#
# Static dielectric constant tensor:
#      x y z
#    x 1.762310 0.000000 0.000000 
#    y 0.000000 1.790360 0.000000 
#    z 0.000000 0.000000 1.812200 
# 
# From -- ./inp_files/13888.got.cif
#   From: 2010.05.17/outbox.cif.g08.bks.cpg/sg23_7_cif.got.tgz:13888.got - 2010.06.04 12:02:01.
