data_PCOD9331573
_publ_section_title
;
Structure prediction by ZEFSAII (Michael W. Deem and Ramdas Pophale) SiO2 
 PCOD9331573
Probable space group: I 2 2 2
;
_chemical_formula_sum "Si O2"
_cell_formula_units_Z 64
_cell_length_a 8.759908
_cell_length_b 12.461521
_cell_length_c 29.101408
_cell_angle_alpha 90.000000
_cell_angle_beta 90.000000
_cell_angle_gamma 90.000000
_cell_volume 3176.761425
_symmetry_space_group_name_H-M "I 2 2 2"
_symmetry_group_IT_number 23
_symmetry_cell_setting 'orthorhombic'
loop_
_space_group_symop_operation_xyz
x,y,z
-x,-y,z
x,-y,-z
-x,y,-z
1/2+x,1/2+y,1/2+z
1/2-x,1/2-y,1/2+z
1/2+x,1/2-y,1/2-z
1/2-x,1/2+y,1/2-z
loop_
_atom_site_type_symbol
_atom_site_label
_atom_site_fract_x
_atom_site_fract_y
_atom_site_fract_z
Si Si1 0.680399 0.493989 0.792148
Si Si2 0.320790 0.010973 0.054496
Si Si3 0.563772 0.886982 0.447522
Si Si4 0.850179 0.787237 0.658309
Si Si5 0.835301 0.118362 0.132386
Si Si6 0.810865 0.846779 0.374807
Si Si7 0.123688 0.200549 0.093954
Si Si8 0.168165 0.547491 0.301584
O O1 0.500000 0.500000 0.782779
O O2 0.700331 0.368099 0.801727
O O3 0.718897 0.557425 0.838923
O O4 0.769660 0.544886 0.750031
O O5 0.241822 0.122803 0.068521
O O6 0.500000 0.000000 0.066851
O O7 0.231793 0.921535 0.083477
O O8 0.306631 0.000000 0.000000
O O9 0.500000 0.893908 0.500000
O O10 0.736005 0.876126 0.424838
O O11 0.492151 0.771994 0.434639
O O12 0.500000 0.000000 0.427070
O O13 0.720323 0.788424 0.620472
O O14 0.847484 0.665667 0.676826
O O15 0.008638 0.821616 0.633475
O O16 0.771045 0.237271 0.141564
O O17 0.016686 0.129471 0.127099
O O18 0.773035 0.033761 0.169046
O O19 0.000000 0.500000 0.302443
#
# Coordination Sequence:
#
# PCOD9331573 Si02
#       8
#     8   8   8   8   8   8   8   8
#     4  10  26  42  66  97 131 178 235 290 345 419
#     4  11  24  40  61  95 136 174 221 277 350 432
#     4  10  23  44  70 102 135 176 235 294 352 430
#     4  11  23  43  65  95 131 184 230 287 356 416
#     4  11  23  40  63  95 130 177 219 288 343 417
#     4  10  22  45  67  91 137 178 223 288 355 416
#     4  11  24  39  68  94 131 179 227 276 356 418
#     4  12  25  41  65  97 137 177 237 282 359 420
#
# _framework density 20.146304000000001
#
# number of rings (size 3 to 8) (size 9 to 14) (size 15 to 20)
#    0.000    1.250    2.500    2.250    7.000    3.000 
#    0.000    0.000    0.000    1.500    0.000    0.000 
#    0.000    0.000    0.000    0.000    0.000    0.000 
#
# Total GULP energy -178322.700646 kJ/mol
# GULP energy per Si atom -5572.584395 kJ/mol
# Density = 2.010045 g / cm^3
# Si number density = 20.146304 Si / 1000 Ang^3
#
#
#
# Elastic Constant Matrix: (Units=GPa)
#
#
# Indices 1 2 3 4 5 6 
#
# 1 90.1357 18.0555 46.7421 0.0000 0.0000 0.0000
# 2 18.0555 95.5504 13.4987 0.0000 0.0000 0.0000
# 3 46.7421 13.4987 78.4037 0.0000 0.0000 0.0000
# 4 0.0000 0.0000 0.0000 16.5893 0.0000 0.0000
# 5 0.0000 0.0000 0.0000 0.0000 22.5328 0.0000
# 6 0.0000 0.0000 0.0000 0.0000 0.0000 20.2555
#
#
#
# Elastic Compliance Matrix: (Units=1/GPa)
#
#
# Indices 1 2 3 4 5 6 
#
# 1 0.016341 -0.001754 -0.009440 0.000000 0.000000 0.000000
# 2 -0.001754 0.010915 -0.000833 0.000000 0.000000 0.000000
# 3 -0.009440 -0.000833 0.018526 0.000000 0.000000 0.000000
# 4 0.000000 0.000000 0.000000 0.060280 0.000000 0.000000
# 5 0.000000 0.000000 0.000000 0.000000 0.044380 0.000000
# 6 0.000000 0.000000 0.000000 0.000000 0.000000 0.049369
#
#
# Mechanical properties :
#
#
# Convention : Reuss Voigt Hill
#
# Bulk Modulus (GPa) = 46.02672 46.74248 46.38460
# Shear Modulus (GPa) = 21.63485 24.26176 22.94831
#
# Velocity S-wave (km/s) = 3.28058 3.47404 3.37869
# Velocity P-wave (km/s) = 6.10290 6.27246 6.18826
#
# Compressibility (1/GPa) = 0.02172651
#
# Stress axis : x y z
#
# Youngs Moduli (GPa) = 61.19494 91.61785 53.97835
#
# Poissons Ratio (x) = 0.16072 0.50956
# Poissons Ratio (y) = 0.10735 0.04498
# Poissons Ratio (z) = 0.57769 0.07635
#
# Static dielectric constant tensor:
#      x y z
#    x 1.745600 0.000000 0.000000 
#    y 0.000000 1.807290 0.000000 
#    z 0.000000 0.000000 1.569790 
# 
# From -- ./inp_files/30353.got.cif
#   From: 2010.05.17/outbox.cif.g08.bks.cpg/sg23_16_cif.got.tgz:30353.got - 2010.06.04 12:02:01.
