data_PCOD9331284
_publ_section_title
;
Structure prediction by ZEFSAII (Michael W. Deem and Ramdas Pophale) SiO2 
 PCOD9331284
Probable space group: I 2 2 2
;
_chemical_formula_sum "Si O2"
_cell_formula_units_Z 48
_cell_length_a 11.769544
_cell_length_b 9.889929
_cell_length_c 21.585006
_cell_angle_alpha 90.000000
_cell_angle_beta 90.000000
_cell_angle_gamma 90.000000
_cell_volume 2512.493717
_symmetry_space_group_name_H-M "I 2 2 2"
_symmetry_group_IT_number 23
_symmetry_cell_setting 'orthorhombic'
loop_
_space_group_symop_operation_xyz
x,y,z
-x,-y,z
x,-y,-z
-x,y,-z
1/2+x,1/2+y,1/2+z
1/2-x,1/2-y,1/2+z
1/2+x,1/2-y,1/2-z
1/2-x,1/2+y,1/2-z
loop_
_atom_site_type_symbol
_atom_site_label
_atom_site_fract_x
_atom_site_fract_y
_atom_site_fract_z
Si Si1 0.880099 0.372322 0.965199
Si Si2 0.599908 0.265635 0.863413
Si Si3 0.808070 0.658937 0.511601
Si Si4 0.158369 0.745207 0.626000
Si Si5 0.636610 0.008418 0.792017
Si Si6 0.286091 0.012130 0.652063
O O1 0.808672 0.236344 0.971891
O O2 0.879159 0.422135 0.894132
O O3 0.820739 0.500000 0.000000
O O4 0.000000 0.356904 0.000000
O O5 0.611582 0.192940 0.930335
O O6 0.467041 0.288582 0.850461
O O7 0.658229 0.160224 0.815811
O O8 0.672798 0.401229 0.862110
O O9 0.795692 0.500000 0.500000
O O10 0.849252 0.721409 0.447173
O O11 0.183779 0.604087 0.660756
O O12 0.253692 0.857387 0.638092
O O13 0.500000 0.000000 0.793969
O O14 0.679140 0.979400 0.723330
#
# Coordination Sequence:
#
# PCOD9331284 Si02
#       6
#     8   8   8   8   8   8
#     4  10  22  39  59  86 113 145 194 234 281 333
#     4  10  22  37  57  88 115 146 191 234 285 340
#     4  11  21  37  62  85 114 150 185 237 290 337
#     4  11  21  37  58  87 115 148 189 233 286 339
#     4  10  22  37  58  83 112 153 192 227 282 342
#     4  11  22  38  60  82 116 153 187 240 281 337
#
# _framework density 19.104524000000001
#
# number of rings (size 3 to 8) (size 9 to 14) (size 15 to 20)
#    0.000    1.500    3.333    2.000    2.333    1.000 
#    0.000    1.667    0.000    2.000    0.000    0.000 
#    0.000    0.000    0.000    0.000    0.000    0.000 
#
# Total GULP energy -133913.612799 kJ/mol
# GULP energy per Si atom -5579.733867 kJ/mol
# Density = 1.906104 g / cm^3
# Si number density = 19.104524 Si / 1000 Ang^3
#
#
#
# Elastic Constant Matrix: (Units=GPa)
#
#
# Indices 1 2 3 4 5 6 
#
# 1 49.5336 8.0447 -3.1657 0.0000 0.0000 0.0000
# 2 8.0447 66.4380 -1.9181 0.0000 0.0000 0.0000
# 3 -3.1657 -1.9181 111.0418 0.0000 0.0000 0.0000
# 4 0.0000 0.0000 0.0000 31.6939 0.0000 0.0000
# 5 0.0000 0.0000 0.0000 0.0000 20.7695 0.0000
# 6 0.0000 0.0000 0.0000 0.0000 0.0000 9.6522
#
#
#
# Elastic Compliance Matrix: (Units=1/GPa)
#
#
# Indices 1 2 3 4 5 6 
#
# 1 0.020626 -0.002482 0.000545 0.000000 0.000000 0.000000
# 2 -0.002482 0.015358 0.000195 0.000000 0.000000 0.000000
# 3 0.000545 0.000195 0.009025 0.000000 0.000000 0.000000
# 4 0.000000 0.000000 0.000000 0.031552 0.000000 0.000000
# 5 0.000000 0.000000 0.000000 0.000000 0.048147 0.000000
# 6 0.000000 0.000000 0.000000 0.000000 0.000000 0.103604
#
#
# Mechanical properties :
#
#
# Convention : Reuss Voigt Hill
#
# Bulk Modulus (GPa) = 24.08231 25.88170 24.98201
# Shear Modulus (GPa) = 20.35523 27.35995 23.85759
#
# Velocity S-wave (km/s) = 3.26769 3.78844 3.53766
# Velocity P-wave (km/s) = 5.18363 5.71955 5.45817
#
# Compressibility (1/GPa) = 0.04152425
#
# Stress axis : x y z
#
# Youngs Moduli (GPa) = 48.48195 65.11370 110.80920
#
# Poissons Ratio (x) = 0.16160 -0.06041
# Poissons Ratio (y) = 0.12032 -0.02156
# Poissons Ratio (z) = -0.02643 -0.01267
#
# Static dielectric constant tensor:
#      x y z
#    x 1.663110 0.000000 0.000000 
#    y 0.000000 1.658310 0.000000 
#    z 0.000000 0.000000 1.667680 
# 
# From -- ./inp_files/10086.got.cif
#   From: 2010.05.17/outbox.cif.g08.bks.cpg/sg23_6_cif.got.tgz:10086.got - 2010.06.04 12:02:01.
