data_PCOD9331223
_publ_section_title
;
Structure prediction by ZEFSAII (Michael W. Deem and Ramdas Pophale) SiO2 
 PCOD9331223
Probable space group: I 2 2 2
;
_chemical_formula_sum "Si O2"
_cell_formula_units_Z 42
_cell_length_a 12.835393
_cell_length_b 6.831280
_cell_length_c 21.165758
_cell_angle_alpha 90.000000
_cell_angle_beta 90.000000
_cell_angle_gamma 90.000000
_cell_volume 1855.859453
_symmetry_space_group_name_H-M "I 2 2 2"
_symmetry_group_IT_number 23
_symmetry_cell_setting 'orthorhombic'
loop_
_space_group_symop_operation_xyz
x,y,z
-x,-y,z
x,-y,-z
-x,y,-z
1/2+x,1/2+y,1/2+z
1/2-x,1/2-y,1/2+z
1/2+x,1/2-y,1/2-z
1/2-x,1/2+y,1/2-z
loop_
_atom_site_type_symbol
_atom_site_label
_atom_site_fract_x
_atom_site_fract_y
_atom_site_fract_z
Si Si1 0.000000 0.500000 0.500000
Si Si2 0.000000 0.000000 0.000000
Si Si3 0.822882 0.558176 0.287840
Si Si4 0.500000 0.000000 0.500000
Si Si5 0.610952 0.499695 0.214051
Si Si6 0.853410 0.720164 0.600014
Si Si7 0.000000 0.500000 0.198074
Si Si8 0.880776 0.323989 0.913649
O O1 0.071843 0.362287 0.545332
O O2 0.934661 0.152852 0.956197
O O3 0.712396 0.566452 0.252979
O O4 0.865356 0.773615 0.298407
O O5 0.819299 0.458725 0.355244
O O6 0.906496 0.439489 0.244824
O O7 0.412102 0.031390 0.445771
O O8 0.500000 0.500000 0.248541
O O9 0.599938 0.622307 0.149237
O O10 0.741528 0.804484 0.580739
O O11 0.936656 0.655932 0.154248
#
# Coordination Sequence:
#
# PCOD9331223 Si02
#       8
#     2   2   8   2   8   8   4   8
#     4  12  28  52  80  98 170 210 254 318 366 482
#     4  10  22  42  64 108 136 182 250 304 364 464
#     4  12  25  46  75 111 154 193 247 322 383 455
#     4   8  20  42  70  92 136 176 228 312 344 446
#     4  12  25  45  73 112 150 195 254 309 389 456
#     4  12  26  51  70 107 147 206 251 307 378 448
#     4  11  21  43  72 103 143 189 236 314 382 433
#     4  10  21  43  70 101 138 186 245 301 378 435
#
# _framework density 22.631024
#
# number of rings (size 3 to 8) (size 9 to 14) (size 15 to 20)
#    0.000    0.762    3.810    3.429    0.000    1.524 
#   17.143    0.952    0.000    0.000    0.000    0.000 
#    0.000    0.000    0.000    0.000    0.000    0.000 
#
# Total GULP energy -116941.122168 kJ/mol
# GULP energy per Si atom -5568.624865 kJ/mol
# Density = 2.257952 g / cm^3
# Si number density = 22.631024 Si / 1000 Ang^3
#
#
#
# Elastic Constant Matrix: (Units=GPa)
#
#
# Indices 1 2 3 4 5 6 
#
# 1 207.1294 36.1344 69.9144 0.0000 0.0000 0.0000
# 2 36.1344 77.2157 14.3902 0.0000 0.0000 0.0000
# 3 69.9144 14.3902 115.8392 0.0000 0.0000 0.0000
# 4 0.0000 0.0000 0.0000 35.9867 0.0000 0.0000
# 5 0.0000 0.0000 0.0000 0.0000 95.1729 0.0000
# 6 0.0000 0.0000 0.0000 0.0000 0.0000 34.8201
#
#
#
# Elastic Compliance Matrix: (Units=1/GPa)
#
#
# Indices 1 2 3 4 5 6 
#
# 1 0.006454 -0.002349 -0.003603 0.000000 0.000000 0.000000
# 2 -0.002349 0.014112 -0.000336 0.000000 0.000000 0.000000
# 3 -0.003603 -0.000336 0.010849 0.000000 0.000000 0.000000
# 4 0.000000 0.000000 0.000000 0.027788 0.000000 0.000000
# 5 0.000000 0.000000 0.000000 0.000000 0.010507 0.000000
# 6 0.000000 0.000000 0.000000 0.000000 0.000000 0.028719
#
#
# Mechanical properties :
#
#
# Convention : Reuss Voigt Hill
#
# Bulk Modulus (GPa) = 53.07844 71.22913 62.15379
# Shear Modulus (GPa) = 42.63104 51.84562 47.23833
#
# Velocity S-wave (km/s) = 4.34492 4.79154 4.57368
# Velocity P-wave (km/s) = 6.97681 7.88379 7.44413
#
# Compressibility (1/GPa) = 0.01884004
#
# Stress axis : x y z
#
# Youngs Moduli (GPa) = 154.94373 70.85979 92.17251
#
# Poissons Ratio (x) = 0.16643 0.33214
# Poissons Ratio (y) = 0.36391 0.03093
# Poissons Ratio (z) = 0.55834 0.02378
#
# Static dielectric constant tensor:
#      x y z
#    x 1.895720 0.000000 0.000000 
#    y 0.000000 -6.199600 0.000000 
#    z 0.000000 0.000000 1.920470 
# 
# From -- ./inp_files/26631.got.cif
#   From: 2010.05.17/outbox.cif.g08.bks.cpg/sg23_14_cif.got.tgz:26631.got - 2010.06.04 12:02:01.
