data_PCOD9331637
_publ_section_title
;
Structure prediction by ZEFSAII (Michael W. Deem and Ramdas Pophale) SiO2 
 PCOD9331637
Probable space group: I 2 2 2
;
_chemical_formula_sum "Si O2"
_cell_formula_units_Z 48
_cell_length_a 12.562541
_cell_length_b 16.748315
_cell_length_c 10.091685
_cell_angle_alpha 90.000000
_cell_angle_beta 90.000000
_cell_angle_gamma 90.000000
_cell_volume 2123.304590
_symmetry_space_group_name_H-M "I 2 2 2"
_symmetry_group_IT_number 23
_symmetry_cell_setting 'orthorhombic'
loop_
_space_group_symop_operation_xyz
x,y,z
-x,-y,z
x,-y,-z
-x,y,-z
1/2+x,1/2+y,1/2+z
1/2-x,1/2-y,1/2+z
1/2+x,1/2-y,1/2-z
1/2-x,1/2+y,1/2-z
loop_
_atom_site_type_symbol
_atom_site_label
_atom_site_fract_x
_atom_site_fract_y
_atom_site_fract_z
Si Si1 0.349636 0.146990 0.393780
Si Si2 0.880935 0.481538 0.322181
Si Si3 0.682919 0.588372 0.523446
Si Si4 0.880197 0.818638 0.287259
Si Si5 0.610266 0.685522 0.264019
Si Si6 0.169718 0.648705 0.806771
O O1 0.387754 0.072408 0.308853
O O2 0.220508 0.152548 0.372613
O O3 0.396082 0.225545 0.322950
O O4 0.378972 0.141704 0.547480
O O5 0.804112 0.432700 0.424131
O O6 0.833185 0.565968 0.272892
O O7 0.000000 0.500000 0.366488
O O8 0.636489 0.500000 0.500000
O O9 0.639075 0.641973 0.642761
O O10 0.648990 0.634953 0.391600
O O11 0.875567 0.722457 0.277623
O O12 0.003104 0.839792 0.310318
O O13 0.709640 0.677427 0.167621
#
# Coordination Sequence:
#
# PCOD9331637 Si02
#       6
#     8   8   8   8   8   8
#     4  10  23  41  62  94 131 164 220 272 318 401
#     4  11  24  41  65  95 128 168 211 266 336 389
#     4  11  22  42  63  96 126 164 217 271 312 388
#     4  10  23  39  65  94 124 174 219 263 330 389
#     4  11  22  41  64  91 129 172 218 267 327 384
#     4  11  22  41  63  92 133 168 215 272 322 393
#
# _framework density 22.606272000000001
#
# number of rings (size 3 to 8) (size 9 to 14) (size 15 to 20)
#    0.000    1.333    3.333    2.000    0.000    5.000 
#    0.000    0.000    0.000    2.000    0.000    0.000 
#    0.000    0.000    0.000    0.000    0.000    0.000 
#
# Total GULP energy -133942.645433 kJ/mol
# GULP energy per Si atom -5580.943560 kJ/mol
# Density = 2.255482 g / cm^3
# Si number density = 22.606272 Si / 1000 Ang^3
#
#
#
# Elastic Constant Matrix: (Units=GPa)
#
#
# Indices 1 2 3 4 5 6 
#
# 1 136.4138 -2.2593 -12.6337 0.0000 0.0000 0.0000
# 2 -2.2593 128.0352 5.7774 0.0000 0.0000 0.0000
# 3 -12.6337 5.7774 63.9409 0.0000 0.0000 0.0000
# 4 0.0000 0.0000 0.0000 -21.8921 0.0000 0.0000
# 5 0.0000 0.0000 0.0000 0.0000 4.7419 0.0000
# 6 0.0000 0.0000 0.0000 0.0000 0.0000 3.4597
#
#
#
# Elastic Compliance Matrix: (Units=1/GPa)
#
#
# Indices 1 2 3 4 5 6 
#
# 1 0.007468 0.000065 0.001470 0.000000 0.000000 0.000000
# 2 0.000065 0.007843 -0.000696 0.000000 0.000000 0.000000
# 3 0.001470 -0.000696 0.015993 0.000000 0.000000 0.000000
# 4 0.000000 0.000000 0.000000 -0.045679 0.000000 0.000000
# 5 0.000000 0.000000 0.000000 0.000000 0.210886 0.000000
# 6 0.000000 0.000000 0.000000 0.000000 0.000000 0.289038
#
#
# Mechanical properties :
#
#
# Convention : Reuss Voigt Hill
#
# Bulk Modulus (GPa) = 30.31945 34.46207 32.39076
# Shear Modulus (GPa) = 10.10378 19.76227 14.93303
#
# Velocity S-wave (km/s) = 2.11640 2.95989 2.57294
# Velocity P-wave (km/s) = 4.40605 5.19219 4.81519
#
# Compressibility (1/GPa) = 0.03298213
#
# Stress axis : x y z
#
# Youngs Moduli (GPa) = 133.90775 127.50389 62.52858
#
# Poissons Ratio (x) = -0.00835 -0.09189
# Poissons Ratio (y) = -0.00877 0.04350
# Poissons Ratio (z) = -0.19679 0.08871
#
# Static dielectric constant tensor:
#      x y z
#    x 1.925650 0.000000 0.000000 
#    y 0.000000 1.826960 0.000000 
#    z 0.000000 0.000000 1.828040 
# 
# From -- ./inp_files/15747.got.cif
#   From: 2010.05.17/outbox.cif.g08.bks.cpg/sg23_8_cif.got.tgz:15747.got - 2010.06.04 12:02:01.
