data_PCOD9331362
_publ_section_title
;
Structure prediction by ZEFSAII (Michael W. Deem and Ramdas Pophale) SiO2 
 PCOD9331362
Probable space group: I 2 2 2
;
_chemical_formula_sum "Si O2"
_cell_formula_units_Z 40
_cell_length_a 7.774215
_cell_length_b 26.692013
_cell_length_c 8.517149
_cell_angle_alpha 90.000000
_cell_angle_beta 90.000000
_cell_angle_gamma 90.000000
_cell_volume 1767.388886
_symmetry_space_group_name_H-M "I 2 2 2"
_symmetry_group_IT_number 23
_symmetry_cell_setting 'orthorhombic'
loop_
_space_group_symop_operation_xyz
x,y,z
-x,-y,z
x,-y,-z
-x,y,-z
1/2+x,1/2+y,1/2+z
1/2-x,1/2-y,1/2+z
1/2+x,1/2-y,1/2-z
1/2-x,1/2+y,1/2-z
loop_
_atom_site_type_symbol
_atom_site_label
_atom_site_fract_x
_atom_site_fract_y
_atom_site_fract_z
Si Si1 0.750837 0.194716 0.094526
Si Si2 0.891202 0.411327 0.640733
Si Si3 0.099836 0.220249 0.236752
Si Si4 0.697092 0.552351 0.066543
Si Si5 0.636422 0.855403 0.387212
O O1 0.708361 0.136825 0.069602
O O2 0.600488 0.226694 0.175104
O O3 0.909620 0.199354 0.214413
O O4 0.813003 0.220172 0.934561
O O5 0.756824 0.442385 0.750082
O O6 0.000000 0.436702 0.500000
O O7 0.032477 0.384594 0.752383
O O8 0.218751 0.182287 0.332421
O O9 0.769000 0.500000 0.000000
O O10 0.500000 0.553381 0.000000
O O11 0.780860 0.600678 0.989278
O O12 0.500000 0.828202 0.500000
#
# Coordination Sequence:
#
# PCOD9331362 Si02
#       5
#     8   8   8   8   8
#     4  11  25  39  62  91 133 181 229 284 341 407
#     4  11  22  42  67  99 137 179 226 293 350 418
#     4  11  24  40  61  93 132 180 232 280 339 414
#     4  10  23  45  72 100 132 177 230 286 360 437
#     4  10  22  39  65  91 131 170 221 276 346 416
#
# _framework density 22.632258
#
# number of rings (size 3 to 8) (size 9 to 14) (size 15 to 20)
#    0.000    1.400    2.000    2.400    8.400    3.600 
#    0.000    2.000    0.000    2.400    0.000    0.000 
#    0.000    0.000    0.000    0.000    0.000    0.000 
#
# Total GULP energy -111785.476724 kJ/mol
# GULP energy per Si atom -5589.273836 kJ/mol
# Density = 2.258075 g / cm^3
# Si number density = 22.632258 Si / 1000 Ang^3
#
#
#
# Elastic Constant Matrix: (Units=GPa)
#
#
# Indices 1 2 3 4 5 6 
#
# 1 101.7881 19.6338 34.1767 0.0001 0.0000 -0.0007
# 2 19.6338 94.5872 33.8224 -0.0001 -0.0001 0.0002
# 3 34.1767 33.8224 104.5458 0.0001 -0.0013 -0.0020
# 4 0.0001 -0.0001 0.0001 19.2725 -0.0001 -0.0004
# 5 0.0000 -0.0001 -0.0013 -0.0001 44.5789 0.0004
# 6 -0.0007 0.0002 -0.0020 -0.0004 0.0004 -22.9640
#
#
#
# Elastic Compliance Matrix: (Units=1/GPa)
#
#
# Indices 1 2 3 4 5 6 
#
# 1 0.011144 -0.001143 -0.003273 0.000000 0.000000 0.000000
# 2 -0.001143 0.012072 -0.003532 0.000000 0.000000 0.000000
# 3 -0.003273 -0.003532 0.011778 0.000000 0.000000 -0.000001
# 4 0.000000 0.000000 0.000000 0.051887 0.000000 -0.000001
# 5 0.000000 0.000000 0.000000 0.000000 0.022432 0.000000
# 6 0.000000 0.000000 -0.000001 -0.000001 0.000000 -0.043546
#
#
# Mechanical properties :
#
#
# Convention : Reuss Voigt Hill
#
# Bulk Modulus (GPa) = 52.36145 52.90965 52.63555
# Shear Modulus (GPa) = 56.79918 22.39669 39.59794
#
# Velocity S-wave (km/s) = 5.01508 3.14919 4.18739
# Velocity P-wave (km/s) = 7.53132 6.05408 6.83274
#
# Compressibility (1/GPa) = 0.01909802
#
# Stress axis : x y z
#
# Youngs Moduli (GPa) = 89.73599 82.83318 84.90446
#
# Poissons Ratio (x) = 0.09465 0.27792
# Poissons Ratio (y) = 0.10254 0.29989
# Poissons Ratio (z) = 0.29373 0.29257
#
# Static dielectric constant tensor:
#      x y z
#    x 1.903390 0.000000 0.000000 
#    y 0.000000 1.814490 0.000000 
#    z 0.000000 0.000000 1.909470 
# 
# From -- ./inp_files/6922.got.cif
#   From: 2010.05.17/outbox.cif.g08.bks.cpg/sg23_4_cif.got.tgz:6922.got - 2010.06.04 12:02:01.
