data_PCOD9331254
_publ_section_title
;
Structure prediction by ZEFSAII (Michael W. Deem and Ramdas Pophale) SiO2 
 PCOD9331254
Probable space group: I 2 2 2
;
_chemical_formula_sum "Si O2"
_cell_formula_units_Z 48
_cell_length_a 14.279395
_cell_length_b 8.968119
_cell_length_c 20.962035
_cell_angle_alpha 90.000000
_cell_angle_beta 90.000000
_cell_angle_gamma 90.000000
_cell_volume 2684.383814
_symmetry_space_group_name_H-M "I 2 2 2"
_symmetry_group_IT_number 23
_symmetry_cell_setting 'orthorhombic'
loop_
_space_group_symop_operation_xyz
x,y,z
-x,-y,z
x,-y,-z
-x,y,-z
1/2+x,1/2+y,1/2+z
1/2-x,1/2-y,1/2+z
1/2+x,1/2-y,1/2-z
1/2-x,1/2+y,1/2-z
loop_
_atom_site_type_symbol
_atom_site_label
_atom_site_fract_x
_atom_site_fract_y
_atom_site_fract_z
Si Si1 0.785277 0.361473 0.743595
Si Si2 0.220415 0.088724 0.065865
Si Si3 0.504831 0.825693 0.731160
Si Si4 0.839014 0.668025 0.680540
Si Si5 0.138699 0.822574 0.138167
Si Si6 0.892832 0.324448 0.006755
O O1 0.801007 0.535249 0.727157
O O2 0.717662 0.317164 0.801551
O O3 0.729771 0.300907 0.682175
O O4 0.886780 0.292337 0.757217
O O5 0.310862 0.119127 0.109694
O O6 0.149601 0.988104 0.108590
O O7 0.169771 0.239548 0.044780
O O8 0.240045 0.000000 0.000000
O O9 0.446062 0.817245 0.797326
O O10 0.450763 0.719811 0.681349
O O11 0.500000 0.000000 0.708971
O O12 0.139973 0.717421 0.077236
O O13 0.890421 0.500000 0.000000
O O14 0.000000 0.270932 0.000000
#
# Coordination Sequence:
#
# PCOD9331254 Si02
#       6
#     8   8   8   8   8   8
#     4   9  18  33  50  74 103 136 168 214 257 307
#     4   9  19  35  51  73 108 136 171 220 263 311
#     4   9  18  31  55  78 104 137 176 216 260 314
#     4   9  18  33  52  76 101 139 174 212 266 310
#     4   9  19  34  50  76 106 133 172 211 262 310
#     4  10  22  34  51  76  97 137 175 209 262 313
#
# _framework density 17.8812
#
# number of rings (size 3 to 8) (size 9 to 14) (size 15 to 20)
#    0.000    2.833    0.000    0.000    4.667    5.667 
#    3.000    2.500    0.000   23.500    0.000    1.167 
#    0.000    0.000    0.000    0.000    0.000    0.000 
#
# Total GULP energy -133690.070566 kJ/mol
# GULP energy per Si atom -5570.419607 kJ/mol
# Density = 1.784050 g / cm^3
# Si number density = 17.881200 Si / 1000 Ang^3
#
#
#
# Elastic Constant Matrix: (Units=GPa)
#
#
# Indices 1 2 3 4 5 6 
#
# 1 55.1994 12.9385 18.5065 0.0000 0.0000 0.0000
# 2 12.9385 25.1124 25.4911 0.0000 0.0000 0.0000
# 3 18.5065 25.4911 80.3522 0.0000 0.0000 0.0000
# 4 0.0000 0.0000 0.0000 6.4034 0.0000 0.0000
# 5 0.0000 0.0000 0.0000 0.0000 14.6306 0.0000
# 6 0.0000 0.0000 0.0000 0.0000 0.0000 20.8943
#
#
#
# Elastic Compliance Matrix: (Units=1/GPa)
#
#
# Indices 1 2 3 4 5 6 
#
# 1 0.020832 -0.008647 -0.002055 0.000000 0.000000 0.000000
# 2 -0.008647 0.062325 -0.017780 0.000000 0.000000 0.000000
# 3 -0.002055 -0.017780 0.018559 0.000000 0.000000 0.000000
# 4 0.000000 0.000000 0.000000 0.156167 0.000000 0.000000
# 5 0.000000 0.000000 0.000000 0.000000 0.068350 0.000000
# 6 0.000000 0.000000 0.000000 0.000000 0.000000 0.047860
#
#
# Mechanical properties :
#
#
# Convention : Reuss Voigt Hill
#
# Bulk Modulus (GPa) = 22.34589 30.50401 26.42495
# Shear Modulus (GPa) = 11.21138 15.30085 13.25612
#
# Velocity S-wave (km/s) = 2.50670 2.92840 2.72572
# Velocity P-wave (km/s) = 4.57187 5.34138 4.97154
#
# Compressibility (1/GPa) = 0.04475097
#
# Stress axis : x y z
#
# Youngs Moduli (GPa) = 48.00333 16.04491 53.88181
#
# Poissons Ratio (x) = 0.13875 0.11070
# Poissons Ratio (y) = 0.41511 0.95804
# Poissons Ratio (z) = 0.09863 0.28529
#
# Static dielectric constant tensor:
#      x y z
#    x 1.606590 0.000000 0.000000 
#    y 0.000000 1.653210 0.000000 
#    z 0.000000 0.000000 1.625760 
# 
# From -- ./inp_files/10083.got.cif
#   From: 2010.05.17/outbox.cif.g08.bks.cpg/sg23_6_cif.got.tgz:10083.got - 2010.06.04 12:02:01.
