data_PCOD9331096
_publ_section_title
;
Structure prediction by ZEFSAII (Michael W. Deem and Ramdas Pophale) SiO2 
 PCOD9331096
Probable space group: I 2 2 2
;
_chemical_formula_sum "Si O2"
_cell_formula_units_Z 34
_cell_length_a 15.257119
_cell_length_b 11.803162
_cell_length_c 9.196307
_cell_angle_alpha 90.000000
_cell_angle_beta 90.000000
_cell_angle_gamma 90.000000
_cell_volume 1656.091631
_symmetry_space_group_name_H-M "I 2 2 2"
_symmetry_group_IT_number 23
_symmetry_cell_setting 'orthorhombic'
loop_
_space_group_symop_operation_xyz
x,y,z
-x,-y,z
x,-y,-z
-x,y,-z
1/2+x,1/2+y,1/2+z
1/2-x,1/2-y,1/2+z
1/2+x,1/2-y,1/2-z
1/2-x,1/2+y,1/2-z
loop_
_atom_site_type_symbol
_atom_site_label
_atom_site_fract_x
_atom_site_fract_y
_atom_site_fract_z
Si Si1 0.000000 0.000000 0.000000
Si Si2 0.685611 0.256648 0.903779
Si Si3 0.856489 0.773034 0.265743
Si Si4 0.907044 0.029286 0.275148
Si Si5 0.020523 0.371355 0.673343
O O1 0.062995 0.066646 0.888334
O O2 0.784923 0.259681 0.852192
O O3 0.643351 0.377272 0.863310
O O4 0.621970 0.167294 0.819514
O O5 0.677944 0.236149 0.075291
O O6 0.952226 0.715466 0.251820
O O7 0.860940 0.908837 0.261790
O O8 0.000000 0.000000 0.346176
O O9 0.000000 0.500000 0.719758
O O10 0.000000 0.364462 0.500000
#
# Coordination Sequence:
#
# PCOD9331096 Si02
#       5
#     2   8   8   8   8
#     4   8  20  36  70  92 114 158 206 272 300 366
#     4  11  24  39  63  90 123 161 204 254 309 372
#     4  11  24  39  63  90 123 161 204 254 309 372
#     4  10  21  40  64  88 120 159 207 258 312 362
#     4   9  19  39  59  85 117 156 195 243 301 362
#
# _framework density 20.530265
#
# number of rings (size 3 to 8) (size 9 to 14) (size 15 to 20)
#    0.706    1.176    2.353    0.706    6.588    0.941 
#    0.000    0.000    0.000    1.412    0.000    0.000 
#    0.000    0.000    0.000    0.000    0.000    0.000 
#
# Total GULP energy -94769.235956 kJ/mol
# GULP energy per Si atom -5574.660939 kJ/mol
# Density = 2.048354 g / cm^3
# Si number density = 20.530265 Si / 1000 Ang^3
#
#
#
# Elastic Constant Matrix: (Units=GPa)
#
#
# Indices 1 2 3 4 5 6 
#
# 1 51.0149 -7.5159 7.0033 0.0000 0.0000 0.0000
# 2 -7.5159 73.8722 -19.6570 0.0000 0.0000 0.0000
# 3 7.0033 -19.6570 54.9786 0.0000 0.0000 0.0000
# 4 0.0000 0.0000 0.0000 50.7074 0.0000 0.0000
# 5 0.0000 0.0000 0.0000 0.0000 -118.2031 0.0000
# 6 0.0000 0.0000 0.0000 0.0000 0.0000 28.7165
#
#
#
# Elastic Compliance Matrix: (Units=1/GPa)
#
#
# Indices 1 2 3 4 5 6 
#
# 1 0.020102 0.001507 -0.002022 0.000000 0.000000 0.000000
# 2 0.001507 0.015073 0.005197 0.000000 0.000000 0.000000
# 3 -0.002022 0.005197 0.020305 0.000000 0.000000 0.000000
# 4 0.000000 0.000000 0.000000 0.019721 0.000000 0.000000
# 5 0.000000 0.000000 0.000000 0.000000 -0.008460 0.000000
# 6 0.000000 0.000000 0.000000 0.000000 0.000000 0.034823
#
#
# Mechanical properties :
#
#
# Convention : Reuss Voigt Hill
#
# Bulk Modulus (GPa) = 15.42135 15.50293 15.46214
# Shear Modulus (GPa) = 43.93167 5.57986 24.75577
#
# Velocity S-wave (km/s) = 4.63087 1.65039 3.47626
# Velocity P-wave (km/s) = 6.01008 3.34654 4.86418
#
# Compressibility (1/GPa) = 0.06484516
#
# Stress axis : x y z
#
# Youngs Moduli (GPa) = 49.74705 66.34288 49.24980
#
# Poissons Ratio (x) = -0.09999 0.09957
# Poissons Ratio (y) = -0.07498 -0.25596
# Poissons Ratio (z) = 0.10057 -0.34480
#
# Static dielectric constant tensor:
#      x y z
#    x 1.615280 0.000000 0.000000 
#    y 0.000000 5.042510 0.000000 
#    z 0.000000 0.000000 1.776320 
# 
# From -- ./inp_files/15369.got.cif
#   From: 2010.05.17/outbox.cif.g08.bks.cpg/sg23_8_cif.got.tgz:15369.got - 2010.06.04 12:02:01.
