data_PCOD9331743
_publ_section_title
;
Structure prediction by ZEFSAII (Michael W. Deem and Ramdas Pophale) SiO2 
 PCOD9331743
Probable space group: I 2 2 2
;
_chemical_formula_sum "Si O2"
_cell_formula_units_Z 38
_cell_length_a 9.087248
_cell_length_b 22.112322
_cell_length_c 9.006292
_cell_angle_alpha 90.000000
_cell_angle_beta 90.000000
_cell_angle_gamma 90.000000
_cell_volume 1809.725700
_symmetry_space_group_name_H-M "I 2 2 2"
_symmetry_group_IT_number 23
_symmetry_cell_setting 'orthorhombic'
loop_
_space_group_symop_operation_xyz
x,y,z
-x,-y,z
x,-y,-z
-x,y,-z
1/2+x,1/2+y,1/2+z
1/2-x,1/2-y,1/2+z
1/2+x,1/2-y,1/2-z
1/2-x,1/2+y,1/2-z
loop_
_atom_site_type_symbol
_atom_site_label
_atom_site_fract_x
_atom_site_fract_y
_atom_site_fract_z
Si Si1 0.500000 0.500000 0.500000
Si Si2 0.150998 0.615384 0.924236
Si Si3 0.500000 0.000000 0.000000
Si Si4 0.745735 0.913034 0.889020
Si Si5 0.345567 0.301696 0.919043
Si Si6 0.000000 0.500000 0.000000
Si Si7 0.839207 0.804474 0.068716
O O1 0.391729 0.455799 0.403469
O O2 0.216573 0.626856 0.759981
O O3 0.276371 0.633541 0.039096
O O4 0.106953 0.545332 0.915489
O O5 0.000000 0.642551 0.000000
O O6 0.392550 0.956736 0.091084
O O7 0.753738 0.865619 0.024751
O O8 0.351944 0.294760 0.743601
O O9 0.500000 0.295015 0.000000
O O10 0.239471 0.252122 0.992502
O O11 0.000000 0.811611 0.000000
#
# Coordination Sequence:
#
# PCOD9331743 Si02
#       7
#     2   8   2   8   8   2   8
#     4  10  24  42  70 104 144 182 242 292 352 414
#     4  10  23  44  68 100 141 180 232 282 344 414
#     4  10  26  38  74  98 142 190 238 276 362 410
#     4  11  23  44  70 102 144 185 239 288 354 413
#     4  12  27  45  73 104 137 177 232 286 358 414
#     4   8  22  44  68  98 138 184 234 276 350 412
#     4  12  26  47  71 100 139 182 228 291 351 426
#
# _framework density 20.997657
#
# number of rings (size 3 to 8) (size 9 to 14) (size 15 to 20)
#    0.632    0.421    1.053    5.053    4.421    1.684 
#    0.000    0.000    0.000    0.000    0.000    0.000 
#    0.000    0.000    0.000    0.000    0.000    0.000 
#
# Total GULP energy -105936.168789 kJ/mol
# GULP energy per Si atom -5575.587831 kJ/mol
# Density = 2.094987 g / cm^3
# Si number density = 20.997657 Si / 1000 Ang^3
#
#
#
# Elastic Constant Matrix: (Units=GPa)
#
#
# Indices 1 2 3 4 5 6 
#
# 1 107.3330 36.1787 51.3847 0.0003 0.0001 0.0001
# 2 36.1787 81.4787 37.6892 0.0000 0.0001 0.0000
# 3 51.3847 37.6892 196.7552 0.0008 -0.0002 0.0000
# 4 0.0003 0.0000 0.0008 21.2042 0.0001 0.0000
# 5 0.0001 0.0001 -0.0002 0.0001 12.9983 0.0004
# 6 0.0001 0.0000 0.0000 0.0000 0.0004 24.6095
#
#
#
# Elastic Compliance Matrix: (Units=1/GPa)
#
#
# Indices 1 2 3 4 5 6 
#
# 1 0.011824 -0.004193 -0.002285 0.000000 0.000000 0.000000
# 2 -0.004193 0.014954 -0.001769 0.000000 0.000000 0.000000
# 3 -0.002285 -0.001769 0.006018 0.000000 0.000000 0.000000
# 4 0.000000 0.000000 0.000000 0.047160 0.000000 0.000000
# 5 0.000000 0.000000 0.000000 0.000000 0.076933 -0.000001
# 6 0.000000 0.000000 0.000000 0.000000 -0.000001 0.040635
#
#
# Mechanical properties :
#
#
# Convention : Reuss Voigt Hill
#
# Bulk Modulus (GPa) = 61.34624 70.67468 66.01046
# Shear Modulus (GPa) = 22.78402 29.11669 25.95036
#
# Velocity S-wave (km/s) = 3.29762 3.72783 3.51931
# Velocity P-wave (km/s) = 6.61651 7.22914 6.92960
#
# Compressibility (1/GPa) = 0.01630092
#
# Stress axis : x y z
#
# Youngs Moduli (GPa) = 84.57343 66.87396 166.16693
#
# Poissons Ratio (x) = 0.28043 0.37964
# Poissons Ratio (y) = 0.35465 0.29399
# Poissons Ratio (z) = 0.19323 0.11832
#
# Static dielectric constant tensor:
#      x y z
#    x 1.716550 0.000000 0.000000 
#    y 0.000000 1.795970 0.000000 
#    z 0.000000 0.000000 1.852690 
# 
# From -- ./inp_files/6980.got.cif
#   From: 2010.05.17/outbox.cif.g08.bks.cpg/sg23_4_cif.got.tgz:6980.got - 2010.06.04 12:02:01.
