data_PCOD9331709
_publ_section_title
;
Structure prediction by ZEFSAII (Michael W. Deem and Ramdas Pophale) SiO2 
 PCOD9331709
Probable space group: I 2 2 2
;
_chemical_formula_sum "Si O2"
_cell_formula_units_Z 56
_cell_length_a 13.995225
_cell_length_b 9.985977
_cell_length_c 21.956974
_cell_angle_alpha 90.000000
_cell_angle_beta 90.000000
_cell_angle_gamma 90.000000
_cell_volume 3068.618748
_symmetry_space_group_name_H-M "I 2 2 2"
_symmetry_group_IT_number 23
_symmetry_cell_setting 'orthorhombic'
loop_
_space_group_symop_operation_xyz
x,y,z
-x,-y,z
x,-y,-z
-x,y,-z
1/2+x,1/2+y,1/2+z
1/2-x,1/2-y,1/2+z
1/2+x,1/2-y,1/2-z
1/2-x,1/2+y,1/2-z
loop_
_atom_site_type_symbol
_atom_site_label
_atom_site_fract_x
_atom_site_fract_y
_atom_site_fract_z
Si Si1 0.117429 0.762739 0.127098
Si Si2 0.767857 0.007271 0.815673
Si Si3 0.603825 0.763826 0.994858
Si Si4 0.189553 0.658469 0.996663
Si Si5 0.109803 0.500109 0.789722
Si Si6 0.395971 0.733926 0.369976
Si Si7 0.602481 0.003311 0.093064
O O1 0.119494 0.629123 0.167532
O O2 0.006701 0.805165 0.122001
O O3 0.178860 0.872115 0.163655
O O4 0.155395 0.729581 0.059193
O O5 0.701665 0.996976 0.755420
O O6 0.843588 0.125423 0.827056
O O7 0.688646 0.036343 0.865923
O O8 0.695553 0.674325 0.006626
O O9 0.597688 0.888824 0.041669
O O10 0.500000 0.695957 0.000000
O O11 0.616727 0.846669 0.932317
O O12 0.147408 0.734414 0.937194
O O13 0.163261 0.500000 0.000000
O O14 0.112153 0.628203 0.833254
O O15 0.000000 0.500000 0.763458
O O16 0.500000 0.000000 0.124402
#
# Coordination Sequence:
#
# PCOD9331709 Si02
#       7
#     8   8   8   8   8   8   8
#     4  11  24  40  61  91 123 159 204 251 298 358
#     4  12  21  38  63  89 121 152 196 258 305 345
#     4   9  18  34  53  82 119 147 189 247 293 347
#     4  12  22  38  64  87 119 168 200 240 307 367
#     4  10  23  43  63  86 118 163 210 244 293 368
#     4  11  24  40  61  91 123 159 204 251 298 358
#     4   9  17  31  55  82 109 147 189 237 296 352
#
# _framework density 18.249254000000001
#
# number of rings (size 3 to 8) (size 9 to 14) (size 15 to 20)
#    0.000    1.429    4.286    3.000    0.000    1.429 
#    0.000    1.429    0.000    1.714    0.000    0.000 
#    0.000    0.000    0.000    0.000    0.000    0.000 
#
# Total GULP energy -155957.351310 kJ/mol
# GULP energy per Si atom -5569.905404 kJ/mol
# Density = 1.820772 g / cm^3
# Si number density = 18.249254 Si / 1000 Ang^3
#
#
#
# Elastic Constant Matrix: (Units=GPa)
#
#
# Indices 1 2 3 4 5 6 
#
# 1 144.2407 28.4110 52.6028 0.0000 0.0000 0.0000
# 2 28.4110 79.1052 25.7289 0.0000 0.0000 0.0000
# 3 52.6028 25.7289 97.5249 0.0000 0.0000 0.0000
# 4 0.0000 0.0000 0.0000 16.3358 0.0000 0.0000
# 5 0.0000 0.0000 0.0000 0.0000 36.6861 0.0000
# 6 0.0000 0.0000 0.0000 0.0000 0.0000 25.4080
#
#
#
# Elastic Compliance Matrix: (Units=1/GPa)
#
#
# Indices 1 2 3 4 5 6 
#
# 1 0.008854 -0.001779 -0.004306 0.000000 0.000000 0.000000
# 2 -0.001779 0.014185 -0.002783 0.000000 0.000000 0.000000
# 3 -0.004306 -0.002783 0.013311 0.000000 0.000000 0.000000
# 4 0.000000 0.000000 0.000000 0.061215 0.000000 0.000000
# 5 0.000000 0.000000 0.000000 0.000000 0.027258 0.000000
# 6 0.000000 0.000000 0.000000 0.000000 0.000000 0.039358
#
#
# Mechanical properties :
#
#
# Convention : Reuss Voigt Hill
#
# Bulk Modulus (GPa) = 53.72420 59.37292 56.54856
# Shear Modulus (GPa) = 26.57857 29.96119 28.26988
#
# Velocity S-wave (km/s) = 3.82045 4.05628 3.94013
# Velocity P-wave (km/s) = 6.99744 7.38532 7.19399
#
# Compressibility (1/GPa) = 0.01861359
#
# Stress axis : x y z
#
# Youngs Moduli (GPa) = 112.94708 70.49454 75.12845
#
# Poissons Ratio (x) = 0.12543 0.32351
# Poissons Ratio (y) = 0.20097 0.20906
# Poissons Ratio (z) = 0.48636 0.19616
#
# Static dielectric constant tensor:
#      x y z
#    x 1.662830 0.000000 0.000000 
#    y 0.000000 1.630580 0.000000 
#    z 0.000000 0.000000 1.646850 
# 
# From -- ./inp_files/27001.got.cif
#   From: 2010.05.17/outbox.cif.g08.bks.cpg/sg23_14_cif.got.tgz:27001.got - 2010.06.04 12:02:01.
