data_PCOD9331318
_publ_section_title
;
Structure prediction by ZEFSAII (Michael W. Deem and Ramdas Pophale) SiO2 
 PCOD9331318
Probable space group: I 2 2 2
;
_chemical_formula_sum "Si O2"
_cell_formula_units_Z 56
_cell_length_a 14.589387
_cell_length_b 33.605838
_cell_length_c 6.130467
_cell_angle_alpha 90.000000
_cell_angle_beta 90.000000
_cell_angle_gamma 90.000000
_cell_volume 3005.697936
_symmetry_space_group_name_H-M "I 2 2 2"
_symmetry_group_IT_number 23
_symmetry_cell_setting 'orthorhombic'
loop_
_space_group_symop_operation_xyz
x,y,z
-x,-y,z
x,-y,-z
-x,y,-z
1/2+x,1/2+y,1/2+z
1/2-x,1/2-y,1/2+z
1/2+x,1/2-y,1/2-z
1/2-x,1/2+y,1/2-z
loop_
_atom_site_type_symbol
_atom_site_label
_atom_site_fract_x
_atom_site_fract_y
_atom_site_fract_z
Si Si1 0.408763 0.333420 0.905228
Si Si2 0.393485 0.599469 0.427068
Si Si3 0.882897 0.749303 0.301083
Si Si4 0.601495 0.831789 0.539321
Si Si5 0.770927 0.852268 0.780874
Si Si6 0.107199 0.986700 0.749877
Si Si7 0.202633 0.706727 0.349483
O O1 0.334497 0.331868 0.096434
O O2 0.500000 0.352267 0.000000
O O3 0.374953 0.362584 0.721729
O O4 0.435294 0.290924 0.800859
O O5 0.500000 0.599270 0.500000
O O6 0.324911 0.609071 0.628515
O O7 0.380404 0.560495 0.280374
O O8 0.908132 0.712200 0.150893
O O9 0.878407 0.732405 0.544721
O O10 0.779150 0.764289 0.249372
O O11 0.500000 0.847637 0.500000
O O12 0.669640 0.858877 0.681964
O O13 0.656675 0.822811 0.319849
O O14 0.750636 0.818775 0.961747
O O15 0.139661 0.000000 0.500000
O O16 0.000000 0.000000 0.750402
O O17 0.140763 0.000000 0.000000
#
# Coordination Sequence:
#
# PCOD9331318 Si02
#       7
#     8   8   8   8   8   8   8
#     4  12  25  34  54  84 119 154 208 267 322 384
#     4  12  23  38  60  88 123 169 214 256 321 389
#     4  11  21  34  53  74 106 144 204 264 331 385
#     4  11  25  39  58  77 110 160 215 274 342 401
#     4  11  23  39  56  81 115 156 208 270 322 385
#     4  10  22  38  61  90 129 174 226 246 299 390
#     4  11  20  38  55  74 105 148 200 268 328 384
#
# _framework density 18.631281000000001
#
# number of rings (size 3 to 8) (size 9 to 14) (size 15 to 20)
#    0.000    0.857    7.143    0.857    6.000    2.286 
#    0.000    0.000    0.000    0.000    0.000    0.000 
#    0.000    0.000    0.000   18.000    1.429    0.000 
#
# Total GULP energy -155953.906774 kJ/mol
# GULP energy per Si atom -5569.782385 kJ/mol
# Density = 1.858888 g / cm^3
# Si number density = 18.631281 Si / 1000 Ang^3
#
#
#
# Elastic Constant Matrix: (Units=GPa)
#
#
# Indices 1 2 3 4 5 6 
#
# 1 92.2048 15.7225 29.6624 0.0106 0.0053 0.0114
# 2 15.7225 62.8282 28.5337 -0.0063 0.0434 -0.0234
# 3 29.6624 28.5337 99.2344 0.0454 0.0449 -0.0180
# 4 0.0106 -0.0063 0.0454 29.6648 -0.0011 -0.0021
# 5 0.0053 0.0434 0.0449 -0.0011 25.9938 0.0038
# 6 0.0114 -0.0234 -0.0180 -0.0021 0.0038 3.6972
#
#
#
# Elastic Compliance Matrix: (Units=1/GPa)
#
#
# Indices 1 2 3 4 5 6 
#
# 1 0.012137 -0.001598 -0.003168 0.000000 0.000006 -0.000063
# 2 -0.001598 0.018518 -0.004847 0.000012 -0.000022 0.000098
# 3 -0.003168 -0.004847 0.012418 -0.000019 -0.000013 0.000040
# 4 0.000000 0.000012 -0.000019 0.033710 0.000002 0.000019
# 5 0.000006 -0.000022 -0.000013 0.000002 0.038471 -0.000040
# 6 -0.000063 0.000098 0.000040 0.000019 -0.000040 0.270477
#
#
# Mechanical properties :
#
#
# Convention : Reuss Voigt Hill
#
# Bulk Modulus (GPa) = 41.93625 44.67831 43.30728
# Shear Modulus (GPa) = 12.10928 23.89441 18.00184
#
# Velocity S-wave (km/s) = 2.55216 3.58507 3.11177
# Velocity P-wave (km/s) = 5.58946 6.41633 6.01712
#
# Compressibility (1/GPa) = 0.02384572
#
# Stress axis : x y z
#
# Youngs Moduli (GPa) = 82.39090 54.00264 80.52913
#
# Poissons Ratio (x) = 0.08632 0.25515
# Poissons Ratio (y) = 0.13169 0.39030
# Poissons Ratio (z) = 0.26105 0.26174
#
# Static dielectric constant tensor:
#      x y z
#    x 1.676350 0.000000 0.000000 
#    y 0.000000 1.644950 -0.000010 
#    z 0.000000 -0.000010 1.795460 
# 
# From -- ./inp_files/2749.got.cif
#   From: 2010.05.17/outbox.cif.g08.bks.cpg/sg23_2_cif.got.tgz:2749.got - 2010.06.04 12:02:01.
