data_PCOD9331140
_publ_section_title
;
Structure prediction by ZEFSAII (Michael W. Deem and Ramdas Pophale) SiO2 
 PCOD9331140
Probable space group: I 2 2 2
;
_chemical_formula_sum "Si O2"
_cell_formula_units_Z 48
_cell_length_a 10.963359
_cell_length_b 7.141419
_cell_length_c 23.550808
_cell_angle_alpha 90.000000
_cell_angle_beta 90.000000
_cell_angle_gamma 90.000000
_cell_volume 1843.885555
_symmetry_space_group_name_H-M "I 2 2 2"
_symmetry_group_IT_number 23
_symmetry_cell_setting 'orthorhombic'
loop_
_space_group_symop_operation_xyz
x,y,z
-x,-y,z
x,-y,-z
-x,y,-z
1/2+x,1/2+y,1/2+z
1/2-x,1/2-y,1/2+z
1/2+x,1/2-y,1/2-z
1/2-x,1/2+y,1/2-z
loop_
_atom_site_type_symbol
_atom_site_label
_atom_site_fract_x
_atom_site_fract_y
_atom_site_fract_z
Si Si1 0.645432 0.284529 0.508081
Si Si2 0.040617 0.698535 0.584425
Si Si3 0.319746 0.843726 0.317854
Si Si4 0.564143 0.302499 0.630046
Si Si5 0.305862 0.537930 0.922203
Si Si6 0.206043 0.435868 0.310783
O O1 0.689220 0.500000 0.500000
O O2 0.500000 0.278061 0.500000
O O3 0.639341 0.236112 0.575111
O O4 0.709068 0.150513 0.461665
O O5 0.133433 0.844759 0.554114
O O6 0.108853 0.638837 0.643087
O O7 0.000000 0.500000 0.559181
O O8 0.919500 0.821478 0.587305
O O9 0.450619 0.812421 0.346829
O O10 0.246191 0.981958 0.358489
O O11 0.240962 0.652665 0.319546
O O12 0.335397 0.902141 0.253144
O O13 0.500000 0.500000 0.613118
O O14 0.661740 0.341844 0.678965
#
# Coordination Sequence:
#
# PCOD9331140 Si02
#       6
#     8   8   8   8   8   8
#     4  11  19  40  81 120 165 222 283 361 436 509
#     4  11  25  47  75 110 166 217 279 357 425 513
#     4  11  22  41  71 115 163 225 285 355 425 510
#     4  10  21  40  72 115 159 218 286 349 434 502
#     4  11  24  45  78 118 160 222 292 341 435 517
#     4  11  24  42  70 111 166 219 286 355 430 500
#
# _framework density 26.031984999999999
#
# number of rings (size 3 to 8) (size 9 to 14) (size 15 to 20)
#    0.000    1.167    5.000    2.000    2.333    0.000 
#    0.000    4.167    0.000    8.000    0.000    0.000 
#    0.000    0.000    0.000    0.000    0.000    0.000 
#
# Total GULP energy -134378.739325 kJ/mol
# GULP energy per Si atom -5599.114139 kJ/mol
# Density = 2.597274 g / cm^3
# Si number density = 26.031985 Si / 1000 Ang^3
#
#
#
# Elastic Constant Matrix: (Units=GPa)
#
#
# Indices 1 2 3 4 5 6 
#
# 1 137.1934 45.7141 64.7285 0.0000 0.0000 0.0000
# 2 45.7141 191.6160 54.0123 0.0000 0.0000 0.0000
# 3 64.7285 54.0123 170.4941 0.0000 0.0000 0.0000
# 4 0.0000 0.0000 0.0000 66.8054 0.0000 0.0000
# 5 0.0000 0.0000 0.0000 0.0000 -25.1603 0.0000
# 6 0.0000 0.0000 0.0000 0.0000 0.0000 39.7995
#
#
#
# Elastic Compliance Matrix: (Units=1/GPa)
#
#
# Indices 1 2 3 4 5 6 
#
# 1 0.009176 -0.001326 -0.003064 0.000000 0.000000 0.000000
# 2 -0.001326 0.005922 -0.001373 0.000000 0.000000 0.000000
# 3 -0.003064 -0.001373 0.007463 0.000000 0.000000 0.000000
# 4 0.000000 0.000000 0.000000 0.014969 0.000000 0.000000
# 5 0.000000 0.000000 0.000000 0.000000 -0.039745 0.000000
# 6 0.000000 0.000000 0.000000 0.000000 0.000000 0.025126
#
#
# Mechanical properties :
#
#
# Convention : Reuss Voigt Hill
#
# Bulk Modulus (GPa) = 90.60302 92.02372 91.31337
# Shear Modulus (GPa) = 131.18312 38.61217 84.89765
#
# Velocity S-wave (km/s) = 7.10651 3.85549 5.71696
# Velocity P-wave (km/s) = 10.11023 7.43281 8.87309
#
# Compressibility (1/GPa) = 0.01103716
#
# Stress axis : x y z
#
# Youngs Moduli (GPa) = 108.97758 168.86251 133.98712
#
# Poissons Ratio (x) = 0.22384 0.41051
# Poissons Ratio (y) = 0.14446 0.18394
# Poissons Ratio (z) = 0.33389 0.23182
#
# Static dielectric constant tensor:
#      x y z
#    x 0.469030 0.000000 0.000000 
#    y 0.000000 2.128050 0.000000 
#    z 0.000000 0.000000 2.025000 
# 
# From -- ./inp_files/24307.got.cif
#   From: 2010.05.17/outbox.cif.g08.bks.cpg/sg23_13_cif.got.tgz:24307.got - 2010.06.04 12:02:01.
