data_PCOD9331433
_publ_section_title
;
Structure prediction by ZEFSAII (Michael W. Deem and Ramdas Pophale) SiO2 
 PCOD9331433
Probable space group: I 2 2 2
;
_chemical_formula_sum "Si O2"
_cell_formula_units_Z 58
_cell_length_a 8.896359
_cell_length_b 24.919611
_cell_length_c 14.477880
_cell_angle_alpha 90.000000
_cell_angle_beta 90.000000
_cell_angle_gamma 90.000000
_cell_volume 3209.656314
_symmetry_space_group_name_H-M "I 2 2 2"
_symmetry_group_IT_number 23
_symmetry_cell_setting 'orthorhombic'
loop_
_space_group_symop_operation_xyz
x,y,z
-x,-y,z
x,-y,-z
-x,y,-z
1/2+x,1/2+y,1/2+z
1/2-x,1/2-y,1/2+z
1/2+x,1/2-y,1/2-z
1/2-x,1/2+y,1/2-z
loop_
_atom_site_type_symbol
_atom_site_label
_atom_site_fract_x
_atom_site_fract_y
_atom_site_fract_z
Si Si1 0.118069 0.298270 0.271118
Si Si2 0.228306 0.306216 0.679404
Si Si3 0.500000 0.000000 0.500000
Si Si4 0.295358 0.386147 0.157020
Si Si5 0.860029 0.113133 0.694560
Si Si6 0.328706 0.230068 0.979400
Si Si7 0.777437 0.992623 0.396662
Si Si8 0.327044 0.159552 0.473371
O O1 0.176041 0.244716 0.218006
O O2 0.185260 0.350191 0.219486
O O3 0.170153 0.295933 0.378145
O O4 0.937702 0.299971 0.276321
O O5 0.303517 0.361811 0.710389
O O6 0.210199 0.304594 0.569168
O O7 0.386571 0.029310 0.430572
O O8 0.466295 0.371973 0.181899
O O9 0.266667 0.450132 0.153630
O O10 0.269341 0.368802 0.052260
O O11 0.745477 0.140020 0.621680
O O12 0.851837 0.050420 0.669487
O O13 0.209890 0.277854 0.978145
O O14 0.500000 0.250635 0.000000
O O15 0.846593 0.000000 0.500000
O O16 0.500000 0.149575 0.500000
#
# Coordination Sequence:
#
# PCOD9331433 Si02
#       8
#     8   8   2   8   8   8   8   8
#     4  11  23  38  60  86 117 154 197 240 292 346
#     4  11  23  38  60  86 117 154 197 240 292 346
#     4   8  20  36  58  88 120 146 198 240 292 346
#     4  12  24  38  57  84 121 159 196 236 290 352
#     4  12  24  38  57  84 121 159 196 236 290 352
#     4  10  22  41  58  81 118 156 193 239 290 346
#     4  10  23  36  60  82 121 152 195 234 297 344
#     4  12  23  32  56  86 118 155 194 238 286 342
#
# _framework density 18.07047
#
# number of rings (size 3 to 8) (size 9 to 14) (size 15 to 20)
#    0.414    0.552    4.138    3.310    5.793    1.655 
#    0.000    0.000    0.000    0.828    0.000    4.828 
#    0.000    0.000    0.000    0.000    0.000    0.000 
#
# Total GULP energy -161729.482191 kJ/mol
# GULP energy per Si atom -5576.878696 kJ/mol
# Density = 1.802934 g / cm^3
# Si number density = 18.070470 Si / 1000 Ang^3
#
#
#
# Elastic Constant Matrix: (Units=GPa)
#
#
# Indices 1 2 3 4 5 6 
#
# 1 47.6824 0.8835 -5.6352 0.0000 0.0000 0.0000
# 2 0.8835 80.6094 20.7492 0.0000 0.0000 0.0000
# 3 -5.6352 20.7492 70.2205 0.0000 0.0000 0.0000
# 4 0.0000 0.0000 0.0000 28.0325 0.0000 0.0000
# 5 0.0000 0.0000 0.0000 0.0000 14.3134 0.0000
# 6 0.0000 0.0000 0.0000 0.0000 0.0000 16.3317
#
#
#
# Elastic Compliance Matrix: (Units=1/GPa)
#
#
# Indices 1 2 3 4 5 6 
#
# 1 0.021212 -0.000726 0.001917 0.000000 0.000000 0.000000
# 2 -0.000726 0.013452 -0.004033 0.000000 0.000000 0.000000
# 3 0.001917 -0.004033 0.015586 0.000000 0.000000 0.000000
# 4 0.000000 0.000000 0.000000 0.035673 0.000000 0.000000
# 5 0.000000 0.000000 0.000000 0.000000 0.069864 0.000000
# 6 0.000000 0.000000 0.000000 0.000000 0.000000 0.061231
#
#
# Mechanical properties :
#
#
# Convention : Reuss Voigt Hill
#
# Bulk Modulus (GPa) = 22.43875 25.61193 24.02534
# Shear Modulus (GPa) = 21.04753 23.90317 22.47535
#
# Velocity S-wave (km/s) = 3.41654 3.64094 3.53053
# Velocity P-wave (km/s) = 5.29226 5.64619 5.47208
#
# Compressibility (1/GPa) = 0.04456577
#
# Stress axis : x y z
#
# Youngs Moduli (GPa) = 47.14292 74.34069 64.15858
#
# Poissons Ratio (x) = 0.05396 -0.12298
# Poissons Ratio (y) = 0.03422 0.25875
# Poissons Ratio (z) = -0.09036 0.29982
#
# Static dielectric constant tensor:
#      x y z
#    x 1.676430 0.000000 0.000000 
#    y 0.000000 1.658070 0.000000 
#    z 0.000000 0.000000 1.615670 
# 
# From -- ./inp_files/20305.got.cif
#   From: 2010.05.17/outbox.cif.g08.bks.cpg/sg23_11_cif.got.tgz:20305.got - 2010.06.04 12:02:01.
