data_PCOD9331017
_publ_section_title
;
Structure prediction by ZEFSAII (Michael W. Deem and Ramdas Pophale) SiO2 
 PCOD9331017
Probable space group: I 2 2 2
;
_chemical_formula_sum "Si O2"
_cell_formula_units_Z 40
_cell_length_a 8.080254
_cell_length_b 27.904427
_cell_length_c 8.156261
_cell_angle_alpha 90.000000
_cell_angle_beta 90.000000
_cell_angle_gamma 90.000000
_cell_volume 1839.031790
_symmetry_space_group_name_H-M "I 2 2 2"
_symmetry_group_IT_number 23
_symmetry_cell_setting 'orthorhombic'
loop_
_space_group_symop_operation_xyz
x,y,z
-x,-y,z
x,-y,-z
-x,y,-z
1/2+x,1/2+y,1/2+z
1/2-x,1/2-y,1/2+z
1/2+x,1/2-y,1/2-z
1/2-x,1/2+y,1/2-z
loop_
_atom_site_type_symbol
_atom_site_label
_atom_site_fract_x
_atom_site_fract_y
_atom_site_fract_z
Si Si1 0.366308 0.280975 0.628166
Si Si2 0.310947 0.617965 0.798266
Si Si3 0.999783 0.554821 0.199954
Si Si4 0.189672 0.121495 0.307225
Si Si5 0.627572 0.203597 0.122624
O O1 0.500000 0.299420 0.500000
O O2 0.298703 0.325392 0.732072
O O3 0.438792 0.238829 0.738282
O O4 0.223486 0.262622 0.507089
O O5 0.172896 0.579183 0.750573
O O6 0.502075 0.605318 0.761912
O O7 0.246985 0.666040 0.710493
O O8 0.301725 0.624631 0.995209
O O9 0.000000 0.500000 0.256897
O O10 0.160845 0.586582 0.247058
O O11 0.000000 0.554225 0.000000
O O12 0.500000 0.178201 0.000000
#
# Coordination Sequence:
#
# PCOD9331017 Si02
#       5
#     8   8   8   8   8
#     4  12  24  40  60  90 126 173 220 271 319 382
#     4  10  21  39  63  93 128 173 216 263 324 381
#     4   9  19  37  63  97 128 159 208 268 328 387
#     4  10  21  39  64  90 129 169 214 271 319 385
#     4  12  25  39  61  91 129 175 222 271 319 384
#
# _framework density 21.750575999999999
#
# number of rings (size 3 to 8) (size 9 to 14) (size 15 to 20)
#    0.000    1.400    2.000    3.600    2.800    3.200 
#    0.000    4.000    0.000    5.400    0.000    0.000 
#    0.000    0.000    0.000    0.000    0.000    0.000 
#
# Total GULP energy -111586.446158 kJ/mol
# GULP energy per Si atom -5579.322308 kJ/mol
# Density = 2.170107 g / cm^3
# Si number density = 21.750576 Si / 1000 Ang^3
#
#
#
# Elastic Constant Matrix: (Units=GPa)
#
#
# Indices 1 2 3 4 5 6 
#
# 1 156.5933 79.4320 48.4757 0.0000 0.0000 0.0000
# 2 79.4320 130.0686 41.2288 -0.0001 0.0000 0.0000
# 3 48.4757 41.2288 47.3756 -0.0005 0.0002 0.0000
# 4 0.0000 -0.0001 -0.0005 18.6098 0.0000 0.0000
# 5 0.0000 0.0000 0.0002 0.0000 37.8115 -0.0001
# 6 0.0000 0.0000 0.0000 0.0000 -0.0001 28.8891
#
#
#
# Elastic Compliance Matrix: (Units=1/GPa)
#
#
# Indices 1 2 3 4 5 6 
#
# 1 0.010839 -0.004286 -0.007360 0.000000 0.000000 0.000000
# 2 -0.004286 0.012312 -0.006329 0.000000 0.000000 0.000000
# 3 -0.007360 -0.006329 0.034147 0.000001 0.000000 0.000000
# 4 0.000000 0.000000 0.000001 0.053735 0.000000 0.000000
# 5 0.000000 0.000000 0.000000 0.000000 0.026447 0.000000
# 6 0.000000 0.000000 0.000000 0.000000 0.000000 0.034615
#
#
# Mechanical properties :
#
#
# Convention : Reuss Voigt Hill
#
# Bulk Modulus (GPa) = 46.84534 74.70116 60.77325
# Shear Modulus (GPa) = 23.23847 28.05547 25.64697
#
# Velocity S-wave (km/s) = 3.27220 3.59538 3.43759
# Velocity P-wave (km/s) = 5.98837 7.18712 6.61496
#
# Compressibility (1/GPa) = 0.02134684
#
# Stress axis : x y z
#
# Youngs Moduli (GPa) = 92.26360 81.22320 29.28525
#
# Poissons Ratio (x) = 0.34812 0.21555
# Poissons Ratio (y) = 0.39544 0.18534
# Poissons Ratio (z) = 0.67909 0.51405
#
# Static dielectric constant tensor:
#      x y z
#    x 1.934550 0.000000 0.000000 
#    y 0.000000 1.730160 0.000000 
#    z 0.000000 0.000000 1.793760 
# 
# From -- ./inp_files/7115.got.cif
#   From: 2010.05.17/outbox.cif.g08.bks.cpg/sg23_4_cif.got.tgz:7115.got - 2010.06.04 12:02:01.
