data_PCOD9331040
_publ_section_title
;
Structure prediction by ZEFSAII (Michael W. Deem and Ramdas Pophale) SiO2 
 PCOD9331040
Probable space group: I 2 2 2
;
_chemical_formula_sum "Si O2"
_cell_formula_units_Z 64
_cell_length_a 30.743687
_cell_length_b 5.409526
_cell_length_c 18.108947
_cell_angle_alpha 90.000000
_cell_angle_beta 90.000000
_cell_angle_gamma 90.000000
_cell_volume 3011.676777
_symmetry_space_group_name_H-M "I 2 2 2"
_symmetry_group_IT_number 23
_symmetry_cell_setting 'orthorhombic'
loop_
_space_group_symop_operation_xyz
x,y,z
-x,-y,z
x,-y,-z
-x,y,-z
1/2+x,1/2+y,1/2+z
1/2-x,1/2-y,1/2+z
1/2+x,1/2-y,1/2-z
1/2-x,1/2+y,1/2-z
loop_
_atom_site_type_symbol
_atom_site_label
_atom_site_fract_x
_atom_site_fract_y
_atom_site_fract_z
Si Si1 0.859707 0.112691 0.148342
Si Si2 0.733084 0.195654 0.655024
Si Si3 0.972656 0.247943 0.729601
Si Si4 0.117042 0.404026 0.074693
Si Si5 0.194517 0.444184 0.691093
Si Si6 0.312275 0.539605 0.913207
Si Si7 0.873091 0.821973 0.295031
Si Si8 0.474330 0.748635 0.406029
O O1 0.813255 0.226319 0.125191
O O2 0.890235 0.344364 0.123523
O O3 0.862101 0.838549 0.112266
O O4 0.866675 0.043828 0.235172
O O5 0.768572 0.405885 0.649066
O O6 0.721892 0.174068 0.741862
O O7 0.762117 0.982723 0.617443
O O8 0.923761 0.239323 0.697105
O O9 0.964733 0.235986 0.818033
O O10 0.000000 0.500000 0.714134
O O11 0.000000 0.000000 0.709746
O O12 0.070829 0.283578 0.053028
O O13 0.139017 0.500000 0.000000
O O14 0.173020 0.292444 0.625320
O O15 0.157407 0.599208 0.733723
O O16 0.347440 0.367367 0.871449
O O17 0.312878 0.500000 0.000000
O O18 0.500000 0.500000 0.423172
O O19 0.500000 0.000000 0.417861
#
# Coordination Sequence:
#
# PCOD9331040 Si02
#       8
#     8   8   8   8   8   8   8   8
#     4  12  25  42  70  97 138 194 244 290 354 428
#     4  11  22  39  67  98 133 190 233 288 334 417
#     4  10  23  38  68 106 136 171 232 297 348 416
#     4  12  27  45  63  97 142 185 243 303 366 430
#     4  11  21  41  70  99 139 179 244 280 346 419
#     4  11  26  44  70 107 144 181 234 299 359 420
#     4  11  24  41  73 105 134 187 234 297 354 436
#     4  10  21  39  65  90 127 174 232 295 355 423
#
# _framework density 21.250619
#
# number of rings (size 3 to 8) (size 9 to 14) (size 15 to 20)
#    0.000    1.000    3.750    2.625    7.000    2.750 
#    2.250    0.625    0.000    0.375    0.000    0.000 
#    0.000    0.000    0.000    0.000    0.000    0.000 
#
# Total GULP energy -178196.335384 kJ/mol
# GULP energy per Si atom -5568.635481 kJ/mol
# Density = 2.120225 g / cm^3
# Si number density = 21.250619 Si / 1000 Ang^3
#
#
#
# Elastic Constant Matrix: (Units=GPa)
#
#
# Indices 1 2 3 4 5 6 
#
# 1 125.5306 26.9580 25.0630 0.0000 0.0000 0.0000
# 2 26.9580 124.9837 36.3446 0.0000 0.0000 0.0000
# 3 25.0630 36.3446 111.8632 0.0000 0.0000 0.0000
# 4 0.0000 0.0000 0.0000 22.8801 0.0000 0.0000
# 5 0.0000 0.0000 0.0000 0.0000 8.1553 0.0000
# 6 0.0000 0.0000 0.0000 0.0000 0.0000 32.9310
#
#
#
# Elastic Compliance Matrix: (Units=1/GPa)
#
#
# Indices 1 2 3 4 5 6 
#
# 1 0.008563 -0.001423 -0.001456 0.000000 0.000000 0.000000
# 2 -0.001423 0.009073 -0.002629 0.000000 0.000000 0.000000
# 3 -0.001456 -0.002629 0.010120 0.000000 0.000000 0.000000
# 4 0.000000 0.000000 0.000000 0.043706 0.000000 0.000000
# 5 0.000000 0.000000 0.000000 0.000000 0.122620 0.000000
# 6 0.000000 0.000000 0.000000 0.000000 0.000000 0.030367
#
#
# Mechanical properties :
#
#
# Convention : Reuss Voigt Hill
#
# Bulk Modulus (GPa) = 59.74259 59.90098 59.82178
# Shear Modulus (GPa) = 20.74312 31.06073 25.90193
#
# Velocity S-wave (km/s) = 3.12768 3.82729 3.49503
# Velocity P-wave (km/s) = 6.42009 6.91230 6.67074
#
# Compressibility (1/GPa) = 0.01673848
#
# Stress axis : x y z
#
# Youngs Moduli (GPa) = 116.78730 110.22315 98.81637
#
# Poissons Ratio (x) = 0.15690 0.14387
# Poissons Ratio (y) = 0.16625 0.25976
# Poissons Ratio (z) = 0.17004 0.28975
#
# Static dielectric constant tensor:
#      x y z
#    x 1.797120 0.000000 0.000000 
#    y 0.000000 1.976010 0.000000 
#    z 0.000000 0.000000 1.774260 
# 
# From -- ./inp_files/25494.got.cif
#   From: 2010.05.17/outbox.cif.g08.bks.cpg/sg23_13_cif.got.tgz:25494.got - 2010.06.04 12:02:01.
