data_PCOD9331044
_publ_section_title
;
Structure prediction by ZEFSAII (Michael W. Deem and Ramdas Pophale) SiO2 
 PCOD9331044
Probable space group: I 2 2 2
;
_chemical_formula_sum "Si O2"
_cell_formula_units_Z 40
_cell_length_a 13.841903
_cell_length_b 5.359545
_cell_length_c 23.763283
_cell_angle_alpha 90.000000
_cell_angle_beta 90.000000
_cell_angle_gamma 90.000000
_cell_volume 1762.910089
_symmetry_space_group_name_H-M "I 2 2 2"
_symmetry_group_IT_number 23
_symmetry_cell_setting 'orthorhombic'
loop_
_space_group_symop_operation_xyz
x,y,z
-x,-y,z
x,-y,-z
-x,y,-z
1/2+x,1/2+y,1/2+z
1/2-x,1/2-y,1/2+z
1/2+x,1/2-y,1/2-z
1/2-x,1/2+y,1/2-z
loop_
_atom_site_type_symbol
_atom_site_label
_atom_site_fract_x
_atom_site_fract_y
_atom_site_fract_z
Si Si1 0.443976 0.250553 0.578827
Si Si2 0.433879 0.750922 0.862792
Si Si3 0.478120 0.251227 0.297170
Si Si4 0.276815 0.250184 0.037248
Si Si5 0.696510 0.169458 0.751756
O O1 0.500000 0.500000 0.560174
O O2 0.458999 0.252664 0.646761
O O3 0.332583 0.251604 0.562247
O O4 0.500000 0.000000 0.560710
O O5 0.500000 0.500000 0.863671
O O6 0.357871 0.745127 0.914480
O O7 0.366578 0.770791 0.806969
O O8 0.500000 0.000000 0.867126
O O9 0.500000 0.500000 0.264910
O O10 0.364039 0.239312 0.304730
O O11 0.500000 0.000000 0.265210
O O12 0.285809 0.500000 0.000000
O O13 0.287538 0.000000 0.000000
O O14 0.779404 0.377921 0.751406
#
# Coordination Sequence:
#
# PCOD9331044 Si02
#       5
#     8   8   8   8   8
#     4  10  23  40  71 102 145 185 232 291 370 446
#     4  12  28  51  76 109 150 194 258 314 364 440
#     4  10  21  39  65  98 140 183 224 277 355 441
#     4  12  28  48  75 110 144 195 259 313 372 434
#     4  12  26  42  75 109 145 194 244 297 368 446
#
# _framework density 22.689755000000002
#
# number of rings (size 3 to 8) (size 9 to 14) (size 15 to 20)
#    0.000    0.800    0.000    6.000   11.200    4.800 
#    0.000    0.000    0.000    0.000    0.000    0.000 
#    0.000    0.000    0.000    0.000    0.000    0.000 
#
# Total GULP energy -111712.469971 kJ/mol
# GULP energy per Si atom -5585.623499 kJ/mol
# Density = 2.263811 g / cm^3
# Si number density = 22.689755 Si / 1000 Ang^3
#
#
#
# Elastic Constant Matrix: (Units=GPa)
#
#
# Indices 1 2 3 4 5 6 
#
# 1 137.2706 62.5478 82.5985 0.0000 0.0000 0.0000
# 2 62.5478 210.8125 51.2597 0.0000 0.0000 0.0000
# 3 82.5985 51.2597 148.5336 0.0000 0.0000 0.0000
# 4 0.0000 0.0000 0.0000 13.6895 0.0000 0.0000
# 5 0.0000 0.0000 0.0000 0.0000 50.2529 0.0000
# 6 0.0000 0.0000 0.0000 0.0000 0.0000 54.2578
#
#
#
# Elastic Compliance Matrix: (Units=1/GPa)
#
#
# Indices 1 2 3 4 5 6 
#
# 1 0.011718 -0.002066 -0.005804 0.000000 0.000000 0.000000
# 2 -0.002066 0.005542 -0.000764 0.000000 0.000000 0.000000
# 3 -0.005804 -0.000764 0.010223 0.000000 0.000000 0.000000
# 4 0.000000 0.000000 0.000000 0.073049 0.000000 0.000000
# 5 0.000000 0.000000 0.000000 0.000000 0.019899 0.000000
# 6 0.000000 0.000000 0.000000 0.000000 0.000000 0.018431
#
#
# Mechanical properties :
#
#
# Convention : Reuss Voigt Hill
#
# Bulk Modulus (GPa) = 97.87072 98.82541 98.34807
# Shear Modulus (GPa) = 31.34121 43.65410 37.49766
#
# Velocity S-wave (km/s) = 3.72061 4.39105 4.06966
# Velocity P-wave (km/s) = 7.85399 8.32815 8.09454
#
# Compressibility (1/GPa) = 0.01021756
#
# Stress axis : x y z
#
# Youngs Moduli (GPa) = 85.33731 180.43444 97.81445
#
# Poissons Ratio (x) = 0.37271 0.56767
# Poissons Ratio (y) = 0.17628 0.07473
# Poissons Ratio (z) = 0.49526 0.13784
#
# Static dielectric constant tensor:
#      x y z
#    x 1.964020 0.000000 0.000000 
#    y 0.000000 1.927140 0.000000 
#    z 0.000000 0.000000 1.848850 
# 
# From -- ./inp_files/29354.got.cif
#   From: 2010.05.17/outbox.cif.g08.bks.cpg/sg23_15_cif.got.tgz:29354.got - 2010.06.04 12:02:01.
