data_PCOD9331525
_publ_section_title
;
Structure prediction by ZEFSAII (Michael W. Deem and Ramdas Pophale) SiO2 
 PCOD9331525
Probable space group: I 2 2 2
;
_chemical_formula_sum "Si O2"
_cell_formula_units_Z 38
_cell_length_a 21.749306
_cell_length_b 7.078427
_cell_length_c 11.073969
_cell_angle_alpha 90.000000
_cell_angle_beta 90.000000
_cell_angle_gamma 90.000000
_cell_volume 1704.847215
_symmetry_space_group_name_H-M "I 2 2 2"
_symmetry_group_IT_number 23
_symmetry_cell_setting 'orthorhombic'
loop_
_space_group_symop_operation_xyz
x,y,z
-x,-y,z
x,-y,-z
-x,y,-z
1/2+x,1/2+y,1/2+z
1/2-x,1/2-y,1/2+z
1/2+x,1/2-y,1/2-z
1/2-x,1/2+y,1/2-z
loop_
_atom_site_type_symbol
_atom_site_label
_atom_site_fract_x
_atom_site_fract_y
_atom_site_fract_z
Si Si1 0.824591 0.862526 0.235046
Si Si2 0.000000 0.000000 0.500000
Si Si3 0.701726 0.985353 0.125195
Si Si4 0.899474 0.000000 0.000000
Si Si5 0.062665 0.380183 0.893926
Si Si6 0.395805 0.705023 0.852097
O O1 0.751996 0.898893 0.216400
O O2 0.826818 0.663607 0.304596
O O3 0.860370 0.898333 0.107731
O O4 0.856841 0.021049 0.316744
O O5 0.043502 0.867444 0.418177
O O6 0.650319 0.839250 0.077882
O O7 0.739270 0.000000 0.000000
O O8 0.939801 0.167330 0.056403
O O9 0.091098 0.336067 0.764590
O O10 0.000000 0.500000 0.876410
O O11 0.096511 0.500000 0.000000
#
# Coordination Sequence:
#
# PCOD9331525 Si02
#       6
#     8   2   8   4   8   8
#     4  11  23  44  71 107 144 189 250 313 382 440
#     4  12  28  52  74 106 160 218 252 296 378 476
#     4  12  24  43  72 108 145 187 246 314 382 445
#     4  10  22  43  66 102 144 181 242 308 366 434
#     4  10  23  41  67 101 135 189 237 300 361 432
#     4  11  26  47  70 105 149 198 251 308 372 455
#
# _framework density 22.289387000000001
#
# number of rings (size 3 to 8) (size 9 to 14) (size 15 to 20)
#    0.000    1.053    3.158    2.526    0.000   11.789 
#    0.000    3.158    0.000    0.000    0.000    0.000 
#    0.000    0.000    0.000    0.000    0.000    0.000 
#
# Total GULP energy -105850.953021 kJ/mol
# GULP energy per Si atom -5571.102791 kJ/mol
# Density = 2.223866 g / cm^3
# Si number density = 22.289387 Si / 1000 Ang^3
#
#
#
# Elastic Constant Matrix: (Units=GPa)
#
#
# Indices 1 2 3 4 5 6 
#
# 1 89.9378 61.8499 25.1459 0.0000 0.0000 0.0000
# 2 61.8499 152.6194 46.7445 0.0000 0.0000 0.0000
# 3 25.1459 46.7445 89.4391 0.0000 0.0000 0.0000
# 4 0.0000 0.0000 0.0000 39.7957 0.0000 0.0000
# 5 0.0000 0.0000 0.0000 0.0000 -77.8872 0.0000
# 6 0.0000 0.0000 0.0000 0.0000 0.0000 628.8242
#
#
#
# Elastic Compliance Matrix: (Units=1/GPa)
#
#
# Indices 1 2 3 4 5 6 
#
# 1 0.015537 -0.005904 -0.001283 0.000000 0.000000 0.000000
# 2 -0.005904 0.010044 -0.003590 0.000000 0.000000 0.000000
# 3 -0.001283 -0.003590 0.013418 0.000000 0.000000 0.000000
# 4 0.000000 0.000000 0.000000 0.025128 0.000000 0.000000
# 5 0.000000 0.000000 0.000000 0.000000 -0.012839 0.000000
# 6 0.000000 0.000000 0.000000 0.000000 0.000000 0.001590
#
#
# Mechanical properties :
#
#
# Convention : Reuss Voigt Hill
#
# Bulk Modulus (GPa) = 57.31728 66.60855 61.96291
# Shear Modulus (GPa) = 62.30774 131.36360 96.83567
#
# Velocity S-wave (km/s) = 5.29289 7.68527 6.59841
# Velocity P-wave (km/s) = 7.94505 10.42591 9.26886
#
# Compressibility (1/GPa) = 0.01744675
#
# Stress axis : x y z
#
# Youngs Moduli (GPa) = 64.36066 99.55973 74.52908
#
# Poissons Ratio (x) = 0.58777 0.09561
# Poissons Ratio (y) = 0.37997 0.26754
# Poissons Ratio (z) = 0.08256 0.35739
#
# Static dielectric constant tensor:
#      x y z
#    x 1.815560 0.000000 0.000000 
#    y 0.000000 1.847590 0.000000 
#    z 0.000000 0.000000 1.887400 
# 
# From -- ./inp_files/18509.got.cif
#   From: 2010.05.17/outbox.cif.g08.bks.cpg/sg23_10_cif.got.tgz:18509.got - 2010.06.04 12:02:01.
