data_PCOD9331744
_publ_section_title
;
Structure prediction by ZEFSAII (Michael W. Deem and Ramdas Pophale) SiO2 
 PCOD9331744
Probable space group: I 2 2 2
;
_chemical_formula_sum "Si O2"
_cell_formula_units_Z 40
_cell_length_a 12.854450
_cell_length_b 10.254603
_cell_length_c 12.877775
_cell_angle_alpha 90.000000
_cell_angle_beta 90.000000
_cell_angle_gamma 90.000000
_cell_volume 1697.513293
_symmetry_space_group_name_H-M "I 2 2 2"
_symmetry_group_IT_number 23
_symmetry_cell_setting 'orthorhombic'
loop_
_space_group_symop_operation_xyz
x,y,z
-x,-y,z
x,-y,-z
-x,y,-z
1/2+x,1/2+y,1/2+z
1/2-x,1/2-y,1/2+z
1/2+x,1/2-y,1/2-z
1/2-x,1/2+y,1/2-z
loop_
_atom_site_type_symbol
_atom_site_label
_atom_site_fract_x
_atom_site_fract_y
_atom_site_fract_z
Si Si1 0.702538 0.006186 0.620113
Si Si2 0.572337 0.755587 0.406001
Si Si3 0.890153 0.842058 0.445076
Si Si4 0.375644 0.262268 0.718532
Si Si5 0.747196 0.632655 0.542004
O O1 0.641979 0.137238 0.652678
O O2 0.825715 0.035433 0.604803
O O3 0.668262 0.000000 0.500000
O O4 0.664616 0.879667 0.680142
O O5 0.500000 0.809151 0.500000
O O6 0.488215 0.700877 0.327348
O O7 0.649514 0.657000 0.463944
O O8 0.891945 0.756630 0.340610
O O9 0.818844 0.758527 0.523299
O O10 0.000000 0.863211 0.500000
O O11 0.296474 0.361454 0.659425
O O12 0.797047 0.500000 0.500000
#
# Coordination Sequence:
#
# PCOD9331744 Si02
#       5
#     8   8   8   8   8
#     4  11  20  43  71  95 132 181 240 294 345 433
#     4   9  18  36  68  99 124 161 235 290 344 416
#     4  11  27  46  65 102 146 190 240 297 366 432
#     4  11  23  41  73 101 134 185 234 298 370 420
#     4  10  23  44  68  95 142 180 235 298 356 438
#
# _framework density 23.563880999999999
#
# number of rings (size 3 to 8) (size 9 to 14) (size 15 to 20)
#    0.000    1.600    6.000    0.600    2.800    7.600 
#    3.600    2.000    0.000    0.000    0.000    0.000 
#    0.000    0.000    0.000    0.000    0.000    0.000 
#
# Total GULP energy -111550.397295 kJ/mol
# GULP energy per Si atom -5577.519865 kJ/mol
# Density = 2.351025 g / cm^3
# Si number density = 23.563881 Si / 1000 Ang^3
#
#
#
# Elastic Constant Matrix: (Units=GPa)
#
#
# Indices 1 2 3 4 5 6 
#
# 1 104.2713 8.5760 31.7379 0.0000 0.0000 0.0000
# 2 8.5760 83.2413 9.1052 0.0000 0.0000 0.0000
# 3 31.7379 9.1052 103.4696 0.0000 0.0000 0.0000
# 4 0.0000 0.0000 0.0000 15.8615 0.0000 0.0000
# 5 0.0000 0.0000 0.0000 0.0000 27.4119 0.0000
# 6 0.0000 0.0000 0.0000 0.0000 0.0000 12.1161
#
#
#
# Elastic Compliance Matrix: (Units=1/GPa)
#
#
# Indices 1 2 3 4 5 6 
#
# 1 0.010624 -0.000745 -0.003193 0.000000 0.000000 0.000000
# 2 -0.000745 0.012182 -0.000843 0.000000 0.000000 0.000000
# 3 -0.003193 -0.000843 0.010718 0.000000 0.000000 0.000000
# 4 0.000000 0.000000 0.000000 0.063046 0.000000 0.000000
# 5 0.000000 0.000000 0.000000 0.000000 0.036481 0.000000
# 6 0.000000 0.000000 0.000000 0.000000 0.000000 0.082535
#
#
# Mechanical properties :
#
#
# Convention : Reuss Voigt Hill
#
# Bulk Modulus (GPa) = 41.73495 43.31337 42.52416
# Shear Modulus (GPa) = 21.44677 27.18211 24.31444
#
# Velocity S-wave (km/s) = 3.02015 3.40008 3.21573
# Velocity P-wave (km/s) = 5.46915 5.81680 5.64565
#
# Compressibility (1/GPa) = 0.02396073
#
# Stress axis : x y z
#
# Youngs Moduli (GPa) = 94.13042 82.08632 93.29820
#
# Poissons Ratio (x) = 0.06117 0.29791
# Poissons Ratio (y) = 0.07015 0.07869
# Poissons Ratio (z) = 0.30056 0.06923
#
# Static dielectric constant tensor:
#      x y z
#    x 1.921400 0.000000 0.000000 
#    y 0.000000 2.027400 0.000000 
#    z 0.000000 0.000000 1.999230 
# 
# From -- ./inp_files/20675.got.cif
#   From: 2010.05.17/outbox.cif.g08.bks.cpg/sg23_11_cif.got.tgz:20675.got - 2010.06.04 12:02:01.
