data_PCOD9331267
_publ_section_title
;
Structure prediction by ZEFSAII (Michael W. Deem and Ramdas Pophale) SiO2 
 PCOD9331267
Probable space group: I 2 2 2
;
_chemical_formula_sum "Si O2"
_cell_formula_units_Z 60
_cell_length_a 10.783648
_cell_length_b 12.716766
_cell_length_c 22.077011
_cell_angle_alpha 90.000000
_cell_angle_beta 90.000000
_cell_angle_gamma 90.000000
_cell_volume 3027.489581
_symmetry_space_group_name_H-M "I 2 2 2"
_symmetry_group_IT_number 23
_symmetry_cell_setting 'orthorhombic'
loop_
_space_group_symop_operation_xyz
x,y,z
-x,-y,z
x,-y,-z
-x,y,-z
1/2+x,1/2+y,1/2+z
1/2-x,1/2-y,1/2+z
1/2+x,1/2-y,1/2-z
1/2-x,1/2+y,1/2-z
loop_
_atom_site_type_symbol
_atom_site_label
_atom_site_fract_x
_atom_site_fract_y
_atom_site_fract_z
Si Si1 0.773109 0.640780 0.140469
Si Si2 0.497068 0.120551 0.094397
Si Si3 0.388416 0.197990 0.216018
Si Si4 0.723619 0.727501 0.896870
Si Si5 0.629411 0.313707 0.975767
Si Si6 0.990411 0.772468 0.837136
Si Si7 0.213631 0.061403 0.299392
Si Si8 0.500000 0.500000 0.289507
O O1 0.682661 0.705087 0.185341
O O2 0.697077 0.628145 0.078573
O O3 0.797287 0.527246 0.168926
O O4 0.895871 0.710871 0.132788
O O5 0.441350 0.129149 0.161672
O O6 0.633384 0.171524 0.101405
O O7 0.414966 0.199653 0.052271
O O8 0.500000 0.000000 0.073974
O O9 0.485695 0.235424 0.266568
O O10 0.290919 0.132113 0.254020
O O11 0.859962 0.748280 0.870124
O O12 0.664188 0.638890 0.852381
O O13 0.719442 0.692895 0.966672
O O14 0.500000 0.360856 0.000000
O O15 0.005050 0.897186 0.831254
O O16 0.114082 0.005018 0.257056
#
# Coordination Sequence:
#
# PCOD9331267 Si02
#       8
#     8   8   8   8   8   8   8   4
#     4  11  23  41  61  93 123 170 211 257 327 383
#     4  10  22  37  66  91 124 171 213 263 321 380
#     4  10  22  36  56  91 129 160 202 257 315 391
#     4  10  24  42  60  93 125 168 217 269 314 374
#     4   9  22  44  63  88 125 161 220 270 307 375
#     4  11  24  38  62  91 134 165 211 261 324 395
#     4  11  24  37  64  94 130 169 206 265 331 390
#     4  12  22  36  62  96 130 166 198 264 332 392
#
# _framework density 19.8184
#
# number of rings (size 3 to 8) (size 9 to 14) (size 15 to 20)
#    0.000    1.600    2.667    0.800    9.333    5.067 
#    0.000    2.000    0.000    4.000    0.000    0.000 
#    0.000    0.000    0.000    0.000    0.000    0.000 
#
# Total GULP energy -167451.809765 kJ/mol
# GULP energy per Si atom -5581.726992 kJ/mol
# Density = 1.977329 g / cm^3
# Si number density = 19.818400 Si / 1000 Ang^3
#
#
#
# Elastic Constant Matrix: (Units=GPa)
#
#
# Indices 1 2 3 4 5 6 
#
# 1 56.9166 1.0623 25.7224 0.0000 0.0000 0.0000
# 2 1.0623 42.7758 11.1475 0.0000 0.0000 0.0000
# 3 25.7224 11.1475 122.9229 0.0000 0.0000 0.0000
# 4 0.0000 0.0000 0.0000 -7.8982 0.0000 0.0000
# 5 0.0000 0.0000 0.0000 0.0000 36.8784 0.0000
# 6 0.0000 0.0000 0.0000 0.0000 0.0000 23.2298
#
#
#
# Elastic Compliance Matrix: (Units=1/GPa)
#
#
# Indices 1 2 3 4 5 6 
#
# 1 0.019419 0.000591 -0.004117 0.000000 0.000000 0.000000
# 2 0.000591 0.023962 -0.002297 0.000000 0.000000 0.000000
# 3 -0.004117 -0.002297 0.009205 0.000000 0.000000 0.000000
# 4 0.000000 0.000000 0.000000 -0.126611 0.000000 0.000000
# 5 0.000000 0.000000 0.000000 0.000000 0.027116 0.000000
# 6 0.000000 0.000000 0.000000 0.000000 0.000000 0.043048
#
#
# Mechanical properties :
#
#
# Convention : Reuss Voigt Hill
#
# Bulk Modulus (GPa) = 24.42625 33.16443 28.79534
# Shear Modulus (GPa) = 233.29906 22.75419 128.02663
#
# Velocity S-wave (km/s) = 10.86158 3.39209 8.04612
# Velocity P-wave (km/s) = 13.02499 5.66676 10.04397
#
# Compressibility (1/GPa) = 0.04093955
#
# Stress axis : x y z
#
# Youngs Moduli (GPa) = 51.49532 41.73357 108.63659
#
# Poissons Ratio (x) = -0.02465 0.44728
# Poissons Ratio (y) = -0.03042 0.24950
# Poissons Ratio (z) = 0.21202 0.09585
#
# Static dielectric constant tensor:
#      x y z
#    x 1.724560 0.000000 0.000000 
#    y 0.000000 1.736360 0.000000 
#    z 0.000000 0.000000 1.698630 
# 
# From -- ./inp_files/15975.got.cif
#   From: 2010.05.17/outbox.cif.g08.bks.cpg/sg23_8_cif.got.tgz:15975.got - 2010.06.04 12:02:01.
