data_PCOD9331965
_publ_section_title
;
Structure prediction by ZEFSAII (Michael W. Deem and Ramdas Pophale) SiO2 
 PCOD9331965
Probable space group: I 2 2 2
;
_chemical_formula_sum "Si O2"
_cell_formula_units_Z 34
_cell_length_a 7.856808
_cell_length_b 21.550366
_cell_length_c 9.453867
_cell_angle_alpha 90.000000
_cell_angle_beta 90.000000
_cell_angle_gamma 90.000000
_cell_volume 1600.701231
_symmetry_space_group_name_H-M "I 2 2 2"
_symmetry_group_IT_number 23
_symmetry_cell_setting 'orthorhombic'
loop_
_space_group_symop_operation_xyz
x,y,z
-x,-y,z
x,-y,-z
-x,y,-z
1/2+x,1/2+y,1/2+z
1/2-x,1/2-y,1/2+z
1/2+x,1/2-y,1/2-z
1/2-x,1/2+y,1/2-z
loop_
_atom_site_type_symbol
_atom_site_label
_atom_site_fract_x
_atom_site_fract_y
_atom_site_fract_z
Si Si1 0.835485 0.303688 0.591148
Si Si2 0.676150 0.437745 0.577953
Si Si3 0.834690 0.074103 0.402089
Si Si4 0.339233 0.799804 0.420341
Si Si5 0.500000 0.000000 0.500000
O O1 0.791521 0.376457 0.576587
O O2 0.698471 0.260117 0.515490
O O3 0.865139 0.285940 0.754622
O O4 0.000000 0.291107 0.500000
O O5 0.745018 0.500000 0.500000
O O6 0.500000 0.423257 0.500000
O O7 0.631052 0.446488 0.742040
O O8 0.806248 0.147897 0.417863
O O9 0.000000 0.060773 0.500000
O O10 0.645495 0.043842 0.427568
O O11 0.500000 0.828871 0.500000
#
# Coordination Sequence:
#
# PCOD9331965 Si02
#       5
#     8   8   8   8   2
#     4  11  24  41  68  99 136 188 228 293 357 414
#     4  10  25  45  66 100 138 181 235 286 356 419
#     4  11  26  46  74 101 143 185 234 294 347 420
#     4  11  23  44  67 102 139 178 239 290 347 425
#     4  12  26  44  70 110 128 188 234 280 348 418
#
# _framework density 21.240691000000002
#
# number of rings (size 3 to 8) (size 9 to 14) (size 15 to 20)
#    0.000    1.176    1.176    3.176    6.588   11.765 
#    0.000    0.000    0.000    0.000    0.000    0.000 
#    0.000    0.000    0.000    0.000    0.000    0.000 
#
# Total GULP energy -94715.528957 kJ/mol
# GULP energy per Si atom -5571.501703 kJ/mol
# Density = 2.119235 g / cm^3
# Si number density = 21.240691 Si / 1000 Ang^3
#
#
#
# Elastic Constant Matrix: (Units=GPa)
#
#
# Indices 1 2 3 4 5 6 
#
# 1 108.9183 3.0573 75.6711 0.0002 0.0001 0.0005
# 2 3.0573 97.6514 61.2120 0.0002 0.0002 0.0004
# 3 75.6711 61.2120 216.3218 0.0009 0.0008 0.0022
# 4 0.0002 0.0002 0.0009 66.8638 0.0006 0.0012
# 5 0.0001 0.0002 0.0008 0.0006 29.5572 0.0008
# 6 0.0005 0.0004 0.0022 0.0012 0.0008 34.5437
#
#
#
# Elastic Compliance Matrix: (Units=1/GPa)
#
#
# Indices 1 2 3 4 5 6 
#
# 1 0.012779 0.002920 -0.005296 0.000000 0.000000 0.000000
# 2 0.002920 0.013116 -0.004733 0.000000 0.000000 0.000000
# 3 -0.005296 -0.004733 0.007815 0.000000 0.000000 0.000000
# 4 0.000000 0.000000 0.000000 0.014956 0.000000 -0.000001
# 5 0.000000 0.000000 0.000000 0.000000 0.033833 -0.000001
# 6 0.000000 0.000000 0.000000 -0.000001 -0.000001 0.028949
#
#
# Mechanical properties :
#
#
# Convention : Reuss Voigt Hill
#
# Bulk Modulus (GPa) = 51.30595 78.08582 64.69589
# Shear Modulus (GPa) = 37.83231 45.05634 41.44433
#
# Velocity S-wave (km/s) = 4.22492 4.61068 4.42200
# Velocity P-wave (km/s) = 6.92870 8.07382 7.52308
#
# Compressibility (1/GPa) = 0.01949092
#
# Stress axis : x y z
#
# Youngs Moduli (GPa) = 78.25385 76.24398 127.96416
#
# Poissons Ratio (x) = -0.22263 0.67775
# Poissons Ratio (y) = -0.22850 0.60562
# Poissons Ratio (z) = 0.41446 0.36084
#
# Static dielectric constant tensor:
#      x y z
#    x 1.614210 0.000000 0.000000 
#    y 0.000000 1.818180 0.000000 
#    z 0.000000 0.000000 1.709500 
# 
# From -- ./inp_files/6703.got.cif
#   From: 2010.05.17/outbox.cif.g08.bks.cpg/sg23_4_cif.got.tgz:6703.got - 2010.06.04 12:02:01.
