data_PCOD9331072
_publ_section_title
;
Structure prediction by ZEFSAII (Michael W. Deem and Ramdas Pophale) SiO2 
 PCOD9331072
Probable space group: I 2 2 2
;
_chemical_formula_sum "Si O2"
_cell_formula_units_Z 46
_cell_length_a 7.773401
_cell_length_b 24.597911
_cell_length_c 11.633491
_cell_angle_alpha 90.000000
_cell_angle_beta 90.000000
_cell_angle_gamma 90.000000
_cell_volume 2224.433136
_symmetry_space_group_name_H-M "I 2 2 2"
_symmetry_group_IT_number 23
_symmetry_cell_setting 'orthorhombic'
loop_
_space_group_symop_operation_xyz
x,y,z
-x,-y,z
x,-y,-z
-x,y,-z
1/2+x,1/2+y,1/2+z
1/2-x,1/2-y,1/2+z
1/2+x,1/2-y,1/2-z
1/2-x,1/2+y,1/2-z
loop_
_atom_site_type_symbol
_atom_site_label
_atom_site_fract_x
_atom_site_fract_y
_atom_site_fract_z
Si Si1 0.950803 0.215384 0.720817
Si Si2 0.162172 0.831347 0.080107
Si Si3 0.500000 0.000000 0.000000
Si Si4 0.612334 0.176844 0.854173
Si Si5 0.319437 0.465520 0.102010
Si Si6 0.868219 0.421911 0.685930
Si Si7 0.000000 0.137481 0.500000
O O1 0.090840 0.210867 0.825001
O O2 0.971694 0.276772 0.675149
O O3 0.776647 0.195208 0.780181
O O4 0.970781 0.176668 0.609372
O O5 0.211842 0.882101 0.157893
O O6 0.314634 0.823226 0.985330
O O7 0.000000 0.843564 0.000000
O O8 0.611373 0.037783 0.080789
O O9 0.533648 0.118670 0.815570
O O10 0.500000 0.500000 0.130618
O O11 0.187506 0.456153 0.204331
O O12 0.361958 0.406133 0.048794
O O13 0.239079 0.500000 0.000000
#
# Coordination Sequence:
#
# PCOD9331072 Si02
#       7
#     8   8   2   8   8   8   4
#     4  11  24  40  71 103 138 189 226 278 357 417
#     4  10  22  43  69  98 135 179 234 286 344 414
#     4  12  28  38  68  96 134 192 222 286 362 384
#     4  11  25  42  67 101 145 179 232 288 343 418
#     4   9  22  44  70  99 131 177 233 286 346 413
#     4  12  23  45  67  96 140 174 236 292 350 408
#     4  10  21  39  70  96 131 173 224 278 346 408
#
# _framework density 20.679425999999999
#
# number of rings (size 3 to 8) (size 9 to 14) (size 15 to 20)
#    0.000    1.565    3.478    1.043    4.870    4.174 
#    0.000    3.043    0.000    0.000    0.000    0.000 
#    0.000    0.000    0.000    0.000    0.000    0.000 
#
# Total GULP energy -128116.316218 kJ/mol
# GULP energy per Si atom -5570.274618 kJ/mol
# Density = 2.063236 g / cm^3
# Si number density = 20.679426 Si / 1000 Ang^3
#
#
#
# Elastic Constant Matrix: (Units=GPa)
#
#
# Indices 1 2 3 4 5 6 
#
# 1 100.1859 29.7393 60.0639 0.0000 0.0001 0.0000
# 2 29.7393 104.2216 53.1605 0.0000 0.0000 0.0001
# 3 60.0639 53.1605 163.9559 0.0000 -0.0006 0.0003
# 4 0.0000 0.0000 0.0000 63.8512 -0.0009 0.0001
# 5 0.0001 0.0000 -0.0006 -0.0009 -462.1140 0.0019
# 6 0.0000 0.0001 0.0003 0.0001 0.0019 -35.7769
#
#
#
# Elastic Compliance Matrix: (Units=1/GPa)
#
#
# Indices 1 2 3 4 5 6 
#
# 1 0.012992 -0.001533 -0.004262 0.000000 0.000000 0.000000
# 2 -0.001533 0.011677 -0.003225 0.000000 0.000000 0.000000
# 3 -0.004262 -0.003225 0.008706 0.000000 0.000000 0.000000
# 4 0.000000 0.000000 0.000000 0.015661 0.000000 0.000000
# 5 0.000000 0.000000 0.000000 0.000000 -0.002164 0.000000
# 6 0.000000 0.000000 0.000000 0.000000 0.000000 -0.027951
#
#
# Mechanical properties :
#
#
# Convention : Reuss Voigt Hill
#
# Bulk Modulus (GPa) = 65.20914 72.69897 68.95406
# Shear Modulus (GPa) = 118.83951 -71.78130 23.52910
#
# Velocity S-wave (km/s) = 7.58896 -5.89803 3.37679
# Velocity P-wave (km/s) = 10.41112 3.33929 6.97283
#
# Compressibility (1/GPa) = 0.01533527
#
# Stress axis : x y z
#
# Youngs Moduli (GPa) = 76.97071 85.63741 114.86045
#
# Poissons Ratio (x) = 0.13129 0.48958
# Poissons Ratio (y) = 0.11800 0.37037
# Poissons Ratio (z) = 0.32808 0.27614
#
# Static dielectric constant tensor:
#      x y z
#    x 1.791530 0.000000 0.000000 
#    y 0.000000 2.418280 0.000000 
#    z 0.000000 0.000000 1.738250 
# 
# From -- ./inp_files/14771.got.cif
#   From: 2010.05.17/outbox.cif.g08.bks.cpg/sg23_8_cif.got.tgz:14771.got - 2010.06.04 12:02:01.
