data_PCOD9331009
_publ_section_title
;
Structure prediction by ZEFSAII (Michael W. Deem and Ramdas Pophale) SiO2 
 PCOD9331009
Probable space group: I 2 2 2
;
_chemical_formula_sum "Si O2"
_cell_formula_units_Z 64
_cell_length_a 9.271426
_cell_length_b 24.891946
_cell_length_c 14.762299
_cell_angle_alpha 90.000000
_cell_angle_beta 90.000000
_cell_angle_gamma 90.000000
_cell_volume 3406.899982
_symmetry_space_group_name_H-M "I 2 2 2"
_symmetry_group_IT_number 23
_symmetry_cell_setting 'orthorhombic'
loop_
_space_group_symop_operation_xyz
x,y,z
-x,-y,z
x,-y,-z
-x,y,-z
1/2+x,1/2+y,1/2+z
1/2-x,1/2-y,1/2+z
1/2+x,1/2-y,1/2-z
1/2-x,1/2+y,1/2-z
loop_
_atom_site_type_symbol
_atom_site_label
_atom_site_fract_x
_atom_site_fract_y
_atom_site_fract_z
Si Si1 0.503553 0.438052 0.608209
Si Si2 0.529763 0.804308 0.106816
Si Si3 0.216775 0.137063 0.208111
Si Si4 0.274091 0.124713 0.810832
Si Si5 0.555021 0.685264 0.181529
Si Si6 0.343972 0.953107 0.336782
Si Si7 0.359228 0.920374 0.624924
Si Si8 0.639985 0.599823 0.037811
O O1 0.500000 0.500000 0.639884
O O2 0.500000 0.438052 0.500000
O O3 0.367247 0.408935 0.653365
O O4 0.645423 0.404014 0.634667
O O5 0.681582 0.831469 0.137181
O O6 0.397054 0.841708 0.139194
O O7 0.536012 0.747409 0.158377
O O8 0.500000 0.796181 0.000000
O O9 0.318274 0.114095 0.287586
O O10 0.088446 0.167558 0.263107
O O11 0.191456 0.166121 0.742627
O O12 0.350539 0.074362 0.760468
O O13 0.584281 0.654362 0.086086
O O14 0.469695 0.922323 0.392862
O O15 0.196155 0.934249 0.379023
O O16 0.343513 0.016693 0.347597
O O17 0.257948 0.901044 0.542561
O O18 0.500000 0.571704 0.000000
#
# Coordination Sequence:
#
# PCOD9331009 Si02
#       8
#     8   8   8   8   8   8   8   8
#     4  10  21  39  62  88 122 158 202 256 313 372
#     4  12  24  40  65  91 120 161 214 271 318 365
#     4  11  22  40  64  89 121 164 205 255 315 376
#     4  10  21  41  61  87 123 162 208 256 316 382
#     4  10  23  42  63  88 125 163 211 260 319 370
#     4  10  22  37  57  85 126 165 198 247 307 379
#     4  11  21  37  59  86 125 164 201 245 310 379
#     4  11  21  37  58  91 123 160 202 256 297 374
#
# _framework density 18.785405000000001
#
# number of rings (size 3 to 8) (size 9 to 14) (size 15 to 20)
#    0.000    1.375    2.500    3.375    0.000    2.000 
#    0.000    0.000    0.000    3.000    0.000    0.000 
#    0.000    0.000    0.000    0.000    0.000    0.000 
#
# Total GULP energy -178213.638647 kJ/mol
# GULP energy per Si atom -5569.176208 kJ/mol
# Density = 1.874265 g / cm^3
# Si number density = 18.785405 Si / 1000 Ang^3
#
#
#
# Elastic Constant Matrix: (Units=GPa)
#
#
# Indices 1 2 3 4 5 6 
#
# 1 83.8706 40.9969 17.6477 0.0002 0.0000 0.0000
# 2 40.9969 109.9603 36.8858 0.0006 0.0000 0.0000
# 3 17.6477 36.8858 72.1515 0.0023 0.0000 0.0000
# 4 0.0002 0.0006 0.0023 122.7522 -0.0002 0.0001
# 5 0.0000 0.0000 0.0000 -0.0002 32.6282 0.0000
# 6 0.0000 0.0000 0.0000 0.0001 0.0000 20.7962
#
#
#
# Elastic Compliance Matrix: (Units=1/GPa)
#
#
# Indices 1 2 3 4 5 6 
#
# 1 0.014635 -0.005136 -0.000954 0.000000 0.000000 0.000000
# 2 -0.005136 0.012779 -0.005277 0.000000 0.000000 0.000000
# 3 -0.000954 -0.005277 0.016791 0.000000 0.000000 0.000000
# 4 0.000000 0.000000 0.000000 0.008146 0.000000 0.000000
# 5 0.000000 0.000000 0.000000 0.000000 0.030648 0.000000
# 6 0.000000 0.000000 0.000000 0.000000 0.000000 0.048086
#
#
# Mechanical properties :
#
#
# Convention : Reuss Voigt Hill
#
# Bulk Modulus (GPa) = 46.57483 50.78256 48.67869
# Shear Modulus (GPa) = 31.06063 46.59879 38.82971
#
# Velocity S-wave (km/s) = 4.07067 4.98595 4.55138
# Velocity P-wave (km/s) = 6.85133 7.76131 7.32047
#
# Compressibility (1/GPa) = 0.02147083
#
# Stress axis : x y z
#
# Youngs Moduli (GPa) = 68.33167 78.25170 59.55705
#
# Poissons Ratio (x) = 0.40193 0.05680
# Poissons Ratio (y) = 0.35097 0.31427
# Poissons Ratio (z) = 0.06516 0.41292
#
# Static dielectric constant tensor:
#      x y z
#    x 1.416620 0.000000 0.000000 
#    y 0.000000 1.678700 0.000000 
#    z 0.000000 0.000000 1.678370 
# 
# From -- ./inp_files/20352.got.cif
#   From: 2010.05.17/outbox.cif.g08.bks.cpg/sg23_11_cif.got.tgz:20352.got - 2010.06.04 12:02:01.
