data_PCOD9331409
_publ_section_title
;
Structure prediction by ZEFSAII (Michael W. Deem and Ramdas Pophale) SiO2 
 PCOD9331409
Probable space group: I 2 2 2
;
_chemical_formula_sum "Si O2"
_cell_formula_units_Z 58
_cell_length_a 27.769592
_cell_length_b 10.684432
_cell_length_c 8.405879
_cell_angle_alpha 90.000000
_cell_angle_beta 90.000000
_cell_angle_gamma 90.000000
_cell_volume 2494.043779
_symmetry_space_group_name_H-M "I 2 2 2"
_symmetry_group_IT_number 23
_symmetry_cell_setting 'orthorhombic'
loop_
_space_group_symop_operation_xyz
x,y,z
-x,-y,z
x,-y,-z
-x,y,-z
1/2+x,1/2+y,1/2+z
1/2-x,1/2-y,1/2+z
1/2+x,1/2-y,1/2-z
1/2-x,1/2+y,1/2-z
loop_
_atom_site_type_symbol
_atom_site_label
_atom_site_fract_x
_atom_site_fract_y
_atom_site_fract_z
Si Si1 0.907261 0.643826 0.992162
Si Si2 0.191900 0.260810 0.091862
Si Si3 0.044529 0.269420 0.670222
Si Si4 0.639660 0.684493 0.062426
Si Si5 0.363989 0.461655 0.735159
Si Si6 0.000000 0.500000 0.500000
Si Si7 0.464070 0.352661 0.652725
Si Si8 0.283460 0.857549 0.055285
O O1 0.926785 0.705570 0.832478
O O2 0.921059 0.500000 0.000000
O O3 0.850283 0.660141 0.010104
O O4 0.934424 0.723927 0.126595
O O5 0.167264 0.123374 0.118051
O O6 0.239613 0.233511 0.992952
O O7 0.204925 0.330623 0.258715
O O8 0.083307 0.211149 0.555093
O O9 0.029332 0.404577 0.608473
O O10 0.000515 0.176745 0.704789
O O11 0.649636 0.603329 0.220979
O O12 0.670909 0.808350 0.046534
O O13 0.647481 0.606653 0.902065
O O14 0.420592 0.450339 0.685254
O O15 0.500000 0.371987 0.500000
O O16 0.273937 0.000000 0.000000
#
# Coordination Sequence:
#
# PCOD9331409 Si02
#       8
#     8   8   8   8   8   2   8   8
#     4  10  22  40  65  92 137 182 232 280 348 416
#     4  10  25  44  69 102 132 183 227 292 356 420
#     4  11  23  36  62  95 134 179 233 279 344 411
#     4  10  23  40  65  94 129 181 221 279 344 405
#     4   9  20  44  65  90 136 174 225 280 338 417
#     4  12  24  36  58  98 144 180 226 296 338 416
#     4   9  19  39  62  95 131 178 230 281 341 406
#     4  11  27  45  71 102 140 176 235 294 355 437
#
# _framework density 23.255405
#
# number of rings (size 3 to 8) (size 9 to 14) (size 15 to 20)
#    0.000    1.931    0.000    1.655    6.759    3.586 
#    2.483    8.966    0.000    0.000    0.000    0.000 
#    0.000    0.000    0.000    0.000    0.000    0.000 
#
# Total GULP energy -162090.357464 kJ/mol
# GULP energy per Si atom -5589.322671 kJ/mol
# Density = 2.320247 g / cm^3
# Si number density = 23.255405 Si / 1000 Ang^3
#
#
#
# Elastic Constant Matrix: (Units=GPa)
#
#
# Indices 1 2 3 4 5 6 
#
# 1 93.3432 -9.5358 22.4525 0.0000 0.0000 0.0000
# 2 -9.5358 63.7415 2.6830 0.0000 0.0000 0.0000
# 3 22.4525 2.6830 52.3856 0.0000 0.0000 0.0000
# 4 0.0000 0.0000 0.0000 5.4349 0.0000 0.0000
# 5 0.0000 0.0000 0.0000 0.0000 43.3010 0.0000
# 6 0.0000 0.0000 0.0000 0.0000 0.0000 31.5423
#
#
#
# Elastic Compliance Matrix: (Units=1/GPa)
#
#
# Indices 1 2 3 4 5 6 
#
# 1 0.012206 0.002051 -0.005337 0.000000 0.000000 0.000000
# 2 0.002051 0.016067 -0.001702 0.000000 0.000000 0.000000
# 3 -0.005337 -0.001702 0.021464 0.000000 0.000000 0.000000
# 4 0.000000 0.000000 0.000000 0.183997 0.000000 0.000000
# 5 0.000000 0.000000 0.000000 0.000000 0.023094 0.000000
# 6 0.000000 0.000000 0.000000 0.000000 0.000000 0.031704
#
#
# Mechanical properties :
#
#
# Convention : Reuss Voigt Hill
#
# Bulk Modulus (GPa) = 25.15014 26.74109 25.94561
# Shear Modulus (GPa) = 16.03792 28.98033 22.50913
#
# Velocity S-wave (km/s) = 2.62895 3.53395 3.11450
# Velocity P-wave (km/s) = 4.47810 5.30807 4.91065
#
# Compressibility (1/GPa) = 0.03976122
#
# Stress axis : x y z
#
# Youngs Moduli (GPa) = 81.92474 62.24022 46.59035
#
# Poissons Ratio (x) = -0.12764 0.24864
# Poissons Ratio (y) = -0.16800 0.07929
# Poissons Ratio (z) = 0.43721 0.10592
#
# Static dielectric constant tensor:
#      x y z
#    x 1.902440 0.000000 0.000000 
#    y 0.000000 1.852790 0.000000 
#    z 0.000000 0.000000 1.902630 
# 
# From -- ./inp_files/13065.got.cif
#   From: 2010.05.17/outbox.cif.g08.bks.cpg/sg23_7_cif.got.tgz:13065.got - 2010.06.04 12:02:01.
