data_PCOD9331451
_publ_section_title
;
Structure prediction by ZEFSAII (Michael W. Deem and Ramdas Pophale) SiO2 
 PCOD9331451
Probable space group: I 2 2 2
;
_chemical_formula_sum "Si O2"
_cell_formula_units_Z 58
_cell_length_a 29.332192
_cell_length_b 16.689879
_cell_length_c 5.179699
_cell_angle_alpha 90.000000
_cell_angle_beta 90.000000
_cell_angle_gamma 90.000000
_cell_volume 2535.725454
_symmetry_space_group_name_H-M "I 2 2 2"
_symmetry_group_IT_number 23
_symmetry_cell_setting 'orthorhombic'
loop_
_space_group_symop_operation_xyz
x,y,z
-x,-y,z
x,-y,-z
-x,y,-z
1/2+x,1/2+y,1/2+z
1/2-x,1/2-y,1/2+z
1/2+x,1/2-y,1/2-z
1/2-x,1/2+y,1/2-z
loop_
_atom_site_type_symbol
_atom_site_label
_atom_site_fract_x
_atom_site_fract_y
_atom_site_fract_z
Si Si1 0.672369 0.410240 0.073107
Si Si2 0.550971 0.762342 0.902263
Si Si3 0.391663 0.092131 0.965284
Si Si4 0.750687 0.302160 0.252461
Si Si5 0.571837 0.601532 0.678926
Si Si6 0.153675 0.343017 0.980485
Si Si7 0.000000 0.000000 0.500000
Si Si8 0.880912 0.181045 0.192510
O O1 0.709577 0.365879 0.246426
O O2 0.664009 0.354035 0.825405
O O3 0.685789 0.500000 0.000000
O O4 0.621168 0.411781 0.190952
O O5 0.586852 0.727510 0.109093
O O6 0.500000 0.762726 0.000000
O O7 0.567676 0.852103 0.855919
O O8 0.554606 0.694094 0.686132
O O9 0.353201 0.110417 0.748334
O O10 0.376238 0.119982 0.249340
O O11 0.403364 0.000000 0.000000
O O12 0.740121 0.232857 0.037959
O O13 0.795593 0.341991 0.130042
O O14 0.588846 0.602251 0.384537
O O15 0.532592 0.551476 0.811818
O O16 0.137184 0.249736 0.004978
#
# Coordination Sequence:
#
# PCOD9331451 Si02
#       8
#     8   8   8   8   8   8   2   8
#     4  11  25  44  64 100 141 178 228 297 361 418
#     4  10  22  41  64  95 131 174 228 276 347 424
#     4  11  24  43  70 102 139 177 229 294 345 408
#     4  12  25  44  73 103 135 184 239 284 345 432
#     4  11  22  45  65  94 139 178 235 283 353 425
#     4  11  22  44  72 101 133 186 232 280 350 423
#     4  12  24  44  66 104 136 180 240 302 344 432
#     4  10  22  43  69  92 133 188 229 285 354 431
#
# _framework density 22.873135999999999
#
# number of rings (size 3 to 8) (size 9 to 14) (size 15 to 20)
#    0.000    1.103    4.138    2.069    1.931    2.483 
#    0.000    4.138    0.000    1.655    0.000    0.000 
#    0.000    0.000    0.000    0.000    0.000    0.000 
#
# Total GULP energy -161901.635938 kJ/mol
# GULP energy per Si atom -5582.815032 kJ/mol
# Density = 2.282108 g / cm^3
# Si number density = 22.873136 Si / 1000 Ang^3
#
#
#
# Elastic Constant Matrix: (Units=GPa)
#
#
# Indices 1 2 3 4 5 6 
#
# 1 87.4468 28.7791 -17.3607 0.0000 0.0000 0.0000
# 2 28.7791 116.7035 18.3917 0.0000 0.0000 0.0000
# 3 -17.3607 18.3917 58.7756 -0.0001 -0.0001 0.0000
# 4 0.0000 0.0000 -0.0001 28.0823 0.0000 0.0000
# 5 0.0000 0.0000 -0.0001 0.0000 13.3902 0.0000
# 6 0.0000 0.0000 0.0000 0.0000 0.0000 19.9725
#
#
#
# Elastic Compliance Matrix: (Units=1/GPa)
#
#
# Indices 1 2 3 4 5 6 
#
# 1 0.013933 -0.004296 0.005460 0.000000 0.000000 0.000000
# 2 -0.004296 0.010338 -0.004504 0.000000 0.000000 0.000000
# 3 0.005460 -0.004504 0.020036 0.000000 0.000000 0.000000
# 4 0.000000 0.000000 0.000000 0.035610 0.000000 0.000000
# 5 0.000000 0.000000 0.000000 0.000000 0.074682 0.000000
# 6 0.000000 0.000000 0.000000 0.000000 0.000000 0.050069
#
#
# Mechanical properties :
#
#
# Convention : Reuss Voigt Hill
#
# Bulk Modulus (GPa) = 26.57694 35.83846 31.20770
# Shear Modulus (GPa) = 22.33233 27.83005 25.08119
#
# Velocity S-wave (km/s) = 3.12806 3.49193 3.31499
# Velocity P-wave (km/s) = 4.96899 5.65336 5.32218
#
# Compressibility (1/GPa) = 0.03762660
#
# Stress axis : x y z
#
# Youngs Moduli (GPa) = 71.76955 96.73024 49.91025
#
# Poissons Ratio (x) = 0.41560 -0.27251
# Poissons Ratio (y) = 0.30836 0.22479
# Poissons Ratio (z) = -0.39186 0.43567
#
# Static dielectric constant tensor:
#      x y z
#    x 1.869400 0.000000 0.000000 
#    y 0.000000 1.921510 0.000000 
#    z 0.000000 0.000000 2.048800 
# 
# From -- ./inp_files/3495.got.cif
#   From: 2010.05.17/outbox.cif.g08.bks.cpg/sg23_2_cif.got.tgz:3495.got - 2010.06.04 12:02:01.
