data_PCOD9331598
_publ_section_title
;
Structure prediction by ZEFSAII (Michael W. Deem and Ramdas Pophale) SiO2 
 PCOD9331598
Probable space group: I 2 2 2
;
_chemical_formula_sum "Si O2"
_cell_formula_units_Z 54
_cell_length_a 5.539332
_cell_length_b 24.452767
_cell_length_c 16.151272
_cell_angle_alpha 90.000000
_cell_angle_beta 90.000000
_cell_angle_gamma 90.000000
_cell_volume 2187.722010
_symmetry_space_group_name_H-M "I 2 2 2"
_symmetry_group_IT_number 23
_symmetry_cell_setting 'orthorhombic'
loop_
_space_group_symop_operation_xyz
x,y,z
-x,-y,z
x,-y,-z
-x,y,-z
1/2+x,1/2+y,1/2+z
1/2-x,1/2-y,1/2+z
1/2+x,1/2-y,1/2-z
1/2-x,1/2+y,1/2-z
loop_
_atom_site_type_symbol
_atom_site_label
_atom_site_fract_x
_atom_site_fract_y
_atom_site_fract_z
Si Si1 0.500000 0.000000 0.500000
Si Si2 0.000000 0.000000 0.655014
Si Si3 0.139326 0.554281 0.281518
Si Si4 0.595735 0.916184 0.621162
Si Si5 0.481014 0.715781 0.254510
Si Si6 0.104937 0.179551 0.587604
Si Si7 0.252044 0.912559 0.962018
Si Si8 0.177443 0.791397 0.934670
O O1 0.589920 0.047303 0.566476
O O2 0.166414 0.044978 0.608590
O O3 0.842983 0.035266 0.718899
O O4 0.235447 0.581164 0.363631
O O5 0.000000 0.500000 0.309234
O O6 0.962122 0.585711 0.218664
O O7 0.648695 0.854880 0.594721
O O8 0.745270 0.744894 0.255332
O O9 0.475886 0.673136 0.177391
O O10 0.447538 0.694060 0.347612
O O11 0.126617 0.245259 0.583652
O O12 0.000000 0.161373 0.500000
O O13 0.253412 0.847342 0.977247
O O14 0.500000 0.935269 0.000000
O O15 0.000000 0.933747 0.000000
O O16 0.000000 0.763075 0.000000
#
# Coordination Sequence:
#
# PCOD9331598 Si02
#       8
#     2   4   8   8   8   8   8   8
#     4  12  24  50  60 104 140 192 244 306 364 454
#     4  10  22  47  69  96 134 190 232 300 371 439
#     4  10  24  49  73 103 143 187 245 299 376 442
#     4  11  26  43  71  99 143 189 244 308 370 441
#     4  10  23  44  69 102 141 187 239 298 359 429
#     4  11  25  41  69 108 141 191 245 304 365 440
#     4  11  27  46  77 112 149 195 238 305 371 438
#     4  10  23  45  70  99 148 189 240 296 361 440
#
# _framework density 24.683208
#
# number of rings (size 3 to 8) (size 9 to 14) (size 15 to 20)
#    0.000    1.481    2.222    1.333    9.333    9.778 
#    0.000    0.000    0.000    0.000    0.000    0.000 
#    0.000    0.000    0.000    0.000    0.000    0.000 
#
# Total GULP energy -150535.122853 kJ/mol
# GULP energy per Si atom -5575.374920 kJ/mol
# Density = 2.462703 g / cm^3
# Si number density = 24.683208 Si / 1000 Ang^3
#
#
#
# Elastic Constant Matrix: (Units=GPa)
#
#
# Indices 1 2 3 4 5 6 
#
# 1 105.7726 20.1786 38.6125 0.0000 0.0000 0.0000
# 2 20.1786 80.8519 10.9073 0.0000 0.0000 0.0000
# 3 38.6125 10.9073 175.8666 0.0000 0.0000 0.0000
# 4 0.0000 0.0000 0.0000 115.0061 0.0000 0.0000
# 5 0.0000 0.0000 0.0000 0.0000 17.8406 0.0000
# 6 0.0000 0.0000 0.0000 0.0000 0.0000 1.0572
#
#
#
# Elastic Compliance Matrix: (Units=1/GPa)
#
#
# Indices 1 2 3 4 5 6 
#
# 1 0.010712 -0.002376 -0.002205 0.000000 0.000000 0.000000
# 2 -0.002376 0.013000 -0.000285 0.000000 0.000000 0.000000
# 3 -0.002205 -0.000285 0.006188 0.000000 0.000000 0.000000
# 4 0.000000 0.000000 0.000000 0.008695 0.000000 0.000000
# 5 0.000000 0.000000 0.000000 0.000000 0.056052 0.000000
# 6 0.000000 0.000000 0.000000 0.000000 0.000000 0.945885
#
#
# Mechanical properties :
#
#
# Convention : Reuss Voigt Hill
#
# Bulk Modulus (GPa) = 49.58023 55.76529 52.67276
# Shear Modulus (GPa) = 4.73043 46.30029 25.51536
#
# Velocity S-wave (km/s) = 1.38586 4.33573 3.21863
# Velocity P-wave (km/s) = 4.76351 6.90696 5.93284
#
# Compressibility (1/GPa) = 0.02016933
#
# Stress axis : x y z
#
# Youngs Moduli (GPa) = 93.35034 76.92486 161.60821
#
# Poissons Ratio (x) = 0.18278 0.35628
# Poissons Ratio (y) = 0.22181 0.04599
# Poissons Ratio (z) = 0.20580 0.02189
#
# Static dielectric constant tensor:
#      x y z
#    x 0.815180 0.000000 0.000000 
#    y 0.000000 1.955580 0.000000 
#    z 0.000000 0.000000 2.108780 
# 
# From -- ./inp_files/19355.got.cif
#   From: 2010.05.17/outbox.cif.g08.bks.cpg/sg23_10_cif.got.tgz:19355.got - 2010.06.04 12:02:01.
