data_PCOD9331566
_publ_section_title
;
Structure prediction by ZEFSAII (Michael W. Deem and Ramdas Pophale) SiO2 
 PCOD9331566
Probable space group: I 2 2 2
;
_chemical_formula_sum "Si O2"
_cell_formula_units_Z 50
_cell_length_a 17.866424
_cell_length_b 15.113282
_cell_length_c 9.268371
_cell_angle_alpha 90.000000
_cell_angle_beta 90.000000
_cell_angle_gamma 90.000000
_cell_volume 2502.648357
_symmetry_space_group_name_H-M "I 2 2 2"
_symmetry_group_IT_number 23
_symmetry_cell_setting 'orthorhombic'
loop_
_space_group_symop_operation_xyz
x,y,z
-x,-y,z
x,-y,-z
-x,y,-z
1/2+x,1/2+y,1/2+z
1/2-x,1/2-y,1/2+z
1/2+x,1/2-y,1/2-z
1/2-x,1/2+y,1/2-z
loop_
_atom_site_type_symbol
_atom_site_label
_atom_site_fract_x
_atom_site_fract_y
_atom_site_fract_z
Si Si1 0.492328 0.675621 0.674256
Si Si2 0.161254 0.247697 0.818821
Si Si3 0.927767 0.654378 0.310662
Si Si4 0.810773 0.756772 0.490702
Si Si5 0.500000 0.000000 0.000000
Si Si6 0.409149 0.899315 0.495826
Si Si7 0.426130 0.594849 0.079100
O O1 0.500000 0.681172 0.500000
O O2 0.402740 0.672236 0.691449
O O3 0.517708 0.765926 0.757963
O O4 0.544477 0.602416 0.754359
O O5 0.193068 0.254923 0.660096
O O6 0.230790 0.235834 0.923886
O O7 0.121459 0.336305 0.879813
O O8 0.871232 0.689991 0.427921
O O9 0.962505 0.568238 0.385322
O O10 0.885903 0.634659 0.161181
O O11 0.850076 0.850195 0.445675
O O12 0.500000 0.898382 0.500000
O O13 0.384054 0.000000 0.500000
O O14 0.418072 0.500000 0.000000
O O15 0.500000 0.635952 0.000000
#
# Coordination Sequence:
#
# PCOD9331566 Si02
#       7
#     8   8   8   8   2   8   8
#     4  11  21  40  73  98 130 169 231 287 330 405
#     4  12  22  42  62  95 129 179 216 272 340 403
#     4  11  22  38  60 101 127 174 219 270 321 393
#     4  11  26  39  67  93 136 171 223 273 337 413
#     4  12  24  32  70  92 146 168 216 260 332 388
#     4  11  22  37  63  96 134 168 217 270 323 389
#     4  10  22  44  71  97 125 171 232 284 340 402
#
# _framework density 19.978835
#
# number of rings (size 3 to 8) (size 9 to 14) (size 15 to 20)
#    0.000    0.960    4.800    2.880    6.720    0.640 
#    0.000    1.600    0.000    0.000    0.000    0.000 
#    0.000    0.000    0.000    0.000    0.000    0.000 
#
# Total GULP energy -139302.391421 kJ/mol
# GULP energy per Si atom -5572.095657 kJ/mol
# Density = 1.993336 g / cm^3
# Si number density = 19.978835 Si / 1000 Ang^3
#
#
#
# Elastic Constant Matrix: (Units=GPa)
#
#
# Indices 1 2 3 4 5 6 
#
# 1 76.3914 24.7555 38.2669 0.0000 0.0000 0.0000
# 2 24.7555 99.9703 30.1533 0.0000 0.0000 0.0000
# 3 38.2669 30.1533 156.1219 0.0000 0.0000 0.0000
# 4 0.0000 0.0000 0.0000 22.1479 0.0000 0.0000
# 5 0.0000 0.0000 0.0000 0.0000 38.8906 0.0000
# 6 0.0000 0.0000 0.0000 0.0000 0.0000 7.7742
#
#
#
# Elastic Compliance Matrix: (Units=1/GPa)
#
#
# Indices 1 2 3 4 5 6 
#
# 1 0.015672 -0.002891 -0.003283 0.000000 0.000000 0.000000
# 2 -0.002891 0.011155 -0.001446 0.000000 0.000000 0.000000
# 3 -0.003283 -0.001446 0.007489 0.000000 0.000000 0.000000
# 4 0.000000 0.000000 0.000000 0.045151 0.000000 0.000000
# 5 0.000000 0.000000 0.000000 0.000000 0.025713 0.000000
# 6 0.000000 0.000000 0.000000 0.000000 0.000000 0.128631
#
#
# Mechanical properties :
#
#
# Convention : Reuss Voigt Hill
#
# Bulk Modulus (GPa) = 52.41958 57.64834 55.03396
# Shear Modulus (GPa) = 19.57644 29.71639 24.64642
#
# Velocity S-wave (km/s) = 3.13367 3.86086 3.51611
# Velocity P-wave (km/s) = 6.27596 6.98515 6.64003
#
# Compressibility (1/GPa) = 0.01907684
#
# Stress axis : x y z
#
# Youngs Moduli (GPa) = 63.80908 89.64683 133.52526
#
# Poissons Ratio (x) = 0.25913 0.43836
# Poissons Ratio (y) = 0.18444 0.19307
# Poissons Ratio (z) = 0.20949 0.12963
#
# Static dielectric constant tensor:
#      x y z
#    x 1.733630 0.000000 0.000000 
#    y 0.000000 1.768500 0.000000 
#    z 0.000000 0.000000 1.748700 
# 
# From -- ./inp_files/11087.got.cif
#   From: 2010.05.17/outbox.cif.g08.bks.cpg/sg23_6_cif.got.tgz:11087.got - 2010.06.04 12:02:01.
