data_PCOD9331289
_publ_section_title
;
Structure prediction by ZEFSAII (Michael W. Deem and Ramdas Pophale) SiO2 
 PCOD9331289
Probable space group: I 2 2 2
;
_chemical_formula_sum "Si O2"
_cell_formula_units_Z 48
_cell_length_a 22.783356
_cell_length_b 7.649141
_cell_length_c 13.967671
_cell_angle_alpha 90.000000
_cell_angle_beta 90.000000
_cell_angle_gamma 90.000000
_cell_volume 2434.189360
_symmetry_space_group_name_H-M "I 2 2 2"
_symmetry_group_IT_number 23
_symmetry_cell_setting 'orthorhombic'
loop_
_space_group_symop_operation_xyz
x,y,z
-x,-y,z
x,-y,-z
-x,y,-z
1/2+x,1/2+y,1/2+z
1/2-x,1/2-y,1/2+z
1/2+x,1/2-y,1/2-z
1/2-x,1/2+y,1/2-z
loop_
_atom_site_type_symbol
_atom_site_label
_atom_site_fract_x
_atom_site_fract_y
_atom_site_fract_z
Si Si1 0.021346 0.303015 0.100121
Si Si2 0.824140 0.812731 0.379080
Si Si3 0.346587 0.281352 0.100244
Si Si4 0.626625 0.652201 0.687800
Si Si5 0.046059 0.132851 0.725191
Si Si6 0.748219 0.497442 0.386228
O O1 0.090794 0.271512 0.114301
O O2 0.000000 0.500000 0.094430
O O3 0.992153 0.239207 0.199050
O O4 0.000000 0.217560 0.000000
O O5 0.848235 0.767599 0.484677
O O6 0.867370 0.763006 0.292823
O O7 0.766078 0.696688 0.361361
O O8 0.819584 0.024524 0.377900
O O9 0.410088 0.276639 0.150578
O O10 0.303542 0.128682 0.135114
O O11 0.588176 0.480078 0.705668
O O12 0.690771 0.588212 0.658363
O O13 0.000000 0.000000 0.675397
O O14 0.739135 0.500000 0.500000
#
# Coordination Sequence:
#
# PCOD9331289 Si02
#       6
#     8   8   8   8   8   8
#     4  10  23  42  58  86 120 158 207 264 302 358
#     4   9  20  38  58  90 128 151 196 249 298 373
#     4   9  19  40  61  88 127 158 196 252 306 368
#     4  10  22  37  60  87 115 161 205 244 311 365
#     4   9  20  38  62  86 113 163 204 247 309 356
#     4  10  22  37  59  92 122 163 199 249 312 365
#
# _framework density 19.719089
#
# number of rings (size 3 to 8) (size 9 to 14) (size 15 to 20)
#    0.000    2.500    0.000    0.000    9.333    2.333 
#    3.000   15.833    0.000    1.000    0.000    0.000 
#    0.000    0.000    0.000    0.000    0.000    0.000 
#
# Total GULP energy -133623.778802 kJ/mol
# GULP energy per Si atom -5567.657450 kJ/mol
# Density = 1.967421 g / cm^3
# Si number density = 19.719089 Si / 1000 Ang^3
#
#
#
# Elastic Constant Matrix: (Units=GPa)
#
#
# Indices 1 2 3 4 5 6 
#
# 1 121.9158 33.0620 55.4587 0.0000 0.0000 0.0000
# 2 33.0620 43.6256 33.9296 0.0000 0.0000 0.0000
# 3 55.4587 33.9296 81.2879 0.0000 0.0000 0.0000
# 4 0.0000 0.0000 0.0000 15.4099 0.0000 0.0000
# 5 0.0000 0.0000 0.0000 0.0000 33.9276 0.0000
# 6 0.0000 0.0000 0.0000 0.0000 0.0000 22.5932
#
#
#
# Elastic Compliance Matrix: (Units=1/GPa)
#
#
# Indices 1 2 3 4 5 6 
#
# 1 0.012385 -0.004167 -0.006710 0.000000 0.000000 0.000000
# 2 -0.004167 0.035342 -0.011909 0.000000 0.000000 0.000000
# 3 -0.006710 -0.011909 0.021851 0.000000 0.000000 0.000000
# 4 0.000000 0.000000 0.000000 0.064893 0.000000 0.000000
# 5 0.000000 0.000000 0.000000 0.000000 0.029475 0.000000
# 6 0.000000 0.000000 0.000000 0.000000 0.000000 0.044261
#
#
# Mechanical properties :
#
#
# Convention : Reuss Voigt Hill
#
# Bulk Modulus (GPa) = 41.65697 54.63666 48.14681
# Shear Modulus (GPa) = 19.09989 22.67808 20.88898
#
# Velocity S-wave (km/s) = 3.11561 3.39493 3.25826
# Velocity P-wave (km/s) = 5.84070 6.56773 6.21485
#
# Compressibility (1/GPa) = 0.02400559
#
# Stress axis : x y z
#
# Youngs Moduli (GPa) = 80.74350 28.29457 45.76487
#
# Poissons Ratio (x) = 0.11791 0.30709
# Poissons Ratio (y) = 0.33647 0.54501
# Poissons Ratio (z) = 0.54181 0.33696
#
# Static dielectric constant tensor:
#      x y z
#    x 1.708120 0.000000 0.000000 
#    y 0.000000 1.707710 0.000000 
#    z 0.000000 0.000000 1.753540 
# 
# From -- ./inp_files/11922.got.cif
#   From: 2010.05.17/outbox.cif.g08.bks.cpg/sg23_6_cif.got.tgz:11922.got - 2010.06.04 12:02:01.
