data_PCOD9331981
_publ_section_title
;
Structure prediction by ZEFSAII (Michael W. Deem and Ramdas Pophale) SiO2 
 PCOD9331981
Probable space group: I 2 2 2
;
_chemical_formula_sum "Si O2"
_cell_formula_units_Z 48
_cell_length_a 8.971399
_cell_length_b 7.828006
_cell_length_c 28.902126
_cell_angle_alpha 90.000000
_cell_angle_beta 90.000000
_cell_angle_gamma 90.000000
_cell_volume 2029.743279
_symmetry_space_group_name_H-M "I 2 2 2"
_symmetry_group_IT_number 23
_symmetry_cell_setting 'orthorhombic'
loop_
_space_group_symop_operation_xyz
x,y,z
-x,-y,z
x,-y,-z
-x,y,-z
1/2+x,1/2+y,1/2+z
1/2-x,1/2-y,1/2+z
1/2+x,1/2-y,1/2-z
1/2-x,1/2+y,1/2-z
loop_
_atom_site_type_symbol
_atom_site_label
_atom_site_fract_x
_atom_site_fract_y
_atom_site_fract_z
Si Si1 0.201123 0.811076 0.551286
Si Si2 0.079272 0.192297 0.703343
Si Si3 0.304083 0.199244 0.546345
Si Si4 0.951297 0.195193 0.104613
Si Si5 0.054445 0.313641 0.601512
Si Si6 0.563959 0.296947 0.297560
O O1 0.246578 0.729569 0.502349
O O2 0.277940 0.718746 0.594857
O O3 0.028979 0.804446 0.564173
O O4 0.257827 0.003467 0.549499
O O5 0.259404 0.240354 0.704758
O O6 0.028395 0.269267 0.654570
O O7 0.011210 0.269419 0.750429
O O8 0.000000 0.000000 0.701923
O O9 0.475566 0.217951 0.559281
O O10 0.226418 0.293785 0.589184
O O11 0.999933 0.271634 0.153790
O O12 0.000000 0.000000 0.103161
O O13 0.000000 0.500000 0.590792
O O14 0.500000 0.500000 0.298716
#
# Coordination Sequence:
#
# PCOD9331981 Si02
#       6
#     8   8   8   8   8   8
#     4  11  25  40  70  97 136 191 237 304 370 450
#     4  11  25  49  78 110 151 197 251 307 380 456
#     4  11  23  46  62  98 140 183 244 301 370 447
#     4  11  23  42  69 101 143 184 238 298 370 440
#     4  12  26  42  69 101 141 184 246 305 374 443
#     4  10  25  47  76 111 153 193 248 312 377 449
#
# _framework density 23.648311
#
# number of rings (size 3 to 8) (size 9 to 14) (size 15 to 20)
#    0.000    1.000    1.667    4.000    4.667    8.000 
#    0.000    1.667    0.000    0.000    0.000    0.000 
#    0.000    0.000    0.000    0.000    0.000    0.000 
#
# Total GULP energy -133798.504841 kJ/mol
# GULP energy per Si atom -5574.937702 kJ/mol
# Density = 2.359449 g / cm^3
# Si number density = 23.648311 Si / 1000 Ang^3
#
#
#
# Elastic Constant Matrix: (Units=GPa)
#
#
# Indices 1 2 3 4 5 6 
#
# 1 107.2003 27.1712 40.9828 0.0000 0.0000 0.0000
# 2 27.1712 81.6290 10.0698 0.0000 0.0000 0.0000
# 3 40.9828 10.0698 161.8966 0.0000 0.0000 0.0000
# 4 0.0000 0.0000 0.0000 18.9383 0.0000 0.0000
# 5 0.0000 0.0000 0.0000 0.0000 49.8613 0.0000
# 6 0.0000 0.0000 0.0000 0.0000 0.0000 42.4884
#
#
#
# Elastic Compliance Matrix: (Units=1/GPa)
#
#
# Indices 1 2 3 4 5 6 
#
# 1 0.011193 -0.003402 -0.002622 0.000000 0.000000 0.000000
# 2 -0.003402 0.013379 0.000029 0.000000 0.000000 0.000000
# 3 -0.002622 0.000029 0.006839 0.000000 0.000000 0.000000
# 4 0.000000 0.000000 0.000000 0.052803 0.000000 0.000000
# 5 0.000000 0.000000 0.000000 0.000000 0.020056 0.000000
# 6 0.000000 0.000000 0.000000 0.000000 0.000000 0.023536
#
#
# Mechanical properties :
#
#
# Convention : Reuss Voigt Hill
#
# Bulk Modulus (GPa) = 51.49045 56.35262 53.92153
# Shear Modulus (GPa) = 34.18351 40.42441 37.30396
#
# Velocity S-wave (km/s) = 3.80609 4.13897 3.97602
# Velocity P-wave (km/s) = 6.41372 6.83540 6.62791
#
# Compressibility (1/GPa) = 0.01942108
#
# Stress axis : x y z
#
# Youngs Moduli (GPa) = 89.34150 74.74139 146.22744
#
# Poissons Ratio (x) = 0.25429 0.38338
# Poissons Ratio (y) = 0.30397 -0.00425
# Poissons Ratio (z) = 0.23424 -0.00217
#
# Static dielectric constant tensor:
#      x y z
#    x 1.858240 0.000000 0.000000 
#    y 0.000000 1.945000 0.000000 
#    z 0.000000 0.000000 1.879460 
# 
# From -- ./inp_files/30210.got.cif
#   From: 2010.05.17/outbox.cif.g08.bks.cpg/sg23_16_cif.got.tgz:30210.got - 2010.06.04 12:02:01.
