data_PCOD9331893
_publ_section_title
;
Structure prediction by ZEFSAII (Michael W. Deem and Ramdas Pophale) SiO2 
 PCOD9331893
Probable space group: I 2 2 2
;
_chemical_formula_sum "Si O2"
_cell_formula_units_Z 54
_cell_length_a 15.618963
_cell_length_b 11.839923
_cell_length_c 14.258619
_cell_angle_alpha 90.000000
_cell_angle_beta 90.000000
_cell_angle_gamma 90.000000
_cell_volume 2636.808188
_symmetry_space_group_name_H-M "I 2 2 2"
_symmetry_group_IT_number 23
_symmetry_cell_setting 'orthorhombic'
loop_
_space_group_symop_operation_xyz
x,y,z
-x,-y,z
x,-y,-z
-x,y,-z
1/2+x,1/2+y,1/2+z
1/2-x,1/2-y,1/2+z
1/2+x,1/2-y,1/2-z
1/2-x,1/2+y,1/2-z
loop_
_atom_site_type_symbol
_atom_site_label
_atom_site_fract_x
_atom_site_fract_y
_atom_site_fract_z
Si Si1 0.670203 0.093732 0.070469
Si Si2 0.148366 0.845468 0.529116
Si Si3 0.139880 0.154682 0.904178
Si Si4 0.659798 0.904433 0.426144
Si Si5 0.000000 0.000000 0.000000
Si Si6 0.406270 0.948331 0.779149
Si Si7 0.000000 0.000000 0.621356
Si Si8 0.380196 0.687204 0.813526
O O1 0.629388 0.217104 0.060521
O O2 0.770709 0.112709 0.052630
O O3 0.656870 0.034221 0.169194
O O4 0.633647 0.000000 0.000000
O O5 0.237105 0.887275 0.574192
O O6 0.162453 0.840355 0.415604
O O7 0.071611 0.925318 0.565092
O O8 0.123226 0.279742 0.944756
O O9 0.156847 0.168883 0.791591
O O10 0.062378 0.074843 0.934323
O O11 0.623294 0.941174 0.327172
O O12 0.638089 0.000000 0.500000
O O13 0.402614 0.820055 0.817922
O O14 0.500000 0.000000 0.789361
O O15 0.043879 0.096527 0.682941
#
# Coordination Sequence:
#
# PCOD9331893 Si02
#       8
#     8   8   8   8   2   8   4   8
#     4  11  22  45  68  96 132 176 222 284 347 407
#     4  11  23  41  65 101 133 180 221 279 353 406
#     4  10  25  41  68  97 132 178 228 277 343 418
#     4  10  24  45  67  96 136 178 225 279 344 409
#     4  12  22  46  66 100 140 180 228 280 350 412
#     4  11  25  42  68  99 131 176 230 282 344 417
#     4  12  24  37  64  97 138 169 218 277 339 406
#     4  11  22  41  62  97 132 170 226 274 334 416
#
# _framework density 20.479303999999999
#
# number of rings (size 3 to 8) (size 9 to 14) (size 15 to 20)
#    0.000    1.185    2.222    3.556    4.148    2.963 
#    0.000    1.481    0.000    0.000    0.000    0.000 
#    0.000    0.000    0.000    0.000    0.000    0.000 
#
# Total GULP energy -150581.463750 kJ/mol
# GULP energy per Si atom -5577.091250 kJ/mol
# Density = 2.043269 g / cm^3
# Si number density = 20.479304 Si / 1000 Ang^3
#
#
#
# Elastic Constant Matrix: (Units=GPa)
#
#
# Indices 1 2 3 4 5 6 
#
# 1 44.1219 31.3956 -5.1604 0.0000 0.0000 0.0000
# 2 31.3956 178.0251 47.6505 0.0000 0.0000 0.0000
# 3 -5.1604 47.6505 27.1105 0.0000 0.0000 0.0000
# 4 0.0000 0.0000 0.0000 24.5381 0.0000 0.0000
# 5 0.0000 0.0000 0.0000 0.0000 20.7258 0.0000
# 6 0.0000 0.0000 0.0000 0.0000 0.0000 29.5104
#
#
#
# Elastic Compliance Matrix: (Units=1/GPa)
#
#
# Indices 1 2 3 4 5 6 
#
# 1 0.038805 -0.016657 0.036663 0.000000 0.000000 0.000000
# 2 -0.016657 0.017757 -0.034382 0.000000 0.000000 0.000000
# 3 0.036663 -0.034382 0.104296 0.000000 0.000000 0.000000
# 4 0.000000 0.000000 0.000000 0.040753 0.000000 0.000000
# 5 0.000000 0.000000 0.000000 0.000000 0.048249 0.000000
# 6 0.000000 0.000000 0.000000 0.000000 0.000000 0.033886
#
#
# Mechanical properties :
#
#
# Convention : Reuss Voigt Hill
#
# Bulk Modulus (GPa) = 7.56962 44.11433 25.84197
# Shear Modulus (GPa) = 14.02397 26.64631 20.33514
#
# Velocity S-wave (km/s) = 2.61968 3.61104 3.15455
# Velocity P-wave (km/s) = 3.58533 6.24290 5.09060
#
# Compressibility (1/GPa) = 0.13210709
#
# Stress axis : x y z
#
# Youngs Moduli (GPa) = 25.76995 56.31478 9.58814
#
# Poissons Ratio (x) = 0.93802 -0.35153
# Poissons Ratio (y) = 0.42924 0.32966
# Poissons Ratio (z) = -0.94480 1.93619
#
# Static dielectric constant tensor:
#      x y z
#    x 1.721630 0.000000 0.000000 
#    y 0.000000 1.763440 0.000000 
#    z 0.000000 0.000000 1.831180 
# 
# From -- ./inp_files/21634.got.cif
#   From: 2010.05.17/outbox.cif.g08.bks.cpg/sg23_11_cif.got.tgz:21634.got - 2010.06.04 12:02:01.
