data_PCOD9331081
_publ_section_title
;
Structure prediction by ZEFSAII (Michael W. Deem and Ramdas Pophale) SiO2 
 PCOD9331081
Probable space group: I 2 2 2
;
_chemical_formula_sum "Si O2"
_cell_formula_units_Z 64
_cell_length_a 8.886480
_cell_length_b 20.337646
_cell_length_c 18.217960
_cell_angle_alpha 90.000000
_cell_angle_beta 90.000000
_cell_angle_gamma 90.000000
_cell_volume 3292.533449
_symmetry_space_group_name_H-M "I 2 2 2"
_symmetry_group_IT_number 23
_symmetry_cell_setting 'orthorhombic'
loop_
_space_group_symop_operation_xyz
x,y,z
-x,-y,z
x,-y,-z
-x,y,-z
1/2+x,1/2+y,1/2+z
1/2-x,1/2-y,1/2+z
1/2+x,1/2-y,1/2-z
1/2-x,1/2+y,1/2-z
loop_
_atom_site_type_symbol
_atom_site_label
_atom_site_fract_x
_atom_site_fract_y
_atom_site_fract_z
Si Si1 0.323793 0.732304 0.839302
Si Si2 0.910414 0.936788 0.187158
Si Si3 0.176777 0.208776 0.021376
Si Si4 0.181017 0.353806 0.772200
Si Si5 0.688985 0.645142 0.295285
Si Si6 0.465612 0.072613 0.815310
Si Si7 0.326230 0.266965 0.884264
Si Si8 0.699718 0.935815 0.052750
O O1 0.205946 0.754212 0.901408
O O2 0.304837 0.791039 0.780838
O O3 0.307195 0.666607 0.790107
O O4 0.494498 0.731532 0.871019
O O5 0.783171 0.912881 0.242586
O O6 0.834039 0.951607 0.109435
O O7 0.021376 0.874317 0.182174
O O8 0.000000 0.000000 0.213840
O O9 0.249180 0.134766 0.019541
O O10 0.273912 0.252765 0.965769
O O11 0.000000 0.205826 0.000000
O O12 0.240496 0.329812 0.849973
O O13 0.016521 0.378346 0.749455
O O14 0.789913 0.584030 0.320681
O O15 0.759084 0.704805 0.340387
O O16 0.556004 0.079688 0.892946
O O17 0.500000 0.000000 0.790938
O O18 0.677724 0.000000 0.000000
#
# Coordination Sequence:
#
# PCOD9331081 Si02
#       8
#     8   8   8   8   8   8   8   8
#     4  11  22  41  61  87 122 163 207 270 316 373
#     4  11  22  39  61  87 124 162 217 253 301 370
#     4  12  26  39  60  93 126 170 210 253 321 381
#     4  10  21  40  60  88 119 158 216 262 304 369
#     4  11  22  38  66  88 116 164 218 266 315 355
#     4  11  23  41  60  89 123 167 215 252 300 370
#     4  11  23  37  63  86 123 164 204 266 321 367
#     4  11  26  41  56  85 137 179 210 242 294 375
#
# _framework density 19.437919000000001
#
# number of rings (size 3 to 8) (size 9 to 14) (size 15 to 20)
#    0.000    1.000    5.000    2.625    7.000    0.250 
#    0.000    0.625    0.000    0.000    0.000    5.250 
#    0.000    0.000    0.000    0.000    0.000    0.000 
#
# Total GULP energy -178497.651751 kJ/mol
# GULP energy per Si atom -5578.051617 kJ/mol
# Density = 1.939368 g / cm^3
# Si number density = 19.437919 Si / 1000 Ang^3
#
#
#
# Elastic Constant Matrix: (Units=GPa)
#
#
# Indices 1 2 3 4 5 6 
#
# 1 96.7507 18.2268 27.4765 0.0000 0.0000 0.0000
# 2 18.2268 63.8335 41.7366 0.0000 0.0000 0.0000
# 3 27.4765 41.7366 75.5381 0.0000 0.0000 0.0000
# 4 0.0000 0.0000 0.0000 43.1341 0.0000 0.0000
# 5 0.0000 0.0000 0.0000 0.0000 18.0345 0.0000
# 6 0.0000 0.0000 0.0000 0.0000 0.0000 29.2659
#
#
#
# Elastic Compliance Matrix: (Units=1/GPa)
#
#
# Indices 1 2 3 4 5 6 
#
# 1 0.011557 -0.000863 -0.003727 0.000000 0.000000 0.000000
# 2 -0.000863 0.024591 -0.013273 0.000000 0.000000 0.000000
# 3 -0.003727 -0.013273 0.021928 0.000000 0.000000 0.000000
# 4 0.000000 0.000000 0.000000 0.023184 0.000000 0.000000
# 5 0.000000 0.000000 0.000000 0.000000 0.055449 0.000000
# 6 0.000000 0.000000 0.000000 0.000000 0.000000 0.034169
#
#
# Mechanical properties :
#
#
# Convention : Reuss Voigt Hill
#
# Bulk Modulus (GPa) = 44.74439 45.66691 45.20565
# Shear Modulus (GPa) = 23.35874 27.99905 25.67889
#
# Velocity S-wave (km/s) = 3.47033 3.79942 3.63860
# Velocity P-wave (km/s) = 6.25513 6.54158 6.39996
#
# Compressibility (1/GPa) = 0.02234917
#
# Stress axis : x y z
#
# Youngs Moduli (GPa) = 86.52879 40.66605 45.60472
#
# Poissons Ratio (x) = 0.03510 0.16996
# Poissons Ratio (y) = 0.07469 0.60531
# Poissons Ratio (z) = 0.32248 0.53976
#
# Static dielectric constant tensor:
#      x y z
#    x 1.742670 0.000000 0.000000 
#    y 0.000000 1.720550 0.000000 
#    z 0.000000 0.000000 1.714420 
# 
# From -- ./inp_files/11399.got.cif
#   From: 2010.05.17/outbox.cif.g08.bks.cpg/sg23_6_cif.got.tgz:11399.got - 2010.06.04 12:02:01.
