data_PCOD9331133
_publ_section_title
;
Structure prediction by ZEFSAII (Michael W. Deem and Ramdas Pophale) SiO2 
 PCOD9331133
Probable space group: I 2 2 2
;
_chemical_formula_sum "Si O2"
_cell_formula_units_Z 46
_cell_length_a 5.463640
_cell_length_b 13.313864
_cell_length_c 25.118309
_cell_angle_alpha 90.000000
_cell_angle_beta 90.000000
_cell_angle_gamma 90.000000
_cell_volume 1827.160050
_symmetry_space_group_name_H-M "I 2 2 2"
_symmetry_group_IT_number 23
_symmetry_cell_setting 'orthorhombic'
loop_
_space_group_symop_operation_xyz
x,y,z
-x,-y,z
x,-y,-z
-x,y,-z
1/2+x,1/2+y,1/2+z
1/2-x,1/2-y,1/2+z
1/2+x,1/2-y,1/2-z
1/2-x,1/2+y,1/2-z
loop_
_atom_site_type_symbol
_atom_site_label
_atom_site_fract_x
_atom_site_fract_y
_atom_site_fract_z
Si Si1 0.909647 0.356200 0.440812
Si Si2 0.500000 0.500000 0.000000
Si Si3 0.543530 0.113401 0.172846
Si Si4 0.950468 0.884651 0.212370
Si Si5 0.818121 0.825929 0.431355
Si Si6 0.000000 0.827879 0.000000
Si Si7 0.743002 0.437318 0.171139
O O1 0.632046 0.386912 0.451990
O O2 0.000000 0.383381 0.500000
O O3 0.061718 0.394528 0.390899
O O4 0.924543 0.235055 0.431072
O O5 0.339665 0.571563 0.036830
O O6 0.278807 0.164459 0.182215
O O7 0.779246 0.159132 0.201960
O O8 0.500000 0.000000 0.194227
O O9 0.853745 0.895097 0.272506
O O10 0.000000 0.000000 0.192618
O O11 0.665089 0.747742 0.465551
O O12 0.723964 0.851544 0.373039
O O13 0.500000 0.500000 0.152655
O O14 0.000000 0.500000 0.175986
#
# Coordination Sequence:
#
# PCOD9331133 Si02
#       7
#     8   2   8   8   8   4   8
#     4  10  23  42  61  91 132 172 209 276 343 392
#     4  12  20  42  56  92 124 180 230 272 324 408
#     4  10  21  40  70  94 122 169 216 263 327 407
#     4   9  19  39  62  94 124 160 213 267 325 384
#     4  11  24  38  60  92 131 173 226 273 334 395
#     4  10  22  41  60  87 140 178 208 278 345 407
#     4  11  23  38  63  95 130 170 221 281 328 389
#
# _framework density 25.175682999999999
#
# number of rings (size 3 to 8) (size 9 to 14) (size 15 to 20)
#    0.000    1.739    3.478    2.609    9.739    0.348 
#    0.000    1.739    0.000    0.000    0.000    0.000 
#    0.000    0.000    0.000    0.000    0.000    0.000 
#
# Total GULP energy -128127.150903 kJ/mol
# GULP energy per Si atom -5570.745691 kJ/mol
# Density = 2.511838 g / cm^3
# Si number density = 25.175683 Si / 1000 Ang^3
#
#
#
# Elastic Constant Matrix: (Units=GPa)
#
#
# Indices 1 2 3 4 5 6 
#
# 1 183.4989 15.8954 68.6253 0.0000 0.0000 0.0000
# 2 15.8954 68.0803 15.8873 0.0000 0.0000 0.0000
# 3 68.6253 15.8873 162.0022 0.0000 0.0000 0.0000
# 4 0.0000 0.0000 0.0000 32.6161 0.0000 0.0000
# 5 0.0000 0.0000 0.0000 0.0000 34.5979 0.0000
# 6 0.0000 0.0000 0.0000 0.0000 0.0000 10.8625
#
#
#
# Elastic Compliance Matrix: (Units=1/GPa)
#
#
# Indices 1 2 3 4 5 6 
#
# 1 0.006529 -0.000900 -0.002677 0.000000 0.000000 0.000000
# 2 -0.000900 0.015157 -0.001105 0.000000 0.000000 0.000000
# 3 -0.002677 -0.001105 0.007415 0.000000 0.000000 0.000000
# 4 0.000000 0.000000 0.000000 0.030660 0.000000 0.000000
# 5 0.000000 0.000000 0.000000 0.000000 0.028904 0.000000
# 6 0.000000 0.000000 0.000000 0.000000 0.000000 0.092060
#
#
# Mechanical properties :
#
#
# Convention : Reuss Voigt Hill
#
# Bulk Modulus (GPa) = 50.66865 68.26637 59.46751
# Shear Modulus (GPa) = 25.42365 36.49351 30.95858
#
# Velocity S-wave (km/s) = 3.18126 3.81143 3.51051
# Velocity P-wave (km/s) = 5.80203 6.82233 6.33276
#
# Compressibility (1/GPa) = 0.01973607
#
# Stress axis : x y z
#
# Youngs Moduli (GPa) = 153.16587 65.97825 134.85549
#
# Poissons Ratio (x) = 0.05935 0.36107
# Poissons Ratio (y) = 0.13778 0.14906
# Poissons Ratio (z) = 0.41010 0.07293
#
# Static dielectric constant tensor:
#      x y z
#    x 2.666640 0.000000 0.000000 
#    y 0.000000 2.027470 0.000000 
#    z 0.000000 0.000000 2.007020 
# 
# From -- ./inp_files/27665.got.cif
#   From: 2010.05.17/outbox.cif.g08.bks.cpg/sg23_14_cif.got.tgz:27665.got - 2010.06.04 12:02:01.
