data_PCOD9331008
_publ_section_title
;
Structure prediction by ZEFSAII (Michael W. Deem and Ramdas Pophale) SiO2 
 PCOD9331008
Probable space group: I 2 2 2
;
_chemical_formula_sum "Si O2"
_cell_formula_units_Z 64
_cell_length_a 12.624996
_cell_length_b 8.412469
_cell_length_c 28.441502
_cell_angle_alpha 90.000000
_cell_angle_beta 90.000000
_cell_angle_gamma 90.000000
_cell_volume 3020.697623
_symmetry_space_group_name_H-M "I 2 2 2"
_symmetry_group_IT_number 23
_symmetry_cell_setting 'orthorhombic'
loop_
_space_group_symop_operation_xyz
x,y,z
-x,-y,z
x,-y,-z
-x,y,-z
1/2+x,1/2+y,1/2+z
1/2-x,1/2-y,1/2+z
1/2+x,1/2-y,1/2-z
1/2-x,1/2+y,1/2-z
loop_
_atom_site_type_symbol
_atom_site_label
_atom_site_fract_x
_atom_site_fract_y
_atom_site_fract_z
Si Si1 0.257772 0.344611 0.212532
Si Si2 0.806110 0.619881 0.044148
Si Si3 0.028022 0.685161 0.823306
Si Si4 0.691955 0.708062 0.809801
Si Si5 0.763447 0.307812 0.087423
Si Si6 0.471981 0.185756 0.216890
Si Si7 0.489943 0.316966 0.423509
Si Si8 0.123478 0.309741 0.495374
O O1 0.152640 0.297916 0.184922
O O2 0.279884 0.528562 0.203780
O O3 0.231484 0.318992 0.267525
O O4 0.357539 0.236788 0.199462
O O5 0.776849 0.498653 0.086098
O O6 0.914019 0.714548 0.054619
O O7 0.705551 0.730595 0.032281
O O8 0.819434 0.500000 0.000000
O O9 0.996245 0.790058 0.867322
O O10 0.000000 0.500000 0.833512
O O11 0.976408 0.725124 0.772853
O O12 0.743551 0.746849 0.859612
O O13 0.565177 0.723599 0.809921
O O14 0.871805 0.240577 0.065153
O O15 0.667939 0.250625 0.054599
O O16 0.500000 0.000000 0.213206
O O17 0.500000 0.500000 0.436530
O O18 0.130351 0.500000 0.500000
O O19 0.000000 0.263416 0.500000
#
# Coordination Sequence:
#
# PCOD9331008 Si02
#       8
#     8   8   8   8   8   8   8   8
#     4  11  21  38  63  88 129 181 220 271 336 391
#     4  10  23  43  68  94 126 169 209 263 328 399
#     4  10  21  39  62  86 128 171 215 264 322 392
#     4  11  23  40  61  94 129 177 225 276 325 396
#     4  11  24  43  67  96 131 171 225 271 324 411
#     4  10  22  40  58  87 126 174 222 272 327 387
#     4  12  24  38  62 101 131 159 212 268 326 382
#     4  10  23  48  73  98 130 169 212 272 351 399
#
# _framework density 21.187158
#
# number of rings (size 3 to 8) (size 9 to 14) (size 15 to 20)
#    0.000    1.375    0.000    6.750    0.000   10.750 
#    9.000    4.375    0.000    0.000    0.000    0.000 
#    0.000    0.000    0.000    0.000    0.000    0.000 
#
# Total GULP energy -179007.006567 kJ/mol
# GULP energy per Si atom -5593.968955 kJ/mol
# Density = 2.113893 g / cm^3
# Si number density = 21.187158 Si / 1000 Ang^3
#
#
#
# Elastic Constant Matrix: (Units=GPa)
#
#
# Indices 1 2 3 4 5 6 
#
# 1 190.6358 51.7977 34.7385 0.0000 0.0000 0.0000
# 2 51.7977 72.0434 17.9426 0.0000 0.0000 0.0000
# 3 34.7385 17.9426 58.1210 0.0000 0.0000 0.0000
# 4 0.0000 0.0000 0.0000 17.9981 0.0000 0.0000
# 5 0.0000 0.0000 0.0000 0.0000 22.9358 0.0000
# 6 0.0000 0.0000 0.0000 0.0000 0.0000 39.7215
#
#
#
# Elastic Compliance Matrix: (Units=1/GPa)
#
#
# Indices 1 2 3 4 5 6 
#
# 1 0.006920 -0.004274 -0.002817 0.000000 0.000000 0.000000
# 2 -0.004274 0.017676 -0.002902 0.000000 0.000000 0.000000
# 3 -0.002817 -0.002902 0.019785 0.000000 0.000000 0.000000
# 4 0.000000 0.000000 0.000000 0.055561 0.000000 0.000000
# 5 0.000000 0.000000 0.000000 0.000000 0.043600 0.000000
# 6 0.000000 0.000000 0.000000 0.000000 0.000000 0.025175
#
#
# Mechanical properties :
#
#
# Convention : Reuss Voigt Hill
#
# Bulk Modulus (GPa) = 40.99138 58.86198 49.92668
# Shear Modulus (GPa) = 25.40189 30.55252 27.97720
#
# Velocity S-wave (km/s) = 3.46631 3.80153 3.63778
# Velocity P-wave (km/s) = 5.95060 6.86375 6.42342
#
# Compressibility (1/GPa) = 0.02439537
#
# Stress axis : x y z
#
# Youngs Moduli (GPa) = 144.50557 56.57316 50.54332
#
# Poissons Ratio (x) = 0.24179 0.14237
# Poissons Ratio (y) = 0.61761 0.14670
# Poissons Ratio (z) = 0.40703 0.16420
#
# Static dielectric constant tensor:
#      x y z
#    x 1.766320 0.000000 0.000000 
#    y 0.000000 1.750820 0.000000 
#    z 0.000000 0.000000 1.775750 
# 
# From -- ./inp_files/30468.got.cif
#   From: 2010.05.17/outbox.cif.g08.bks.cpg/sg23_16_cif.got.tgz:30468.got - 2010.06.04 12:02:01.
