data_PCOD9331681
_publ_section_title
;
Structure prediction by ZEFSAII (Michael W. Deem and Ramdas Pophale) SiO2 
 PCOD9331681
Probable space group: I 2 2 2
;
_chemical_formula_sum "Si O2"
_cell_formula_units_Z 56
_cell_length_a 11.821786
_cell_length_b 12.334131
_cell_length_c 18.813588
_cell_angle_alpha 90.000000
_cell_angle_beta 90.000000
_cell_angle_gamma 90.000000
_cell_volume 2743.236681
_symmetry_space_group_name_H-M "I 2 2 2"
_symmetry_group_IT_number 23
_symmetry_cell_setting 'orthorhombic'
loop_
_space_group_symop_operation_xyz
x,y,z
-x,-y,z
x,-y,-z
-x,y,-z
1/2+x,1/2+y,1/2+z
1/2-x,1/2-y,1/2+z
1/2+x,1/2-y,1/2-z
1/2-x,1/2+y,1/2-z
loop_
_atom_site_type_symbol
_atom_site_label
_atom_site_fract_x
_atom_site_fract_y
_atom_site_fract_z
Si Si1 0.239994 0.612167 0.921501
Si Si2 0.330019 0.326240 0.655690
Si Si3 0.299887 0.879131 0.585945
Si Si4 0.760560 0.060365 0.161242
Si Si5 0.415844 0.600408 0.800273
Si Si6 0.875575 0.756925 0.312080
Si Si7 0.052569 0.828472 0.077809
O O1 0.195432 0.728521 0.897299
O O2 0.167594 0.504708 0.901271
O O3 0.351364 0.592929 0.874962
O O4 0.249456 0.619167 0.006013
O O5 0.251484 0.431690 0.654757
O O6 0.327808 0.276895 0.733585
O O7 0.456986 0.360774 0.634583
O O8 0.201788 0.833715 0.637503
O O9 0.404346 0.795352 0.588020
O O10 0.830368 0.090459 0.233646
O O11 0.649259 0.134171 0.164544
O O12 0.837274 0.101051 0.095450
O O13 0.500000 0.500000 0.792322
O O14 0.494731 0.706387 0.806066
O O15 0.000000 0.843635 0.000000
#
# Coordination Sequence:
#
# PCOD9331681 Si02
#       7
#     8   8   8   8   8   8   8
#     4  11  23  40  64  91 131 169 206 263 326 385
#     4  12  22  39  64  92 128 171 210 257 327 385
#     4  10  23  42  61  96 131 163 210 269 321 378
#     4  11  23  39  64  93 131 166 216 272 315 389
#     4  12  20  39  67  92 120 168 220 265 317 390
#     4  11  23  40  62  92 127 161 213 271 315 375
#     4  11  22  40  64  96 125 171 212 262 323 381
#
# _framework density 20.413841000000001
#
# number of rings (size 3 to 8) (size 9 to 14) (size 15 to 20)
#    0.000    0.857    7.143    0.429    0.000    2.286 
#    0.000    0.714    3.143    0.000    0.000    2.000 
#    0.000    0.000    0.000    0.000    0.000    0.000 
#
# Total GULP energy -156305.580020 kJ/mol
# GULP energy per Si atom -5582.342144 kJ/mol
# Density = 2.036738 g / cm^3
# Si number density = 20.413841 Si / 1000 Ang^3
#
#
#
# Elastic Constant Matrix: (Units=GPa)
#
#
# Indices 1 2 3 4 5 6 
#
# 1 20.3427 13.2465 8.6405 0.0000 0.0000 0.0000
# 2 13.2465 113.8200 22.2593 0.0000 0.0000 0.0000
# 3 8.6405 22.2593 78.8877 0.0000 0.0000 0.0000
# 4 0.0000 0.0000 0.0000 25.6885 0.0000 0.0000
# 5 0.0000 0.0000 0.0000 0.0000 28.0228 0.0000
# 6 0.0000 0.0000 0.0000 0.0000 0.0000 29.5833
#
#
#
# Elastic Compliance Matrix: (Units=1/GPa)
#
#
# Indices 1 2 3 4 5 6 
#
# 1 0.054615 -0.005489 -0.004433 0.000000 0.000000 0.000000
# 2 -0.005489 0.009851 -0.002178 0.000000 0.000000 0.000000
# 3 -0.004433 -0.002178 0.013776 0.000000 0.000000 0.000000
# 4 0.000000 0.000000 0.000000 0.038928 0.000000 0.000000
# 5 0.000000 0.000000 0.000000 0.000000 0.035685 0.000000
# 6 0.000000 0.000000 0.000000 0.000000 0.000000 0.033803
#
#
# Mechanical properties :
#
#
# Convention : Reuss Voigt Hill
#
# Bulk Modulus (GPa) = 18.50447 33.48255 25.99351
# Shear Modulus (GPa) = 21.84620 27.91920 24.88270
#
# Velocity S-wave (km/s) = 3.27489 3.70220 3.49508
# Velocity P-wave (km/s) = 4.83572 5.89174 5.38965
#
# Compressibility (1/GPa) = 0.05404099
#
# Stress axis : x y z
#
# Youngs Moduli (GPa) = 18.30999 101.51625 72.58781
#
# Poissons Ratio (x) = 0.55724 0.32178
# Poissons Ratio (y) = 0.10051 0.15812
# Poissons Ratio (z) = 0.08117 0.22113
#
# Static dielectric constant tensor:
#      x y z
#    x 1.758610 0.000000 0.000000 
#    y 0.000000 1.795480 0.000000 
#    z 0.000000 0.000000 1.712740 
# 
# From -- ./inp_files/26714.got.cif
#   From: 2010.05.17/outbox.cif.g08.bks.cpg/sg23_14_cif.got.tgz:26714.got - 2010.06.04 12:02:01.
