data_PCOD9331324
_publ_section_title
;
Structure prediction by ZEFSAII (Michael W. Deem and Ramdas Pophale) SiO2 
 PCOD9331324
Probable space group: I 2 2 2
;
_chemical_formula_sum "Si O2"
_cell_formula_units_Z 56
_cell_length_a 16.390416
_cell_length_b 14.023788
_cell_length_c 12.019170
_cell_angle_alpha 90.000000
_cell_angle_beta 90.000000
_cell_angle_gamma 90.000000
_cell_volume 2762.674965
_symmetry_space_group_name_H-M "I 2 2 2"
_symmetry_group_IT_number 23
_symmetry_cell_setting 'orthorhombic'
loop_
_space_group_symop_operation_xyz
x,y,z
-x,-y,z
x,-y,-z
-x,y,-z
1/2+x,1/2+y,1/2+z
1/2-x,1/2-y,1/2+z
1/2+x,1/2-y,1/2-z
1/2-x,1/2+y,1/2-z
loop_
_atom_site_type_symbol
_atom_site_label
_atom_site_fract_x
_atom_site_fract_y
_atom_site_fract_z
Si Si1 0.831942 0.171437 0.867281
Si Si2 0.103590 0.781047 0.105798
Si Si3 0.216823 0.319018 0.311537
Si Si4 0.016436 0.892790 0.734361
Si Si5 0.537065 0.903294 0.288548
Si Si6 0.450009 0.787757 0.104696
Si Si7 0.819252 0.529718 0.624346
O O1 0.806759 0.268468 0.804251
O O2 0.753484 0.105916 0.889984
O O3 0.893454 0.116306 0.785847
O O4 0.882537 0.192950 0.978212
O O5 0.193772 0.783474 0.157817
O O6 0.047434 0.856259 0.172249
O O7 0.065557 0.676913 0.125715
O O8 0.147638 0.284929 0.400534
O O9 0.214336 0.433254 0.318054
O O10 0.013924 0.815149 0.636549
O O11 0.000000 0.000000 0.700100
O O12 0.468969 0.854939 0.209880
O O13 0.610790 0.928453 0.203738
O O14 0.500000 0.000000 0.336781
O O15 0.500000 0.824484 0.000000
O O16 0.848470 0.500000 0.500000
#
# Coordination Sequence:
#
# PCOD9331324 Si02
#       7
#     8   8   8   8   8   8   8
#     4  11  24  41  64  92 128 165 213 271 327 391
#     4  11  23  42  65  91 128 172 214 270 336 393
#     4  11  22  39  62  96 128 159 215 273 326 390
#     4  10  23  40  61  90 123 164 219 268 321 403
#     4  11  23  40  64  95 133 170 221 269 327 405
#     4  10  22  38  62  92 130 168 210 276 339 394
#     4  12  22  37  68  98 122 168 214 269 323 389
#
# _framework density 20.270209000000001
#
# number of rings (size 3 to 8) (size 9 to 14) (size 15 to 20)
#    0.000    1.143    4.286    2.143    0.000    0.857 
#    0.000    0.714    6.286    1.714    0.000    0.000 
#    0.000    0.000    0.000    0.000    0.000    0.000 
#
# Total GULP energy -156496.895144 kJ/mol
# GULP energy per Si atom -5589.174827 kJ/mol
# Density = 2.022407 g / cm^3
# Si number density = 20.270209 Si / 1000 Ang^3
#
#
#
# Elastic Constant Matrix: (Units=GPa)
#
#
# Indices 1 2 3 4 5 6 
#
# 1 81.5418 12.1422 1.4679 0.0000 0.0000 0.0000
# 2 12.1422 134.8565 8.2618 0.0000 0.0000 0.0000
# 3 1.4679 8.2618 31.6044 0.0000 0.0000 0.0000
# 4 0.0000 0.0000 0.0000 16.8035 0.0000 0.0000
# 5 0.0000 0.0000 0.0000 0.0000 23.2715 0.0000
# 6 0.0000 0.0000 0.0000 0.0000 0.0000 38.1223
#
#
#
# Elastic Compliance Matrix: (Units=1/GPa)
#
#
# Indices 1 2 3 4 5 6 
#
# 1 0.012433 -0.001102 -0.000289 0.000000 0.000000 0.000000
# 2 -0.001102 0.007634 -0.001944 0.000000 0.000000 0.000000
# 3 -0.000289 -0.001944 0.032163 0.000000 0.000000 0.000000
# 4 0.000000 0.000000 0.000000 0.059511 0.000000 0.000000
# 5 0.000000 0.000000 0.000000 0.000000 0.042971 0.000000
# 6 0.000000 0.000000 0.000000 0.000000 0.000000 0.026231
#
#
# Mechanical properties :
#
#
# Convention : Reuss Voigt Hill
#
# Bulk Modulus (GPa) = 21.94988 32.41629 27.18308
# Shear Modulus (GPa) = 24.65479 30.71485 27.68482
#
# Velocity S-wave (km/s) = 3.49134 3.89687 3.69967
# Velocity P-wave (km/s) = 5.20622 6.02281 5.62935
#
# Compressibility (1/GPa) = 0.04555834
#
# Stress axis : x y z
#
# Youngs Moduli (GPa) = 80.43170 130.99980 31.09177
#
# Poissons Ratio (x) = 0.14432 0.00900
# Poissons Ratio (y) = 0.08861 0.06045
# Poissons Ratio (z) = 0.02328 0.25471
#
# Static dielectric constant tensor:
#      x y z
#    x 1.726070 0.000000 0.000000 
#    y 0.000000 1.719240 0.000000 
#    z 0.000000 0.000000 1.722210 
# 
# From -- ./inp_files/16795.got.cif
#   From: 2010.05.17/outbox.cif.g08.bks.cpg/sg23_9_cif.got.tgz:16795.got - 2010.06.04 12:02:01.
