data_PCOD9331054
_publ_section_title
;
Structure prediction by ZEFSAII (Michael W. Deem and Ramdas Pophale) SiO2 
 PCOD9331054
Probable space group: I 2 2 2
;
_chemical_formula_sum "Si O2"
_cell_formula_units_Z 38
_cell_length_a 15.564432
_cell_length_b 7.479677
_cell_length_c 13.959248
_cell_angle_alpha 90.000000
_cell_angle_beta 90.000000
_cell_angle_gamma 90.000000
_cell_volume 1625.092714
_symmetry_space_group_name_H-M "I 2 2 2"
_symmetry_group_IT_number 23
_symmetry_cell_setting 'orthorhombic'
loop_
_space_group_symop_operation_xyz
x,y,z
-x,-y,z
x,-y,-z
-x,y,-z
1/2+x,1/2+y,1/2+z
1/2-x,1/2-y,1/2+z
1/2+x,1/2-y,1/2-z
1/2-x,1/2+y,1/2-z
loop_
_atom_site_type_symbol
_atom_site_label
_atom_site_fract_x
_atom_site_fract_y
_atom_site_fract_z
Si Si1 0.000000 0.500000 0.185276
Si Si2 0.628380 0.776949 0.592369
Si Si3 0.313717 0.707299 0.002839
Si Si4 0.000000 0.000000 0.000000
Si Si5 0.628797 0.215563 0.803031
Si Si6 0.804448 0.123696 0.712848
O O1 0.076079 0.455050 0.111589
O O2 0.039726 0.653394 0.254917
O O3 0.713743 0.786515 0.529111
O O4 0.562603 0.628584 0.557488
O O5 0.654608 0.719977 0.698118
O O6 0.317025 0.739917 0.116264
O O7 0.342476 0.500000 0.000000
O O8 0.362881 0.814081 0.918599
O O9 0.704498 0.116236 0.743871
O O10 0.653883 0.426118 0.794078
#
# Coordination Sequence:
#
# PCOD9331054 Si02
#       6
#     4   8   8   2   8   8
#     4  12  24  43  65  98 142 176 214 288 346 392
#     4  11  26  41  64  99 135 176 219 281 337 397
#     4   9  20  40  68  93 124 178 226 265 318 402
#     4  12  28  42  64 104 138 172 216 288 344 398
#     4  10  21  39  66  98 133 176 226 272 338 399
#     4  10  21  43  66  94 133 180 227 273 328 409
#
# _framework density 23.383279999999999
#
# number of rings (size 3 to 8) (size 9 to 14) (size 15 to 20)
#    0.000    1.684    0.000    5.053    8.842    0.000 
#    0.000    2.105    0.000    3.789    0.000    0.000 
#    0.000    0.000    0.000    0.000    0.000    0.000 
#
# Total GULP energy -106102.006982 kJ/mol
# GULP energy per Si atom -5584.316157 kJ/mol
# Density = 2.333006 g / cm^3
# Si number density = 23.383280 Si / 1000 Ang^3
#
#
#
# Elastic Constant Matrix: (Units=GPa)
#
#
# Indices 1 2 3 4 5 6 
#
# 1 53.2326 0.0756 24.1380 0.0000 0.0000 0.0000
# 2 0.0756 58.3666 21.3162 0.0000 0.0000 0.0000
# 3 24.1380 21.3162 147.4430 0.0000 0.0000 0.0000
# 4 0.0000 0.0000 0.0000 38.3615 0.0000 0.0000
# 5 0.0000 0.0000 0.0000 0.0000 4.7857 0.0000
# 6 0.0000 0.0000 0.0000 0.0000 0.0000 159.2779
#
#
#
# Elastic Compliance Matrix: (Units=1/GPa)
#
#
# Indices 1 2 3 4 5 6 
#
# 1 0.020379 0.001258 -0.003518 0.000000 0.000000 0.000000
# 2 0.001258 0.018166 -0.002832 0.000000 0.000000 0.000000
# 3 -0.003518 -0.002832 0.007768 0.000000 0.000000 0.000000
# 4 0.000000 0.000000 0.000000 0.026068 0.000000 0.000000
# 5 0.000000 0.000000 0.000000 0.000000 0.208957 0.000000
# 6 0.000000 0.000000 0.000000 0.000000 0.000000 0.006278
#
#
# Mechanical properties :
#
#
# Convention : Reuss Voigt Hill
#
# Bulk Modulus (GPa) = 27.67895 38.90019 33.28957
# Shear Modulus (GPa) = 16.13721 54.71918 35.42820
#
# Velocity S-wave (km/s) = 2.62986 4.84270 3.89666
# Velocity P-wave (km/s) = 4.59177 6.92395 5.87475
#
# Compressibility (1/GPa) = 0.03612854
#
# Stress axis : x y z
#
# Youngs Moduli (GPa) = 49.07013 55.04832 128.73790
#
# Poissons Ratio (x) = -0.06928 0.45293
# Poissons Ratio (y) = -0.06175 0.36462
# Poissons Ratio (z) = 0.17264 0.15591
#
# Static dielectric constant tensor:
#      x y z
#    x 1.917720 0.000000 0.000000 
#    y 0.000000 1.993560 0.000000 
#    z 0.000000 0.000000 1.877960 
# 
# From -- ./inp_files/17274.got.cif
#   From: 2010.05.17/outbox.cif.g08.bks.cpg/sg23_9_cif.got.tgz:17274.got - 2010.06.04 12:02:01.
