data_PCOD9331571
_publ_section_title
;
Structure prediction by ZEFSAII (Michael W. Deem and Ramdas Pophale) SiO2 
 PCOD9331571
Probable space group: I 2 2 2
;
_chemical_formula_sum "Si O2"
_cell_formula_units_Z 44
_cell_length_a 14.514861
_cell_length_b 17.352203
_cell_length_c 7.808074
_cell_angle_alpha 90.000000
_cell_angle_beta 90.000000
_cell_angle_gamma 90.000000
_cell_volume 1966.579110
_symmetry_space_group_name_H-M "I 2 2 2"
_symmetry_group_IT_number 23
_symmetry_cell_setting 'orthorhombic'
loop_
_space_group_symop_operation_xyz
x,y,z
-x,-y,z
x,-y,-z
-x,y,-z
1/2+x,1/2+y,1/2+z
1/2-x,1/2-y,1/2+z
1/2+x,1/2-y,1/2-z
1/2-x,1/2+y,1/2-z
loop_
_atom_site_type_symbol
_atom_site_label
_atom_site_fract_x
_atom_site_fract_y
_atom_site_fract_z
Si Si1 0.843468 0.500000 0.500000
Si Si2 0.500000 0.359878 0.500000
Si Si3 0.739989 0.195256 0.664146
Si Si4 0.089895 0.642989 0.909181
Si Si5 0.209729 0.135097 0.958391
Si Si6 0.435145 0.273207 0.841885
Si Si7 0.500000 0.000000 0.759251
O O1 0.777376 0.564025 0.414330
O O2 0.918578 0.461260 0.372002
O O3 0.396307 0.394321 0.474057
O O4 0.482210 0.318021 0.684256
O O5 0.670842 0.148088 0.544689
O O6 0.751119 0.165709 0.857893
O O7 0.708274 0.285044 0.650120
O O8 0.843285 0.185297 0.592660
O O9 0.104026 0.695625 0.744224
O O10 0.057016 0.560687 0.848245
O O11 0.000000 0.677831 0.000000
O O12 0.500000 0.257121 0.000000
#
# Coordination Sequence:
#
# PCOD9331571 Si02
#       7
#     4   4   8   8   8   8   4
#     4  11  26  43  68 102 152 191 254 303 390 464
#     4  10  22  45  64 103 134 178 246 304 368 429
#     4  11  23  40  69 101 136 189 251 307 366 448
#     4  12  23  41  65  97 145 189 240 300 362 448
#     4  11  24  44  69 104 142 193 253 315 381 453
#     4  11  24  37  68 101 137 183 236 308 364 429
#     4  11  27  42  60 106 146 204 236 301 391 444
#
# _framework density 22.373877
#
# number of rings (size 3 to 8) (size 9 to 14) (size 15 to 20)
#    0.000    0.909    4.545    2.455   10.182    0.364 
#    0.000    0.000    0.000    0.000    0.000    1.273 
#    0.000    0.000    0.000    0.000    0.000    0.000 
#
# Total GULP energy -122700.074420 kJ/mol
# GULP energy per Si atom -5577.276110 kJ/mol
# Density = 2.232295 g / cm^3
# Si number density = 22.373877 Si / 1000 Ang^3
#
#
#
# Elastic Constant Matrix: (Units=GPa)
#
#
# Indices 1 2 3 4 5 6 
#
# 1 187.8551 45.2269 55.1601 0.0000 0.0000 0.0000
# 2 45.2269 54.8347 10.0935 0.0000 0.0000 0.0000
# 3 55.1601 10.0935 79.2634 0.0000 0.0000 0.0000
# 4 0.0000 0.0000 0.0000 24.5831 0.0000 0.0000
# 5 0.0000 0.0000 0.0000 0.0000 53.8544 0.0000
# 6 0.0000 0.0000 0.0000 0.0000 0.0000 35.5331
#
#
#
# Elastic Compliance Matrix: (Units=1/GPa)
#
#
# Indices 1 2 3 4 5 6 
#
# 1 0.008182 -0.005837 -0.004951 0.000000 0.000000 0.000000
# 2 -0.005837 0.022839 0.001154 0.000000 0.000000 0.000000
# 3 -0.004951 0.001154 0.015915 0.000000 0.000000 0.000000
# 4 0.000000 0.000000 0.000000 0.040678 0.000000 0.000000
# 5 0.000000 0.000000 0.000000 0.000000 0.018569 0.000000
# 6 0.000000 0.000000 0.000000 0.000000 0.000000 0.028143
#
#
# Mechanical properties :
#
#
# Convention : Reuss Voigt Hill
#
# Bulk Modulus (GPa) = 36.14390 60.32381 48.23385
# Shear Modulus (GPa) = 30.70945 36.89230 33.80088
#
# Velocity S-wave (km/s) = 3.70882 4.06507 3.89103
# Velocity P-wave (km/s) = 5.87623 7.00381 6.46465
#
# Compressibility (1/GPa) = 0.02766719
#
# Stress axis : x y z
#
# Youngs Moduli (GPa) = 122.21442 43.78510 62.83566
#
# Poissons Ratio (x) = 0.25559 0.31109
# Poissons Ratio (y) = 0.71341 -0.07251
# Poissons Ratio (z) = 0.60506 -0.05053
#
# Static dielectric constant tensor:
#      x y z
#    x 1.899530 0.000000 0.000000 
#    y 0.000000 1.968740 0.000000 
#    z 0.000000 0.000000 1.901110 
# 
# From -- ./inp_files/9869.got.cif
#   From: 2010.05.17/outbox.cif.g08.bks.cpg/sg23_5_cif.got.tgz:9869.got - 2010.06.04 12:02:01.
