data_PCOD9331161
_publ_section_title
;
Structure prediction by ZEFSAII (Michael W. Deem and Ramdas Pophale) SiO2 
 PCOD9331161
Probable space group: I 2 2 2
;
_chemical_formula_sum "Si O2"
_cell_formula_units_Z 52
_cell_length_a 17.628468
_cell_length_b 9.131141
_cell_length_c 16.085300
_cell_angle_alpha 90.000000
_cell_angle_beta 90.000000
_cell_angle_gamma 90.000000
_cell_volume 2589.219003
_symmetry_space_group_name_H-M "I 2 2 2"
_symmetry_group_IT_number 23
_symmetry_cell_setting 'orthorhombic'
loop_
_space_group_symop_operation_xyz
x,y,z
-x,-y,z
x,-y,-z
-x,y,-z
1/2+x,1/2+y,1/2+z
1/2-x,1/2-y,1/2+z
1/2+x,1/2-y,1/2-z
1/2-x,1/2+y,1/2-z
loop_
_atom_site_type_symbol
_atom_site_label
_atom_site_fract_x
_atom_site_fract_y
_atom_site_fract_z
Si Si1 0.173062 0.653835 0.587977
Si Si2 0.689890 0.500000 0.500000
Si Si3 0.141597 0.526227 0.129938
Si Si4 0.427907 0.715268 0.942573
Si Si5 0.412107 0.225880 0.522787
Si Si6 0.577411 0.065013 0.798063
Si Si7 0.803620 0.986076 0.403180
O O1 0.252278 0.577071 0.564785
O O2 0.126791 0.687275 0.502275
O O3 0.125679 0.552978 0.649737
O O4 0.183582 0.818426 0.621401
O O5 0.635908 0.626738 0.536522
O O6 0.128170 0.640642 0.054597
O O7 0.122258 0.606122 0.215620
O O8 0.227171 0.464580 0.140913
O O9 0.092971 0.385521 0.100607
O O10 0.447334 0.812623 0.863670
O O11 0.379991 0.580447 0.905178
O O12 0.500000 0.676801 0.000000
O O13 0.500000 0.252675 0.500000
O O14 0.500000 0.000000 0.764783
O O15 0.780608 0.000000 0.500000
#
# Coordination Sequence:
#
# PCOD9331161 Si02
#       7
#     8   4   8   8   8   8   8
#     4  11  22  39  62  90 128 168 215 270 330 390
#     4  12  21  40  67  98 124 166 222 276 331 410
#     4  11  22  42  67  91 130 170 227 263 334 405
#     4  11  22  41  65  96 134 174 221 270 331 398
#     4  11  22  42  66  92 123 169 213 278 335 398
#     4  12  24  39  62  96 132 176 219 275 331 393
#     4  10  21  41  65  96 124 174 224 271 329 399
#
# _framework density 20.083276999999999
#
# number of rings (size 3 to 8) (size 9 to 14) (size 15 to 20)
#    0.000    0.923    6.154    3.000    0.000    4.000 
#    0.000    0.000    0.000    0.000    0.000    0.000 
#    0.000    0.000    0.000    0.000    0.000    0.000 
#
# Total GULP energy -144987.059961 kJ/mol
# GULP energy per Si atom -5576.425383 kJ/mol
# Density = 2.003757 g / cm^3
# Si number density = 20.083277 Si / 1000 Ang^3
#
#
#
# Elastic Constant Matrix: (Units=GPa)
#
#
# Indices 1 2 3 4 5 6 
#
# 1 124.6035 40.6103 8.7232 0.0000 0.0000 0.0000
# 2 40.6103 89.8493 14.4553 0.0000 0.0000 0.0000
# 3 8.7232 14.4553 53.8561 0.0000 0.0000 0.0000
# 4 0.0000 0.0000 0.0000 4.8972 0.0000 0.0000
# 5 0.0000 0.0000 0.0000 0.0000 24.3167 0.0000
# 6 0.0000 0.0000 0.0000 0.0000 0.0000 21.7896
#
#
#
# Elastic Compliance Matrix: (Units=1/GPa)
#
#
# Indices 1 2 3 4 5 6 
#
# 1 0.009420 -0.004193 -0.000400 0.000000 0.000000 0.000000
# 2 -0.004193 0.013499 -0.002944 0.000000 0.000000 0.000000
# 3 -0.000400 -0.002944 0.019423 0.000000 0.000000 0.000000
# 4 0.000000 0.000000 0.000000 0.204197 0.000000 0.000000
# 5 0.000000 0.000000 0.000000 0.000000 0.041124 0.000000
# 6 0.000000 0.000000 0.000000 0.000000 0.000000 0.045893
#
#
# Mechanical properties :
#
#
# Convention : Reuss Voigt Hill
#
# Bulk Modulus (GPa) = 36.67471 43.98739 40.33105
# Shear Modulus (GPa) = 13.97738 23.83537 18.90638
#
# Velocity S-wave (km/s) = 2.64099 3.44877 3.07155
# Velocity P-wave (km/s) = 5.25364 6.14888 5.71881
#
# Compressibility (1/GPa) = 0.02726674
#
# Stress axis : x y z
#
# Youngs Moduli (GPa) = 106.15528 74.08119 51.48534
#
# Poissons Ratio (x) = 0.31065 0.02061
# Poissons Ratio (y) = 0.44515 0.15157
# Poissons Ratio (z) = 0.04249 0.21809
#
# Static dielectric constant tensor:
#      x y z
#    x 1.765080 0.000000 0.000000 
#    y 0.000000 1.742880 0.000000 
#    z 0.000000 0.000000 1.695050 
# 
# From -- ./inp_files/25046.got.cif
#   From: 2010.05.17/outbox.cif.g08.bks.cpg/sg23_13_cif.got.tgz:25046.got - 2010.06.04 12:02:01.
