data_PCOD9331562
_publ_section_title
;
Structure prediction by ZEFSAII (Michael W. Deem and Ramdas Pophale) SiO2 
 PCOD9331562
Probable space group: I 2 2 2
;
_chemical_formula_sum "Si O2"
_cell_formula_units_Z 64
_cell_length_a 17.627695
_cell_length_b 10.732059
_cell_length_c 16.832003
_cell_angle_alpha 90.000000
_cell_angle_beta 90.000000
_cell_angle_gamma 90.000000
_cell_volume 3184.302949
_symmetry_space_group_name_H-M "I 2 2 2"
_symmetry_group_IT_number 23
_symmetry_cell_setting 'orthorhombic'
loop_
_space_group_symop_operation_xyz
x,y,z
-x,-y,z
x,-y,-z
-x,y,-z
1/2+x,1/2+y,1/2+z
1/2-x,1/2-y,1/2+z
1/2+x,1/2-y,1/2-z
1/2-x,1/2+y,1/2-z
loop_
_atom_site_type_symbol
_atom_site_label
_atom_site_fract_x
_atom_site_fract_y
_atom_site_fract_z
Si Si1 0.411350 0.859422 0.016835
Si Si2 0.274337 0.353698 0.256749
Si Si3 0.368696 0.730521 0.171648
Si Si4 0.792113 0.226900 0.410864
Si Si5 0.141597 0.864024 0.959981
Si Si6 0.248125 0.539487 0.131544
Si Si7 0.619449 0.760844 0.378167
Si Si8 0.971618 0.142265 0.811699
O O1 0.399586 0.827367 0.108474
O O2 0.500000 0.850357 0.000000
O O3 0.364223 0.764607 0.961942
O O4 0.384980 0.000000 0.000000
O O5 0.192439 0.297097 0.272454
O O6 0.310451 0.275881 0.183442
O O7 0.262665 0.490434 0.221744
O O8 0.324228 0.338326 0.334650
O O9 0.318317 0.632593 0.120644
O O10 0.432367 0.673361 0.228008
O O11 0.725355 0.320649 0.434836
O O12 0.758234 0.085970 0.420124
O O13 0.088739 0.854479 0.883249
O O14 0.112021 0.773818 0.029919
O O15 0.140674 0.000000 0.000000
O O16 0.168309 0.611301 0.126882
O O17 0.539765 0.737678 0.334124
O O18 0.000000 0.000000 0.808702
#
# Coordination Sequence:
#
# PCOD9331562 Si02
#       8
#     8   8   8   8   8   8   8   8
#     4  11  27  47  68 103 139 182 229 292 354 423
#     4   9  21  42  64  99 129 177 227 286 339 423
#     4  11  23  44  69  97 134 178 233 282 356 424
#     4  10  22  44  69  96 136 180 237 289 354 418
#     4  12  24  40  65 100 137 188 230 288 345 422
#     4   9  22  42  66  99 131 171 233 297 332 429
#     4  11  23  37  67  98 135 178 229 285 359 404
#     4  12  24  42  65 103 144 181 231 293 352 424
#
# _framework density 20.098590000000002
#
# number of rings (size 3 to 8) (size 9 to 14) (size 15 to 20)
#    0.750    0.625    2.500    3.000    1.750    4.000 
#    2.250    2.500    0.000    3.000    0.000    0.000 
#    0.000    0.000    0.000    0.000    0.000    0.000 
#
# Total GULP energy -178552.831504 kJ/mol
# GULP energy per Si atom -5579.775985 kJ/mol
# Density = 2.005284 g / cm^3
# Si number density = 20.098590 Si / 1000 Ang^3
#
#
#
# Elastic Constant Matrix: (Units=GPa)
#
#
# Indices 1 2 3 4 5 6 
#
# 1 91.0981 40.5005 24.8202 0.0000 0.0000 0.0000
# 2 40.5005 91.8496 30.6887 0.0000 0.0000 0.0000
# 3 24.8202 30.6887 102.1339 0.0000 0.0000 0.0000
# 4 0.0000 0.0000 0.0000 34.5623 0.0000 0.0000
# 5 0.0000 0.0000 0.0000 0.0000 25.5270 0.0000
# 6 0.0000 0.0000 0.0000 0.0000 0.0000 18.2151
#
#
#
# Elastic Compliance Matrix: (Units=1/GPa)
#
#
# Indices 1 2 3 4 5 6 
#
# 1 0.013917 -0.005565 -0.001710 0.000000 0.000000 0.000000
# 2 -0.005565 0.014328 -0.002953 0.000000 0.000000 0.000000
# 3 -0.001710 -0.002953 0.011094 0.000000 0.000000 0.000000
# 4 0.000000 0.000000 0.000000 0.028933 0.000000 0.000000
# 5 0.000000 0.000000 0.000000 0.000000 0.039174 0.000000
# 6 0.000000 0.000000 0.000000 0.000000 0.000000 0.054899
#
#
# Mechanical properties :
#
#
# Convention : Reuss Voigt Hill
#
# Bulk Modulus (GPa) = 52.95748 53.01114 52.98431
# Shear Modulus (GPa) = 26.44154 28.26571 27.35362
#
# Velocity S-wave (km/s) = 3.63104 3.75421 3.69314
# Velocity P-wave (km/s) = 6.63215 6.72495 6.67871
#
# Compressibility (1/GPa) = 0.01888308
#
# Stress axis : x y z
#
# Youngs Moduli (GPa) = 71.85280 69.79349 90.14043
#
# Poissons Ratio (x) = 0.38843 0.15413
# Poissons Ratio (y) = 0.39989 0.26616
# Poissons Ratio (z) = 0.12286 0.20608
#
# Static dielectric constant tensor:
#      x y z
#    x 1.695500 0.000000 0.000000 
#    y 0.000000 1.744500 0.000000 
#    z 0.000000 0.000000 1.707120 
# 
# From -- ./inp_files/22166.got.cif
#   From: 2010.05.17/outbox.cif.g08.bks.cpg/sg23_12_cif.got.tgz:22166.got - 2010.06.04 12:02:01.
