data_PCOD9331940
_publ_section_title
;
Structure prediction by ZEFSAII (Michael W. Deem and Ramdas Pophale) SiO2 
 PCOD9331940
Probable space group: I 2 2 2
;
_chemical_formula_sum "Si O2"
_cell_formula_units_Z 30
_cell_length_a 4.803131
_cell_length_b 31.228681
_cell_length_c 8.012690
_cell_angle_alpha 90.000000
_cell_angle_beta 90.000000
_cell_angle_gamma 90.000000
_cell_volume 1201.867009
_symmetry_space_group_name_H-M "I 2 2 2"
_symmetry_group_IT_number 23
_symmetry_cell_setting 'orthorhombic'
loop_
_space_group_symop_operation_xyz
x,y,z
-x,-y,z
x,-y,-z
-x,y,-z
1/2+x,1/2+y,1/2+z
1/2-x,1/2-y,1/2+z
1/2+x,1/2-y,1/2-z
1/2-x,1/2+y,1/2-z
loop_
_atom_site_type_symbol
_atom_site_label
_atom_site_fract_x
_atom_site_fract_y
_atom_site_fract_z
Si Si1 0.500000 0.067948 0.500000
Si Si2 0.199893 0.147274 0.648386
Si Si3 0.500000 0.000000 0.234101
Si Si4 0.500000 0.668252 0.500000
Si Si5 0.500000 0.500000 0.500000
Si Si6 0.094111 0.719936 0.283956
O O1 0.295555 0.100966 0.589178
O O2 0.615039 0.037136 0.644645
O O3 0.355056 0.255772 0.802033
O O4 0.446198 0.181494 0.682341
O O5 0.066002 0.142914 0.831967
O O6 0.238171 0.981614 0.127231
O O7 0.250118 0.698374 0.440210
O O8 0.000000 0.837172 0.500000
#
# Coordination Sequence:
#
# PCOD9331940 Si02
#       6
#     4   8   4   4   2   8
#     4  11  28  51  84 127 173 224 274 354 425 515
#     4  12  29  54  81 125 169 226 284 361 432 514
#     4  10  26  54  92 126 172 220 278 338 428 510
#     4  12  28  56  78 115 165 228 287 355 443 512
#     4  10  24  54  84 138 158 216 278 338 406 518
#     4  12  28  55  84 115 162 224 297 364 434 510
#
# _framework density 24.961167
#
# number of rings (size 3 to 8) (size 9 to 14) (size 15 to 20)
#    0.000    0.533    2.667    2.400    3.733    7.467 
#   14.400    0.000    0.000    0.000    0.000    0.000 
#    0.000    0.000    0.000    0.000    0.000    0.000 
#
# Total GULP energy -83753.447835 kJ/mol
# GULP energy per Si atom -5583.563189 kJ/mol
# Density = 2.490435 g / cm^3
# Si number density = 24.961167 Si / 1000 Ang^3
#
#
#
# Elastic Constant Matrix: (Units=GPa)
#
#
# Indices 1 2 3 4 5 6 
#
# 1 169.6985 52.1442 78.2142 0.0000 0.0000 0.0000
# 2 52.1442 129.1810 67.3958 0.0001 0.0000 -0.0003
# 3 78.2142 67.3958 216.3533 0.0001 0.0000 -0.0005
# 4 0.0000 0.0001 0.0001 -46.1263 0.0000 -0.0006
# 5 0.0000 0.0000 0.0000 0.0000 67.7114 -0.0001
# 6 0.0000 -0.0003 -0.0005 -0.0006 -0.0001 -469.1861
#
#
#
# Elastic Compliance Matrix: (Units=1/GPa)
#
#
# Indices 1 2 3 4 5 6 
#
# 1 0.007447 -0.001912 -0.002096 0.000000 0.000000 0.000000
# 2 -0.001912 0.009734 -0.002341 0.000000 0.000000 0.000000
# 3 -0.002096 -0.002341 0.006109 0.000000 0.000000 0.000000
# 4 0.000000 0.000000 0.000000 -0.021680 0.000000 0.000000
# 5 0.000000 0.000000 0.000000 0.000000 0.014769 0.000000
# 6 0.000000 0.000000 0.000000 0.000000 0.000000 -0.002131
#
#
# Mechanical properties :
#
#
# Convention : Reuss Voigt Hill
#
# Bulk Modulus (GPa) = 94.42032 101.19348 97.80690
# Shear Modulus (GPa) = 164.05780 -68.35497 47.85141
#
# Velocity S-wave (km/s) = 8.11590 -5.23870 4.38314
# Velocity P-wave (km/s) = 11.21307 2.00908 8.05510
#
# Compressibility (1/GPa) = 0.01059094
#
# Stress axis : x y z
#
# Youngs Moduli (GPa) = 134.28997 102.72979 163.68765
#
# Poissons Ratio (x) = 0.19643 0.34315
# Poissons Ratio (y) = 0.25678 0.38320
# Poissons Ratio (z) = 0.28152 0.24050
#
# Static dielectric constant tensor:
#      x y z
#    x 2.044640 0.000000 0.000000 
#    y 0.000000 1.940080 0.000000 
#    z 0.000000 0.000000 4.473810 
# 
# From -- ./inp_files/5766.got.cif
#   From: 2010.05.17/outbox.cif.g08.bks.cpg/sg23_3_cif.got.tgz:5766.got - 2010.06.04 12:02:01.
