data_PCOD9331936
_publ_section_title
;
Structure prediction by ZEFSAII (Michael W. Deem and Ramdas Pophale) SiO2 
 PCOD9331936
Probable space group: I 2 2 2
;
_chemical_formula_sum "Si O2"
_cell_formula_units_Z 38
_cell_length_a 10.437557
_cell_length_b 16.091075
_cell_length_c 8.836205
_cell_angle_alpha 90.000000
_cell_angle_beta 90.000000
_cell_angle_gamma 90.000000
_cell_volume 1484.053995
_symmetry_space_group_name_H-M "I 2 2 2"
_symmetry_group_IT_number 23
_symmetry_cell_setting 'orthorhombic'
loop_
_space_group_symop_operation_xyz
x,y,z
-x,-y,z
x,-y,-z
-x,y,-z
1/2+x,1/2+y,1/2+z
1/2-x,1/2-y,1/2+z
1/2+x,1/2-y,1/2-z
1/2-x,1/2+y,1/2-z
loop_
_atom_site_type_symbol
_atom_site_label
_atom_site_fract_x
_atom_site_fract_y
_atom_site_fract_z
Si Si1 0.500000 0.000000 0.000000
Si Si2 0.000000 0.000000 0.000000
Si Si3 0.916286 0.127574 0.372427
Si Si4 0.000000 0.500000 0.000000
Si Si5 0.337306 0.907990 0.248671
Si Si6 0.131655 0.844551 0.854989
Si Si7 0.239695 0.761362 0.603335
O O1 0.405939 0.050958 0.892601
O O2 0.095234 0.936220 0.913438
O O3 0.810462 0.073010 0.289014
O O4 0.842584 0.195837 0.472039
O O5 0.000000 0.083950 0.500000
O O6 0.008996 0.170807 0.252428
O O7 0.915801 0.560793 0.105813
O O8 0.328099 0.811718 0.199419
O O9 0.251064 0.831904 0.735960
O O10 0.154672 0.786189 0.000881
#
# Coordination Sequence:
#
# PCOD9331936 Si02
#       7
#     2   2   8   2   8   8   8
#     4  10  28  48  92 124 172 220 298 356 460 530
#     4  12  28  48  82 124 174 218 288 380 464 492
#     4  10  24  49  77 125 162 217 285 360 428 516
#     4  10  28  56  82 114 164 232 276 352 456 540
#     4  11  24  54  78 123 164 220 287 361 432 532
#     4  11  26  51  80 121 169 228 288 354 443 527
#     4  11  24  49  81 118 161 226 294 344 416 536
#
# _framework density 25.605535
#
# number of rings (size 3 to 8) (size 9 to 14) (size 15 to 20)
#    0.000    1.263    2.105    1.263    4.421    4.211 
#   37.895    1.053    0.000    0.000    0.000    0.000 
#    0.000    0.000    0.000    0.000    0.000    0.000 
#
# Total GULP energy -106055.403684 kJ/mol
# GULP energy per Si atom -5581.863352 kJ/mol
# Density = 2.554726 g / cm^3
# Si number density = 25.605535 Si / 1000 Ang^3
#
#
#
# Elastic Constant Matrix: (Units=GPa)
#
#
# Indices 1 2 3 4 5 6 
#
# 1 130.0762 58.7875 88.6692 0.0000 0.0000 0.0000
# 2 58.7875 130.1007 87.9467 0.0000 0.0000 0.0000
# 3 88.6692 87.9467 220.4564 0.0000 0.0000 0.0000
# 4 0.0000 0.0000 0.0000 6.6180 0.0000 0.0000
# 5 0.0000 0.0000 0.0000 0.0000 61.5772 0.0000
# 6 0.0000 0.0000 0.0000 0.0000 0.0000 35.8950
#
#
#
# Elastic Compliance Matrix: (Units=1/GPa)
#
#
# Indices 1 2 3 4 5 6 
#
# 1 0.011281 -0.002780 -0.003428 0.000000 0.000000 0.000000
# 2 -0.002780 0.011210 -0.003354 0.000000 0.000000 0.000000
# 3 -0.003428 -0.003354 0.007253 0.000000 0.000000 0.000000
# 4 0.000000 0.000000 0.000000 0.151103 0.000000 0.000000
# 5 0.000000 0.000000 0.000000 0.000000 0.016240 0.000000
# 6 0.000000 0.000000 0.000000 0.000000 0.000000 0.027859
#
#
# Mechanical properties :
#
#
# Convention : Reuss Voigt Hill
#
# Bulk Modulus (GPa) = 94.16622 105.71556 99.94089
# Shear Modulus (GPa) = 20.19312 37.16671 28.67992
#
# Velocity S-wave (km/s) = 2.81129 3.81400 3.35037
# Velocity P-wave (km/s) = 6.88428 7.79560 7.35407
#
# Compressibility (1/GPa) = 0.01061952
#
# Stress axis : x y z
#
# Youngs Moduli (GPa) = 88.64274 89.20926 137.87691
#
# Poissons Ratio (x) = 0.24800 0.47269
# Poissons Ratio (y) = 0.24643 0.46240
# Poissons Ratio (z) = 0.30390 0.29918
#
# Static dielectric constant tensor:
#      x y z
#    x 2.124700 0.000000 0.000000 
#    y 0.000000 2.063900 0.000000 
#    z 0.000000 0.000000 2.098290 
# 
# From -- ./inp_files/8271.got.cif
#   From: 2010.05.17/outbox.cif.g08.bks.cpg/sg23_5_cif.got.tgz:8271.got - 2010.06.04 12:02:01.
