data_PCOD9331748
_publ_section_title
;
Structure prediction by ZEFSAII (Michael W. Deem and Ramdas Pophale) SiO2 
 PCOD9331748
Probable space group: I 2 2 2
;
_chemical_formula_sum "Si O2"
_cell_formula_units_Z 46
_cell_length_a 24.331703
_cell_length_b 8.135754
_cell_length_c 11.624257
_cell_angle_alpha 90.000000
_cell_angle_beta 90.000000
_cell_angle_gamma 90.000000
_cell_volume 2301.100137
_symmetry_space_group_name_H-M "I 2 2 2"
_symmetry_group_IT_number 23
_symmetry_cell_setting 'orthorhombic'
loop_
_space_group_symop_operation_xyz
x,y,z
-x,-y,z
x,-y,-z
-x,y,-z
1/2+x,1/2+y,1/2+z
1/2-x,1/2-y,1/2+z
1/2+x,1/2-y,1/2-z
1/2-x,1/2+y,1/2-z
loop_
_atom_site_type_symbol
_atom_site_label
_atom_site_fract_x
_atom_site_fract_y
_atom_site_fract_z
Si Si1 0.561100 0.076892 0.246078
Si Si2 0.759417 0.500000 0.500000
Si Si3 0.660542 0.392425 0.645813
Si Si4 0.901742 0.794969 0.073632
Si Si5 0.558066 0.688896 0.957584
Si Si6 0.854978 0.321464 0.369101
Si Si7 0.000000 0.000000 0.000000
O O1 0.587997 0.122878 0.367631
O O2 0.560039 0.248495 0.173360
O O3 0.500000 0.000000 0.253659
O O4 0.603221 0.955303 0.183518
O O5 0.719544 0.393893 0.583051
O O6 0.798811 0.396224 0.416971
O O7 0.639809 0.581902 0.640196
O O8 0.619911 0.297753 0.557159
O O9 0.656760 0.313300 0.770609
O O10 0.960371 0.885961 0.073732
O O11 0.556163 0.500000 0.000000
O O12 0.500000 0.764269 0.000000
O O13 0.611228 0.754875 0.022469
#
# Coordination Sequence:
#
# PCOD9331748 Si02
#       7
#     8   4   8   8   8   8   2
#     4  12  24  36  64  98 140 165 207 268 326 392
#     4  10  23  44  71  89 130 165 226 278 334 370
#     4   9  23  46  65  89 125 174 225 272 313 395
#     4   9  21  40  61  89 129 171 220 256 315 389
#     4  11  23  40  63  95 132 173 211 249 319 402
#     4  12  23  43  67  95 131 167 209 277 333 370
#     4   8  18  36  62  80 122 174 214 244 306 382
#
# _framework density 19.990437
#
# number of rings (size 3 to 8) (size 9 to 14) (size 15 to 20)
#    0.000    1.913    3.478    1.043    4.870    4.870 
#    3.130    0.000    0.000    0.000    0.000    0.000 
#    0.000    0.000    0.000    0.000    0.000    0.000 
#
# Total GULP energy -128241.086752 kJ/mol
# GULP energy per Si atom -5575.699424 kJ/mol
# Density = 1.994494 g / cm^3
# Si number density = 19.990437 Si / 1000 Ang^3
#
#
#
# Elastic Constant Matrix: (Units=GPa)
#
#
# Indices 1 2 3 4 5 6 
#
# 1 124.7843 18.3998 32.8212 0.0000 0.0000 0.0000
# 2 18.3998 49.8768 20.8416 0.0000 0.0000 0.0000
# 3 32.8212 20.8416 88.6996 0.0000 0.0000 0.0000
# 4 0.0000 0.0000 0.0000 32.8384 0.0000 0.0000
# 5 0.0000 0.0000 0.0000 0.0000 14.0639 0.0000
# 6 0.0000 0.0000 0.0000 0.0000 0.0000 15.4735
#
#
#
# Elastic Compliance Matrix: (Units=1/GPa)
#
#
# Indices 1 2 3 4 5 6 
#
# 1 0.009083 -0.002158 -0.002854 0.000000 0.000000 0.000000
# 2 -0.002158 0.022745 -0.004546 0.000000 0.000000 0.000000
# 3 -0.002854 -0.004546 0.013398 0.000000 0.000000 0.000000
# 4 0.000000 0.000000 0.000000 0.030452 0.000000 0.000000
# 5 0.000000 0.000000 0.000000 0.000000 0.071104 0.000000
# 6 0.000000 0.000000 0.000000 0.000000 0.000000 0.064627
#
#
# Mechanical properties :
#
#
# Convention : Reuss Voigt Hill
#
# Bulk Modulus (GPa) = 38.29886 45.27620 41.78753
# Shear Modulus (GPa) = 20.90063 25.22837 23.06450
#
# Velocity S-wave (km/s) = 3.23698 3.55635 3.40041
# Velocity P-wave (km/s) = 5.75942 6.28980 6.03044
#
# Compressibility (1/GPa) = 0.02611044
#
# Stress axis : x y z
#
# Youngs Moduli (GPa) = 110.09998 43.96552 74.63755
#
# Poissons Ratio (x) = 0.09489 0.21299
# Poissons Ratio (y) = 0.23761 0.33929
# Poissons Ratio (z) = 0.31419 0.19986
#
# Static dielectric constant tensor:
#      x y z
#    x 1.701360 0.000000 0.000000 
#    y 0.000000 1.877360 0.000000 
#    z 0.000000 0.000000 1.741830 
# 
# From -- ./inp_files/14782.got.cif
#   From: 2010.05.17/outbox.cif.g08.bks.cpg/sg23_8_cif.got.tgz:14782.got - 2010.06.04 12:02:01.
