data_PCOD9331272
_publ_section_title
;
Structure prediction by ZEFSAII (Michael W. Deem and Ramdas Pophale) SiO2 
 PCOD9331272
Probable space group: I 2 2 2
;
_chemical_formula_sum "Si O2"
_cell_formula_units_Z 38
_cell_length_a 5.291470
_cell_length_b 12.419494
_cell_length_c 24.545685
_cell_angle_alpha 90.000000
_cell_angle_beta 90.000000
_cell_angle_gamma 90.000000
_cell_volume 1613.078106
_symmetry_space_group_name_H-M "I 2 2 2"
_symmetry_group_IT_number 23
_symmetry_cell_setting 'orthorhombic'
loop_
_space_group_symop_operation_xyz
x,y,z
-x,-y,z
x,-y,-z
-x,y,-z
1/2+x,1/2+y,1/2+z
1/2-x,1/2-y,1/2+z
1/2+x,1/2-y,1/2-z
1/2-x,1/2+y,1/2-z
loop_
_atom_site_type_symbol
_atom_site_label
_atom_site_fract_x
_atom_site_fract_y
_atom_site_fract_z
Si Si1 0.180247 0.100724 0.408391
Si Si2 0.434188 0.386134 0.626237
Si Si3 0.446080 0.834321 0.064309
Si Si4 0.500000 0.000000 0.684114
Si Si5 0.000000 0.500000 0.000000
Si Si6 0.681343 0.217071 0.279525
O O1 0.033443 0.210721 0.415272
O O2 0.338959 0.080127 0.354145
O O3 0.352397 0.080958 0.460804
O O4 0.000000 0.000000 0.409843
O O5 0.500000 0.500000 0.654124
O O6 0.663472 0.364577 0.583806
O O7 0.402549 0.288253 0.668259
O O8 0.169882 0.396308 0.594681
O O9 0.500000 0.841839 0.000000
O O10 0.329335 0.087208 0.714907
O O11 0.464239 0.247119 0.235794
#
# Coordination Sequence:
#
# PCOD9331272 Si02
#       6
#     8   8   8   4   2   8
#     4  11  23  40  69 102 152 189 244 298 374 438
#     4  12  28  51  73 107 151 195 253 307 365 442
#     4  12  26  45  76 109 150 199 248 300 365 442
#     4  11  26  47  76 104 148 186 241 314 381 444
#     4  10  22  36  60 110 142 204 230 304 360 458
#     4  12  29  49  78 110 143 193 248 309 381 441
#
# _framework density 23.557447
#
# number of rings (size 3 to 8) (size 9 to 14) (size 15 to 20)
#    0.000    0.421    2.105    5.368   11.789    2.526 
#    0.000    0.000    0.000    0.000    0.000    0.000 
#    0.000    0.000    0.000    0.000    0.000    0.000 
#
# Total GULP energy -106322.383734 kJ/mol
# GULP energy per Si atom -5595.914933 kJ/mol
# Density = 2.350383 g / cm^3
# Si number density = 23.557447 Si / 1000 Ang^3
#
#
#
# Elastic Constant Matrix: (Units=GPa)
#
#
# Indices 1 2 3 4 5 6 
#
# 1 99.4244 -1.2036 19.0080 0.0000 0.0000 0.0000
# 2 -1.2036 113.7002 14.5937 0.0000 0.0000 0.0000
# 3 19.0080 14.5937 61.8403 0.0000 0.0000 0.0000
# 4 0.0000 0.0000 0.0000 -5.7232 0.0000 0.0000
# 5 0.0000 0.0000 0.0000 0.0000 42.4770 0.0000
# 6 0.0000 0.0000 0.0000 0.0000 0.0000 59.5018
#
#
#
# Elastic Compliance Matrix: (Units=1/GPa)
#
#
# Indices 1 2 3 4 5 6 
#
# 1 0.010719 0.000553 -0.003425 0.000000 0.000000 0.000000
# 2 0.000553 0.009098 -0.002317 0.000000 0.000000 0.000000
# 3 -0.003425 -0.002317 0.017770 0.000000 0.000000 0.000000
# 4 0.000000 0.000000 0.000000 -0.174727 0.000000 0.000000
# 5 0.000000 0.000000 0.000000 0.000000 0.023542 0.000000
# 6 0.000000 0.000000 0.000000 0.000000 0.000000 0.016806
#
#
# Mechanical properties :
#
#
# Convention : Reuss Voigt Hill
#
# Bulk Modulus (GPa) = 36.75207 37.75124 37.25166
# Shear Modulus (GPa) = -64.64837 35.42224 -14.61307
#
# Velocity S-wave (km/s) = -5.24428 3.88190 -2.49332
# Velocity P-wave (km/s) = 4.58639 6.01267 2.74929
#
# Compressibility (1/GPa) = 0.02720935
#
# Stress axis : x y z
#
# Youngs Moduli (GPa) = 93.28832 109.91035 56.27345
#
# Poissons Ratio (x) = -0.06079 0.19276
# Poissons Ratio (y) = -0.05160 0.13039
# Poissons Ratio (z) = 0.31955 0.25468
#
# Static dielectric constant tensor:
#      x y z
#    x 1.972470 0.000000 0.000000 
#    y 0.000000 1.950160 0.000000 
#    z 0.000000 0.000000 1.766260 
# 
# From -- ./inp_files/28875.got.cif
#   From: 2010.05.17/outbox.cif.g08.bks.cpg/sg23_15_cif.got.tgz:28875.got - 2010.06.04 12:02:01.
