data_PCOD9331257
_publ_section_title
;
Structure prediction by ZEFSAII (Michael W. Deem and Ramdas Pophale) SiO2 
 PCOD9331257
Probable space group: I 2 2 2
;
_chemical_formula_sum "Si O2"
_cell_formula_units_Z 30
_cell_length_a 15.893375
_cell_length_b 6.729260
_cell_length_c 11.387586
_cell_angle_alpha 90.000000
_cell_angle_beta 90.000000
_cell_angle_gamma 90.000000
_cell_volume 1217.909755
_symmetry_space_group_name_H-M "I 2 2 2"
_symmetry_group_IT_number 23
_symmetry_cell_setting 'orthorhombic'
loop_
_space_group_symop_operation_xyz
x,y,z
-x,-y,z
x,-y,-z
-x,y,-z
1/2+x,1/2+y,1/2+z
1/2-x,1/2-y,1/2+z
1/2+x,1/2-y,1/2-z
1/2-x,1/2+y,1/2-z
loop_
_atom_site_type_symbol
_atom_site_label
_atom_site_fract_x
_atom_site_fract_y
_atom_site_fract_z
Si Si1 0.888419 0.329615 0.917003
Si Si2 0.193010 0.639128 0.259049
Si Si3 0.883759 0.072818 0.711982
Si Si4 0.263523 0.500000 0.500000
Si Si5 0.000000 0.000000 0.500000
O O1 0.846847 0.476542 0.823136
O O2 0.928801 0.169121 0.826895
O O3 0.706624 0.051874 0.889104
O O4 0.923954 0.500000 0.000000
O O5 0.288508 0.658310 0.209583
O O6 0.138122 0.839250 0.269253
O O7 0.173930 0.808397 0.995466
O O8 0.937113 0.106239 0.593651
#
# Coordination Sequence:
#
# PCOD9331257 Si02
#       5
#     8   8   8   4   2
#     4  11  23  38  71 109 142 206 286 331 372 483
#     4  11  22  40  77 106 153 217 289 310 396 501
#     4  11  25  45  71 113 159 220 256 340 405 487
#     4  10  22  34  66 114 144 186 264 362 364 444
#     4  12  32  48  78 126 196 184 256 374 462 436
#
# _framework density 24.632366000000001
#
# number of rings (size 3 to 8) (size 9 to 14) (size 15 to 20)
#    0.000    1.067    5.333    3.200    5.600    0.000 
#    0.000    2.667    0.000   36.800    0.000    0.000 
#    0.000    0.000    0.000    0.000    0.000    0.000 
#
# Total GULP energy -83518.214404 kJ/mol
# GULP energy per Si atom -5567.880960 kJ/mol
# Density = 2.457630 g / cm^3
# Si number density = 24.632366 Si / 1000 Ang^3
#
#
#
# Elastic Constant Matrix: (Units=GPa)
#
#
# Indices 1 2 3 4 5 6 
#
# 1 83.9021 51.8870 85.2829 0.0000 0.0000 0.0000
# 2 51.8870 221.6860 82.1621 0.0000 0.0000 0.0000
# 3 85.2829 82.1621 196.9598 0.0000 0.0000 0.0000
# 4 0.0000 0.0000 0.0000 19.7185 0.0000 0.0000
# 5 0.0000 0.0000 0.0000 0.0000 29.1751 0.0000
# 6 0.0000 0.0000 0.0000 0.0000 0.0000 -38.4624
#
#
#
# Elastic Compliance Matrix: (Units=1/GPa)
#
#
# Indices 1 2 3 4 5 6 
#
# 1 0.021951 -0.001910 -0.008708 0.000000 0.000000 0.000000
# 2 -0.001910 0.005502 -0.001468 0.000000 0.000000 0.000000
# 3 -0.008708 -0.001468 0.009460 0.000000 0.000000 0.000000
# 4 0.000000 0.000000 0.000000 0.050714 0.000000 0.000000
# 5 0.000000 0.000000 0.000000 0.000000 0.034276 0.000000
# 6 0.000000 0.000000 0.000000 0.000000 0.000000 -0.025999
#
#
# Mechanical properties :
#
#
# Convention : Reuss Voigt Hill
#
# Bulk Modulus (GPa) = 78.48823 104.57911 91.53367
# Shear Modulus (GPa) = 40.21770 20.96729 30.59249
#
# Velocity S-wave (km/s) = 4.04507 2.92071 3.52797
# Velocity P-wave (km/s) = 7.33143 7.34318 7.33731
#
# Compressibility (1/GPa) = 0.01274076
#
# Stress axis : x y z
#
# Youngs Moduli (GPa) = 45.55530 181.74819 105.70783
#
# Poissons Ratio (x) = 0.34723 0.92049
# Poissons Ratio (y) = 0.08703 0.15518
# Poissons Ratio (z) = 0.39669 0.26680
#
# Static dielectric constant tensor:
#      x y z
#    x 2.191960 0.000000 0.000000 
#    y 0.000000 1.974740 0.000000 
#    z 0.000000 0.000000 2.090670 
# 
# From -- ./inp_files/17175.got.cif
#   From: 2010.05.17/outbox.cif.g08.bks.cpg/sg23_9_cif.got.tgz:17175.got - 2010.06.04 12:02:01.
