data_PCOD9331777
_publ_section_title
;
Structure prediction by ZEFSAII (Michael W. Deem and Ramdas Pophale) SiO2 
 PCOD9331777
Probable space group: I 2 2 2
;
_chemical_formula_sum "Si O2"
_cell_formula_units_Z 38
_cell_length_a 9.997283
_cell_length_b 18.632149
_cell_length_c 8.127891
_cell_angle_alpha 90.000000
_cell_angle_beta 90.000000
_cell_angle_gamma 90.000000
_cell_volume 1513.989299
_symmetry_space_group_name_H-M "I 2 2 2"
_symmetry_group_IT_number 23
_symmetry_cell_setting 'orthorhombic'
loop_
_space_group_symop_operation_xyz
x,y,z
-x,-y,z
x,-y,-z
-x,y,-z
1/2+x,1/2+y,1/2+z
1/2-x,1/2-y,1/2+z
1/2+x,1/2-y,1/2-z
1/2-x,1/2+y,1/2-z
loop_
_atom_site_type_symbol
_atom_site_label
_atom_site_fract_x
_atom_site_fract_y
_atom_site_fract_z
Si Si1 0.689161 0.889019 0.919956
Si Si2 0.660436 0.292878 0.736391
Si Si3 0.157945 0.351241 0.968642
Si Si4 0.000000 0.000000 0.000000
Si Si5 0.743914 0.031584 0.771596
Si Si6 0.500000 0.239869 0.000000
O O1 0.837283 0.854619 0.899596
O O2 0.683283 0.951070 0.782119
O O3 0.657998 0.925593 0.092228
O O4 0.609087 0.815209 0.931240
O O5 0.672781 0.213200 0.664750
O O6 0.771050 0.318024 0.870472
O O7 0.530539 0.290161 0.847454
O O8 0.227863 0.422417 0.893320
O O9 0.000000 0.363060 0.000000
O O10 0.888318 0.971938 0.136812
#
# Coordination Sequence:
#
# PCOD9331777 Si02
#       6
#     8   8   8   2   8   4
#     4  10  23  46  70 108 145 189 256 307 392 455
#     4  12  25  45  68 109 144 196 254 307 386 451
#     4  12  26  47  74 110 156 201 260 317 386 454
#     4   8  20  44  80 112 152 196 250 300 408 464
#     4  10  23  47  75 113 147 199 249 317 395 463
#     4  12  22  43  72 101 146 194 240 314 374 451
#
# _framework density 25.099252
#
# number of rings (size 3 to 8) (size 9 to 14) (size 15 to 20)
#    0.000    1.263    4.211    1.263    0.000    5.895 
#    9.474    3.158    0.000    6.316    0.000    0.000 
#    0.000    0.000    0.000    0.000    0.000    0.000 
#
# Total GULP energy -105862.412509 kJ/mol
# GULP energy per Si atom -5571.705922 kJ/mol
# Density = 2.504213 g / cm^3
# Si number density = 25.099252 Si / 1000 Ang^3
#
#
#
# Elastic Constant Matrix: (Units=GPa)
#
#
# Indices 1 2 3 4 5 6 
#
# 1 88.9676 22.5095 19.9913 0.0001 -0.0001 0.0000
# 2 22.5095 118.9784 28.6593 -0.0001 0.0000 0.0001
# 3 19.9913 28.6593 95.4419 -0.0006 -0.0002 0.0001
# 4 0.0001 -0.0001 -0.0006 43.2443 0.0000 0.0000
# 5 -0.0001 0.0000 -0.0002 0.0000 45.2476 0.0001
# 6 0.0000 0.0001 0.0001 0.0000 0.0001 23.0416
#
#
#
# Elastic Compliance Matrix: (Units=1/GPa)
#
#
# Indices 1 2 3 4 5 6 
#
# 1 0.012149 -0.001817 -0.001999 0.000000 0.000000 0.000000
# 2 -0.001817 0.009332 -0.002422 0.000000 0.000000 0.000000
# 3 -0.001999 -0.002422 0.011623 0.000000 0.000000 0.000000
# 4 0.000000 0.000000 0.000000 0.023124 0.000000 0.000000
# 5 0.000000 0.000000 0.000000 0.000000 0.022101 0.000000
# 6 0.000000 0.000000 0.000000 0.000000 0.000000 0.043400
#
#
# Mechanical properties :
#
#
# Convention : Reuss Voigt Hill
#
# Bulk Modulus (GPa) = 48.47539 49.52312 48.99925
# Shear Modulus (GPa) = 35.44067 37.78855 36.61461
#
# Velocity S-wave (km/s) = 3.76176 3.88437 3.82356
# Velocity P-wave (km/s) = 6.18249 6.31597 6.24959
#
# Compressibility (1/GPa) = 0.02062903
#
# Stress axis : x y z
#
# Youngs Moduli (GPa) = 82.31160 107.15877 86.03267
#
# Poissons Ratio (x) = 0.19470 0.17199
# Poissons Ratio (y) = 0.14955 0.20834
# Poissons Ratio (z) = 0.16455 0.25950
#
# Static dielectric constant tensor:
#      x y z
#    x 2.216050 0.000000 0.000000 
#    y 0.000000 2.024170 0.000000 
#    z 0.000000 0.000000 2.125460 
# 
# From -- ./inp_files/8234.got.cif
#   From: 2010.05.17/outbox.cif.g08.bks.cpg/sg23_5_cif.got.tgz:8234.got - 2010.06.04 12:02:01.
