data_PCOD9331971
_publ_section_title
;
Structure prediction by ZEFSAII (Michael W. Deem and Ramdas Pophale) SiO2 
 PCOD9331971
Probable space group: I 2 2 2
;
_chemical_formula_sum "Si O2"
_cell_formula_units_Z 34
_cell_length_a 7.749486
_cell_length_b 13.425931
_cell_length_c 15.474441
_cell_angle_alpha 90.000000
_cell_angle_beta 90.000000
_cell_angle_gamma 90.000000
_cell_volume 1610.023735
_symmetry_space_group_name_H-M "I 2 2 2"
_symmetry_group_IT_number 23
_symmetry_cell_setting 'orthorhombic'
loop_
_space_group_symop_operation_xyz
x,y,z
-x,-y,z
x,-y,-z
-x,y,-z
1/2+x,1/2+y,1/2+z
1/2-x,1/2-y,1/2+z
1/2+x,1/2-y,1/2-z
1/2-x,1/2+y,1/2-z
loop_
_atom_site_type_symbol
_atom_site_label
_atom_site_fract_x
_atom_site_fract_y
_atom_site_fract_z
Si Si1 0.191023 0.808269 0.849285
Si Si2 0.500000 0.500000 0.000000
Si Si3 0.208828 0.231847 0.836314
Si Si4 0.286962 0.156741 0.503670
Si Si5 0.202345 0.516324 0.596312
O O1 0.263894 0.761049 0.762242
O O2 0.249926 0.754290 0.937504
O O3 0.220532 0.925918 0.848886
O O4 0.992051 0.782922 0.849457
O O5 0.648548 0.424677 0.961095
O O6 0.281540 0.124911 0.863279
O O7 0.264719 0.315735 0.905319
O O8 0.500000 0.134090 0.500000
O O9 0.277923 0.500000 0.500000
O O10 0.000000 0.500000 0.590320
#
# Coordination Sequence:
#
# PCOD9331971 Si02
#       5
#     8   2   8   8   8
#     4  11  24  43  69  99 139 175 227 283 340 407
#     4  12  26  40  80  88 144 182 234 276 368 404
#     4  11  24  43  69  99 139 175 227 283 340 407
#     4  10  25  46  68 101 136 181 231 287 340 414
#     4  11  23  40  71 102 133 177 228 276 336 413
#
# _framework density 21.117702999999999
#
# number of rings (size 3 to 8) (size 9 to 14) (size 15 to 20)
#    0.000    1.176    2.353    2.471    6.588    2.824 
#    0.000    2.353    0.000    0.000    0.000    0.000 
#    0.000    0.000    0.000    0.000    0.000    0.000 
#
# Total GULP energy -94692.688817 kJ/mol
# GULP energy per Si atom -5570.158166 kJ/mol
# Density = 2.106964 g / cm^3
# Si number density = 21.117703 Si / 1000 Ang^3
#
#
#
# Elastic Constant Matrix: (Units=GPa)
#
#
# Indices 1 2 3 4 5 6 
#
# 1 53.2724 9.8067 0.3375 0.0000 0.0000 0.0000
# 2 9.8067 82.0397 12.4686 0.0000 0.0000 0.0000
# 3 0.3375 12.4686 76.8748 0.0000 0.0000 0.0000
# 4 0.0000 0.0000 0.0000 35.1760 0.0000 0.0000
# 5 0.0000 0.0000 0.0000 0.0000 23.9700 0.0000
# 6 0.0000 0.0000 0.0000 0.0000 0.0000 44.2371
#
#
#
# Elastic Compliance Matrix: (Units=1/GPa)
#
#
# Indices 1 2 3 4 5 6 
#
# 1 0.019200 -0.002340 0.000295 0.000000 0.000000 0.000000
# 2 -0.002340 0.012782 -0.002063 0.000000 0.000000 0.000000
# 3 0.000295 -0.002063 0.013341 0.000000 0.000000 0.000000
# 4 0.000000 0.000000 0.000000 0.028429 0.000000 0.000000
# 5 0.000000 0.000000 0.000000 0.000000 0.041719 0.000000
# 6 0.000000 0.000000 0.000000 0.000000 0.000000 0.022605
#
#
# Mechanical properties :
#
#
# Convention : Reuss Voigt Hill
#
# Bulk Modulus (GPa) = 26.94776 28.60138 27.77457
# Shear Modulus (GPa) = 31.51351 33.31489 32.41420
#
# Velocity S-wave (km/s) = 3.86719 3.97619 3.92207
# Velocity P-wave (km/s) = 5.72090 5.88670 5.80439
#
# Compressibility (1/GPa) = 0.03710883
#
# Stress axis : x y z
#
# Youngs Moduli (GPa) = 52.08237 78.23215 74.95425
#
# Poissons Ratio (x) = 0.18306 -0.02213
# Poissons Ratio (y) = 0.12187 0.15463
# Poissons Ratio (z) = -0.01538 0.16139
#
# Static dielectric constant tensor:
#      x y z
#    x 1.788370 0.000000 0.000000 
#    y 0.000000 1.800200 0.000000 
#    z 0.000000 0.000000 1.688110 
# 
# From -- ./inp_files/19567.got.cif
#   From: 2010.05.17/outbox.cif.g08.bks.cpg/sg23_10_cif.got.tgz:19567.got - 2010.06.04 12:02:01.
