data_PCOD9331603
_publ_section_title
;
Structure prediction by ZEFSAII (Michael W. Deem and Ramdas Pophale) SiO2 
 PCOD9331603
Probable space group: I 2 2 2
;
_chemical_formula_sum "Si O2"
_cell_formula_units_Z 30
_cell_length_a 12.119336
_cell_length_b 5.473704
_cell_length_c 19.068994
_cell_angle_alpha 90.000000
_cell_angle_beta 90.000000
_cell_angle_gamma 90.000000
_cell_volume 1264.992401
_symmetry_space_group_name_H-M "I 2 2 2"
_symmetry_group_IT_number 23
_symmetry_cell_setting 'orthorhombic'
loop_
_space_group_symop_operation_xyz
x,y,z
-x,-y,z
x,-y,-z
-x,y,-z
1/2+x,1/2+y,1/2+z
1/2-x,1/2-y,1/2+z
1/2+x,1/2-y,1/2-z
1/2-x,1/2+y,1/2-z
loop_
_atom_site_type_symbol
_atom_site_label
_atom_site_fract_x
_atom_site_fract_y
_atom_site_fract_z
Si Si1 0.682923 0.654690 0.754645
Si Si2 0.697688 0.500000 0.000000
Si Si3 0.384672 0.136246 0.898125
Si Si4 0.171595 0.777648 0.895653
Si Si5 0.000000 0.000000 0.000000
O O1 0.723953 0.373186 0.749220
O O2 0.621830 0.696763 0.827831
O O3 0.621891 0.721245 0.682047
O O4 0.624911 0.719418 0.971230
O O5 0.774191 0.457646 0.931776
O O6 0.500000 0.000000 0.894056
O O7 0.276551 0.961877 0.894438
O O8 0.079122 0.850173 0.949968
#
# Coordination Sequence:
#
# PCOD9331603 Si02
#       5
#     8   4   8   8   2
#     4  10  22  48  75 106 155 198 253 315 383 468
#     4  12  22  48  74 110 148 197 255 320 386 474
#     4  11  25  47  75 112 152 200 256 324 393 467
#     4  11  25  46  71 107 152 195 256 315 384 464
#     4  12  24  50  70 108 150 198 256 324 388 454
#
# _framework density 23.71556
#
# number of rings (size 3 to 8) (size 9 to 14) (size 15 to 20)
#    0.000    1.067    5.333    0.000    0.000    4.800 
#   24.000    0.000    0.000    0.000    0.000    0.000 
#    0.000    0.000    0.000    0.000    0.000    0.000 
#
# Total GULP energy -83766.459504 kJ/mol
# GULP energy per Si atom -5584.430634 kJ/mol
# Density = 2.366158 g / cm^3
# Si number density = 23.715560 Si / 1000 Ang^3
#
#
#
# Elastic Constant Matrix: (Units=GPa)
#
#
# Indices 1 2 3 4 5 6 
#
# 1 101.6622 13.6743 19.2320 0.0000 0.0000 0.0000
# 2 13.6743 53.1247 -4.3154 0.0000 0.0000 0.0000
# 3 19.2320 -4.3154 146.8881 0.0000 0.0000 0.0000
# 4 0.0000 0.0000 0.0000 42.5478 0.0000 0.0000
# 5 0.0000 0.0000 0.0000 0.0000 -159.0196 0.0000
# 6 0.0000 0.0000 0.0000 0.0000 0.0000 22.7101
#
#
#
# Elastic Compliance Matrix: (Units=1/GPa)
#
#
# Indices 1 2 3 4 5 6 
#
# 1 0.010491 -0.002819 -0.001456 0.000000 0.000000 0.000000
# 2 -0.002819 0.019626 0.000946 0.000000 0.000000 0.000000
# 3 -0.001456 0.000946 0.007026 0.000000 0.000000 0.000000
# 4 0.000000 0.000000 0.000000 0.023503 0.000000 0.000000
# 5 0.000000 0.000000 0.000000 0.000000 -0.006289 0.000000
# 6 0.000000 0.000000 0.000000 0.000000 0.000000 0.044033
#
#
# Mechanical properties :
#
#
# Convention : Reuss Voigt Hill
#
# Bulk Modulus (GPa) = 32.80352 39.87297 36.33824
# Shear Modulus (GPa) = 43.39839 -0.54672 21.42584
#
# Velocity S-wave (km/s) = 4.28244 -0.48066 3.00901
# Velocity P-wave (km/s) = 6.18987 4.06712 5.23717
#
# Compressibility (1/GPa) = 0.03048453
#
# Stress axis : x y z
#
# Youngs Moduli (GPa) = 95.31835 50.95286 142.32089
#
# Poissons Ratio (x) = 0.14362 0.20728
# Poissons Ratio (y) = 0.26868 -0.13459
# Poissons Ratio (z) = 0.13882 -0.04818
#
# Static dielectric constant tensor:
#      x y z
#    x 0.708770 0.000000 0.000000 
#    y 0.000000 2.095920 0.000000 
#    z 0.000000 0.000000 1.976610 
# 
# From -- ./inp_files/1286.got.cif
#   From: 2010.05.17/outbox.cif.g08.bks.cpg/sg23_1_cif.got.tgz:1286.got - 2010.06.04 12:02:01.
