data_PCOD9331775
_publ_section_title
;
Structure prediction by ZEFSAII (Michael W. Deem and Ramdas Pophale) SiO2 
 PCOD9331775
Probable space group: I 2 2 2
;
_chemical_formula_sum "Si O2"
_cell_formula_units_Z 26
_cell_length_a 7.728737
_cell_length_b 5.499867
_cell_length_c 27.807701
_cell_angle_alpha 90.000000
_cell_angle_beta 90.000000
_cell_angle_gamma 90.000000
_cell_volume 1182.022658
_symmetry_space_group_name_H-M "I 2 2 2"
_symmetry_group_IT_number 23
_symmetry_cell_setting 'orthorhombic'
loop_
_space_group_symop_operation_xyz
x,y,z
-x,-y,z
x,-y,-z
-x,y,-z
1/2+x,1/2+y,1/2+z
1/2-x,1/2-y,1/2+z
1/2+x,1/2-y,1/2-z
1/2-x,1/2+y,1/2-z
loop_
_atom_site_type_symbol
_atom_site_label
_atom_site_fract_x
_atom_site_fract_y
_atom_site_fract_z
Si Si1 0.500000 0.000000 0.147621
Si Si2 0.000000 0.000000 0.000000
Si Si3 0.500000 0.000000 0.344161
Si Si4 0.754113 0.260935 0.279818
Si Si5 0.165919 0.839152 0.091522
O O1 0.582972 0.802126 0.184376
O O2 0.342775 0.939706 0.111991
O O3 0.874467 0.157808 0.034679
O O4 0.417820 0.798666 0.310113
O O5 0.646630 0.912177 0.380629
O O6 0.729801 0.516163 0.252013
O O7 0.000000 0.000000 0.107690
#
# Coordination Sequence:
#
# PCOD9331775 Si02
#       5
#     4   2   4   8   8
#     4  12  25  47  78 102 146 198 246 291 369 434
#     4   8  20  48  72 104 148 176 228 312 368 434
#     4  12  25  45  68  96 152 184 236 303 373 412
#     4  12  28  45  70 108 148 197 254 303 355 430
#     4  10  23  46  70 105 139 187 227 307 358 443
#
# _framework density 21.996196999999999
#
# number of rings (size 3 to 8) (size 9 to 14) (size 15 to 20)
#    0.923    0.000    3.077    2.769    0.000   13.538 
#    0.000    0.000    0.000    3.692    0.000    0.000 
#    0.000    0.000    0.000    0.000    0.000    0.000 
#
# Total GULP energy -72457.266786 kJ/mol
# GULP energy per Si atom -5573.635907 kJ/mol
# Density = 2.194613 g / cm^3
# Si number density = 21.996197 Si / 1000 Ang^3
#
#
#
# Elastic Constant Matrix: (Units=GPa)
#
#
# Indices 1 2 3 4 5 6 
#
# 1 148.4326 42.6082 65.3972 0.0000 0.0000 0.0000
# 2 42.6082 103.8810 76.4446 0.0000 0.0000 0.0000
# 3 65.3972 76.4446 175.3895 0.0000 0.0000 0.0000
# 4 0.0000 0.0000 0.0000 93.9790 0.0000 0.0000
# 5 0.0000 0.0000 0.0000 0.0000 34.3941 0.0000
# 6 0.0000 0.0000 0.0000 0.0000 0.0000 39.7498
#
#
#
# Elastic Compliance Matrix: (Units=1/GPa)
#
#
# Indices 1 2 3 4 5 6 
#
# 1 0.008249 -0.001649 -0.002357 0.000000 0.000000 0.000000
# 2 -0.001649 0.014501 -0.005706 0.000000 0.000000 0.000000
# 3 -0.002357 -0.005706 0.009067 0.000000 0.000000 0.000000
# 4 0.000000 0.000000 0.000000 0.010641 0.000000 0.000000
# 5 0.000000 0.000000 0.000000 0.000000 0.029075 0.000000
# 6 0.000000 0.000000 0.000000 0.000000 0.000000 0.025157
#
#
# Mechanical properties :
#
#
# Convention : Reuss Voigt Hill
#
# Bulk Modulus (GPa) = 80.68190 88.51146 84.59668
# Shear Modulus (GPa) = 41.58164 49.84146 45.71155
#
# Velocity S-wave (km/s) = 4.35259 4.76532 4.56363
# Velocity P-wave (km/s) = 7.87525 8.40265 8.14322
#
# Compressibility (1/GPa) = 0.01239435
#
# Stress axis : x y z
#
# Youngs Moduli (GPa) = 121.22876 68.95839 110.28542
#
# Poissons Ratio (x) = 0.11370 0.25995
# Poissons Ratio (y) = 0.19989 0.62926
# Poissons Ratio (z) = 0.28575 0.39346
#
# Static dielectric constant tensor:
#      x y z
#    x 1.754720 0.000000 0.000000 
#    y 0.000000 1.850180 0.000000 
#    z 0.000000 0.000000 1.847100 
# 
# From -- ./inp_files/559.got.cif
#   From: 2010.05.17/outbox.cif.g08.bks.cpg/sg23_1_cif.got.tgz:559.got - 2010.06.04 12:02:01.
