data_PCOD9331439
_publ_section_title
;
Structure prediction by ZEFSAII (Michael W. Deem and Ramdas Pophale) SiO2 
 PCOD9331439
Probable space group: I 2 2 2
;
_chemical_formula_sum "Si O2"
_cell_formula_units_Z 24
_cell_length_a 5.257270
_cell_length_b 28.174565
_cell_length_c 7.363494
_cell_angle_alpha 90.000000
_cell_angle_beta 90.000000
_cell_angle_gamma 90.000000
_cell_volume 1090.690269
_symmetry_space_group_name_H-M "I 2 2 2"
_symmetry_group_IT_number 23
_symmetry_cell_setting 'orthorhombic'
loop_
_space_group_symop_operation_xyz
x,y,z
-x,-y,z
x,-y,-z
-x,y,-z
1/2+x,1/2+y,1/2+z
1/2-x,1/2-y,1/2+z
1/2+x,1/2-y,1/2-z
1/2-x,1/2+y,1/2-z
loop_
_atom_site_type_symbol
_atom_site_label
_atom_site_fract_x
_atom_site_fract_y
_atom_site_fract_z
Si Si1 0.751759 0.379247 0.871667
Si Si2 0.251215 0.521220 0.705761
Si Si3 0.369958 0.775186 0.303829
O O1 0.740774 0.422588 0.730167
O O2 0.785654 0.329224 0.768323
O O3 0.500000 0.377894 0.000000
O O4 0.000000 0.385683 0.000000
O O5 0.500000 0.500000 0.794830
O O6 0.251051 0.500000 0.500000
O O7 0.000000 0.500000 0.791810
O O8 0.500000 0.775333 0.500000
O O9 0.610452 0.755307 0.191299
#
# Coordination Sequence:
#
# PCOD9331439 Si02
#       3
#     8   8   8
#     4  11  23  41  68  94 133 179 223 268 338 399
#     4  10  22  41  61  91 134 165 219 275 326 395
#     4  11  23  44  67 100 137 178 228 282 333 405
#
# _framework density 22.004413
#
# number of rings (size 3 to 8) (size 9 to 14) (size 15 to 20)
#    0.000    1.333    0.000    7.000    0.000    4.000 
#   18.000    0.000    0.000    0.000    0.000    0.000 
#    0.000    0.000    0.000    0.000    0.000    0.000 
#
# Total GULP energy -66962.493018 kJ/mol
# GULP energy per Si atom -5580.207752 kJ/mol
# Density = 2.195433 g / cm^3
# Si number density = 22.004413 Si / 1000 Ang^3
#
#
#
# Elastic Constant Matrix: (Units=GPa)
#
#
# Indices 1 2 3 4 5 6 
#
# 1 224.9353 89.5391 22.2474 0.0003 0.0001 0.0000
# 2 89.5391 242.9714 55.0034 -0.0022 -0.0002 0.0002
# 3 22.2474 55.0034 59.6065 -0.0012 0.0000 0.0001
# 4 0.0003 -0.0022 -0.0012 31.0326 -0.0002 0.0002
# 5 0.0001 -0.0002 0.0000 -0.0002 -5.9522 0.0000
# 6 0.0000 0.0002 0.0001 0.0002 0.0000 37.6393
#
#
#
# Elastic Compliance Matrix: (Units=1/GPa)
#
#
# Indices 1 2 3 4 5 6 
#
# 1 0.005212 -0.001871 -0.000219 0.000000 0.000000 0.000000
# 2 -0.001871 0.005874 -0.004722 0.000000 0.000000 0.000000
# 3 -0.000219 -0.004722 0.021216 0.000001 0.000000 0.000000
# 4 0.000000 0.000000 0.000001 0.032224 -0.000001 0.000000
# 5 0.000000 0.000000 0.000000 -0.000001 -0.168004 0.000000
# 6 0.000000 0.000000 0.000000 0.000000 0.000000 0.026568
#
#
# Mechanical properties :
#
#
# Convention : Reuss Voigt Hill
#
# Bulk Modulus (GPa) = 53.53862 95.67700 74.60781
# Shear Modulus (GPa) = -87.62791 36.59216 -25.51788
#
# Velocity S-wave (km/s) = -6.31738 4.08235 -3.40909
# Velocity P-wave (km/s) = 5.36924 8.11147 4.29926
#
# Compressibility (1/GPa) = 0.01867810
#
# Stress axis : x y z
#
# Youngs Moduli (GPa) = 191.85567 170.23197 47.13460
#
# Poissons Ratio (x) = 0.31856 0.01030
# Poissons Ratio (y) = 0.35902 0.22258
# Poissons Ratio (z) = 0.04194 0.80388
#
# Static dielectric constant tensor:
#      x y z
#    x 1.863700 0.000000 0.000000 
#    y 0.000000 1.818050 0.000000 
#    z 0.000000 0.000000 1.835090 
# 
# From -- ./inp_files/407.got.cif
#   From: 2010.05.17/outbox.cif.g08.bks.cpg/sg23_1_cif.got.tgz:407.got - 2010.06.04 12:02:01.
