data_PCOD9331700
_publ_section_title
;
Structure prediction by ZEFSAII (Michael W. Deem and Ramdas Pophale) SiO2 
 PCOD9331700
Probable space group: I 2 2 2
;
_chemical_formula_sum "Si O2"
_cell_formula_units_Z 48
_cell_length_a 8.878944
_cell_length_b 9.179481
_cell_length_c 27.198442
_cell_angle_alpha 90.000000
_cell_angle_beta 90.000000
_cell_angle_gamma 90.000000
_cell_volume 2216.784475
_symmetry_space_group_name_H-M "I 2 2 2"
_symmetry_group_IT_number 23
_symmetry_cell_setting 'orthorhombic'
loop_
_space_group_symop_operation_xyz
x,y,z
-x,-y,z
x,-y,-z
-x,y,-z
1/2+x,1/2+y,1/2+z
1/2-x,1/2-y,1/2+z
1/2+x,1/2-y,1/2-z
1/2-x,1/2+y,1/2-z
loop_
_atom_site_type_symbol
_atom_site_label
_atom_site_fract_x
_atom_site_fract_y
_atom_site_fract_z
Si Si1 0.500000 0.000000 0.574394
Si Si2 0.800361 0.500000 0.500000
Si Si3 0.820252 0.981044 0.105414
Si Si4 0.313241 0.322469 0.309763
Si Si5 0.625837 0.794823 0.656103
Si Si6 0.761922 0.000000 0.500000
Si Si7 0.500000 0.260016 0.000000
Si Si8 0.826279 0.980997 0.282964
O O1 0.549756 0.868225 0.608659
O O2 0.644766 0.046472 0.542225
O O3 0.712670 0.548205 0.548361
O O4 0.893550 0.635729 0.476139
O O5 0.775227 0.838138 0.136130
O O6 0.762214 0.120027 0.136487
O O7 0.000000 0.000000 0.109616
O O8 0.486603 0.267555 0.312397
O O9 0.305639 0.455826 0.271809
O O10 0.220356 0.185750 0.290028
O O11 0.720059 0.917690 0.683504
O O12 0.872913 0.872402 0.519282
O O13 0.000000 0.000000 0.296970
#
# Coordination Sequence:
#
# PCOD9331700 Si02
#       8
#     4   4   8   8   8   4   4   8
#     4  11  22  44  74 100 130 186 240 277 332 420
#     4  11  23  44  66  99 146 179 218 285 360 399
#     4  10  23  42  69  99 131 185 239 283 328 418
#     4  11  23  45  69  98 138 177 234 283 345 413
#     4  11  23  45  66 102 138 173 236 288 336 414
#     4  10  24  44  74  96 136 188 228 278 350 402
#     4  10  24  44  62 100 138 178 222 294 342 410
#     4  12  24  43  70 101 136 181 221 289 355 416
#
# _framework density 21.652985999999999
#
# number of rings (size 3 to 8) (size 9 to 14) (size 15 to 20)
#    0.000    1.167    1.667    4.750    4.667    0.000 
#   15.000    1.667    0.000    0.000    0.000    0.000 
#    0.000    0.000    0.000    0.000    0.000    0.000 
#
# Total GULP energy -133782.270843 kJ/mol
# GULP energy per Si atom -5574.261285 kJ/mol
# Density = 2.160370 g / cm^3
# Si number density = 21.652986 Si / 1000 Ang^3
#
#
#
# Elastic Constant Matrix: (Units=GPa)
#
#
# Indices 1 2 3 4 5 6 
#
# 1 77.2125 32.6381 41.9019 0.0000 0.0000 0.0000
# 2 32.6381 122.4266 42.8654 0.0000 0.0000 0.0000
# 3 41.9019 42.8654 109.4369 0.0000 0.0000 0.0000
# 4 0.0000 0.0000 0.0000 32.3223 0.0000 0.0000
# 5 0.0000 0.0000 0.0000 0.0000 33.8530 0.0000
# 6 0.0000 0.0000 0.0000 0.0000 0.0000 30.7285
#
#
#
# Elastic Compliance Matrix: (Units=1/GPa)
#
#
# Indices 1 2 3 4 5 6 
#
# 1 0.017043 -0.002618 -0.005500 0.000000 0.000000 0.000000
# 2 -0.002618 0.009868 -0.002863 0.000000 0.000000 0.000000
# 3 -0.005500 -0.002863 0.012365 0.000000 0.000000 0.000000
# 4 0.000000 0.000000 0.000000 0.030938 0.000000 0.000000
# 5 0.000000 0.000000 0.000000 0.000000 0.029539 0.000000
# 6 0.000000 0.000000 0.000000 0.000000 0.000000 0.032543
#
#
# Mechanical properties :
#
#
# Convention : Reuss Voigt Hill
#
# Bulk Modulus (GPa) = 57.75547 60.43188 59.09367
# Shear Modulus (GPa) = 31.24411 32.15880 31.70145
#
# Velocity S-wave (km/s) = 3.80273 3.85800 3.83047
# Velocity P-wave (km/s) = 6.78323 6.91487 6.84936
#
# Compressibility (1/GPa) = 0.01731438
#
# Stress axis : x y z
#
# Youngs Moduli (GPa) = 58.67661 101.33263 80.87315
#
# Poissons Ratio (x) = 0.26526 0.44481
# Poissons Ratio (y) = 0.15360 0.23155
# Poissons Ratio (z) = 0.32272 0.29013
#
# Static dielectric constant tensor:
#      x y z
#    x 1.801540 0.000000 0.000000 
#    y 0.000000 1.811270 0.000000 
#    z 0.000000 0.000000 1.808460 
# 
# From -- ./inp_files/30278.got.cif
#   From: 2010.05.17/outbox.cif.g08.bks.cpg/sg23_16_cif.got.tgz:30278.got - 2010.06.04 12:02:01.
