data_PCOD9331002
_publ_section_title
;
Structure prediction by ZEFSAII (Michael W. Deem and Ramdas Pophale) SiO2 
 PCOD9331002
Probable space group: I 2 2 2
;
_chemical_formula_sum "Si O2"
_cell_formula_units_Z 48
_cell_length_a 8.810987
_cell_length_b 23.383456
_cell_length_c 11.181396
_cell_angle_alpha 90.000000
_cell_angle_beta 90.000000
_cell_angle_gamma 90.000000
_cell_volume 2303.717854
_symmetry_space_group_name_H-M "I 2 2 2"
_symmetry_group_IT_number 23
_symmetry_cell_setting 'orthorhombic'
loop_
_space_group_symop_operation_xyz
x,y,z
-x,-y,z
x,-y,-z
-x,y,-z
1/2+x,1/2+y,1/2+z
1/2-x,1/2-y,1/2+z
1/2+x,1/2-y,1/2-z
1/2-x,1/2+y,1/2-z
loop_
_atom_site_type_symbol
_atom_site_label
_atom_site_fract_x
_atom_site_fract_y
_atom_site_fract_z
Si Si1 0.395764 0.055475 0.718207
Si Si2 0.805118 0.613539 0.767363
Si Si3 0.326858 0.262739 0.834674
Si Si4 0.824220 0.215161 0.394641
Si Si5 0.329696 0.584535 0.983327
Si Si6 0.665899 0.491454 0.361104
O O1 0.512216 0.107766 0.735922
O O2 0.287657 0.055867 0.604754
O O3 0.500000 0.000000 0.711084
O O4 0.279593 0.041771 0.823058
O O5 0.737977 0.677080 0.780854
O O6 0.733113 0.571252 0.668913
O O7 0.750237 0.585379 0.889997
O O8 0.278431 0.221497 0.724764
O O9 0.508384 0.263839 0.854343
O O10 0.272262 0.256827 0.975872
O O11 0.842560 0.149007 0.431202
O O12 0.500000 0.562954 0.000000
O O13 0.500000 0.500000 0.302825
O O14 0.650346 0.500000 0.500000
#
# Coordination Sequence:
#
# PCOD9331002 Si02
#       6
#     8   8   8   8   8   8
#     4  10  23  38  61  94 122 161 209 260 316 384
#     4  10  21  39  61  89 125 159 207 257 317 382
#     4  10  22  43  63  97 129 169 218 272 328 400
#     4  10  22  42  65  94 133 168 218 273 336 392
#     4  11  20  40  65  87 126 169 206 266 321 387
#     4  10  22  41  61  88 126 166 208 257 316 384
#
# _framework density 20.835882999999999
#
# number of rings (size 3 to 8) (size 9 to 14) (size 15 to 20)
#    0.000    1.833    3.333    1.500    2.333    8.333 
#    3.000    4.167    0.000    0.000    0.000    0.000 
#    0.000    0.000    0.000    0.000    0.000    0.000 
#
# Total GULP energy -133703.065489 kJ/mol
# GULP energy per Si atom -5570.961062 kJ/mol
# Density = 2.078846 g / cm^3
# Si number density = 20.835883 Si / 1000 Ang^3
#
#
#
# Elastic Constant Matrix: (Units=GPa)
#
#
# Indices 1 2 3 4 5 6 
#
# 1 132.7162 21.3047 49.7250 0.0000 0.0000 0.0003
# 2 21.3047 50.5142 30.8783 0.0000 0.0000 0.0004
# 3 49.7250 30.8783 128.6686 -0.0015 -0.0001 0.0026
# 4 0.0000 0.0000 -0.0015 19.1365 0.0000 0.0021
# 5 0.0000 0.0000 -0.0001 0.0000 46.3343 0.0001
# 6 0.0003 0.0004 0.0026 0.0021 0.0001 -358.8199
#
#
#
# Elastic Compliance Matrix: (Units=1/GPa)
#
#
# Indices 1 2 3 4 5 6 
#
# 1 0.008972 -0.001951 -0.002999 0.000000 0.000000 0.000000
# 2 -0.001951 0.023624 -0.004915 0.000000 0.000000 0.000000
# 3 -0.002999 -0.004915 0.010111 0.000001 0.000000 0.000000
# 4 0.000000 0.000000 0.000001 0.052256 0.000000 0.000000
# 5 0.000000 0.000000 0.000000 0.000000 0.021582 0.000000
# 6 0.000000 0.000000 0.000000 0.000000 0.000000 -0.002787
#
#
# Mechanical properties :
#
#
# Convention : Reuss Voigt Hill
#
# Bulk Modulus (GPa) = 43.52417 57.30166 50.41291
# Shear Modulus (GPa) = 35.42420 -44.67041 -4.62310
#
# Velocity S-wave (km/s) = 4.12777 -4.63527 -1.49119
# Velocity P-wave (km/s) = 6.60699 1.04235 4.61334
#
# Compressibility (1/GPa) = 0.02297574
#
# Stress axis : x y z
#
# Youngs Moduli (GPa) = 111.46203 42.33013 98.90665
#
# Poissons Ratio (x) = 0.08257 0.29663
# Poissons Ratio (y) = 0.21742 0.48617
# Poissons Ratio (z) = 0.33428 0.20807
#
# Static dielectric constant tensor:
#      x y z
#    x 1.909900 0.000000 0.000000 
#    y 0.000000 1.849800 0.000000 
#    z 0.000000 0.000000 1.992450 
# 
# From -- ./inp_files/14836.got.cif
#   From: 2010.05.17/outbox.cif.g08.bks.cpg/sg23_8_cif.got.tgz:14836.got - 2010.06.04 12:02:01.
