data_PCOD9331434
_publ_section_title
;
Structure prediction by ZEFSAII (Michael W. Deem and Ramdas Pophale) SiO2 
 PCOD9331434
Probable space group: I 2 2 2
;
_chemical_formula_sum "Si O2"
_cell_formula_units_Z 48
_cell_length_a 29.497934
_cell_length_b 7.987836
_cell_length_c 9.449966
_cell_angle_alpha 90.000000
_cell_angle_beta 90.000000
_cell_angle_gamma 90.000000
_cell_volume 2226.645018
_symmetry_space_group_name_H-M "I 2 2 2"
_symmetry_group_IT_number 23
_symmetry_cell_setting 'orthorhombic'
loop_
_space_group_symop_operation_xyz
x,y,z
-x,-y,z
x,-y,-z
-x,y,-z
1/2+x,1/2+y,1/2+z
1/2-x,1/2-y,1/2+z
1/2+x,1/2-y,1/2-z
1/2-x,1/2+y,1/2-z
loop_
_atom_site_type_symbol
_atom_site_label
_atom_site_fract_x
_atom_site_fract_y
_atom_site_fract_z
Si Si1 0.444001 0.796000 0.365016
Si Si2 0.643073 0.586447 0.652279
Si Si3 0.542774 0.806863 0.309134
Si Si4 0.790841 0.240176 0.433413
Si Si5 0.264320 0.388518 0.785297
Si Si6 0.110897 0.851517 0.397899
O O1 0.396472 0.720765 0.318833
O O2 0.491126 0.741260 0.292364
O O3 0.445384 0.745199 0.531603
O O4 0.448972 0.994724 0.336709
O O5 0.642139 0.500000 0.500000
O O6 0.692538 0.655896 0.687674
O O7 0.632625 0.439749 0.761708
O O8 0.571778 0.758011 0.172483
O O9 0.778414 0.378790 0.317918
O O10 0.763939 0.237286 0.581136
O O11 0.844613 0.234308 0.466569
O O12 0.774670 0.068410 0.355104
O O13 0.094422 0.000000 0.500000
#
# Coordination Sequence:
#
# PCOD9331434 Si02
#       6
#     8   8   8   8   8   8
#     4   9  19  37  60  93 123 159 222 261 309 376
#     4  11  21  37  61  91 124 161 209 258 310 380
#     4   9  19  37  62  88 126 167 205 271 314 368
#     4  10  22  41  59  86 120 157 205 255 313 377
#     4  10  23  39  60  86 120 159 203 257 309 376
#     4  11  21  41  61  87 132 166 201 262 326 379
#
# _framework density 21.557096000000001
#
# number of rings (size 3 to 8) (size 9 to 14) (size 15 to 20)
#    0.000    2.000    5.000    1.000    4.667    2.000 
#    0.000    5.833    0.000    2.000    0.000    0.000 
#    0.000    0.000    0.000    0.000    0.000    0.000 
#
# Total GULP energy -133674.644655 kJ/mol
# GULP energy per Si atom -5569.776861 kJ/mol
# Density = 2.150803 g / cm^3
# Si number density = 21.557096 Si / 1000 Ang^3
#
#
#
# Elastic Constant Matrix: (Units=GPa)
#
#
# Indices 1 2 3 4 5 6 
#
# 1 76.7183 19.2319 15.3748 0.0000 0.0000 0.0000
# 2 19.2319 30.1635 23.2093 0.0000 0.0000 0.0000
# 3 15.3748 23.2093 87.8007 0.0000 0.0000 0.0000
# 4 0.0000 0.0000 0.0000 35.6376 0.0000 0.0000
# 5 0.0000 0.0000 0.0000 0.0000 27.9803 0.0000
# 6 0.0000 0.0000 0.0000 0.0000 0.0000 15.1984
#
#
#
# Elastic Compliance Matrix: (Units=1/GPa)
#
#
# Indices 1 2 3 4 5 6 
#
# 1 0.015516 -0.009794 -0.000128 0.000000 0.000000 0.000000
# 2 -0.009794 0.047800 -0.010920 0.000000 0.000000 0.000000
# 3 -0.000128 -0.010920 0.014299 0.000000 0.000000 0.000000
# 4 0.000000 0.000000 0.000000 0.028060 0.000000 0.000000
# 5 0.000000 0.000000 0.000000 0.000000 0.035739 0.000000
# 6 0.000000 0.000000 0.000000 0.000000 0.000000 0.065796
#
#
# Mechanical properties :
#
#
# Convention : Reuss Voigt Hill
#
# Bulk Modulus (GPa) = 27.83257 34.47941 31.15599
# Shear Modulus (GPa) = 19.16653 24.88769 22.02711
#
# Velocity S-wave (km/s) = 2.98502 3.40148 3.20003
# Velocity P-wave (km/s) = 4.98193 5.60856 5.30450
#
# Compressibility (1/GPa) = 0.03592913
#
# Stress axis : x y z
#
# Youngs Moduli (GPa) = 64.45153 20.92049 69.93711
#
# Poissons Ratio (x) = 0.20490 0.00895
# Poissons Ratio (y) = 0.63124 0.76375
# Poissons Ratio (z) = 0.00825 0.22846
#
# Static dielectric constant tensor:
#      x y z
#    x 1.840760 0.000000 0.000000 
#    y 0.000000 1.862490 0.000000 
#    z 0.000000 0.000000 1.794290 
# 
# From -- ./inp_files/13326.got.cif
#   From: 2010.05.17/outbox.cif.g08.bks.cpg/sg23_7_cif.got.tgz:13326.got - 2010.06.04 12:02:01.
