data_PCOD9331776
_publ_section_title
;
Structure prediction by ZEFSAII (Michael W. Deem and Ramdas Pophale) SiO2 
 PCOD9331776
Probable space group: I 2 2 2
;
_chemical_formula_sum "Si O2"
_cell_formula_units_Z 32
_cell_length_a 5.184656
_cell_length_b 27.958121
_cell_length_c 8.971933
_cell_angle_alpha 90.000000
_cell_angle_beta 90.000000
_cell_angle_gamma 90.000000
_cell_volume 1300.510756
_symmetry_space_group_name_H-M "I 2 2 2"
_symmetry_group_IT_number 23
_symmetry_cell_setting 'orthorhombic'
loop_
_space_group_symop_operation_xyz
x,y,z
-x,-y,z
x,-y,-z
-x,y,-z
1/2+x,1/2+y,1/2+z
1/2-x,1/2-y,1/2+z
1/2+x,1/2-y,1/2-z
1/2-x,1/2+y,1/2-z
loop_
_atom_site_type_symbol
_atom_site_label
_atom_site_fract_x
_atom_site_fract_y
_atom_site_fract_z
Si Si1 0.500000 0.629954 0.500000
Si Si2 0.394826 0.448136 0.695052
Si Si3 0.426338 0.090733 0.669423
Si Si4 0.281523 0.188246 0.763666
Si Si5 0.500000 0.736118 0.000000
O O1 0.688907 0.588639 0.562763
O O2 0.556887 0.664795 0.363707
O O3 0.500000 0.500000 0.654813
O O4 0.632975 0.424563 0.789388
O O5 0.130544 0.449336 0.783890
O O6 0.500000 0.099092 0.500000
O O7 0.467695 0.142843 0.745290
O O8 0.195879 0.204866 0.599525
O O9 0.382653 0.230453 0.869480
#
# Coordination Sequence:
#
# PCOD9331776 Si02
#       5
#     4   8   8   8   4
#     4  10  23  46  70 106 148 196 238 318 371 456
#     4  11  24  44  72 106 141 192 247 302 369 453
#     4  11  26  43  72 101 151 191 238 309 378 447
#     4  11  26  43  74 105 154 196 261 314 391 446
#     4  12  26  44  72 110 146 210 258 330 370 484
#
# _framework density 24.605715
#
# number of rings (size 3 to 8) (size 9 to 14) (size 15 to 20)
#    0.000    1.000    0.000    4.875   10.500    6.000 
#    0.000    5.000    0.000    0.000    0.000    0.000 
#    0.000    0.000    0.000    0.000    0.000    0.000 
#
# Total GULP energy -89173.156900 kJ/mol
# GULP energy per Si atom -5573.322306 kJ/mol
# Density = 2.454971 g / cm^3
# Si number density = 24.605715 Si / 1000 Ang^3
#
#
#
# Elastic Constant Matrix: (Units=GPa)
#
#
# Indices 1 2 3 4 5 6 
#
# 1 106.2424 42.5144 35.7998 0.0000 0.0000 0.0000
# 2 42.5144 143.0377 40.2762 0.0000 0.0000 0.0000
# 3 35.7998 40.2762 121.7728 -0.0001 0.0000 0.0000
# 4 0.0000 0.0000 -0.0001 12.0805 0.0000 0.0000
# 5 0.0000 0.0000 0.0000 0.0000 18.0457 0.0000
# 6 0.0000 0.0000 0.0000 0.0000 0.0000 41.4488
#
#
#
# Elastic Compliance Matrix: (Units=1/GPa)
#
#
# Indices 1 2 3 4 5 6 
#
# 1 0.011304 -0.002673 -0.002439 0.000000 0.000000 0.000000
# 2 -0.002673 0.008341 -0.001973 0.000000 0.000000 0.000000
# 3 -0.002439 -0.001973 0.009582 0.000000 0.000000 0.000000
# 4 0.000000 0.000000 0.000000 0.082778 0.000000 0.000000
# 5 0.000000 0.000000 0.000000 0.000000 0.055415 0.000000
# 6 0.000000 0.000000 0.000000 0.000000 0.000000 0.024126
#
#
# Mechanical properties :
#
#
# Convention : Reuss Voigt Hill
#
# Bulk Modulus (GPa) = 66.41641 67.58151 66.99896
# Shear Modulus (GPa) = 23.72644 31.14583 27.43614
#
# Velocity S-wave (km/s) = 3.10863 3.56166 3.34283
# Velocity P-wave (km/s) = 6.31947 6.66628 6.49519
#
# Compressibility (1/GPa) = 0.01505652
#
# Stress axis : x y z
#
# Youngs Moduli (GPa) = 88.46440 119.88667 104.36599
#
# Poissons Ratio (x) = 0.32046 0.25456
# Poissons Ratio (y) = 0.23647 0.20592
# Poissons Ratio (z) = 0.21578 0.23654
#
# Static dielectric constant tensor:
#      x y z
#    x 2.110230 0.000000 0.000000 
#    y 0.000000 2.077750 0.000000 
#    z 0.000000 0.000000 2.167010 
# 
# From -- ./inp_files/5785.got.cif
#   From: 2010.05.17/outbox.cif.g08.bks.cpg/sg23_3_cif.got.tgz:5785.got - 2010.06.04 12:02:01.
