data_PCOD9331193
_publ_section_title
;
Structure prediction by ZEFSAII (Michael W. Deem and Ramdas Pophale) SiO2 
 PCOD9331193
Probable space group: I 2 2 2
;
_chemical_formula_sum "Si O2"
_cell_formula_units_Z 40
_cell_length_a 16.208679
_cell_length_b 11.780406
_cell_length_c 9.144945
_cell_angle_alpha 90.000000
_cell_angle_beta 90.000000
_cell_angle_gamma 90.000000
_cell_volume 1746.179871
_symmetry_space_group_name_H-M "I 2 2 2"
_symmetry_group_IT_number 23
_symmetry_cell_setting 'orthorhombic'
loop_
_space_group_symop_operation_xyz
x,y,z
-x,-y,z
x,-y,-z
-x,y,-z
1/2+x,1/2+y,1/2+z
1/2-x,1/2-y,1/2+z
1/2+x,1/2-y,1/2-z
1/2-x,1/2+y,1/2-z
loop_
_atom_site_type_symbol
_atom_site_label
_atom_site_fract_x
_atom_site_fract_y
_atom_site_fract_z
Si Si1 0.963220 0.624643 0.651253
Si Si2 0.487603 0.332059 0.330368
Si Si3 0.293763 0.789754 0.945988
Si Si4 0.703321 0.388538 0.710988
Si Si5 0.135105 0.083057 0.366971
O O1 0.990951 0.700021 0.786647
O O2 0.865427 0.633984 0.626208
O O3 0.000000 0.500000 0.663956
O O4 0.000000 0.674803 0.500000
O O5 0.500000 0.353472 0.500000
O O6 0.395041 0.366233 0.287111
O O7 0.558752 0.391666 0.237891
O O8 0.257756 0.705676 0.821107
O O9 0.235140 0.864691 0.048395
O O10 0.334203 0.698068 0.057435
O O11 0.706719 0.514975 0.778117
O O12 0.111144 0.000000 0.500000
#
# Coordination Sequence:
#
# PCOD9331193 Si02
#       5
#     8   8   8   8   8
#     4  10  21  42  69  97 127 183 230 272 336 406
#     4  11  24  42  69 103 135 168 232 286 338 406
#     4  10  22  44  65  96 136 173 227 276 336 413
#     4  10  24  41  67  95 135 180 214 280 345 398
#     4  10  22  44  70  96 132 183 224 277 344 406
#
# _framework density 22.907146999999998
#
# number of rings (size 3 to 8) (size 9 to 14) (size 15 to 20)
#    0.000    1.800    2.000    0.600    2.800    6.000 
#   14.400    0.000    8.800    0.000    0.000    0.000 
#    0.000    0.000    0.000    0.000    0.000    0.000 
#
# Total GULP energy -111859.943162 kJ/mol
# GULP energy per Si atom -5592.997158 kJ/mol
# Density = 2.285501 g / cm^3
# Si number density = 22.907147 Si / 1000 Ang^3
#
#
#
# Elastic Constant Matrix: (Units=GPa)
#
#
# Indices 1 2 3 4 5 6 
#
# 1 57.9855 41.1345 39.4279 0.0000 0.0000 0.0000
# 2 41.1345 122.1129 35.0051 0.0000 0.0000 0.0000
# 3 39.4279 35.0051 137.9058 0.0000 0.0000 0.0000
# 4 0.0000 0.0000 0.0000 26.9136 0.0000 0.0000
# 5 0.0000 0.0000 0.0000 0.0000 37.3138 0.0000
# 6 0.0000 0.0000 0.0000 0.0000 0.0000 20.1251
#
#
#
# Elastic Compliance Matrix: (Units=1/GPa)
#
#
# Indices 1 2 3 4 5 6 
#
# 1 0.026208 -0.007205 -0.005664 0.000000 0.000000 0.000000
# 2 -0.007205 0.010812 -0.000685 0.000000 0.000000 0.000000
# 3 -0.005664 -0.000685 0.009045 0.000000 0.000000 0.000000
# 4 0.000000 0.000000 0.000000 0.037156 0.000000 0.000000
# 5 0.000000 0.000000 0.000000 0.000000 0.026800 0.000000
# 6 0.000000 0.000000 0.000000 0.000000 0.000000 0.049689
#
#
# Mechanical properties :
#
#
# Convention : Reuss Voigt Hill
#
# Bulk Modulus (GPa) = 52.74860 61.01547 56.88204
# Shear Modulus (GPa) = 25.88847 30.36629 28.12738
#
# Velocity S-wave (km/s) = 3.36541 3.64486 3.50792
# Velocity P-wave (km/s) = 6.17887 6.66387 6.42595
#
# Compressibility (1/GPa) = 0.01895785
#
# Stress axis : x y z
#
# Youngs Moduli (GPa) = 38.15619 92.48683 110.56381
#
# Poissons Ratio (x) = 0.66633 0.62626
# Poissons Ratio (y) = 0.27490 0.07570
# Poissons Ratio (z) = 0.21612 0.06333
#
# Static dielectric constant tensor:
#      x y z
#    x 1.849850 0.000000 0.000000 
#    y 0.000000 1.931580 0.000000 
#    z 0.000000 0.000000 1.839810 
# 
# From -- ./inp_files/8188.got.cif
#   From: 2010.05.17/outbox.cif.g08.bks.cpg/sg23_5_cif.got.tgz:8188.got - 2010.06.04 12:02:01.
