data_PCOD9331325
_publ_section_title
;
Structure prediction by ZEFSAII (Michael W. Deem and Ramdas Pophale) SiO2 
 PCOD9331325
Probable space group: I 2 2 2
;
_chemical_formula_sum "Si O2"
_cell_formula_units_Z 36
_cell_length_a 6.942757
_cell_length_b 13.635348
_cell_length_c 14.983487
_cell_angle_alpha 90.000000
_cell_angle_beta 90.000000
_cell_angle_gamma 90.000000
_cell_volume 1418.440382
_symmetry_space_group_name_H-M "I 2 2 2"
_symmetry_group_IT_number 23
_symmetry_cell_setting 'orthorhombic'
loop_
_space_group_symop_operation_xyz
x,y,z
-x,-y,z
x,-y,-z
-x,y,-z
1/2+x,1/2+y,1/2+z
1/2-x,1/2-y,1/2+z
1/2+x,1/2-y,1/2-z
1/2-x,1/2+y,1/2-z
loop_
_atom_site_type_symbol
_atom_site_label
_atom_site_fract_x
_atom_site_fract_y
_atom_site_fract_z
Si Si1 0.882653 0.632041 0.822104
Si Si2 0.500000 0.130330 0.500000
Si Si3 0.159259 0.258153 0.578062
Si Si4 0.302583 0.339657 0.265088
Si Si5 0.777197 0.468751 0.345243
O O1 0.817885 0.744051 0.826629
O O2 0.750030 0.574246 0.754432
O O3 0.090824 0.633322 0.773100
O O4 0.889061 0.581878 0.917817
O O5 0.340713 0.196480 0.546333
O O6 0.101245 0.202803 0.672210
O O7 0.233589 0.369343 0.596522
O O8 0.000000 0.257912 0.500000
O O9 0.342148 0.429889 0.333888
O O10 0.000000 0.500000 0.363974
#
# Coordination Sequence:
#
# PCOD9331325 Si02
#       5
#     8   4   8   8   8
#     4   9  19  36  59  87 120 161 201 260 318 382
#     4  10  22  38  62  94 124 158 208 268 318 384
#     4  10  22  40  66  93 127 169 211 270 327 379
#     4   9  19  38  62  89 121 167 213 254 325 396
#     4   9  19  38  65  90 119 172 211 255 325 394
#
# _framework density 25.379987
#
# number of rings (size 3 to 8) (size 9 to 14) (size 15 to 20)
#    0.000    2.667    0.000    0.000    9.333    0.444 
#    0.000   25.000    0.000    1.333    0.000    0.000 
#    0.000    0.000    0.000    0.000    0.000    0.000 
#
# Total GULP energy -100273.533725 kJ/mol
# GULP energy per Si atom -5570.751874 kJ/mol
# Density = 2.532222 g / cm^3
# Si number density = 25.379987 Si / 1000 Ang^3
#
#
#
# Elastic Constant Matrix: (Units=GPa)
#
#
# Indices 1 2 3 4 5 6 
#
# 1 53.7534 1.9977 9.0271 0.0000 0.0000 0.0000
# 2 1.9977 136.9030 -21.4511 0.0000 0.0000 0.0000
# 3 9.0271 -21.4511 74.6235 0.0000 0.0000 0.0000
# 4 0.0000 0.0000 0.0000 2.0500 0.0000 0.0000
# 5 0.0000 0.0000 0.0000 0.0000 40.4948 0.0000
# 6 0.0000 0.0000 0.0000 0.0000 0.0000 43.8345
#
#
#
# Elastic Compliance Matrix: (Units=1/GPa)
#
#
# Indices 1 2 3 4 5 6 
#
# 1 0.019048 -0.000669 -0.002497 0.000000 0.000000 0.000000
# 2 -0.000669 0.007672 0.002286 0.000000 0.000000 0.000000
# 3 -0.002497 0.002286 0.014360 0.000000 0.000000 0.000000
# 4 0.000000 0.000000 0.000000 0.487797 0.000000 0.000000
# 5 0.000000 0.000000 0.000000 0.000000 0.024695 0.000000
# 6 0.000000 0.000000 0.000000 0.000000 0.000000 0.022813
#
#
# Mechanical properties :
#
#
# Convention : Reuss Voigt Hill
#
# Bulk Modulus (GPa) = 25.43133 27.15859 26.29496
# Shear Modulus (GPa) = 8.45666 35.65628 22.05647
#
# Velocity S-wave (km/s) = 1.82736 3.75226 2.95116
# Velocity P-wave (km/s) = 3.80714 5.43108 4.68993
#
# Compressibility (1/GPa) = 0.03932157
#
# Stress axis : x y z
#
# Youngs Moduli (GPa) = 52.50012 130.33616 69.63851
#
# Poissons Ratio (x) = 0.08721 0.17385
# Poissons Ratio (y) = 0.03513 -0.15923
# Poissons Ratio (z) = 0.13107 -0.29801
#
# Static dielectric constant tensor:
#      x y z
#    x 2.117950 0.000000 0.000000 
#    y 0.000000 2.086960 0.000000 
#    z 0.000000 0.000000 2.085370 
# 
# From -- ./inp_files/19728.got.cif
#   From: 2010.05.17/outbox.cif.g08.bks.cpg/sg23_10_cif.got.tgz:19728.got - 2010.06.04 12:02:01.
