data_PCOD9331667
_publ_section_title
;
Structure prediction by ZEFSAII (Michael W. Deem and Ramdas Pophale) SiO2 
 PCOD9331667
Probable space group: I 2 2 2
;
_chemical_formula_sum "Si O2"
_cell_formula_units_Z 34
_cell_length_a 9.552428
_cell_length_b 8.867748
_cell_length_c 20.163970
_cell_angle_alpha 90.000000
_cell_angle_beta 90.000000
_cell_angle_gamma 90.000000
_cell_volume 1708.060143
_symmetry_space_group_name_H-M "I 2 2 2"
_symmetry_group_IT_number 23
_symmetry_cell_setting 'orthorhombic'
loop_
_space_group_symop_operation_xyz
x,y,z
-x,-y,z
x,-y,-z
-x,y,-z
1/2+x,1/2+y,1/2+z
1/2-x,1/2-y,1/2+z
1/2+x,1/2-y,1/2-z
1/2-x,1/2+y,1/2-z
loop_
_atom_site_type_symbol
_atom_site_label
_atom_site_fract_x
_atom_site_fract_y
_atom_site_fract_z
Si Si1 0.882562 0.880302 0.694553
Si Si2 0.500000 0.000000 0.000000
Si Si3 0.000000 0.500000 0.902583
Si Si4 0.090293 0.763883 0.590376
Si Si5 0.816029 0.343841 0.191368
Si Si6 0.245292 0.500000 0.000000
O O1 0.858228 0.738125 0.741572
O O2 0.945340 0.823812 0.623672
O O3 0.746233 0.986513 0.695760
O O4 0.000000 0.000000 0.719745
O O5 0.419947 0.888528 0.049511
O O6 0.053931 0.363532 0.857520
O O7 0.131759 0.556903 0.945913
O O8 0.195233 0.752742 0.652668
O O9 0.157945 0.883332 0.539417
#
# Coordination Sequence:
#
# PCOD9331667 Si02
#       6
#     8   2   4   8   8   4
#     4  10  24  42  65  96 129 171 215 272 320 386
#     4  12  28  36  68  92 132 166 216 282 298 394
#     4   9  20  37  70  95 116 173 204 268 316 391
#     4  10  25  43  63  98 123 174 215 268 326 378
#     4  10  23  41  66  95 128 170 215 271 325 383
#     4   9  20  45  68  88 129 163 226 252 330 401
#
# _framework density 19.905622000000001
#
# number of rings (size 3 to 8) (size 9 to 14) (size 15 to 20)
#    0.000    2.118    0.000    0.000   23.059    0.000 
#    4.235    0.000    0.000    0.000    0.000    0.000 
#    0.000    0.000    0.000    0.000    0.000    0.000 
#
# Total GULP energy -94758.009163 kJ/mol
# GULP energy per Si atom -5574.000539 kJ/mol
# Density = 1.986032 g / cm^3
# Si number density = 19.905622 Si / 1000 Ang^3
#
#
#
# Elastic Constant Matrix: (Units=GPa)
#
#
# Indices 1 2 3 4 5 6 
#
# 1 86.1835 53.4624 57.2918 0.0000 0.0000 0.0000
# 2 53.4624 92.2156 66.7332 0.0000 0.0000 0.0000
# 3 57.2918 66.7332 129.6409 0.0000 0.0000 0.0000
# 4 0.0000 0.0000 0.0000 52.0486 0.0000 0.0000
# 5 0.0000 0.0000 0.0000 0.0000 11.8053 0.0000
# 6 0.0000 0.0000 0.0000 0.0000 0.0000 16.7076
#
#
#
# Elastic Compliance Matrix: (Units=1/GPa)
#
#
# Indices 1 2 3 4 5 6 
#
# 1 0.019633 -0.008133 -0.004490 0.000000 0.000000 0.000000
# 2 -0.008133 0.020651 -0.007036 0.000000 0.000000 0.000000
# 3 -0.004490 -0.007036 0.013320 0.000000 0.000000 0.000000
# 4 0.000000 0.000000 0.000000 0.019213 0.000000 0.000000
# 5 0.000000 0.000000 0.000000 0.000000 0.084708 0.000000
# 6 0.000000 0.000000 0.000000 0.000000 0.000000 0.059853
#
#
# Mechanical properties :
#
#
# Convention : Reuss Voigt Hill
#
# Bulk Modulus (GPa) = 69.99952 73.66828 71.83390
# Shear Modulus (GPa) = 19.12358 24.81581 21.96969
#
# Velocity S-wave (km/s) = 3.10290 3.53466 3.32579
# Velocity P-wave (km/s) = 6.93393 7.33127 7.13537
#
# Compressibility (1/GPa) = 0.01428581
#
# Stress axis : x y z
#
# Youngs Moduli (GPa) = 50.93429 48.42352 75.07774
#
# Poissons Ratio (x) = 0.39384 0.33708
# Poissons Ratio (y) = 0.41426 0.52824
# Poissons Ratio (z) = 0.22868 0.34070
#
# Static dielectric constant tensor:
#      x y z
#    x 1.792670 0.000000 0.000000 
#    y 0.000000 1.712490 0.000000 
#    z 0.000000 0.000000 1.750380 
# 
# From -- ./inp_files/6741.got.cif
#   From: 2010.05.17/outbox.cif.g08.bks.cpg/sg23_4_cif.got.tgz:6741.got - 2010.06.04 12:02:01.
