data_PCOD9331904
_publ_section_title
;
Structure prediction by ZEFSAII (Michael W. Deem and Ramdas Pophale) SiO2 
 PCOD9331904
Probable space group: I 2 2 2
;
_chemical_formula_sum "Si O2"
_cell_formula_units_Z 30
_cell_length_a 12.115185
_cell_length_b 13.252221
_cell_length_c 7.970298
_cell_angle_alpha 90.000000
_cell_angle_beta 90.000000
_cell_angle_gamma 90.000000
_cell_volume 1279.656124
_symmetry_space_group_name_H-M "I 2 2 2"
_symmetry_group_IT_number 23
_symmetry_cell_setting 'orthorhombic'
loop_
_space_group_symop_operation_xyz
x,y,z
-x,-y,z
x,-y,-z
-x,y,-z
1/2+x,1/2+y,1/2+z
1/2-x,1/2-y,1/2+z
1/2+x,1/2-y,1/2-z
1/2-x,1/2+y,1/2-z
loop_
_atom_site_type_symbol
_atom_site_label
_atom_site_fract_x
_atom_site_fract_y
_atom_site_fract_z
Si Si1 0.000000 0.321520 0.500000
Si Si2 0.694141 0.689988 0.835332
Si Si3 0.194995 0.500000 0.000000
Si Si4 0.000000 0.500000 0.250892
Si Si5 0.114454 0.814524 0.039522
Si Si6 0.000000 0.000000 0.000000
O O1 0.095045 0.250863 0.423708
O O2 0.963945 0.402211 0.357863
O O3 0.769840 0.908706 0.436691
O O4 0.801393 0.761136 0.841556
O O5 0.666288 0.667316 0.642975
O O6 0.107963 0.468963 0.145201
O O7 0.073697 0.922981 0.105852
O O8 0.000000 0.756056 0.000000
#
# Coordination Sequence:
#
# PCOD9331904 Si02
#       6
#     4   8   4   4   8   2
#     4  11  26  45  70 106 142 191 238 289 356 430
#     4  12  26  44  77 104 145 186 242 290 360 417
#     4  11  26  43  72 106 142 189 235 296 346 430
#     4  10  24  46  68 104 148 182 236 292 362 416
#     4  10  26  47  76 103 143 185 239 299 353 421
#     4   8  24  48  76  98 144 180 236 294 358 418
#
# _framework density 23.443797
#
# number of rings (size 3 to 8) (size 9 to 14) (size 15 to 20)
#    0.800    0.533    0.000    3.200   11.200    9.067 
#    0.000    0.000    0.000    0.000    0.000    0.000 
#    0.000    0.000    0.000    0.000    0.000    0.000 
#
# Total GULP energy -83906.316581 kJ/mol
# GULP energy per Si atom -5593.754439 kJ/mol
# Density = 2.339044 g / cm^3
# Si number density = 23.443797 Si / 1000 Ang^3
#
#
#
# Elastic Constant Matrix: (Units=GPa)
#
#
# Indices 1 2 3 4 5 6 
#
# 1 102.7649 42.1762 26.9941 0.0000 0.0000 0.0000
# 2 42.1762 131.4167 36.1257 0.0000 0.0000 0.0000
# 3 26.9941 36.1257 96.0217 0.0000 0.0000 0.0000
# 4 0.0000 0.0000 0.0000 20.8089 0.0000 0.0000
# 5 0.0000 0.0000 0.0000 0.0000 16.8710 0.0000
# 6 0.0000 0.0000 0.0000 0.0000 0.0000 57.0557
#
#
#
# Elastic Compliance Matrix: (Units=1/GPa)
#
#
# Indices 1 2 3 4 5 6 
#
# 1 0.011564 -0.003143 -0.002069 0.000000 0.000000 0.000000
# 2 -0.003143 0.009341 -0.002631 0.000000 0.000000 0.000000
# 3 -0.002069 -0.002631 0.011986 0.000000 0.000000 0.000000
# 4 0.000000 0.000000 0.000000 0.048056 0.000000 0.000000
# 5 0.000000 0.000000 0.000000 0.000000 0.059273 0.000000
# 6 0.000000 0.000000 0.000000 0.000000 0.000000 0.017527
#
#
# Mechanical properties :
#
#
# Convention : Reuss Voigt Hill
#
# Bulk Modulus (GPa) = 58.11724 60.08837 59.10280
# Shear Modulus (GPa) = 27.90689 33.94095 30.92392
#
# Velocity S-wave (km/s) = 3.45392 3.80907 3.63584
# Velocity P-wave (km/s) = 6.38357 6.71057 6.54911
#
# Compressibility (1/GPa) = 0.01720660
#
# Stress axis : x y z
#
# Youngs Moduli (GPa) = 86.47433 107.05264 83.43296
#
# Poissons Ratio (x) = 0.33643 0.17259
# Poissons Ratio (y) = 0.27176 0.21950
# Poissons Ratio (z) = 0.17888 0.28165
#
# Static dielectric constant tensor:
#      x y z
#    x 1.983000 0.000000 0.000000 
#    y 0.000000 1.889540 0.000000 
#    z 0.000000 0.000000 1.908020 
# 
# From -- ./inp_files/9383.got.cif
#   From: 2010.05.17/outbox.cif.g08.bks.cpg/sg23_5_cif.got.tgz:9383.got - 2010.06.04 12:02:01.
