data_PCOD9331767
_publ_section_title
;
Structure prediction by ZEFSAII (Michael W. Deem and Ramdas Pophale) SiO2 
 PCOD9331767
Probable space group: I 2 2 2
;
_chemical_formula_sum "Si O2"
_cell_formula_units_Z 40
_cell_length_a 10.602971
_cell_length_b 8.079190
_cell_length_c 19.196927
_cell_angle_alpha 90.000000
_cell_angle_beta 90.000000
_cell_angle_gamma 90.000000
_cell_volume 1644.474368
_symmetry_space_group_name_H-M "I 2 2 2"
_symmetry_group_IT_number 23
_symmetry_cell_setting 'orthorhombic'
loop_
_space_group_symop_operation_xyz
x,y,z
-x,-y,z
x,-y,-z
-x,y,-z
1/2+x,1/2+y,1/2+z
1/2-x,1/2-y,1/2+z
1/2+x,1/2-y,1/2-z
1/2-x,1/2+y,1/2-z
loop_
_atom_site_type_symbol
_atom_site_label
_atom_site_fract_x
_atom_site_fract_y
_atom_site_fract_z
Si Si1 0.615341 0.116362 0.358423
Si Si2 0.052725 0.816094 0.237872
Si Si3 0.253409 0.204497 0.374086
Si Si4 0.029891 0.804065 0.390253
Si Si5 0.260791 0.689495 0.477196
O O1 0.561130 0.200406 0.289321
O O2 0.650112 0.255456 0.414007
O O3 0.500000 0.000000 0.382985
O O4 0.728900 0.985526 0.349623
O O5 0.161385 0.804523 0.179968
O O6 0.092398 0.764879 0.315243
O O7 0.000000 0.000000 0.242990
O O8 0.297520 0.209509 0.453973
O O9 0.110848 0.267425 0.380813
O O10 0.120668 0.736831 0.450094
O O11 0.000000 0.000000 0.401901
O O12 0.268950 0.500000 0.500000
#
# Coordination Sequence:
#
# PCOD9331767 Si02
#       5
#     8   8   8   8   8
#     4  10  23  45  73 107 144 198 248 295 381 450
#     4  10  24  45  71 110 146 193 247 315 371 440
#     4  11  24  44  72 104 145 201 240 305 374 451
#     4  11  25  45  75 106 153 196 247 301 383 454
#     4  12  26  46  73 112 147 193 250 315 366 443
#
# _framework density 24.323882000000001
#
# number of rings (size 3 to 8) (size 9 to 14) (size 15 to 20)
#    0.000    1.200    2.000    2.400    2.800    8.000 
#   10.800    5.000    0.000    0.000    0.000    0.000 
#    0.000    0.000    0.000    0.000    0.000    0.000 
#
# Total GULP energy -111927.692190 kJ/mol
# GULP energy per Si atom -5596.384610 kJ/mol
# Density = 2.426852 g / cm^3
# Si number density = 24.323882 Si / 1000 Ang^3
#
#
#
# Elastic Constant Matrix: (Units=GPa)
#
#
# Indices 1 2 3 4 5 6 
#
# 1 66.7414 16.3687 17.0415 0.0000 0.0000 0.0000
# 2 16.3687 95.3043 26.9082 0.0000 0.0000 0.0000
# 3 17.0415 26.9082 113.5531 0.0000 0.0000 0.0000
# 4 0.0000 0.0000 0.0000 25.9838 0.0000 0.0000
# 5 0.0000 0.0000 0.0000 0.0000 58.3795 0.0000
# 6 0.0000 0.0000 0.0000 0.0000 0.0000 39.9115
#
#
#
# Elastic Compliance Matrix: (Units=1/GPa)
#
#
# Indices 1 2 3 4 5 6 
#
# 1 0.016007 -0.002219 -0.001876 0.000000 0.000000 0.000000
# 2 -0.002219 0.011553 -0.002405 0.000000 0.000000 0.000000
# 3 -0.001876 -0.002405 0.009658 0.000000 0.000000 0.000000
# 4 0.000000 0.000000 0.000000 0.038486 0.000000 0.000000
# 5 0.000000 0.000000 0.000000 0.000000 0.017129 0.000000
# 6 0.000000 0.000000 0.000000 0.000000 0.000000 0.025055
#
#
# Mechanical properties :
#
#
# Convention : Reuss Voigt Hill
#
# Bulk Modulus (GPa) = 41.29367 44.02617 42.65992
# Shear Modulus (GPa) = 35.98154 39.20700 37.59427
#
# Velocity S-wave (km/s) = 3.85030 4.01917 3.93564
# Velocity P-wave (km/s) = 6.06464 6.29901 6.18294
#
# Compressibility (1/GPa) = 0.02421679
#
# Stress axis : x y z
#
# Youngs Moduli (GPa) = 62.47422 86.55918 103.54298
#
# Poissons Ratio (x) = 0.19211 0.19427
# Poissons Ratio (y) = 0.13866 0.24897
# Poissons Ratio (z) = 0.11722 0.20813
#
# Static dielectric constant tensor:
#      x y z
#    x 2.055750 0.000000 0.000000 
#    y 0.000000 1.955100 0.000000 
#    z 0.000000 0.000000 1.923810 
# 
# From -- ./inp_files/24173.got.cif
#   From: 2010.05.17/outbox.cif.g08.bks.cpg/sg23_13_cif.got.tgz:24173.got - 2010.06.04 12:02:01.
