data_PCOD9331624
_publ_section_title
;
Structure prediction by ZEFSAII (Michael W. Deem and Ramdas Pophale) SiO2 
 PCOD9331624
Probable space group: I 2 2 2
;
_chemical_formula_sum "Si O2"
_cell_formula_units_Z 40
_cell_length_a 14.601028
_cell_length_b 10.453906
_cell_length_c 11.563036
_cell_angle_alpha 90.000000
_cell_angle_beta 90.000000
_cell_angle_gamma 90.000000
_cell_volume 1764.956078
_symmetry_space_group_name_H-M "I 2 2 2"
_symmetry_group_IT_number 23
_symmetry_cell_setting 'orthorhombic'
loop_
_space_group_symop_operation_xyz
x,y,z
-x,-y,z
x,-y,-z
-x,y,-z
1/2+x,1/2+y,1/2+z
1/2-x,1/2-y,1/2+z
1/2+x,1/2-y,1/2-z
1/2-x,1/2+y,1/2-z
loop_
_atom_site_type_symbol
_atom_site_label
_atom_site_fract_x
_atom_site_fract_y
_atom_site_fract_z
Si Si1 0.374925 0.793411 0.285769
Si Si2 0.672255 0.949783 0.375593
Si Si3 0.106340 0.813999 0.026054
Si Si4 0.977842 0.150383 0.368068
Si Si5 0.695481 0.408751 0.732200
O O1 0.395946 0.938105 0.331176
O O2 0.350399 0.715444 0.401753
O O3 0.456143 0.729052 0.216295
O O4 0.284088 0.819771 0.211395
O O5 0.625086 0.184775 0.601596
O O6 0.758854 0.966045 0.289772
O O7 0.706519 0.000000 0.500000
O O8 0.142935 0.922588 0.111901
O O9 0.000000 0.830386 0.000000
O O10 0.873158 0.155705 0.324840
O O11 0.000000 0.187660 0.500000
O O12 0.000000 0.000000 0.356285
#
# Coordination Sequence:
#
# PCOD9331624 Si02
#       5
#     8   8   8   8   8
#     4   9  22  39  62 100 131 183 229 289 347 428
#     4   8  20  36  66  94 133 178 235 277 353 419
#     4  11  20  40  67 100 131 179 244 292 350 420
#     4  11  25  40  68  97 137 178 232 285 361 433
#     4  10  23  38  61  97 136 172 224 289 349 411
#
# _framework density 22.663453000000001
#
# number of rings (size 3 to 8) (size 9 to 14) (size 15 to 20)
#    1.200    1.000    2.000    0.000    8.400    3.600 
#    0.000    2.000    0.000    4.800    0.000    0.000 
#    0.000    0.000    0.000    0.000    0.000    0.000 
#
# Total GULP energy -111587.136103 kJ/mol
# GULP energy per Si atom -5579.356805 kJ/mol
# Density = 2.261187 g / cm^3
# Si number density = 22.663453 Si / 1000 Ang^3
#
#
#
# Elastic Constant Matrix: (Units=GPa)
#
#
# Indices 1 2 3 4 5 6 
#
# 1 112.3221 23.7774 37.8097 0.0000 0.0000 0.0000
# 2 23.7774 97.9270 36.4391 0.0000 0.0000 0.0000
# 3 37.8097 36.4391 129.1439 0.0000 0.0000 0.0000
# 4 0.0000 0.0000 0.0000 37.6029 0.0000 0.0000
# 5 0.0000 0.0000 0.0000 0.0000 49.0884 0.0000
# 6 0.0000 0.0000 0.0000 0.0000 0.0000 29.6257
#
#
#
# Elastic Compliance Matrix: (Units=1/GPa)
#
#
# Indices 1 2 3 4 5 6 
#
# 1 0.010071 -0.001506 -0.002524 0.000000 0.000000 0.000000
# 2 -0.001506 0.011635 -0.002842 0.000000 0.000000 0.000000
# 3 -0.002524 -0.002842 0.009284 0.000000 0.000000 0.000000
# 4 0.000000 0.000000 0.000000 0.026594 0.000000 0.000000
# 5 0.000000 0.000000 0.000000 0.000000 0.020371 0.000000
# 6 0.000000 0.000000 0.000000 0.000000 0.000000 0.033754
#
#
# Mechanical properties :
#
#
# Convention : Reuss Voigt Hill
#
# Bulk Modulus (GPa) = 57.98236 59.49394 58.73815
# Shear Modulus (GPa) = 38.10908 39.35451 38.73179
#
# Velocity S-wave (km/s) = 4.10508 4.17162 4.13849
# Velocity P-wave (km/s) = 6.93603 7.03643 6.98641
#
# Compressibility (1/GPa) = 0.01724663
#
# Stress axis : x y z
#
# Youngs Moduli (GPa) = 99.29177 85.94812 107.71229
#
# Poissons Ratio (x) = 0.12947 0.27182
# Poissons Ratio (y) = 0.14957 0.30611
# Poissons Ratio (z) = 0.25057 0.24425
#
# Static dielectric constant tensor:
#      x y z
#    x 1.834250 0.000000 0.000000 
#    y 0.000000 1.921890 0.000000 
#    z 0.000000 0.000000 1.842570 
# 
# From -- ./inp_files/16503.got.cif
#   From: 2010.05.17/outbox.cif.g08.bks.cpg/sg23_9_cif.got.tgz:16503.got - 2010.06.04 12:02:01.
