data_PCOD9331256
_publ_section_title
;
Structure prediction by ZEFSAII (Michael W. Deem and Ramdas Pophale) SiO2 
 PCOD9331256
Probable space group: I 2 2 2
;
_chemical_formula_sum "Si O2"
_cell_formula_units_Z 40
_cell_length_a 8.798748
_cell_length_b 8.400678
_cell_length_c 29.909628
_cell_angle_alpha 90.000000
_cell_angle_beta 90.000000
_cell_angle_gamma 90.000000
_cell_volume 2210.783576
_symmetry_space_group_name_H-M "I 2 2 2"
_symmetry_group_IT_number 23
_symmetry_cell_setting 'orthorhombic'
loop_
_space_group_symop_operation_xyz
x,y,z
-x,-y,z
x,-y,-z
-x,y,-z
1/2+x,1/2+y,1/2+z
1/2-x,1/2-y,1/2+z
1/2+x,1/2-y,1/2-z
1/2-x,1/2+y,1/2-z
loop_
_atom_site_type_symbol
_atom_site_label
_atom_site_fract_x
_atom_site_fract_y
_atom_site_fract_z
Si Si1 0.769850 0.192006 0.784724
Si Si2 0.677155 0.458689 0.191122
Si Si3 0.500000 0.500000 0.653364
Si Si4 0.500000 0.000000 0.829576
Si Si5 0.116685 0.877153 0.533812
Si Si6 0.739796 0.784063 0.882118
O O1 0.756393 0.377114 0.795344
O O2 0.804278 0.160340 0.732964
O O3 0.900405 0.111389 0.814340
O O4 0.614517 0.103744 0.799518
O O5 0.500000 0.500000 0.183928
O O6 0.748160 0.374000 0.148238
O O7 0.387480 0.608066 0.624391
O O8 0.600207 0.884293 0.860846
O O9 0.206216 0.770092 0.567595
O O10 0.000000 0.787831 0.500000
O O11 0.202635 0.000000 0.500000
O O12 0.000000 0.000000 0.559078
#
# Coordination Sequence:
#
# PCOD9331256 Si02
#       6
#     8   8   4   4   8   8
#     4  11  23  38  51  87 116 170 200 259 289 341
#     4  12  24  36  63  78 122 164 222 248 297 349
#     4  10  24  38  54  86 135 150 201 248 310 354
#     4  10  22  34  61  80 128 156 205 246 292 358
#     4   6  16  32  62  92 117 134 193 259 284 355
#     4  11  20  39  58  93 118 162 200 249 308 361
#
# _framework density 18.093132000000001
#
# number of rings (size 3 to 8) (size 9 to 14) (size 15 to 20)
#    1.200    0.800    3.000    3.000    0.000    0.800 
#    0.000    0.500    0.000    0.000    0.000   40.600 
#    0.000    0.000    0.000    0.000    0.000    0.000 
#
# Total GULP energy -111486.815421 kJ/mol
# GULP energy per Si atom -5574.340771 kJ/mol
# Density = 1.805195 g / cm^3
# Si number density = 18.093132 Si / 1000 Ang^3
#
#
#
# Elastic Constant Matrix: (Units=GPa)
#
#
# Indices 1 2 3 4 5 6 
#
# 1 82.8615 27.4996 35.9728 0.0000 0.0000 0.0000
# 2 27.4996 92.3962 34.5883 0.0000 0.0000 0.0000
# 3 35.9728 34.5883 114.3145 0.0000 0.0000 0.0000
# 4 0.0000 0.0000 0.0000 28.2444 0.0000 0.0000
# 5 0.0000 0.0000 0.0000 0.0000 11.6344 0.0000
# 6 0.0000 0.0000 0.0000 0.0000 0.0000 22.0587
#
#
#
# Elastic Compliance Matrix: (Units=1/GPa)
#
#
# Indices 1 2 3 4 5 6 
#
# 1 0.014669 -0.002975 -0.003716 0.000000 0.000000 0.000000
# 2 -0.002975 0.012809 -0.002939 0.000000 0.000000 0.000000
# 3 -0.003716 -0.002939 0.010807 0.000000 0.000000 0.000000
# 4 0.000000 0.000000 0.000000 0.035405 0.000000 0.000000
# 5 0.000000 0.000000 0.000000 0.000000 0.085952 0.000000
# 6 0.000000 0.000000 0.000000 0.000000 0.000000 0.045334
#
#
# Mechanical properties :
#
#
# Convention : Reuss Voigt Hill
#
# Bulk Modulus (GPa) = 52.56592 53.96593 53.26593
# Shear Modulus (GPa) = 21.68478 25.15493 23.41985
#
# Velocity S-wave (km/s) = 3.46570 3.73272 3.60169
# Velocity P-wave (km/s) = 6.71795 6.96198 6.84105
#
# Compressibility (1/GPa) = 0.01902373
#
# Stress axis : x y z
#
# Youngs Moduli (GPa) = 68.17195 78.07190 92.53673
#
# Poissons Ratio (x) = 0.23225 0.34386
# Poissons Ratio (y) = 0.20280 0.27201
# Poissons Ratio (z) = 0.25332 0.22949
#
# Static dielectric constant tensor:
#      x y z
#    x 1.637790 0.000000 0.000000 
#    y 0.000000 1.634650 0.000000 
#    z 0.000000 0.000000 1.598860 
# 
# From -- ./inp_files/12917.got.cif
#   From: 2010.05.17/outbox.cif.g08.bks.cpg/sg23_7_cif.got.tgz:12917.got - 2010.06.04 12:02:01.
