data_PCOD9331944
_publ_section_title
;
Structure prediction by ZEFSAII (Michael W. Deem and Ramdas Pophale) SiO2 
 PCOD9331944
Probable space group: I 2 2 2
;
_chemical_formula_sum "Si O2"
_cell_formula_units_Z 40
_cell_length_a 12.242634
_cell_length_b 16.342890
_cell_length_c 9.146816
_cell_angle_alpha 90.000000
_cell_angle_beta 90.000000
_cell_angle_gamma 90.000000
_cell_volume 1830.095135
_symmetry_space_group_name_H-M "I 2 2 2"
_symmetry_group_IT_number 23
_symmetry_cell_setting 'orthorhombic'
loop_
_space_group_symop_operation_xyz
x,y,z
-x,-y,z
x,-y,-z
-x,y,-z
1/2+x,1/2+y,1/2+z
1/2-x,1/2-y,1/2+z
1/2+x,1/2-y,1/2-z
1/2-x,1/2+y,1/2-z
loop_
_atom_site_type_symbol
_atom_site_label
_atom_site_fract_x
_atom_site_fract_y
_atom_site_fract_z
Si Si1 0.529914 0.095000 0.836431
Si Si2 0.727122 0.200145 0.911496
Si Si3 0.550843 0.767760 0.661557
Si Si4 0.418378 0.350537 0.124494
Si Si5 0.879159 0.083070 0.079053
O O1 0.651599 0.133651 0.827119
O O2 0.455648 0.141020 0.720855
O O3 0.500000 0.000000 0.828433
O O4 0.500000 0.123031 0.000000
O O5 0.829960 0.231375 0.821049
O O6 0.666305 0.285720 0.948137
O O7 0.789401 0.151925 0.040930
O O8 0.500000 0.767788 0.500000
O O9 0.477310 0.712082 0.764737
O O10 0.384554 0.419152 0.244208
O O11 0.500000 0.381169 0.000000
O O12 0.000000 0.096498 0.000000
O O13 0.841118 0.000000 0.000000
#
# Coordination Sequence:
#
# PCOD9331944 Si02
#       5
#     8   8   8   8   8
#     4  10  25  41  61  98 140 176 229 301 351 430
#     4  11  22  38  72  94 138 182 230 279 361 418
#     4  11  21  40  66  98 133 181 240 284 339 430
#     4  11  24  40  68 102 137 175 237 296 337 424
#     4  11  24  44  68  98 138 185 234 287 357 432
#
# _framework density 21.856787000000001
#
# number of rings (size 3 to 8) (size 9 to 14) (size 15 to 20)
#    0.000    1.200    4.000    2.400    8.400    0.400 
#    0.000    2.000    0.000    4.800    0.000    0.000 
#    0.000    0.000    0.000    0.000    0.000    0.000 
#
# Total GULP energy -111429.859502 kJ/mol
# GULP energy per Si atom -5571.492975 kJ/mol
# Density = 2.180704 g / cm^3
# Si number density = 21.856787 Si / 1000 Ang^3
#
#
#
# Elastic Constant Matrix: (Units=GPa)
#
#
# Indices 1 2 3 4 5 6 
#
# 1 100.9050 37.1305 24.1246 0.0000 0.0000 0.0000
# 2 37.1305 80.0434 52.9031 0.0000 0.0000 0.0000
# 3 24.1246 52.9031 128.6609 0.0000 0.0000 0.0000
# 4 0.0000 0.0000 0.0000 35.2241 0.0000 0.0000
# 5 0.0000 0.0000 0.0000 0.0000 25.4327 0.0000
# 6 0.0000 0.0000 0.0000 0.0000 0.0000 1.8991
#
#
#
# Elastic Compliance Matrix: (Units=1/GPa)
#
#
# Indices 1 2 3 4 5 6 
#
# 1 0.011950 -0.005579 0.000053 0.000000 0.000000 0.000000
# 2 -0.005579 0.019760 -0.007079 0.000000 0.000000 0.000000
# 3 0.000053 -0.007079 0.010673 0.000000 0.000000 0.000000
# 4 0.000000 0.000000 0.000000 0.028390 0.000000 0.000000
# 5 0.000000 0.000000 0.000000 0.000000 0.039319 0.000000
# 6 0.000000 0.000000 0.000000 0.000000 0.000000 0.526574
#
#
# Mechanical properties :
#
#
# Convention : Reuss Voigt Hill
#
# Bulk Modulus (GPa) = 58.22608 59.76952 58.99780
# Shear Modulus (GPa) = 7.48952 25.54126 16.51539
#
# Velocity S-wave (km/s) = 1.85312 3.42215 2.75183
# Velocity P-wave (km/s) = 5.59253 6.55897 6.09494
#
# Compressibility (1/GPa) = 0.01717443
#
# Stress axis : x y z
#
# Youngs Moduli (GPa) = 83.67908 50.60830 93.69359
#
# Poissons Ratio (x) = 0.28232 -0.00497
# Poissons Ratio (y) = 0.46681 0.66324
# Poissons Ratio (z) = -0.00444 0.35825
#
# Static dielectric constant tensor:
#      x y z
#    x 1.875180 0.000000 0.000000 
#    y 0.000000 1.877630 0.000000 
#    z 0.000000 0.000000 1.826970 
# 
# From -- ./inp_files/8218.got.cif
#   From: 2010.05.17/outbox.cif.g08.bks.cpg/sg23_5_cif.got.tgz:8218.got - 2010.06.04 12:02:01.
