data_PCOD9331276
_publ_section_title
;
Structure prediction by ZEFSAII (Michael W. Deem and Ramdas Pophale) SiO2 
 PCOD9331276
Probable space group: I 2 2 2
;
_chemical_formula_sum "Si O2"
_cell_formula_units_Z 64
_cell_length_a 16.363021
_cell_length_b 13.046275
_cell_length_c 16.598753
_cell_angle_alpha 90.000000
_cell_angle_beta 90.000000
_cell_angle_gamma 90.000000
_cell_volume 3543.443227
_symmetry_space_group_name_H-M "I 2 2 2"
_symmetry_group_IT_number 23
_symmetry_cell_setting 'orthorhombic'
loop_
_space_group_symop_operation_xyz
x,y,z
-x,-y,z
x,-y,-z
-x,y,-z
1/2+x,1/2+y,1/2+z
1/2-x,1/2-y,1/2+z
1/2+x,1/2-y,1/2-z
1/2-x,1/2+y,1/2-z
loop_
_atom_site_type_symbol
_atom_site_label
_atom_site_fract_x
_atom_site_fract_y
_atom_site_fract_z
Si Si1 0.406328 0.534505 0.413245
Si Si2 0.925916 0.747726 0.164250
Si Si3 0.911331 0.473172 0.906234
Si Si4 0.827079 0.294213 0.675523
Si Si5 0.817038 0.935001 0.763025
Si Si6 0.013555 0.621136 0.594927
Si Si7 0.588545 0.235997 0.769012
Si Si8 0.276075 0.889552 0.677091
O O1 0.500000 0.500000 0.411930
O O2 0.372330 0.500000 0.500000
O O3 0.408369 0.654615 0.391560
O O4 0.360767 0.475811 0.342529
O O5 0.901497 0.645568 0.115858
O O6 0.872700 0.751979 0.245946
O O7 0.019667 0.740953 0.197619
O O8 0.839059 0.542797 0.873139
O O9 0.000000 0.500000 0.868770
O O10 0.915600 0.500000 0.000000
O O11 0.765649 0.378961 0.709424
O O12 0.772606 0.204312 0.636343
O O13 0.895326 0.344560 0.619616
O O14 0.874951 0.850267 0.721255
O O15 0.790578 0.031707 0.710663
O O16 0.954115 0.687292 0.652729
O O17 0.000000 0.500000 0.611756
O O18 0.000000 0.638184 0.500000
O O19 0.665269 0.165446 0.742913
#
# Coordination Sequence:
#
# PCOD9331276 Si02
#       8
#     8   8   8   8   8   8   8   8
#     4  11  24  40  60  89 128 162 199 252 311 369
#     4  11  20  39  64  87 116 165 213 242 298 378
#     4  11  24  39  61  89 122 162 203 254 303 365
#     4  10  22  37  65  92 120 156 207 258 301 360
#     4  11  21  39  59  93 121 161 203 246 308 361
#     4  10  22  43  65  92 120 159 208 257 306 365
#     4  10  22  36  65  88 117 164 206 250 294 373
#     4  11  21  39  60  92 124 157 204 255 303 359
#
# _framework density 18.061527999999999
#
# number of rings (size 3 to 8) (size 9 to 14) (size 15 to 20)
#    0.000    1.375    5.000    0.750    1.750    4.000 
#    6.750    0.000    0.000    0.750    0.000    0.000 
#    0.000    0.000    0.000    0.000    0.000    0.000 
#
# Total GULP energy -178506.451102 kJ/mol
# GULP energy per Si atom -5578.326597 kJ/mol
# Density = 1.802042 g / cm^3
# Si number density = 18.061528 Si / 1000 Ang^3
#
#
#
# Elastic Constant Matrix: (Units=GPa)
#
#
# Indices 1 2 3 4 5 6 
#
# 1 84.5879 39.9012 27.3037 0.0000 0.0000 0.0000
# 2 39.9012 138.7601 45.9869 0.0000 0.0000 0.0000
# 3 27.3037 45.9869 76.9257 0.0000 0.0000 0.0000
# 4 0.0000 0.0000 0.0000 17.1740 0.0000 0.0000
# 5 0.0000 0.0000 0.0000 0.0000 19.5598 0.0000
# 6 0.0000 0.0000 0.0000 0.0000 0.0000 40.6287
#
#
#
# Elastic Compliance Matrix: (Units=1/GPa)
#
#
# Indices 1 2 3 4 5 6 
#
# 1 0.014306 -0.003032 -0.003265 0.000000 0.000000 0.000000
# 2 -0.003032 0.009630 -0.004681 0.000000 0.000000 0.000000
# 3 -0.003265 -0.004681 0.016957 0.000000 0.000000 0.000000
# 4 0.000000 0.000000 0.000000 0.058228 0.000000 0.000000
# 5 0.000000 0.000000 0.000000 0.000000 0.051125 0.000000
# 6 0.000000 0.000000 0.000000 0.000000 0.000000 0.024613
#
#
# Mechanical properties :
#
#
# Convention : Reuss Voigt Hill
#
# Bulk Modulus (GPa) = 52.80646 58.51748 55.66197
# Shear Modulus (GPa) = 24.61524 27.94463 26.27993
#
# Velocity S-wave (km/s) = 3.69569 3.93770 3.81861
# Velocity P-wave (km/s) = 6.89284 7.28994 7.09417
#
# Compressibility (1/GPa) = 0.01893708
#
# Stress axis : x y z
#
# Youngs Moduli (GPa) = 69.90027 103.84569 58.97357
#
# Poissons Ratio (x) = 0.31482 0.19258
# Poissons Ratio (y) = 0.21191 0.27604
# Poissons Ratio (z) = 0.22826 0.48607
#
# Static dielectric constant tensor:
#      x y z
#    x 1.645970 0.000000 0.000000 
#    y 0.000000 1.622460 0.000000 
#    z 0.000000 0.000000 1.591380 
# 
# From -- ./inp_files/24865.got.cif
#   From: 2010.05.17/outbox.cif.g08.bks.cpg/sg23_13_cif.got.tgz:24865.got - 2010.06.04 12:02:01.
