data_PCOD9331099
_publ_section_title
;
Structure prediction by ZEFSAII (Michael W. Deem and Ramdas Pophale) SiO2 
 PCOD9331099
Probable space group: I 2 2 2
;
_chemical_formula_sum "Si O2"
_cell_formula_units_Z 48
_cell_length_a 18.602598
_cell_length_b 14.968169
_cell_length_c 8.918221
_cell_angle_alpha 90.000000
_cell_angle_beta 90.000000
_cell_angle_gamma 90.000000
_cell_volume 2483.250373
_symmetry_space_group_name_H-M "I 2 2 2"
_symmetry_group_IT_number 23
_symmetry_cell_setting 'orthorhombic'
loop_
_space_group_symop_operation_xyz
x,y,z
-x,-y,z
x,-y,-z
-x,y,-z
1/2+x,1/2+y,1/2+z
1/2-x,1/2-y,1/2+z
1/2+x,1/2-y,1/2-z
1/2-x,1/2+y,1/2-z
loop_
_atom_site_type_symbol
_atom_site_label
_atom_site_fract_x
_atom_site_fract_y
_atom_site_fract_z
Si Si1 0.260375 0.586995 0.092377
Si Si2 0.685911 0.403008 0.428812
Si Si3 0.459267 0.184900 0.148917
Si Si4 0.412901 0.248313 0.675147
Si Si5 0.909441 0.593902 0.930022
Si Si6 0.682826 0.220993 0.032800
O O1 0.290227 0.580549 0.258703
O O2 0.175062 0.591878 0.102008
O O3 0.286094 0.679433 0.019999
O O4 0.282135 0.500000 0.000000
O O5 0.671608 0.500000 0.500000
O O6 0.618489 0.335313 0.409046
O O7 0.752595 0.349975 0.508725
O O8 0.512373 0.256660 0.230814
O O9 0.448858 0.110965 0.274554
O O10 0.500000 0.153724 0.000000
O O11 0.380467 0.212411 0.090525
O O12 0.421595 0.172708 0.549452
O O13 0.354699 0.216817 0.802141
O O14 0.927250 0.500000 0.000000
#
# Coordination Sequence:
#
# PCOD9331099 Si02
#       6
#     8   8   8   8   8   8
#     4  10  22  37  62  95 124 160 212 265 328 374
#     4  11  23  38  63  96 129 165 216 269 322 383
#     4  10  22  42  65  89 129 172 213 258 322 391
#     4  10  23  40  61  93 128 169 212 259 328 390
#     4  11  22  38  62  93 127 163 210 261 317 384
#     4  10  21  40  64  92 122 168 211 268 321 381
#
# _framework density 19.329504
#
# number of rings (size 3 to 8) (size 9 to 14) (size 15 to 20)
#    0.000    1.667    3.333    0.500    4.667    2.667 
#    0.000    6.667    0.000   24.500    0.000    0.000 
#    0.000    0.000    0.000    0.000    0.000    0.000 
#
# Total GULP energy -133915.012058 kJ/mol
# GULP energy per Si atom -5579.792169 kJ/mol
# Density = 1.928551 g / cm^3
# Si number density = 19.329504 Si / 1000 Ang^3
#
#
#
# Elastic Constant Matrix: (Units=GPa)
#
#
# Indices 1 2 3 4 5 6 
#
# 1 96.8081 62.3796 42.5324 0.0000 0.0000 0.0000
# 2 62.3796 154.9446 88.3142 0.0000 0.0000 0.0000
# 3 42.5324 88.3142 92.7604 0.0000 0.0000 0.0000
# 4 0.0000 0.0000 0.0000 31.2308 0.0000 0.0000
# 5 0.0000 0.0000 0.0000 0.0000 6.3093 0.0000
# 6 0.0000 0.0000 0.0000 0.0000 0.0000 -11.0248
#
#
#
# Elastic Compliance Matrix: (Units=1/GPa)
#
#
# Indices 1 2 3 4 5 6 
#
# 1 0.014175 -0.004378 -0.002331 0.000000 0.000000 0.000000
# 2 -0.004378 0.015464 -0.012715 0.000000 0.000000 0.000000
# 3 -0.002331 -0.012715 0.023955 0.000000 0.000000 0.000000
# 4 0.000000 0.000000 0.000000 0.032020 0.000000 0.000000
# 5 0.000000 0.000000 0.000000 0.000000 0.158495 0.000000
# 6 0.000000 0.000000 0.000000 0.000000 0.000000 -0.090705
#
#
# Mechanical properties :
#
#
# Convention : Reuss Voigt Hill
#
# Bulk Modulus (GPa) = 67.82017 81.21839 74.51928
# Shear Modulus (GPa) = 25.35913 15.38887 20.37400
#
# Velocity S-wave (km/s) = 3.62600 2.82465 3.25011
# Velocity P-wave (km/s) = 7.25900 7.26273 7.26086
#
# Compressibility (1/GPa) = 0.01474488
#
# Stress axis : x y z
#
# Youngs Moduli (GPa) = 70.54685 64.66742 41.74458
#
# Poissons Ratio (x) = 0.28311 0.09733
# Poissons Ratio (y) = 0.30885 0.53079
# Poissons Ratio (z) = 0.16448 0.82226
#
# Static dielectric constant tensor:
#      x y z
#    x 1.756340 0.000000 0.000000 
#    y 0.000000 1.651430 0.000000 
#    z 0.000000 0.000000 1.670410 
# 
# From -- ./inp_files/9965.got.cif
#   From: 2010.05.17/outbox.cif.g08.bks.cpg/sg23_5_cif.got.tgz:9965.got - 2010.06.04 12:02:01.
