data_PCOD9331999
_publ_section_title
;
Structure prediction by ZEFSAII (Michael W. Deem and Ramdas Pophale) SiO2 
 PCOD9331999
Probable space group: I 2 2 2
;
_chemical_formula_sum "Si O2"
_cell_formula_units_Z 44
_cell_length_a 26.346168
_cell_length_b 5.295934
_cell_length_c 13.812768
_cell_angle_alpha 90.000000
_cell_angle_beta 90.000000
_cell_angle_gamma 90.000000
_cell_volume 1927.261911
_symmetry_space_group_name_H-M "I 2 2 2"
_symmetry_group_IT_number 23
_symmetry_cell_setting 'orthorhombic'
loop_
_space_group_symop_operation_xyz
x,y,z
-x,-y,z
x,-y,-z
-x,y,-z
1/2+x,1/2+y,1/2+z
1/2-x,1/2-y,1/2+z
1/2+x,1/2-y,1/2-z
1/2-x,1/2+y,1/2-z
loop_
_atom_site_type_symbol
_atom_site_label
_atom_site_fract_x
_atom_site_fract_y
_atom_site_fract_z
Si Si1 0.555302 0.895673 0.125833
Si Si2 0.385146 0.500000 0.500000
Si Si3 0.683096 0.000000 0.500000
Si Si4 0.223263 0.527070 0.215571
Si Si5 0.634858 0.262870 0.175565
Si Si6 0.441516 0.584284 0.694966
Si Si7 0.385774 0.500000 0.000000
O O1 0.559372 0.835319 0.240294
O O2 0.573208 0.658369 0.065021
O O3 0.500000 0.000000 0.105666
O O4 0.597219 0.103818 0.107656
O O5 0.350325 0.746403 0.480619
O O6 0.421228 0.589652 0.587127
O O7 0.713309 0.957669 0.399466
O O8 0.236419 0.806497 0.255793
O O9 0.173803 0.415090 0.269869
O O10 0.599148 0.405053 0.251383
O O11 0.653963 0.441576 0.089355
O O12 0.500000 0.500000 0.700212
#
# Coordination Sequence:
#
# PCOD9331999 Si02
#       7
#     8   4   4   8   8   8   4
#     4  11  23  43  69 101 152 200 245 305 377 451
#     4  12  25  44  82 108 156 198 250 300 387 446
#     4  12  26  53  79 115 148 201 245 325 390 460
#     4  12  29  52  82 111 149 199 253 321 389 455
#     4  11  24  47  69 104 150 194 244 315 374 447
#     4  11  23  42  68 109 148 198 247 303 363 458
#     4  10  26  40  70 107 146 191 256 301 379 446
#
# _framework density 22.830317000000001
#
# number of rings (size 3 to 8) (size 9 to 14) (size 15 to 20)
#    0.000    0.727    3.636    3.000    5.091    2.909 
#    3.273    0.909    0.000    0.000    0.000    0.000 
#    0.000    0.000    0.000    0.000    0.000    0.000 
#
# Total GULP energy -122741.993132 kJ/mol
# GULP energy per Si atom -5579.181506 kJ/mol
# Density = 2.277835 g / cm^3
# Si number density = 22.830317 Si / 1000 Ang^3
#
#
#
# Elastic Constant Matrix: (Units=GPa)
#
#
# Indices 1 2 3 4 5 6 
#
# 1 65.8538 -10.6763 19.5385 0.0000 0.0000 0.0000
# 2 -10.6763 36.2938 -0.2647 0.0000 0.0000 0.0000
# 3 19.5385 -0.2647 178.4831 0.0000 0.0000 0.0000
# 4 0.0000 0.0000 0.0000 4.6512 0.0000 0.0000
# 5 0.0000 0.0000 0.0000 0.0000 8.4817 0.0000
# 6 0.0000 0.0000 0.0000 0.0000 0.0000 36.2402
#
#
#
# Elastic Compliance Matrix: (Units=1/GPa)
#
#
# Indices 1 2 3 4 5 6 
#
# 1 0.016504 0.004842 -0.001800 0.000000 0.000000 0.000000
# 2 0.004842 0.028974 -0.000487 0.000000 0.000000 0.000000
# 3 -0.001800 -0.000487 0.005799 0.000000 0.000000 0.000000
# 4 0.000000 0.000000 0.000000 0.214996 0.000000 0.000000
# 5 0.000000 0.000000 0.000000 0.000000 0.117901 0.000000
# 6 0.000000 0.000000 0.000000 0.000000 0.000000 0.027594
#
#
# Mechanical properties :
#
#
# Convention : Reuss Voigt Hill
#
# Bulk Modulus (GPa) = 17.73457 33.09174 25.41316
# Shear Modulus (GPa) = 11.75219 28.01018 19.88119
#
# Velocity S-wave (km/s) = 2.27130 3.50649 2.95417
# Velocity P-wave (km/s) = 3.82926 5.56058 4.77406
#
# Compressibility (1/GPa) = 0.05638704
#
# Stress axis : x y z
#
# Youngs Moduli (GPa) = 60.59133 34.51414 172.44229
#
# Poissons Ratio (x) = -0.16711 0.31031
# Poissons Ratio (y) = -0.29337 0.08399
# Poissons Ratio (z) = 0.10903 0.01681
#
# Static dielectric constant tensor:
#      x y z
#    x 1.895430 0.000000 0.000000 
#    y 0.000000 3.485450 0.000000 
#    z 0.000000 0.000000 1.876020 
# 
# From -- ./inp_files/22691.got.cif
#   From: 2010.05.17/outbox.cif.g08.bks.cpg/sg23_12_cif.got.tgz:22691.got - 2010.06.04 12:02:01.
