data_PCOD9331894
_publ_section_title
;
Structure prediction by ZEFSAII (Michael W. Deem and Ramdas Pophale) SiO2 
 PCOD9331894
Probable space group: I 2 2 2
;
_chemical_formula_sum "Si O2"
_cell_formula_units_Z 46
_cell_length_a 16.798470
_cell_length_b 11.205281
_cell_length_c 10.891685
_cell_angle_alpha 90.000000
_cell_angle_beta 90.000000
_cell_angle_gamma 90.000000
_cell_volume 2050.159041
_symmetry_space_group_name_H-M "I 2 2 2"
_symmetry_group_IT_number 23
_symmetry_cell_setting 'orthorhombic'
loop_
_space_group_symop_operation_xyz
x,y,z
-x,-y,z
x,-y,-z
-x,y,-z
1/2+x,1/2+y,1/2+z
1/2-x,1/2-y,1/2+z
1/2+x,1/2-y,1/2-z
1/2-x,1/2+y,1/2-z
loop_
_atom_site_type_symbol
_atom_site_label
_atom_site_fract_x
_atom_site_fract_y
_atom_site_fract_z
Si Si1 0.631413 0.910112 0.109812
Si Si2 0.754280 0.801696 0.516359
Si Si3 0.425005 0.795144 0.412407
Si Si4 0.500000 0.000000 0.274904
Si Si5 0.930539 0.918559 0.259468
Si Si6 0.735842 0.477354 0.201840
Si Si7 0.000000 0.000000 0.500000
O O1 0.679066 0.795130 0.055944
O O2 0.694654 0.970475 0.201228
O O3 0.550547 0.907010 0.191107
O O4 0.613834 0.000000 0.000000
O O5 0.660659 0.767659 0.527226
O O6 0.765509 0.857248 0.381264
O O7 0.760432 0.910625 0.612325
O O8 0.500000 0.770492 0.500000
O O9 0.430787 0.711159 0.294577
O O10 0.438690 0.929128 0.362471
O O11 0.847842 0.980460 0.230333
O O12 0.946491 0.923996 0.406498
O O13 0.000000 0.000000 0.205519
#
# Coordination Sequence:
#
# PCOD9331894 Si02
#       7
#     8   8   8   4   8   8   2
#     4  12  28  47  74 107 151 189 247 305 360 449
#     4  11  26  47  78 103 142 199 243 299 372 433
#     4  12  26  46  74 107 147 192 245 301 363 442
#     4  12  28  50  70 108 154 194 242 296 376 440
#     4  10  24  45  70 106 137 186 243 297 363 426
#     4  11  24  48  73 106 144 191 245 302 360 436
#     4   8  20  44  66 102 136 186 224 302 358 440
#
# _framework density 22.437283999999998
#
# number of rings (size 3 to 8) (size 9 to 14) (size 15 to 20)
#    0.522    0.348    3.478    2.609    9.739    1.739 
#    0.000    0.000    0.000    0.000    0.000    0.000 
#    0.000    0.000    0.000    0.000    0.000    0.000 
#
# Total GULP energy -128478.033801 kJ/mol
# GULP energy per Si atom -5586.001470 kJ/mol
# Density = 2.238622 g / cm^3
# Si number density = 22.437284 Si / 1000 Ang^3
#
#
#
# Elastic Constant Matrix: (Units=GPa)
#
#
# Indices 1 2 3 4 5 6 
#
# 1 137.6370 -0.1229 5.8386 0.0000 0.0000 0.0000
# 2 -0.1229 21.4060 -9.1532 0.0000 0.0000 0.0000
# 3 5.8386 -9.1532 49.8523 0.0000 0.0000 0.0000
# 4 0.0000 0.0000 0.0000 30.6114 0.0000 0.0000
# 5 0.0000 0.0000 0.0000 0.0000 97.7235 0.0000
# 6 0.0000 0.0000 0.0000 0.0000 0.0000 28.7664
#
#
#
# Elastic Compliance Matrix: (Units=1/GPa)
#
#
# Indices 1 2 3 4 5 6 
#
# 1 0.007304 -0.000351 -0.000920 0.000000 0.000000 0.000000
# 2 -0.000351 0.050713 0.009352 0.000000 0.000000 0.000000
# 3 -0.000920 0.009352 0.021884 0.000000 0.000000 0.000000
# 4 0.000000 0.000000 0.000000 0.032668 0.000000 0.000000
# 5 0.000000 0.000000 0.000000 0.000000 0.010233 0.000000
# 6 0.000000 0.000000 0.000000 0.000000 0.000000 0.034763
#
#
# Mechanical properties :
#
#
# Convention : Reuss Voigt Hill
#
# Bulk Modulus (GPa) = 10.40982 22.44671 16.42827
# Shear Modulus (GPa) = 28.83115 45.57580 37.20348
#
# Velocity S-wave (km/s) = 3.58853 4.51183 4.07641
# Velocity P-wave (km/s) = 4.67115 6.09656 5.43083
#
# Compressibility (1/GPa) = 0.09606310
#
# Stress axis : x y z
#
# Youngs Moduli (GPa) = 136.90752 19.71887 45.69517
#
# Poissons Ratio (x) = 0.00693 0.04204
# Poissons Ratio (y) = 0.04812 -0.42736
# Poissons Ratio (z) = 0.12595 -0.18442
#
# Static dielectric constant tensor:
#      x y z
#    x 1.875830 0.000000 0.000000 
#    y 0.000000 1.430030 0.000000 
#    z 0.000000 0.000000 1.808040 
# 
# From -- ./inp_files/17437.got.cif
#   From: 2010.05.17/outbox.cif.g08.bks.cpg/sg23_9_cif.got.tgz:17437.got - 2010.06.04 12:02:01.
