data_PCOD9331636
_publ_section_title
;
Structure prediction by ZEFSAII (Michael W. Deem and Ramdas Pophale) SiO2 
 PCOD9331636
Probable space group: I 2 2 2
;
_chemical_formula_sum "Si O2"
_cell_formula_units_Z 40
_cell_length_a 8.128479
_cell_length_b 10.992965
_cell_length_c 18.913039
_cell_angle_alpha 90.000000
_cell_angle_beta 90.000000
_cell_angle_gamma 90.000000
_cell_volume 1689.995123
_symmetry_space_group_name_H-M "I 2 2 2"
_symmetry_group_IT_number 23
_symmetry_cell_setting 'orthorhombic'
loop_
_space_group_symop_operation_xyz
x,y,z
-x,-y,z
x,-y,-z
-x,y,-z
1/2+x,1/2+y,1/2+z
1/2-x,1/2-y,1/2+z
1/2+x,1/2-y,1/2-z
1/2-x,1/2+y,1/2-z
loop_
_atom_site_type_symbol
_atom_site_label
_atom_site_fract_x
_atom_site_fract_y
_atom_site_fract_z
Si Si1 0.771862 0.921779 0.128178
Si Si2 0.789535 0.774707 0.271059
Si Si3 0.170601 0.229330 0.533967
Si Si4 0.871600 0.809435 0.901412
Si Si5 0.388231 0.381268 0.174081
O O1 0.768931 0.875962 0.209329
O O2 0.644504 0.855747 0.076606
O O3 0.942657 0.858984 0.100153
O O4 0.774823 0.064621 0.115228
O O5 0.663588 0.780560 0.336295
O O6 0.749872 0.648072 0.231590
O O7 0.969702 0.783019 0.305205
O O8 0.303399 0.249305 0.472590
O O9 0.196488 0.135783 0.598347
O O10 0.000000 0.190993 0.500000
O O11 0.500000 0.500000 0.177769
#
# Coordination Sequence:
#
# PCOD9331636 Si02
#       5
#     8   8   8   8   8
#     4  10  23  39  65  90 131 177 220 275 349 396
#     4  11  21  40  67  99 129 176 229 280 334 412
#     4  11  23  40  61  97 128 172 223 282 329 412
#     4  11  21  41  63  93 132 177 220 275 345 409
#     4  11  24  45  69  97 138 182 223 278 348 397
#
# _framework density 23.668707999999999
#
# number of rings (size 3 to 8) (size 9 to 14) (size 15 to 20)
#    0.000    1.200    4.000    2.400    0.000    3.600 
#    0.000    3.000    0.000    0.000   10.400    0.000 
#    0.000    0.000    0.000    0.000    0.000    0.000 
#
# Total GULP energy -111605.478830 kJ/mol
# GULP energy per Si atom -5580.273941 kJ/mol
# Density = 2.361484 g / cm^3
# Si number density = 23.668708 Si / 1000 Ang^3
#
#
#
# Elastic Constant Matrix: (Units=GPa)
#
#
# Indices 1 2 3 4 5 6 
#
# 1 57.8222 22.7850 36.8489 0.0000 0.0000 0.0000
# 2 22.7850 64.7258 36.9595 0.0000 0.0000 0.0000
# 3 36.8489 36.9595 193.0827 0.0000 0.0000 0.0000
# 4 0.0000 0.0000 0.0000 16.9816 0.0000 0.0000
# 5 0.0000 0.0000 0.0000 0.0000 49.7627 0.0000
# 6 0.0000 0.0000 0.0000 0.0000 0.0000 33.2288
#
#
#
# Elastic Compliance Matrix: (Units=1/GPa)
#
#
# Indices 1 2 3 4 5 6 
#
# 1 0.021507 -0.005869 -0.002981 0.000000 0.000000 0.000000
# 2 -0.005869 0.018947 -0.002507 0.000000 0.000000 0.000000
# 3 -0.002981 -0.002507 0.006228 0.000000 0.000000 0.000000
# 4 0.000000 0.000000 0.000000 0.058887 0.000000 0.000000
# 5 0.000000 0.000000 0.000000 0.000000 0.020095 0.000000
# 6 0.000000 0.000000 0.000000 0.000000 0.000000 0.030094
#
#
# Mechanical properties :
#
#
# Convention : Reuss Voigt Hill
#
# Bulk Modulus (GPa) = 41.72109 56.53528 49.12819
# Shear Modulus (GPa) = 26.81518 34.59710 30.70614
#
# Velocity S-wave (km/s) = 3.36957 3.82740 3.60576
# Velocity P-wave (km/s) = 5.72748 6.59317 6.17551
#
# Compressibility (1/GPa) = 0.02396869
#
# Stress axis : x y z
#
# Youngs Moduli (GPa) = 46.49703 52.77846 160.56758
#
# Poissons Ratio (x) = 0.30974 0.47867
# Poissons Ratio (y) = 0.27287 0.40251
# Poissons Ratio (z) = 0.13861 0.13231
#
# Static dielectric constant tensor:
#      x y z
#    x 1.951230 0.000000 0.000000 
#    y 0.000000 1.967310 0.000000 
#    z 0.000000 0.000000 1.920190 
# 
# From -- ./inp_files/8202.got.cif
#   From: 2010.05.17/outbox.cif.g08.bks.cpg/sg23_5_cif.got.tgz:8202.got - 2010.06.04 12:02:01.
