data_PCOD9331520
_publ_section_title
;
Structure prediction by ZEFSAII (Michael W. Deem and Ramdas Pophale) SiO2 
 PCOD9331520
Probable space group: I 2 2 2
;
_chemical_formula_sum "Si O2"
_cell_formula_units_Z 48
_cell_length_a 6.156231
_cell_length_b 11.820911
_cell_length_c 27.631210
_cell_angle_alpha 90.000000
_cell_angle_beta 90.000000
_cell_angle_gamma 90.000000
_cell_volume 2010.785564
_symmetry_space_group_name_H-M "I 2 2 2"
_symmetry_group_IT_number 23
_symmetry_cell_setting 'orthorhombic'
loop_
_space_group_symop_operation_xyz
x,y,z
-x,-y,z
x,-y,-z
-x,y,-z
1/2+x,1/2+y,1/2+z
1/2-x,1/2-y,1/2+z
1/2+x,1/2-y,1/2-z
1/2-x,1/2+y,1/2-z
loop_
_atom_site_type_symbol
_atom_site_label
_atom_site_fract_x
_atom_site_fract_y
_atom_site_fract_z
Si Si1 0.000000 0.174762 0.500000
Si Si2 0.303453 0.329843 0.649109
Si Si3 0.122610 0.180942 0.045073
Si Si4 0.661395 0.107428 0.576652
Si Si5 0.524599 0.364331 0.162405
Si Si6 0.904864 0.875644 0.766961
Si Si7 0.500000 0.000000 0.209208
O O1 0.847175 0.261636 0.470696
O O2 0.855308 0.101221 0.537192
O O3 0.355693 0.379733 0.596463
O O4 0.510417 0.314477 0.684771
O O5 0.175208 0.210824 0.642400
O O6 0.142296 0.417175 0.675724
O O7 0.974483 0.288181 0.057632
O O8 0.000000 0.124119 0.000000
O O9 0.771214 0.144153 0.627064
O O10 0.500000 0.000000 0.579681
O O11 0.500000 0.500000 0.163419
O O12 0.520823 0.328706 0.218903
O O13 0.653198 0.912506 0.761165
O O14 0.000000 0.000000 0.773579
#
# Coordination Sequence:
#
# PCOD9331520 Si02
#       7
#     4   8   8   8   8   8   4
#     4  10  22  43  58  95 140 188 238 295 355 410
#     4  11  23  43  72 101 139 187 234 292 359 431
#     4  10  23  40  66  95 133 181 233 298 351 425
#     4  11  24  40  62  98 142 195 237 287 349 429
#     4  11  24  45  65 106 148 183 228 291 354 432
#     4   9  23  45  67 101 136 186 236 287 357 422
#     4  10  24  46  74  99 138 184 237 300 356 430
#
# _framework density 23.871265999999999
#
# number of rings (size 3 to 8) (size 9 to 14) (size 15 to 20)
#    0.000    1.667    1.667    1.000    4.667    3.667 
#   19.500    0.000    0.000   12.000    0.000    0.000 
#    0.000    0.000    0.000    0.000    0.000    0.000 
#
# Total GULP energy -133923.843216 kJ/mol
# GULP energy per Si atom -5580.160134 kJ/mol
# Density = 2.381693 g / cm^3
# Si number density = 23.871266 Si / 1000 Ang^3
#
#
#
# Elastic Constant Matrix: (Units=GPa)
#
#
# Indices 1 2 3 4 5 6 
#
# 1 124.1549 30.0754 73.8055 0.0000 0.0000 0.0000
# 2 30.0754 92.3417 20.7795 0.0000 0.0000 0.0000
# 3 73.8055 20.7795 185.3479 0.0000 0.0000 0.0000
# 4 0.0000 0.0000 0.0000 37.4582 0.0000 0.0000
# 5 0.0000 0.0000 0.0000 0.0000 52.1926 0.0000
# 6 0.0000 0.0000 0.0000 0.0000 0.0000 12.2868
#
#
#
# Elastic Compliance Matrix: (Units=1/GPa)
#
#
# Indices 1 2 3 4 5 6 
#
# 1 0.011175 -0.002707 -0.004146 0.000000 0.000000 0.000000
# 2 -0.002707 0.011765 -0.000241 0.000000 0.000000 0.000000
# 3 -0.004146 -0.000241 0.007073 0.000000 0.000000 0.000000
# 4 0.000000 0.000000 0.000000 0.026696 0.000000 0.000000
# 5 0.000000 0.000000 0.000000 0.000000 0.019160 0.000000
# 6 0.000000 0.000000 0.000000 0.000000 0.000000 0.081388
#
#
# Mechanical properties :
#
#
# Convention : Reuss Voigt Hill
#
# Bulk Modulus (GPa) = 63.19103 72.35168 67.77136
# Shear Modulus (GPa) = 28.29308 38.86645 33.57977
#
# Velocity S-wave (km/s) = 3.44646 4.03943 3.75467
# Velocity P-wave (km/s) = 6.50896 7.22018 6.87377
#
# Compressibility (1/GPa) = 0.01582503
#
# Stress axis : x y z
#
# Youngs Moduli (GPa) = 89.48533 84.99670 141.37433
#
# Poissons Ratio (x) = 0.23005 0.58620
# Poissons Ratio (y) = 0.24220 0.03410
# Poissons Ratio (z) = 0.37105 0.02050
#
# Static dielectric constant tensor:
#      x y z
#    x 1.984000 0.000000 0.000000 
#    y 0.000000 1.903540 0.000000 
#    z 0.000000 0.000000 2.060060 
# 
# From -- ./inp_files/28955.got.cif
#   From: 2010.05.17/outbox.cif.g08.bks.cpg/sg23_15_cif.got.tgz:28955.got - 2010.06.04 12:02:01.
