data_PCOD9331416
_publ_section_title
;
Structure prediction by ZEFSAII (Michael W. Deem and Ramdas Pophale) SiO2 
 PCOD9331416
Probable space group: I 2 2 2
;
_chemical_formula_sum "Si O2"
_cell_formula_units_Z 56
_cell_length_a 21.494037
_cell_length_b 14.387988
_cell_length_c 10.069480
_cell_angle_alpha 90.000000
_cell_angle_beta 90.000000
_cell_angle_gamma 90.000000
_cell_volume 3114.046567
_symmetry_space_group_name_H-M "I 2 2 2"
_symmetry_group_IT_number 23
_symmetry_cell_setting 'orthorhombic'
loop_
_space_group_symop_operation_xyz
x,y,z
-x,-y,z
x,-y,-z
-x,y,-z
1/2+x,1/2+y,1/2+z
1/2-x,1/2-y,1/2+z
1/2+x,1/2-y,1/2-z
1/2-x,1/2+y,1/2-z
loop_
_atom_site_type_symbol
_atom_site_label
_atom_site_fract_x
_atom_site_fract_y
_atom_site_fract_z
Si Si1 0.799721 0.613064 0.518110
Si Si2 0.659965 0.316119 0.472700
Si Si3 0.123529 0.294930 0.762109
Si Si4 0.374283 0.170415 0.763081
Si Si5 0.462075 0.595825 0.387629
Si Si6 0.505561 0.719566 0.846222
Si Si7 0.068890 0.511207 0.155732
O O1 0.809620 0.500000 0.500000
O O2 0.727124 0.636839 0.531730
O O3 0.832668 0.664111 0.644448
O O4 0.827617 0.662367 0.386546
O O5 0.651268 0.267079 0.617321
O O6 0.648331 0.239103 0.355384
O O7 0.607582 0.394338 0.441208
O O8 0.063747 0.242504 0.702346
O O9 0.094982 0.387571 0.823251
O O10 0.442271 0.202113 0.817283
O O11 0.385172 0.067408 0.708132
O O12 0.500000 0.500000 0.379158
O O13 0.500000 0.654502 0.500000
O O14 0.467803 0.637323 0.242972
O O15 0.500000 0.699186 0.000000
O O16 0.000000 0.500000 0.217110
O O17 0.063046 0.500000 0.000000
#
# Coordination Sequence:
#
# PCOD9331416 Si02
#       7
#     8   8   8   8   8   8   8
#     4  12  26  40  61  87 124 169 200 249 307 365
#     4  11  25  42  64  86 124 163 213 251 299 365
#     4  12  22  39  62  92 123 161 202 249 309 369
#     4  11  22  40  60  92 123 158 204 249 302 371
#     4  10  22  40  66  94 116 152 211 261 298 346
#     4  11  22  37  63  92 126 158 192 253 315 359
#     4  11  21  33  61  95 128 151 191 252 314 366
#
# _framework density 17.983032999999999
#
# number of rings (size 3 to 8) (size 9 to 14) (size 15 to 20)
#    0.000    0.857    7.143    0.857    2.000    0.286 
#    0.000    2.143    0.000    0.000    0.000    0.000 
#    0.000    0.000    0.000    0.000    0.000    0.000 
#
# Total GULP energy -155976.471330 kJ/mol
# GULP energy per Si atom -5570.588262 kJ/mol
# Density = 1.794210 g / cm^3
# Si number density = 17.983033 Si / 1000 Ang^3
#
#
#
# Elastic Constant Matrix: (Units=GPa)
#
#
# Indices 1 2 3 4 5 6 
#
# 1 127.2973 23.4725 45.0300 0.0000 0.0000 0.0000
# 2 23.4725 69.9619 31.6570 0.0000 0.0000 0.0000
# 3 45.0300 31.6570 136.0550 0.0000 0.0000 0.0000
# 4 0.0000 0.0000 0.0000 20.1348 0.0000 0.0000
# 5 0.0000 0.0000 0.0000 0.0000 38.9782 0.0000
# 6 0.0000 0.0000 0.0000 0.0000 0.0000 32.2088
#
#
#
# Elastic Compliance Matrix: (Units=1/GPa)
#
#
# Indices 1 2 3 4 5 6 
#
# 1 0.009116 -0.001893 -0.002577 0.000000 0.000000 0.000000
# 2 -0.001893 0.016368 -0.003182 0.000000 0.000000 0.000000
# 3 -0.002577 -0.003182 0.008943 0.000000 0.000000 0.000000
# 4 0.000000 0.000000 0.000000 0.049665 0.000000 0.000000
# 5 0.000000 0.000000 0.000000 0.000000 0.025655 0.000000
# 6 0.000000 0.000000 0.000000 0.000000 0.000000 0.031047
#
#
# Mechanical properties :
#
#
# Convention : Reuss Voigt Hill
#
# Bulk Modulus (GPa) = 52.28846 59.29256 55.79051
# Shear Modulus (GPa) = 30.77421 33.80799 32.29110
#
# Velocity S-wave (km/s) = 4.14126 4.34059 4.24210
# Velocity P-wave (km/s) = 7.21155 7.62653 7.42194
#
# Compressibility (1/GPa) = 0.01912468
#
# Stress axis : x y z
#
# Youngs Moduli (GPa) = 109.69598 61.09350 111.81632
#
# Poissons Ratio (x) = 0.11562 0.28813
# Poissons Ratio (y) = 0.20760 0.35582
# Poissons Ratio (z) = 0.28266 0.19441
#
# Static dielectric constant tensor:
#      x y z
#    x 1.579440 0.000000 0.000000 
#    y 0.000000 1.671730 0.000000 
#    z 0.000000 0.000000 1.626730 
# 
# From -- ./inp_files/12039.got.cif
#   From: 2010.05.17/outbox.cif.g08.bks.cpg/sg23_7_cif.got.tgz:12039.got - 2010.06.04 12:02:01.
