data_PCOD9331912
_publ_section_title
;
Structure prediction by ZEFSAII (Michael W. Deem and Ramdas Pophale) SiO2 
 PCOD9331912
Probable space group: I 2 2 2
;
_chemical_formula_sum "Si O2"
_cell_formula_units_Z 32
_cell_length_a 8.828916
_cell_length_b 8.450943
_cell_length_c 19.566944
_cell_angle_alpha 90.000000
_cell_angle_beta 90.000000
_cell_angle_gamma 90.000000
_cell_volume 1459.941855
_symmetry_space_group_name_H-M "I 2 2 2"
_symmetry_group_IT_number 23
_symmetry_cell_setting 'orthorhombic'
loop_
_space_group_symop_operation_xyz
x,y,z
-x,-y,z
x,-y,-z
-x,y,-z
1/2+x,1/2+y,1/2+z
1/2-x,1/2-y,1/2+z
1/2+x,1/2-y,1/2-z
1/2-x,1/2+y,1/2-z
loop_
_atom_site_type_symbol
_atom_site_label
_atom_site_fract_x
_atom_site_fract_y
_atom_site_fract_z
Si Si1 0.298852 0.680817 0.660937
Si Si2 0.010632 0.184551 0.707063
Si Si3 0.846572 0.605214 0.591510
Si Si4 0.823042 0.319726 0.016874
O O1 0.429374 0.694115 0.715970
O O2 0.277365 0.511693 0.624571
O O3 0.307924 0.798399 0.597578
O O4 0.147226 0.724204 0.701776
O O5 0.113678 0.268827 0.650266
O O6 0.000000 0.000000 0.689722
O O7 0.780766 0.696529 0.525680
O O8 0.000000 0.500000 0.579477
O O9 0.781976 0.500000 0.000000
O O10 0.000000 0.292315 0.000000
#
# Coordination Sequence:
#
# PCOD9331912 Si02
#       4
#     8   8   8   8
#     4  11  25  43  70 104 134 185 222 284 344 407
#     4  11  24  43  68 102 139 181 227 279 343 409
#     4  10  24  46  71 102 137 181 233 287 344 412
#     4  11  26  46  72 103 140 182 233 290 348 411
#
# _framework density 21.918683000000001
#
# number of rings (size 3 to 8) (size 9 to 14) (size 15 to 20)
#    0.000    1.250    0.000    3.750    7.000    8.000 
#    9.000    6.250    0.000    0.000    0.000    0.000 
#    0.000    0.000    0.000    0.000    0.000    0.000 
#
# Total GULP energy -89559.173873 kJ/mol
# GULP energy per Si atom -5597.448367 kJ/mol
# Density = 2.186879 g / cm^3
# Si number density = 21.918683 Si / 1000 Ang^3
#
#
#
# Elastic Constant Matrix: (Units=GPa)
#
#
# Indices 1 2 3 4 5 6 
#
# 1 58.5811 12.3543 48.6199 0.0000 0.0000 0.0000
# 2 12.3543 111.7983 47.8153 0.0000 0.0000 0.0000
# 3 48.6199 47.8153 144.3468 0.0000 0.0000 0.0000
# 4 0.0000 0.0000 0.0000 46.2596 0.0000 0.0000
# 5 0.0000 0.0000 0.0000 0.0000 -12.4730 0.0000
# 6 0.0000 0.0000 0.0000 0.0000 0.0000 23.5709
#
#
#
# Elastic Compliance Matrix: (Units=1/GPa)
#
#
# Indices 1 2 3 4 5 6 
#
# 1 0.023777 0.000929 -0.008317 0.000000 0.000000 0.000000
# 2 0.000929 0.010457 -0.003777 0.000000 0.000000 0.000000
# 3 -0.008317 -0.003777 0.010980 0.000000 0.000000 0.000000
# 4 0.000000 0.000000 0.000000 0.021617 0.000000 0.000000
# 5 0.000000 0.000000 0.000000 0.000000 -0.080173 0.000000
# 6 0.000000 0.000000 0.000000 0.000000 0.000000 0.042425
#
#
# Mechanical properties :
#
#
# Convention : Reuss Voigt Hill
#
# Bulk Modulus (GPa) = 43.69495 59.14502 51.41998
# Shear Modulus (GPa) = 84.68742 25.20061 54.94401
#
# Velocity S-wave (km/s) = 6.22262 3.39445 5.01215
# Velocity P-wave (km/s) = 8.46205 6.51195 7.55022
#
# Compressibility (1/GPa) = 0.02288594
#
# Stress axis : x y z
#
# Youngs Moduli (GPa) = 42.05795 95.62596 91.07330
#
# Poissons Ratio (x) = -0.08888 0.75741
# Poissons Ratio (y) = -0.03909 0.34399
# Poissons Ratio (z) = 0.34978 0.36119
#
# Static dielectric constant tensor:
#      x y z
#    x 1.813880 0.000000 0.000000 
#    y 0.000000 1.794560 0.000000 
#    z 0.000000 0.000000 1.772440 
# 
# From -- ./inp_files/25932.got.cif
#   From: 2010.05.17/outbox.cif.g08.bks.cpg/sg23_13_cif.got.tgz:25932.got - 2010.06.04 12:02:01.
