data_PCOD9331745
_publ_section_title
;
Structure prediction by ZEFSAII (Michael W. Deem and Ramdas Pophale) SiO2 
 PCOD9331745
Probable space group: I 2 2 2
;
_chemical_formula_sum "Si O2"
_cell_formula_units_Z 48
_cell_length_a 14.488552
_cell_length_b 18.108791
_cell_length_c 8.856081
_cell_angle_alpha 90.000000
_cell_angle_beta 90.000000
_cell_angle_gamma 90.000000
_cell_volume 2323.571389
_symmetry_space_group_name_H-M "I 2 2 2"
_symmetry_group_IT_number 23
_symmetry_cell_setting 'orthorhombic'
loop_
_space_group_symop_operation_xyz
x,y,z
-x,-y,z
x,-y,-z
-x,y,-z
1/2+x,1/2+y,1/2+z
1/2-x,1/2-y,1/2+z
1/2+x,1/2-y,1/2-z
1/2-x,1/2+y,1/2-z
loop_
_atom_site_type_symbol
_atom_site_label
_atom_site_fract_x
_atom_site_fract_y
_atom_site_fract_z
Si Si1 0.528355 0.081681 0.174383
Si Si2 0.092694 0.076780 0.917712
Si Si3 0.424844 0.642471 0.872852
Si Si4 0.563832 0.216366 0.645696
Si Si5 0.750662 0.290649 0.957033
Si Si6 0.285926 0.841604 0.132243
O O1 0.478089 0.144993 0.270744
O O2 0.637941 0.097085 0.167555
O O3 0.500000 0.000000 0.227889
O O4 0.500000 0.088268 0.000000
O O5 0.068364 0.074089 0.740969
O O6 0.187046 0.124052 0.913806
O O7 0.000000 0.106167 0.000000
O O8 0.111783 0.000000 0.000000
O O9 0.434778 0.714561 0.762020
O O10 0.325275 0.645337 0.952912
O O11 0.500000 0.644641 0.000000
O O12 0.500000 0.231295 0.500000
O O13 0.665415 0.202667 0.574014
O O14 0.785763 0.292688 0.785278
O O15 0.695117 0.216119 0.998788
#
# Coordination Sequence:
#
# PCOD9331745 Si02
#       6
#     8   8   8   8   8   8
#     4  11  26  44  64  99 140 191 235 290 362 439
#     4  10  23  44  68  96 131 180 234 287 355 425
#     4  11  24  41  68 102 134 176 231 297 355 419
#     4  12  22  40  68  99 139 184 232 293 356 432
#     4  11  22  39  65 103 135 172 230 291 341 416
#     4  11  23  42  66 100 137 180 235 288 354 426
#
# _framework density 20.657855999999999
#
# number of rings (size 3 to 8) (size 9 to 14) (size 15 to 20)
#    0.000    1.000    5.000    3.000    2.333    0.333 
#    0.000    1.667    0.000   10.000    0.000    0.000 
#    0.000    0.000    0.000    0.000    0.000    0.000 
#
# Total GULP energy -133860.028512 kJ/mol
# GULP energy per Si atom -5577.501188 kJ/mol
# Density = 2.061084 g / cm^3
# Si number density = 20.657856 Si / 1000 Ang^3
#
#
#
# Elastic Constant Matrix: (Units=GPa)
#
#
# Indices 1 2 3 4 5 6 
#
# 1 112.4589 25.2766 44.1539 0.0000 0.0000 0.0000
# 2 25.2766 107.6977 45.5444 0.0000 0.0000 0.0000
# 3 44.1539 45.5444 111.6011 0.0000 0.0000 0.0000
# 4 0.0000 0.0000 0.0000 28.1026 0.0000 0.0000
# 5 0.0000 0.0000 0.0000 0.0000 45.7520 0.0000
# 6 0.0000 0.0000 0.0000 0.0000 0.0000 -17.8773
#
#
#
# Elastic Compliance Matrix: (Units=1/GPa)
#
#
# Indices 1 2 3 4 5 6 
#
# 1 0.010593 -0.000863 -0.003839 0.000000 0.000000 0.000000
# 2 -0.000863 0.011292 -0.004267 0.000000 0.000000 0.000000
# 3 -0.003839 -0.004267 0.012221 0.000000 0.000000 0.000000
# 4 0.000000 0.000000 0.000000 0.035584 0.000000 0.000000
# 5 0.000000 0.000000 0.000000 0.000000 0.021857 0.000000
# 6 0.000000 0.000000 0.000000 0.000000 0.000000 -0.055937
#
#
# Mechanical properties :
#
#
# Convention : Reuss Voigt Hill
#
# Bulk Modulus (GPa) = 61.84809 62.41196 62.13002
# Shear Modulus (GPa) = 84.83561 25.64764 55.24162
#
# Velocity S-wave (km/s) = 6.41531 3.52738 5.17680
# Velocity P-wave (km/s) = 9.21299 6.84600 8.11624
#
# Compressibility (1/GPa) = 0.01616865
#
# Stress axis : x y z
#
# Youngs Moduli (GPa) = 94.39871 88.55650 81.82803
#
# Poissons Ratio (x) = 0.07640 0.31414
# Poissons Ratio (y) = 0.08144 0.34916
# Poissons Ratio (z) = 0.36240 0.37787
#
# Static dielectric constant tensor:
#      x y z
#    x 1.796280 0.000000 0.000000 
#    y 0.000000 1.764400 0.000000 
#    z 0.000000 0.000000 2.064280 
# 
# From -- ./inp_files/9949.got.cif
#   From: 2010.05.17/outbox.cif.g08.bks.cpg/sg23_5_cif.got.tgz:9949.got - 2010.06.04 12:02:01.
