data_PCOD9331188
_publ_section_title
;
Structure prediction by ZEFSAII (Michael W. Deem and Ramdas Pophale) SiO2 
 PCOD9331188
Probable space group: I 2 2 2
;
_chemical_formula_sum "Si O2"
_cell_formula_units_Z 48
_cell_length_a 24.509414
_cell_length_b 6.827734
_cell_length_c 13.365814
_cell_angle_alpha 90.000000
_cell_angle_beta 90.000000
_cell_angle_gamma 90.000000
_cell_volume 2236.685561
_symmetry_space_group_name_H-M "I 2 2 2"
_symmetry_group_IT_number 23
_symmetry_cell_setting 'orthorhombic'
loop_
_space_group_symop_operation_xyz
x,y,z
-x,-y,z
x,-y,-z
-x,y,-z
1/2+x,1/2+y,1/2+z
1/2-x,1/2-y,1/2+z
1/2+x,1/2-y,1/2-z
1/2-x,1/2+y,1/2-z
loop_
_atom_site_type_symbol
_atom_site_label
_atom_site_fract_x
_atom_site_fract_y
_atom_site_fract_z
Si Si1 0.548358 0.628560 0.650541
Si Si2 0.097529 0.606467 0.398667
Si Si3 0.500000 0.000000 0.746441
Si Si4 0.188637 0.633465 0.711650
Si Si5 0.309047 0.224956 0.344640
Si Si6 0.359615 0.500000 0.500000
Si Si7 0.880466 0.029725 0.306465
O O1 0.500000 0.500000 0.607685
O O2 0.601116 0.601644 0.581805
O O3 0.563331 0.540784 0.759114
O O4 0.527437 0.842708 0.673421
O O5 0.080280 0.500000 0.500000
O O6 0.049237 0.576862 0.317184
O O7 0.153724 0.500844 0.364074
O O8 0.110352 0.838629 0.404203
O O9 0.250516 0.684093 0.683796
O O10 0.189950 0.506831 0.815789
O O11 0.157493 0.839888 0.701807
O O12 0.325133 0.323495 0.450075
O O13 0.353871 0.316322 0.270442
#
# Coordination Sequence:
#
# PCOD9331188 Si02
#       7
#     8   8   4   8   8   4   8
#     4  11  22  44  69  97 141 186 230 289 358 423
#     4  11  25  41  69 103 137 173 242 296 350 434
#     4  12  23  44  75  96 136 192 226 283 371 434
#     4  11  21  41  70  98 136 194 229 292 369 421
#     4  10  22  41  69  99 136 189 240 290 361 429
#     4  10  25  44  70 106 144 179 252 306 338 436
#     4  10  21  42  68  95 137 185 228 291 360 426
#
# _framework density 21.460325000000001
#
# number of rings (size 3 to 8) (size 9 to 14) (size 15 to 20)
#    0.000    1.333    5.000    0.500    1.167    0.667 
#    0.000   10.000    7.333    0.000    0.000    0.000 
#    0.000    0.000    0.000    0.000    0.000    0.000 
#
# Total GULP energy -133771.444202 kJ/mol
# GULP energy per Si atom -5573.810175 kJ/mol
# Density = 2.141148 g / cm^3
# Si number density = 21.460325 Si / 1000 Ang^3
#
#
#
# Elastic Constant Matrix: (Units=GPa)
#
#
# Indices 1 2 3 4 5 6 
#
# 1 104.7925 36.3769 20.4741 0.0000 0.0000 0.0000
# 2 36.3769 146.5864 56.1117 0.0000 0.0000 0.0000
# 3 20.4741 56.1117 70.2525 0.0000 0.0000 0.0000
# 4 0.0000 0.0000 0.0000 60.1580 0.0000 0.0000
# 5 0.0000 0.0000 0.0000 0.0000 26.4363 0.0000
# 6 0.0000 0.0000 0.0000 0.0000 0.0000 35.6447
#
#
#
# Elastic Compliance Matrix: (Units=1/GPa)
#
#
# Indices 1 2 3 4 5 6 
#
# 1 0.010539 -0.002074 -0.001415 0.000000 0.000000 0.000000
# 2 -0.002074 0.010234 -0.007570 0.000000 0.000000 0.000000
# 3 -0.001415 -0.007570 0.020693 0.000000 0.000000 0.000000
# 4 0.000000 0.000000 0.000000 0.016623 0.000000 0.000000
# 5 0.000000 0.000000 0.000000 0.000000 0.037827 0.000000
# 6 0.000000 0.000000 0.000000 0.000000 0.000000 0.028055
#
#
# Mechanical properties :
#
#
# Convention : Reuss Voigt Hill
#
# Bulk Modulus (GPa) = 51.68290 60.83963 56.26126
# Shear Modulus (GPa) = 32.77886 38.35906 35.56896
#
# Velocity S-wave (km/s) = 3.91246 4.23240 4.07557
# Velocity P-wave (km/s) = 6.67421 7.23157 6.95847
#
# Compressibility (1/GPa) = 0.01934876
#
# Stress axis : x y z
#
# Youngs Moduli (GPa) = 94.88577 97.71185 48.32560
#
# Poissons Ratio (x) = 0.20262 0.06839
# Poissons Ratio (y) = 0.19676 0.36582
# Poissons Ratio (z) = 0.13428 0.73966
#
# Static dielectric constant tensor:
#      x y z
#    x 1.778760 0.000000 0.000000 
#    y 0.000000 1.842360 0.000000 
#    z 0.000000 0.000000 1.850910 
# 
# From -- ./inp_files/22715.got.cif
#   From: 2010.05.17/outbox.cif.g08.bks.cpg/sg23_12_cif.got.tgz:22715.got - 2010.06.04 12:02:01.
