data_PCOD9331032
_publ_section_title
;
Structure prediction by ZEFSAII (Michael W. Deem and Ramdas Pophale) SiO2 
 PCOD9331032
Probable space group: I 2 2 2
;
_chemical_formula_sum "Si O2"
_cell_formula_units_Z 48
_cell_length_a 16.828219
_cell_length_b 8.146674
_cell_length_c 18.308787
_cell_angle_alpha 90.000000
_cell_angle_beta 90.000000
_cell_angle_gamma 90.000000
_cell_volume 2510.025105
_symmetry_space_group_name_H-M "I 2 2 2"
_symmetry_group_IT_number 23
_symmetry_cell_setting 'orthorhombic'
loop_
_space_group_symop_operation_xyz
x,y,z
-x,-y,z
x,-y,-z
-x,y,-z
1/2+x,1/2+y,1/2+z
1/2-x,1/2-y,1/2+z
1/2+x,1/2-y,1/2-z
1/2-x,1/2+y,1/2-z
loop_
_atom_site_type_symbol
_atom_site_label
_atom_site_fract_x
_atom_site_fract_y
_atom_site_fract_z
Si Si1 0.829971 0.683637 0.842929
Si Si2 0.909309 0.000000 0.087027
Si Si3 1.000000 0.802806 0.414998
Si Si4 0.657159 0.809434 0.169899
Si Si5 0.657159 0.190565 0.169899
Si Si6 0.329971 0.816363 0.342929
O O1 0.852920 0.702860 0.757440
O O2 0.734597 0.702814 0.848697
O O3 0.853561 0.500000 0.866662
O O4 0.868098 0.834575 0.885089
O O5 0.868098 0.834575 0.114911
O O6 0.000000 0.000000 0.113457
O O7 0.908085 0.000000 0.000000
O O8 0.078598 0.741099 0.373356
O O9 0.000000 0.749643 0.500000
O O10 0.921402 0.741099 0.373357
O O11 0.000000 0.000000 0.413406
O O12 0.734597 0.702814 0.151303
O O13 0.675789 1.000000 0.153901
O O14 0.647080 0.202859 0.257440
#
# Coordination Sequence:
#
# PCOD9331032 Si02
#       6
#     8   8   8   8   8   8
#     4  10  22  41  67  96 124 164 215 263 312 370
#     4  11  26  44  64  93 125 167 211 259 328 378
#     4  11  25  39  57  93 135 174 211 255 318 384
#     4  10  21  39  64  94 126 167 215 258 308 375
#     4  10  21  39  64  94 126 167 215 258 308 375
#     4  10  22  41  67  96 124 164 215 263 312 370
#
# _framework density 19.123315999999999
#
# number of rings (size 3 to 8) (size 9 to 14) (size 15 to 20)
#    0.000    1.667    1.667    1.500    7.000    4.000 
#    0.000    1.667    0.000    0.000    0.000    0.000 
#    0.000    0.000    0.000    0.000    0.000    0.000 
#
# Total GULP energy -134073.115541 kJ/mol
# GULP energy per Si atom -5586.379814 kJ/mol
# Density = 1.907979 g / cm^3
# Si number density = 19.123316 Si / 1000 Ang^3
#
#
#
# Elastic Constant Matrix: (Units=GPa)
#
#
# Indices 1 2 3 4 5 6 
#
# 1 114.5097 46.2796 71.8857 0.0000 0.0000 0.0000
# 2 46.2796 148.4349 47.8791 0.0000 0.0000 0.0000
# 3 71.8857 47.8791 61.3506 0.0000 0.0000 0.0000
# 4 0.0000 0.0000 0.0000 26.2612 0.0000 0.0000
# 5 0.0000 0.0000 0.0000 0.0000 36.1496 0.0000
# 6 0.0000 0.0000 0.0000 0.0000 0.0000 25.6182
#
#
#
# Elastic Compliance Matrix: (Units=1/GPa)
#
#
# Indices 1 2 3 4 5 6 
#
# 1 0.034000 0.003006 -0.042185 0.000000 0.000000 0.000000
# 2 0.003006 0.009269 -0.010757 0.000000 0.000000 0.000000
# 3 -0.042185 -0.010757 0.074124 0.000000 0.000000 0.000000
# 4 0.000000 0.000000 0.000000 0.038079 0.000000 0.000000
# 5 0.000000 0.000000 0.000000 0.000000 0.027663 0.000000
# 6 0.000000 0.000000 0.000000 0.000000 0.000000 0.039035
#
#
# Mechanical properties :
#
#
# Convention : Reuss Voigt Hill
#
# Bulk Modulus (GPa) = 57.06931 72.93157 65.00044
# Shear Modulus (GPa) = 15.24939 28.15585 21.70262
#
# Velocity S-wave (km/s) = 2.82693 3.84126 3.37245
# Velocity P-wave (km/s) = 6.36891 7.60881 7.01630
#
# Compressibility (1/GPa) = 0.01752255
#
# Stress axis : x y z
#
# Youngs Moduli (GPa) = 29.41135 107.88365 13.49094
#
# Poissons Ratio (x) = -0.32435 0.56912
# Poissons Ratio (y) = -0.08842 0.14512
# Poissons Ratio (z) = 1.24073 1.16047
#
# Static dielectric constant tensor:
#      x y z
#    x 1.646950 0.000000 0.000000 
#    y 0.000000 1.679220 0.000000 
#    z 0.000000 0.000000 1.639900 
# 
# From -- ./inp_files/24722.got.cif
#   From: 2010.05.17/outbox.cif.g08.bks.cpg/sg23_13_cif.got.tgz:24722.got - 2010.06.04 12:02:01.
