data_PCOD9331212
_publ_section_title
;
Structure prediction by ZEFSAII (Michael W. Deem and Ramdas Pophale) SiO2 
 PCOD9331212
Probable space group: I 2 2 2
;
_chemical_formula_sum "Si O2"
_cell_formula_units_Z 34
_cell_length_a 20.857466
_cell_length_b 5.124676
_cell_length_c 16.924925
_cell_angle_alpha 90.000000
_cell_angle_beta 90.000000
_cell_angle_gamma 90.000000
_cell_volume 1809.067244
_symmetry_space_group_name_H-M "I 2 2 2"
_symmetry_group_IT_number 23
_symmetry_cell_setting 'orthorhombic'
loop_
_space_group_symop_operation_xyz
x,y,z
-x,-y,z
x,-y,-z
-x,y,-z
1/2+x,1/2+y,1/2+z
1/2-x,1/2-y,1/2+z
1/2+x,1/2-y,1/2-z
1/2-x,1/2+y,1/2-z
loop_
_atom_site_type_symbol
_atom_site_label
_atom_site_fract_x
_atom_site_fract_y
_atom_site_fract_z
Si Si1 0.334908 0.500000 0.500000
Si Si2 0.045719 0.748658 0.709021
Si Si3 0.000000 0.500000 0.000000
Si Si4 0.374062 0.265880 0.948697
Si Si5 0.568559 0.633844 0.622250
Si Si6 0.251145 0.500000 0.000000
O O1 0.379791 0.541433 0.576925
O O2 0.292575 0.246792 0.519902
O O3 0.089713 0.719221 0.632371
O O4 0.086255 0.774609 0.790284
O O5 0.000000 0.500000 0.718563
O O6 0.000000 0.000000 0.697628
O O7 0.047948 0.347514 0.057915
O O8 0.302386 0.615316 0.063379
O O9 0.406289 0.500000 0.000000
O O10 0.370605 0.000000 0.000000
O O11 0.500000 0.500000 0.634779
#
# Coordination Sequence:
#
# PCOD9331212 Si02
#       6
#     4   8   2   8   8   4
#     4  12  21  38  66  86 119 170 210 234 320 364
#     4  11  24  38  62  97 127 157 200 256 322 381
#     4  12  16  40  56  86 138 152 184 242 322 358
#     4  10  21  43  63  84 128 159 206 267 305 356
#     4  11  23  36  59  97 128 153 198 258 309 379
#     4  10  23  40  60  90 112 169 216 256 280 370
#
# _framework density 18.794215000000001
#
# number of rings (size 3 to 8) (size 9 to 14) (size 15 to 20)
#    0.706    0.471    4.706    2.118    0.000    2.824 
#    0.000    2.353    0.000    0.000    0.000    0.000 
#    0.000    0.000    0.000    0.000    0.000    0.000 
#
# Total GULP energy -94668.460584 kJ/mol
# GULP energy per Si atom -5568.732976 kJ/mol
# Density = 1.875144 g / cm^3
# Si number density = 18.794215 Si / 1000 Ang^3
#
#
#
# Elastic Constant Matrix: (Units=GPa)
#
#
# Indices 1 2 3 4 5 6 
#
# 1 67.2148 21.8081 48.5960 0.0000 0.0000 0.0000
# 2 21.8081 111.0951 34.9909 0.0000 0.0000 0.0000
# 3 48.5960 34.9909 148.6521 0.0000 0.0000 0.0000
# 4 0.0000 0.0000 0.0000 19.4633 0.0000 0.0000
# 5 0.0000 0.0000 0.0000 0.0000 -14.8572 0.0000
# 6 0.0000 0.0000 0.0000 0.0000 0.0000 15.9649
#
#
#
# Elastic Compliance Matrix: (Units=1/GPa)
#
#
# Indices 1 2 3 4 5 6 
#
# 1 0.019887 -0.002005 -0.006030 0.000000 0.000000 0.000000
# 2 -0.002005 0.009924 -0.001681 0.000000 0.000000 0.000000
# 3 -0.006030 -0.001681 0.009094 0.000000 0.000000 0.000000
# 4 0.000000 0.000000 0.000000 0.051379 0.000000 0.000000
# 5 0.000000 0.000000 0.000000 0.000000 -0.067308 0.000000
# 6 0.000000 0.000000 0.000000 0.000000 0.000000 0.062637
#
#
# Mechanical properties :
#
#
# Convention : Reuss Voigt Hill
#
# Bulk Modulus (GPa) = 51.34660 59.75024 55.54842
# Shear Modulus (GPa) = 44.82868 18.88535 31.85702
#
# Velocity S-wave (km/s) = 4.88919 3.17337 4.12156
# Velocity P-wave (km/s) = 7.69753 6.72963 7.22980
#
# Compressibility (1/GPa) = 0.01947549
#
# Stress axis : x y z
#
# Youngs Moduli (GPa) = 50.28295 100.76393 109.96472
#
# Poissons Ratio (x) = 0.20202 0.66303
# Poissons Ratio (y) = 0.10081 0.18481
# Poissons Ratio (z) = 0.30318 0.16935
#
# Static dielectric constant tensor:
#      x y z
#    x 1.692790 0.000000 0.000000 
#    y 0.000000 1.721600 0.000000 
#    z 0.000000 0.000000 1.713940 
# 
# From -- ./inp_files/4363.got.cif
#   From: 2010.05.17/outbox.cif.g08.bks.cpg/sg23_3_cif.got.tgz:4363.got - 2010.06.04 12:02:01.
