data_PCOD9331956
_publ_section_title
;
Structure prediction by ZEFSAII (Michael W. Deem and Ramdas Pophale) SiO2 
 PCOD9331956
Probable space group: I 2 2 2
;
_chemical_formula_sum "Si O2"
_cell_formula_units_Z 40
_cell_length_a 28.812676
_cell_length_b 8.145492
_cell_length_c 7.959845
_cell_angle_alpha 90.000000
_cell_angle_beta 90.000000
_cell_angle_gamma 90.000000
_cell_volume 1868.123260
_symmetry_space_group_name_H-M "I 2 2 2"
_symmetry_group_IT_number 23
_symmetry_cell_setting 'orthorhombic'
loop_
_space_group_symop_operation_xyz
x,y,z
-x,-y,z
x,-y,-z
-x,y,-z
1/2+x,1/2+y,1/2+z
1/2-x,1/2-y,1/2+z
1/2+x,1/2-y,1/2-z
1/2-x,1/2+y,1/2-z
loop_
_atom_site_type_symbol
_atom_site_label
_atom_site_fract_x
_atom_site_fract_y
_atom_site_fract_z
Si Si1 0.680397 0.646942 0.780967
Si Si2 0.000000 0.000000 0.500000
Si Si3 0.221022 0.502313 0.196199
Si Si4 0.648513 0.825970 0.091210
Si Si5 0.612223 0.500000 0.500000
Si Si6 0.000000 0.500000 0.000000
Si Si7 0.445694 0.263487 0.267309
O O1 0.724602 0.528169 0.773541
O O2 0.702904 0.826617 0.755362
O O3 0.644367 0.591620 0.638208
O O4 0.656738 0.677217 0.962113
O O5 0.972746 0.876144 0.629058
O O6 0.191200 0.648116 0.280714
O O7 0.212619 0.500000 0.000000
O O8 0.598984 0.811278 0.176004
O O9 0.647750 0.000000 0.000000
O O10 0.578034 0.621590 0.405225
O O11 0.973052 0.622967 0.871085
#
# Coordination Sequence:
#
# PCOD9331956 Si02
#       7
#     8   2   8   8   4   2   8
#     4  11  26  42  70 107 151 205 247 304 360 444
#     4  12  28  52  84 108 158 192 248 320 420 492
#     4  11  24  41  68 101 151 195 256 298 362 426
#     4  10  25  43  71 104 144 190 251 305 371 442
#     4  12  28  47  74 106 158 196 250 299 396 462
#     4  12  32  48  88 112 146 184 260 328 404 456
#     4  12  28  50  79 110 146 192 248 320 394 475
#
# _framework density 21.411861999999999
#
# number of rings (size 3 to 8) (size 9 to 14) (size 15 to 20)
#    0.000    0.800    0.000    4.800   22.400    0.000 
#    0.000    0.000    0.000    0.000    0.000    0.000 
#    0.000    0.000    0.000    0.000    0.000    0.000 
#
# Total GULP energy -111739.188811 kJ/mol
# GULP energy per Si atom -5586.959441 kJ/mol
# Density = 2.136313 g / cm^3
# Si number density = 21.411862 Si / 1000 Ang^3
#
#
#
# Elastic Constant Matrix: (Units=GPa)
#
#
# Indices 1 2 3 4 5 6 
#
# 1 160.2624 92.6073 106.6246 0.0000 0.0000 0.0000
# 2 92.6073 156.1650 81.9171 0.0000 0.0000 0.0000
# 3 106.6246 81.9171 162.8325 0.0000 0.0000 0.0000
# 4 0.0000 0.0000 0.0000 295.7884 0.0000 0.0000
# 5 0.0000 0.0000 0.0000 0.0000 65.7752 0.0000
# 6 0.0000 0.0000 0.0000 0.0000 0.0000 197.0854
#
#
#
# Elastic Compliance Matrix: (Units=1/GPa)
#
#
# Indices 1 2 3 4 5 6 
#
# 1 0.012948 -0.004389 -0.006270 0.000000 0.000000 0.000000
# 2 -0.004389 0.010187 -0.002251 0.000000 0.000000 0.000000
# 3 -0.006270 -0.002251 0.011379 0.000000 0.000000 0.000000
# 4 0.000000 0.000000 0.000000 0.003381 0.000000 0.000000
# 5 0.000000 0.000000 0.000000 0.000000 0.015203 0.000000
# 6 0.000000 0.000000 0.000000 0.000000 0.000000 0.005074
#
#
# Mechanical properties :
#
#
# Convention : Reuss Voigt Hill
#
# Bulk Modulus (GPa) = 115.02407 115.72866 115.37636
# Shear Modulus (GPa) = 57.54404 124.93718 91.24061
#
# Velocity S-wave (km/s) = 5.18972 7.64697 6.53488
# Velocity P-wave (km/s) = 9.47351 11.49497 10.53285
#
# Compressibility (1/GPa) = 0.00869383
#
# Stress axis : x y z
#
# Youngs Moduli (GPa) = 77.23434 98.16578 87.87770
#
# Poissons Ratio (x) = 0.43085 0.55102
# Poissons Ratio (y) = 0.33898 0.19780
# Poissons Ratio (z) = 0.48428 0.22095
#
# Static dielectric constant tensor:
#      x y z
#    x 1.392100 0.000000 0.000000 
#    y 0.000000 1.764710 0.000000 
#    z 0.000000 0.000000 1.729740 
# 
# From -- ./inp_files/12942.got.cif
#   From: 2010.05.17/outbox.cif.g08.bks.cpg/sg23_7_cif.got.tgz:12942.got - 2010.06.04 12:02:01.
