data_PCOD9331381
_publ_section_title
;
Structure prediction by ZEFSAII (Michael W. Deem and Ramdas Pophale) SiO2 
 PCOD9331381
Probable space group: I 2 2 2
;
_chemical_formula_sum "Si O2"
_cell_formula_units_Z 58
_cell_length_a 14.225986
_cell_length_b 7.343128
_cell_length_c 28.774904
_cell_angle_alpha 90.000000
_cell_angle_beta 90.000000
_cell_angle_gamma 90.000000
_cell_volume 3005.919591
_symmetry_space_group_name_H-M "I 2 2 2"
_symmetry_group_IT_number 23
_symmetry_cell_setting 'orthorhombic'
loop_
_space_group_symop_operation_xyz
x,y,z
-x,-y,z
x,-y,-z
-x,y,-z
1/2+x,1/2+y,1/2+z
1/2-x,1/2-y,1/2+z
1/2+x,1/2-y,1/2-z
1/2-x,1/2+y,1/2-z
loop_
_atom_site_type_symbol
_atom_site_label
_atom_site_fract_x
_atom_site_fract_y
_atom_site_fract_z
Si Si1 0.274435 0.897726 0.789462
Si Si2 0.279179 0.899961 0.609467
Si Si3 0.527519 0.783528 0.234371
Si Si4 0.332260 0.685369 0.196182
Si Si5 0.465866 0.209901 0.340224
Si Si6 0.000000 0.000000 0.000000
Si Si7 0.656896 0.300910 0.378030
Si Si8 0.315074 0.401648 0.454888
O O1 0.369980 0.779620 0.788451
O O2 0.229180 0.899643 0.738129
O O3 0.202335 0.820391 0.827042
O O4 0.302414 0.101841 0.803381
O O5 0.194134 0.893584 0.646054
O O6 0.364666 0.798129 0.636605
O O7 0.269390 0.784555 0.562565
O O8 0.312622 0.105472 0.602078
O O9 0.441755 0.682607 0.209627
O O10 0.537588 0.720120 0.287643
O O11 0.500000 0.000000 0.235521
O O12 0.545437 0.307155 0.370080
O O13 0.500000 0.000000 0.337364
O O14 0.925763 0.117683 0.030197
O O15 0.689404 0.456238 0.412733
O O16 0.271770 0.500000 0.500000
#
# Coordination Sequence:
#
# PCOD9331381 Si02
#       8
#     8   8   8   8   8   2   8   8
#     4  11  20  34  52  79 114 155 198 239 281 343
#     4  11  21  36  57  80 113 156 194 231 289 343
#     4   9  18  31  49  74 114 156 195 236 276 327
#     4  11  20  34  52  79 114 155 198 239 281 343
#     4   9  17  30  49  77 113 153 192 225 275 337
#     4   8  20  40  62  84 124 136 204 248 278 360
#     4  11  21  36  57  80 113 156 194 231 289 343
#     4  10  22  40  56  83 112 148 193 244 287 340
#
# _framework density 19.295259999999999
#
# number of rings (size 3 to 8) (size 9 to 14) (size 15 to 20)
#    0.414    1.379    4.138    1.655    0.000    0.552 
#    0.000    4.828    0.000    0.000    0.000    1.931 
#    0.000    2.207    0.000    0.000    0.000    0.000 
#
# Total GULP energy -162007.714670 kJ/mol
# GULP energy per Si atom -5586.472920 kJ/mol
# Density = 1.925134 g / cm^3
# Si number density = 19.295260 Si / 1000 Ang^3
#
#
#
# Elastic Constant Matrix: (Units=GPa)
#
#
# Indices 1 2 3 4 5 6 
#
# 1 59.8412 4.8907 -1.8285 0.0000 0.0000 0.0000
# 2 4.8907 80.1111 18.6568 0.0000 0.0000 0.0000
# 3 -1.8285 18.6568 60.6220 0.0000 0.0000 0.0000
# 4 0.0000 0.0000 0.0000 22.6650 0.0000 0.0000
# 5 0.0000 0.0000 0.0000 0.0000 22.5645 0.0000
# 6 0.0000 0.0000 0.0000 0.0000 0.0000 14.4328
#
#
#
# Elastic Compliance Matrix: (Units=1/GPa)
#
#
# Indices 1 2 3 4 5 6 
#
# 1 0.016839 -0.001235 0.000888 0.000000 0.000000 0.000000
# 2 -0.001235 0.013537 -0.004203 0.000000 0.000000 0.000000
# 3 0.000888 -0.004203 0.017816 0.000000 0.000000 0.000000
# 4 0.000000 0.000000 0.000000 0.044121 0.000000 0.000000
# 5 0.000000 0.000000 0.000000 0.000000 0.044317 0.000000
# 6 0.000000 0.000000 0.000000 0.000000 0.000000 0.069287
#
#
# Mechanical properties :
#
#
# Convention : Reuss Voigt Hill
#
# Bulk Modulus (GPa) = 25.58098 27.11247 26.34673
# Shear Modulus (GPa) = 21.92524 23.85616 22.89070
#
# Velocity S-wave (km/s) = 3.37457 3.52003 3.44806
# Velocity P-wave (km/s) = 5.33573 5.53197 5.43473
#
# Compressibility (1/GPa) = 0.03909154
#
# Stress axis : x y z
#
# Youngs Moduli (GPa) = 59.38619 73.87192 56.12916
#
# Poissons Ratio (x) = 0.09122 -0.04984
# Poissons Ratio (y) = 0.07333 0.23593
# Poissons Ratio (z) = -0.05273 0.31051
#
# Static dielectric constant tensor:
#      x y z
#    x 1.676670 0.000000 0.000000 
#    y 0.000000 1.727160 0.000000 
#    z 0.000000 0.000000 1.671590 
# 
# From -- ./inp_files/29634.got.cif
#   From: 2010.05.17/outbox.cif.g08.bks.cpg/sg23_15_cif.got.tgz:29634.got - 2010.06.04 12:02:01.
