data_PCOD9331601
_publ_section_title
;
Structure prediction by ZEFSAII (Michael W. Deem and Ramdas Pophale) SiO2 
 PCOD9331601
Probable space group: I 2 2 2
;
_chemical_formula_sum "Si O2"
_cell_formula_units_Z 44
_cell_length_a 17.423222
_cell_length_b 10.593445
_cell_length_c 11.182957
_cell_angle_alpha 90.000000
_cell_angle_beta 90.000000
_cell_angle_gamma 90.000000
_cell_volume 2064.060113
_symmetry_space_group_name_H-M "I 2 2 2"
_symmetry_group_IT_number 23
_symmetry_cell_setting 'orthorhombic'
loop_
_space_group_symop_operation_xyz
x,y,z
-x,-y,z
x,-y,-z
-x,y,-z
1/2+x,1/2+y,1/2+z
1/2-x,1/2-y,1/2+z
1/2+x,1/2-y,1/2-z
1/2-x,1/2+y,1/2-z
loop_
_atom_site_type_symbol
_atom_site_label
_atom_site_fract_x
_atom_site_fract_y
_atom_site_fract_z
Si Si1 0.362981 0.327633 0.955537
Si Si2 0.179985 0.309722 0.235229
Si Si3 0.741778 0.071087 0.711546
Si Si4 0.022687 0.352595 0.130220
Si Si5 0.908703 0.317945 0.320219
Si Si6 0.500000 0.000000 0.000000
Si Si7 0.500000 0.500000 0.000000
O O1 0.357919 0.207573 0.866942
O O2 0.285160 0.398871 0.913393
O O3 0.371673 0.286140 0.092362
O O4 0.439255 0.410641 0.930446
O O5 0.211767 0.170571 0.205814
O O6 0.240424 0.423347 0.239188
O O7 0.113092 0.344246 0.145967
O O8 0.655310 0.118682 0.734992
O O9 0.000000 0.500000 0.143043
O O10 0.976631 0.277347 0.231833
O O11 0.000000 0.308224 0.000000
O O12 0.947400 0.415410 0.413111
#
# Coordination Sequence:
#
# PCOD9331601 Si02
#       7
#     8   8   8   8   8   2   2
#     4  10  26  39  72 102 142 194 238 306 385 430
#     4  10  22  48  62 107 138 194 243 296 377 446
#     4  10  24  42  67 102 142 187 241 304 375 433
#     4  11  22  39  69  97 137 192 246 298 372 453
#     4  12  21  42  66 101 140 187 249 314 363 457
#     4  12  22  36  78  94 136 192 256 314 370 426
#     4  12  22  44  64 114 146 180 240 318 372 440
#
# _framework density 21.317209999999999
#
# number of rings (size 3 to 8) (size 9 to 14) (size 15 to 20)
#    1.091    0.182    2.727    3.818    2.545    1.455 
#    0.000    0.000    0.000    0.000    0.000    8.273 
#    0.000    0.000    0.000    0.000    0.000    0.000 
#
# Total GULP energy -122582.031241 kJ/mol
# GULP energy per Si atom -5571.910511 kJ/mol
# Density = 2.126869 g / cm^3
# Si number density = 21.317210 Si / 1000 Ang^3
#
#
#
# Elastic Constant Matrix: (Units=GPa)
#
#
# Indices 1 2 3 4 5 6 
#
# 1 121.1372 51.5305 47.4873 0.0000 0.0000 0.0000
# 2 51.5305 109.0326 50.7984 0.0000 0.0000 0.0000
# 3 47.4873 50.7984 104.4539 0.0000 0.0000 0.0000
# 4 0.0000 0.0000 0.0000 27.6283 0.0000 0.0000
# 5 0.0000 0.0000 0.0000 0.0000 37.2662 0.0000
# 6 0.0000 0.0000 0.0000 0.0000 0.0000 51.4048
#
#
#
# Elastic Compliance Matrix: (Units=1/GPa)
#
#
# Indices 1 2 3 4 5 6 
#
# 1 0.011116 -0.003748 -0.003231 0.000000 0.000000 0.000000
# 2 -0.003748 0.013122 -0.004678 0.000000 0.000000 0.000000
# 3 -0.003231 -0.004678 0.013317 0.000000 0.000000 0.000000
# 4 0.000000 0.000000 0.000000 0.036195 0.000000 0.000000
# 5 0.000000 0.000000 0.000000 0.000000 0.026834 0.000000
# 6 0.000000 0.000000 0.000000 0.000000 0.000000 0.019453
#
#
# Mechanical properties :
#
#
# Convention : Reuss Voigt Hill
#
# Bulk Modulus (GPa) = 70.21378 70.47289 70.34333
# Shear Modulus (GPa) = 33.76122 35.58035 34.67079
#
# Velocity S-wave (km/s) = 3.98396 4.08988 4.03727
# Velocity P-wave (km/s) = 7.36014 7.44539 7.40289
#
# Compressibility (1/GPa) = 0.01424222
#
# Stress axis : x y z
#
# Youngs Moduli (GPa) = 89.95926 76.20526 75.09099
#
# Poissons Ratio (x) = 0.28565 0.24260
# Poissons Ratio (y) = 0.33721 0.35125
# Poissons Ratio (z) = 0.29063 0.35646
#
# Static dielectric constant tensor:
#      x y z
#    x 1.807300 0.000000 0.000000 
#    y 0.000000 1.849140 0.000000 
#    z 0.000000 0.000000 1.799910 
# 
# From -- ./inp_files/17378.got.cif
#   From: 2010.05.17/outbox.cif.g08.bks.cpg/sg23_9_cif.got.tgz:17378.got - 2010.06.04 12:02:01.
