data_PCOD9331578
_publ_section_title
;
Structure prediction by ZEFSAII (Michael W. Deem and Ramdas Pophale) SiO2 
 PCOD9331578
Probable space group: I 2 2 2
;
_chemical_formula_sum "Si O2"
_cell_formula_units_Z 28
_cell_length_a 5.553520
_cell_length_b 19.347156
_cell_length_c 10.905942
_cell_angle_alpha 90.000000
_cell_angle_beta 90.000000
_cell_angle_gamma 90.000000
_cell_volume 1171.786951
_symmetry_space_group_name_H-M "I 2 2 2"
_symmetry_group_IT_number 23
_symmetry_cell_setting 'orthorhombic'
loop_
_space_group_symop_operation_xyz
x,y,z
-x,-y,z
x,-y,-z
-x,y,-z
1/2+x,1/2+y,1/2+z
1/2-x,1/2-y,1/2+z
1/2+x,1/2-y,1/2-z
1/2-x,1/2+y,1/2-z
loop_
_atom_site_type_symbol
_atom_site_label
_atom_site_fract_x
_atom_site_fract_y
_atom_site_fract_z
Si Si1 0.152702 0.568798 0.209327
Si Si2 0.850844 0.304448 0.873193
Si Si3 0.744140 0.653246 0.579197
Si Si4 0.500000 0.602038 0.000000
O O1 0.284933 0.585831 0.335292
O O2 0.305542 0.563126 0.083566
O O3 0.000000 0.500000 0.218635
O O4 0.992766 0.638892 0.204714
O O5 0.784518 0.225947 0.844166
O O6 0.610487 0.345962 0.901535
O O7 0.000000 0.301336 0.000000
O O8 0.500000 0.653479 0.500000
O O9 0.000000 0.654604 0.500000
#
# Coordination Sequence:
#
# PCOD9331578 Si02
#       4
#     8   8   8   4
#     4  11  27  45  76 114 154 205 251 323 394 463
#     4   9  21  40  71 111 145 193 247 319 378 447
#     4  11  26  49  79 112 152 202 266 317 379 462
#     4  10  22  45  72 106 153 184 256 312 395 446
#
# _framework density 23.895126999999999
#
# number of rings (size 3 to 8) (size 9 to 14) (size 15 to 20)
#    0.000    1.714    1.429    0.000    8.000    8.000 
#    0.000    1.429    0.000    0.000    0.000    0.000 
#    0.000    0.000    0.000    0.000    0.000    0.000 
#
# Total GULP energy -78041.431086 kJ/mol
# GULP energy per Si atom -5574.387935 kJ/mol
# Density = 2.384074 g / cm^3
# Si number density = 23.895127 Si / 1000 Ang^3
#
#
#
# Elastic Constant Matrix: (Units=GPa)
#
#
# Indices 1 2 3 4 5 6 
#
# 1 103.0784 61.9554 27.9679 0.0000 0.0000 0.0000
# 2 61.9554 181.4722 76.6658 0.0000 0.0000 0.0000
# 3 27.9679 76.6658 53.2594 0.0000 0.0000 0.0000
# 4 0.0000 0.0000 0.0000 47.7359 0.0000 0.0000
# 5 0.0000 0.0000 0.0000 0.0000 26.1241 0.0000
# 6 0.0000 0.0000 0.0000 0.0000 0.0000 48.9381
#
#
#
# Elastic Compliance Matrix: (Units=1/GPa)
#
#
# Indices 1 2 3 4 5 6 
#
# 1 0.012229 -0.003731 -0.001051 0.000000 0.000000 0.000000
# 2 -0.003731 0.015200 -0.019921 0.000000 0.000000 0.000000
# 3 -0.001051 -0.019921 0.048004 0.000000 0.000000 0.000000
# 4 0.000000 0.000000 0.000000 0.020949 0.000000 0.000000
# 5 0.000000 0.000000 0.000000 0.000000 0.038279 0.000000
# 6 0.000000 0.000000 0.000000 0.000000 0.000000 0.020434
#
#
# Mechanical properties :
#
#
# Convention : Reuss Voigt Hill
#
# Bulk Modulus (GPa) = 38.42184 74.55424 56.48804
# Shear Modulus (GPa) = 23.45463 35.97435 29.71449
#
# Velocity S-wave (km/s) = 3.13639 3.88430 3.53021
# Velocity P-wave (km/s) = 5.40650 7.16836 6.34884
#
# Compressibility (1/GPa) = 0.02602686
#
# Stress axis : x y z
#
# Youngs Moduli (GPa) = 81.77233 65.78800 20.83148
#
# Poissons Ratio (x) = 0.24546 0.02190
# Poissons Ratio (y) = 0.30509 0.41499
# Poissons Ratio (z) = 0.08595 1.31058
#
# Static dielectric constant tensor:
#      x y z
#    x 1.744960 0.000000 0.000000 
#    y 0.000000 1.858380 0.000000 
#    z 0.000000 0.000000 2.207590 
# 
# From -- ./inp_files/13727.got.cif
#   From: 2010.05.17/outbox.cif.g08.bks.cpg/sg23_7_cif.got.tgz:13727.got - 2010.06.04 12:02:01.
