data_PCOD9331884
_publ_section_title
;
Structure prediction by ZEFSAII (Michael W. Deem and Ramdas Pophale) SiO2 
 PCOD9331884
Probable space group: I 2 2 2
;
_chemical_formula_sum "Si O2"
_cell_formula_units_Z 38
_cell_length_a 13.224614
_cell_length_b 4.592051
_cell_length_c 24.120551
_cell_angle_alpha 90.000000
_cell_angle_beta 90.000000
_cell_angle_gamma 90.000000
_cell_volume 1464.795280
_symmetry_space_group_name_H-M "I 2 2 2"
_symmetry_group_IT_number 23
_symmetry_cell_setting 'orthorhombic'
loop_
_space_group_symop_operation_xyz
x,y,z
-x,-y,z
x,-y,-z
-x,y,-z
1/2+x,1/2+y,1/2+z
1/2-x,1/2-y,1/2+z
1/2+x,1/2-y,1/2-z
1/2-x,1/2+y,1/2-z
loop_
_atom_site_type_symbol
_atom_site_label
_atom_site_fract_x
_atom_site_fract_y
_atom_site_fract_z
Si Si1 0.500000 0.000000 0.602791
Si Si2 0.802875 0.795200 0.944281
Si Si3 0.000000 0.500000 0.414167
Si Si4 0.695028 0.726962 0.113000
Si Si5 0.500000 0.500000 0.000000
Si Si6 0.811404 0.162730 0.264376
Si Si7 0.000000 0.000000 0.811495
O O1 0.410168 0.862555 0.565321
O O2 0.532623 0.753937 0.646376
O O3 0.719615 0.535234 0.932948
O O4 0.782803 0.040402 0.898558
O O5 0.531491 0.262205 0.954759
O O6 0.793957 0.000000 0.000000
O O7 0.100687 0.541354 0.380205
O O8 0.689792 0.571683 0.171587
O O9 0.784960 0.501588 0.261908
O O10 0.909316 0.096579 0.228481
#
# Coordination Sequence:
#
# PCOD9331884 Si02
#       7
#     4   8   4   8   2   8   4
#     4  12  26  53  79 117 155 200 270 336 388 476
#     4  12  28  51  83 112 155 212 272 326 398 464
#     4  11  26  45  76 105 157 198 255 314 381 460
#     4  12  27  49  77 116 158 205 265 318 389 479
#     4  10  24  44  72 102 140 196 254 302 380 430
#     4  12  26  47  76 114 156 199 256 321 389 470
#     4  12  26  47  83 112 155 208 251 320 418 462
#
# _framework density 25.942194000000001
#
# number of rings (size 3 to 8) (size 9 to 14) (size 15 to 20)
#    0.000    0.211    0.000    9.474    5.895    5.053 
#    0.000   13.158    0.000    0.000    0.000    0.000 
#    0.000    0.000    0.000    0.000    0.000    0.000 
#
# Total GULP energy -105790.032749 kJ/mol
# GULP energy per Si atom -5567.896460 kJ/mol
# Density = 2.588315 g / cm^3
# Si number density = 25.942194 Si / 1000 Ang^3
#
#
#
# Elastic Constant Matrix: (Units=GPa)
#
#
# Indices 1 2 3 4 5 6 
#
# 1 178.7464 78.3741 84.2210 0.0000 0.0000 0.0000
# 2 78.3741 158.7245 54.4419 0.0000 0.0000 0.0000
# 3 84.2210 54.4419 140.9720 0.0000 0.0000 0.0000
# 4 0.0000 0.0000 0.0000 64.9763 0.0000 0.0000
# 5 0.0000 0.0000 0.0000 0.0000 -326.2829 0.0000
# 6 0.0000 0.0000 0.0000 0.0000 0.0000 41.8831
#
#
#
# Elastic Compliance Matrix: (Units=1/GPa)
#
#
# Indices 1 2 3 4 5 6 
#
# 1 0.008837 -0.002942 -0.004143 0.000000 0.000000 0.000000
# 2 -0.002942 0.008242 -0.001425 0.000000 0.000000 0.000000
# 3 -0.004143 -0.001425 0.010119 0.000000 0.000000 0.000000
# 4 0.000000 0.000000 0.000000 0.015390 0.000000 0.000000
# 5 0.000000 0.000000 0.000000 0.000000 -0.003065 0.000000
# 6 0.000000 0.000000 0.000000 0.000000 0.000000 0.023876
#
#
# Mechanical properties :
#
#
# Convention : Reuss Voigt Hill
#
# Bulk Modulus (GPa) = 98.26231 101.39078 99.82654
# Shear Modulus (GPa) = 59.65711 -26.45767 16.59972
#
# Velocity S-wave (km/s) = 4.80063 -3.19700 2.53232
# Velocity P-wave (km/s) = 8.28781 5.05375 6.86397
#
# Compressibility (1/GPa) = 0.01017684
#
# Stress axis : x y z
#
# Youngs Moduli (GPa) = 113.16427 121.33182 98.82252
#
# Poissons Ratio (x) = 0.35699 0.40943
# Poissons Ratio (y) = 0.33296 0.14083
# Poissons Ratio (z) = 0.46884 0.17291
#
# Static dielectric constant tensor:
#      x y z
#    x 1.570380 0.000000 0.000000 
#    y 0.000000 2.059860 0.000000 
#    z 0.000000 0.000000 1.779870 
# 
# From -- ./inp_files/1773.got.cif
#   From: 2010.05.17/outbox.cif.g08.bks.cpg/sg23_1_cif.got.tgz:1773.got - 2010.06.04 12:02:01.
