data_PCOD9331789
_publ_section_title
;
Structure prediction by ZEFSAII (Michael W. Deem and Ramdas Pophale) SiO2 
 PCOD9331789
Probable space group: I 2 2 2
;
_chemical_formula_sum "Si O2"
_cell_formula_units_Z 40
_cell_length_a 6.786750
_cell_length_b 9.647918
_cell_length_c 20.900574
_cell_angle_alpha 90.000000
_cell_angle_beta 90.000000
_cell_angle_gamma 90.000000
_cell_volume 1368.527941
_symmetry_space_group_name_H-M "I 2 2 2"
_symmetry_group_IT_number 23
_symmetry_cell_setting 'orthorhombic'
loop_
_space_group_symop_operation_xyz
x,y,z
-x,-y,z
x,-y,-z
-x,y,-z
1/2+x,1/2+y,1/2+z
1/2-x,1/2-y,1/2+z
1/2+x,1/2-y,1/2-z
1/2-x,1/2+y,1/2-z
loop_
_atom_site_type_symbol
_atom_site_label
_atom_site_fract_x
_atom_site_fract_y
_atom_site_fract_z
Si Si1 0.806567 0.521655 0.609121
Si Si2 0.633541 0.297349 0.943153
Si Si3 0.524094 0.278944 0.595865
Si Si4 0.879794 0.109571 0.295752
Si Si5 0.626851 0.108714 0.712095
O O1 0.690301 0.392230 0.579686
O O2 0.630611 0.620345 0.635380
O O3 0.000000 0.500000 0.654250
O O4 0.093708 0.367829 0.562395
O O5 0.869548 0.292603 0.951885
O O6 0.607191 0.361398 0.872859
O O7 0.500000 0.352190 0.000000
O O8 0.626130 0.165821 0.638744
O O9 0.627222 0.071514 0.285766
O O10 0.876866 0.253566 0.256389
O O11 0.125482 0.068910 0.282084
#
# Coordination Sequence:
#
# PCOD9331789 Si02
#       5
#     8   8   8   8   8
#     4   9  20  40  77 120 162 215 292 360 433 523
#     4  10  23  48  76 114 170 235 305 363 447 546
#     4   9  22  43  78 117 171 222 291 365 451 520
#     4  12  29  44  79 127 168 242 296 389 459 543
#     4  12  25  49  78 124 184 221 302 377 468 552
#
# _framework density 29.228484000000002
#
# number of rings (size 3 to 8) (size 9 to 14) (size 15 to 20)
#    1.200    0.400    2.000    1.200    8.400    1.600 
#    0.000    1.000    4.400    0.000    0.000    0.000 
#    0.000    0.000    0.000    0.000    0.000    0.000 
#
# Total GULP energy -111524.249786 kJ/mol
# GULP energy per Si atom -5576.212489 kJ/mol
# Density = 2.916196 g / cm^3
# Si number density = 29.228484 Si / 1000 Ang^3
#
#
#
# Elastic Constant Matrix: (Units=GPa)
#
#
# Indices 1 2 3 4 5 6 
#
# 1 328.0070 121.3803 76.1828 0.0000 0.0000 0.0000
# 2 121.3803 243.4347 77.1481 0.0000 0.0000 0.0000
# 3 76.1828 77.1481 164.9966 0.0000 0.0000 0.0000
# 4 0.0000 0.0000 0.0000 10.6781 0.0000 0.0000
# 5 0.0000 0.0000 0.0000 0.0000 58.5482 0.0000
# 6 0.0000 0.0000 0.0000 0.0000 0.0000 95.9474
#
#
#
# Elastic Compliance Matrix: (Units=1/GPa)
#
#
# Indices 1 2 3 4 5 6 
#
# 1 0.003886 -0.001607 -0.001043 0.000000 0.000000 0.000000
# 2 -0.001607 0.005487 -0.001824 0.000000 0.000000 0.000000
# 3 -0.001043 -0.001824 0.007395 0.000000 0.000000 0.000000
# 4 0.000000 0.000000 0.000000 0.093649 0.000000 0.000000
# 5 0.000000 0.000000 0.000000 0.000000 0.017080 0.000000
# 6 0.000000 0.000000 0.000000 0.000000 0.000000 0.010422
#
#
# Mechanical properties :
#
#
# Convention : Reuss Voigt Hill
#
# Bulk Modulus (GPa) = 127.86225 142.87340 135.36782
# Shear Modulus (GPa) = 33.45091 63.81656 48.63373
#
# Velocity S-wave (km/s) = 3.38666 4.67772 4.08354
# Velocity P-wave (km/s) = 7.68982 8.84095 8.28540
#
# Compressibility (1/GPa) = 0.00782092
#
# Stress axis : x y z
#
# Youngs Moduli (GPa) = 257.36399 182.24663 135.22926
#
# Poissons Ratio (x) = 0.29286 0.14100
# Poissons Ratio (y) = 0.41357 0.24661
# Poissons Ratio (z) = 0.26835 0.33235
#
# Static dielectric constant tensor:
#      x y z
#    x 2.584840 0.000000 0.000000 
#    y 0.000000 2.221730 0.000000 
#    z 0.000000 0.000000 2.258310 
# 
# From -- ./inp_files/3840.got.cif
#   From: 2010.05.17/outbox.cif.g08.bks.cpg/sg23_2_cif.got.tgz:3840.got - 2010.06.04 12:02:01.
