data_PCOD9331074
_publ_section_title
;
Structure prediction by ZEFSAII (Michael W. Deem and Ramdas Pophale) SiO2 
 PCOD9331074
Probable space group: I 2 2 2
;
_chemical_formula_sum "Si O2"
_cell_formula_units_Z 52
_cell_length_a 14.464008
_cell_length_b 8.999779
_cell_length_c 20.884696
_cell_angle_alpha 90.000000
_cell_angle_beta 90.000000
_cell_angle_gamma 90.000000
_cell_volume 2718.620931
_symmetry_space_group_name_H-M "I 2 2 2"
_symmetry_group_IT_number 23
_symmetry_cell_setting 'orthorhombic'
loop_
_space_group_symop_operation_xyz
x,y,z
-x,-y,z
x,-y,-z
-x,y,-z
1/2+x,1/2+y,1/2+z
1/2-x,1/2-y,1/2+z
1/2+x,1/2-y,1/2-z
1/2-x,1/2+y,1/2-z
loop_
_atom_site_type_symbol
_atom_site_label
_atom_site_fract_x
_atom_site_fract_y
_atom_site_fract_z
Si Si1 0.000000 0.690628 0.000000
Si Si2 0.699042 0.883487 0.299207
Si Si3 0.084633 0.885321 0.892738
Si Si4 0.682955 0.900342 0.441357
Si Si5 0.736373 0.931115 0.931484
Si Si6 0.148626 0.633104 0.696411
Si Si7 0.501924 0.827573 0.708130
O O1 0.066114 0.790705 0.956468
O O2 0.927495 0.610696 0.953148
O O3 0.701650 0.957926 0.369798
O O4 0.786469 0.776652 0.293866
O O5 0.605199 0.782898 0.297131
O O6 0.686757 0.003905 0.243568
O O7 0.069136 0.772942 0.834267
O O8 0.180378 0.971153 0.900839
O O9 0.000000 0.000000 0.888659
O O10 0.724492 0.735015 0.442377
O O11 0.718794 0.000000 0.500000
O O12 0.658787 0.917813 0.876789
O O13 0.710362 0.000000 0.000000
O O14 0.045914 0.669195 0.721237
O O15 0.500000 0.000000 0.686885
#
# Coordination Sequence:
#
# PCOD9331074 Si02
#       7
#     4   8   8   8   8   8   8
#     4  12  20  30  48  80 114 142 180 204 264 354
#     4  10  21  40  54  84 115 149 185 232 277 337
#     4  12  19  33  52  79 113 152 181 220 270 353
#     4  11  23  32  51  81 116 146 182 218 279 353
#     4  11  21  36  53  76 109 146 188 236 285 328
#     4  10  22  36  55  80 109 148 192 232 275 343
#     4  10  22  36  56  79 115 148 187 229 284 330
#
# _framework density 19.127344999999998
#
# number of rings (size 3 to 8) (size 9 to 14) (size 15 to 20)
#    0.000    1.231    4.615    2.308    4.308    1.231 
#    0.000    0.000    0.000    4.154    0.000    0.000 
#    0.000    1.231    0.000    0.000    0.000    0.000 
#
# Total GULP energy -145134.023837 kJ/mol
# GULP energy per Si atom -5582.077840 kJ/mol
# Density = 1.908381 g / cm^3
# Si number density = 19.127345 Si / 1000 Ang^3
#
#
#
# Elastic Constant Matrix: (Units=GPa)
#
#
# Indices 1 2 3 4 5 6 
#
# 1 35.9352 -0.3312 25.3228 0.0000 0.0000 0.0000
# 2 -0.3312 47.4429 30.4945 0.0000 0.0000 0.0000
# 3 25.3228 30.4945 141.0962 0.0000 0.0000 0.0000
# 4 0.0000 0.0000 0.0000 21.9809 0.0000 0.0000
# 5 0.0000 0.0000 0.0000 0.0000 35.5535 0.0000
# 6 0.0000 0.0000 0.0000 0.0000 0.0000 16.1303
#
#
#
# Elastic Compliance Matrix: (Units=1/GPa)
#
#
# Indices 1 2 3 4 5 6 
#
# 1 0.032716 0.004648 -0.006876 0.000000 0.000000 0.000000
# 2 0.004648 0.025139 -0.006267 0.000000 0.000000 0.000000
# 3 -0.006876 -0.006267 0.009676 0.000000 0.000000 0.000000
# 4 0.000000 0.000000 0.000000 0.045494 0.000000 0.000000
# 5 0.000000 0.000000 0.000000 0.000000 0.028127 0.000000
# 6 0.000000 0.000000 0.000000 0.000000 0.000000 0.061995
#
#
# Mechanical properties :
#
#
# Convention : Reuss Voigt Hill
#
# Bulk Modulus (GPa) = 19.78623 37.27185 28.52904
# Shear Modulus (GPa) = 21.09843 25.99882 23.54863
#
# Velocity S-wave (km/s) = 3.32482 3.69080 3.51258
# Velocity P-wave (km/s) = 5.01061 6.13931 5.60345
#
# Compressibility (1/GPa) = 0.05054020
#
# Stress axis : x y z
#
# Youngs Moduli (GPa) = 30.56584 39.77911 103.34865
#
# Poissons Ratio (x) = -0.18490 0.71065
# Poissons Ratio (y) = -0.14207 0.64772
# Poissons Ratio (z) = 0.21018 0.24931
#
# Static dielectric constant tensor:
#      x y z
#    x 1.657450 0.000000 0.000000 
#    y 0.000000 1.730440 0.000000 
#    z 0.000000 0.000000 1.725160 
# 
# From -- ./inp_files/10148.got.cif
#   From: 2010.05.17/outbox.cif.g08.bks.cpg/sg23_6_cif.got.tgz:10148.got - 2010.06.04 12:02:01.
