data_PCOD9331122
_publ_section_title
;
Structure prediction by ZEFSAII (Michael W. Deem and Ramdas Pophale) SiO2 
 PCOD9331122
Probable space group: I 2 2 2
;
_chemical_formula_sum "Si O2"
_cell_formula_units_Z 56
_cell_length_a 15.003515
_cell_length_b 16.369202
_cell_length_c 11.507019
_cell_angle_alpha 90.000000
_cell_angle_beta 90.000000
_cell_angle_gamma 90.000000
_cell_volume 2826.072864
_symmetry_space_group_name_H-M "I 2 2 2"
_symmetry_group_IT_number 23
_symmetry_cell_setting 'orthorhombic'
loop_
_space_group_symop_operation_xyz
x,y,z
-x,-y,z
x,-y,-z
-x,y,-z
1/2+x,1/2+y,1/2+z
1/2-x,1/2-y,1/2+z
1/2+x,1/2-y,1/2-z
1/2-x,1/2+y,1/2-z
loop_
_atom_site_type_symbol
_atom_site_label
_atom_site_fract_x
_atom_site_fract_y
_atom_site_fract_z
Si Si1 0.987060 0.323937 0.863457
Si Si2 0.845979 0.922275 0.652923
Si Si3 0.002673 0.197469 0.671833
Si Si4 0.826147 0.387695 0.726267
Si Si5 0.822138 0.889885 0.385550
Si Si6 0.406291 0.156515 0.020871
Si Si7 0.352166 0.082115 0.249709
O O1 0.887443 0.346438 0.824181
O O2 0.007078 0.239726 0.796791
O O3 0.054743 0.389862 0.806756
O O4 0.000000 0.320943 0.000000
O O5 0.942951 0.885292 0.665477
O O6 0.778037 0.881960 0.744251
O O7 0.811756 0.898869 0.523964
O O8 0.848988 0.019835 0.659741
O O9 0.055957 0.261143 0.586512
O O10 0.900879 0.174291 0.640493
O O11 0.856488 0.349857 0.602636
O O12 0.845230 0.484608 0.739845
O O13 0.727143 0.877225 0.324451
O O14 0.347772 0.114982 0.118980
O O15 0.500000 0.109810 0.000000
#
# Coordination Sequence:
#
# PCOD9331122 Si02
#       7
#     8   8   8   8   8   8   8
#     4  11  24  39  57  90 122 166 199 252 327 374
#     4  10  22  39  65  95 119 162 214 264 312 367
#     4  11  23  42  63  88 128 163 213 260 314 382
#     4  11  22  39  62  91 125 159 206 259 308 378
#     4  10  21  40  67  92 121 163 212 265 310 367
#     4  11  21  39  61  94 124 167 202 248 318 374
#     4  10  22  38  62  93 123 160 208 256 312 372
#
# _framework density 19.815483
#
# number of rings (size 3 to 8) (size 9 to 14) (size 15 to 20)
#    0.000    1.429    2.857    3.429    0.000    6.286 
#    5.143    0.000    0.000    0.857    0.000    0.000 
#    0.000    0.000    0.000    0.000    0.000    0.000 
#
# Total GULP energy -156175.171365 kJ/mol
# GULP energy per Si atom -5577.684692 kJ/mol
# Density = 1.977038 g / cm^3
# Si number density = 19.815483 Si / 1000 Ang^3
#
#
#
# Elastic Constant Matrix: (Units=GPa)
#
#
# Indices 1 2 3 4 5 6 
#
# 1 54.5108 5.8602 7.1295 0.0000 0.0000 0.0000
# 2 5.8602 40.8921 20.6994 0.0000 0.0000 0.0000
# 3 7.1295 20.6994 120.0325 0.0000 0.0000 0.0000
# 4 0.0000 0.0000 0.0000 20.6329 0.0000 0.0000
# 5 0.0000 0.0000 0.0000 0.0000 28.1224 0.0000
# 6 0.0000 0.0000 0.0000 0.0000 0.0000 15.5359
#
#
#
# Elastic Compliance Matrix: (Units=1/GPa)
#
#
# Indices 1 2 3 4 5 6 
#
# 1 0.018687 -0.002319 -0.000710 0.000000 0.000000 0.000000
# 2 -0.002319 0.027081 -0.004532 0.000000 0.000000 0.000000
# 3 -0.000710 -0.004532 0.009155 0.000000 0.000000 0.000000
# 4 0.000000 0.000000 0.000000 0.048466 0.000000 0.000000
# 5 0.000000 0.000000 0.000000 0.000000 0.035559 0.000000
# 6 0.000000 0.000000 0.000000 0.000000 0.000000 0.064367
#
#
# Mechanical properties :
#
#
# Convention : Reuss Voigt Hill
#
# Bulk Modulus (GPa) = 25.12497 31.42371 28.27434
# Shear Modulus (GPa) = 21.57923 24.97467 23.27695
#
# Velocity S-wave (km/s) = 3.30359 3.55401 3.43109
# Velocity P-wave (km/s) = 5.22098 5.72135 5.47688
#
# Compressibility (1/GPa) = 0.03980104
#
# Stress axis : x y z
#
# Youngs Moduli (GPa) = 53.51276 36.92603 109.23165
#
# Poissons Ratio (x) = 0.08562 0.07757
# Poissons Ratio (y) = 0.12407 0.49508
# Poissons Ratio (z) = 0.03800 0.16736
#
# Static dielectric constant tensor:
#      x y z
#    x 1.696790 0.000000 0.000000 
#    y 0.000000 1.736990 0.000000 
#    z 0.000000 0.000000 1.727310 
# 
# From -- ./inp_files/16800.got.cif
#   From: 2010.05.17/outbox.cif.g08.bks.cpg/sg23_9_cif.got.tgz:16800.got - 2010.06.04 12:02:01.
