data_PCOD9331194
_publ_section_title
;
Structure prediction by ZEFSAII (Michael W. Deem and Ramdas Pophale) SiO2 
 PCOD9331194
Probable space group: I 2 2 2
;
_chemical_formula_sum "Si O2"
_cell_formula_units_Z 32
_cell_length_a 8.121321
_cell_length_b 22.411355
_cell_length_c 8.436359
_cell_angle_alpha 90.000000
_cell_angle_beta 90.000000
_cell_angle_gamma 90.000000
_cell_volume 1535.500082
_symmetry_space_group_name_H-M "I 2 2 2"
_symmetry_group_IT_number 23
_symmetry_cell_setting 'orthorhombic'
loop_
_space_group_symop_operation_xyz
x,y,z
-x,-y,z
x,-y,-z
-x,y,-z
1/2+x,1/2+y,1/2+z
1/2-x,1/2-y,1/2+z
1/2+x,1/2-y,1/2-z
1/2-x,1/2+y,1/2-z
loop_
_atom_site_type_symbol
_atom_site_label
_atom_site_fract_x
_atom_site_fract_y
_atom_site_fract_z
Si Si1 0.689012 0.437955 0.566108
Si Si2 0.186136 0.312688 0.939022
Si Si3 0.305429 0.062895 0.565426
Si Si4 0.682372 0.186960 0.936913
O O1 0.765652 0.500000 0.500000
O O2 0.500000 0.441389 0.500000
O O3 0.753941 0.436812 0.748957
O O4 0.736930 0.373512 0.498807
O O5 0.191764 0.312633 0.751182
O O6 0.265098 0.374742 0.998626
O O7 0.254010 0.250383 0.001756
O O8 0.000000 0.314001 0.000000
O O9 0.500000 0.063134 0.500000
O O10 0.238867 0.000000 0.500000
O O11 0.500000 0.182776 0.000000
#
# Coordination Sequence:
#
# PCOD9331194 Si02
#       4
#     8   8   8   8
#     4  11  25  45  67  99 138 179 222 278 343 410
#     4  11  23  41  62  94 132 171 219 278 339 404
#     4  10  21  42  70 101 133 176 228 283 339 406
#     4  12  24  41  67  96 128 175 225 279 338 406
#
# _framework density 20.840116999999999
#
# number of rings (size 3 to 8) (size 9 to 14) (size 15 to 20)
#    0.000    1.000    0.000    8.250    0.000    4.500 
#    0.000    7.500    0.000    0.000    0.000    0.000 
#    0.000    0.000    0.000    0.000    0.000    0.000 
#
# Total GULP energy -89093.697140 kJ/mol
# GULP energy per Si atom -5568.356071 kJ/mol
# Density = 2.079268 g / cm^3
# Si number density = 20.840117 Si / 1000 Ang^3
#
#
#
# Elastic Constant Matrix: (Units=GPa)
#
#
# Indices 1 2 3 4 5 6 
#
# 1 64.5839 61.7208 40.8720 0.0000 -0.0001 0.0000
# 2 61.7208 289.2039 122.6293 0.0000 0.0000 0.0001
# 3 40.8720 122.6293 261.9286 0.0000 -0.0001 0.0004
# 4 0.0000 0.0000 0.0000 60.7543 0.0000 0.0001
# 5 -0.0001 0.0000 -0.0001 0.0000 29.0262 -0.0002
# 6 0.0000 0.0001 0.0004 0.0001 -0.0002 -316.0571
#
#
#
# Elastic Compliance Matrix: (Units=1/GPa)
#
#
# Indices 1 2 3 4 5 6 
#
# 1 0.019848 -0.003647 -0.001390 0.000000 0.000000 0.000000
# 2 -0.003647 0.004984 -0.001764 0.000000 0.000000 0.000000
# 3 -0.001390 -0.001764 0.004861 0.000000 0.000000 0.000000
# 4 0.000000 0.000000 0.000000 0.016460 0.000000 0.000000
# 5 0.000000 0.000000 0.000000 0.000000 0.034452 0.000000
# 6 0.000000 0.000000 0.000000 0.000000 0.000000 -0.003164
#
#
# Mechanical properties :
#
#
# Convention : Reuss Voigt Hill
#
# Bulk Modulus (GPa) = 62.14531 118.46226 90.30379
# Shear Modulus (GPa) = 51.86381 -19.22237 16.32072
#
# Velocity S-wave (km/s) = 4.99405 -3.04035 2.80150
# Velocity P-wave (km/s) = 7.94600 6.68145 7.34100
#
# Compressibility (1/GPa) = 0.01609132
#
# Stress axis : x y z
#
# Youngs Moduli (GPa) = 50.38223 200.63477 205.72724
#
# Poissons Ratio (x) = 0.73163 0.28595
# Poissons Ratio (y) = 0.18372 0.36300
# Poissons Ratio (z) = 0.07003 0.35401
#
# Static dielectric constant tensor:
#      x y z
#    x 1.644050 0.000000 0.000000 
#    y 0.000000 1.985060 0.000000 
#    z 0.000000 0.000000 1.742630 
# 
# From -- ./inp_files/6620.got.cif
#   From: 2010.05.17/outbox.cif.g08.bks.cpg/sg23_4_cif.got.tgz:6620.got - 2010.06.04 12:02:01.
