data_PCOD9331594
_publ_section_title
;
Structure prediction by ZEFSAII (Michael W. Deem and Ramdas Pophale) SiO2 
 PCOD9331594
Probable space group: I 2 2 2
;
_chemical_formula_sum "Si O2"
_cell_formula_units_Z 30
_cell_length_a 20.935502
_cell_length_b 5.211543
_cell_length_c 11.199510
_cell_angle_alpha 90.000000
_cell_angle_beta 90.000000
_cell_angle_gamma 90.000000
_cell_volume 1221.936750
_symmetry_space_group_name_H-M "I 2 2 2"
_symmetry_group_IT_number 23
_symmetry_cell_setting 'orthorhombic'
loop_
_space_group_symop_operation_xyz
x,y,z
-x,-y,z
x,-y,-z
-x,y,-z
1/2+x,1/2+y,1/2+z
1/2-x,1/2-y,1/2+z
1/2+x,1/2-y,1/2-z
1/2-x,1/2+y,1/2-z
loop_
_atom_site_type_symbol
_atom_site_label
_atom_site_fract_x
_atom_site_fract_y
_atom_site_fract_z
Si Si1 0.876492 0.257910 0.572155
Si Si2 0.647821 0.500000 0.500000
Si Si3 0.530821 0.742773 0.368247
Si Si4 0.711699 0.764220 0.712948
Si Si5 0.500000 0.000000 0.000000
O O1 0.846873 0.500000 0.500000
O O2 0.850767 0.257548 0.704555
O O3 0.951232 0.318741 0.569317
O O4 0.862394 0.000000 0.500000
O O5 0.603636 0.669216 0.406750
O O6 0.690557 0.687469 0.580324
O O7 0.500000 0.500000 0.303207
O O8 0.500000 0.747699 0.500000
O O9 0.500000 0.000000 0.314313
O O10 0.756237 0.539863 0.767862
#
# Coordination Sequence:
#
# PCOD9331594 Si02
#       5
#     8   4   8   8   2
#     4  10  22  46  76 111 151 191 258 319 384 459
#     4  10  25  47  70 108 147 195 250 310 380 454
#     4   8  16  34  61  91 128 172 210 273 361 437
#     4  12  29  46  74 111 148 211 256 319 379 454
#     4   8  22  42  82 108 146 200 242 342 370 466
#
# _framework density 24.551188
#
# number of rings (size 3 to 8) (size 9 to 14) (size 15 to 20)
#    0.800    1.600    0.000    2.000    5.600    8.533 
#    2.400   10.667    2.933    0.000    0.000    0.000 
#    0.000    0.000    0.000    0.000    0.000    0.000 
#
# Total GULP energy -83724.677486 kJ/mol
# GULP energy per Si atom -5581.645166 kJ/mol
# Density = 2.449531 g / cm^3
# Si number density = 24.551188 Si / 1000 Ang^3
#
#
#
# Elastic Constant Matrix: (Units=GPa)
#
#
# Indices 1 2 3 4 5 6 
#
# 1 98.3530 4.1017 14.7860 0.0000 0.0000 0.0000
# 2 4.1017 165.2539 8.0908 0.0000 0.0000 0.0000
# 3 14.7860 8.0908 81.6507 0.0000 0.0000 0.0000
# 4 0.0000 0.0000 0.0000 19.4840 0.0000 0.0000
# 5 0.0000 0.0000 0.0000 0.0000 25.1452 0.0000
# 6 0.0000 0.0000 0.0000 0.0000 0.0000 -18.8386
#
#
#
# Elastic Compliance Matrix: (Units=1/GPa)
#
#
# Indices 1 2 3 4 5 6 
#
# 1 0.010457 -0.000168 -0.001877 0.000000 0.000000 0.000000
# 2 -0.000168 0.006083 -0.000572 0.000000 0.000000 0.000000
# 3 -0.001877 -0.000572 0.012644 0.000000 0.000000 0.000000
# 4 0.000000 0.000000 0.000000 0.051324 0.000000 0.000000
# 5 0.000000 0.000000 0.000000 0.000000 0.039769 0.000000
# 6 0.000000 0.000000 0.000000 0.000000 0.000000 -0.053083
#
#
# Mechanical properties :
#
#
# Convention : Reuss Voigt Hill
#
# Bulk Modulus (GPa) = 41.75382 44.35716 43.05549
# Shear Modulus (GPa) = 62.17958 26.37671 44.27815
#
# Velocity S-wave (km/s) = 5.03800 3.28129 4.25137
# Velocity P-wave (km/s) = 7.13342 5.69757 6.45554
#
# Compressibility (1/GPa) = 0.02394991
#
# Stress axis : x y z
#
# Youngs Moduli (GPa) = 95.63314 164.37949 79.08944
#
# Poissons Ratio (x) = 0.02756 0.14845
# Poissons Ratio (y) = 0.01603 0.04528
# Poissons Ratio (z) = 0.17950 0.09410
#
# Static dielectric constant tensor:
#      x y z
#    x 1.993920 0.000000 0.000000 
#    y 0.000000 2.391520 0.000000 
#    z 0.000000 0.000000 1.948960 
# 
# From -- ./inp_files/17763.got.cif
#   From: 2010.05.17/outbox.cif.g08.bks.cpg/sg23_9_cif.got.tgz:17763.got - 2010.06.04 12:02:01.
