data_PCOD9331953
_publ_section_title
;
Structure prediction by ZEFSAII (Michael W. Deem and Ramdas Pophale) SiO2 
 PCOD9331953
Probable space group: I 2 2 2
;
_chemical_formula_sum "Si O2"
_cell_formula_units_Z 38
_cell_length_a 24.552129
_cell_length_b 9.536670
_cell_length_c 8.595815
_cell_angle_alpha 90.000000
_cell_angle_beta 90.000000
_cell_angle_gamma 90.000000
_cell_volume 2012.671849
_symmetry_space_group_name_H-M "I 2 2 2"
_symmetry_group_IT_number 23
_symmetry_cell_setting 'orthorhombic'
loop_
_space_group_symop_operation_xyz
x,y,z
-x,-y,z
x,-y,-z
-x,y,-z
1/2+x,1/2+y,1/2+z
1/2-x,1/2-y,1/2+z
1/2+x,1/2-y,1/2-z
1/2-x,1/2+y,1/2-z
loop_
_atom_site_type_symbol
_atom_site_label
_atom_site_fract_x
_atom_site_fract_y
_atom_site_fract_z
Si Si1 0.340496 0.544259 0.169315
Si Si2 0.138350 0.322435 0.141873
Si Si3 0.410151 0.318273 0.337915
Si Si4 0.000000 0.000000 0.000000
Si Si5 0.438055 0.038440 0.180745
Si Si6 0.733704 0.000000 0.500000
O O1 0.356348 0.694643 0.236940
O O2 0.362426 0.423333 0.283255
O O3 0.275736 0.547690 0.134833
O O4 0.364203 0.500000 0.000000
O O5 0.104235 0.446699 0.220218
O O6 0.195134 0.382944 0.075926
O O7 0.107574 0.263213 0.992221
O O8 0.461941 0.408483 0.388489
O O9 0.425449 0.201310 0.211490
O O10 0.500000 0.000000 0.228006
O O11 0.432201 0.000000 0.000000
#
# Coordination Sequence:
#
# PCOD9331953 Si02
#       6
#     8   8   8   2   8   4
#     4  10  25  43  65  96 135 172 224 271 335 384
#     4  12  22  46  68  99 134 174 228 272 330 406
#     4  12  23  44  69  98 136 174 224 275 328 403
#     4  12  24  40  72 104 136 176 228 268 342 396
#     4  11  25  43  69 101 136 174 219 277 340 395
#     4  10  26  40  69  97 132 180 226 272 342 376
#
# _framework density 18.880375999999998
#
# number of rings (size 3 to 8) (size 9 to 14) (size 15 to 20)
#    0.632    0.211    4.211    2.526    2.947    0.842 
#    0.000    0.000    0.000    0.000    0.000    0.000 
#    0.000    0.000    0.000    0.000    0.000    0.000 
#
# Total GULP energy -106042.349507 kJ/mol
# GULP energy per Si atom -5581.176290 kJ/mol
# Density = 1.883740 g / cm^3
# Si number density = 18.880376 Si / 1000 Ang^3
#
#
#
# Elastic Constant Matrix: (Units=GPa)
#
#
# Indices 1 2 3 4 5 6 
#
# 1 107.8815 56.0472 39.1045 0.0000 0.0000 0.0000
# 2 56.0472 144.7059 51.4046 0.0000 0.0000 0.0000
# 3 39.1045 51.4046 84.1433 0.0000 0.0000 0.0000
# 4 0.0000 0.0000 0.0000 48.7145 0.0000 0.0000
# 5 0.0000 0.0000 0.0000 0.0000 33.0151 0.0000
# 6 0.0000 0.0000 0.0000 0.0000 0.0000 12.5265
#
#
#
# Elastic Compliance Matrix: (Units=1/GPa)
#
#
# Indices 1 2 3 4 5 6 
#
# 1 0.012410 -0.003522 -0.003616 0.000000 0.000000 0.000000
# 2 -0.003522 0.009826 -0.004366 0.000000 0.000000 0.000000
# 3 -0.003616 -0.004366 0.016232 0.000000 0.000000 0.000000
# 4 0.000000 0.000000 0.000000 0.020528 0.000000 0.000000
# 5 0.000000 0.000000 0.000000 0.000000 0.030289 0.000000
# 6 0.000000 0.000000 0.000000 0.000000 0.000000 0.079831
#
#
# Mechanical properties :
#
#
# Convention : Reuss Voigt Hill
#
# Bulk Modulus (GPa) = 64.68146 69.98257 67.33202
# Shear Modulus (GPa) = 25.34528 31.52951 28.43739
#
# Velocity S-wave (km/s) = 3.66787 4.09095 3.88517
# Velocity P-wave (km/s) = 7.22984 7.71111 7.47435
#
# Compressibility (1/GPa) = 0.01546038
#
# Stress axis : x y z
#
# Youngs Moduli (GPa) = 80.58116 101.77446 61.60714
#
# Poissons Ratio (x) = 0.35847 0.22274
# Poissons Ratio (y) = 0.28382 0.26896
# Poissons Ratio (z) = 0.29134 0.44432
#
# Static dielectric constant tensor:
#      x y z
#    x 1.644220 0.000000 0.000000 
#    y 0.000000 1.698730 0.000000 
#    z 0.000000 0.000000 1.652460 
# 
# From -- ./inp_files/12438.got.cif
#   From: 2010.05.17/outbox.cif.g08.bks.cpg/sg23_7_cif.got.tgz:12438.got - 2010.06.04 12:02:01.
