data_PCOD9331856
_publ_section_title
;
Structure prediction by ZEFSAII (Michael W. Deem and Ramdas Pophale) SiO2 
 PCOD9331856
Probable space group: I 2 2 2
;
_chemical_formula_sum "Si O2"
_cell_formula_units_Z 22
_cell_length_a 7.958466
_cell_length_b 5.087583
_cell_length_c 22.888486
_cell_angle_alpha 90.000000
_cell_angle_beta 90.000000
_cell_angle_gamma 90.000000
_cell_volume 926.740065
_symmetry_space_group_name_H-M "I 2 2 2"
_symmetry_group_IT_number 23
_symmetry_cell_setting 'orthorhombic'
loop_
_space_group_symop_operation_xyz
x,y,z
-x,-y,z
x,-y,-z
-x,y,-z
1/2+x,1/2+y,1/2+z
1/2-x,1/2-y,1/2+z
1/2+x,1/2-y,1/2-z
1/2-x,1/2+y,1/2-z
loop_
_atom_site_type_symbol
_atom_site_label
_atom_site_fract_x
_atom_site_fract_y
_atom_site_fract_z
Si Si1 0.702708 0.142481 0.787947
Si Si2 0.157116 0.681679 0.897976
Si Si3 0.000000 0.000000 0.641206
Si Si4 0.000000 0.000000 0.000000
O O1 0.726284 0.908945 0.742877
O O2 0.812249 0.105943 0.846644
O O3 0.527830 0.253652 0.815551
O O4 0.329830 0.512178 0.896286
O O5 0.000000 0.500000 0.883105
O O6 0.115040 0.821419 0.958408
#
# Coordination Sequence:
#
# PCOD9331856 Si02
#       4
#     8   8   4   2
#     4  10  24  42  76 118 153 193 253 324 397 477
#     4  10  25  45  74 105 154 200 265 319 389 457
#     4   8  24  43  73 110 147 205 258 308 404 474
#     4  12  26  50  74 110 158 214 270 338 364 468
#
# _framework density 23.739127
#
# number of rings (size 3 to 8) (size 9 to 14) (size 15 to 20)
#    2.182    0.000    0.000    0.545   10.182    0.000 
#    6.545    5.455    0.000    0.000    0.000    0.000 
#    0.000    0.000    0.000    0.000    0.000    0.000 
#
# Total GULP energy -61347.723005 kJ/mol
# GULP energy per Si atom -5577.065728 kJ/mol
# Density = 2.368510 g / cm^3
# Si number density = 23.739127 Si / 1000 Ang^3
#
#
#
# Elastic Constant Matrix: (Units=GPa)
#
#
# Indices 1 2 3 4 5 6 
#
# 1 188.5588 23.3852 55.1639 0.0000 0.0000 0.0000
# 2 23.3852 96.1131 35.7308 0.0000 0.0000 0.0000
# 3 55.1639 35.7308 152.6603 0.0000 0.0000 0.0000
# 4 0.0000 0.0000 0.0000 95.4589 0.0000 0.0000
# 5 0.0000 0.0000 0.0000 0.0000 38.3433 0.0000
# 6 0.0000 0.0000 0.0000 0.0000 0.0000 22.7227
#
#
#
# Elastic Compliance Matrix: (Units=1/GPa)
#
#
# Indices 1 2 3 4 5 6 
#
# 1 0.005975 -0.000713 -0.001992 0.000000 0.000000 0.000000
# 2 -0.000713 0.011481 -0.002430 0.000000 0.000000 0.000000
# 3 -0.001992 -0.002430 0.007839 0.000000 0.000000 0.000000
# 4 0.000000 0.000000 0.000000 0.010476 0.000000 0.000000
# 5 0.000000 0.000000 0.000000 0.000000 0.026080 0.000000
# 6 0.000000 0.000000 0.000000 0.000000 0.000000 0.044009
#
#
# Mechanical properties :
#
#
# Convention : Reuss Voigt Hill
#
# Bulk Modulus (GPa) = 66.55422 73.98800 70.27111
# Shear Modulus (GPa) = 41.27553 52.84180 47.05866
#
# Velocity S-wave (km/s) = 4.17431 4.72310 4.45716
# Velocity P-wave (km/s) = 7.16447 7.80886 7.49360
#
# Compressibility (1/GPa) = 0.01502534
#
# Stress axis : x y z
#
# Youngs Moduli (GPa) = 167.37514 87.09958 127.56813
#
# Poissons Ratio (x) = 0.06211 0.25412
# Poissons Ratio (y) = 0.11936 0.30993
# Poissons Ratio (z) = 0.33341 0.21161
#
# Static dielectric constant tensor:
#      x y z
#    x 2.056720 0.000000 0.000000 
#    y 0.000000 2.056850 0.000000 
#    z 0.000000 0.000000 1.872750 
# 
# From -- ./inp_files/5628.got.cif
#   From: 2010.05.17/outbox.cif.g08.bks.cpg/sg23_3_cif.got.tgz:5628.got - 2010.06.04 12:02:01.
