data_PCOD9331647
_publ_section_title
;
Structure prediction by ZEFSAII (Michael W. Deem and Ramdas Pophale) SiO2 
 PCOD9331647
Probable space group: I 2 2 2
;
_chemical_formula_sum "Si O2"
_cell_formula_units_Z 56
_cell_length_a 16.071480
_cell_length_b 12.729148
_cell_length_c 14.686788
_cell_angle_alpha 90.000000
_cell_angle_beta 90.000000
_cell_angle_gamma 90.000000
_cell_volume 3004.567977
_symmetry_space_group_name_H-M "I 2 2 2"
_symmetry_group_IT_number 23
_symmetry_cell_setting 'orthorhombic'
loop_
_space_group_symop_operation_xyz
x,y,z
-x,-y,z
x,-y,-z
-x,y,-z
1/2+x,1/2+y,1/2+z
1/2-x,1/2-y,1/2+z
1/2+x,1/2-y,1/2-z
1/2-x,1/2+y,1/2-z
loop_
_atom_site_type_symbol
_atom_site_label
_atom_site_fract_x
_atom_site_fract_y
_atom_site_fract_z
Si Si1 0.184818 0.384975 0.975368
Si Si2 0.121352 0.256946 0.675857
Si Si3 0.407693 0.047269 0.310298
Si Si4 0.979806 0.116550 0.607305
Si Si5 0.100638 0.378376 0.495405
Si Si6 0.705988 0.845040 0.678518
Si Si7 0.179610 0.773675 0.643719
O O1 0.104541 0.417133 0.915561
O O2 0.237485 0.311244 0.907479
O O3 0.225105 0.500000 0.000000
O O4 0.177253 0.330876 0.073754
O O5 0.111767 0.350772 0.748638
O O6 0.034046 0.198123 0.664215
O O7 0.137271 0.315299 0.580294
O O8 0.193733 0.169144 0.685005
O O9 0.500000 0.000000 0.293190
O O10 0.338089 0.955609 0.294502
O O11 0.000000 0.130460 0.500000
O O12 0.883796 0.133939 0.623560
O O13 0.000000 0.000000 0.634227
O O14 0.121462 0.500000 0.500000
O O15 0.138651 0.326119 0.406364
O O16 0.000000 0.369862 0.500000
O O17 0.681641 0.755349 0.750669
#
# Coordination Sequence:
#
# PCOD9331647 Si02
#       7
#     8   8   8   8   8   8   8
#     4  10  23  40  62  90 124 163 215 269 314 385
#     4  12  21  40  59  95 128 162 210 266 331 394
#     4  11  25  43  67  91 127 175 228 272 322 398
#     4  11  23  35  61  91 124 161 198 253 326 402
#     4  11  22  35  59  91 128 165 202 258 335 405
#     4  11  24  38  64  90 121 166 215 269 328 376
#     4  12  20  40  58  90 125 161 204 261 327 387
#
# _framework density 18.638286999999998
#
# number of rings (size 3 to 8) (size 9 to 14) (size 15 to 20)
#    0.000    0.857    5.714    1.714    8.000    2.571 
#    0.000    0.000    0.000    0.000    0.000    1.000 
#    0.000    0.000    0.000    0.000    0.000    0.000 
#
# Total GULP energy -156079.312289 kJ/mol
# GULP energy per Si atom -5574.261153 kJ/mol
# Density = 1.859587 g / cm^3
# Si number density = 18.638287 Si / 1000 Ang^3
#
#
#
# Elastic Constant Matrix: (Units=GPa)
#
#
# Indices 1 2 3 4 5 6 
#
# 1 62.8087 22.0117 17.4139 0.0000 0.0000 0.0000
# 2 22.0117 92.7043 25.6400 0.0000 0.0000 0.0000
# 3 17.4139 25.6400 111.8636 0.0000 0.0000 0.0000
# 4 0.0000 0.0000 0.0000 62.8062 0.0000 0.0000
# 5 0.0000 0.0000 0.0000 0.0000 29.0247 0.0000
# 6 0.0000 0.0000 0.0000 0.0000 0.0000 235.0692
#
#
#
# Elastic Compliance Matrix: (Units=1/GPa)
#
#
# Indices 1 2 3 4 5 6 
#
# 1 0.017744 -0.003683 -0.001918 0.000000 0.000000 0.000000
# 2 -0.003683 0.012281 -0.002242 0.000000 0.000000 0.000000
# 3 -0.001918 -0.002242 0.009752 0.000000 0.000000 0.000000
# 4 0.000000 0.000000 0.000000 0.015922 0.000000 0.000000
# 5 0.000000 0.000000 0.000000 0.000000 0.034453 0.000000
# 6 0.000000 0.000000 0.000000 0.000000 0.000000 0.004254
#
#
# Mechanical properties :
#
#
# Convention : Reuss Voigt Hill
#
# Bulk Modulus (GPa) = 41.50719 44.16753 42.83736
# Shear Modulus (GPa) = 42.32911 78.86742 60.59827
#
# Velocity S-wave (km/s) = 4.77076 6.51203 5.70818
# Velocity P-wave (km/s) = 7.25707 8.96051 8.15340
#
# Compressibility (1/GPa) = 0.02409221
#
# Stress axis : x y z
#
# Youngs Moduli (GPa) = 56.35786 81.42403 102.54448
#
# Poissons Ratio (x) = 0.29985 0.19669
# Poissons Ratio (y) = 0.20754 0.22988
# Poissons Ratio (z) = 0.10810 0.18253
#
# Static dielectric constant tensor:
#      x y z
#    x 1.659170 0.000000 0.000000 
#    y 0.000000 1.641630 0.000000 
#    z 0.000000 0.000000 1.668510 
# 
# From -- ./inp_files/21602.got.cif
#   From: 2010.05.17/outbox.cif.g08.bks.cpg/sg23_11_cif.got.tgz:21602.got - 2010.06.04 12:02:01.
