data_PCOD9331249
_publ_section_title
;
Structure prediction by ZEFSAII (Michael W. Deem and Ramdas Pophale) SiO2 
 PCOD9331249
Probable space group: I 2 2 2
;
_chemical_formula_sum "Si O2"
_cell_formula_units_Z 32
_cell_length_a 15.999214
_cell_length_b 5.471163
_cell_length_c 16.540603
_cell_angle_alpha 90.000000
_cell_angle_beta 90.000000
_cell_angle_gamma 90.000000
_cell_volume 1447.870232
_symmetry_space_group_name_H-M "I 2 2 2"
_symmetry_group_IT_number 23
_symmetry_cell_setting 'orthorhombic'
loop_
_space_group_symop_operation_xyz
x,y,z
-x,-y,z
x,-y,-z
-x,y,-z
1/2+x,1/2+y,1/2+z
1/2-x,1/2-y,1/2+z
1/2+x,1/2-y,1/2-z
1/2-x,1/2+y,1/2-z
loop_
_atom_site_type_symbol
_atom_site_label
_atom_site_fract_x
_atom_site_fract_y
_atom_site_fract_z
Si Si1 0.861679 0.805406 0.940850
Si Si2 0.198255 0.877851 0.237088
Si Si3 0.082045 0.345225 0.629388
Si Si4 0.000000 0.500000 0.000000
Si Si5 0.206633 0.500000 0.500000
Si Si6 0.500000 0.500000 0.000000
O O1 0.837603 0.900159 0.853118
O O2 0.773342 0.778548 0.989051
O O3 0.929855 0.598211 0.936944
O O4 0.905791 0.000000 0.000000
O O5 0.258844 0.636780 0.239758
O O6 0.124926 0.802910 0.298948
O O7 0.151664 0.500840 0.580888
O O8 0.000000 0.500000 0.653159
O O9 0.054244 0.164871 0.558430
#
# Coordination Sequence:
#
# PCOD9331249 Si02
#       6
#     8   8   8   2   4   2
#     4  10  26  48  76 105 151 201 267 315 388 468
#     4  12  29  51  78 116 153 201 265 324 389 459
#     4  12  26  47  73 115 159 200 259 323 392 470
#     4  12  26  46  76 106 146 218 258 324 380 460
#     4  10  21  49  70 102 152 204 254 315 387 472
#     4  12  26  42  80 106 158 202 258 316 396 468
#
# _framework density 22.101427999999999
#
# number of rings (size 3 to 8) (size 9 to 14) (size 15 to 20)
#    0.750    0.000    5.000    0.375   15.750    0.000 
#    4.500    0.000    0.000    0.000    0.000    0.000 
#    0.000    0.000    0.000    0.000    0.000    0.000 
#
# Total GULP energy -89115.712935 kJ/mol
# GULP energy per Si atom -5569.732058 kJ/mol
# Density = 2.205112 g / cm^3
# Si number density = 22.101428 Si / 1000 Ang^3
#
#
#
# Elastic Constant Matrix: (Units=GPa)
#
#
# Indices 1 2 3 4 5 6 
#
# 1 138.4750 30.5742 33.3813 0.0000 0.0000 0.0000
# 2 30.5742 68.8212 16.5251 0.0000 0.0000 0.0000
# 3 33.3813 16.5251 136.6847 0.0000 0.0000 0.0000
# 4 0.0000 0.0000 0.0000 57.6021 0.0000 0.0000
# 5 0.0000 0.0000 0.0000 0.0000 22.8418 0.0000
# 6 0.0000 0.0000 0.0000 0.0000 0.0000 23.4705
#
#
#
# Elastic Compliance Matrix: (Units=1/GPa)
#
#
# Indices 1 2 3 4 5 6 
#
# 1 0.008348 -0.003316 -0.001638 0.000000 0.000000 0.000000
# 2 -0.003316 0.016282 -0.001159 0.000000 0.000000 0.000000
# 3 -0.001638 -0.001159 0.007856 0.000000 0.000000 0.000000
# 4 0.000000 0.000000 0.000000 0.017360 0.000000 0.000000
# 5 0.000000 0.000000 0.000000 0.000000 0.043779 0.000000
# 6 0.000000 0.000000 0.000000 0.000000 0.000000 0.042607
#
#
# Mechanical properties :
#
#
# Convention : Reuss Voigt Hill
#
# Bulk Modulus (GPa) = 49.35414 56.10469 52.72941
# Shear Modulus (GPa) = 32.21418 38.34957 35.28187
#
# Velocity S-wave (km/s) = 3.82194 4.17005 3.99978
# Velocity P-wave (km/s) = 6.46959 6.97323 6.72612
#
# Compressibility (1/GPa) = 0.02026173
#
# Stress axis : x y z
#
# Youngs Moduli (GPa) = 119.78301 61.41914 127.28743
#
# Poissons Ratio (x) = 0.20364 0.20850
# Poissons Ratio (y) = 0.39714 0.14749
# Poissons Ratio (z) = 0.19621 0.07117
#
# Static dielectric constant tensor:
#      x y z
#    x -0.304280 0.000000 0.000000 
#    y 0.000000 2.044230 0.000000 
#    z 0.000000 0.000000 1.818220 
# 
# From -- ./inp_files/2964.got.cif
#   From: 2010.05.17/outbox.cif.g08.bks.cpg/sg23_2_cif.got.tgz:2964.got - 2010.06.04 12:02:01.
