data_PCOD9331050
_publ_section_title
;
Structure prediction by ZEFSAII (Michael W. Deem and Ramdas Pophale) SiO2 
 PCOD9331050
Probable space group: I 2 2 2
;
_chemical_formula_sum "Si O2"
_cell_formula_units_Z 36
_cell_length_a 12.692675
_cell_length_b 14.179953
_cell_length_c 8.150747
_cell_angle_alpha 90.000000
_cell_angle_beta 90.000000
_cell_angle_gamma 90.000000
_cell_volume 1466.983956
_symmetry_space_group_name_H-M "I 2 2 2"
_symmetry_group_IT_number 23
_symmetry_cell_setting 'orthorhombic'
loop_
_space_group_symop_operation_xyz
x,y,z
-x,-y,z
x,-y,-z
-x,y,-z
1/2+x,1/2+y,1/2+z
1/2-x,1/2-y,1/2+z
1/2+x,1/2-y,1/2-z
1/2-x,1/2+y,1/2-z
loop_
_atom_site_type_symbol
_atom_site_label
_atom_site_fract_x
_atom_site_fract_y
_atom_site_fract_z
Si Si1 0.962294 0.795501 0.189117
Si Si2 0.559700 0.096505 0.756925
Si Si3 0.243136 0.318952 0.551780
Si Si4 0.166684 0.868735 0.304065
Si Si5 0.194222 0.500000 0.000000
O O1 0.841249 0.823618 0.178070
O O2 0.986237 0.689209 0.251386
O O3 0.040700 0.865915 0.284275
O O4 0.000000 0.795562 0.000000
O O5 0.649566 0.114395 0.890290
O O6 0.619308 0.078901 0.582565
O O7 0.500000 0.000000 0.788601
O O8 0.197226 0.214054 0.570010
O O9 0.286407 0.340245 0.372658
O O10 0.228941 0.959234 0.362598
#
# Coordination Sequence:
#
# PCOD9331050 Si02
#       5
#     8   8   8   8   4
#     4   9  18  38  66  91 124 176 222 265 334 399
#     4  11  22  39  66  98 133 175 226 280 332 389
#     4  10  21  41  65  95 133 175 224 276 335 400
#     4  10  21  39  66  96 132 176 222 274 335 401
#     4  12  23  40  63  96 134 172 226 284 332 388
#
# _framework density 24.540146
#
# number of rings (size 3 to 8) (size 9 to 14) (size 15 to 20)
#    0.000    1.778    0.000    7.000    0.000    0.889 
#    0.000   22.222    0.000    4.000    0.000    0.000 
#    0.000    0.000    0.000    0.000    0.000    0.000 
#
# Total GULP energy -100863.827223 kJ/mol
# GULP energy per Si atom -5603.545957 kJ/mol
# Density = 2.448429 g / cm^3
# Si number density = 24.540146 Si / 1000 Ang^3
#
#
#
# Elastic Constant Matrix: (Units=GPa)
#
#
# Indices 1 2 3 4 5 6 
#
# 1 121.4034 51.8214 23.8718 0.0000 0.0000 0.0000
# 2 51.8214 70.9650 19.4479 0.0000 0.0000 0.0000
# 3 23.8718 19.4479 88.5201 0.0000 0.0000 0.0000
# 4 0.0000 0.0000 0.0000 36.3270 0.0000 0.0000
# 5 0.0000 0.0000 0.0000 0.0000 29.8548 0.0000
# 6 0.0000 0.0000 0.0000 0.0000 0.0000 48.0237
#
#
#
# Elastic Compliance Matrix: (Units=1/GPa)
#
#
# Indices 1 2 3 4 5 6 
#
# 1 0.012130 -0.008472 -0.001410 0.000000 0.000000 0.000000
# 2 -0.008472 0.020911 -0.002309 0.000000 0.000000 0.000000
# 3 -0.001410 -0.002309 0.012185 0.000000 0.000000 0.000000
# 4 0.000000 0.000000 0.000000 0.027528 0.000000 0.000000
# 5 0.000000 0.000000 0.000000 0.000000 0.033495 0.000000
# 6 0.000000 0.000000 0.000000 0.000000 0.000000 0.020823
#
#
# Mechanical properties :
#
#
# Convention : Reuss Voigt Hill
#
# Bulk Modulus (GPa) = 47.97723 52.35230 50.16477
# Shear Modulus (GPa) = 31.56526 35.22427 33.39477
#
# Velocity S-wave (km/s) = 3.59035 3.79274 3.69293
# Velocity P-wave (km/s) = 6.06469 6.36863 6.21852
#
# Compressibility (1/GPa) = 0.02084322
#
# Stress axis : x y z
#
# Youngs Moduli (GPa) = 82.43739 47.82239 82.07134
#
# Poissons Ratio (x) = 0.40514 0.11573
# Poissons Ratio (y) = 0.69838 0.18954
# Poissons Ratio (z) = 0.11624 0.11044
#
# Static dielectric constant tensor:
#      x y z
#    x 1.955960 0.000000 0.000000 
#    y 0.000000 1.905140 0.000000 
#    z 0.000000 0.000000 1.955040 
# 
# From -- ./inp_files/9484.got.cif
#   From: 2010.05.17/outbox.cif.g08.bks.cpg/sg23_5_cif.got.tgz:9484.got - 2010.06.04 12:02:01.
