data_PCOD9331236
_publ_section_title
;
Structure prediction by ZEFSAII (Michael W. Deem and Ramdas Pophale) SiO2 
 PCOD9331236
Probable space group: I 2 2 2
;
_chemical_formula_sum "Si O2"
_cell_formula_units_Z 48
_cell_length_a 7.850960
_cell_length_b 15.431579
_cell_length_c 17.354744
_cell_angle_alpha 90.000000
_cell_angle_beta 90.000000
_cell_angle_gamma 90.000000
_cell_volume 2102.574258
_symmetry_space_group_name_H-M "I 2 2 2"
_symmetry_group_IT_number 23
_symmetry_cell_setting 'orthorhombic'
loop_
_space_group_symop_operation_xyz
x,y,z
-x,-y,z
x,-y,-z
-x,y,-z
1/2+x,1/2+y,1/2+z
1/2-x,1/2-y,1/2+z
1/2+x,1/2-y,1/2-z
1/2-x,1/2+y,1/2-z
loop_
_atom_site_type_symbol
_atom_site_label
_atom_site_fract_x
_atom_site_fract_y
_atom_site_fract_z
Si Si1 0.613032 0.135259 0.087976
Si Si2 0.786819 0.860366 0.580933
Si Si3 0.259487 0.041922 0.141798
Si Si4 0.808482 0.518489 0.810512
Si Si5 0.815258 0.174619 0.598260
Si Si6 0.839331 0.187949 0.946349
O O1 0.436144 0.100314 0.129367
O O2 0.679002 0.225068 0.124841
O O3 0.716328 0.046435 0.095649
O O4 0.670213 0.165880 0.999543
O O5 0.754265 0.851250 0.488688
O O6 0.698006 0.771120 0.606771
O O7 0.987017 0.851671 0.595082
O O8 0.734666 0.947129 0.624580
O O9 0.215084 0.017753 0.228922
O O10 0.122897 0.104455 0.104029
O O11 0.786229 0.613064 0.845600
O O12 0.000000 0.500000 0.787589
O O13 0.000000 0.205505 0.000000
#
# Coordination Sequence:
#
# PCOD9331236 Si02
#       6
#     8   8   8   8   8   8
#     4  10  21  44  71  95 133 186 234 287 356 427
#     4  10  23  44  71 101 136 179 237 296 353 421
#     4  11  23  46  65 101 143 189 229 286 371 434
#     4  12  26  42  67 103 144 188 233 288 360 426
#     4  10  22  45  71 100 133 189 240 284 356 425
#     4  11  24  43  73 109 134 178 245 306 350 415
#
# _framework density 22.829158
#
# number of rings (size 3 to 8) (size 9 to 14) (size 15 to 20)
#    0.000    1.333    3.333    2.000    4.667    6.000 
#    6.000    0.000    0.000    0.000    0.000    0.000 
#    0.000    0.000    0.000    0.000    0.000    0.000 
#
# Total GULP energy -133646.074113 kJ/mol
# GULP energy per Si atom -5568.586421 kJ/mol
# Density = 2.277720 g / cm^3
# Si number density = 22.829158 Si / 1000 Ang^3
#
#
#
# Elastic Constant Matrix: (Units=GPa)
#
#
# Indices 1 2 3 4 5 6 
#
# 1 89.0104 71.7332 3.3494 0.0000 0.0000 0.0000
# 2 71.7332 323.0248 30.0164 0.0000 0.0000 0.0000
# 3 3.3494 30.0164 56.1220 0.0000 0.0000 0.0000
# 4 0.0000 0.0000 0.0000 -8.0728 0.0000 0.0000
# 5 0.0000 0.0000 0.0000 0.0000 13.6403 0.0000
# 6 0.0000 0.0000 0.0000 0.0000 0.0000 27.9544
#
#
#
# Elastic Compliance Matrix: (Units=1/GPa)
#
#
# Indices 1 2 3 4 5 6 
#
# 1 0.013722 -0.003127 0.000853 0.000000 0.000000 0.000000
# 2 -0.003127 0.003970 -0.001937 0.000000 0.000000 0.000000
# 3 0.000853 -0.001937 0.018803 0.000000 0.000000 0.000000
# 4 0.000000 0.000000 0.000000 -0.123872 0.000000 0.000000
# 5 0.000000 0.000000 0.000000 0.000000 0.073312 0.000000
# 6 0.000000 0.000000 0.000000 0.000000 0.000000 0.035773
#
#
# Mechanical properties :
#
#
# Convention : Reuss Voigt Hill
#
# Bulk Modulus (GPa) = 35.61835 75.37280 55.49557
# Shear Modulus (GPa) = 126.62515 30.90824 78.76669
#
# Velocity S-wave (km/s) = 7.45566 3.68352 5.88027
# Velocity P-wave (km/s) = 9.47374 7.15394 8.39436
#
# Compressibility (1/GPa) = 0.02807541
#
# Stress axis : x y z
#
# Youngs Moduli (GPa) = 72.87463 251.88891 53.18231
#
# Poissons Ratio (x) = 0.78754 -0.04538
# Poissons Ratio (y) = 0.22785 0.10300
# Poissons Ratio (z) = -0.06218 0.48784
#
# Static dielectric constant tensor:
#      x y z
#    x 2.113560 0.000000 0.000000 
#    y 0.000000 1.875690 0.000000 
#    z 0.000000 0.000000 2.028910 
# 
# From -- ./inp_files/23729.got.cif
#   From: 2010.05.17/outbox.cif.g08.bks.cpg/sg23_12_cif.got.tgz:23729.got - 2010.06.04 12:02:01.
