data_PCOD9331612
_publ_section_title
;
Structure prediction by ZEFSAII (Michael W. Deem and Ramdas Pophale) SiO2 
 PCOD9331612
Probable space group: I 2 2 2
;
_chemical_formula_sum "Si O2"
_cell_formula_units_Z 46
_cell_length_a 19.899243
_cell_length_b 13.869749
_cell_length_c 7.971596
_cell_angle_alpha 90.000000
_cell_angle_beta 90.000000
_cell_angle_gamma 90.000000
_cell_volume 2200.140612
_symmetry_space_group_name_H-M "I 2 2 2"
_symmetry_group_IT_number 23
_symmetry_cell_setting 'orthorhombic'
loop_
_space_group_symop_operation_xyz
x,y,z
-x,-y,z
x,-y,-z
-x,y,-z
1/2+x,1/2+y,1/2+z
1/2-x,1/2-y,1/2+z
1/2+x,1/2-y,1/2-z
1/2-x,1/2+y,1/2-z
loop_
_atom_site_type_symbol
_atom_site_label
_atom_site_fract_x
_atom_site_fract_y
_atom_site_fract_z
Si Si1 0.000000 0.000000 0.500000
Si Si2 0.064405 0.182121 0.598202
Si Si3 0.858600 0.000000 0.000000
Si Si4 0.297918 0.706248 0.065192
Si Si5 0.818600 0.347669 0.821206
Si Si6 0.579612 0.711547 0.476285
Si Si7 0.235654 0.018391 0.310816
O O1 0.959456 0.928327 0.620128
O O2 0.126627 0.176217 0.474749
O O3 0.088022 0.224488 0.774947
O O4 0.000000 0.227834 0.500000
O O5 0.811545 0.017775 0.162763
O O6 0.898159 0.101631 0.976481
O O7 0.247940 0.691997 0.913420
O O8 0.308329 0.812416 0.132919
O O9 0.265423 0.633497 0.201195
O O10 0.806895 0.462595 0.817510
O O11 0.879081 0.291267 0.914751
O O12 0.500000 0.721212 0.500000
O O13 0.207744 0.000000 0.500000
#
# Coordination Sequence:
#
# PCOD9331612 Si02
#       7
#     2   8   4   8   8   8   8
#     4   8  24  32  58  88 120 168 198 244 348 410
#     4  10  23  36  59  88 128 175 205 263 337 413
#     4  12  23  38  64 102 122 179 212 274 335 412
#     4  11  21  40  59  90 127 165 214 267 325 395
#     4  11  23  38  61  89 125 175 214 269 326 398
#     4  12  25  39  59  92 132 169 220 271 334 411
#     4  10  23  39  64  90 135 167 216 268 330 396
#
# _framework density 20.907755000000002
#
# number of rings (size 3 to 8) (size 9 to 14) (size 15 to 20)
#    0.522    0.696    1.739    5.478    8.522    0.000 
#    0.000    0.000    0.000    4.696    0.000    0.000 
#    0.000    0.000    0.000    0.000    0.000    0.000 
#
# Total GULP energy -128055.391079 kJ/mol
# GULP energy per Si atom -5567.625699 kJ/mol
# Density = 2.086017 g / cm^3
# Si number density = 20.907755 Si / 1000 Ang^3
#
#
#
# Elastic Constant Matrix: (Units=GPa)
#
#
# Indices 1 2 3 4 5 6 
#
# 1 99.9252 37.5735 1.4670 0.0000 0.0000 0.0000
# 2 37.5735 66.2210 4.8882 0.0000 0.0000 0.0000
# 3 1.4670 4.8882 44.2778 0.0000 0.0000 0.0000
# 4 0.0000 0.0000 0.0000 17.6562 0.0000 0.0000
# 5 0.0000 0.0000 0.0000 0.0000 14.1988 0.0000
# 6 0.0000 0.0000 0.0000 0.0000 0.0000 23.5313
#
#
#
# Elastic Compliance Matrix: (Units=1/GPa)
#
#
# Indices 1 2 3 4 5 6 
#
# 1 0.012728 -0.007250 0.000379 0.000000 0.000000 0.000000
# 2 -0.007250 0.019354 -0.001896 0.000000 0.000000 0.000000
# 3 0.000379 -0.001896 0.022782 0.000000 0.000000 0.000000
# 4 0.000000 0.000000 0.000000 0.056637 0.000000 0.000000
# 5 0.000000 0.000000 0.000000 0.000000 0.070428 0.000000
# 6 0.000000 0.000000 0.000000 0.000000 0.000000 0.042497
#
#
# Mechanical properties :
#
#
# Convention : Reuss Voigt Hill
#
# Bulk Modulus (GPa) = 26.78901 33.14238 29.96570
# Shear Modulus (GPa) = 19.65376 22.17694 20.91535
#
# Velocity S-wave (km/s) = 3.06930 3.26038 3.16628
# Velocity P-wave (km/s) = 5.04000 5.48266 5.26598
#
# Compressibility (1/GPa) = 0.03732873
#
# Stress axis : x y z
#
# Youngs Moduli (GPa) = 78.56729 51.66784 43.89523
#
# Poissons Ratio (x) = 0.37458 -0.01662
# Poissons Ratio (y) = 0.56959 0.08325
# Poissons Ratio (z) = -0.02975 0.09799
#
# Static dielectric constant tensor:
#      x y z
#    x 1.747610 0.000000 0.000000 
#    y 0.000000 1.870280 0.000000 
#    z 0.000000 0.000000 1.841400 
# 
# From -- ./inp_files/10988.got.cif
#   From: 2010.05.17/outbox.cif.g08.bks.cpg/sg23_6_cif.got.tgz:10988.got - 2010.06.04 12:02:01.
