data_PCOD9331202
_publ_section_title
;
Structure prediction by ZEFSAII (Michael W. Deem and Ramdas Pophale) SiO2 
 PCOD9331202
Probable space group: I 2 2 2
;
_chemical_formula_sum "Si O2"
_cell_formula_units_Z 40
_cell_length_a 13.943263
_cell_length_b 5.918815
_cell_length_c 22.090156
_cell_angle_alpha 90.000000
_cell_angle_beta 90.000000
_cell_angle_gamma 90.000000
_cell_volume 1823.047430
_symmetry_space_group_name_H-M "I 2 2 2"
_symmetry_group_IT_number 23
_symmetry_cell_setting 'orthorhombic'
loop_
_space_group_symop_operation_xyz
x,y,z
-x,-y,z
x,-y,-z
-x,y,-z
1/2+x,1/2+y,1/2+z
1/2-x,1/2-y,1/2+z
1/2+x,1/2-y,1/2-z
1/2-x,1/2+y,1/2-z
loop_
_atom_site_type_symbol
_atom_site_label
_atom_site_fract_x
_atom_site_fract_y
_atom_site_fract_z
Si Si1 0.534226 0.752694 0.929944
Si Si2 0.260823 0.219060 0.675142
Si Si3 0.248604 0.876779 0.563913
Si Si4 0.398750 0.089847 0.253207
Si Si5 0.101182 0.108622 0.872445
O O1 0.500000 0.500000 0.905897
O O2 0.649652 0.758466 0.928723
O O3 0.500000 0.000000 0.905993
O O4 0.500000 0.748536 0.000000
O O5 0.157994 0.269620 0.703503
O O6 0.320718 0.431731 0.652033
O O7 0.250412 0.053053 0.618901
O O8 0.325392 0.106980 0.727560
O O9 0.344975 0.733419 0.573070
O O10 0.246111 0.000000 0.500000
O O11 0.417551 0.227035 0.315292
O O12 0.500000 0.000000 0.231782
O O13 0.000000 0.000000 0.889395
#
# Coordination Sequence:
#
# PCOD9331202 Si02
#       5
#     8   8   8   8   8
#     4  10  21  42  73  98 144 206 246 304 377 443
#     4  11  24  43  74 106 142 194 249 309 390 455
#     4  11  26  47  70 109 153 201 251 308 372 473
#     4  11  22  44  74 105 146 182 249 320 390 459
#     4  11  24  45  77  99 144 199 243 318 387 449
#
# _framework density 21.941285000000001
#
# number of rings (size 3 to 8) (size 9 to 14) (size 15 to 20)
#    0.000    1.200    6.000    0.000    2.800    0.800 
#    3.600    4.000    0.000    0.000    0.000    0.000 
#    0.000    0.000    0.000    0.000    0.000    0.000 
#
# Total GULP energy -111822.082368 kJ/mol
# GULP energy per Si atom -5591.104118 kJ/mol
# Density = 2.189135 g / cm^3
# Si number density = 21.941285 Si / 1000 Ang^3
#
#
#
# Elastic Constant Matrix: (Units=GPa)
#
#
# Indices 1 2 3 4 5 6 
#
# 1 208.6132 68.4032 57.4707 0.0000 0.0000 0.0000
# 2 68.4032 107.1714 26.9498 0.0000 0.0000 0.0000
# 3 57.4707 26.9498 64.4109 0.0000 0.0000 0.0000
# 4 0.0000 0.0000 0.0000 -2.6912 0.0000 0.0000
# 5 0.0000 0.0000 0.0000 0.0000 39.3941 0.0000
# 6 0.0000 0.0000 0.0000 0.0000 0.0000 55.2081
#
#
#
# Elastic Compliance Matrix: (Units=1/GPa)
#
#
# Indices 1 2 3 4 5 6 
#
# 1 0.007309 -0.003381 -0.005107 0.000000 0.000000 0.000000
# 2 -0.003381 0.011992 -0.002001 0.000000 0.000000 0.000000
# 3 -0.005107 -0.002001 0.020919 0.000000 0.000000 0.000000
# 4 0.000000 0.000000 0.000000 -0.371575 0.000000 0.000000
# 5 0.000000 0.000000 0.000000 0.000000 0.025385 0.000000
# 6 0.000000 0.000000 0.000000 0.000000 0.000000 0.018113
#
#
# Mechanical properties :
#
#
# Convention : Reuss Voigt Hill
#
# Bulk Modulus (GPa) = 51.96765 76.20477 64.08621
# Shear Modulus (GPa) = -19.19642 33.54030 7.17194
#
# Velocity S-wave (km/s) = -2.96108 3.91402 1.80992
# Velocity P-wave (km/s) = 3.47068 7.43187 5.79993
#
# Compressibility (1/GPa) = 0.01924274
#
# Stress axis : x y z
#
# Youngs Moduli (GPa) = 136.81710 83.38994 47.80301
#
# Poissons Ratio (x) = 0.28193 0.24413
# Poissons Ratio (y) = 0.46256 0.09565
# Poissons Ratio (z) = 0.69872 0.16685
#
# Static dielectric constant tensor:
#      x y z
#    x 1.769760 0.000000 0.000000 
#    y 0.000000 1.877350 0.000000 
#    z 0.000000 0.000000 1.757250 
# 
# From -- ./inp_files/1705.got.cif
#   From: 2010.05.17/outbox.cif.g08.bks.cpg/sg23_1_cif.got.tgz:1705.got - 2010.06.04 12:02:01.
