data_PCOD9331110
_publ_section_title
;
Structure prediction by ZEFSAII (Michael W. Deem and Ramdas Pophale) SiO2 
 PCOD9331110
Probable space group: I 2 2 2
;
_chemical_formula_sum "Si O2"
_cell_formula_units_Z 64
_cell_length_a 12.607153
_cell_length_b 9.470098
_cell_length_c 26.234835
_cell_angle_alpha 90.000000
_cell_angle_beta 90.000000
_cell_angle_gamma 90.000000
_cell_volume 3132.202514
_symmetry_space_group_name_H-M "I 2 2 2"
_symmetry_group_IT_number 23
_symmetry_cell_setting 'orthorhombic'
loop_
_space_group_symop_operation_xyz
x,y,z
-x,-y,z
x,-y,-z
-x,y,-z
1/2+x,1/2+y,1/2+z
1/2-x,1/2-y,1/2+z
1/2+x,1/2-y,1/2-z
1/2-x,1/2+y,1/2-z
loop_
_atom_site_type_symbol
_atom_site_label
_atom_site_fract_x
_atom_site_fract_y
_atom_site_fract_z
Si Si1 0.893123 0.802508 0.851125
Si Si2 0.710982 0.010526 0.675440
Si Si3 0.222176 0.303036 0.548534
Si Si4 0.252034 0.988324 0.208454
Si Si5 0.084022 0.115935 0.619641
Si Si6 0.226520 0.365621 0.434870
Si Si7 0.440831 0.854759 0.147769
Si Si8 0.637718 0.719313 0.642390
O O1 0.853674 0.641248 0.847231
O O2 0.844235 0.881203 0.802096
O O3 0.832588 0.861552 0.900940
O O4 0.017211 0.828721 0.854539
O O5 0.737627 0.038383 0.734208
O O6 0.819295 0.966790 0.646558
O O7 0.642054 0.869613 0.669931
O O8 0.130326 0.208532 0.573306
O O9 0.237080 0.285942 0.488283
O O10 0.200596 0.469706 0.555874
O O11 0.323407 0.268837 0.584077
O O12 0.357581 0.903346 0.191170
O O13 0.222433 0.117948 0.170927
O O14 0.024587 0.229584 0.656625
O O15 0.000000 0.000000 0.603038
O O16 0.132965 0.307226 0.399300
O O17 0.500000 0.000000 0.134540
#
# Coordination Sequence:
#
# PCOD9331110 Si02
#       8
#     8   8   8   8   8   8   8   8
#     4  11  23  41  65  92 125 164 210 257 313 368
#     4  11  25  43  60  89 131 169 205 258 313 372
#     4  10  21  41  64  94 124 160 202 259 313 367
#     4  11  23  40  63  91 125 161 212 262 306 362
#     4  11  23  41  63  92 130 165 207 257 313 375
#     4  10  21  40  65  93 124 156 207 260 308 370
#     4  11  20  39  62  91 125 163 209 255 308 370
#     4  11  22  42  64  93 126 161 209 261 311 372
#
# _framework density 20.432905999999999
#
# number of rings (size 3 to 8) (size 9 to 14) (size 15 to 20)
#    0.000    1.250    3.750    3.750    0.000    4.000 
#    0.000    8.750    0.000    3.000    0.000    0.000 
#    0.000    0.000    0.000    0.000    0.000    0.000 
#
# Total GULP energy -178704.498688 kJ/mol
# GULP energy per Si atom -5584.515584 kJ/mol
# Density = 2.038640 g / cm^3
# Si number density = 20.432906 Si / 1000 Ang^3
#
#
#
# Elastic Constant Matrix: (Units=GPa)
#
#
# Indices 1 2 3 4 5 6 
#
# 1 99.9111 9.4803 22.6569 0.0000 0.0000 0.0000
# 2 9.4803 86.8123 9.0788 0.0000 0.0000 0.0000
# 3 22.6569 9.0788 104.9133 0.0000 0.0000 0.0000
# 4 0.0000 0.0000 0.0000 14.1332 0.0000 0.0000
# 5 0.0000 0.0000 0.0000 0.0000 3.0522 0.0000
# 6 0.0000 0.0000 0.0000 0.0000 0.0000 27.8073
#
#
#
# Elastic Compliance Matrix: (Units=1/GPa)
#
#
# Indices 1 2 3 4 5 6 
#
# 1 0.010598 -0.000926 -0.002208 0.000000 0.000000 0.000000
# 2 -0.000926 0.011705 -0.000813 0.000000 0.000000 0.000000
# 3 -0.002208 -0.000813 0.010079 0.000000 0.000000 0.000000
# 4 0.000000 0.000000 0.000000 0.070755 0.000000 0.000000
# 5 0.000000 0.000000 0.000000 0.000000 0.327629 0.000000
# 6 0.000000 0.000000 0.000000 0.000000 0.000000 0.035962
#
#
# Mechanical properties :
#
#
# Convention : Reuss Voigt Hill
#
# Bulk Modulus (GPa) = 40.83893 41.56319 41.20106
# Shear Modulus (GPa) = 10.35656 25.69326 18.02491
#
# Velocity S-wave (km/s) = 2.25379 3.54989 2.97332
# Velocity P-wave (km/s) = 5.17716 6.09818 5.65645
#
# Compressibility (1/GPa) = 0.02448644
#
# Stress axis : x y z
#
# Youngs Moduli (GPa) = 94.36088 85.43159 99.21659
#
# Poissons Ratio (x) = 0.07914 0.21912
# Poissons Ratio (y) = 0.08741 0.08065
# Poissons Ratio (z) = 0.20839 0.06945
#
# Static dielectric constant tensor:
#      x y z
#    x 1.746650 0.000000 0.000000 
#    y 0.000000 1.763810 0.000000 
#    z 0.000000 0.000000 1.704030 
# 
# From -- ./inp_files/30506.got.cif
#   From: 2010.05.17/outbox.cif.g08.bks.cpg/sg23_16_cif.got.tgz:30506.got - 2010.06.04 12:02:01.
