data_PCOD9331422
_publ_section_title
;
Structure prediction by ZEFSAII (Michael W. Deem and Ramdas Pophale) SiO2 
 PCOD9331422
Probable space group: I 2 2 2
;
_chemical_formula_sum "Si O2"
_cell_formula_units_Z 46
_cell_length_a 24.867181
_cell_length_b 12.864521
_cell_length_c 6.146904
_cell_angle_alpha 90.000000
_cell_angle_beta 90.000000
_cell_angle_gamma 90.000000
_cell_volume 1966.421465
_symmetry_space_group_name_H-M "I 2 2 2"
_symmetry_group_IT_number 23
_symmetry_cell_setting 'orthorhombic'
loop_
_space_group_symop_operation_xyz
x,y,z
-x,-y,z
x,-y,-z
-x,y,-z
1/2+x,1/2+y,1/2+z
1/2-x,1/2-y,1/2+z
1/2+x,1/2-y,1/2-z
1/2-x,1/2+y,1/2-z
loop_
_atom_site_type_symbol
_atom_site_label
_atom_site_fract_x
_atom_site_fract_y
_atom_site_fract_z
Si Si1 0.500000 0.500000 0.000000
Si Si2 0.697023 0.177217 0.505015
Si Si3 0.550468 0.345481 0.656195
Si Si4 0.605811 0.000000 0.500000
Si Si5 0.598232 0.000000 0.000000
Si Si6 0.861397 0.000000 0.000000
Si Si7 0.870217 0.723830 0.607525
Si Si8 0.190787 0.866913 0.668523
O O1 0.533198 0.573998 0.158608
O O2 0.647372 0.097124 0.479396
O O3 0.680271 0.228015 0.733424
O O4 0.754424 0.123382 0.534362
O O5 0.699873 0.269273 0.331956
O O6 0.500000 0.327438 0.500000
O O7 0.599516 0.401808 0.533543
O O8 0.574325 0.242917 0.765161
O O9 0.576477 0.001818 0.741764
O O10 0.629214 0.110179 0.997856
O O11 0.824492 0.970355 0.202899
O O12 0.861087 0.823980 0.458716
#
# Coordination Sequence:
#
# PCOD9331422 Si02
#       8
#     2   8   8   4   4   4   8   8
#     4  12  22  44  74 100 140 188 234 298 396 456
#     4  11  23  40  65  98 142 190 244 302 360 449
#     4  12  25  45  71 109 139 188 249 314 381 460
#     4  10  22  40  67  94 137 188 243 291 360 432
#     4  10  22  43  70 105 131 189 240 293 371 454
#     4  12  25  45  68 102 151 189 246 312 374 458
#     4  11  24  42  72 101 141 192 241 304 381 448
#     4  12  24  41  64 101 147 191 245 301 373 448
#
# _framework density 23.392745999999999
#
# number of rings (size 3 to 8) (size 9 to 14) (size 15 to 20)
#    0.000    0.696    6.957    1.043    0.000    5.565 
#    0.000    0.000    0.000    0.522    4.522    0.000 
#    0.000    0.000    0.000    0.000    0.000    0.000 
#
# Total GULP energy -128269.697278 kJ/mol
# GULP energy per Si atom -5576.943360 kJ/mol
# Density = 2.333950 g / cm^3
# Si number density = 23.392746 Si / 1000 Ang^3
#
#
#
# Elastic Constant Matrix: (Units=GPa)
#
#
# Indices 1 2 3 4 5 6 
#
# 1 98.4863 30.5939 34.9974 0.0000 0.0000 0.0000
# 2 30.5939 92.2376 16.8126 0.0000 0.0000 0.0000
# 3 34.9974 16.8126 113.9661 0.0000 0.0000 0.0000
# 4 0.0000 0.0000 0.0000 48.0450 0.0000 0.0000
# 5 0.0000 0.0000 0.0000 0.0000 14.8860 0.0000
# 6 0.0000 0.0000 0.0000 0.0000 0.0000 17.4017
#
#
#
# Elastic Compliance Matrix: (Units=1/GPa)
#
#
# Indices 1 2 3 4 5 6 
#
# 1 0.012417 -0.003518 -0.003294 0.000000 0.000000 0.000000
# 2 -0.003518 0.012138 -0.000710 0.000000 0.000000 0.000000
# 3 -0.003294 -0.000710 0.009891 0.000000 0.000000 0.000000
# 4 0.000000 0.000000 0.000000 0.020814 0.000000 0.000000
# 5 0.000000 0.000000 0.000000 0.000000 0.067177 0.000000
# 6 0.000000 0.000000 0.000000 0.000000 0.000000 0.057466
#
#
# Mechanical properties :
#
#
# Convention : Reuss Voigt Hill
#
# Bulk Modulus (GPa) = 51.54390 52.16642 51.85516
# Shear Modulus (GPa) = 24.82442 30.88562 27.85502
#
# Velocity S-wave (km/s) = 3.26114 3.63755 3.45447
# Velocity P-wave (km/s) = 6.02180 6.32384 6.17467
#
# Compressibility (1/GPa) = 0.01940094
#
# Stress axis : x y z
#
# Youngs Moduli (GPa) = 80.53369 82.38619 101.10305
#
# Poissons Ratio (x) = 0.28985 0.33305
# Poissons Ratio (y) = 0.28333 0.07181
# Poissons Ratio (z) = 0.26529 0.05851
#
# Static dielectric constant tensor:
#      x y z
#    x 1.866190 0.000000 0.000000 
#    y 0.000000 1.878390 0.000000 
#    z 0.000000 0.000000 2.086230 
# 
# From -- ./inp_files/4896.got.cif
#   From: 2010.05.17/outbox.cif.g08.bks.cpg/sg23_3_cif.got.tgz:4896.got - 2010.06.04 12:02:01.
