data_PCOD9331108
_publ_section_title
;
Structure prediction by ZEFSAII (Michael W. Deem and Ramdas Pophale) SiO2 
 PCOD9331108
Probable space group: I 2 2 2
;
_chemical_formula_sum "Si O2"
_cell_formula_units_Z 64
_cell_length_a 9.177121
_cell_length_b 19.009999
_cell_length_c 15.630674
_cell_angle_alpha 90.000000
_cell_angle_beta 90.000000
_cell_angle_gamma 90.000000
_cell_volume 2726.881448
_symmetry_space_group_name_H-M "I 2 2 2"
_symmetry_group_IT_number 23
_symmetry_cell_setting 'orthorhombic'
loop_
_space_group_symop_operation_xyz
x,y,z
-x,-y,z
x,-y,-z
-x,y,-z
1/2+x,1/2+y,1/2+z
1/2-x,1/2-y,1/2+z
1/2+x,1/2-y,1/2-z
1/2-x,1/2+y,1/2-z
loop_
_atom_site_type_symbol
_atom_site_label
_atom_site_fract_x
_atom_site_fract_y
_atom_site_fract_z
Si Si1 0.325611 0.093581 0.850494
Si Si2 0.131740 0.351691 0.851976
Si Si3 0.325610 0.093581 0.649506
Si Si4 0.631740 0.851691 0.148024
Si Si5 0.140271 0.957808 0.649609
Si Si6 0.636182 0.709198 0.441237
Si Si7 0.863818 0.790802 0.558763
Si Si8 0.859729 0.957808 0.149609
O O1 0.324485 0.113073 0.750000
O O2 0.487847 0.107801 0.884151
O O3 0.210484 0.142731 0.898052
O O4 0.271123 0.014054 0.855041
O O5 0.139432 0.361099 0.750000
O O6 0.282968 0.386848 0.885238
O O7 0.103066 0.270165 0.872051
O O8 0.987847 0.392199 0.884151
O O9 0.271123 0.014054 0.644959
O O10 0.210484 0.142731 0.601948
O O11 0.603066 0.770165 0.127949
O O12 0.782968 0.886848 0.114763
O O13 0.101477 0.943990 0.750000
O O14 0.000000 0.000000 0.613005
O O15 0.500000 0.691917 0.500000
O O16 0.750000 0.750000 0.500000
O O17 0.000000 0.808082 0.500000
O O18 0.000000 0.000000 0.113005
#
# Coordination Sequence:
#
# PCOD9331108 Si02
#       8
#     8   8   8   8   8   8   8   8
#     4  10  21  40  65  92 122 164 212 260 317 380
#     4  10  21  40  65  92 122 164 212 262 317 378
#     4  10  21  40  65  92 122 164 212 260 317 380
#     4  10  21  40  65  92 122 164 212 262 317 378
#     4   9  19  35  62  95 122 152 204 265 313 364
#     4  12  25  42  61  88 131 169 208 258 317 382
#     4  12  25  42  61  88 131 169 208 258 317 382
#     4   9  19  35  62  95 122 152 204 265 313 364
#
# _framework density 23.470033999999998
#
# number of rings (size 3 to 8) (size 9 to 14) (size 15 to 20)
#    0.000    1.750    2.500    1.500    3.500    3.000 
#    0.000    1.250    0.000    0.000    0.000    0.000 
#    0.000    0.000    0.000    0.000    0.000    0.000 
#
# Total GULP energy -178788.086219 kJ/mol
# GULP energy per Si atom -5587.127694 kJ/mol
# Density = 2.341662 g / cm^3
# Si number density = 23.470034 Si / 1000 Ang^3
#
#
#
# Elastic Constant Matrix: (Units=GPa)
#
#
# Indices 1 2 3 4 5 6 
#
# 1 136.2555 35.9305 30.9224 0.0000 0.0000 0.0000
# 2 35.9305 81.7365 29.2300 0.0000 0.0000 0.0000
# 3 30.9224 29.2300 34.7232 0.0000 0.0000 0.0000
# 4 0.0000 0.0000 0.0000 -7.4853 0.0000 0.0000
# 5 0.0000 0.0000 0.0000 0.0000 35.2060 0.0000
# 6 0.0000 0.0000 0.0000 0.0000 0.0000 44.2562
#
#
#
# Elastic Compliance Matrix: (Units=1/GPa)
#
#
# Indices 1 2 3 4 5 6 
#
# 1 0.009346 -0.001619 -0.006959 0.000000 0.000000 0.000000
# 2 -0.001619 0.017784 -0.013529 0.000000 0.000000 0.000000
# 3 -0.006959 -0.013529 0.046385 0.000000 0.000000 0.000000
# 4 0.000000 0.000000 0.000000 -0.133595 0.000000 0.000000
# 5 0.000000 0.000000 0.000000 0.000000 0.028404 0.000000
# 6 0.000000 0.000000 0.000000 0.000000 0.000000 0.022596
#
#
# Mechanical properties :
#
#
# Convention : Reuss Voigt Hill
#
# Bulk Modulus (GPa) = 34.12950 49.43122 41.78036
# Shear Modulus (GPa) = 111.35384 24.83752 68.09568
#
# Velocity S-wave (km/s) = 6.89551 3.25663 5.39230
# Velocity P-wave (km/s) = 8.83011 5.93700 7.52392
#
# Compressibility (1/GPa) = 0.02930017
#
# Stress axis : x y z
#
# Youngs Moduli (GPa) = 107.00228 56.22910 21.55857
#
# Poissons Ratio (x) = 0.09106 0.15003
# Poissons Ratio (y) = 0.17329 0.29166
# Poissons Ratio (z) = 0.74467 0.76071
#
# Static dielectric constant tensor:
#      x y z
#    x 1.916860 0.000000 0.000000 
#    y 0.000000 1.969990 0.000000 
#    z 0.000000 0.000000 1.905950 
# 
# From -- ./inp_files/23994.got.cif
#   From: 2010.05.17/outbox.cif.g08.bks.cpg/sg23_12_cif.got.tgz:23994.got - 2010.06.04 12:02:01.
