data_PCOD9331723
_publ_section_title
;
Structure prediction by ZEFSAII (Michael W. Deem and Ramdas Pophale) SiO2 
 PCOD9331723
Probable space group: I 2 2 2
;
_chemical_formula_sum "Si O2"
_cell_formula_units_Z 40
_cell_length_a 5.188899
_cell_length_b 18.111317
_cell_length_c 19.389354
_cell_angle_alpha 90.000000
_cell_angle_beta 90.000000
_cell_angle_gamma 90.000000
_cell_volume 1822.168729
_symmetry_space_group_name_H-M "I 2 2 2"
_symmetry_group_IT_number 23
_symmetry_cell_setting 'orthorhombic'
loop_
_space_group_symop_operation_xyz
x,y,z
-x,-y,z
x,-y,-z
-x,y,-z
1/2+x,1/2+y,1/2+z
1/2-x,1/2-y,1/2+z
1/2+x,1/2-y,1/2-z
1/2-x,1/2+y,1/2-z
loop_
_atom_site_type_symbol
_atom_site_label
_atom_site_fract_x
_atom_site_fract_y
_atom_site_fract_z
Si Si1 0.510883 0.659994 0.654407
Si Si2 0.445370 0.578415 0.790138
Si Si3 0.618322 0.825531 0.622382
Si Si4 0.615392 0.379939 0.068813
Si Si5 0.006100 0.411417 0.417191
O O1 0.528677 0.637814 0.734333
O O2 0.522170 0.748201 0.650425
O O3 0.753337 0.625588 0.614816
O O4 0.254764 0.625453 0.619386
O O5 0.500000 0.500000 0.755366
O O6 0.175591 0.611177 0.819870
O O7 0.604810 0.573288 0.861173
O O8 0.403708 0.852072 0.568984
O O9 0.898545 0.817719 0.586231
O O10 0.500000 0.415153 0.000000
O O11 0.000000 0.500000 0.404611
O O12 0.000000 0.400234 0.500000
#
# Coordination Sequence:
#
# PCOD9331723 Si02
#       5
#     8   8   8   8   8
#     4  12  25  42  72 103 140 186 233 294 353 424
#     4  10  26  44  70 101 139 186 236 289 349 424
#     4  10  25  41  69  98 137 176 233 288 350 414
#     4  10  23  43  69  98 137 178 230 287 347 417
#     4  11  25  44  67 101 143 187 237 288 350 426
#
# _framework density 21.951862999999999
#
# number of rings (size 3 to 8) (size 9 to 14) (size 15 to 20)
#    1.200    0.200    0.000    4.200    5.600    7.600 
#    0.000    0.000    4.400    0.000    0.000    0.000 
#    0.000    0.000    0.000    0.000    0.000    0.000 
#
# Total GULP energy -111439.426942 kJ/mol
# GULP energy per Si atom -5571.971347 kJ/mol
# Density = 2.190190 g / cm^3
# Si number density = 21.951863 Si / 1000 Ang^3
#
#
#
# Elastic Constant Matrix: (Units=GPa)
#
#
# Indices 1 2 3 4 5 6 
#
# 1 147.5982 44.8519 31.7046 0.0000 0.0000 0.0000
# 2 44.8519 111.9764 26.4060 0.0000 0.0000 0.0000
# 3 31.7046 26.4060 104.2993 0.0000 0.0000 0.0000
# 4 0.0000 0.0000 0.0000 15.9814 0.0000 0.0000
# 5 0.0000 0.0000 0.0000 0.0000 25.3364 0.0000
# 6 0.0000 0.0000 0.0000 0.0000 0.0000 20.8450
#
#
#
# Elastic Compliance Matrix: (Units=1/GPa)
#
#
# Indices 1 2 3 4 5 6 
#
# 1 0.007995 -0.002796 -0.001722 0.000000 0.000000 0.000000
# 2 -0.002796 0.010475 -0.001802 0.000000 0.000000 0.000000
# 3 -0.001722 -0.001802 0.010568 0.000000 0.000000 0.000000
# 4 0.000000 0.000000 0.000000 0.062573 0.000000 0.000000
# 5 0.000000 0.000000 0.000000 0.000000 0.039469 0.000000
# 6 0.000000 0.000000 0.000000 0.000000 0.000000 0.047973
#
#
# Mechanical properties :
#
#
# Convention : Reuss Voigt Hill
#
# Bulk Modulus (GPa) = 60.98835 63.31100 62.14968
# Shear Modulus (GPa) = 25.36021 29.82666 27.59343
#
# Velocity S-wave (km/s) = 3.40261 3.69009 3.54926
# Velocity P-wave (km/s) = 6.57876 6.85997 6.72083
#
# Compressibility (1/GPa) = 0.01639657
#
# Stress axis : x y z
#
# Youngs Moduli (GPa) = 125.08130 95.46151 94.62891
#
# Poissons Ratio (x) = 0.26692 0.16298
# Poissons Ratio (y) = 0.34975 0.17054
# Poissons Ratio (z) = 0.21543 0.17204
#
# Static dielectric constant tensor:
#      x y z
#    x 1.810940 0.000000 0.000000 
#    y 0.000000 1.862930 0.000000 
#    z 0.000000 0.000000 1.831050 
# 
# From -- ./inp_files/23020.got.cif
#   From: 2010.05.17/outbox.cif.g08.bks.cpg/sg23_12_cif.got.tgz:23020.got - 2010.06.04 12:02:01.
