data_PCOD9331464
_publ_section_title
;
Structure prediction by ZEFSAII (Michael W. Deem and Ramdas Pophale) SiO2 
 PCOD9331464
Probable space group: I 2 2 2
;
_chemical_formula_sum "Si O2"
_cell_formula_units_Z 58
_cell_length_a 27.023648
_cell_length_b 5.936034
_cell_length_c 17.300137
_cell_angle_alpha 90.000000
_cell_angle_beta 90.000000
_cell_angle_gamma 90.000000
_cell_volume 2775.171951
_symmetry_space_group_name_H-M "I 2 2 2"
_symmetry_group_IT_number 23
_symmetry_cell_setting 'orthorhombic'
loop_
_space_group_symop_operation_xyz
x,y,z
-x,-y,z
x,-y,-z
-x,y,-z
1/2+x,1/2+y,1/2+z
1/2-x,1/2-y,1/2+z
1/2+x,1/2-y,1/2-z
1/2-x,1/2+y,1/2-z
loop_
_atom_site_type_symbol
_atom_site_label
_atom_site_fract_x
_atom_site_fract_y
_atom_site_fract_z
Si Si1 0.173525 0.508804 0.084609
Si Si2 0.443530 0.963581 0.206133
Si Si3 0.134938 0.158210 0.686036
Si Si4 0.577901 0.320728 0.568476
Si Si5 0.616645 0.348991 0.318949
Si Si6 0.944302 0.923088 0.411032
Si Si7 0.724978 0.132937 0.743452
Si Si8 0.000000 0.500000 0.000000
O O1 0.126775 0.669854 0.069699
O O2 0.150881 0.273767 0.117730
O O3 0.203326 0.611590 0.156275
O O4 0.198933 0.500000 0.000000
O O5 0.416427 0.824092 0.272382
O O6 0.441648 0.830696 0.123703
O O7 0.500000 0.000000 0.225622
O O8 0.412464 0.189526 0.204426
O O9 0.109329 0.021350 0.616785
O O10 0.182393 0.321084 0.691079
O O11 0.147067 0.980824 0.753899
O O12 0.578461 0.500000 0.500000
O O13 0.579868 0.471364 0.643796
O O14 0.532943 0.156116 0.554176
O O15 0.946433 0.000000 0.500000
O O16 0.000000 0.000000 0.380593
O O17 0.754959 0.373719 0.744200
#
# Coordination Sequence:
#
# PCOD9331464 Si02
#       8
#     8   8   8   8   8   8   8   2
#     4  12  24  47  75 105 135 186 245 306 380 450
#     4  11  22  41  65 102 140 186 245 289 358 452
#     4  11  23  44  70  99 140 190 237 300 369 444
#     4  12  23  43  62  93 146 194 242 295 359 436
#     4  11  22  42  65  99 142 189 237 296 359 443
#     4  10  22  41  68 105 146 189 238 296 368 448
#     4  12  28  50  80 109 144 194 254 322 388 453
#     4  12  26  44  52 106 148 204 246 290 368 450
#
# _framework density 20.899607
#
# number of rings (size 3 to 8) (size 9 to 14) (size 15 to 20)
#    0.000    0.690    6.207    1.034    1.931    0.552 
#   18.621    0.690    3.034    0.000    0.000    0.000 
#    0.000    0.000    0.000    0.000    0.000    0.000 
#
# Total GULP energy -161509.219065 kJ/mol
# GULP energy per Si atom -5569.283416 kJ/mol
# Density = 2.085204 g / cm^3
# Si number density = 20.899607 Si / 1000 Ang^3
#
#
#
# Elastic Constant Matrix: (Units=GPa)
#
#
# Indices 1 2 3 4 5 6 
#
# 1 73.0806 29.9474 18.7276 0.0000 0.0000 0.0000
# 2 29.9474 79.7736 26.0162 0.0000 0.0000 0.0000
# 3 18.7276 26.0162 97.5488 0.0000 0.0000 0.0000
# 4 0.0000 0.0000 0.0000 -9.7998 0.0000 0.0000
# 5 0.0000 0.0000 0.0000 0.0000 13.1058 0.0000
# 6 0.0000 0.0000 0.0000 0.0000 0.0000 77.0205
#
#
#
# Elastic Compliance Matrix: (Units=1/GPa)
#
#
# Indices 1 2 3 4 5 6 
#
# 1 0.016410 -0.005622 -0.001651 0.000000 0.000000 0.000000
# 2 -0.005622 0.015656 -0.003096 0.000000 0.000000 0.000000
# 3 -0.001651 -0.003096 0.011394 0.000000 0.000000 0.000000
# 4 0.000000 0.000000 0.000000 -0.102043 0.000000 0.000000
# 5 0.000000 0.000000 0.000000 0.000000 0.076302 0.000000
# 6 0.000000 0.000000 0.000000 0.000000 0.000000 0.012984
#
#
# Mechanical properties :
#
#
# Convention : Reuss Voigt Hill
#
# Bulk Modulus (GPa) = 44.01077 44.42060 44.21569
# Shear Modulus (GPa) = 84.72368 27.77942 56.25155
#
# Velocity S-wave (km/s) = 6.37389 3.64975 5.19361
# Velocity P-wave (km/s) = 8.67597 6.24991 7.56088
#
# Compressibility (1/GPa) = 0.02272171
#
# Stress axis : x y z
#
# Youngs Moduli (GPa) = 60.93660 63.87435 87.76568
#
# Poissons Ratio (x) = 0.35911 0.14491
# Poissons Ratio (y) = 0.34259 0.27173
# Poissons Ratio (z) = 0.10061 0.19776
#
# Static dielectric constant tensor:
#      x y z
#    x 1.812900 0.000000 0.000000 
#    y 0.000000 1.843550 0.000000 
#    z 0.000000 0.000000 1.773180 
# 
# From -- ./inp_files/25438.got.cif
#   From: 2010.05.17/outbox.cif.g08.bks.cpg/sg23_13_cif.got.tgz:25438.got - 2010.06.04 12:02:01.
