data_PCOD9331967
_publ_section_title
;
Structure prediction by ZEFSAII (Michael W. Deem and Ramdas Pophale) SiO2 
 PCOD9331967
Probable space group: I 2 2 2
;
_chemical_formula_sum "Si O2"
_cell_formula_units_Z 34
_cell_length_a 9.275585
_cell_length_b 11.979333
_cell_length_c 14.720183
_cell_angle_alpha 90.000000
_cell_angle_beta 90.000000
_cell_angle_gamma 90.000000
_cell_volume 1635.637866
_symmetry_space_group_name_H-M "I 2 2 2"
_symmetry_group_IT_number 23
_symmetry_cell_setting 'orthorhombic'
loop_
_space_group_symop_operation_xyz
x,y,z
-x,-y,z
x,-y,-z
-x,y,-z
1/2+x,1/2+y,1/2+z
1/2-x,1/2-y,1/2+z
1/2+x,1/2-y,1/2-z
1/2-x,1/2+y,1/2-z
loop_
_atom_site_type_symbol
_atom_site_label
_atom_site_fract_x
_atom_site_fract_y
_atom_site_fract_z
Si Si1 0.777570 0.118636 0.467047
Si Si2 0.500000 0.000000 0.500000
Si Si3 0.314283 0.776245 0.143433
Si Si4 0.836833 0.992268 0.108015
Si Si5 0.649171 0.212509 0.817840
O O1 0.610434 0.083428 0.450930
O O2 0.804525 0.206799 0.548875
O O3 0.827431 0.173297 0.374194
O O4 0.841348 0.000000 0.500000
O O5 0.477121 0.797204 0.177227
O O6 0.215861 0.714980 0.217787
O O7 0.246984 0.897656 0.135225
O O8 0.742373 0.884306 0.133227
O O9 0.000000 0.000000 0.146535
O O10 0.848980 0.000000 0.000000
#
# Coordination Sequence:
#
# PCOD9331967 Si02
#       5
#     8   2   8   8   8
#     4  10  25  45  73  96 136 181 230 274 342 396
#     4   8  24  40  78  94 140 178 226 280 334 400
#     4  12  27  45  71 101 140 178 228 281 337 404
#     4  11  25  44  73 100 135 179 227 279 342 402
#     4  12  27  45  71 101 140 178 228 281 337 404
#
# _framework density 20.786998000000001
#
# number of rings (size 3 to 8) (size 9 to 14) (size 15 to 20)
#    0.706    0.235    2.353    2.824    9.882    2.824 
#    0.000    0.000    0.000    0.000    0.000    0.000 
#    0.000    0.000    0.000    0.000    0.000    0.000 
#
# Total GULP energy -94818.174608 kJ/mol
# GULP energy per Si atom -5577.539683 kJ/mol
# Density = 2.073969 g / cm^3
# Si number density = 20.786998 Si / 1000 Ang^3
#
#
#
# Elastic Constant Matrix: (Units=GPa)
#
#
# Indices 1 2 3 4 5 6 
#
# 1 187.0994 25.3544 3.4460 0.0000 0.0000 0.0000
# 2 25.3544 77.5437 -21.2581 0.0000 0.0000 0.0000
# 3 3.4460 -21.2581 43.7672 0.0000 0.0000 0.0000
# 4 0.0000 0.0000 0.0000 26.6723 0.0000 0.0000
# 5 0.0000 0.0000 0.0000 0.0000 11.6498 0.0000
# 6 0.0000 0.0000 0.0000 0.0000 0.0000 54.8357
#
#
#
# Elastic Compliance Matrix: (Units=1/GPa)
#
#
# Indices 1 2 3 4 5 6 
#
# 1 0.005683 -0.002285 -0.001557 0.000000 0.000000 0.000000
# 2 -0.002285 0.015796 0.007852 0.000000 0.000000 0.000000
# 3 -0.001557 0.007852 0.026785 0.000000 0.000000 0.000000
# 4 0.000000 0.000000 0.000000 0.037492 0.000000 0.000000
# 5 0.000000 0.000000 0.000000 0.000000 0.085838 0.000000
# 6 0.000000 0.000000 0.000000 0.000000 0.000000 0.018236
#
#
# Mechanical properties :
#
#
# Convention : Reuss Voigt Hill
#
# Bulk Modulus (GPa) = 17.76755 35.94388 26.85571
# Shear Modulus (GPa) = 24.92875 38.68944 31.80910
#
# Velocity S-wave (km/s) = 3.46677 4.31888 3.91607
# Velocity P-wave (km/s) = 4.95890 6.49610 5.77884
#
# Compressibility (1/GPa) = 0.05628239
#
# Stress axis : x y z
#
# Youngs Moduli (GPa) = 175.96021 63.30835 37.33495
#
# Poissons Ratio (x) = 0.14467 0.05814
# Poissons Ratio (y) = 0.40209 -0.29315
# Poissons Ratio (z) = 0.27403 -0.49710
#
# Static dielectric constant tensor:
#      x y z
#    x 1.856310 0.000000 0.000000 
#    y 0.000000 1.763090 0.000000 
#    z 0.000000 0.000000 1.738950 
# 
# From -- ./inp_files/19566.got.cif
#   From: 2010.05.17/outbox.cif.g08.bks.cpg/sg23_10_cif.got.tgz:19566.got - 2010.06.04 12:02:01.
