data_PCOD9331305
_publ_section_title
;
Structure prediction by ZEFSAII (Michael W. Deem and Ramdas Pophale) SiO2 
 PCOD9331305
Probable space group: I 2 2 2
;
_chemical_formula_sum "Si O2"
_cell_formula_units_Z 48
_cell_length_a 18.002156
_cell_length_b 5.521995
_cell_length_c 21.637010
_cell_angle_alpha 90.000000
_cell_angle_beta 90.000000
_cell_angle_gamma 90.000000
_cell_volume 2150.887896
_symmetry_space_group_name_H-M "I 2 2 2"
_symmetry_group_IT_number 23
_symmetry_cell_setting 'orthorhombic'
loop_
_space_group_symop_operation_xyz
x,y,z
-x,-y,z
x,-y,-z
-x,y,-z
1/2+x,1/2+y,1/2+z
1/2-x,1/2-y,1/2+z
1/2+x,1/2-y,1/2-z
1/2-x,1/2+y,1/2-z
loop_
_atom_site_type_symbol
_atom_site_label
_atom_site_fract_x
_atom_site_fract_y
_atom_site_fract_z
Si Si1 0.520012 0.751701 0.629239
Si Si2 0.690935 0.082479 0.101403
Si Si3 0.120157 0.255642 0.515258
Si Si4 0.310370 0.294440 0.667807
Si Si5 0.461408 0.248689 0.230680
Si Si6 0.176660 0.980695 0.693303
O O1 0.500000 0.500000 0.597487
O O2 0.606672 0.752552 0.646067
O O3 0.472704 0.752253 0.694490
O O4 0.500000 0.000000 0.596122
O O5 0.650086 0.264428 0.148328
O O6 0.650823 0.826947 0.082270
O O7 0.769354 0.004798 0.129152
O O8 0.687135 0.222434 0.035586
O O9 0.075693 0.500000 0.500000
O O10 0.085441 0.000000 0.500000
O O11 0.255133 0.067078 0.666289
O O12 0.313036 0.365937 0.739416
O O13 0.500000 0.500000 0.209739
O O14 0.377490 0.292509 0.208729
O O15 0.500000 0.000000 0.209153
#
# Coordination Sequence:
#
# PCOD9331305 Si02
#       6
#     8   8   8   8   8   8
#     4  10  22  38  51  70 116 177 208 231 290 375
#     4   9  22  34  60  88 123 160 203 265 322 365
#     4   8  18  40  58  80 120 158 202 256 318 370
#     4  12  23  33  55  90 128 164 202 260 311 377
#     4  10  22  38  51  70 117 180 206 238 294 379
#     4  12  23  33  55  90 129 166 211 265 318 383
#
# _framework density 22.316365999999999
#
# number of rings (size 3 to 8) (size 9 to 14) (size 15 to 20)
#    1.000    0.667    5.000    1.000    9.333    0.000 
#    0.000    0.000    0.000    0.000    0.000    2.333 
#    0.000   27.333    0.000    0.000    0.000    0.000 
#
# Total GULP energy -133640.340829 kJ/mol
# GULP energy per Si atom -5568.347535 kJ/mol
# Density = 2.226557 g / cm^3
# Si number density = 22.316366 Si / 1000 Ang^3
#
#
#
# Elastic Constant Matrix: (Units=GPa)
#
#
# Indices 1 2 3 4 5 6 
#
# 1 43.4422 28.1874 7.3467 0.0000 0.0000 0.0000
# 2 28.1874 199.2619 11.0208 0.0000 0.0000 0.0000
# 3 7.3467 11.0208 64.9081 0.0000 0.0000 0.0000
# 4 0.0000 0.0000 0.0000 21.3067 0.0000 0.0000
# 5 0.0000 0.0000 0.0000 0.0000 72.9041 0.0000
# 6 0.0000 0.0000 0.0000 0.0000 0.0000 22.4525
#
#
#
# Elastic Compliance Matrix: (Units=1/GPa)
#
#
# Indices 1 2 3 4 5 6 
#
# 1 0.025685 -0.003505 -0.002312 0.000000 0.000000 0.000000
# 2 -0.003505 0.005545 -0.000545 0.000000 0.000000 0.000000
# 3 -0.002312 -0.000545 0.015761 0.000000 0.000000 0.000000
# 4 0.000000 0.000000 0.000000 0.046934 0.000000 0.000000
# 5 0.000000 0.000000 0.000000 0.000000 0.013717 0.000000
# 6 0.000000 0.000000 0.000000 0.000000 0.000000 0.044538
#
#
# Mechanical properties :
#
#
# Convention : Reuss Voigt Hill
#
# Bulk Modulus (GPa) = 29.18382 44.52468 36.85425
# Shear Modulus (GPa) = 28.35685 40.73648 34.54667
#
# Velocity S-wave (km/s) = 3.56852 4.27712 3.93878
# Velocity P-wave (km/s) = 5.48496 6.66232 6.10210
#
# Compressibility (1/GPa) = 0.03426557
#
# Stress axis : x y z
#
# Youngs Moduli (GPa) = 38.93386 180.35825 63.44955
#
# Poissons Ratio (x) = 0.63224 0.14669
# Poissons Ratio (y) = 0.13648 0.03456
# Poissons Ratio (z) = 0.09001 0.09823
#
# Static dielectric constant tensor:
#      x y z
#    x 1.820280 0.000000 0.000000 
#    y 0.000000 1.918270 0.000000 
#    z 0.000000 0.000000 1.835460 
# 
# From -- ./inp_files/28625.got.cif
#   From: 2010.05.17/outbox.cif.g08.bks.cpg/sg23_15_cif.got.tgz:28625.got - 2010.06.04 12:02:01.
