data_PCOD9331320
_publ_section_title
;
Structure prediction by ZEFSAII (Michael W. Deem and Ramdas Pophale) SiO2 
 PCOD9331320
Probable space group: I 2 2 2
;
_chemical_formula_sum "Si O2"
_cell_formula_units_Z 48
_cell_length_a 5.000126
_cell_length_b 22.762932
_cell_length_c 18.443124
_cell_angle_alpha 90.000000
_cell_angle_beta 90.000000
_cell_angle_gamma 90.000000
_cell_volume 2099.150785
_symmetry_space_group_name_H-M "I 2 2 2"
_symmetry_group_IT_number 23
_symmetry_cell_setting 'orthorhombic'
loop_
_space_group_symop_operation_xyz
x,y,z
-x,-y,z
x,-y,-z
-x,y,-z
1/2+x,1/2+y,1/2+z
1/2-x,1/2-y,1/2+z
1/2+x,1/2-y,1/2-z
1/2-x,1/2+y,1/2-z
loop_
_atom_site_type_symbol
_atom_site_label
_atom_site_fract_x
_atom_site_fract_y
_atom_site_fract_z
Si Si1 0.975981 0.402616 0.818089
Si Si2 0.963070 0.112803 0.583053
Si Si3 0.906740 0.273478 0.783730
Si Si4 0.735912 0.131445 0.049481
Si Si5 0.684758 0.238415 0.569450
Si Si6 0.264598 0.961050 0.174370
O O1 0.743315 0.392634 0.876640
O O2 0.869259 0.443340 0.754079
O O3 0.239932 0.417618 0.864908
O O4 0.010004 0.339988 0.777870
O O5 0.866299 0.180819 0.578461
O O6 0.000000 0.091581 0.500000
O O7 0.096281 0.234065 0.732993
O O8 0.980954 0.255423 0.864244
O O9 0.666174 0.199417 0.066719
O O10 0.779618 0.094936 0.122728
O O11 0.500000 0.106074 0.000000
O O12 0.000000 0.131897 0.000000
O O13 0.500000 0.229063 0.500000
O O14 0.500000 0.000000 0.140207
O O15 0.000000 0.000000 0.179917
#
# Coordination Sequence:
#
# PCOD9331320 Si02
#       6
#     8   8   8   8   8   8
#     4  11  24  40  63  94 125 166 213 261 320 382
#     4  11  21  39  66  99 135 168 200 244 311 396
#     4  11  22  36  58  89 128 168 207 251 304 379
#     4  11  25  42  65  95 130 171 217 267 319 381
#     4  10  22  38  61  96 137 172 202 242 306 383
#     4  12  27  47  69  90 122 168 224 286 334 372
#
# _framework density 22.866389999999999
#
# number of rings (size 3 to 8) (size 9 to 14) (size 15 to 20)
#    0.000    1.000    0.000    8.000    0.000   11.333 
#    0.000    0.000    0.000    7.500    0.000    0.000 
#    0.000    0.000    0.000    0.000    0.000    0.000 
#
# Total GULP energy -134330.705847 kJ/mol
# GULP energy per Si atom -5597.112744 kJ/mol
# Density = 2.281435 g / cm^3
# Si number density = 22.866390 Si / 1000 Ang^3
#
#
#
# Elastic Constant Matrix: (Units=GPa)
#
#
# Indices 1 2 3 4 5 6 
#
# 1 99.5647 7.8214 18.2092 0.0000 0.0000 0.0000
# 2 7.8214 43.5891 30.6919 0.0000 0.0000 0.0000
# 3 18.2092 30.6919 122.0106 0.0000 0.0000 0.0000
# 4 0.0000 0.0000 0.0000 23.4495 0.0000 0.0000
# 5 0.0000 0.0000 0.0000 0.0000 30.5854 0.0000
# 6 0.0000 0.0000 0.0000 0.0000 0.0000 7.9249
#
#
#
# Elastic Compliance Matrix: (Units=1/GPa)
#
#
# Indices 1 2 3 4 5 6 
#
# 1 0.010357 -0.000936 -0.001310 0.000000 0.000000 0.000000
# 2 -0.000936 0.027964 -0.006895 0.000000 0.000000 0.000000
# 3 -0.001310 -0.006895 0.010126 0.000000 0.000000 0.000000
# 4 0.000000 0.000000 0.000000 0.042645 0.000000 0.000000
# 5 0.000000 0.000000 0.000000 0.000000 0.032695 0.000000
# 6 0.000000 0.000000 0.000000 0.000000 0.000000 0.126185
#
#
# Mechanical properties :
#
#
# Convention : Reuss Voigt Hill
#
# Bulk Modulus (GPa) = 33.15069 42.06772 37.60921
# Shear Modulus (GPa) = 17.96566 26.28808 22.12687
#
# Velocity S-wave (km/s) = 2.80604 3.39431 3.11410
# Velocity P-wave (km/s) = 5.00275 5.81368 5.42339
#
# Compressibility (1/GPa) = 0.03016529
#
# Stress axis : x y z
#
# Youngs Moduli (GPa) = 96.55427 35.76008 98.75626
#
# Poissons Ratio (x) = 0.03346 0.12940
# Poissons Ratio (y) = 0.09035 0.68090
# Poissons Ratio (z) = 0.12651 0.24656
#
# Static dielectric constant tensor:
#      x y z
#    x 1.848210 0.000000 0.000000 
#    y 0.000000 1.906980 0.000000 
#    z 0.000000 0.000000 1.876390 
# 
# From -- ./inp_files/23185.got.cif
#   From: 2010.05.17/outbox.cif.g08.bks.cpg/sg23_12_cif.got.tgz:23185.got - 2010.06.04 12:02:01.
