data_PCOD9331529
_publ_section_title
;
Structure prediction by ZEFSAII (Michael W. Deem and Ramdas Pophale) SiO2 
 PCOD9331529
Probable space group: I 2 2 2
;
_chemical_formula_sum "Si O2"
_cell_formula_units_Z 38
_cell_length_a 24.444127
_cell_length_b 5.364315
_cell_length_c 12.710745
_cell_angle_alpha 90.000000
_cell_angle_beta 90.000000
_cell_angle_gamma 90.000000
_cell_volume 1666.709112
_symmetry_space_group_name_H-M "I 2 2 2"
_symmetry_group_IT_number 23
_symmetry_cell_setting 'orthorhombic'
loop_
_space_group_symop_operation_xyz
x,y,z
-x,-y,z
x,-y,-z
-x,y,-z
1/2+x,1/2+y,1/2+z
1/2-x,1/2-y,1/2+z
1/2+x,1/2-y,1/2-z
1/2-x,1/2+y,1/2-z
loop_
_atom_site_type_symbol
_atom_site_label
_atom_site_fract_x
_atom_site_fract_y
_atom_site_fract_z
Si Si1 0.374365 0.000000 0.500000
Si Si2 0.000000 0.000000 0.500000
Si Si3 0.225548 0.197806 0.089886
Si Si4 0.587792 0.213167 0.709878
Si Si5 0.314829 0.478895 0.195491
Si Si6 0.573091 0.710508 0.820944
O O1 0.333121 0.815490 0.439301
O O2 0.408114 0.849657 0.587170
O O3 0.961567 0.164271 0.574972
O O4 0.272764 0.398161 0.107432
O O5 0.217878 0.077425 0.204160
O O6 0.239199 0.000000 0.000000
O O7 0.649037 0.250511 0.757615
O O8 0.561805 0.478163 0.741211
O O9 0.563229 0.976079 0.768974
O O10 0.361842 0.670568 0.158241
#
# Coordination Sequence:
#
# PCOD9331529 Si02
#       6
#     4   2   8   8   8   8
#     4  12  20  39  66  93 130 193 225 272 356 432
#     4  12  28  52  84 100 140 194 242 290 408 418
#     4  12  23  37  63  96 139 199 234 279 359 429
#     4  10  22  43  67  95 138 173 233 290 354 411
#     4  10  24  40  60 101 147 177 238 302 335 427
#     4  10  25  45  69 101 133 183 232 301 349 432
#
# _framework density 22.799422
#
# number of rings (size 3 to 8) (size 9 to 14) (size 15 to 20)
#    1.263    0.000    4.211    1.263    0.000    5.053 
#    0.000    0.000    0.000    3.789    0.000    0.000 
#    0.000    0.000    0.000    0.000    0.000    0.000 
#
# Total GULP energy -106215.230518 kJ/mol
# GULP energy per Si atom -5590.275290 kJ/mol
# Density = 2.274753 g / cm^3
# Si number density = 22.799422 Si / 1000 Ang^3
#
#
#
# Elastic Constant Matrix: (Units=GPa)
#
#
# Indices 1 2 3 4 5 6 
#
# 1 72.9884 -11.7149 15.9026 0.0000 0.0000 0.0000
# 2 -11.7149 58.0652 -12.3577 0.0000 0.0000 0.0000
# 3 15.9026 -12.3577 79.1624 0.0000 0.0000 0.0000
# 4 0.0000 0.0000 0.0000 30.7356 0.0000 0.0000
# 5 0.0000 0.0000 0.0000 0.0000 17.7145 0.0000
# 6 0.0000 0.0000 0.0000 0.0000 0.0000 -19.3363
#
#
#
# Elastic Compliance Matrix: (Units=1/GPa)
#
#
# Indices 1 2 3 4 5 6 
#
# 1 0.014647 0.002409 -0.002566 0.000000 0.000000 0.000000
# 2 0.002409 0.018210 0.002359 0.000000 0.000000 0.000000
# 3 -0.002566 0.002359 0.013516 0.000000 0.000000 0.000000
# 4 0.000000 0.000000 0.000000 0.032536 0.000000 0.000000
# 5 0.000000 0.000000 0.000000 0.000000 0.056451 0.000000
# 6 0.000000 0.000000 0.000000 0.000000 0.000000 -0.051716
#
#
# Mechanical properties :
#
#
# Convention : Reuss Voigt Hill
#
# Bulk Modulus (GPa) = 19.69459 21.54177 20.61818
# Shear Modulus (GPa) = 51.99380 20.38182 36.18781
#
# Velocity S-wave (km/s) = 4.78063 2.99316 3.98832
# Velocity P-wave (km/s) = 6.25535 4.62756 5.50199
#
# Compressibility (1/GPa) = 0.05077537
#
# Stress axis : x y z
#
# Youngs Moduli (GPa) = 68.27542 54.91480 73.98633
#
# Poissons Ratio (x) = -0.13228 0.18987
# Poissons Ratio (y) = -0.16447 -0.17452
# Poissons Ratio (z) = 0.17521 -0.12953
#
# Static dielectric constant tensor:
#      x y z
#    x 1.899550 0.000000 0.000000 
#    y 0.000000 1.864450 0.000000 
#    z 0.000000 0.000000 1.782740 
# 
# From -- ./inp_files/18717.got.cif
#   From: 2010.05.17/outbox.cif.g08.bks.cpg/sg23_10_cif.got.tgz:18717.got - 2010.06.04 12:02:01.
