data_PCOD9331809
_publ_section_title
;
Structure prediction by ZEFSAII (Michael W. Deem and Ramdas Pophale) SiO2 
 PCOD9331809
Probable space group: I 2 2 2
;
_chemical_formula_sum "Si O2"
_cell_formula_units_Z 44
_cell_length_a 9.337581
_cell_length_b 13.938455
_cell_length_c 14.760063
_cell_angle_alpha 90.000000
_cell_angle_beta 90.000000
_cell_angle_gamma 90.000000
_cell_volume 1921.043640
_symmetry_space_group_name_H-M "I 2 2 2"
_symmetry_group_IT_number 23
_symmetry_cell_setting 'orthorhombic'
loop_
_space_group_symop_operation_xyz
x,y,z
-x,-y,z
x,-y,-z
-x,y,-z
1/2+x,1/2+y,1/2+z
1/2-x,1/2-y,1/2+z
1/2+x,1/2-y,1/2-z
1/2-x,1/2+y,1/2-z
loop_
_atom_site_type_symbol
_atom_site_label
_atom_site_fract_x
_atom_site_fract_y
_atom_site_fract_z
Si Si1 0.241026 0.438848 0.142581
Si Si2 0.168043 0.727556 0.318898
Si Si3 0.756090 0.844319 0.374775
Si Si4 0.163783 0.320490 0.489958
Si Si5 0.000000 0.623215 0.000000
Si Si6 0.405943 0.912394 0.168865
O O1 0.331975 0.341379 0.159004
O O2 0.303420 0.544838 0.127092
O O3 0.158473 0.447121 0.237445
O O4 0.123675 0.424213 0.063035
O O5 0.248353 0.699715 0.226305
O O6 0.234278 0.682619 0.411934
O O7 0.013359 0.676516 0.311289
O O8 0.846628 0.784788 0.446667
O O9 0.597941 0.830875 0.420875
O O10 0.213846 0.384305 0.405372
O O11 0.000000 0.352932 0.500000
O O12 0.500000 0.000000 0.134413
#
# Coordination Sequence:
#
# PCOD9331809 Si02
#       6
#     8   8   8   8   4   8
#     4  12  22  38  66  94 125 159 210 269 311 371
#     4  11  23  37  59  94 126 160 206 253 318 370
#     4  12  22  40  64  96 124 164 210 260 322 364
#     4  10  24  40  61  91 131 168 203 255 315 383
#     4  12  23  38  68  94 117 156 217 268 308 362
#     4  11  21  41  62  92 122 164 213 260 303 371
#
# _framework density 22.904219000000001
#
# number of rings (size 3 to 8) (size 9 to 14) (size 15 to 20)
#    0.000    0.727    7.273    1.636    0.000    3.273 
#    0.000    6.364    0.000    0.000    0.000    5.091 
#    0.000    0.000    0.000    0.000    0.000    0.000 
#
# Total GULP energy -122537.232823 kJ/mol
# GULP energy per Si atom -5569.874219 kJ/mol
# Density = 2.285209 g / cm^3
# Si number density = 22.904219 Si / 1000 Ang^3
#
#
#
# Elastic Constant Matrix: (Units=GPa)
#
#
# Indices 1 2 3 4 5 6 
#
# 1 18.7831 22.4371 3.3525 0.0000 0.0000 0.0000
# 2 22.4371 108.7136 41.3037 0.0000 0.0000 0.0000
# 3 3.3525 41.3037 199.5972 0.0000 0.0000 0.0000
# 4 0.0000 0.0000 0.0000 36.9886 0.0000 0.0000
# 5 0.0000 0.0000 0.0000 0.0000 27.7671 0.0000
# 6 0.0000 0.0000 0.0000 0.0000 0.0000 28.5849
#
#
#
# Elastic Compliance Matrix: (Units=1/GPa)
#
#
# Indices 1 2 3 4 5 6 
#
# 1 0.071393 -0.015498 0.002008 0.000000 0.000000 0.000000
# 2 -0.015498 0.013347 -0.002502 0.000000 0.000000 0.000000
# 3 0.002008 -0.002502 0.005494 0.000000 0.000000 0.000000
# 4 0.000000 0.000000 0.000000 0.027035 0.000000 0.000000
# 5 0.000000 0.000000 0.000000 0.000000 0.036014 0.000000
# 6 0.000000 0.000000 0.000000 0.000000 0.000000 0.034983
#
#
# Mechanical properties :
#
#
# Convention : Reuss Voigt Hill
#
# Bulk Modulus (GPa) = 17.16680 51.25340 34.21010
# Shear Modulus (GPa) = 20.86221 36.00149 28.43185
#
# Velocity S-wave (km/s) = 3.02130 3.96893 3.52708
# Velocity P-wave (km/s) = 4.43647 6.59007 5.61744
#
# Compressibility (1/GPa) = 0.05825196
#
# Stress axis : x y z
#
# Youngs Moduli (GPa) = 14.00691 74.92054 182.01442
#
# Poissons Ratio (x) = 1.16108 -0.36546
# Poissons Ratio (y) = 0.21707 0.45536
# Poissons Ratio (z) = -0.02812 0.18743
#
# Static dielectric constant tensor:
#      x y z
#    x 1.914100 0.000000 0.000000 
#    y 0.000000 1.974090 0.000000 
#    z 0.000000 0.000000 1.933770 
# 
# From -- ./inp_files/21492.got.cif
#   From: 2010.05.17/outbox.cif.g08.bks.cpg/sg23_11_cif.got.tgz:21492.got - 2010.06.04 12:02:01.
