data_PCOD9331627
_publ_section_title
;
Structure prediction by ZEFSAII (Michael W. Deem and Ramdas Pophale) SiO2 
 PCOD9331627
Probable space group: I 2 2 2
;
_chemical_formula_sum "Si O2"
_cell_formula_units_Z 40
_cell_length_a 23.593705
_cell_length_b 9.130396
_cell_length_c 8.003695
_cell_angle_alpha 90.000000
_cell_angle_beta 90.000000
_cell_angle_gamma 90.000000
_cell_volume 1724.154934
_symmetry_space_group_name_H-M "I 2 2 2"
_symmetry_group_IT_number 23
_symmetry_cell_setting 'orthorhombic'
loop_
_space_group_symop_operation_xyz
x,y,z
-x,-y,z
x,-y,-z
-x,y,-z
1/2+x,1/2+y,1/2+z
1/2-x,1/2-y,1/2+z
1/2+x,1/2-y,1/2-z
1/2-x,1/2+y,1/2-z
loop_
_atom_site_type_symbol
_atom_site_label
_atom_site_fract_x
_atom_site_fract_y
_atom_site_fract_z
Si Si1 0.287287 0.318568 0.770287
Si Si2 0.642362 0.500000 0.000000
Si Si3 0.945083 0.102333 0.227514
Si Si4 0.945878 0.570022 0.686680
Si Si5 0.819399 0.508736 0.702968
Si Si6 0.141475 0.000000 0.000000
O O1 0.317724 0.366046 0.943943
O O2 0.222097 0.365311 0.768671
O O3 0.297317 0.148907 0.737250
O O4 0.317548 0.419834 0.630739
O O5 0.599338 0.473778 0.850394
O O6 0.958107 0.257635 0.309555
O O7 0.904598 0.119048 0.066368
O O8 0.000000 0.000000 0.204011
O O9 0.943746 0.500000 0.500000
O O10 0.883814 0.537440 0.756493
O O11 0.000000 0.500000 0.775617
O O12 0.817216 0.500000 0.500000
#
# Coordination Sequence:
#
# PCOD9331627 Si02
#       6
#     8   4   8   8   8   4
#     4  11  25  43  73 103 145 188 238 305 357 431
#     4  10  23  38  70 104 133 180 244 292 358 410
#     4  11  24  43  74 100 139 187 243 294 353 430
#     4  10  24  42  67 100 141 181 237 294 350 419
#     4  11  25  44  70 102 147 185 241 294 365 423
#     4  10  25  46  70 102 145 182 244 292 372 428
#
# _framework density 23.199770000000001
#
# number of rings (size 3 to 8) (size 9 to 14) (size 15 to 20)
#    0.000    1.400    1.000    3.000   19.600    0.000 
#    0.000    0.000    0.000    0.000    0.000    0.000 
#    0.000    0.000    0.000    0.000    0.000    0.000 
#
# Total GULP energy -111761.086151 kJ/mol
# GULP energy per Si atom -5588.054308 kJ/mol
# Density = 2.314697 g / cm^3
# Si number density = 23.199770 Si / 1000 Ang^3
#
#
#
# Elastic Constant Matrix: (Units=GPa)
#
#
# Indices 1 2 3 4 5 6 
#
# 1 233.2527 61.4829 20.3595 0.0000 0.0000 0.0000
# 2 61.4829 115.0838 -15.3812 0.0000 0.0000 0.0000
# 3 20.3595 -15.3812 21.7892 0.0000 0.0000 0.0000
# 4 0.0000 0.0000 0.0000 27.2472 0.0000 0.0000
# 5 0.0000 0.0000 0.0000 0.0000 40.4398 0.0000
# 6 0.0000 0.0000 0.0000 0.0000 0.0000 31.2616
#
#
#
# Elastic Compliance Matrix: (Units=1/GPa)
#
#
# Indices 1 2 3 4 5 6 
#
# 1 0.006288 -0.004577 -0.009107 0.000000 0.000000 0.000000
# 2 -0.004577 0.012925 0.013401 0.000000 0.000000 0.000000
# 3 -0.009107 0.013401 0.063863 0.000000 0.000000 0.000000
# 4 0.000000 0.000000 0.000000 0.036701 0.000000 0.000000
# 5 0.000000 0.000000 0.000000 0.000000 0.024728 0.000000
# 6 0.000000 0.000000 0.000000 0.000000 0.000000 0.031988
#
#
# Mechanical properties :
#
#
# Convention : Reuss Voigt Hill
#
# Bulk Modulus (GPa) = 12.11952 55.89423 34.00688
# Shear Modulus (GPa) = 24.44232 40.03402 32.23817
#
# Velocity S-wave (km/s) = 3.24938 4.15857 3.73176
# Velocity P-wave (km/s) = 4.39469 6.87045 5.76699
#
# Compressibility (1/GPa) = 0.08251151
#
# Stress axis : x y z
#
# Youngs Moduli (GPa) = 159.02234 77.36707 15.65852
#
# Poissons Ratio (x) = 0.35408 0.14260
# Poissons Ratio (y) = 0.72779 -0.20983
# Poissons Ratio (z) = 1.44814 -1.03676
#
# Static dielectric constant tensor:
#      x y z
#    x 1.879140 0.000000 0.000000 
#    y 0.000000 1.801530 0.000000 
#    z 0.000000 0.000000 2.022260 
# 
# From -- ./inp_files/12439.got.cif
#   From: 2010.05.17/outbox.cif.g08.bks.cpg/sg23_7_cif.got.tgz:12439.got - 2010.06.04 12:02:01.
