data_PCOD9331724
_publ_section_title
;
Structure prediction by ZEFSAII (Michael W. Deem and Ramdas Pophale) SiO2 
 PCOD9331724
Probable space group: I 2 2 2
;
_chemical_formula_sum "Si O2"
_cell_formula_units_Z 32
_cell_length_a 5.206239
_cell_length_b 29.923265
_cell_length_c 9.017486
_cell_angle_alpha 90.000000
_cell_angle_beta 90.000000
_cell_angle_gamma 90.000000
_cell_volume 1404.813126
_symmetry_space_group_name_H-M "I 2 2 2"
_symmetry_group_IT_number 23
_symmetry_cell_setting 'orthorhombic'
loop_
_space_group_symop_operation_xyz
x,y,z
-x,-y,z
x,-y,-z
-x,y,-z
1/2+x,1/2+y,1/2+z
1/2-x,1/2-y,1/2+z
1/2+x,1/2-y,1/2-z
1/2-x,1/2+y,1/2-z
loop_
_atom_site_type_symbol
_atom_site_label
_atom_site_fract_x
_atom_site_fract_y
_atom_site_fract_z
Si Si1 0.923036 0.102696 0.341429
Si Si2 0.254237 0.520557 0.670073
Si Si3 0.000000 0.699585 0.500000
Si Si4 0.000000 0.259090 0.000000
Si Si5 0.442047 0.158181 0.301247
O O1 0.804533 0.072001 0.208916
O O2 0.684819 0.134947 0.381137
O O3 0.000000 0.080365 0.500000
O O4 0.179663 0.129554 0.293801
O O5 0.500000 0.500000 0.745805
O O6 0.253099 0.500000 0.500000
O O7 0.000000 0.500000 0.737767
O O8 0.252244 0.729053 0.465902
O O9 0.952223 0.668012 0.361514
O O10 0.907949 0.292957 0.127846
#
# Coordination Sequence:
#
# PCOD9331724 Si02
#       5
#     8   8   4   4   8
#     4  12  24  45  70  98 136 184 226 279 340 416
#     4  10  23  43  69  99 131 170 216 280 346 405
#     4  12  26  40  68 106 137 186 235 290 342 400
#     4  12  22  46  66  98 143 182 235 286 346 400
#     4  12  25  44  70 100 139 182 234 282 341 404
#
# _framework density 22.778829000000002
#
# number of rings (size 3 to 8) (size 9 to 14) (size 15 to 20)
#    0.000    0.500    2.500    6.000    0.000    6.500 
#    0.000    1.250    0.000    0.000    0.000    0.000 
#    0.000    0.000    0.000    0.000    0.000    0.000 
#
# Total GULP energy -89163.608333 kJ/mol
# GULP energy per Si atom -5572.725521 kJ/mol
# Density = 2.272698 g / cm^3
# Si number density = 22.778829 Si / 1000 Ang^3
#
#
#
# Elastic Constant Matrix: (Units=GPa)
#
#
# Indices 1 2 3 4 5 6 
#
# 1 188.6677 58.0769 2.0895 0.0000 0.0000 0.0000
# 2 58.0769 96.7778 34.3775 0.0000 -0.0001 0.0000
# 3 2.0895 34.3775 99.0789 0.0000 0.0000 0.0000
# 4 0.0000 0.0000 0.0000 21.6594 0.0000 0.0000
# 5 0.0000 -0.0001 0.0000 0.0000 -66.7510 0.0000
# 6 0.0000 0.0000 0.0000 0.0000 0.0000 50.3365
#
#
#
# Elastic Compliance Matrix: (Units=1/GPa)
#
#
# Indices 1 2 3 4 5 6 
#
# 1 0.006673 -0.004510 0.001424 0.000000 0.000000 0.000000
# 2 -0.004510 0.014834 -0.005052 0.000000 0.000000 0.000000
# 3 0.001424 -0.005052 0.011816 0.000000 0.000000 0.000000
# 4 0.000000 0.000000 0.000000 0.046169 0.000000 0.000000
# 5 0.000000 0.000000 0.000000 0.000000 -0.014981 0.000000
# 6 0.000000 0.000000 0.000000 0.000000 0.000000 0.019866
#
#
# Mechanical properties :
#
#
# Convention : Reuss Voigt Hill
#
# Bulk Modulus (GPa) = 58.66191 63.73468 61.19829
# Shear Modulus (GPa) = 47.02070 20.38099 33.70084
#
# Velocity S-wave (km/s) = 4.54831 2.99446 3.85057
# Velocity P-wave (km/s) = 7.30695 6.32426 6.83329
#
# Compressibility (1/GPa) = 0.01704684
#
# Stress axis : x y z
#
# Youngs Moduli (GPa) = 149.85816 67.41167 84.63242
#
# Poissons Ratio (x) = 0.30405 -0.12054
# Poissons Ratio (y) = 0.67592 0.42756
# Poissons Ratio (z) = -0.21344 0.34056
#
# Static dielectric constant tensor:
#      x y z
#    x 1.817150 0.000000 0.000000 
#    y 0.000000 2.207570 0.000000 
#    z 0.000000 0.000000 1.914460 
# 
# From -- ./inp_files/5789.got.cif
#   From: 2010.05.17/outbox.cif.g08.bks.cpg/sg23_3_cif.got.tgz:5789.got - 2010.06.04 12:02:01.
