data_PCOD9331019
_publ_section_title
;
Structure prediction by ZEFSAII (Michael W. Deem and Ramdas Pophale) SiO2 
 PCOD9331019
Probable space group: I 2 2 2
;
_chemical_formula_sum "Si O2"
_cell_formula_units_Z 48
_cell_length_a 8.910209
_cell_length_b 12.476537
_cell_length_c 19.930855
_cell_angle_alpha 90.000000
_cell_angle_beta 90.000000
_cell_angle_gamma 90.000000
_cell_volume 2215.684296
_symmetry_space_group_name_H-M "I 2 2 2"
_symmetry_group_IT_number 23
_symmetry_cell_setting 'orthorhombic'
loop_
_space_group_symop_operation_xyz
x,y,z
-x,-y,z
x,-y,-z
-x,y,-z
1/2+x,1/2+y,1/2+z
1/2-x,1/2-y,1/2+z
1/2+x,1/2-y,1/2-z
1/2-x,1/2+y,1/2-z
loop_
_atom_site_type_symbol
_atom_site_label
_atom_site_fract_x
_atom_site_fract_y
_atom_site_fract_z
Si Si1 0.342494 0.281393 0.689808
Si Si2 0.326834 0.647919 0.161333
Si Si3 0.814939 0.384259 0.527042
Si Si4 0.359877 0.641233 0.644736
Si Si5 0.164774 0.546961 0.770171
Si Si6 0.571552 0.772486 0.098259
O O1 0.374675 0.307730 0.766539
O O2 0.463660 0.354180 0.654406
O O3 0.363036 0.154172 0.686805
O O4 0.176920 0.300660 0.660756
O O5 0.199292 0.734623 0.142262
O O6 0.255081 0.534627 0.181192
O O7 0.473356 0.664985 0.113815
O O8 0.846979 0.500000 0.500000
O O9 0.667520 0.397400 0.570013
O O10 0.830494 0.292174 0.469751
O O11 0.938783 0.355712 0.583643
O O12 0.269059 0.580729 0.705378
O O13 0.000000 0.500000 0.751412
#
# Coordination Sequence:
#
# PCOD9331019 Si02
#       6
#     8   8   8   8   8   8
#     4  11  23  39  61 103 136 175 216 298 347 397
#     4  10  21  39  63  97 132 179 222 274 346 416
#     4  10  23  43  67  95 128 193 228 271 347 432
#     4  10  23  39  65 100 141 167 233 277 343 419
#     4  11  23  39  70  98 138 185 224 282 351 418
#     4  10  22  39  64  89 135 170 223 279 335 411
#
# _framework density 21.663736
#
# number of rings (size 3 to 8) (size 9 to 14) (size 15 to 20)
#    0.000    1.667    1.667    3.000    7.000    4.667 
#    0.000    1.667    0.000   17.000    0.000    0.000 
#    0.000    0.000    0.000    0.000    0.000    0.000 
#
# Total GULP energy -133623.564058 kJ/mol
# GULP energy per Si atom -5567.648502 kJ/mol
# Density = 2.161443 g / cm^3
# Si number density = 21.663736 Si / 1000 Ang^3
#
#
#
# Elastic Constant Matrix: (Units=GPa)
#
#
# Indices 1 2 3 4 5 6 
#
# 1 85.0738 36.3785 32.9628 0.0000 0.0000 0.0000
# 2 36.3785 98.4650 37.4968 0.0000 0.0000 0.0000
# 3 32.9628 37.4968 70.1851 0.0000 0.0000 0.0000
# 4 0.0000 0.0000 0.0000 26.2509 0.0000 0.0000
# 5 0.0000 0.0000 0.0000 0.0000 15.1447 0.0000
# 6 0.0000 0.0000 0.0000 0.0000 0.0000 24.6692
#
#
#
# Elastic Compliance Matrix: (Units=1/GPa)
#
#
# Indices 1 2 3 4 5 6 
#
# 1 0.015361 -0.003676 -0.005250 0.000000 0.000000 0.000000
# 2 -0.003676 0.013629 -0.005555 0.000000 0.000000 0.000000
# 3 -0.005250 -0.005555 0.019682 0.000000 0.000000 0.000000
# 4 0.000000 0.000000 0.000000 0.038094 0.000000 0.000000
# 5 0.000000 0.000000 0.000000 0.000000 0.066030 0.000000
# 6 0.000000 0.000000 0.000000 0.000000 0.000000 0.040536
#
#
# Mechanical properties :
#
#
# Convention : Reuss Voigt Hill
#
# Bulk Modulus (GPa) = 50.73795 51.93333 51.33564
# Shear Modulus (GPa) = 21.84698 23.00534 22.42616
#
# Velocity S-wave (km/s) = 3.17907 3.26226 3.22093
# Velocity P-wave (km/s) = 6.07839 6.18177 6.13030
#
# Compressibility (1/GPa) = 0.01970912
#
# Stress axis : x y z
#
# Youngs Moduli (GPa) = 65.10176 73.37072 50.80811
#
# Poissons Ratio (x) = 0.26968 0.26677
# Poissons Ratio (y) = 0.23929 0.28226
# Poissons Ratio (z) = 0.34181 0.40760
#
# Static dielectric constant tensor:
#      x y z
#    x 1.900490 0.000000 0.000000 
#    y 0.000000 1.891930 0.000000 
#    z 0.000000 0.000000 1.921950 
# 
# From -- ./inp_files/27987.got.cif
#   From: 2010.05.17/outbox.cif.g08.bks.cpg/sg23_14_cif.got.tgz:27987.got - 2010.06.04 12:02:01.
