data_PCOD9331296
_publ_section_title
;
Structure prediction by ZEFSAII (Michael W. Deem and Ramdas Pophale) SiO2 
 PCOD9331296
Probable space group: I 2 2 2
;
_chemical_formula_sum "Si O2"
_cell_formula_units_Z 40
_cell_length_a 17.189205
_cell_length_b 18.244344
_cell_length_c 5.522459
_cell_angle_alpha 90.000000
_cell_angle_beta 90.000000
_cell_angle_gamma 90.000000
_cell_volume 1731.875002
_symmetry_space_group_name_H-M "I 2 2 2"
_symmetry_group_IT_number 23
_symmetry_cell_setting 'orthorhombic'
loop_
_space_group_symop_operation_xyz
x,y,z
-x,-y,z
x,-y,-z
-x,y,-z
1/2+x,1/2+y,1/2+z
1/2-x,1/2-y,1/2+z
1/2+x,1/2-y,1/2-z
1/2-x,1/2+y,1/2-z
loop_
_atom_site_type_symbol
_atom_site_label
_atom_site_fract_x
_atom_site_fract_y
_atom_site_fract_z
Si Si1 0.118191 0.080674 0.548085
Si Si2 0.349666 0.178270 0.988670
Si Si3 0.068454 0.779739 0.191387
Si Si4 0.691226 0.319016 0.313985
Si Si5 0.709903 0.044733 0.254573
O O1 0.064876 0.141803 0.674388
O O2 0.141445 0.114397 0.289495
O O3 0.200908 0.071986 0.693909
O O4 0.087116 0.000000 0.500000
O O5 0.422979 0.209131 0.135163
O O6 0.279148 0.155402 0.163741
O O7 0.317378 0.253197 0.873445
O O8 0.348186 0.113721 0.792077
O O9 0.149976 0.787848 0.050858
O O10 0.000000 0.771061 0.000000
O O11 0.689449 0.000000 0.500000
O O12 0.708201 0.000000 0.000000
#
# Coordination Sequence:
#
# PCOD9331296 Si02
#       5
#     8   8   8   8   8
#     4  10  22  37  61  91 138 186 238 302 355 426
#     4  11  20  37  65  97 133 184 234 312 357 429
#     4  11  25  40  62  95 140 190 248 294 362 437
#     4  11  20  37  65  92 132 179 245 291 363 416
#     4  11  23  37  66 106 138 174 237 305 373 431
#
# _framework density 23.096353000000001
#
# number of rings (size 3 to 8) (size 9 to 14) (size 15 to 20)
#    0.000    1.200    4.000    3.600    2.800    3.200 
#    0.000    3.000    0.000    0.000    0.000    4.200 
#    0.000    0.000    0.000    0.000    0.000    0.000 
#
# Total GULP energy -111698.733201 kJ/mol
# GULP energy per Si atom -5584.936660 kJ/mol
# Density = 2.304378 g / cm^3
# Si number density = 23.096353 Si / 1000 Ang^3
#
#
#
# Elastic Constant Matrix: (Units=GPa)
#
#
# Indices 1 2 3 4 5 6 
#
# 1 86.9728 54.3780 47.7316 0.0000 0.0000 0.0000
# 2 54.3780 144.0002 61.1929 0.0000 0.0000 0.0000
# 3 47.7316 61.1929 117.7811 0.0000 0.0000 0.0000
# 4 0.0000 0.0000 0.0000 40.0235 0.0000 0.0000
# 5 0.0000 0.0000 0.0000 0.0000 48.4987 0.0000
# 6 0.0000 0.0000 0.0000 0.0000 0.0000 -0.2438
#
#
#
# Elastic Compliance Matrix: (Units=1/GPa)
#
#
# Indices 1 2 3 4 5 6 
#
# 1 0.016714 -0.004406 -0.004484 0.000000 0.000000 0.000000
# 2 -0.004406 0.010073 -0.003448 0.000000 0.000000 0.000000
# 3 -0.004484 -0.003448 0.012099 0.000000 0.000000 0.000000
# 4 0.000000 0.000000 0.000000 0.024985 0.000000 0.000000
# 5 0.000000 0.000000 0.000000 0.000000 0.020619 0.000000
# 6 0.000000 0.000000 0.000000 0.000000 0.000000 -4.102192
#
#
# Mechanical properties :
#
#
# Convention : Reuss Voigt Hill
#
# Bulk Modulus (GPa) = 70.37492 75.03991 72.70741
# Shear Modulus (GPa) = -1.25367 30.01914 14.38273
#
# Velocity S-wave (km/s) = -0.73755 3.60909 2.49816
# Velocity P-wave (km/s) = 5.45994 7.06597 6.31423
#
# Compressibility (1/GPa) = 0.01420961
#
# Stress axis : x y z
#
# Youngs Moduli (GPa) = 59.83184 99.27048 82.65111
#
# Poissons Ratio (x) = 0.43737 0.37062
# Poissons Ratio (y) = 0.26361 0.28499
# Poissons Ratio (z) = 0.26830 0.34230
#
# Static dielectric constant tensor:
#      x y z
#    x 1.905890 0.000000 0.000000 
#    y 0.000000 1.903390 0.000000 
#    z 0.000000 0.000000 1.945210 
# 
# From -- ./inp_files/3098.got.cif
#   From: 2010.05.17/outbox.cif.g08.bks.cpg/sg23_2_cif.got.tgz:3098.got - 2010.06.04 12:02:01.
