data_PCOD9331859
_publ_section_title
;
Structure prediction by ZEFSAII (Michael W. Deem and Ramdas Pophale) SiO2 
 PCOD9331859
Probable space group: I 2 2 2
;
_chemical_formula_sum "Si O2"
_cell_formula_units_Z 48
_cell_length_a 14.314795
_cell_length_b 8.089892
_cell_length_c 17.745316
_cell_angle_alpha 90.000000
_cell_angle_beta 90.000000
_cell_angle_gamma 90.000000
_cell_volume 2054.998902
_symmetry_space_group_name_H-M "I 2 2 2"
_symmetry_group_IT_number 23
_symmetry_cell_setting 'orthorhombic'
loop_
_space_group_symop_operation_xyz
x,y,z
-x,-y,z
x,-y,-z
-x,y,-z
1/2+x,1/2+y,1/2+z
1/2-x,1/2-y,1/2+z
1/2+x,1/2-y,1/2-z
1/2-x,1/2+y,1/2-z
loop_
_atom_site_type_symbol
_atom_site_label
_atom_site_fract_x
_atom_site_fract_y
_atom_site_fract_z
Si Si1 0.605610 0.695305 0.484417
Si Si2 0.271402 0.994371 0.731222
Si Si3 0.974222 0.804272 0.583725
Si Si4 0.771962 0.880952 0.568536
Si Si5 0.620122 0.322406 0.692829
Si Si6 0.047145 0.673703 0.736414
O O1 0.607654 0.500000 0.500000
O O2 0.500000 0.756755 0.500000
O O3 0.681743 0.785173 0.536895
O O4 0.626668 0.711927 0.395786
O O5 0.248584 0.016260 0.643337
O O6 0.178813 0.018269 0.781183
O O7 0.344569 0.140187 0.751252
O O8 0.327058 0.823815 0.738292
O O9 0.863210 0.776300 0.589605
O O10 0.000000 0.751605 0.500000
O O11 0.027974 0.710887 0.649277
O O12 0.000000 0.000000 0.591998
O O13 0.802094 0.000000 0.500000
O O14 0.511998 0.309430 0.717319
O O15 0.000000 0.500000 0.759564
#
# Coordination Sequence:
#
# PCOD9331859 Si02
#       6
#     8   8   8   8   8   8
#     4  11  27  47  70 102 141 183 233 294 352 412
#     4  11  25  41  70  98 136 181 228 284 348 410
#     4  11  24  42  65  98 136 177 233 286 348 415
#     4  12  23  46  71 100 136 184 234 283 350 424
#     4  11  24  45  66 102 134 177 231 280 345 415
#     4  10  24  43  63  95 137 176 224 281 344 412
#
# _framework density 23.357676999999999
#
# number of rings (size 3 to 8) (size 9 to 14) (size 15 to 20)
#    0.000    1.000    5.000    1.000    7.000    0.667 
#    3.000    0.000    0.000    0.000    0.000    0.000 
#    0.000    0.000    0.000    0.000    0.000    0.000 
#
# Total GULP energy -134292.657763 kJ/mol
# GULP energy per Si atom -5595.527407 kJ/mol
# Density = 2.330451 g / cm^3
# Si number density = 23.357677 Si / 1000 Ang^3
#
#
#
# Elastic Constant Matrix: (Units=GPa)
#
#
# Indices 1 2 3 4 5 6 
#
# 1 136.3813 20.9682 23.9345 0.0000 0.0000 0.0000
# 2 20.9682 38.8201 -19.5185 0.0000 0.0000 0.0000
# 3 23.9345 -19.5185 101.5147 0.0000 0.0000 0.0000
# 4 0.0000 0.0000 0.0000 121.4579 0.0000 0.0000
# 5 0.0000 0.0000 0.0000 0.0000 21.0992 0.0000
# 6 0.0000 0.0000 0.0000 0.0000 0.0000 20.8722
#
#
#
# Elastic Compliance Matrix: (Units=1/GPa)
#
#
# Indices 1 2 3 4 5 6 
#
# 1 0.008921 -0.006505 -0.003354 0.000000 0.000000 0.000000
# 2 -0.006505 0.033260 0.007929 0.000000 0.000000 0.000000
# 3 -0.003354 0.007929 0.012166 0.000000 0.000000 0.000000
# 4 0.000000 0.000000 0.000000 0.008233 0.000000 0.000000
# 5 0.000000 0.000000 0.000000 0.000000 0.047395 0.000000
# 6 0.000000 0.000000 0.000000 0.000000 0.000000 0.047911
#
#
# Mechanical properties :
#
#
# Convention : Reuss Voigt Hill
#
# Bulk Modulus (GPa) = 19.80736 36.38717 28.09726
# Shear Modulus (GPa) = 27.99928 49.44133 38.72030
#
# Velocity S-wave (km/s) = 3.46601 4.60576 4.07592
# Velocity P-wave (km/s) = 4.95137 6.62541 5.84859
#
# Compressibility (1/GPa) = 0.05048628
#
# Stress axis : x y z
#
# Youngs Moduli (GPa) = 112.09302 30.06612 82.19573
#
# Poissons Ratio (x) = 0.19558 0.27569
# Poissons Ratio (y) = 0.72918 -0.65171
# Poissons Ratio (z) = 0.37597 -0.23839
#
# Static dielectric constant tensor:
#      x y z
#    x 1.899590 0.000000 0.000000 
#    y 0.000000 1.927860 0.000000 
#    z 0.000000 0.000000 1.808270 
# 
# From -- ./inp_files/9950.got.cif
#   From: 2010.05.17/outbox.cif.g08.bks.cpg/sg23_5_cif.got.tgz:9950.got - 2010.06.04 12:02:01.
