data_PCOD9331863
_publ_section_title
;
Structure prediction by ZEFSAII (Michael W. Deem and Ramdas Pophale) SiO2 
 PCOD9331863
Probable space group: I 2 2 2
;
_chemical_formula_sum "Si O2"
_cell_formula_units_Z 56
_cell_length_a 9.312632
_cell_length_b 12.601643
_cell_length_c 21.042881
_cell_angle_alpha 90.000000
_cell_angle_beta 90.000000
_cell_angle_gamma 90.000000
_cell_volume 2469.476018
_symmetry_space_group_name_H-M "I 2 2 2"
_symmetry_group_IT_number 23
_symmetry_cell_setting 'orthorhombic'
loop_
_space_group_symop_operation_xyz
x,y,z
-x,-y,z
x,-y,-z
-x,y,-z
1/2+x,1/2+y,1/2+z
1/2-x,1/2-y,1/2+z
1/2+x,1/2-y,1/2-z
1/2-x,1/2+y,1/2-z
loop_
_atom_site_type_symbol
_atom_site_label
_atom_site_fract_x
_atom_site_fract_y
_atom_site_fract_z
Si Si1 0.385801 0.416825 0.184832
Si Si2 0.659947 0.045860 0.766129
Si Si3 0.247384 0.440087 0.588404
Si Si4 0.088600 0.761543 0.205653
Si Si5 0.000000 0.680113 0.000000
Si Si6 0.000000 0.644215 0.500000
Si Si7 0.839065 0.706370 0.111723
Si Si8 0.724845 0.677712 0.423474
O O1 0.500000 0.500000 0.158085
O O2 0.255797 0.481876 0.216471
O O3 0.452116 0.353088 0.244662
O O4 0.313774 0.336366 0.135089
O O5 0.716978 0.040350 0.837563
O O6 0.658074 0.167648 0.745449
O O7 0.500000 0.000000 0.765526
O O8 0.103051 0.417435 0.549045
O O9 0.329421 0.327824 0.585921
O O10 0.309431 0.552789 0.565440
O O11 0.199286 0.800110 0.151161
O O12 0.949523 0.715573 0.169882
O O13 0.112902 0.748352 0.040666
O O14 0.903922 0.631125 0.056378
O O15 0.882406 0.699203 0.453321
#
# Coordination Sequence:
#
# PCOD9331863 Si02
#       8
#     8   8   8   8   4   4   8   8
#     4  12  26  44  71 109 142 179 238 295 354 419
#     4  12  24  44  69 100 145 188 228 283 361 425
#     4  12  23  39  66 101 147 180 230 285 350 429
#     4  11  25  42  70 103 141 188 233 282 361 426
#     4  10  24  43  68 101 140 194 236 283 345 424
#     4  12  25  40  58 104 145 192 225 284 360 426
#     4  11  24  44  69 101 142 186 234 292 348 427
#     4  11  23  41  65  99 144 186 236 283 352 424
#
# _framework density 22.676874999999999
#
# number of rings (size 3 to 8) (size 9 to 14) (size 15 to 20)
#    0.000    0.571    5.714    3.000    0.000    3.429 
#    0.000    0.000    0.000    6.857    0.000    0.000 
#    0.000    0.000    0.000    0.000    0.000    0.000 
#
# Total GULP energy -156492.825744 kJ/mol
# GULP energy per Si atom -5589.029491 kJ/mol
# Density = 2.262526 g / cm^3
# Si number density = 22.676875 Si / 1000 Ang^3
#
#
#
# Elastic Constant Matrix: (Units=GPa)
#
#
# Indices 1 2 3 4 5 6 
#
# 1 53.6365 -4.6126 15.2455 0.0000 0.0000 0.0000
# 2 -4.6126 42.5937 4.4799 0.0000 0.0000 0.0000
# 3 15.2455 4.4799 71.1543 0.0000 0.0000 0.0000
# 4 0.0000 0.0000 0.0000 13.4414 0.0000 0.0000
# 5 0.0000 0.0000 0.0000 0.0000 37.3639 0.0000
# 6 0.0000 0.0000 0.0000 0.0000 0.0000 33.7973
#
#
#
# Elastic Compliance Matrix: (Units=1/GPa)
#
#
# Indices 1 2 3 4 5 6 
#
# 1 0.020147 0.002653 -0.004484 0.000000 0.000000 0.000000
# 2 0.002653 0.023984 -0.002079 0.000000 0.000000 0.000000
# 3 -0.004484 -0.002079 0.015145 0.000000 0.000000 0.000000
# 4 0.000000 0.000000 0.000000 0.074397 0.000000 0.000000
# 5 0.000000 0.000000 0.000000 0.000000 0.026764 0.000000
# 6 0.000000 0.000000 0.000000 0.000000 0.000000 0.029588
#
#
# Mechanical properties :
#
#
# Convention : Reuss Voigt Hill
#
# Bulk Modulus (GPa) = 19.43334 21.95669 20.69501
# Shear Modulus (GPa) = 23.25634 27.07197 25.16416
#
# Velocity S-wave (km/s) = 3.20590 3.45891 3.33481
# Velocity P-wave (km/s) = 4.72144 5.06513 4.89630
#
# Compressibility (1/GPa) = 0.05145796
#
# Stress axis : x y z
#
# Youngs Moduli (GPa) = 49.63614 41.69519 66.02623
#
# Poissons Ratio (x) = -0.11063 0.29604
# Poissons Ratio (y) = -0.13170 0.13724
# Poissons Ratio (z) = 0.22255 0.08666
#
# Static dielectric constant tensor:
#      x y z
#    x 1.926160 0.000000 0.000000 
#    y 0.000000 1.892980 0.000000 
#    z 0.000000 0.000000 1.897700 
# 
# From -- ./inp_files/26282.got.cif
#   From: 2010.05.17/outbox.cif.g08.bks.cpg/sg23_14_cif.got.tgz:26282.got - 2010.06.04 12:02:01.
