data_PCOD9331660
_publ_section_title
;
Structure prediction by ZEFSAII (Michael W. Deem and Ramdas Pophale) SiO2 
 PCOD9331660
Probable space group: I 2 2 2
;
_chemical_formula_sum "Si O2"
_cell_formula_units_Z 34
_cell_length_a 9.291386
_cell_length_b 8.035638
_cell_length_c 19.475879
_cell_angle_alpha 90.000000
_cell_angle_beta 90.000000
_cell_angle_gamma 90.000000
_cell_volume 1454.112254
_symmetry_space_group_name_H-M "I 2 2 2"
_symmetry_group_IT_number 23
_symmetry_cell_setting 'orthorhombic'
loop_
_space_group_symop_operation_xyz
x,y,z
-x,-y,z
x,-y,-z
-x,y,-z
1/2+x,1/2+y,1/2+z
1/2-x,1/2-y,1/2+z
1/2+x,1/2-y,1/2-z
1/2-x,1/2+y,1/2-z
loop_
_atom_site_type_symbol
_atom_site_label
_atom_site_fract_x
_atom_site_fract_y
_atom_site_fract_z
Si Si1 0.703801 0.679184 0.666173
Si Si2 0.333140 0.166095 0.877523
Si Si3 0.000000 0.500000 0.500000
Si Si4 0.826217 0.986706 0.581236
Si Si5 0.965030 0.683048 0.755450
O O1 0.741113 0.496108 0.640287
O O2 0.542073 0.695519 0.692232
O O3 0.801757 0.712529 0.734233
O O4 0.755848 0.821206 0.612993
O O5 0.260841 0.345273 0.885990
O O6 0.453831 0.183983 0.818540
O O7 0.408908 0.117994 0.949666
O O8 0.805697 0.000000 0.500000
O O9 0.000000 0.000000 0.594489
O O10 0.000000 0.500000 0.782953
#
# Coordination Sequence:
#
# PCOD9331660 Si02
#       5
#     8   8   2   8   8
#     4  11  23  42  61  94 137 173 218 279 329 405
#     4  11  21  36  60  95 129 169 216 277 342 381
#     4  12  16  40  62  88 142 150 218 304 324 368
#     4  11  21  34  62  98 128 169 227 285 338 381
#     4  10  23  41  62  96 134 175 225 269 335 398
#
# _framework density 23.381962999999999
#
# number of rings (size 3 to 8) (size 9 to 14) (size 15 to 20)
#    0.000    1.176    5.882    2.824    6.588    0.000 
#    0.000    0.000    0.000    0.706    0.000    1.647 
#    0.000    0.000    0.000    0.000    0.000    0.000 
#
# Total GULP energy -95173.206686 kJ/mol
# GULP energy per Si atom -5598.423923 kJ/mol
# Density = 2.332874 g / cm^3
# Si number density = 23.381963 Si / 1000 Ang^3
#
#
#
# Elastic Constant Matrix: (Units=GPa)
#
#
# Indices 1 2 3 4 5 6 
#
# 1 66.9597 34.4073 37.6228 0.0000 0.0000 0.0000
# 2 34.4073 175.4519 50.4553 0.0000 0.0000 0.0000
# 3 37.6228 50.4553 102.7944 0.0000 0.0000 0.0000
# 4 0.0000 0.0000 0.0000 36.9268 0.0000 0.0000
# 5 0.0000 0.0000 0.0000 0.0000 24.3924 0.0000
# 6 0.0000 0.0000 0.0000 0.0000 0.0000 27.3859
#
#
#
# Elastic Compliance Matrix: (Units=1/GPa)
#
#
# Indices 1 2 3 4 5 6 
#
# 1 0.019416 -0.002054 -0.006098 0.000000 0.000000 0.000000
# 2 -0.002054 0.006854 -0.002612 0.000000 0.000000 0.000000
# 3 -0.006098 -0.002612 0.013242 0.000000 0.000000 0.000000
# 4 0.000000 0.000000 0.000000 0.027081 0.000000 0.000000
# 5 0.000000 0.000000 0.000000 0.000000 0.040996 0.000000
# 6 0.000000 0.000000 0.000000 0.000000 0.000000 0.036515
#
#
# Mechanical properties :
#
#
# Convention : Reuss Voigt Hill
#
# Bulk Modulus (GPa) = 55.60720 65.57519 60.59119
# Shear Modulus (GPa) = 29.13290 32.58907 30.86098
#
# Velocity S-wave (km/s) = 3.53364 3.73737 3.63693
# Velocity P-wave (km/s) = 6.36259 6.83594 6.60351
#
# Compressibility (1/GPa) = 0.01798328
#
# Stress axis : x y z
#
# Youngs Moduli (GPa) = 51.50341 145.90932 75.51573
#
# Poissons Ratio (x) = 0.29969 0.46051
# Poissons Ratio (y) = 0.10579 0.19726
# Poissons Ratio (z) = 0.31408 0.38115
#
# Static dielectric constant tensor:
#      x y z
#    x 1.907150 0.000000 0.000000 
#    y 0.000000 1.936470 0.000000 
#    z 0.000000 0.000000 1.860190 
# 
# From -- ./inp_files/11683.got.cif
#   From: 2010.05.17/outbox.cif.g08.bks.cpg/sg23_6_cif.got.tgz:11683.got - 2010.06.04 12:02:01.
