data_PCOD9331986
_publ_section_title
;
Structure prediction by ZEFSAII (Michael W. Deem and Ramdas Pophale) SiO2 
 PCOD9331986
Probable space group: I 2 2 2
;
_chemical_formula_sum "Si O2"
_cell_formula_units_Z 34
_cell_length_a 12.946679
_cell_length_b 5.794415
_cell_length_c 18.029614
_cell_angle_alpha 90.000000
_cell_angle_beta 90.000000
_cell_angle_gamma 90.000000
_cell_volume 1352.553354
_symmetry_space_group_name_H-M "I 2 2 2"
_symmetry_group_IT_number 23
_symmetry_cell_setting 'orthorhombic'
loop_
_space_group_symop_operation_xyz
x,y,z
-x,-y,z
x,-y,-z
-x,y,-z
1/2+x,1/2+y,1/2+z
1/2-x,1/2-y,1/2+z
1/2+x,1/2-y,1/2-z
1/2-x,1/2+y,1/2-z
loop_
_atom_site_type_symbol
_atom_site_label
_atom_site_fract_x
_atom_site_fract_y
_atom_site_fract_z
Si Si1 0.382285 0.087505 0.792953
Si Si2 0.500000 0.500000 0.000000
Si Si3 0.767062 0.563784 0.854630
Si Si4 0.323697 0.186490 0.063583
Si Si5 0.037951 0.244439 0.914078
O O1 0.343684 0.335160 0.826531
O O2 0.500000 0.000000 0.783704
O O3 0.320822 0.044336 0.717370
O O4 0.340327 0.924681 0.857274
O O5 0.426398 0.328832 0.044323
O O6 0.761053 0.378435 0.920636
O O7 0.841915 0.754563 0.890644
O O8 0.305922 0.000000 0.000000
O O9 0.000000 0.500000 0.888098
O O10 0.000000 0.000000 0.880636
O O11 0.000000 0.238337 0.000000
#
# Coordination Sequence:
#
# PCOD9331986 Si02
#       5
#     8   2   8   8   8
#     4  12  27  50  80 121 169 227 288 356 441 524
#     4  12  26  52  76 122 162 220 280 368 416 518
#     4  12  27  50  82 121 172 227 288 362 436 537
#     4  12  26  49  81 119 165 220 289 359 436 523
#     4  10  25  49  79 120 169 225 286 353 428 518
#
# _framework density 25.137640000000001
#
# number of rings (size 3 to 8) (size 9 to 14) (size 15 to 20)
#    0.000    0.471    2.353    5.294    3.294    7.529 
#    6.353    0.000    0.000    0.000    0.000    0.000 
#    0.000    0.000    0.000    0.000    0.000    0.000 
#
# Total GULP energy -95022.886358 kJ/mol
# GULP energy per Si atom -5589.581550 kJ/mol
# Density = 2.508043 g / cm^3
# Si number density = 25.137640 Si / 1000 Ang^3
#
#
#
# Elastic Constant Matrix: (Units=GPa)
#
#
# Indices 1 2 3 4 5 6 
#
# 1 130.2414 70.5181 56.2003 0.0000 0.0000 0.0000
# 2 70.5181 173.5658 56.0003 0.0000 0.0000 0.0000
# 3 56.2003 56.0003 150.1573 0.0000 0.0000 0.0000
# 4 0.0000 0.0000 0.0000 39.3689 0.0000 0.0000
# 5 0.0000 0.0000 0.0000 0.0000 51.5006 0.0000
# 6 0.0000 0.0000 0.0000 0.0000 0.0000 6.8063
#
#
#
# Elastic Compliance Matrix: (Units=1/GPa)
#
#
# Indices 1 2 3 4 5 6 
#
# 1 0.010739 -0.003486 -0.002719 0.000000 0.000000 0.000000
# 2 -0.003486 0.007681 -0.001560 0.000000 0.000000 0.000000
# 3 -0.002719 -0.001560 0.008259 0.000000 0.000000 0.000000
# 4 0.000000 0.000000 0.000000 0.025401 0.000000 0.000000
# 5 0.000000 0.000000 0.000000 0.000000 0.019417 0.000000
# 6 0.000000 0.000000 0.000000 0.000000 0.000000 0.146922
#
#
# Mechanical properties :
#
#
# Convention : Reuss Voigt Hill
#
# Bulk Modulus (GPa) = 89.69344 91.04467 90.36905
# Shear Modulus (GPa) = 21.03799 37.61821 29.32810
#
# Velocity S-wave (km/s) = 2.89608 3.87265 3.41941
# Velocity P-wave (km/s) = 6.85138 7.50291 7.18453
#
# Compressibility (1/GPa) = 0.01114909
#
# Stress axis : x y z
#
# Youngs Moduli (GPa) = 93.12077 130.19091 121.07653
#
# Poissons Ratio (x) = 0.45380 0.32924
# Poissons Ratio (y) = 0.32459 0.18888
# Poissons Ratio (z) = 0.25322 0.20310
#
# Static dielectric constant tensor:
#      x y z
#    x 2.063120 0.000000 0.000000 
#    y 0.000000 2.155950 0.000000 
#    z 0.000000 0.000000 1.934460 
# 
# From -- ./inp_files/24566.got.cif
#   From: 2010.05.17/outbox.cif.g08.bks.cpg/sg23_13_cif.got.tgz:24566.got - 2010.06.04 12:02:01.
