data_PCOD9331196
_publ_section_title
;
Structure prediction by ZEFSAII (Michael W. Deem and Ramdas Pophale) SiO2 
 PCOD9331196
Probable space group: I 2 2 2
;
_chemical_formula_sum "Si O2"
_cell_formula_units_Z 58
_cell_length_a 26.727607
_cell_length_b 9.558837
_cell_length_c 10.849260
_cell_angle_alpha 90.000000
_cell_angle_beta 90.000000
_cell_angle_gamma 90.000000
_cell_volume 2771.821441
_symmetry_space_group_name_H-M "I 2 2 2"
_symmetry_group_IT_number 23
_symmetry_cell_setting 'orthorhombic'
loop_
_space_group_symop_operation_xyz
x,y,z
-x,-y,z
x,-y,-z
-x,y,-z
1/2+x,1/2+y,1/2+z
1/2-x,1/2-y,1/2+z
1/2+x,1/2-y,1/2-z
1/2-x,1/2+y,1/2-z
loop_
_atom_site_type_symbol
_atom_site_label
_atom_site_fract_x
_atom_site_fract_y
_atom_site_fract_z
Si Si1 0.366176 0.652164 0.977892
Si Si2 0.430677 0.798453 0.653879
Si Si3 0.500000 0.000000 0.500000
Si Si4 0.845984 0.833730 0.020075
Si Si5 0.662293 0.095970 0.808653
Si Si6 0.659368 0.769831 0.802031
Si Si7 0.238405 0.364014 0.908875
Si Si8 0.974555 0.148779 0.375658
O O1 0.335858 0.775335 0.906514
O O2 0.415957 0.625964 0.902085
O O3 0.342396 0.500000 0.000000
O O4 0.383250 0.707101 0.110928
O O5 0.395004 0.708973 0.560883
O O6 0.389433 0.876254 0.737284
O O7 0.470598 0.726537 0.745702
O O8 0.463119 0.905035 0.577815
O O9 0.849218 0.776779 0.161361
O O10 0.796284 0.755001 0.970794
O O11 0.839747 0.000000 0.000000
O O12 0.708400 0.102364 0.715483
O O13 0.661443 0.932373 0.839189
O O14 0.709083 0.696884 0.859658
O O15 0.238383 0.500000 0.000000
O O16 0.000000 0.213768 0.500000
O O17 0.000000 0.000000 0.360210
#
# Coordination Sequence:
#
# PCOD9331196 Si02
#       8
#     8   8   2   8   8   8   8   8
#     4  11  24  41  69 104 137 180 236 299 364 424
#     4  10  25  45  68 101 146 183 242 297 373 435
#     4  12  24  44  76 100 132 200 246 298 360 460
#     4  11  27  43  69 105 147 194 237 306 369 440
#     4  10  24  47  67  97 149 189 231 309 365 441
#     4  12  26  40  73  98 144 195 244 294 365 440
#     4  11  25  46  69  99 142 190 251 298 362 430
#     4  10  21  42  71 100 137 182 226 301 369 427
#
# _framework density 20.924869999999999
#
# number of rings (size 3 to 8) (size 9 to 14) (size 15 to 20)
#    0.000    1.241    2.759    1.655   11.586    3.310 
#    0.000    1.724    0.000    0.000    0.000    0.000 
#    0.000    0.000    0.000    0.000    0.000    0.000 
#
# Total GULP energy -161578.976717 kJ/mol
# GULP energy per Si atom -5571.688852 kJ/mol
# Density = 2.087724 g / cm^3
# Si number density = 20.924870 Si / 1000 Ang^3
#
#
#
# Elastic Constant Matrix: (Units=GPa)
#
#
# Indices 1 2 3 4 5 6 
#
# 1 66.1803 47.6985 34.3718 0.0000 0.0000 0.0000
# 2 47.6985 183.2554 79.4707 0.0000 0.0000 0.0000
# 3 34.3718 79.4707 140.0367 0.0000 0.0000 0.0000
# 4 0.0000 0.0000 0.0000 41.8646 0.0000 0.0000
# 5 0.0000 0.0000 0.0000 0.0000 4.5859 0.0000
# 6 0.0000 0.0000 0.0000 0.0000 0.0000 -86.7390
#
#
#
# Elastic Compliance Matrix: (Units=1/GPa)
#
#
# Indices 1 2 3 4 5 6 
#
# 1 0.019234 -0.003925 -0.002494 0.000000 0.000000 0.000000
# 2 -0.003925 0.008039 -0.003599 0.000000 0.000000 0.000000
# 3 -0.002494 -0.003599 0.009795 0.000000 0.000000 0.000000
# 4 0.000000 0.000000 0.000000 0.023887 0.000000 0.000000
# 5 0.000000 0.000000 0.000000 0.000000 0.218057 0.000000
# 6 0.000000 0.000000 0.000000 0.000000 0.000000 -0.011529
#
#
# Mechanical properties :
#
#
# Convention : Reuss Voigt Hill
#
# Bulk Modulus (GPa) = 58.70640 79.17271 68.93955
# Shear Modulus (GPa) = 17.05340 7.13773 12.09557
#
# Velocity S-wave (km/s) = 2.85789 1.84893 2.40687
# Velocity P-wave (km/s) = 6.24554 6.51743 6.38293
#
# Compressibility (1/GPa) = 0.01703392
#
# Stress axis : x y z
#
# Youngs Moduli (GPa) = 51.99074 124.39120 102.08910
#
# Poissons Ratio (x) = 0.48823 0.25457
# Poissons Ratio (y) = 0.20406 0.36740
# Poissons Ratio (z) = 0.12964 0.44766
#
# Static dielectric constant tensor:
#      x y z
#    x 1.776150 0.000000 0.000000 
#    y 0.000000 0.473420 0.000000 
#    z 0.000000 0.000000 2.454510 
# 
# From -- ./inp_files/18624.got.cif
#   From: 2010.05.17/outbox.cif.g08.bks.cpg/sg23_10_cif.got.tgz:18624.got - 2010.06.04 12:02:01.
