data_PCOD9331556
_publ_section_title
;
Structure prediction by ZEFSAII (Michael W. Deem and Ramdas Pophale) SiO2 
 PCOD9331556
Probable space group: I 2 2 2
;
_chemical_formula_sum "Si O2"
_cell_formula_units_Z 32
_cell_length_a 12.668518
_cell_length_b 19.443324
_cell_length_c 5.243174
_cell_angle_alpha 90.000000
_cell_angle_beta 90.000000
_cell_angle_gamma 90.000000
_cell_volume 1291.488658
_symmetry_space_group_name_H-M "I 2 2 2"
_symmetry_group_IT_number 23
_symmetry_cell_setting 'orthorhombic'
loop_
_space_group_symop_operation_xyz
x,y,z
-x,-y,z
x,-y,-z
-x,y,-z
1/2+x,1/2+y,1/2+z
1/2-x,1/2-y,1/2+z
1/2+x,1/2-y,1/2-z
1/2-x,1/2+y,1/2-z
loop_
_atom_site_type_symbol
_atom_site_label
_atom_site_fract_x
_atom_site_fract_y
_atom_site_fract_z
Si Si1 0.500000 0.139744 0.000000
Si Si2 0.000000 0.725107 0.000000
Si Si3 0.773514 0.580353 0.444589
Si Si4 0.048972 0.078327 0.741772
Si Si5 0.789389 0.786277 0.212559
O O1 0.463972 0.180643 0.253685
O O2 0.604575 0.100196 0.103582
O O3 0.095356 0.767536 0.885620
O O4 0.772881 0.500000 0.500000
O O5 0.675239 0.584868 0.246342
O O6 0.737862 0.634000 0.664455
O O7 0.000000 0.115041 0.500000
O O8 0.000000 0.000000 0.737540
O O9 0.000000 0.104985 0.000000
O O10 0.723772 0.742152 0.998401
#
# Coordination Sequence:
#
# PCOD9331556 Si02
#       5
#     4   4   8   8   8
#     4  12  27  50  78 114 163 212 266 322 409 492
#     4  12  24  52  76 112 156 210 274 320 392 486
#     4  12  26  50  81 120 160 205 269 336 409 477
#     4  10  22  44  67 104 155 194 246 318 385 466
#     4  12  26  50  78 108 153 212 261 321 386 477
#
# _framework density 24.777607
#
# number of rings (size 3 to 8) (size 9 to 14) (size 15 to 20)
#    0.000    0.500    7.500    0.375    1.750    4.000 
#    2.250    1.250    2.750    0.000    0.000    0.000 
#    0.000    0.000    0.000    0.000    0.000    0.000 
#
# Total GULP energy -89365.184247 kJ/mol
# GULP energy per Si atom -5585.324015 kJ/mol
# Density = 2.472121 g / cm^3
# Si number density = 24.777607 Si / 1000 Ang^3
#
#
#
# Elastic Constant Matrix: (Units=GPa)
#
#
# Indices 1 2 3 4 5 6 
#
# 1 219.3795 31.7659 37.1773 0.0000 0.0000 0.0000
# 2 31.7659 140.3947 35.5223 0.0000 0.0000 0.0000
# 3 37.1773 35.5223 136.3659 0.0000 0.0001 0.0000
# 4 0.0000 0.0000 0.0000 7.3408 0.0000 0.0000
# 5 0.0000 0.0000 0.0001 0.0000 88.2881 0.0000
# 6 0.0000 0.0000 0.0000 0.0000 0.0000 32.0060
#
#
#
# Elastic Compliance Matrix: (Units=1/GPa)
#
#
# Indices 1 2 3 4 5 6 
#
# 1 0.004866 -0.000819 -0.001113 0.000000 0.000000 0.000000
# 2 -0.000819 0.007763 -0.001799 0.000000 0.000000 0.000000
# 3 -0.001113 -0.001799 0.008105 0.000000 0.000000 0.000000
# 4 0.000000 0.000000 0.000000 0.136225 0.000000 0.000000
# 5 0.000000 0.000000 0.000000 0.000000 0.011327 0.000000
# 6 0.000000 0.000000 0.000000 0.000000 0.000000 0.031244
#
#
# Mechanical properties :
#
#
# Convention : Reuss Voigt Hill
#
# Bulk Modulus (GPa) = 75.34887 78.34125 76.84506
# Shear Modulus (GPa) = 23.65006 51.63862 37.64434
#
# Velocity S-wave (km/s) = 3.09284 4.57013 3.90203
# Velocity P-wave (km/s) = 6.57497 7.71586 7.16815
#
# Compressibility (1/GPa) = 0.01327160
#
# Stress axis : x y z
#
# Youngs Moduli (GPa) = 205.52583 128.81118 123.37642
#
# Poissons Ratio (x) = 0.10553 0.13733
# Poissons Ratio (y) = 0.16838 0.22195
# Poissons Ratio (z) = 0.22877 0.23172
#
# Static dielectric constant tensor:
#      x y z
#    x 2.076900 0.000000 0.000000 
#    y 0.000000 1.531480 0.000000 
#    z 0.000000 0.000000 2.023110 
# 
# From -- ./inp_files/1368.got.cif
#   From: 2010.05.17/outbox.cif.g08.bks.cpg/sg23_1_cif.got.tgz:1368.got - 2010.06.04 12:02:01.
