data_PCOD9331914
_publ_section_title
;
Structure prediction by ZEFSAII (Michael W. Deem and Ramdas Pophale) SiO2 
 PCOD9331914
Probable space group: I 2 2 2
;
_chemical_formula_sum "Si O2"
_cell_formula_units_Z 30
_cell_length_a 20.240670
_cell_length_b 5.326716
_cell_length_c 11.211165
_cell_angle_alpha 90.000000
_cell_angle_beta 90.000000
_cell_angle_gamma 90.000000
_cell_volume 1208.746337
_symmetry_space_group_name_H-M "I 2 2 2"
_symmetry_group_IT_number 23
_symmetry_cell_setting 'orthorhombic'
loop_
_space_group_symop_operation_xyz
x,y,z
-x,-y,z
x,-y,-z
-x,y,-z
1/2+x,1/2+y,1/2+z
1/2-x,1/2-y,1/2+z
1/2+x,1/2-y,1/2-z
1/2-x,1/2+y,1/2-z
loop_
_atom_site_type_symbol
_atom_site_label
_atom_site_fract_x
_atom_site_fract_y
_atom_site_fract_z
Si Si1 0.075654 0.246846 0.448497
Si Si2 0.723747 0.148697 0.690459
Si Si3 0.801155 0.000000 0.000000
Si Si4 0.000000 0.500000 0.000000
Si Si5 0.394833 0.800228 0.325204
O O1 0.106465 0.500000 0.500000
O O2 0.080165 0.234113 0.306225
O O3 0.000000 0.248299 0.500000
O O4 0.108433 0.000000 0.500000
O O5 0.739630 0.386203 0.777073
O O6 0.847085 0.110394 0.895200
O O7 0.761683 0.775054 0.937508
O O8 0.852248 0.443241 0.188621
O O9 0.045043 0.338430 0.086536
#
# Coordination Sequence:
#
# PCOD9331914 Si02
#       5
#     8   8   4   2   8
#     4  10  24  46  71 105 163 214 269 325 399 508
#     4  12  27  53  83 115 166 215 281 356 416 511
#     4  12  26  53  82 126 162 221 290 354 436 504
#     4  12  24  46  86 136 178 216 274 368 434 536
#     4  12  27  49  84 124 170 222 280 349 443 508
#
# _framework density 24.819102999999998
#
# number of rings (size 3 to 8) (size 9 to 14) (size 15 to 20)
#    0.000    0.533    5.333    1.600    3.733    4.800 
#    2.400    5.333    0.000    0.000    0.000    0.000 
#    0.000    0.000    0.000    0.000    0.000    0.000 
#
# Total GULP energy -83891.405638 kJ/mol
# GULP energy per Si atom -5592.760376 kJ/mol
# Density = 2.476261 g / cm^3
# Si number density = 24.819103 Si / 1000 Ang^3
#
#
#
# Elastic Constant Matrix: (Units=GPa)
#
#
# Indices 1 2 3 4 5 6 
#
# 1 89.8960 50.6487 58.3807 0.0000 0.0000 0.0000
# 2 50.6487 217.0707 90.8572 0.0000 0.0000 0.0000
# 3 58.3807 90.8572 244.8834 0.0000 0.0000 0.0000
# 4 0.0000 0.0000 0.0000 45.4609 0.0000 0.0000
# 5 0.0000 0.0000 0.0000 0.0000 18.4456 0.0000
# 6 0.0000 0.0000 0.0000 0.0000 0.0000 29.9385
#
#
#
# Elastic Compliance Matrix: (Units=1/GPa)
#
#
# Indices 1 2 3 4 5 6 
#
# 1 0.014007 -0.002214 -0.002518 0.000000 0.000000 0.000000
# 2 -0.002214 0.005804 -0.001625 0.000000 0.000000 0.000000
# 3 -0.002518 -0.001625 0.005287 0.000000 0.000000 0.000000
# 4 0.000000 0.000000 0.000000 0.021997 0.000000 0.000000
# 5 0.000000 0.000000 0.000000 0.000000 0.054214 0.000000
# 6 0.000000 0.000000 0.000000 0.000000 0.000000 0.033402
#
#
# Mechanical properties :
#
#
# Convention : Reuss Voigt Hill
#
# Bulk Modulus (GPa) = 80.75971 105.73593 93.24782
# Shear Modulus (GPa) = 32.99202 42.23323 37.61262
#
# Velocity S-wave (km/s) = 3.64991 4.12957 3.89713
# Velocity P-wave (km/s) = 7.09736 8.08906 7.60938
#
# Compressibility (1/GPa) = 0.01238241
#
# Stress axis : x y z
#
# Youngs Moduli (GPa) = 71.39513 172.30061 189.14840
#
# Poissons Ratio (x) = 0.38153 0.47620
# Poissons Ratio (y) = 0.15809 0.30745
# Poissons Ratio (z) = 0.17975 0.28006
#
# Static dielectric constant tensor:
#      x y z
#    x 2.012450 0.000000 0.000000 
#    y 0.000000 1.919310 0.000000 
#    z 0.000000 0.000000 1.895820 
# 
# From -- ./inp_files/17760.got.cif
#   From: 2010.05.17/outbox.cif.g08.bks.cpg/sg23_9_cif.got.tgz:17760.got - 2010.06.04 12:02:01.
