data_PCOD9331387
_publ_section_title
;
Structure prediction by ZEFSAII (Michael W. Deem and Ramdas Pophale) SiO2 
 PCOD9331387
Probable space group: I 2 2 2
;
_chemical_formula_sum "Si O2"
_cell_formula_units_Z 60
_cell_length_a 26.047290
_cell_length_b 8.632254
_cell_length_c 15.271456
_cell_angle_alpha 90.000000
_cell_angle_beta 90.000000
_cell_angle_gamma 90.000000
_cell_volume 3433.738369
_symmetry_space_group_name_H-M "I 2 2 2"
_symmetry_group_IT_number 23
_symmetry_cell_setting 'orthorhombic'
loop_
_space_group_symop_operation_xyz
x,y,z
-x,-y,z
x,-y,-z
-x,y,-z
1/2+x,1/2+y,1/2+z
1/2-x,1/2-y,1/2+z
1/2+x,1/2-y,1/2-z
1/2-x,1/2+y,1/2-z
loop_
_atom_site_type_symbol
_atom_site_label
_atom_site_fract_x
_atom_site_fract_y
_atom_site_fract_z
Si Si1 0.695149 0.541380 0.408949
Si Si2 0.298930 0.774750 0.060300
Si Si3 0.816360 0.194631 0.267786
Si Si4 0.758402 0.500000 0.000000
Si Si5 0.644987 0.040923 0.209847
Si Si6 0.057194 0.432042 0.592404
Si Si7 0.205172 0.302346 0.153620
Si Si8 0.621002 0.355817 0.932052
O O1 0.666586 0.500000 0.500000
O O2 0.748589 0.619224 0.439909
O O3 0.672933 0.652042 0.333211
O O4 0.703871 0.380083 0.359607
O O5 0.332134 0.842062 0.138039
O O6 0.276427 0.601613 0.065213
O O7 0.335506 0.757959 0.975602
O O8 0.825261 0.377655 0.282717
O O9 0.756747 0.159953 0.290459
O O10 0.854164 0.109020 0.337043
O O11 0.789070 0.382528 0.940369
O O12 0.655316 0.129842 0.299464
O O13 0.589467 0.994776 0.174265
O O14 0.077123 0.500000 0.500000
O O15 0.070074 0.248578 0.582962
O O16 0.000000 0.500000 0.599755
O O17 0.614161 0.500000 0.000000
#
# Coordination Sequence:
#
# PCOD9331387 Si02
#       8
#     8   8   8   4   8   8   8   8
#     4  12  24  35  51  74 122 162 198 235 279 332
#     4  12  20  33  51  80 117 158 193 231 283 338
#     4  11  21  35  50  80 114 154 199 229 281 340
#     4  12  24  32  52  74 128 154 198 232 278 340
#     4  11  24  35  57  79 112 153 198 238 283 346
#     4  10  22  40  61  82 111 148 190 243 295 342
#     4  12  22  33  51  78 111 161 190 241 273 345
#     4  11  22  35  60  86 115 152 194 239 288 352
#
# _framework density 17.473666000000001
#
# number of rings (size 3 to 8) (size 9 to 14) (size 15 to 20)
#    0.000    0.667    7.333    0.800    5.600    0.000 
#    0.000    1.333    1.467    0.000    0.000    0.467 
#    0.000    4.267    0.000    0.000    0.000    0.000 
#
# Total GULP energy -167203.969267 kJ/mol
# GULP energy per Si atom -5573.465642 kJ/mol
# Density = 1.743390 g / cm^3
# Si number density = 17.473666 Si / 1000 Ang^3
#
#
#
# Elastic Constant Matrix: (Units=GPa)
#
#
# Indices 1 2 3 4 5 6 
#
# 1 61.9633 32.9007 26.9005 0.0000 0.0000 0.0000
# 2 32.9007 99.1326 30.4814 0.0000 0.0000 0.0000
# 3 26.9005 30.4814 96.0078 0.0000 0.0000 0.0000
# 4 0.0000 0.0000 0.0000 37.7434 0.0000 0.0000
# 5 0.0000 0.0000 0.0000 0.0000 20.2493 0.0000
# 6 0.0000 0.0000 0.0000 0.0000 0.0000 14.2841
#
#
#
# Elastic Compliance Matrix: (Units=1/GPa)
#
#
# Indices 1 2 3 4 5 6 
#
# 1 0.020924 -0.005698 -0.004054 0.000000 0.000000 0.000000
# 2 -0.005698 0.012730 -0.002445 0.000000 0.000000 0.000000
# 3 -0.004054 -0.002445 0.012328 0.000000 0.000000 0.000000
# 4 0.000000 0.000000 0.000000 0.026495 0.000000 0.000000
# 5 0.000000 0.000000 0.000000 0.000000 0.049384 0.000000
# 6 0.000000 0.000000 0.000000 0.000000 0.000000 0.070008
#
#
# Mechanical properties :
#
#
# Convention : Reuss Voigt Hill
#
# Bulk Modulus (GPa) = 46.32079 48.62990 47.47534
# Shear Modulus (GPa) = 22.37544 25.57676 23.97610
#
# Velocity S-wave (km/s) = 3.58232 3.83003 3.70824
# Velocity P-wave (km/s) = 6.60887 6.88837 6.75007
#
# Compressibility (1/GPa) = 0.02158858
#
# Stress axis : x y z
#
# Youngs Moduli (GPa) = 47.79236 78.55195 81.11645
#
# Poissons Ratio (x) = 0.44758 0.32882
# Poissons Ratio (y) = 0.27232 0.19835
# Poissons Ratio (z) = 0.19373 0.19208
#
# Static dielectric constant tensor:
#      x y z
#    x 1.593080 0.000000 0.000000 
#    y 0.000000 1.653080 0.000000 
#    z 0.000000 0.000000 1.662420 
# 
# From -- ./inp_files/22762.got.cif
#   From: 2010.05.17/outbox.cif.g08.bks.cpg/sg23_12_cif.got.tgz:22762.got - 2010.06.04 12:02:01.
