data_PCOD9331184
_publ_section_title
;
Structure prediction by ZEFSAII (Michael W. Deem and Ramdas Pophale) SiO2 
 PCOD9331184
Probable space group: I 2 2 2
;
_chemical_formula_sum "Si O2"
_cell_formula_units_Z 44
_cell_length_a 16.924019
_cell_length_b 8.386219
_cell_length_c 14.629390
_cell_angle_alpha 90.000000
_cell_angle_beta 90.000000
_cell_angle_gamma 90.000000
_cell_volume 2076.327813
_symmetry_space_group_name_H-M "I 2 2 2"
_symmetry_group_IT_number 23
_symmetry_cell_setting 'orthorhombic'
loop_
_space_group_symop_operation_xyz
x,y,z
-x,-y,z
x,-y,-z
-x,y,-z
1/2+x,1/2+y,1/2+z
1/2-x,1/2-y,1/2+z
1/2+x,1/2-y,1/2-z
1/2-x,1/2+y,1/2-z
loop_
_atom_site_type_symbol
_atom_site_label
_atom_site_fract_x
_atom_site_fract_y
_atom_site_fract_z
Si Si1 0.913184 0.008869 0.246878
Si Si2 0.061889 0.781903 0.416307
Si Si3 0.779632 0.114428 0.132927
Si Si4 0.253261 0.233596 0.051549
Si Si5 0.000000 0.500000 0.282541
Si Si6 0.152542 0.343152 0.212678
O O1 0.923122 0.065875 0.350931
O O2 0.858646 0.130914 0.191851
O O3 0.874431 0.837302 0.235104
O O4 0.000000 0.000000 0.205384
O O5 0.151301 0.739435 0.446780
O O6 0.026539 0.644949 0.349433
O O7 0.000000 0.801408 0.500000
O O8 0.708637 0.113276 0.203732
O O9 0.773889 0.940706 0.086706
O O10 0.771930 0.244021 0.053695
O O11 0.206049 0.347789 0.121248
O O12 0.073894 0.447772 0.220603
#
# Coordination Sequence:
#
# PCOD9331184 Si02
#       6
#     8   8   8   8   4   8
#     4  11  24  43  64  98 135 174 216 282 340 390
#     4  12  24  40  65 101 138 170 224 281 337 401
#     4  10  21  42  67  95 134 174 225 272 332 410
#     4  10  22  40  68 100 125 180 229 267 335 405
#     4  12  23  40  68  97 134 176 220 277 337 398
#     4  11  22  42  69  98 135 180 222 278 340 395
#
# _framework density 21.191258999999999
#
# number of rings (size 3 to 8) (size 9 to 14) (size 15 to 20)
#    0.000    1.091    5.455    1.364    2.545    0.364 
#    0.000    7.273    0.000    1.091    0.000    0.000 
#    0.000    0.000    0.000    0.000    0.000    0.000 
#
# Total GULP energy -122871.564943 kJ/mol
# GULP energy per Si atom -5585.071134 kJ/mol
# Density = 2.114303 g / cm^3
# Si number density = 21.191259 Si / 1000 Ang^3
#
#
#
# Elastic Constant Matrix: (Units=GPa)
#
#
# Indices 1 2 3 4 5 6 
#
# 1 122.8050 18.3801 78.4496 0.0000 0.0000 0.0000
# 2 18.3801 24.6755 12.4312 0.0000 0.0000 0.0000
# 3 78.4496 12.4312 125.2373 0.0000 0.0000 0.0000
# 4 0.0000 0.0000 0.0000 24.4112 0.0000 0.0000
# 5 0.0000 0.0000 0.0000 0.0000 53.2710 0.0000
# 6 0.0000 0.0000 0.0000 0.0000 0.0000 30.3508
#
#
#
# Elastic Compliance Matrix: (Units=1/GPa)
#
#
# Indices 1 2 3 4 5 6 
#
# 1 0.014519 -0.006561 -0.008443 0.000000 0.000000 0.000000
# 2 -0.006561 0.045624 -0.000419 0.000000 0.000000 0.000000
# 3 -0.008443 -0.000419 0.013315 0.000000 0.000000 0.000000
# 4 0.000000 0.000000 0.000000 0.040965 0.000000 0.000000
# 5 0.000000 0.000000 0.000000 0.000000 0.018772 0.000000
# 6 0.000000 0.000000 0.000000 0.000000 0.000000 0.032948
#
#
# Mechanical properties :
#
#
# Convention : Reuss Voigt Hill
#
# Bulk Modulus (GPa) = 23.46767 54.58218 39.02493
# Shear Modulus (GPa) = 23.67499 32.50373 28.08936
#
# Velocity S-wave (km/s) = 3.34609 3.92066 3.64471
# Velocity P-wave (km/s) = 5.10163 6.80502 6.01394
#
# Compressibility (1/GPa) = 0.04261181
#
# Stress axis : x y z
#
# Youngs Moduli (GPa) = 68.87652 21.91827 75.10082
#
# Poissons Ratio (x) = 0.14380 0.63411
# Poissons Ratio (y) = 0.45189 0.03146
# Poissons Ratio (z) = 0.58155 0.00918
#
# Static dielectric constant tensor:
#      x y z
#    x 1.885200 0.000000 0.000000 
#    y 0.000000 1.813390 0.000000 
#    z 0.000000 0.000000 1.774000 
# 
# From -- ./inp_files/21973.got.cif
#   From: 2010.05.17/outbox.cif.g08.bks.cpg/sg23_11_cif.got.tgz:21973.got - 2010.06.04 12:02:01.
