data_PCOD9331310
_publ_section_title
;
Structure prediction by ZEFSAII (Michael W. Deem and Ramdas Pophale) SiO2 
 PCOD9331310
Probable space group: I 2 2 2
;
_chemical_formula_sum "Si O2"
_cell_formula_units_Z 34
_cell_length_a 18.872785
_cell_length_b 5.135601
_cell_length_c 17.246835
_cell_angle_alpha 90.000000
_cell_angle_beta 90.000000
_cell_angle_gamma 90.000000
_cell_volume 1671.616602
_symmetry_space_group_name_H-M "I 2 2 2"
_symmetry_group_IT_number 23
_symmetry_cell_setting 'orthorhombic'
loop_
_space_group_symop_operation_xyz
x,y,z
-x,-y,z
x,-y,-z
-x,y,-z
1/2+x,1/2+y,1/2+z
1/2-x,1/2-y,1/2+z
1/2+x,1/2-y,1/2-z
1/2-x,1/2+y,1/2-z
loop_
_atom_site_type_symbol
_atom_site_label
_atom_site_fract_x
_atom_site_fract_y
_atom_site_fract_z
Si Si1 0.173598 0.500000 0.000000
Si Si2 0.343949 0.490141 0.259489
Si Si3 0.812989 0.485302 0.669553
Si Si4 0.500000 0.500000 0.500000
Si Si5 0.725533 0.000000 0.000000
Si Si6 0.929997 0.657177 0.126552
O O1 0.223193 0.751355 0.001268
O O2 0.130437 0.512328 0.082739
O O3 0.270202 0.504010 0.307214
O O4 0.351497 0.199895 0.224671
O O5 0.402186 0.630761 0.312605
O O6 0.335363 0.693001 0.189312
O O7 0.819270 0.528139 0.578500
O O8 0.453468 0.321047 0.552780
O O9 0.000000 0.500000 0.152958
#
# Coordination Sequence:
#
# PCOD9331310 Si02
#       6
#     4   8   8   2   4   8
#     4  12  23  36  58  92 126 166 211 254 298 370
#     4  10  23  38  56  84 126 161 205 254 310 369
#     4  10  22  38  58  86 117 165 205 256 315 368
#     4  12  24  40  56  90 128 172 218 250 290 398
#     4  12  23  38  67  88 121 168 209 262 320 370
#     4  12  25  37  58  87 131 177 212 250 304 378
#
# _framework density 20.339592
#
# number of rings (size 3 to 8) (size 9 to 14) (size 15 to 20)
#    0.000    0.941    4.706    2.118    9.882    0.000 
#    0.000    0.000    0.000    0.000    0.000    0.824 
#    0.000    0.000    0.000    0.000    0.000    0.000 
#
# Total GULP energy -94963.190473 kJ/mol
# GULP energy per Si atom -5586.070028 kJ/mol
# Density = 2.029330 g / cm^3
# Si number density = 20.339592 Si / 1000 Ang^3
#
#
#
# Elastic Constant Matrix: (Units=GPa)
#
#
# Indices 1 2 3 4 5 6 
#
# 1 25.4243 -4.0971 -1.1948 0.0000 0.0000 0.0000
# 2 -4.0971 73.9089 -16.8811 0.0000 0.0000 0.0000
# 3 -1.1948 -16.8811 89.8984 0.0000 0.0000 0.0000
# 4 0.0000 0.0000 0.0000 41.0594 0.0000 0.0000
# 5 0.0000 0.0000 0.0000 0.0000 25.1746 0.0000
# 6 0.0000 0.0000 0.0000 0.0000 0.0000 24.2271
#
#
#
# Elastic Compliance Matrix: (Units=1/GPa)
#
#
# Indices 1 2 3 4 5 6 
#
# 1 0.039770 0.002430 0.000985 0.000000 0.000000 0.000000
# 2 0.002430 0.014285 0.002715 0.000000 0.000000 0.000000
# 3 0.000985 0.002715 0.011647 0.000000 0.000000 0.000000
# 4 0.000000 0.000000 0.000000 0.024355 0.000000 0.000000
# 5 0.000000 0.000000 0.000000 0.000000 0.039723 0.000000
# 6 0.000000 0.000000 0.000000 0.000000 0.000000 0.041276
#
#
# Mechanical properties :
#
#
# Convention : Reuss Voigt Hill
#
# Bulk Modulus (GPa) = 12.82711 16.09839 14.46275
# Shear Modulus (GPa) = 27.05866 32.18586 29.62226
#
# Velocity S-wave (km/s) = 3.65135 3.98229 3.82040
# Velocity P-wave (km/s) = 4.90883 5.39229 5.15623
#
# Compressibility (1/GPa) = 0.07795987
#
# Stress axis : x y z
#
# Youngs Moduli (GPa) = 25.14439 70.00393 85.86254
#
# Poissons Ratio (x) = -0.17008 -0.08456
# Poissons Ratio (y) = -0.06109 -0.23309
# Poissons Ratio (z) = -0.02476 -0.19004
#
# Static dielectric constant tensor:
#      x y z
#    x 1.770770 0.000000 0.000000 
#    y 0.000000 1.535160 0.000000 
#    z 0.000000 0.000000 1.744650 
# 
# From -- ./inp_files/2225.got.cif
#   From: 2010.05.17/outbox.cif.g08.bks.cpg/sg23_2_cif.got.tgz:2225.got - 2010.06.04 12:02:01.
