data_PCOD9331872
_publ_section_title
;
Structure prediction by ZEFSAII (Michael W. Deem and Ramdas Pophale) SiO2 
 PCOD9331872
Probable space group: I 2 2 2
;
_chemical_formula_sum "Si O2"
_cell_formula_units_Z 38
_cell_length_a 23.361219
_cell_length_b 10.502285
_cell_length_c 7.449056
_cell_angle_alpha 90.000000
_cell_angle_beta 90.000000
_cell_angle_gamma 90.000000
_cell_volume 1827.597433
_symmetry_space_group_name_H-M "I 2 2 2"
_symmetry_group_IT_number 23
_symmetry_cell_setting 'orthorhombic'
loop_
_space_group_symop_operation_xyz
x,y,z
-x,-y,z
x,-y,-z
-x,y,-z
1/2+x,1/2+y,1/2+z
1/2-x,1/2-y,1/2+z
1/2+x,1/2-y,1/2-z
1/2-x,1/2+y,1/2-z
loop_
_atom_site_type_symbol
_atom_site_label
_atom_site_fract_x
_atom_site_fract_y
_atom_site_fract_z
Si Si1 0.308252 0.536730 0.305474
Si Si2 0.128652 0.297901 0.109167
Si Si3 0.408508 0.333444 0.270008
Si Si4 0.000000 0.000000 0.000000
Si Si5 0.566775 0.140246 0.040206
Si Si6 0.720414 0.000000 0.500000
O O1 0.282521 0.500000 0.500000
O O2 0.344882 0.663308 0.333096
O O3 0.353354 0.425318 0.257568
O O4 0.261309 0.555810 0.153706
O O5 0.081430 0.333747 0.253948
O O6 0.102945 0.278331 0.912787
O O7 0.179780 0.397482 0.093697
O O8 0.459507 0.415894 0.365707
O O9 0.415352 0.260994 0.081838
O O10 0.500000 0.131173 0.000000
O O11 0.592848 0.000000 0.000000
#
# Coordination Sequence:
#
# PCOD9331872 Si02
#       6
#     8   8   8   2   8   4
#     4  10  24  44  64 101 136 175 235 295 340 415
#     4  11  24  45  65 102 134 182 236 281 358 418
#     4  11  23  45  70  99 142 173 238 296 346 427
#     4  12  20  44  74 110 132 198 232 302 368 396
#     4  11  25  43  67 101 141 183 230 284 347 424
#     4  12  26  40  74  94 136 196 222 290 354 418
#
# _framework density 20.792325000000002
#
# number of rings (size 3 to 8) (size 9 to 14) (size 15 to 20)
#    0.000    1.053    3.158    3.789    5.895    2.526 
#    0.000    2.105    0.000    0.000    0.000    0.000 
#    0.000    0.000    0.000    0.000    0.000    0.000 
#
# Total GULP energy -106123.601136 kJ/mol
# GULP energy per Si atom -5585.452691 kJ/mol
# Density = 2.074500 g / cm^3
# Si number density = 20.792325 Si / 1000 Ang^3
#
#
#
# Elastic Constant Matrix: (Units=GPa)
#
#
# Indices 1 2 3 4 5 6 
#
# 1 57.8495 -5.7896 24.7780 0.0000 0.0000 0.0000
# 2 -5.7896 56.8508 7.1099 0.0000 0.0000 0.0000
# 3 24.7780 7.1099 58.0313 0.0000 0.0000 0.0000
# 4 0.0000 0.0000 0.0000 11.7936 0.0000 0.0000
# 5 0.0000 0.0000 0.0000 0.0000 -52.7958 0.0000
# 6 0.0000 0.0000 0.0000 0.0000 0.0000 -29.2410
#
#
#
# Elastic Compliance Matrix: (Units=1/GPa)
#
#
# Indices 1 2 3 4 5 6 
#
# 1 0.021797 0.003436 -0.009728 0.000000 0.000000 0.000000
# 2 0.003436 0.018405 -0.003722 0.000000 0.000000 0.000000
# 3 -0.009728 -0.003722 0.021842 0.000000 0.000000 0.000000
# 4 0.000000 0.000000 0.000000 0.084792 0.000000 0.000000
# 5 0.000000 0.000000 0.000000 0.000000 -0.018941 0.000000
# 6 0.000000 0.000000 0.000000 0.000000 0.000000 -0.034199
#
#
# Mechanical properties :
#
#
# Convention : Reuss Voigt Hill
#
# Bulk Modulus (GPa) = 23.80019 24.99202 24.39611
# Shear Modulus (GPa) = 39.14545 -4.27310 17.43618
#
# Velocity S-wave (km/s) = 4.34370 -1.43513 2.89898
# Velocity P-wave (km/s) = 6.05215 3.04956 4.79209
#
# Compressibility (1/GPa) = 0.04201647
#
# Stress axis : x y z
#
# Youngs Moduli (GPa) = 45.87859 54.33206 45.78423
#
# Poissons Ratio (x) = -0.18670 0.44537
# Poissons Ratio (y) = -0.15765 0.17042
# Poissons Ratio (z) = 0.44629 0.20223
#
# Static dielectric constant tensor:
#      x y z
#    x 1.746290 0.000000 0.000000 
#    y 0.000000 1.775250 0.000000 
#    z 0.000000 0.000000 1.760360 
# 
# From -- ./inp_files/12447.got.cif
#   From: 2010.05.17/outbox.cif.g08.bks.cpg/sg23_7_cif.got.tgz:12447.got - 2010.06.04 12:02:01.
