data_PCOD9331344
_publ_section_title
;
Structure prediction by ZEFSAII (Michael W. Deem and Ramdas Pophale) SiO2 
 PCOD9331344
Probable space group: I 2 2 2
;
_chemical_formula_sum "Si O2"
_cell_formula_units_Z 44
_cell_length_a 14.073141
_cell_length_b 8.504569
_cell_length_c 16.654754
_cell_angle_alpha 90.000000
_cell_angle_beta 90.000000
_cell_angle_gamma 90.000000
_cell_volume 1993.340865
_symmetry_space_group_name_H-M "I 2 2 2"
_symmetry_group_IT_number 23
_symmetry_cell_setting 'orthorhombic'
loop_
_space_group_symop_operation_xyz
x,y,z
-x,-y,z
x,-y,-z
-x,y,-z
1/2+x,1/2+y,1/2+z
1/2-x,1/2-y,1/2+z
1/2+x,1/2-y,1/2-z
1/2-x,1/2+y,1/2-z
loop_
_atom_site_type_symbol
_atom_site_label
_atom_site_fract_x
_atom_site_fract_y
_atom_site_fract_z
Si Si1 0.733073 0.000000 0.000000
Si Si2 0.703801 0.664348 0.953276
Si Si3 0.000000 0.500000 0.214300
Si Si4 0.500000 0.500000 0.655292
Si Si5 0.656225 0.803532 0.785857
Si Si6 0.799486 0.070229 0.830440
Si Si7 0.572141 0.187103 0.571410
O O1 0.673519 0.162022 0.012247
O O2 0.800022 0.954349 0.074698
O O3 0.670439 0.682288 0.860076
O O4 0.818863 0.682320 0.955882
O O5 0.679295 0.500000 0.000000
O O6 0.051094 0.364945 0.265426
O O7 0.072022 0.577715 0.150689
O O8 0.403249 0.473497 0.703530
O O9 0.526896 0.349256 0.602980
O O10 0.708935 0.741333 0.705851
O O11 0.713954 0.959893 0.807133
O O12 0.500000 0.147355 0.500000
#
# Coordination Sequence:
#
# PCOD9331344 Si02
#       7
#     4   8   4   4   8   8   8
#     4  10  22  39  58 101 134 178 212 279 354 429
#     4  11  24  43  68 102 141 180 235 294 367 443
#     4  12  25  40  62  95 146 182 244 298 354 435
#     4  12  21  38  58  98 143 184 228 276 373 452
#     4  11  25  42  64 100 135 195 239 293 358 433
#     4  11  24  39  64  94 137 179 230 285 363 438
#     4  12  23  37  63 104 144 189 228 294 380 447
#
# _framework density 22.073497
#
# number of rings (size 3 to 8) (size 9 to 14) (size 15 to 20)
#    0.000    0.727    5.455    3.818    5.091    0.000 
#    0.000    0.000    0.000    8.727    0.000    0.000 
#    0.000    0.000    0.000    0.000    0.000    0.000 
#
# Total GULP energy -122530.686411 kJ/mol
# GULP energy per Si atom -5569.576655 kJ/mol
# Density = 2.202326 g / cm^3
# Si number density = 22.073497 Si / 1000 Ang^3
#
#
#
# Elastic Constant Matrix: (Units=GPa)
#
#
# Indices 1 2 3 4 5 6 
#
# 1 20.3630 -2.5327 35.4894 0.0000 0.0000 0.0000
# 2 -2.5327 126.6073 42.9325 0.0000 0.0000 0.0000
# 3 35.4894 42.9325 101.7101 0.0000 0.0000 0.0000
# 4 0.0000 0.0000 0.0000 23.4258 0.0000 0.0000
# 5 0.0000 0.0000 0.0000 0.0000 21.4728 0.0000
# 6 0.0000 0.0000 0.0000 0.0000 0.0000 9.5633
#
#
#
# Elastic Compliance Matrix: (Units=1/GPa)
#
#
# Indices 1 2 3 4 5 6 
#
# 1 0.194075 0.031330 -0.080942 0.000000 0.000000 0.000000
# 2 0.031330 0.014275 -0.016958 0.000000 0.000000 0.000000
# 3 -0.080942 -0.016958 0.045233 0.000000 0.000000 0.000000
# 4 0.000000 0.000000 0.000000 0.042688 0.000000 0.000000
# 5 0.000000 0.000000 0.000000 0.000000 0.046571 0.000000
# 6 0.000000 0.000000 0.000000 0.000000 0.000000 0.104566
#
#
# Mechanical properties :
#
#
# Convention : Reuss Voigt Hill
#
# Bulk Modulus (GPa) = 8.30269 44.49542 26.39906
# Shear Modulus (GPa) = 8.05548 22.41180 15.23364
#
# Velocity S-wave (km/s) = 1.91241 3.18988 2.62989
# Velocity P-wave (km/s) = 2.94040 5.81108 4.60514
#
# Compressibility (1/GPa) = 0.12044282
#
# Stress axis : x y z
#
# Youngs Moduli (GPa) = 5.15265 70.05028 22.10791
#
# Poissons Ratio (x) = -2.19466 1.78947
# Poissons Ratio (y) = -0.16143 0.37490
# Poissons Ratio (z) = 0.41707 1.18788
#
# Static dielectric constant tensor:
#      x y z
#    x 1.890110 0.000000 0.000000 
#    y 0.000000 2.076020 0.000000 
#    z 0.000000 0.000000 1.934900 
# 
# From -- ./inp_files/24707.got.cif
#   From: 2010.05.17/outbox.cif.g08.bks.cpg/sg23_13_cif.got.tgz:24707.got - 2010.06.04 12:02:01.
