data_PCOD9331585
_publ_section_title
;
Structure prediction by ZEFSAII (Michael W. Deem and Ramdas Pophale) SiO2 
 PCOD9331585
Probable space group: I 2 2 2
;
_chemical_formula_sum "Si O2"
_cell_formula_units_Z 38
_cell_length_a 11.319653
_cell_length_b 27.682580
_cell_length_c 5.329707
_cell_angle_alpha 90.000000
_cell_angle_beta 90.000000
_cell_angle_gamma 90.000000
_cell_volume 1670.102061
_symmetry_space_group_name_H-M "I 2 2 2"
_symmetry_group_IT_number 23
_symmetry_cell_setting 'orthorhombic'
loop_
_space_group_symop_operation_xyz
x,y,z
-x,-y,z
x,-y,-z
-x,y,-z
1/2+x,1/2+y,1/2+z
1/2-x,1/2-y,1/2+z
1/2+x,1/2-y,1/2-z
1/2-x,1/2+y,1/2-z
loop_
_atom_site_type_symbol
_atom_site_label
_atom_site_fract_x
_atom_site_fract_y
_atom_site_fract_z
Si Si1 0.000000 0.000000 0.500000
Si Si2 0.179805 0.950092 0.147679
Si Si3 0.000000 0.870398 0.000000
Si Si4 0.653451 0.697485 0.783267
Si Si5 0.312119 0.192125 0.781315
Si Si6 0.430481 0.092021 0.750315
O O1 0.084683 0.034803 0.649660
O O2 0.302707 0.932242 0.252598
O O3 0.112901 0.906155 0.011562
O O4 0.198460 0.000000 0.000000
O O5 0.037707 0.834339 0.775177
O O6 0.629630 0.754896 0.775857
O O7 0.740038 0.688546 0.542884
O O8 0.723608 0.687201 0.041707
O O9 0.405862 0.149313 0.763347
O O10 0.500000 0.079731 0.500000
O O11 0.500000 0.077087 0.000000
#
# Coordination Sequence:
#
# PCOD9331585 Si02
#       6
#     2   8   4   8   8   8
#     4  12  26  48  86 106 144 188 234 342 382 448
#     4  12  28  50  76 111 148 190 256 315 389 439
#     4  12  23  46  72 114 144 194 240 325 374 456
#     4  10  23  40  72 107 150 194 246 301 372 442
#     4  10  22  46  67 104 152 199 246 299 359 450
#     4  12  29  50  78 106 152 203 252 304 366 453
#
# _framework density 22.753102999999999
#
# number of rings (size 3 to 8) (size 9 to 14) (size 15 to 20)
#    0.000    0.842    4.211    1.263    7.368    1.263 
#    0.000    0.000    0.000    0.000    0.000    0.000 
#    0.000    0.000    0.000    0.000    0.000    0.000 
#
# Total GULP energy -106321.829836 kJ/mol
# GULP energy per Si atom -5595.885781 kJ/mol
# Density = 2.270132 g / cm^3
# Si number density = 22.753103 Si / 1000 Ang^3
#
#
#
# Elastic Constant Matrix: (Units=GPa)
#
#
# Indices 1 2 3 4 5 6 
#
# 1 140.1971 59.3913 59.7690 -0.1359 -0.0021 0.0467
# 2 59.3913 118.7035 27.2109 0.0217 -0.0178 0.0312
# 3 59.7690 27.2109 144.4110 -0.2338 -0.0652 0.1441
# 4 -0.1359 0.0217 -0.2338 67.8284 0.0816 0.0413
# 5 -0.0021 -0.0178 -0.0652 0.0816 38.8286 -0.0517
# 6 0.0467 0.0312 0.1441 0.0413 -0.0517 20.3111
#
#
#
# Elastic Compliance Matrix: (Units=1/GPa)
#
#
# Indices 1 2 3 4 5 6 
#
# 1 0.010519 -0.004458 -0.003514 0.000010 -0.000007 0.000008
# 2 -0.004458 0.010694 -0.000170 -0.000013 0.000004 -0.000005
# 3 -0.003514 -0.000170 0.008411 0.000022 0.000014 -0.000051
# 4 0.000010 -0.000013 0.000022 0.014743 -0.000031 -0.000030
# 5 -0.000007 0.000004 0.000014 -0.000031 0.025754 0.000066
# 6 0.000008 -0.000005 -0.000051 -0.000030 0.000066 0.049235
#
#
# Mechanical properties :
#
#
# Convention : Reuss Voigt Hill
#
# Bulk Modulus (GPa) = 74.95665 77.33935 76.14800
# Shear Modulus (GPa) = 35.69235 42.52299 39.10767
#
# Velocity S-wave (km/s) = 3.96495 4.32775 4.15032
# Velocity P-wave (km/s) = 7.34685 7.68356 7.51709
#
# Compressibility (1/GPa) = 0.01334104
#
# Stress axis : x y z
#
# Youngs Moduli (GPa) = 95.06438 93.51356 118.89062
#
# Poissons Ratio (x) = 0.41685 0.41775
# Poissons Ratio (y) = 0.42376 0.02022
# Poissons Ratio (z) = 0.33403 0.01590
#
# Static dielectric constant tensor:
#      x y z
#    x 1.817110 0.000010 0.000010 
#    y 0.000010 1.817970 -0.000040 
#    z 0.000010 -0.000040 1.837840 
# 
# From -- ./inp_files/1761.got.cif
#   From: 2010.05.17/outbox.cif.g08.bks.cpg/sg23_1_cif.got.tgz:1761.got - 2010.06.04 12:02:01.
