data_PCOD9331244
_publ_section_title
;
Structure prediction by ZEFSAII (Michael W. Deem and Ramdas Pophale) SiO2 
 PCOD9331244
Probable space group: I 2 2 2
;
_chemical_formula_sum "Si O2"
_cell_formula_units_Z 48
_cell_length_a 13.887332
_cell_length_b 13.532392
_cell_length_c 11.699670
_cell_angle_alpha 90.000000
_cell_angle_beta 90.000000
_cell_angle_gamma 90.000000
_cell_volume 2198.705183
_symmetry_space_group_name_H-M "I 2 2 2"
_symmetry_group_IT_number 23
_symmetry_cell_setting 'orthorhombic'
loop_
_space_group_symop_operation_xyz
x,y,z
-x,-y,z
x,-y,-z
-x,y,-z
1/2+x,1/2+y,1/2+z
1/2-x,1/2-y,1/2+z
1/2+x,1/2-y,1/2-z
1/2-x,1/2+y,1/2-z
loop_
_atom_site_type_symbol
_atom_site_label
_atom_site_fract_x
_atom_site_fract_y
_atom_site_fract_z
Si Si1 0.764720 0.000000 0.500000
Si Si2 0.000000 0.000000 0.000000
Si Si3 0.562118 0.132994 0.886751
Si Si4 0.000000 0.500000 0.000000
Si Si5 0.573375 0.638232 0.102954
Si Si6 0.279013 0.971387 0.735847
Si Si7 0.403859 0.140914 0.689612
Si Si8 0.918463 0.872362 0.195582
O O1 0.834429 0.926297 0.569974
O O2 0.706521 0.943662 0.399433
O O3 0.940106 0.071839 0.920325
O O4 0.597121 0.245664 0.901919
O O5 0.651381 0.072633 0.834060
O O6 0.484084 0.129838 0.786523
O O7 0.500000 0.106293 0.000000
O O8 0.942750 0.423675 0.916479
O O9 0.511193 0.620574 0.218803
O O10 0.500000 0.618419 0.000000
O O11 0.172993 0.929973 0.755219
O O12 0.307738 0.087205 0.735823
O O13 0.393887 0.257710 0.672952
#
# Coordination Sequence:
#
# PCOD9331244 Si02
#       8
#     4   2   8   2   8   8   8   8
#     4  12  24  40  74 112 140 182 241 313 360 440
#     4  12  26  52  66 102 150 204 234 298 376 438
#     4  10  24  46  70  98 142 196 234 293 373 443
#     4  12  20  48  72 102 144 198 246 308 352 448
#     4  10  21  45  72 100 143 192 238 295 379 441
#     4  12  25  43  71 110 140 183 249 304 353 440
#     4  11  25  46  70 104 148 196 241 299 380 436
#     4  11  26  46  73 108 148 197 246 304 371 446
#
# _framework density 21.831029999999998
#
# number of rings (size 3 to 8) (size 9 to 14) (size 15 to 20)
#    0.000    1.000    3.333    2.250    2.333    2.667 
#    0.000    0.000    0.000    0.000    0.000    0.000 
#    0.000    0.000    0.000    0.000    0.000    0.000 
#
# Total GULP energy -133892.590127 kJ/mol
# GULP energy per Si atom -5578.857922 kJ/mol
# Density = 2.178134 g / cm^3
# Si number density = 21.831030 Si / 1000 Ang^3
#
#
#
# Elastic Constant Matrix: (Units=GPa)
#
#
# Indices 1 2 3 4 5 6 
#
# 1 57.7216 40.8781 34.0730 0.0000 0.0000 0.0000
# 2 40.8781 165.3537 54.3806 0.0000 0.0000 0.0000
# 3 34.0730 54.3806 150.3119 0.0000 0.0000 0.0000
# 4 0.0000 0.0000 0.0000 36.3189 0.0000 0.0000
# 5 0.0000 0.0000 0.0000 0.0000 45.1602 0.0000
# 6 0.0000 0.0000 0.0000 0.0000 0.0000 18.5629
#
#
#
# Elastic Compliance Matrix: (Units=1/GPa)
#
#
# Indices 1 2 3 4 5 6 
#
# 1 0.022521 -0.004414 -0.003508 0.000000 0.000000 0.000000
# 2 -0.004414 0.007729 -0.001796 0.000000 0.000000 0.000000
# 3 -0.003508 -0.001796 0.008098 0.000000 0.000000 0.000000
# 4 0.000000 0.000000 0.000000 0.027534 0.000000 0.000000
# 5 0.000000 0.000000 0.000000 0.000000 0.022143 0.000000
# 6 0.000000 0.000000 0.000000 0.000000 0.000000 0.053871
#
#
# Mechanical properties :
#
#
# Convention : Reuss Voigt Hill
#
# Bulk Modulus (GPa) = 52.87492 70.22785 61.55139
# Shear Modulus (GPa) = 29.82635 36.27878 33.05256
#
# Velocity S-wave (km/s) = 3.70027 4.08094 3.89526
# Velocity P-wave (km/s) = 6.52140 7.37862 6.96322
#
# Compressibility (1/GPa) = 0.01891256
#
# Stress axis : x y z
#
# Youngs Moduli (GPa) = 44.40227 129.37576 123.49000
#
# Poissons Ratio (x) = 0.57105 0.43324
# Poissons Ratio (y) = 0.19598 0.22177
# Poissons Ratio (z) = 0.15578 0.23234
#
# Static dielectric constant tensor:
#      x y z
#    x 1.971830 0.000000 0.000000 
#    y 0.000000 1.870540 0.000000 
#    z 0.000000 0.000000 1.812490 
# 
# From -- ./inp_files/16744.got.cif
#   From: 2010.05.17/outbox.cif.g08.bks.cpg/sg23_9_cif.got.tgz:16744.got - 2010.06.04 12:02:01.
