data_PCOD9331765
_publ_section_title
;
Structure prediction by ZEFSAII (Michael W. Deem and Ramdas Pophale) SiO2 
 PCOD9331765
Probable space group: I 2 2 2
;
_chemical_formula_sum "Si O2"
_cell_formula_units_Z 26
_cell_length_a 27.875503
_cell_length_b 7.901406
_cell_length_c 5.374806
_cell_angle_alpha 90.000000
_cell_angle_beta 90.000000
_cell_angle_gamma 90.000000
_cell_volume 1183.831479
_symmetry_space_group_name_H-M "I 2 2 2"
_symmetry_group_IT_number 23
_symmetry_cell_setting 'orthorhombic'
loop_
_space_group_symop_operation_xyz
x,y,z
-x,-y,z
x,-y,-z
-x,y,-z
1/2+x,1/2+y,1/2+z
1/2-x,1/2-y,1/2+z
1/2+x,1/2-y,1/2-z
1/2-x,1/2+y,1/2-z
loop_
_atom_site_type_symbol
_atom_site_label
_atom_site_fract_x
_atom_site_fract_y
_atom_site_fract_z
Si Si1 0.811855 0.349445 0.691948
Si Si2 0.889825 0.500000 0.000000
Si Si3 0.224667 0.000000 0.500000
Si Si4 0.000000 0.000000 0.000000
Si Si5 0.969219 0.299260 0.249924
O O1 0.823915 0.500000 0.500000
O O2 0.854321 0.358892 0.891858
O O3 0.805501 0.158961 0.598106
O O4 0.761027 0.412245 0.803962
O O5 0.922797 0.586330 0.788232
O O6 0.035338 0.899416 0.188824
O O7 0.000000 0.321585 0.500000
O O8 0.000000 0.335454 0.000000
#
# Coordination Sequence:
#
# PCOD9331765 Si02
#       5
#     8   4   4   2   8
#     4  11  24  43  73 104 150 191 252 306 374 459
#     4  11  27  44  69 110 142 194 255 310 373 449
#     4  11  22  46  71 104 146 202 239 302 390 445
#     4   8  22  42  70 100 134 194 242 312 374 454
#     4  10  23  45  72  98 144 195 242 303 381 449
#
# _framework density 21.962586000000002
#
# number of rings (size 3 to 8) (size 9 to 14) (size 15 to 20)
#    0.923    0.615    3.077    0.923    4.308    1.231 
#    5.538    0.000    0.000    0.000    0.000    0.000 
#    0.000    0.000    0.000    0.000    0.000    0.000 
#
# Total GULP energy -72370.341810 kJ/mol
# GULP energy per Si atom -5566.949370 kJ/mol
# Density = 2.191260 g / cm^3
# Si number density = 21.962586 Si / 1000 Ang^3
#
#
#
# Elastic Constant Matrix: (Units=GPa)
#
#
# Indices 1 2 3 4 5 6 
#
# 1 117.3422 52.9337 64.4462 0.0000 0.0000 0.0000
# 2 52.9337 154.2227 52.9687 0.0000 0.0000 0.0000
# 3 64.4462 52.9687 134.7651 0.0000 0.0000 0.0000
# 4 0.0000 0.0000 0.0000 94.7758 0.0000 0.0000
# 5 0.0000 0.0000 0.0000 0.0000 24.7959 0.0000
# 6 0.0000 0.0000 0.0000 0.0000 0.0000 -14.2017
#
#
#
# Elastic Compliance Matrix: (Units=1/GPa)
#
#
# Indices 1 2 3 4 5 6 
#
# 1 0.012374 -0.002560 -0.004911 0.000000 0.000000 0.000000
# 2 -0.002560 0.008026 -0.001930 0.000000 0.000000 0.000000
# 3 -0.004911 -0.001930 0.010528 0.000000 0.000000 0.000000
# 4 0.000000 0.000000 0.000000 0.010551 0.000000 0.000000
# 5 0.000000 0.000000 0.000000 0.000000 0.040329 0.000000
# 6 0.000000 0.000000 0.000000 0.000000 0.000000 -0.070414
#
#
# Mechanical properties :
#
#
# Convention : Reuss Voigt Hill
#
# Bulk Modulus (GPa) = 82.47909 83.00305 82.74107
# Shear Modulus (GPa) = 146.03280 36.80610 91.41945
#
# Velocity S-wave (km/s) = 8.16309 4.09816 6.45875
# Velocity P-wave (km/s) = 11.24650 7.76326 9.66313
#
# Compressibility (1/GPa) = 0.01212429
#
# Stress axis : x y z
#
# Youngs Moduli (GPa) = 80.81167 124.59728 94.98914
#
# Poissons Ratio (x) = 0.31903 0.46651
# Poissons Ratio (y) = 0.20692 0.18334
# Poissons Ratio (z) = 0.39688 0.24048
#
# Static dielectric constant tensor:
#      x y z
#    x 1.735460 0.000000 0.000000 
#    y 0.000000 2.311170 0.000000 
#    z 0.000000 0.000000 1.897730 
# 
# From -- ./inp_files/4680.got.cif
#   From: 2010.05.17/outbox.cif.g08.bks.cpg/sg23_3_cif.got.tgz:4680.got - 2010.06.04 12:02:01.
