data_PCOD9331282
_publ_section_title
;
Structure prediction by ZEFSAII (Michael W. Deem and Ramdas Pophale) SiO2 
 PCOD9331282
Probable space group: I 2 2 2
;
_chemical_formula_sum "Si O2"
_cell_formula_units_Z 48
_cell_length_a 8.748280
_cell_length_b 8.245925
_cell_length_c 33.698755
_cell_angle_alpha 90.000000
_cell_angle_beta 90.000000
_cell_angle_gamma 90.000000
_cell_volume 2430.949356
_symmetry_space_group_name_H-M "I 2 2 2"
_symmetry_group_IT_number 23
_symmetry_cell_setting 'orthorhombic'
loop_
_space_group_symop_operation_xyz
x,y,z
-x,-y,z
x,-y,-z
-x,y,-z
1/2+x,1/2+y,1/2+z
1/2-x,1/2-y,1/2+z
1/2+x,1/2-y,1/2-z
1/2-x,1/2+y,1/2-z
loop_
_atom_site_type_symbol
_atom_site_label
_atom_site_fract_x
_atom_site_fract_y
_atom_site_fract_z
Si Si1 0.837325 0.089150 0.230504
Si Si2 0.689706 0.355169 0.118795
Si Si3 0.678117 0.552162 0.042039
Si Si4 0.180905 0.015598 0.855250
Si Si5 0.831860 0.547303 0.802781
Si Si6 0.597157 0.163304 0.911074
O O1 0.766572 0.009896 0.190574
O O2 0.850413 0.276268 0.217750
O O3 0.731901 0.068826 0.268650
O O4 0.000000 0.000000 0.237947
O O5 0.741467 0.458005 0.080573
O O6 0.782734 0.189459 0.125460
O O7 0.716762 0.446521 0.160115
O O8 0.518815 0.290304 0.109850
O O9 0.500000 0.500000 0.039988
O O10 0.670022 0.743009 0.051684
O O11 0.748239 0.500000 0.000000
O O12 0.270789 0.885558 0.880837
O O13 0.000000 0.000000 0.854652
O O14 0.000000 0.500000 0.817368
O O15 0.500000 0.000000 0.920555
#
# Coordination Sequence:
#
# PCOD9331282 Si02
#       6
#     8   8   8   8   8   8
#     4  10  22  37  54  80 110 144 190 236 280 335
#     4   9  20  36  55  81 108 142 185 229 286 343
#     4   9  18  34  56  84 112 137 181 237 281 330
#     4   9  19  36  56  80 113 150 188 229 276 337
#     4  11  23  38  56  79 110 149 189 236 289 343
#     4   9  18  35  59  83 109 147 185 227 282 339
#
# _framework density 19.745370999999999
#
# number of rings (size 3 to 8) (size 9 to 14) (size 15 to 20)
#    0.000    2.500    0.000    1.000    0.000   12.000 
#    0.000   14.167    0.000    5.500    0.000    0.000 
#    0.000    0.000    0.000    0.000    0.000    0.000 
#
# Total GULP energy -133847.285544 kJ/mol
# GULP energy per Si atom -5576.970231 kJ/mol
# Density = 1.970043 g / cm^3
# Si number density = 19.745371 Si / 1000 Ang^3
#
#
#
# Elastic Constant Matrix: (Units=GPa)
#
#
# Indices 1 2 3 4 5 6 
#
# 1 35.0079 14.2907 33.0870 0.0000 0.0000 0.0000
# 2 14.2907 62.6728 57.3511 0.0000 0.0000 0.0000
# 3 33.0870 57.3511 140.4821 0.0000 0.0000 0.0000
# 4 0.0000 0.0000 0.0000 23.7448 0.0000 0.0000
# 5 0.0000 0.0000 0.0000 0.0000 15.2994 0.0000
# 6 0.0000 0.0000 0.0000 0.0000 0.0000 19.4550
#
#
#
# Elastic Compliance Matrix: (Units=1/GPa)
#
#
# Indices 1 2 3 4 5 6 
#
# 1 0.036765 -0.000733 -0.008360 0.000000 0.000000 0.000000
# 2 -0.000733 0.025486 -0.010232 0.000000 0.000000 0.000000
# 3 -0.008360 -0.010232 0.013264 0.000000 0.000000 0.000000
# 4 0.000000 0.000000 0.000000 0.042114 0.000000 0.000000
# 5 0.000000 0.000000 0.000000 0.000000 0.065362 0.000000
# 6 0.000000 0.000000 0.000000 0.000000 0.000000 0.051401
#
#
# Mechanical properties :
#
#
# Convention : Reuss Voigt Hill
#
# Bulk Modulus (GPa) = 27.12529 49.73559 38.43044
# Shear Modulus (GPa) = 17.52345 20.59544 19.05944
#
# Velocity S-wave (km/s) = 2.98228 3.23313 3.11024
# Velocity P-wave (km/s) = 5.06221 6.25945 5.69239
#
# Compressibility (1/GPa) = 0.03686597
#
# Stress axis : x y z
#
# Youngs Moduli (GPa) = 27.19954 39.23694 75.38983
#
# Poissons Ratio (x) = 0.02877 0.63024
# Poissons Ratio (y) = 0.01995 0.77138
# Poissons Ratio (z) = 0.22738 0.40147
#
# Static dielectric constant tensor:
#      x y z
#    x 1.690210 0.000000 0.000000 
#    y 0.000000 1.745730 0.000000 
#    z 0.000000 0.000000 1.708220 
# 
# From -- ./inp_files/7348.got.cif
#   From: 2010.05.17/outbox.cif.g08.bks.cpg/sg23_4_cif.got.tgz:7348.got - 2010.06.04 12:02:01.
