data_PCOD9331322
_publ_section_title
;
Structure prediction by ZEFSAII (Michael W. Deem and Ramdas Pophale) SiO2 
 PCOD9331322
Probable space group: I 2 2 2
;
_chemical_formula_sum "Si O2"
_cell_formula_units_Z 56
_cell_length_a 14.494365
_cell_length_b 19.698769
_cell_length_c 7.555748
_cell_angle_alpha 90.000000
_cell_angle_beta 90.000000
_cell_angle_gamma 90.000000
_cell_volume 2157.325842
_symmetry_space_group_name_H-M "I 2 2 2"
_symmetry_group_IT_number 23
_symmetry_cell_setting 'orthorhombic'
loop_
_space_group_symop_operation_xyz
x,y,z
-x,-y,z
x,-y,-z
-x,y,-z
1/2+x,1/2+y,1/2+z
1/2-x,1/2-y,1/2+z
1/2+x,1/2-y,1/2-z
1/2-x,1/2+y,1/2-z
loop_
_atom_site_type_symbol
_atom_site_label
_atom_site_fract_x
_atom_site_fract_y
_atom_site_fract_z
Si Si1 0.538273 0.601194 0.194047
Si Si2 0.152277 0.132755 0.268858
Si Si3 0.262054 0.594163 0.850975
Si Si4 0.606964 0.008248 0.785444
Si Si5 0.836340 0.345389 0.314736
Si Si6 0.870117 0.705076 0.306662
Si Si7 0.453394 0.746750 0.675864
O O1 0.440200 0.595279 0.293753
O O2 0.639176 0.573596 0.239965
O O3 0.555926 0.682767 0.195391
O O4 0.500000 0.581224 0.000000
O O5 0.199968 0.103071 0.447261
O O6 0.232815 0.136111 0.127679
O O7 0.137943 0.213268 0.303668
O O8 0.182062 0.539830 0.808668
O O9 0.212587 0.664060 0.786450
O O10 0.625988 0.085642 0.740297
O O11 0.500000 0.000000 0.740338
O O12 0.616952 0.000000 0.000000
O O13 0.880824 0.320019 0.494337
O O14 0.856330 0.285558 0.174030
O O15 0.970807 0.695787 0.220668
O O16 0.500000 0.717293 0.500000
#
# Coordination Sequence:
#
# PCOD9331322 Si02
#       7
#     8   8   8   8   8   8   8
#     4   9  20  40  65  95 135 173 213 269 345 406
#     4  10  22  38  62 102 132 167 216 276 339 404
#     4  11  21  41  66  92 131 177 221 279 326 399
#     4  11  25  45  66  92 124 175 227 269 328 397
#     4  12  23  39  63  91 130 175 222 263 334 402
#     4  11  21  37  64  94 136 175 215 269 343 405
#     4  11  22  36  60 102 138 171 215 277 343 405
#
# _framework density 25.958064
#
# number of rings (size 3 to 8) (size 9 to 14) (size 15 to 20)
#    0.000    1.286    1.429    6.429    2.000    4.000 
#    0.000    1.429    0.000    3.429    0.000    0.000 
#    0.000    0.000    0.000    0.000    0.000    0.000 
#
# Total GULP energy -156262.955655 kJ/mol
# GULP energy per Si atom -5580.819845 kJ/mol
# Density = 2.589898 g / cm^3
# Si number density = 25.958064 Si / 1000 Ang^3
#
#
#
# Elastic Constant Matrix: (Units=GPa)
#
#
# Indices 1 2 3 4 5 6 
#
# 1 212.9420 40.3227 23.5764 0.0000 0.0000 0.0000
# 2 40.3227 87.0747 4.3236 0.0000 0.0000 0.0000
# 3 23.5764 4.3236 62.9122 0.0000 0.0000 0.0000
# 4 0.0000 0.0000 0.0000 9.2872 0.0000 0.0000
# 5 0.0000 0.0000 0.0000 0.0000 36.2640 0.0000
# 6 0.0000 0.0000 0.0000 0.0000 0.0000 34.6337
#
#
#
# Elastic Compliance Matrix: (Units=1/GPa)
#
#
# Indices 1 2 3 4 5 6 
#
# 1 0.005352 -0.002387 -0.001842 0.000000 0.000000 0.000000
# 2 -0.002387 0.012588 0.000029 0.000000 0.000000 0.000000
# 3 -0.001842 0.000029 0.016583 0.000000 0.000000 0.000000
# 4 0.000000 0.000000 0.000000 0.107675 0.000000 0.000000
# 5 0.000000 0.000000 0.000000 0.000000 0.027576 0.000000
# 6 0.000000 0.000000 0.000000 0.000000 0.000000 0.028874
#
#
# Mechanical properties :
#
#
# Convention : Reuss Voigt Hill
#
# Bulk Modulus (GPa) = 38.27720 55.48603 46.88161
# Shear Modulus (GPa) = 23.17444 35.68405 29.42925
#
# Velocity S-wave (km/s) = 2.99116 3.71169 3.37073
# Velocity P-wave (km/s) = 5.16790 6.30797 5.76618
#
# Compressibility (1/GPa) = 0.02612521
#
# Stress axis : x y z
#
# Youngs Moduli (GPa) = 186.84560 79.43885 60.30163
#
# Poissons Ratio (x) = 0.18962 0.11105
# Poissons Ratio (y) = 0.44600 -0.00177
# Poissons Ratio (z) = 0.34410 -0.00234
#
# Static dielectric constant tensor:
#      x y z
#    x 2.273470 0.000000 0.000000 
#    y 0.000000 1.981890 0.000000 
#    z 0.000000 0.000000 2.128120 
# 
# From -- ./inp_files/10243.got.cif
#   From: 2010.05.17/outbox.cif.g08.bks.cpg/sg23_6_cif.got.tgz:10243.got - 2010.06.04 12:02:01.
