data_PCOD9331321
_publ_section_title
;
Structure prediction by ZEFSAII (Michael W. Deem and Ramdas Pophale) SiO2 
 PCOD9331321
Probable space group: I 2 2 2
;
_chemical_formula_sum "Si O2"
_cell_formula_units_Z 60
_cell_length_a 5.945088
_cell_length_b 25.365575
_cell_length_c 21.045515
_cell_angle_alpha 90.000000
_cell_angle_beta 90.000000
_cell_angle_gamma 90.000000
_cell_volume 3173.675775
_symmetry_space_group_name_H-M "I 2 2 2"
_symmetry_group_IT_number 23
_symmetry_cell_setting 'orthorhombic'
loop_
_space_group_symop_operation_xyz
x,y,z
-x,-y,z
x,-y,-z
-x,y,-z
1/2+x,1/2+y,1/2+z
1/2-x,1/2-y,1/2+z
1/2+x,1/2-y,1/2-z
1/2-x,1/2+y,1/2-z
loop_
_atom_site_type_symbol
_atom_site_label
_atom_site_fract_x
_atom_site_fract_y
_atom_site_fract_z
Si Si1 0.734795 0.736576 0.829588
Si Si2 0.500000 0.500000 0.696675
Si Si3 0.777370 0.404058 0.339726
Si Si4 0.124855 0.348448 0.159318
Si Si5 0.253512 0.334219 0.533666
Si Si6 0.368230 0.281588 0.063476
Si Si7 0.523160 0.680128 0.270360
Si Si8 0.885276 0.443608 0.760819
O O1 0.550984 0.733649 0.883573
O O2 0.621407 0.727070 0.761072
O O3 0.848884 0.793369 0.828818
O O4 0.908885 0.688828 0.835499
O O5 0.662007 0.538125 0.656209
O O6 0.635073 0.459857 0.741618
O O7 0.778717 0.373162 0.406096
O O8 0.634125 0.366100 0.293651
O O9 0.007575 0.414170 0.300799
O O10 0.232634 0.330375 0.093041
O O11 0.304790 0.336428 0.215449
O O12 0.074650 0.408597 0.176841
O O13 0.500000 0.346737 0.500000
O O14 0.271949 0.272051 0.552301
O O15 0.000000 0.336884 0.500000
O O16 0.500000 0.295703 0.000000
O O17 0.000000 0.500000 0.768487
#
# Coordination Sequence:
#
# PCOD9331321 Si02
#       8
#     8   4   8   8   8   8   8   8
#     4  11  22  35  56  93 127 162 204 260 318 397
#     4  10  22  40  67  86 129 156 216 272 348 390
#     4  11  23  39  65  89 125 171 212 278 331 398
#     4  11  21  36  60  86 128 160 206 262 325 397
#     4  11  28  46  66  93 133 184 233 272 323 392
#     4  10  26  40  58  89 128 175 221 258 312 395
#     4  11  21  32  56  92 125 158 200 258 332 392
#     4  10  22  38  61  98 123 157 207 273 347 403
#
# _framework density 18.905522000000001
#
# number of rings (size 3 to 8) (size 9 to 14) (size 15 to 20)
#    0.000    1.333    4.000    0.800   13.067    0.000 
#    0.000    0.333    0.000    0.000    0.000    7.000 
#    0.000    0.000    0.000    0.000    0.000    0.000 
#
# Total GULP energy -167222.196268 kJ/mol
# GULP energy per Si atom -5574.073209 kJ/mol
# Density = 1.886249 g / cm^3
# Si number density = 18.905522 Si / 1000 Ang^3
#
#
#
# Elastic Constant Matrix: (Units=GPa)
#
#
# Indices 1 2 3 4 5 6 
#
# 1 53.8451 7.3383 11.4586 0.0000 0.0000 0.0000
# 2 7.3383 75.4535 29.3221 0.0000 0.0000 0.0000
# 3 11.4586 29.3221 73.6331 0.0000 0.0000 0.0000
# 4 0.0000 0.0000 0.0000 25.9012 0.0000 0.0000
# 5 0.0000 0.0000 0.0000 0.0000 22.2129 0.0000
# 6 0.0000 0.0000 0.0000 0.0000 0.0000 30.3831
#
#
#
# Elastic Compliance Matrix: (Units=1/GPa)
#
#
# Indices 1 2 3 4 5 6 
#
# 1 0.019253 -0.000838 -0.002662 0.000000 0.000000 0.000000
# 2 -0.000838 0.015716 -0.006128 0.000000 0.000000 0.000000
# 3 -0.002662 -0.006128 0.016435 0.000000 0.000000 0.000000
# 4 0.000000 0.000000 0.000000 0.038608 0.000000 0.000000
# 5 0.000000 0.000000 0.000000 0.000000 0.045019 0.000000
# 6 0.000000 0.000000 0.000000 0.000000 0.000000 0.032913
#
#
# Mechanical properties :
#
#
# Convention : Reuss Voigt Hill
#
# Bulk Modulus (GPa) = 31.10652 33.24107 32.17379
# Shear Modulus (GPa) = 25.26315 26.02028 25.64172
#
# Velocity S-wave (km/s) = 3.65949 3.71392 3.68680
# Velocity P-wave (km/s) = 5.86048 6.00099 5.93115
#
# Compressibility (1/GPa) = 0.03214760
#
# Stress axis : x y z
#
# Youngs Moduli (GPa) = 51.94119 63.62892 60.84398
#
# Poissons Ratio (x) = 0.05331 0.16199
# Poissons Ratio (y) = 0.04352 0.37286
# Poissons Ratio (z) = 0.13829 0.38992
#
# Static dielectric constant tensor:
#      x y z
#    x 1.778180 0.000000 0.000000 
#    y 0.000000 1.671470 0.000000 
#    z 0.000000 0.000000 1.659120 
# 
# From -- ./inp_files/25807.got.cif
#   From: 2010.05.17/outbox.cif.g08.bks.cpg/sg23_13_cif.got.tgz:25807.got - 2010.06.04 12:02:01.
