data_PCOD9331984
_publ_section_title
;
Structure prediction by ZEFSAII (Michael W. Deem and Ramdas Pophale) SiO2 
 PCOD9331984
Probable space group: I 2 2 2
;
_chemical_formula_sum "Si O2"
_cell_formula_units_Z 36
_cell_length_a 5.595202
_cell_length_b 15.522778
_cell_length_c 16.328531
_cell_angle_alpha 90.000000
_cell_angle_beta 90.000000
_cell_angle_gamma 90.000000
_cell_volume 1418.183185
_symmetry_space_group_name_H-M "I 2 2 2"
_symmetry_group_IT_number 23
_symmetry_cell_setting 'orthorhombic'
loop_
_space_group_symop_operation_xyz
x,y,z
-x,-y,z
x,-y,-z
-x,y,-z
1/2+x,1/2+y,1/2+z
1/2-x,1/2-y,1/2+z
1/2+x,1/2-y,1/2-z
1/2-x,1/2+y,1/2-z
loop_
_atom_site_type_symbol
_atom_site_label
_atom_site_fract_x
_atom_site_fract_y
_atom_site_fract_z
Si Si1 0.500000 0.000000 0.370789
Si Si2 0.311011 0.641312 0.789798
Si Si3 0.987538 0.206412 0.872735
Si Si4 0.749234 0.534812 0.593248
Si Si5 0.190236 0.846622 0.572575
O O1 0.312435 0.947727 0.315112
O O2 0.636908 0.928522 0.423682
O O3 0.352400 0.658748 0.695178
O O4 0.556468 0.649847 0.840156
O O5 0.147003 0.717178 0.825706
O O6 0.165546 0.257283 0.932817
O O7 0.795319 0.137421 0.905369
O O8 0.500000 0.500000 0.630357
O O9 0.750076 0.500000 0.500000
O O10 0.000000 0.500000 0.628718
O O11 0.000000 0.854088 0.500000
#
# Coordination Sequence:
#
# PCOD9331984 Si02
#       5
#     4   8   8   8   8
#     4  10  26  47  76 116 155 210 274 346 433 492
#     4  11  24  48  76 111 157 208 271 346 416 508
#     4  11  25  48  77 116 158 212 278 336 424 510
#     4  10  25  48  75 114 162 211 266 337 407 500
#     4  11  26  48  80 113 159 213 277 350 422 509
#
# _framework density 25.384591
#
# number of rings (size 3 to 8) (size 9 to 14) (size 15 to 20)
#    0.000    1.333    2.222    0.667    3.111   11.556 
#    4.000    0.000    4.889    0.000    0.000    0.000 
#    0.000    0.000    0.000    0.000    0.000    0.000 
#
# Total GULP energy -100870.662453 kJ/mol
# GULP energy per Si atom -5603.925692 kJ/mol
# Density = 2.532681 g / cm^3
# Si number density = 25.384591 Si / 1000 Ang^3
#
#
#
# Elastic Constant Matrix: (Units=GPa)
#
#
# Indices 1 2 3 4 5 6 
#
# 1 173.6665 81.2499 44.3684 0.0000 0.0000 0.0000
# 2 81.2499 184.8597 65.9301 0.0000 0.0000 0.0000
# 3 44.3684 65.9301 84.5532 0.0000 0.0000 0.0000
# 4 0.0000 0.0000 0.0000 20.7254 0.0000 0.0000
# 5 0.0000 0.0000 0.0000 0.0000 51.4488 0.0000
# 6 0.0000 0.0000 0.0000 0.0000 0.0000 196.5599
#
#
#
# Elastic Compliance Matrix: (Units=1/GPa)
#
#
# Indices 1 2 3 4 5 6 
#
# 1 0.007459 -0.002607 -0.001881 0.000000 0.000000 0.000000
# 2 -0.002607 0.008405 -0.005186 0.000000 0.000000 0.000000
# 3 -0.001881 -0.005186 0.016857 0.000000 0.000000 0.000000
# 4 0.000000 0.000000 0.000000 0.048250 0.000000 0.000000
# 5 0.000000 0.000000 0.000000 0.000000 0.019437 0.000000
# 6 0.000000 0.000000 0.000000 0.000000 0.000000 0.005088
#
#
# Mechanical properties :
#
#
# Convention : Reuss Voigt Hill
#
# Bulk Modulus (GPa) = 74.77533 91.79738 83.28635
# Shear Modulus (GPa) = 38.66983 70.51556 54.59270
#
# Velocity S-wave (km/s) = 3.90726 5.27629 4.64251
# Velocity P-wave (km/s) = 7.06233 8.56505 7.84973
#
# Compressibility (1/GPa) = 0.01337340
#
# Stress axis : x y z
#
# Youngs Moduli (GPa) = 134.07470 118.97740 59.32226
#
# Poissons Ratio (x) = 0.31023 0.11156
# Poissons Ratio (y) = 0.34960 0.30762
# Poissons Ratio (z) = 0.25214 0.61696
#
# Static dielectric constant tensor:
#      x y z
#    x 2.035730 0.000000 0.000000 
#    y 0.000000 1.991310 0.000000 
#    z 0.000000 0.000000 1.327660 
# 
# From -- ./inp_files/23025.got.cif
#   From: 2010.05.17/outbox.cif.g08.bks.cpg/sg23_12_cif.got.tgz:23025.got - 2010.06.04 12:02:01.
