data_PCOD9331118
_publ_section_title
;
Structure prediction by ZEFSAII (Michael W. Deem and Ramdas Pophale) SiO2 
 PCOD9331118
Probable space group: I 2 2 2
;
_chemical_formula_sum "Si O2"
_cell_formula_units_Z 50
_cell_length_a 14.892280
_cell_length_b 11.509883
_cell_length_c 14.886666
_cell_angle_alpha 90.000000
_cell_angle_beta 90.000000
_cell_angle_gamma 90.000000
_cell_volume 2551.699606
_symmetry_space_group_name_H-M "I 2 2 2"
_symmetry_group_IT_number 23
_symmetry_cell_setting 'orthorhombic'
loop_
_space_group_symop_operation_xyz
x,y,z
-x,-y,z
x,-y,-z
-x,y,-z
1/2+x,1/2+y,1/2+z
1/2-x,1/2-y,1/2+z
1/2+x,1/2-y,1/2-z
1/2-x,1/2+y,1/2-z
loop_
_atom_site_type_symbol
_atom_site_label
_atom_site_fract_x
_atom_site_fract_y
_atom_site_fract_z
Si Si1 0.384977 0.805796 0.750075
Si Si2 0.845461 0.000000 0.500000
Si Si3 0.905080 0.256287 0.458350
Si Si4 0.810166 0.112939 0.689110
Si Si5 0.000000 0.000000 0.000000
Si Si6 0.000000 0.500000 0.711110
Si Si7 0.866132 0.061048 0.161737
Si Si8 0.336397 0.131999 0.879250
O O1 0.393803 0.785105 0.855780
O O2 0.288995 0.860152 0.725754
O O3 0.395741 0.682172 0.704949
O O4 0.461782 0.897435 0.727900
O O5 0.895900 0.118112 0.472667
O O6 0.800753 0.041879 0.594687
O O7 0.836034 0.331369 0.516678
O O8 0.000000 0.291013 0.500000
O O9 0.849696 0.241338 0.668448
O O10 0.867582 0.041054 0.762598
O O11 0.072687 0.952161 0.073611
O O12 0.082316 0.549705 0.651660
O O13 0.759833 0.077757 0.142502
#
# Coordination Sequence:
#
# PCOD9331118 Si02
#       8
#     8   4   8   8   2   4   8   8
#     4  11  24  41  67 101 142 180 229 287 357 419
#     4  10  21  40  66  99 130 182 234 287 342 395
#     4  11  21  36  63 102 137 175 219 289 344 411
#     4  10  22  44  71  97 139 183 234 295 347 417
#     4  12  32  44  76  94 144 188 236 292 342 436
#     4  12  22  41  64 105 136 186 226 293 360 419
#     4  11  25  49  65 102 135 192 233 290 345 424
#     4  10  24  39  66 103 139 179 233 283 358 415
#
# _framework density 19.594783
#
# number of rings (size 3 to 8) (size 9 to 14) (size 15 to 20)
#    0.000    1.280    4.800    0.240    4.480    1.280 
#    0.000    4.800    0.000    0.000    0.000    0.000 
#    0.000    0.000    0.000    0.000    0.000    0.000 
#
# Total GULP energy -139375.403761 kJ/mol
# GULP energy per Si atom -5575.016150 kJ/mol
# Density = 1.955018 g / cm^3
# Si number density = 19.594783 Si / 1000 Ang^3
#
#
#
# Elastic Constant Matrix: (Units=GPa)
#
#
# Indices 1 2 3 4 5 6 
#
# 1 80.8865 58.4097 54.4440 0.0000 0.0000 0.0000
# 2 58.4097 105.2938 62.1644 0.0000 0.0000 0.0000
# 3 54.4440 62.1644 144.6797 0.0000 0.0000 0.0000
# 4 0.0000 0.0000 0.0000 17.3541 0.0000 0.0000
# 5 0.0000 0.0000 0.0000 0.0000 27.3788 0.0000
# 6 0.0000 0.0000 0.0000 0.0000 0.0000 33.1515
#
#
#
# Elastic Compliance Matrix: (Units=1/GPa)
#
#
# Indices 1 2 3 4 5 6 
#
# 1 0.022324 -0.009947 -0.004126 0.000000 0.000000 0.000000
# 2 -0.009947 0.017158 -0.003629 0.000000 0.000000 0.000000
# 3 -0.004126 -0.003629 0.010024 0.000000 0.000000 0.000000
# 4 0.000000 0.000000 0.000000 0.057623 0.000000 0.000000
# 5 0.000000 0.000000 0.000000 0.000000 0.036525 0.000000
# 6 0.000000 0.000000 0.000000 0.000000 0.000000 0.030165
#
#
# Mechanical properties :
#
#
# Convention : Reuss Voigt Hill
#
# Bulk Modulus (GPa) = 70.92285 75.65512 73.28899
# Shear Modulus (GPa) = 23.37285 25.96635 24.66960
#
# Velocity S-wave (km/s) = 3.45745 3.64423 3.55207
# Velocity P-wave (km/s) = 7.22579 7.51005 7.36929
#
# Compressibility (1/GPa) = 0.01409983
#
# Stress axis : x y z
#
# Youngs Moduli (GPa) = 44.79534 58.28233 99.76188
#
# Poissons Ratio (x) = 0.57976 0.41166
# Poissons Ratio (y) = 0.44560 0.36203
# Poissons Ratio (z) = 0.18485 0.21150
#
# Static dielectric constant tensor:
#      x y z
#    x 1.704750 0.000000 0.000000 
#    y 0.000000 1.721290 0.000000 
#    z 0.000000 0.000000 1.695000 
# 
# From -- ./inp_files/21573.got.cif
#   From: 2010.05.17/outbox.cif.g08.bks.cpg/sg23_11_cif.got.tgz:21573.got - 2010.06.04 12:02:01.
