data_PCOD9331564
_publ_section_title
;
Structure prediction by ZEFSAII (Michael W. Deem and Ramdas Pophale) SiO2 
 PCOD9331564
Probable space group: I 2 2 2
;
_chemical_formula_sum "Si O2"
_cell_formula_units_Z 46
_cell_length_a 10.395017
_cell_length_b 16.348440
_cell_length_c 12.145693
_cell_angle_alpha 90.000000
_cell_angle_beta 90.000000
_cell_angle_gamma 90.000000
_cell_volume 2064.067146
_symmetry_space_group_name_H-M "I 2 2 2"
_symmetry_group_IT_number 23
_symmetry_cell_setting 'orthorhombic'
loop_
_space_group_symop_operation_xyz
x,y,z
-x,-y,z
x,-y,-z
-x,y,-z
1/2+x,1/2+y,1/2+z
1/2-x,1/2-y,1/2+z
1/2+x,1/2-y,1/2-z
1/2-x,1/2+y,1/2-z
loop_
_atom_site_type_symbol
_atom_site_label
_atom_site_fract_x
_atom_site_fract_y
_atom_site_fract_z
Si Si1 0.000000 0.500000 0.000000
Si Si2 0.630801 0.144666 0.950279
Si Si3 0.753008 0.542545 0.892009
Si Si4 0.961545 0.244743 0.251344
Si Si5 0.887987 0.059555 0.234330
Si Si6 0.783872 0.227628 0.636215
Si Si7 0.185762 0.000000 0.000000
O O1 0.903264 0.550752 0.923867
O O2 0.596758 0.191338 0.838802
O O3 0.500000 0.108054 0.000000
O O4 0.673375 0.215115 0.035989
O O5 0.732815 0.072307 0.942624
O O6 0.736698 0.479522 0.791684
O O7 0.695329 0.631465 0.876985
O O8 0.693744 0.500000 0.000000
O O9 0.920268 0.150556 0.272352
O O10 0.869530 0.261225 0.147933
O O11 0.116550 0.251378 0.263443
O O12 0.881393 0.047652 0.101897
O O13 0.000000 0.000000 0.274247
#
# Coordination Sequence:
#
# PCOD9331564 Si02
#       7
#     2   8   8   8   8   8   4
#     4   8  24  44  62 110 132 178 232 290 370 420
#     4  10  23  42  66  96 138 180 232 284 347 422
#     4  10  22  44  70 101 138 182 231 294 357 422
#     4  11  24  43  69 102 135 184 233 289 354 415
#     4  12  24  43  70 103 141 186 238 289 351 425
#     4  11  22  45  67 101 136 177 232 284 353 418
#     4  12  24  46  68 100 146 191 237 286 354 430
#
# _framework density 22.286097999999999
#
# number of rings (size 3 to 8) (size 9 to 14) (size 15 to 20)
#    0.522    0.696    3.478    2.609    0.000    1.739 
#    3.130    0.000    0.000    0.000    0.000    0.000 
#    0.000    0.000    0.000    0.000    0.000    0.000 
#
# Total GULP energy -128145.786338 kJ/mol
# GULP energy per Si atom -5571.555928 kJ/mol
# Density = 2.223537 g / cm^3
# Si number density = 22.286098 Si / 1000 Ang^3
#
#
#
# Elastic Constant Matrix: (Units=GPa)
#
#
# Indices 1 2 3 4 5 6 
#
# 1 60.0395 -0.1802 0.7019 0.0000 0.0000 0.0000
# 2 -0.1802 107.0927 -21.1209 0.0000 0.0000 0.0001
# 3 0.7019 -21.1209 30.3398 0.0000 0.0000 0.0002
# 4 0.0000 0.0000 0.0000 23.9314 0.0000 0.0001
# 5 0.0000 0.0000 0.0000 0.0000 31.0492 0.0000
# 6 0.0000 0.0001 0.0002 0.0001 0.0000 -59.0584
#
#
#
# Elastic Compliance Matrix: (Units=1/GPa)
#
#
# Indices 1 2 3 4 5 6 
#
# 1 0.016660 -0.000056 -0.000424 0.000000 0.000000 0.000000
# 2 -0.000056 0.010824 0.007536 0.000000 0.000000 0.000000
# 3 -0.000424 0.007536 0.038216 0.000000 0.000000 0.000000
# 4 0.000000 0.000000 0.000000 0.041786 0.000000 0.000000
# 5 0.000000 0.000000 0.000000 0.000000 0.032207 0.000000
# 6 0.000000 0.000000 0.000000 0.000000 0.000000 -0.016932
#
#
# Mechanical properties :
#
#
# Convention : Reuss Voigt Hill
#
# Bulk Modulus (GPa) = 12.52916 17.36372 14.94644
# Shear Modulus (GPa) = 36.96780 13.72251 25.34516
#
# Velocity S-wave (km/s) = 4.07723 2.48411 3.37599
# Velocity P-wave (km/s) = 5.27250 4.00449 4.68162
#
# Compressibility (1/GPa) = 0.07981379
#
# Stress axis : x y z
#
# Youngs Moduli (GPa) = 60.02226 92.38789 26.16689
#
# Poissons Ratio (x) = 0.00514 0.01110
# Poissons Ratio (y) = 0.00334 -0.19720
# Poissons Ratio (z) = 0.02546 -0.69626
#
# Static dielectric constant tensor:
#      x y z
#    x 1.915310 0.000000 0.000000 
#    y 0.000000 1.806990 0.000000 
#    z 0.000000 0.000000 1.887520 
# 
# From -- ./inp_files/20801.got.cif
#   From: 2010.05.17/outbox.cif.g08.bks.cpg/sg23_11_cif.got.tgz:20801.got - 2010.06.04 12:02:01.
