data_PCOD9331401
_publ_section_title
;
Structure prediction by ZEFSAII (Michael W. Deem and Ramdas Pophale) SiO2 
 PCOD9331401
Probable space group: I 2 2 2
;
_chemical_formula_sum "Si O2"
_cell_formula_units_Z 48
_cell_length_a 13.212148
_cell_length_b 8.680052
_cell_length_c 17.330065
_cell_angle_alpha 90.000000
_cell_angle_beta 90.000000
_cell_angle_gamma 90.000000
_cell_volume 1987.448796
_symmetry_space_group_name_H-M "I 2 2 2"
_symmetry_group_IT_number 23
_symmetry_cell_setting 'orthorhombic'
loop_
_space_group_symop_operation_xyz
x,y,z
-x,-y,z
x,-y,-z
-x,y,-z
1/2+x,1/2+y,1/2+z
1/2-x,1/2-y,1/2+z
1/2+x,1/2-y,1/2-z
1/2-x,1/2+y,1/2-z
loop_
_atom_site_type_symbol
_atom_site_label
_atom_site_fract_x
_atom_site_fract_y
_atom_site_fract_z
Si Si1 0.894148 0.504830 0.125179
Si Si2 0.391033 0.254586 0.505897
Si Si3 0.660764 0.179993 0.014241
Si Si4 0.622518 0.296177 0.187144
Si Si5 0.068992 0.343783 0.638224
Si Si6 0.260165 0.006682 0.236512
O O1 0.879858 0.671568 0.088319
O O2 0.805084 0.458845 0.179326
O O3 0.000000 0.500000 0.169917
O O4 0.902704 0.382103 0.056910
O O5 0.500000 0.336017 0.500000
O O6 0.282648 0.325737 0.489323
O O7 0.635177 0.272272 0.093006
O O8 0.601828 0.246233 0.939640
O O9 0.631781 0.000000 0.000000
O O10 0.503948 0.254298 0.193230
O O11 0.647255 0.440116 0.243773
O O12 0.701429 0.165044 0.217958
O O13 0.175531 0.394963 0.675233
O O14 0.000000 0.500000 0.627369
#
# Coordination Sequence:
#
# PCOD9331401 Si02
#       6
#     8   8   8   8   8   8
#     4   9  17  35  60  83 114 155 207 251 299 385
#     4   9  20  35  57  90 122 160 203 256 318 380
#     4  12  21  38  64  94 124 163 217 267 312 389
#     4  11  24  40  64  93 126 167 214 267 322 387
#     4  10  22  40  64  93 121 168 224 261 314 389
#     4  11  22  39  62  93 122 161 213 260 325 382
#
# _framework density 24.151565999999999
#
# number of rings (size 3 to 8) (size 9 to 14) (size 15 to 20)
#    0.000    1.667    5.000    3.000    2.333    0.333 
#    0.000    0.833    3.667    0.000    0.000    0.000 
#    0.000    0.000    0.000    0.000    0.000    0.000 
#
# Total GULP energy -133610.608085 kJ/mol
# GULP energy per Si atom -5567.108670 kJ/mol
# Density = 2.409660 g / cm^3
# Si number density = 24.151566 Si / 1000 Ang^3
#
#
#
# Elastic Constant Matrix: (Units=GPa)
#
#
# Indices 1 2 3 4 5 6 
#
# 1 88.0957 14.1843 5.7131 0.0000 0.0000 0.0000
# 2 14.1843 40.7386 13.3132 0.0000 0.0000 0.0000
# 3 5.7131 13.3132 89.5646 0.0000 0.0000 0.0000
# 4 0.0000 0.0000 0.0000 12.9018 0.0000 0.0000
# 5 0.0000 0.0000 0.0000 0.0000 10.9541 0.0000
# 6 0.0000 0.0000 0.0000 0.0000 0.0000 31.9281
#
#
#
# Elastic Compliance Matrix: (Units=1/GPa)
#
#
# Indices 1 2 3 4 5 6 
#
# 1 0.012027 -0.004138 -0.000152 0.000000 0.000000 0.000000
# 2 -0.004138 0.027224 -0.003783 0.000000 0.000000 0.000000
# 3 -0.000152 -0.003783 0.011737 0.000000 0.000000 0.000000
# 4 0.000000 0.000000 0.000000 0.077509 0.000000 0.000000
# 5 0.000000 0.000000 0.000000 0.000000 0.091290 0.000000
# 6 0.000000 0.000000 0.000000 0.000000 0.000000 0.031320
#
#
# Mechanical properties :
#
#
# Convention : Reuss Voigt Hill
#
# Bulk Modulus (GPa) = 28.70046 31.64668 30.17357
# Shear Modulus (GPa) = 17.92967 23.50268 20.71618
#
# Velocity S-wave (km/s) = 2.72762 3.12289 2.93193
# Velocity P-wave (km/s) = 4.67217 5.11225 4.89716
#
# Compressibility (1/GPa) = 0.03484264
#
# Stress axis : x y z
#
# Youngs Moduli (GPa) = 83.14343 36.73277 85.19999
#
# Poissons Ratio (x) = 0.15200 0.01296
# Poissons Ratio (y) = 0.34405 0.32228
# Poissons Ratio (z) = 0.01265 0.13895
#
# Static dielectric constant tensor:
#      x y z
#    x 1.983320 0.000000 0.000000 
#    y 0.000000 2.026150 0.000000 
#    z 0.000000 0.000000 1.984910 
# 
# From -- ./inp_files/24310.got.cif
#   From: 2010.05.17/outbox.cif.g08.bks.cpg/sg23_13_cif.got.tgz:24310.got - 2010.06.04 12:02:01.
