data_PCOD9331580
_publ_section_title
;
Structure prediction by ZEFSAII (Michael W. Deem and Ramdas Pophale) SiO2 
 PCOD9331580
Probable space group: I 2 2 2
;
_chemical_formula_sum "Si O2"
_cell_formula_units_Z 48
_cell_length_a 16.435521
_cell_length_b 13.561648
_cell_length_c 8.600892
_cell_angle_alpha 90.000000
_cell_angle_beta 90.000000
_cell_angle_gamma 90.000000
_cell_volume 1917.076475
_symmetry_space_group_name_H-M "I 2 2 2"
_symmetry_group_IT_number 23
_symmetry_cell_setting 'orthorhombic'
loop_
_space_group_symop_operation_xyz
x,y,z
-x,-y,z
x,-y,-z
-x,y,-z
1/2+x,1/2+y,1/2+z
1/2-x,1/2-y,1/2+z
1/2+x,1/2-y,1/2-z
1/2-x,1/2+y,1/2-z
loop_
_atom_site_type_symbol
_atom_site_label
_atom_site_fract_x
_atom_site_fract_y
_atom_site_fract_z
Si Si1 0.906130 0.583304 0.213548
Si Si2 0.500000 0.000000 0.000000
Si Si3 0.500000 0.762795 0.500000
Si Si4 0.865023 0.176820 0.182879
Si Si5 0.706552 0.145690 0.051804
Si Si6 0.813971 0.595771 0.787832
Si Si7 0.850388 0.127995 0.531955
Si Si8 0.500000 0.500000 0.000000
O O1 0.817066 0.612666 0.274363
O O2 0.888270 0.472661 0.154708
O O3 0.954448 0.571216 0.376692
O O4 0.942908 0.664293 0.101541
O O5 0.454313 0.691884 0.619343
O O6 0.803954 0.141093 0.050289
O O7 0.834889 0.289638 0.200296
O O8 0.856336 0.120542 0.344228
O O9 0.684575 0.084510 0.898829
O O10 0.664118 0.253867 0.048913
O O11 0.729155 0.583755 0.880103
O O12 0.934950 0.075491 0.583279
#
# Coordination Sequence:
#
# PCOD9331580 Si02
#       8
#     8   2   4   8   8   8   8   2
#     4  12  26  45  70 115 152 199 242 314 387 467
#     4  12  24  44  64 116 164 182 240 320 406 430
#     4  12  30  43  76 109 160 192 246 315 394 460
#     4  10  25  46  69 106 140 197 247 310 368 444
#     4  10  23  45  74 100 143 196 245 300 372 454
#     4  10  22  45  74 106 140 195 247 304 370 456
#     4  10  26  45  71 101 143 190 258 301 369 435
#     4  12  28  42  68 110 142 202 232 318 354 436
#
# _framework density 25.038125000000001
#
# number of rings (size 3 to 8) (size 9 to 14) (size 15 to 20)
#    0.000    1.333    1.667    1.000   16.333    3.000 
#    0.000    0.000    0.000    0.000    0.000    0.000 
#    0.000    0.000    0.000    0.000    0.000    0.000 
#
# Total GULP energy -133864.685670 kJ/mol
# GULP energy per Si atom -5577.695236 kJ/mol
# Density = 2.498114 g / cm^3
# Si number density = 25.038125 Si / 1000 Ang^3
#
#
#
# Elastic Constant Matrix: (Units=GPa)
#
#
# Indices 1 2 3 4 5 6 
#
# 1 97.3615 16.3128 40.7222 0.0000 0.0000 0.0000
# 2 16.3128 58.9625 25.3301 0.0000 0.0000 0.0000
# 3 40.7222 25.3301 126.0473 0.0000 0.0000 0.0000
# 4 0.0000 0.0000 0.0000 34.3609 0.0000 0.0000
# 5 0.0000 0.0000 0.0000 0.0000 49.0332 0.0000
# 6 0.0000 0.0000 0.0000 0.0000 0.0000 23.1360
#
#
#
# Elastic Compliance Matrix: (Units=1/GPa)
#
#
# Indices 1 2 3 4 5 6 
#
# 1 0.012051 -0.001819 -0.003528 0.000000 0.000000 0.000000
# 2 -0.001819 0.018837 -0.003198 0.000000 0.000000 0.000000
# 3 -0.003528 -0.003198 0.009716 0.000000 0.000000 0.000000
# 4 0.000000 0.000000 0.000000 0.029103 0.000000 0.000000
# 5 0.000000 0.000000 0.000000 0.000000 0.020394 0.000000
# 6 0.000000 0.000000 0.000000 0.000000 0.000000 0.043223
#
#
# Mechanical properties :
#
#
# Convention : Reuss Voigt Hill
#
# Bulk Modulus (GPa) = 42.52553 49.67796 46.10175
# Shear Modulus (GPa) = 31.59534 34.63978 33.11756
#
# Velocity S-wave (km/s) = 3.55616 3.72355 3.64082
# Velocity P-wave (km/s) = 5.82090 6.19439 6.01055
#
# Compressibility (1/GPa) = 0.02351529
#
# Stress axis : x y z
#
# Youngs Moduli (GPa) = 82.97863 53.08740 102.92349
#
# Poissons Ratio (x) = 0.09654 0.36311
# Poissons Ratio (y) = 0.15090 0.32914
# Poissons Ratio (z) = 0.29275 0.16977
#
# Static dielectric constant tensor:
#      x y z
#    x 2.123790 0.000000 0.000000 
#    y 0.000000 2.030720 0.000000 
#    z 0.000000 0.000000 1.987360 
# 
# From -- ./inp_files/11121.got.cif
#   From: 2010.05.17/outbox.cif.g08.bks.cpg/sg23_6_cif.got.tgz:11121.got - 2010.06.04 12:02:01.
