data_PCOD9331166
_publ_section_title
;
Structure prediction by ZEFSAII (Michael W. Deem and Ramdas Pophale) SiO2 
 PCOD9331166
Probable space group: I 2 2 2
;
_chemical_formula_sum "Si O2"
_cell_formula_units_Z 48
_cell_length_a 17.211382
_cell_length_b 7.484122
_cell_length_c 16.385922
_cell_angle_alpha 90.000000
_cell_angle_beta 90.000000
_cell_angle_gamma 90.000000
_cell_volume 2110.704739
_symmetry_space_group_name_H-M "I 2 2 2"
_symmetry_group_IT_number 23
_symmetry_cell_setting 'orthorhombic'
loop_
_space_group_symop_operation_xyz
x,y,z
-x,-y,z
x,-y,-z
-x,y,-z
1/2+x,1/2+y,1/2+z
1/2-x,1/2-y,1/2+z
1/2+x,1/2-y,1/2-z
1/2-x,1/2+y,1/2-z
loop_
_atom_site_type_symbol
_atom_site_label
_atom_site_fract_x
_atom_site_fract_y
_atom_site_fract_z
Si Si1 0.512667 0.211977 0.908328
Si Si2 0.792698 0.795472 0.018848
Si Si3 0.129062 0.199529 0.298298
Si Si4 0.678897 0.699192 0.165282
Si Si5 0.914686 0.085903 0.873090
Si Si6 0.715027 0.719667 0.343187
O O1 0.446379 0.296739 0.853317
O O2 0.597183 0.249516 0.873747
O O3 0.500000 0.000000 0.907085
O O4 0.500000 0.276526 0.000000
O O5 0.744217 0.732211 0.097148
O O6 0.882421 0.812974 0.047392
O O7 0.783680 0.690556 0.933535
O O8 0.764527 0.000000 0.000000
O O9 0.098370 0.210227 0.206053
O O10 0.195299 0.337454 0.327090
O O11 0.172144 0.010654 0.313017
O O12 0.692661 0.792629 0.253316
O O13 0.851445 0.928639 0.858823
O O14 0.000000 0.000000 0.877263
#
# Coordination Sequence:
#
# PCOD9331166 Si02
#       6
#     8   8   8   8   8   8
#     4  11  26  40  64  94 132 175 220 275 338 412
#     4  10  22  38  66  96 127 174 230 275 336 405
#     4  11  22  41  66  96 135 173 222 278 345 403
#     4  11  23  42  65  97 133 172 224 277 337 404
#     4  10  21  41  67  96 130 177 229 280 328 409
#     4  10  22  37  65  96 129 168 219 276 334 386
#
# _framework density 22.741219999999998
#
# number of rings (size 3 to 8) (size 9 to 14) (size 15 to 20)
#    0.000    1.500    1.667    3.500    7.000    6.333 
#    0.000    0.000    0.000    0.000    0.000    0.000 
#    0.000    0.000    0.000    0.000    0.000    0.000 
#
# Total GULP energy -133947.700238 kJ/mol
# GULP energy per Si atom -5581.154177 kJ/mol
# Density = 2.268946 g / cm^3
# Si number density = 22.741220 Si / 1000 Ang^3
#
#
#
# Elastic Constant Matrix: (Units=GPa)
#
#
# Indices 1 2 3 4 5 6 
#
# 1 180.2028 10.6969 77.1212 0.0000 0.0000 0.0000
# 2 10.6969 48.8674 17.3570 0.0000 0.0000 0.0000
# 3 77.1212 17.3570 239.6671 0.0000 0.0000 0.0000
# 4 0.0000 0.0000 0.0000 27.1692 0.0000 0.0000
# 5 0.0000 0.0000 0.0000 0.0000 36.4829 0.0000
# 6 0.0000 0.0000 0.0000 0.0000 0.0000 12.6717
#
#
#
# Elastic Compliance Matrix: (Units=1/GPa)
#
#
# Indices 1 2 3 4 5 6 
#
# 1 0.006458 -0.000693 -0.002028 0.000000 0.000000 0.000000
# 2 -0.000693 0.021078 -0.001303 0.000000 0.000000 0.000000
# 3 -0.002028 -0.001303 0.004919 0.000000 0.000000 0.000000
# 4 0.000000 0.000000 0.000000 0.036806 0.000000 0.000000
# 5 0.000000 0.000000 0.000000 0.000000 0.027410 0.000000
# 6 0.000000 0.000000 0.000000 0.000000 0.000000 0.078916
#
#
# Mechanical properties :
#
#
# Convention : Reuss Voigt Hill
#
# Bulk Modulus (GPa) = 40.97265 75.45416 58.21341
# Shear Modulus (GPa) = 26.07237 39.50223 32.78730
#
# Velocity S-wave (km/s) = 3.38965 4.17229 3.80117
# Velocity P-wave (km/s) = 5.77716 7.51413 6.70216
#
# Compressibility (1/GPa) = 0.02440652
#
# Stress axis : x y z
#
# Youngs Moduli (GPa) = 154.83751 47.44219 203.27582
#
# Poissons Ratio (x) = 0.03290 0.41224
# Poissons Ratio (y) = 0.10737 0.26495
# Poissons Ratio (z) = 0.31401 0.06184
#
# Static dielectric constant tensor:
#      x y z
#    x 1.834580 0.000000 0.000000 
#    y 0.000000 2.003200 0.000000 
#    z 0.000000 0.000000 1.945440 
# 
# From -- ./inp_files/22014.got.cif
#   From: 2010.05.17/outbox.cif.g08.bks.cpg/sg23_12_cif.got.tgz:22014.got - 2010.06.04 12:02:01.
