data_PCOD9331693
_publ_section_title
;
Structure prediction by ZEFSAII (Michael W. Deem and Ramdas Pophale) SiO2 
 PCOD9331693
Probable space group: I 2 2 2
;
_chemical_formula_sum "Si O2"
_cell_formula_units_Z 44
_cell_length_a 5.144989
_cell_length_b 26.370949
_cell_length_c 14.851579
_cell_angle_alpha 90.000000
_cell_angle_beta 90.000000
_cell_angle_gamma 90.000000
_cell_volume 2015.036137
_symmetry_space_group_name_H-M "I 2 2 2"
_symmetry_group_IT_number 23
_symmetry_cell_setting 'orthorhombic'
loop_
_space_group_symop_operation_xyz
x,y,z
-x,-y,z
x,-y,-z
-x,y,-z
1/2+x,1/2+y,1/2+z
1/2-x,1/2-y,1/2+z
1/2+x,1/2-y,1/2-z
1/2-x,1/2+y,1/2-z
loop_
_atom_site_type_symbol
_atom_site_label
_atom_site_fract_x
_atom_site_fract_y
_atom_site_fract_z
Si Si1 0.096571 0.876425 0.156070
Si Si2 0.997360 0.240409 0.811376
Si Si3 0.892413 0.057899 0.327756
Si Si4 0.878508 0.570786 0.593740
Si Si5 0.000000 0.874799 0.500000
Si Si6 0.500000 0.197037 0.500000
Si Si7 0.500000 0.000000 0.763316
O O1 0.019697 0.903974 0.249541
O O2 0.385054 0.895659 0.133537
O O3 0.079340 0.816704 0.164946
O O4 0.878123 0.896019 0.087558
O O5 0.727499 0.239711 0.754803
O O6 0.971994 0.270950 0.906331
O O7 0.940635 0.087696 0.417877
O O8 0.596345 0.044628 0.300643
O O9 0.000000 0.000000 0.328949
O O10 0.810686 0.524956 0.662339
O O11 0.000000 0.553661 0.500000
O O12 0.248274 0.838576 0.512516
#
# Coordination Sequence:
#
# PCOD9331693 Si02
#       7
#     8   8   8   8   4   4   4
#     4  11  24  42  69 101 138 181 232 292 352 432
#     4  12  26  48  76 104 143 191 240 307 380 432
#     4  11  23  45  70 102 145 187 238 290 358 423
#     4  11  23  39  65  98 140 179 228 275 350 420
#     4  12  29  46  76 104 148 194 247 310 358 428
#     4  12  28  50  75 112 147 190 258 310 368 450
#     4  10  23  42  67 100 140 190 228 287 333 436
#
# _framework density 21.835837000000001
#
# number of rings (size 3 to 8) (size 9 to 14) (size 15 to 20)
#    0.000    0.727    1.818    5.455    5.091    1.455 
#    0.000    1.818    0.000    0.000    0.000    0.000 
#    0.000    0.000    0.000    0.000    0.000    0.000 
#
# Total GULP energy -122770.701909 kJ/mol
# GULP energy per Si atom -5580.486450 kJ/mol
# Density = 2.178614 g / cm^3
# Si number density = 21.835837 Si / 1000 Ang^3
#
#
#
# Elastic Constant Matrix: (Units=GPa)
#
#
# Indices 1 2 3 4 5 6 
#
# 1 90.5218 19.1488 38.6732 0.0000 0.0000 0.0000
# 2 19.1488 138.0407 67.9872 0.0000 0.0000 0.0000
# 3 38.6732 67.9872 184.8005 0.0000 0.0000 0.0001
# 4 0.0000 0.0000 0.0000 -7.0811 0.0000 0.0001
# 5 0.0000 0.0000 0.0000 0.0000 29.5897 0.0000
# 6 0.0000 0.0000 0.0001 0.0001 0.0000 -71.5282
#
#
#
# Elastic Compliance Matrix: (Units=1/GPa)
#
#
# Indices 1 2 3 4 5 6 
#
# 1 0.012163 -0.000530 -0.002351 0.000000 0.000000 0.000000
# 2 -0.000530 0.008870 -0.003153 0.000000 0.000000 0.000000
# 3 -0.002351 -0.003153 0.007063 0.000000 0.000000 0.000000
# 4 0.000000 0.000000 0.000000 -0.141221 0.000000 0.000000
# 5 0.000000 0.000000 0.000000 0.000000 0.033796 0.000000
# 6 0.000000 0.000000 0.000000 0.000000 0.000000 -0.013980
#
#
# Mechanical properties :
#
#
# Convention : Reuss Voigt Hill
#
# Bulk Modulus (GPa) = 62.37823 73.88682 68.13252
# Shear Modulus (GPa) = -65.87579 9.36632 -28.25473
#
# Velocity S-wave (km/s) = -5.49856 2.07334 -3.60107
# Velocity P-wave (km/s) = 3.41808 6.29623 3.73893
#
# Compressibility (1/GPa) = 0.01603123
#
# Stress axis : x y z
#
# Youngs Moduli (GPa) = 82.21439 112.73474 141.58387
#
# Poissons Ratio (x) = 0.05970 0.33281
# Poissons Ratio (y) = 0.04354 0.44635
# Poissons Ratio (z) = 0.19325 0.35540
#
# Static dielectric constant tensor:
#      x y z
#    x 1.922800 0.000000 0.000000 
#    y 0.000000 1.777550 0.000000 
#    z 0.000000 0.000000 1.847060 
# 
# From -- ./inp_files/19202.got.cif
#   From: 2010.05.17/outbox.cif.g08.bks.cpg/sg23_10_cif.got.tgz:19202.got - 2010.06.04 12:02:01.
