data_PCOD9331847
_publ_section_title
;
Structure prediction by ZEFSAII (Michael W. Deem and Ramdas Pophale) SiO2 
 PCOD9331847
Probable space group: I 2 2 2
;
_chemical_formula_sum "Si O2"
_cell_formula_units_Z 30
_cell_length_a 18.699268
_cell_length_b 13.633383
_cell_length_c 4.910920
_cell_angle_alpha 90.000000
_cell_angle_beta 90.000000
_cell_angle_gamma 90.000000
_cell_volume 1251.961866
_symmetry_space_group_name_H-M "I 2 2 2"
_symmetry_group_IT_number 23
_symmetry_cell_setting 'orthorhombic'
loop_
_space_group_symop_operation_xyz
x,y,z
-x,-y,z
x,-y,-z
-x,y,-z
1/2+x,1/2+y,1/2+z
1/2-x,1/2-y,1/2+z
1/2+x,1/2-y,1/2-z
1/2-x,1/2+y,1/2-z
loop_
_atom_site_type_symbol
_atom_site_label
_atom_site_fract_x
_atom_site_fract_y
_atom_site_fract_z
Si Si1 0.224321 0.308489 0.727026
Si Si2 0.435737 0.833757 0.810958
Si Si3 0.887062 0.000000 0.000000
Si Si4 0.000000 0.155872 0.000000
Si Si5 0.500000 0.000000 0.500000
Si Si6 0.791704 0.000000 0.500000
O O1 0.273380 0.266373 0.483675
O O2 0.145385 0.321523 0.598991
O O3 0.249216 0.411160 0.858666
O O4 0.463008 0.728742 0.710607
O O5 0.440525 0.917722 0.586678
O O6 0.500000 0.871963 0.000000
O O7 0.938516 0.085383 0.886585
O O8 0.840617 0.037912 0.251577
#
# Coordination Sequence:
#
# PCOD9331847 Si02
#       6
#     8   8   4   4   2   4
#     4  12  28  48  77 109 149 195 247 305 371 438
#     4  11  25  45  75 100 148 190 248 300 366 429
#     4  11  26  44  74 106 147 188 238 298 369 438
#     4  10  24  42  70 106 140 188 240 296 364 442
#     4  10  24  46  68 108 138 194 256 298 360 426
#     4  12  25  49  72 107 151 190 244 302 371 432
#
# _framework density 23.962389000000002
#
# number of rings (size 3 to 8) (size 9 to 14) (size 15 to 20)
#    0.000    0.800    0.000    6.000   14.933    1.067 
#    9.600    0.000    0.000    0.000    0.000    0.000 
#    0.000    0.000    0.000    0.000    0.000    0.000 
#
# Total GULP energy -83704.354419 kJ/mol
# GULP energy per Si atom -5580.290295 kJ/mol
# Density = 2.390785 g / cm^3
# Si number density = 23.962389 Si / 1000 Ang^3
#
#
#
# Elastic Constant Matrix: (Units=GPa)
#
#
# Indices 1 2 3 4 5 6 
#
# 1 122.5763 32.9830 16.2321 0.0000 0.0000 0.0000
# 2 32.9830 131.4117 4.0413 0.0000 0.0000 0.0000
# 3 16.2321 4.0413 58.1974 0.0000 0.0000 0.0000
# 4 0.0000 0.0000 0.0000 65.8303 0.0000 0.0000
# 5 0.0000 0.0000 0.0000 0.0000 15.3509 0.0000
# 6 0.0000 0.0000 0.0000 0.0000 0.0000 40.7248
#
#
#
# Elastic Compliance Matrix: (Units=1/GPa)
#
#
# Indices 1 2 3 4 5 6 
#
# 1 0.009065 -0.002202 -0.002376 0.000000 0.000000 0.000000
# 2 -0.002202 0.008161 0.000048 0.000000 0.000000 0.000000
# 3 -0.002376 0.000048 0.017842 0.000000 0.000000 0.000000
# 4 0.000000 0.000000 0.000000 0.015191 0.000000 0.000000
# 5 0.000000 0.000000 0.000000 0.000000 0.065143 0.000000
# 6 0.000000 0.000000 0.000000 0.000000 0.000000 0.024555
#
#
# Mechanical properties :
#
#
# Convention : Reuss Voigt Hill
#
# Bulk Modulus (GPa) = 38.44976 46.52203 42.48589
# Shear Modulus (GPa) = 31.70849 41.64316 36.67583
#
# Velocity S-wave (km/s) = 3.64161 4.17328 3.91648
# Velocity P-wave (km/s) = 5.81055 6.53287 6.18227
#
# Compressibility (1/GPa) = 0.02600797
#
# Stress axis : x y z
#
# Youngs Moduli (GPa) = 110.31021 122.53473 56.04700
#
# Poissons Ratio (x) = 0.26985 0.13314
# Poissons Ratio (y) = 0.24293 -0.00266
# Poissons Ratio (z) = 0.26204 -0.00582
#
# Static dielectric constant tensor:
#      x y z
#    x 1.988690 0.000000 0.000000 
#    y 0.000000 1.912230 0.000000 
#    z 0.000000 0.000000 1.984500 
# 
# From -- ./inp_files/2155.got.cif
#   From: 2010.05.17/outbox.cif.g08.bks.cpg/sg23_2_cif.got.tgz:2155.got - 2010.06.04 12:02:01.
