data_PCOD9331721
_publ_section_title
;
Structure prediction by ZEFSAII (Michael W. Deem and Ramdas Pophale) SiO2 
 PCOD9331721
Probable space group: I 2 2 2
;
_chemical_formula_sum "Si O2"
_cell_formula_units_Z 32
_cell_length_a 8.736585
_cell_length_b 7.747376
_cell_length_c 19.839419
_cell_angle_alpha 90.000000
_cell_angle_beta 90.000000
_cell_angle_gamma 90.000000
_cell_volume 1342.843156
_symmetry_space_group_name_H-M "I 2 2 2"
_symmetry_group_IT_number 23
_symmetry_cell_setting 'orthorhombic'
loop_
_space_group_symop_operation_xyz
x,y,z
-x,-y,z
x,-y,-z
-x,y,-z
1/2+x,1/2+y,1/2+z
1/2-x,1/2-y,1/2+z
1/2+x,1/2-y,1/2-z
1/2-x,1/2+y,1/2-z
loop_
_atom_site_type_symbol
_atom_site_label
_atom_site_fract_x
_atom_site_fract_y
_atom_site_fract_z
Si Si1 0.830079 0.911523 0.769238
Si Si2 0.288645 0.280438 0.643753
Si Si3 0.399630 0.825266 0.616141
Si Si4 0.318382 0.203253 0.001802
O O1 0.742913 0.862277 0.700862
O O2 0.834962 0.731348 0.811081
O O3 0.743497 0.041559 0.819966
O O4 0.000000 0.000000 0.755915
O O5 0.459660 0.309303 0.615997
O O6 0.208156 0.224814 0.576229
O O7 0.721331 0.797481 0.443416
O O8 0.500000 0.000000 0.611391
O O9 0.500000 0.211419 0.000000
O O10 0.273888 0.000000 0.000000
#
# Coordination Sequence:
#
# PCOD9331721 Si02
#       4
#     8   8   8   8
#     4  10  23  43  69 109 153 196 245 317 382 449
#     4  11  23  43  72 101 147 194 252 306 369 459
#     4  11  24  45  74 109 143 198 256 312 381 449
#     4  11  25  46  73 105 148 199 245 312 381 447
#
# _framework density 23.830034999999999
#
# number of rings (size 3 to 8) (size 9 to 14) (size 15 to 20)
#    0.000    1.250    2.500    2.250    0.000    9.000 
#    4.500    1.250    0.000    0.000    0.000    0.000 
#    0.000    0.000    0.000    0.000    0.000    0.000 
#
# Total GULP energy -89186.317801 kJ/mol
# GULP energy per Si atom -5574.144863 kJ/mol
# Density = 2.377580 g / cm^3
# Si number density = 23.830035 Si / 1000 Ang^3
#
#
#
# Elastic Constant Matrix: (Units=GPa)
#
#
# Indices 1 2 3 4 5 6 
#
# 1 79.2908 38.9157 71.3465 0.0000 0.0000 0.0000
# 2 38.9157 154.9671 50.8916 0.0000 0.0000 0.0000
# 3 71.3465 50.8916 182.6025 0.0000 0.0000 0.0000
# 4 0.0000 0.0000 0.0000 24.3151 0.0000 0.0000
# 5 0.0000 0.0000 0.0000 0.0000 40.2478 0.0000
# 6 0.0000 0.0000 0.0000 0.0000 0.0000 31.8978
#
#
#
# Elastic Compliance Matrix: (Units=1/GPa)
#
#
# Indices 1 2 3 4 5 6 
#
# 1 0.020474 -0.002768 -0.007228 0.000000 0.000000 0.000000
# 2 -0.002768 0.007477 -0.001003 0.000000 0.000000 0.000000
# 3 -0.007228 -0.001003 0.008580 0.000000 0.000000 0.000000
# 4 0.000000 0.000000 0.000000 0.041127 0.000000 0.000000
# 5 0.000000 0.000000 0.000000 0.000000 0.024846 0.000000
# 6 0.000000 0.000000 0.000000 0.000000 0.000000 0.031350
#
#
# Mechanical properties :
#
#
# Convention : Reuss Voigt Hill
#
# Bulk Modulus (GPa) = 68.80230 82.12979 75.46605
# Shear Modulus (GPa) = 31.11456 36.33926 33.72691
#
# Velocity S-wave (km/s) = 3.61735 3.90928 3.76614
# Velocity P-wave (km/s) = 6.81041 7.41055 7.11681
#
# Compressibility (1/GPa) = 0.01453440
#
# Stress axis : x y z
#
# Youngs Moduli (GPa) = 48.84161 133.73892 116.54954
#
# Poissons Ratio (x) = 0.37016 0.84246
# Poissons Ratio (y) = 0.13518 0.11684
# Poissons Ratio (z) = 0.35304 0.13407
#
# Static dielectric constant tensor:
#      x y z
#    x 2.290400 0.000000 0.000000 
#    y 0.000000 2.067250 0.000000 
#    z 0.000000 0.000000 1.995850 
# 
# From -- ./inp_files/25938.got.cif
#   From: 2010.05.17/outbox.cif.g08.bks.cpg/sg23_13_cif.got.tgz:25938.got - 2010.06.04 12:02:01.
