data_PCOD9331626
_publ_section_title
;
Structure prediction by ZEFSAII (Michael W. Deem and Ramdas Pophale) SiO2 
 PCOD9331626
Probable space group: I 2 2 2
;
_chemical_formula_sum "Si O2"
_cell_formula_units_Z 60
_cell_length_a 10.793579
_cell_length_b 22.409158
_cell_length_c 11.539626
_cell_angle_alpha 90.000000
_cell_angle_beta 90.000000
_cell_angle_gamma 90.000000
_cell_volume 2791.147237
_symmetry_space_group_name_H-M "I 2 2 2"
_symmetry_group_IT_number 23
_symmetry_cell_setting 'orthorhombic'
loop_
_space_group_symop_operation_xyz
x,y,z
-x,-y,z
x,-y,-z
-x,y,-z
1/2+x,1/2+y,1/2+z
1/2-x,1/2-y,1/2+z
1/2+x,1/2-y,1/2-z
1/2-x,1/2+y,1/2-z
loop_
_atom_site_type_symbol
_atom_site_label
_atom_site_fract_x
_atom_site_fract_y
_atom_site_fract_z
Si Si1 0.697509 0.191315 0.098513
Si Si2 0.752934 0.605798 0.223848
Si Si3 0.000000 0.780180 0.500000
Si Si4 0.737735 0.867560 0.134407
Si Si5 0.393505 0.215990 0.310773
Si Si6 0.134879 0.603079 0.029728
Si Si7 0.508020 0.667105 0.751579
Si Si8 0.643649 0.978392 0.253421
O O1 0.652710 0.146949 0.200456
O O2 0.608723 0.234313 0.027427
O O3 0.783492 0.238526 0.162600
O O4 0.757619 0.150764 0.998196
O O5 0.617809 0.628800 0.264313
O O6 0.775525 0.537577 0.254291
O O7 0.784403 0.611143 0.086507
O O8 0.997698 0.821820 0.388465
O O9 0.644502 0.820756 0.197102
O O10 0.674649 0.931739 0.151964
O O11 0.868506 0.862740 0.202420
O O12 0.393409 0.166839 0.410916
O O13 0.502874 0.264487 0.298798
O O14 0.181030 0.558338 0.129645
O O15 0.000000 0.577590 0.000000
O O16 0.500000 0.000000 0.256046
#
# Coordination Sequence:
#
# PCOD9331626 Si02
#       8
#     8   8   4   8   8   8   8   8
#     4  11  25  40  67 101 142 179 227 283 347 426
#     4  11  26  43  67 102 135 187 235 283 349 405
#     4  12  22  38  64 102 146 174 220 294 342 422
#     4  11  25  45  65 100 136 186 229 280 358 404
#     4  10  23  38  62  99 136 176 214 278 342 420
#     4  11  23  38  70 101 134 178 229 285 342 406
#     4  11  25  42  68 101 144 182 228 284 352 428
#     4  11  25  47  69  97 134 178 240 294 333 410
#
# _framework density 21.496537
#
# number of rings (size 3 to 8) (size 9 to 14) (size 15 to 20)
#    0.000    1.067    4.000    1.200    9.333    2.667 
#    0.000    0.667    0.000    3.200    0.000    0.000 
#    0.000    0.000    0.000    0.000    0.000    0.000 
#
# Total GULP energy -167392.234554 kJ/mol
# GULP energy per Si atom -5579.741152 kJ/mol
# Density = 2.144761 g / cm^3
# Si number density = 21.496537 Si / 1000 Ang^3
#
#
#
# Elastic Constant Matrix: (Units=GPa)
#
#
# Indices 1 2 3 4 5 6 
#
# 1 71.3543 36.0284 1.5427 0.0000 -0.0005 0.0002
# 2 36.0284 133.2037 51.7312 -0.0003 -0.0002 0.0002
# 3 1.5427 51.7312 59.8041 0.0002 -0.0027 0.0008
# 4 0.0000 -0.0003 0.0002 10.3662 0.0000 0.0002
# 5 -0.0005 -0.0002 -0.0027 0.0000 18.3799 0.0005
# 6 0.0002 0.0002 0.0008 0.0002 0.0005 33.5060
#
#
#
# Elastic Compliance Matrix: (Units=1/GPa)
#
#
# Indices 1 2 3 4 5 6 
#
# 1 0.017329 -0.006797 0.005432 0.000000 0.000001 0.000000
# 2 -0.006797 0.013971 -0.011910 0.000001 -0.000002 0.000000
# 3 0.005432 -0.011910 0.026883 -0.000001 0.000004 -0.000001
# 4 0.000000 0.000001 -0.000001 0.096467 0.000000 0.000000
# 5 0.000001 -0.000002 0.000004 0.000000 0.054407 -0.000001
# 6 0.000000 0.000000 -0.000001 0.000000 -0.000001 0.029845
#
#
# Mechanical properties :
#
#
# Convention : Reuss Voigt Hill
#
# Bulk Modulus (GPa) = 31.61090 49.21852 40.41471
# Shear Modulus (GPa) = 18.11620 24.12108 21.11864
#
# Velocity S-wave (km/s) = 2.90616 3.35340 3.13776
# Velocity P-wave (km/s) = 5.09883 6.15950 5.65409
#
# Compressibility (1/GPa) = 0.03163465
#
# Stress axis : x y z
#
# Youngs Moduli (GPa) = 57.70689 71.57730 37.19810
#
# Poissons Ratio (x) = 0.48649 -0.20207
# Poissons Ratio (y) = 0.39222 0.44302
# Poissons Ratio (z) = -0.31348 0.85246
#
# Static dielectric constant tensor:
#      x y z
#    x 1.760220 0.000010 0.000000 
#    y 0.000010 1.586490 0.000010 
#    z 0.000000 0.000010 1.804360 
# 
# From -- ./inp_files/15976.got.cif
#   From: 2010.05.17/outbox.cif.g08.bks.cpg/sg23_8_cif.got.tgz:15976.got - 2010.06.04 12:02:01.
