data_PCOD9331147
_publ_section_title
;
Structure prediction by ZEFSAII (Michael W. Deem and Ramdas Pophale) SiO2 
 PCOD9331147
Probable space group: I 2 2 2
;
_chemical_formula_sum "Si O2"
_cell_formula_units_Z 48
_cell_length_a 23.518466
_cell_length_b 11.143439
_cell_length_c 8.711822
_cell_angle_alpha 90.000000
_cell_angle_beta 90.000000
_cell_angle_gamma 90.000000
_cell_volume 2283.164613
_symmetry_space_group_name_H-M "I 2 2 2"
_symmetry_group_IT_number 23
_symmetry_cell_setting 'orthorhombic'
loop_
_space_group_symop_operation_xyz
x,y,z
-x,-y,z
x,-y,-z
-x,y,-z
1/2+x,1/2+y,1/2+z
1/2-x,1/2-y,1/2+z
1/2+x,1/2-y,1/2-z
1/2-x,1/2+y,1/2-z
loop_
_atom_site_type_symbol
_atom_site_label
_atom_site_fract_x
_atom_site_fract_y
_atom_site_fract_z
Si Si1 0.721707 0.147348 0.828319
Si Si2 0.838216 0.436526 0.857467
Si Si3 0.060449 0.866627 0.068199
Si Si4 0.118054 0.365390 0.449297
Si Si5 0.437293 0.378176 0.065349
Si Si6 0.187925 0.218751 0.967261
O O1 0.711944 0.255731 0.704366
O O2 0.698518 0.031950 0.737226
O O3 0.679302 0.156757 0.972695
O O4 0.781829 0.129150 0.912921
O O5 0.877175 0.371348 0.733519
O O6 0.869944 0.500000 0.000000
O O7 0.798866 0.341863 0.942458
O O8 0.058871 0.878333 0.251585
O O9 0.119983 0.798681 0.036022
O O10 0.000000 0.818198 0.000000
O O11 0.066033 0.000000 0.000000
O O12 0.098458 0.500000 0.500000
O O13 0.085282 0.249771 0.508113
O O14 0.407429 0.500000 0.000000
O O15 0.500000 0.382595 0.000000
#
# Coordination Sequence:
#
# PCOD9331147 Si02
#       6
#     8   8   8   8   8   8
#     4  10  21  41  61 100 136 175 228 285 349 426
#     4   9  21  38  64  95 133 178 223 285 351 417
#     4  11  25  44  68 100 140 185 236 298 355 428
#     4  10  21  41  68  93 138 174 226 290 349 423
#     4  11  24  44  70  97 136 180 239 300 363 420
#     4  11  22  40  69  94 136 180 230 282 356 431
#
# _framework density 21.023451000000001
#
# number of rings (size 3 to 8) (size 9 to 14) (size 15 to 20)
#    0.000    1.667    1.667    3.000    4.667    3.667 
#    0.000    0.833    0.000    4.500    0.000    0.000 
#    0.000    0.000    0.000    0.000    0.000    0.000 
#
# Total GULP energy -133647.224254 kJ/mol
# GULP energy per Si atom -5568.634344 kJ/mol
# Density = 2.097560 g / cm^3
# Si number density = 21.023451 Si / 1000 Ang^3
#
#
#
# Elastic Constant Matrix: (Units=GPa)
#
#
# Indices 1 2 3 4 5 6 
#
# 1 101.2440 22.4112 55.1946 0.0000 0.0000 0.0000
# 2 22.4112 60.3484 54.8609 0.0000 0.0000 0.0000
# 3 55.1946 54.8609 200.0339 0.0000 0.0000 0.0000
# 4 0.0000 0.0000 0.0000 38.1791 0.0000 0.0000
# 5 0.0000 0.0000 0.0000 0.0000 28.6845 0.0000
# 6 0.0000 0.0000 0.0000 0.0000 0.0000 12.6615
#
#
#
# Elastic Compliance Matrix: (Units=1/GPa)
#
#
# Indices 1 2 3 4 5 6 
#
# 1 0.011786 -0.001892 -0.002733 0.000000 0.000000 0.000000
# 2 -0.001892 0.022378 -0.005615 0.000000 0.000000 0.000000
# 3 -0.002733 -0.005615 0.007293 0.000000 0.000000 0.000000
# 4 0.000000 0.000000 0.000000 0.026192 0.000000 0.000000
# 5 0.000000 0.000000 0.000000 0.000000 0.034862 0.000000
# 6 0.000000 0.000000 0.000000 0.000000 0.000000 0.078979
#
#
# Mechanical properties :
#
#
# Convention : Reuss Voigt Hill
#
# Bulk Modulus (GPa) = 47.67369 69.61774 58.64572
# Shear Modulus (GPa) = 23.92760 31.18234 27.55497
#
# Velocity S-wave (km/s) = 3.37729 3.85543 3.62426
# Velocity P-wave (km/s) = 6.15904 7.28048 6.74311
#
# Compressibility (1/GPa) = 0.02097593
#
# Stress axis : x y z
#
# Youngs Moduli (GPa) = 84.84657 44.68726 137.11259
#
# Poissons Ratio (x) = 0.08456 0.37474
# Poissons Ratio (y) = 0.16056 0.76991
# Poissons Ratio (z) = 0.23189 0.25093
#
# Static dielectric constant tensor:
#      x y z
#    x 1.766430 0.000000 0.000000 
#    y 0.000000 1.905630 0.000000 
#    z 0.000000 0.000000 1.800720 
# 
# From -- ./inp_files/12586.got.cif
#   From: 2010.05.17/outbox.cif.g08.bks.cpg/sg23_7_cif.got.tgz:12586.got - 2010.06.04 12:02:01.
