data_PCOD9331652
_publ_section_title
;
Structure prediction by ZEFSAII (Michael W. Deem and Ramdas Pophale) SiO2 
 PCOD9331652
Probable space group: I 2 2 2
;
_chemical_formula_sum "Si O2"
_cell_formula_units_Z 60
_cell_length_a 8.498063
_cell_length_b 13.101524
_cell_length_c 26.228111
_cell_angle_alpha 90.000000
_cell_angle_beta 90.000000
_cell_angle_gamma 90.000000
_cell_volume 2920.174311
_symmetry_space_group_name_H-M "I 2 2 2"
_symmetry_group_IT_number 23
_symmetry_cell_setting 'orthorhombic'
loop_
_space_group_symop_operation_xyz
x,y,z
-x,-y,z
x,-y,-z
-x,y,-z
1/2+x,1/2+y,1/2+z
1/2-x,1/2-y,1/2+z
1/2+x,1/2-y,1/2-z
1/2-x,1/2+y,1/2-z
loop_
_atom_site_type_symbol
_atom_site_label
_atom_site_fract_x
_atom_site_fract_y
_atom_site_fract_z
Si Si1 0.182547 0.798905 0.288797
Si Si2 0.326164 0.450922 0.053088
Si Si3 0.755642 0.248002 0.905347
Si Si4 0.292793 0.920801 0.630659
Si Si5 0.519505 0.115424 0.732332
Si Si6 0.818147 0.382225 0.489049
Si Si7 0.500000 0.500000 0.805370
Si Si8 0.091296 0.273272 0.951067
O O1 0.197406 0.776286 0.349271
O O2 0.352507 0.830788 0.269392
O O3 0.128220 0.694720 0.262293
O O4 0.079298 0.901699 0.278498
O O5 0.500000 0.500000 0.062506
O O6 0.327611 0.329805 0.056250
O O7 0.197247 0.477455 0.096394
O O8 0.277274 0.500000 0.000000
O O9 0.706006 0.140813 0.929164
O O10 0.943853 0.248631 0.913961
O O11 0.415985 0.898368 0.674721
O O12 0.133079 0.944038 0.661107
O O13 0.294594 0.837379 0.585876
O O14 0.500000 0.000000 0.753067
O O15 0.789870 0.500000 0.500000
O O16 0.693557 0.316123 0.522576
O O17 0.000000 0.358096 0.500000
O O18 0.000000 0.323678 0.000000
#
# Coordination Sequence:
#
# PCOD9331652 Si02
#       8
#     8   8   8   8   8   8   4   8
#     4  12  26  48  73 107 141 184 242 295 364 427
#     4  11  22  33  60 103 142 181 216 269 337 419
#     4  11  22  42  65 100 138 173 232 284 335 416
#     4  12  22  43  67 102 142 180 228 286 355 416
#     4  12  26  49  77 101 142 187 235 303 364 430
#     4  10  24  44  68  95 135 186 233 282 344 413
#     4  12  24  42  75 104 140 190 227 296 364 422
#     4  10  23  40  68  99 140 186 225 281 346 417
#
# _framework density 20.546721000000002
#
# number of rings (size 3 to 8) (size 9 to 14) (size 15 to 20)
#    0.000    0.800    4.667    2.400    5.600    2.400 
#    2.400    2.667    2.933    0.000    0.000    0.000 
#    0.000    0.000    0.000    0.000    0.000    0.000 
#
# Total GULP energy -167240.325621 kJ/mol
# GULP energy per Si atom -5574.677521 kJ/mol
# Density = 2.049996 g / cm^3
# Si number density = 20.546721 Si / 1000 Ang^3
#
#
#
# Elastic Constant Matrix: (Units=GPa)
#
#
# Indices 1 2 3 4 5 6 
#
# 1 98.6073 62.8054 27.2267 0.0000 0.0000 0.0000
# 2 62.8054 138.9253 58.2141 0.0000 0.0000 0.0000
# 3 27.2267 58.2141 82.4747 0.0000 0.0000 0.0000
# 4 0.0000 0.0000 0.0000 22.9076 0.0000 0.0000
# 5 0.0000 0.0000 0.0000 0.0000 14.4663 0.0000
# 6 0.0000 0.0000 0.0000 0.0000 0.0000 33.7647
#
#
#
# Elastic Compliance Matrix: (Units=1/GPa)
#
#
# Indices 1 2 3 4 5 6 
#
# 1 0.014245 -0.006346 -0.000223 0.000000 0.000000 0.000000
# 2 -0.006346 0.013049 -0.007115 0.000000 0.000000 0.000000
# 3 -0.000223 -0.007115 0.017221 0.000000 0.000000 0.000000
# 4 0.000000 0.000000 0.000000 0.043654 0.000000 0.000000
# 5 0.000000 0.000000 0.000000 0.000000 0.069126 0.000000
# 6 0.000000 0.000000 0.000000 0.000000 0.000000 0.029617
#
#
# Mechanical properties :
#
#
# Convention : Reuss Voigt Hill
#
# Bulk Modulus (GPa) = 58.32554 68.49997 63.41275
# Shear Modulus (GPa) = 22.72774 25.67846 24.20310
#
# Velocity S-wave (km/s) = 3.32949 3.53903 3.43586
# Velocity P-wave (km/s) = 6.57488 7.07889 6.83153
#
# Compressibility (1/GPa) = 0.01714515
#
# Stress axis : x y z
#
# Youngs Moduli (GPa) = 70.20004 76.63589 58.06931
#
# Poissons Ratio (x) = 0.48636 0.01295
# Poissons Ratio (y) = 0.44552 0.41318
# Poissons Ratio (z) = 0.01566 0.54528
#
# Static dielectric constant tensor:
#      x y z
#    x 1.805740 0.000000 0.000000 
#    y 0.000000 1.779150 0.000000 
#    z 0.000000 0.000000 1.749530 
# 
# From -- ./inp_files/29287.got.cif
#   From: 2010.05.17/outbox.cif.g08.bks.cpg/sg23_15_cif.got.tgz:29287.got - 2010.06.04 12:02:01.
