data_PCOD9331039
_publ_section_title
;
Structure prediction by ZEFSAII (Michael W. Deem and Ramdas Pophale) SiO2 
 PCOD9331039
Probable space group: I 2 2 2
;
_chemical_formula_sum "Si O2"
_cell_formula_units_Z 48
_cell_length_a 9.269002
_cell_length_b 29.630416
_cell_length_c 7.323201
_cell_angle_alpha 90.000000
_cell_angle_beta 90.000000
_cell_angle_gamma 90.000000
_cell_volume 2011.276036
_symmetry_space_group_name_H-M "I 2 2 2"
_symmetry_group_IT_number 23
_symmetry_cell_setting 'orthorhombic'
loop_
_space_group_symop_operation_xyz
x,y,z
-x,-y,z
x,-y,-z
-x,y,-z
1/2+x,1/2+y,1/2+z
1/2-x,1/2-y,1/2+z
1/2+x,1/2-y,1/2-z
1/2-x,1/2+y,1/2-z
loop_
_atom_site_type_symbol
_atom_site_label
_atom_site_fract_x
_atom_site_fract_y
_atom_site_fract_z
Si Si1 0.692965 0.191556 0.297301
Si Si2 0.140562 0.851504 0.623102
Si Si3 0.988792 0.231670 0.277941
Si Si4 0.341026 0.488196 0.281192
Si Si5 0.345289 0.930010 0.759581
Si Si6 0.842343 0.591905 0.314545
O O1 0.746301 0.173947 0.492467
O O2 0.555382 0.223152 0.299389
O O3 0.674374 0.145544 0.185325
O O4 0.825174 0.221871 0.223856
O O5 0.080228 0.813849 0.763387
O O6 0.226308 0.893599 0.699943
O O7 0.000000 0.863625 0.500000
O O8 0.000000 0.236018 0.500000
O O9 0.500000 0.500000 0.212454
O O10 0.346162 0.500000 0.500000
O O11 0.216543 0.521320 0.208682
O O12 0.292881 0.436973 0.241564
O O13 0.510380 0.919739 0.708108
O O14 0.351707 0.925458 0.979030
#
# Coordination Sequence:
#
# PCOD9331039 Si02
#       6
#     8   8   8   8   8   8
#     4  10  22  41  64  89 126 162 214 257 320 385
#     4   9  22  42  62  90 129 170 209 264 328 383
#     4   9  22  41  60  86 125 159 212 264 312 369
#     4   9  19  36  62  95 127 160 210 266 317 372
#     4  10  21  39  65  89 134 163 207 268 320 384
#     4  10  22  37  64  97 122 167 216 262 319 382
#
# _framework density 23.865447
#
# number of rings (size 3 to 8) (size 9 to 14) (size 15 to 20)
#    0.000    2.833    0.000    0.500    9.333    4.000 
#    3.000    7.500    0.000    2.000    0.000    0.000 
#    0.000    0.000    0.000    0.000    0.000    0.000 
#
# Total GULP energy -134138.546333 kJ/mol
# GULP energy per Si atom -5589.106097 kJ/mol
# Density = 2.381113 g / cm^3
# Si number density = 23.865447 Si / 1000 Ang^3
#
#
#
# Elastic Constant Matrix: (Units=GPa)
#
#
# Indices 1 2 3 4 5 6 
#
# 1 143.5471 69.3096 14.4619 -0.0004 0.0000 0.0005
# 2 69.3096 121.1493 4.3672 0.0006 -0.0010 -0.0028
# 3 14.4619 4.3672 53.8273 0.0020 0.0043 -0.0125
# 4 -0.0004 0.0006 0.0020 12.9771 0.0010 -0.0079
# 5 0.0000 -0.0010 0.0043 0.0010 12.2913 0.0020
# 6 0.0005 -0.0028 -0.0125 -0.0079 0.0020 -1.2695
#
#
#
# Elastic Compliance Matrix: (Units=1/GPa)
#
#
# Indices 1 2 3 4 5 6 
#
# 1 0.009879 -0.005572 -0.002202 0.000001 0.000000 0.000038
# 2 -0.005572 0.011422 0.000570 -0.000001 0.000001 -0.000033
# 3 -0.002202 0.000570 0.019123 -0.000003 -0.000007 -0.000190
# 4 0.000001 -0.000001 -0.000003 0.077058 -0.000006 -0.000482
# 5 0.000000 0.000001 -0.000007 -0.000006 0.081359 0.000127
# 6 0.000038 -0.000033 -0.000190 -0.000482 0.000127 -0.787722
#
#
# Mechanical properties :
#
#
# Convention : Reuss Voigt Hill
#
# Bulk Modulus (GPa) = 38.43811 54.97791 46.70801
# Shear Modulus (GPa) = -8.83702 20.15878 5.66088
#
# Velocity S-wave (km/s) = -1.92637 2.90950 1.54180
# Velocity P-wave (km/s) = 3.34564 5.86289 4.77320
#
# Compressibility (1/GPa) = 0.02601585
#
# Stress axis : x y z
#
# Youngs Moduli (GPa) = 101.22826 87.55357 52.29238
#
# Poissons Ratio (x) = 0.48787 0.11515
# Poissons Ratio (y) = 0.56407 -0.02983
# Poissons Ratio (z) = 0.22291 -0.04994
#
# Static dielectric constant tensor:
#      x y z
#    x 1.935480 0.000000 0.000000 
#    y 0.000000 1.900230 0.000000 
#    z 0.000000 0.000000 1.968660 
# 
# From -- ./inp_files/7379.got.cif
#   From: 2010.05.17/outbox.cif.g08.bks.cpg/sg23_4_cif.got.tgz:7379.got - 2010.06.04 12:02:01.
