data_PCOD9331597
_publ_section_title
;
Structure prediction by ZEFSAII (Michael W. Deem and Ramdas Pophale) SiO2 
 PCOD9331597
Probable space group: I 2 2 2
;
_chemical_formula_sum "Si O2"
_cell_formula_units_Z 36
_cell_length_a 15.093326
_cell_length_b 9.014296
_cell_length_c 11.808886
_cell_angle_alpha 90.000000
_cell_angle_beta 90.000000
_cell_angle_gamma 90.000000
_cell_volume 1606.666348
_symmetry_space_group_name_H-M "I 2 2 2"
_symmetry_group_IT_number 23
_symmetry_cell_setting 'orthorhombic'
loop_
_space_group_symop_operation_xyz
x,y,z
-x,-y,z
x,-y,-z
-x,y,-z
1/2+x,1/2+y,1/2+z
1/2-x,1/2-y,1/2+z
1/2+x,1/2-y,1/2-z
1/2-x,1/2+y,1/2-z
loop_
_atom_site_type_symbol
_atom_site_label
_atom_site_fract_x
_atom_site_fract_y
_atom_site_fract_z
Si Si1 0.589145 0.595514 0.144432
Si Si2 0.925971 0.600853 0.768078
Si Si3 0.760083 0.749027 0.508908
Si Si4 0.758487 0.981688 0.816225
Si Si5 0.120791 0.500000 0.000000
O O1 0.500000 0.500000 0.122710
O O2 0.563166 0.736385 0.220955
O O3 0.645205 0.671955 0.039984
O O4 0.662536 0.515992 0.224785
O O5 0.832966 0.525067 0.741947
O O6 0.000000 0.500000 0.711758
O O7 0.931527 0.587003 0.902653
O O8 0.750536 0.675957 0.383580
O O9 0.737345 0.612250 0.591263
O O10 0.687725 0.871321 0.538482
#
# Coordination Sequence:
#
# PCOD9331597 Si02
#       5
#     8   8   8   8   4
#     4  11  24  43  71 104 135 185 235 296 351 428
#     4  11  25  41  68  99 139 180 233 292 355 426
#     4  10  23  42  71  99 134 182 231 286 352 431
#     4  10  22  47  69  94 142 186 223 290 365 419
#     4  12  21  40  67 100 130 178 229 284 341 424
#
# _framework density 22.406642999999999
#
# number of rings (size 3 to 8) (size 9 to 14) (size 15 to 20)
#    0.000    1.333    4.444    0.333    3.111    1.778 
#    0.000   16.111    0.000    0.000    0.000    0.000 
#    0.000    0.000    0.000    0.000    0.000    0.000 
#
# Total GULP energy -100412.866278 kJ/mol
# GULP energy per Si atom -5578.492571 kJ/mol
# Density = 2.235564 g / cm^3
# Si number density = 22.406643 Si / 1000 Ang^3
#
#
#
# Elastic Constant Matrix: (Units=GPa)
#
#
# Indices 1 2 3 4 5 6 
#
# 1 131.5093 58.0991 27.2891 0.0000 0.0000 0.0000
# 2 58.0991 121.8246 26.3501 0.0000 0.0000 0.0000
# 3 27.2891 26.3501 84.2216 0.0000 0.0000 0.0000
# 4 0.0000 0.0000 0.0000 23.6072 0.0000 0.0000
# 5 0.0000 0.0000 0.0000 0.0000 27.1233 0.0000
# 6 0.0000 0.0000 0.0000 0.0000 0.0000 42.0566
#
#
#
# Elastic Compliance Matrix: (Units=1/GPa)
#
#
# Indices 1 2 3 4 5 6 
#
# 1 0.009897 -0.004319 -0.001856 0.000000 0.000000 0.000000
# 2 -0.004319 0.010689 -0.001945 0.000000 0.000000 0.000000
# 3 -0.001856 -0.001945 0.013083 0.000000 0.000000 0.000000
# 4 0.000000 0.000000 0.000000 0.042360 0.000000 0.000000
# 5 0.000000 0.000000 0.000000 0.000000 0.036869 0.000000
# 6 0.000000 0.000000 0.000000 0.000000 0.000000 0.023777
#
#
# Mechanical properties :
#
#
# Convention : Reuss Voigt Hill
#
# Bulk Modulus (GPa) = 57.36990 62.33690 59.85340
# Shear Modulus (GPa) = 31.50134 33.61190 32.55662
#
# Velocity S-wave (km/s) = 3.75359 3.87730 3.81595
# Velocity P-wave (km/s) = 6.66674 6.92284 6.79600
#
# Compressibility (1/GPa) = 0.01743074
#
# Stress axis : x y z
#
# Youngs Moduli (GPa) = 101.04093 93.55622 76.43407
#
# Poissons Ratio (x) = 0.40403 0.14183
# Poissons Ratio (y) = 0.43635 0.14865
# Poissons Ratio (z) = 0.18749 0.18195
#
# Static dielectric constant tensor:
#      x y z
#    x 1.902810 0.000000 0.000000 
#    y 0.000000 1.832190 0.000000 
#    z 0.000000 0.000000 2.005110 
# 
# From -- ./inp_files/19714.got.cif
#   From: 2010.05.17/outbox.cif.g08.bks.cpg/sg23_10_cif.got.tgz:19714.got - 2010.06.04 12:02:01.
