data_PCOD9331477
_publ_section_title
;
Structure prediction by ZEFSAII (Michael W. Deem and Ramdas Pophale) SiO2 
 PCOD9331477
Probable space group: I 2 2 2
;
_chemical_formula_sum "Si O2"
_cell_formula_units_Z 40
_cell_length_a 23.939274
_cell_length_b 9.369908
_cell_length_c 7.623289
_cell_angle_alpha 90.000000
_cell_angle_beta 90.000000
_cell_angle_gamma 90.000000
_cell_volume 1709.970769
_symmetry_space_group_name_H-M "I 2 2 2"
_symmetry_group_IT_number 23
_symmetry_cell_setting 'orthorhombic'
loop_
_space_group_symop_operation_xyz
x,y,z
-x,-y,z
x,-y,-z
-x,y,-z
1/2+x,1/2+y,1/2+z
1/2-x,1/2-y,1/2+z
1/2+x,1/2-y,1/2-z
1/2-x,1/2+y,1/2-z
loop_
_atom_site_type_symbol
_atom_site_label
_atom_site_fract_x
_atom_site_fract_y
_atom_site_fract_z
Si Si1 0.517309 0.653014 0.701192
Si Si2 0.729000 0.815292 0.852077
Si Si3 0.568918 0.134179 0.874660
Si Si4 0.811973 0.394491 0.254593
Si Si5 0.872274 0.863974 0.374836
O O1 0.500000 0.500000 0.783870
O O2 0.500000 0.656332 0.500000
O O3 0.484358 0.786135 0.789423
O O4 0.583686 0.640011 0.717478
O O5 0.789296 0.742402 0.849622
O O6 0.686653 0.688347 0.804519
O O7 0.716839 0.950921 0.727558
O O8 0.708714 0.857102 0.046899
O O9 0.620782 0.090926 0.747189
O O10 0.598118 0.251274 0.996413
O O11 0.557929 0.000000 0.000000
O O12 0.865966 0.000000 0.500000
#
# Coordination Sequence:
#
# PCOD9331477 Si02
#       5
#     8   8   8   8   8
#     4  11  25  42  67 105 143 178 230 290 352 406
#     4  10  23  40  64  94 132 171 225 277 334 406
#     4  11  22  45  69  96 137 184 233 283 335 420
#     4  10  22  42  62  97 129 172 223 278 340 398
#     4  11  22  41  67  99 130 185 235 268 337 424
#
# _framework density 23.392213999999999
#
# number of rings (size 3 to 8) (size 9 to 14) (size 15 to 20)
#    0.000    1.400    6.000    0.600    5.600    3.200 
#    0.000    6.000    0.000    0.000    0.000    0.000 
#    0.000    0.000    0.000    0.000    0.000    0.000 
#
# Total GULP energy -111573.051642 kJ/mol
# GULP energy per Si atom -5578.652582 kJ/mol
# Density = 2.333897 g / cm^3
# Si number density = 23.392214 Si / 1000 Ang^3
#
#
#
# Elastic Constant Matrix: (Units=GPa)
#
#
# Indices 1 2 3 4 5 6 
#
# 1 121.2220 44.9779 5.8601 0.0000 0.0000 0.0000
# 2 44.9779 153.6838 10.3025 0.0000 0.0000 0.0000
# 3 5.8601 10.3025 37.5013 0.0000 0.0000 0.0000
# 4 0.0000 0.0000 0.0000 26.8270 0.0000 0.0000
# 5 0.0000 0.0000 0.0000 0.0000 21.3531 0.0000
# 6 0.0000 0.0000 0.0000 0.0000 0.0000 28.6176
#
#
#
# Elastic Compliance Matrix: (Units=1/GPa)
#
#
# Indices 1 2 3 4 5 6 
#
# 1 0.009273 -0.002666 -0.000717 0.000000 0.000000 0.000000
# 2 -0.002666 0.007395 -0.001615 0.000000 0.000000 0.000000
# 3 -0.000717 -0.001615 0.027221 0.000000 0.000000 0.000000
# 4 0.000000 0.000000 0.000000 0.037276 0.000000 0.000000
# 5 0.000000 0.000000 0.000000 0.000000 0.046832 0.000000
# 6 0.000000 0.000000 0.000000 0.000000 0.000000 0.034944
#
#
# Mechanical properties :
#
#
# Convention : Reuss Voigt Hill
#
# Bulk Modulus (GPa) = 29.50326 48.29869 38.90097
# Shear Modulus (GPa) = 27.13933 32.11064 29.62499
#
# Velocity S-wave (km/s) = 3.40985 3.70902 3.56258
# Velocity P-wave (km/s) = 5.30495 6.24777 5.79557
#
# Compressibility (1/GPa) = 0.03389456
#
# Stress axis : x y z
#
# Youngs Moduli (GPa) = 107.83872 135.22022 36.73580
#
# Poissons Ratio (x) = 0.36048 0.02633
# Poissons Ratio (y) = 0.28748 0.05933
# Poissons Ratio (z) = 0.07729 0.21839
#
# Static dielectric constant tensor:
#      x y z
#    x 2.033940 0.000000 0.000000 
#    y 0.000000 1.954900 0.000000 
#    z 0.000000 0.000000 1.952500 
# 
# From -- ./inp_files/12408.got.cif
#   From: 2010.05.17/outbox.cif.g08.bks.cpg/sg23_7_cif.got.tgz:12408.got - 2010.06.04 12:02:01.
