data_PCOD9331432
_publ_section_title
;
Structure prediction by ZEFSAII (Michael W. Deem and Ramdas Pophale) SiO2 
 PCOD9331432
Probable space group: I 2 2 2
;
_chemical_formula_sum "Si O2"
_cell_formula_units_Z 32
_cell_length_a 20.433392
_cell_length_b 7.901685
_cell_length_c 9.287289
_cell_angle_alpha 90.000000
_cell_angle_beta 90.000000
_cell_angle_gamma 90.000000
_cell_volume 1499.509216
_symmetry_space_group_name_H-M "I 2 2 2"
_symmetry_group_IT_number 23
_symmetry_cell_setting 'orthorhombic'
loop_
_space_group_symop_operation_xyz
x,y,z
-x,-y,z
x,-y,-z
-x,y,-z
1/2+x,1/2+y,1/2+z
1/2-x,1/2-y,1/2+z
1/2+x,1/2-y,1/2-z
1/2-x,1/2+y,1/2-z
loop_
_atom_site_type_symbol
_atom_site_label
_atom_site_fract_x
_atom_site_fract_y
_atom_site_fract_z
Si Si1 0.000000 0.251102 0.000000
Si Si2 0.342212 0.857942 0.895041
Si Si3 0.361422 0.160206 0.431958
Si Si4 0.284624 0.500000 0.500000
Si Si5 0.500000 0.500000 0.761067
Si Si6 0.389333 0.500000 0.000000
O O1 0.929514 0.333858 0.981634
O O2 0.989545 0.149851 0.148089
O O3 0.371280 0.866593 0.737084
O O4 0.266349 0.918590 0.885841
O O5 0.349909 0.671712 0.963931
O O6 0.372942 0.000000 0.000000
O O7 0.327198 0.342817 0.447314
O O8 0.323353 0.000000 0.500000
O O9 0.437636 0.471879 0.863556
#
# Coordination Sequence:
#
# PCOD9331432 Si02
#       6
#     4   8   8   4   4   4
#     4  11  23  46  70 107 143 182 249 297 364 427
#     4  10  27  45  72 107 141 194 240 298 359 436
#     4  12  27  47  75 107 145 194 244 304 362 431
#     4  10  28  43  74 107 148 190 244 296 360 436
#     4  10  22  40  74 104 140 190 234 300 362 432
#     4  11  22  46  72  98 146 191 236 300 364 423
#
# _framework density 21.340316000000001
#
# number of rings (size 3 to 8) (size 9 to 14) (size 15 to 20)
#    0.750    0.500    2.500    1.875    8.750    0.000 
#    0.000    2.500    0.000    0.000    0.000    0.000 
#    0.000    0.000    0.000    0.000    0.000    0.000 
#
# Total GULP energy -89172.794596 kJ/mol
# GULP energy per Si atom -5573.299662 kJ/mol
# Density = 2.129174 g / cm^3
# Si number density = 21.340316 Si / 1000 Ang^3
#
#
#
# Elastic Constant Matrix: (Units=GPa)
#
#
# Indices 1 2 3 4 5 6 
#
# 1 77.9701 35.0068 9.9098 0.0000 0.0000 0.0000
# 2 35.0068 176.3036 53.1912 0.0000 0.0000 0.0000
# 3 9.9098 53.1912 120.3730 0.0000 0.0000 0.0000
# 4 0.0000 0.0000 0.0000 -54.1426 0.0000 0.0000
# 5 0.0000 0.0000 0.0000 0.0000 17.8382 0.0000
# 6 0.0000 0.0000 0.0000 0.0000 0.0000 103.9271
#
#
#
# Elastic Compliance Matrix: (Units=1/GPa)
#
#
# Indices 1 2 3 4 5 6 
#
# 1 0.014082 -0.002823 0.000088 0.000000 0.000000 0.000000
# 2 -0.002823 0.007110 -0.002910 0.000000 0.000000 0.000000
# 3 0.000088 -0.002910 0.009586 0.000000 0.000000 0.000000
# 4 0.000000 0.000000 0.000000 -0.018470 0.000000 0.000000
# 5 0.000000 0.000000 0.000000 0.000000 0.056059 0.000000
# 6 0.000000 0.000000 0.000000 0.000000 0.000000 0.009622
#
#
# Mechanical properties :
#
#
# Convention : Reuss Voigt Hill
#
# Bulk Modulus (GPa) = 51.30975 63.42914 57.36945
# Shear Modulus (GPa) = 52.20599 31.96048 42.08323
#
# Velocity S-wave (km/s) = 4.95143 3.87416 4.44555
# Velocity P-wave (km/s) = 7.53556 7.05686 7.30014
#
# Compressibility (1/GPa) = 0.01948947
#
# Stress axis : x y z
#
# Youngs Moduli (GPa) = 71.01506 140.64089 104.31910
#
# Poissons Ratio (x) = 0.39697 -0.00918
# Poissons Ratio (y) = 0.20044 0.30352
# Poissons Ratio (z) = -0.00625 0.40921
#
# Static dielectric constant tensor:
#      x y z
#    x 2.104730 0.000000 0.000000 
#    y 0.000000 1.755750 0.000000 
#    z 0.000000 0.000000 1.703170 
# 
# From -- ./inp_files/11646.got.cif
#   From: 2010.05.17/outbox.cif.g08.bks.cpg/sg23_6_cif.got.tgz:11646.got - 2010.06.04 12:02:01.
