data_PCOD9331817
_publ_section_title
;
Structure prediction by ZEFSAII (Michael W. Deem and Ramdas Pophale) SiO2 
 PCOD9331817
Probable space group: I 2 2 2
;
_chemical_formula_sum "Si O2"
_cell_formula_units_Z 48
_cell_length_a 18.942346
_cell_length_b 5.779300
_cell_length_c 20.476442
_cell_angle_alpha 90.000000
_cell_angle_beta 90.000000
_cell_angle_gamma 90.000000
_cell_volume 2241.627778
_symmetry_space_group_name_H-M "I 2 2 2"
_symmetry_group_IT_number 23
_symmetry_cell_setting 'orthorhombic'
loop_
_space_group_symop_operation_xyz
x,y,z
-x,-y,z
x,-y,-z
-x,y,-z
1/2+x,1/2+y,1/2+z
1/2-x,1/2-y,1/2+z
1/2+x,1/2-y,1/2-z
1/2-x,1/2+y,1/2-z
loop_
_atom_site_type_symbol
_atom_site_label
_atom_site_fract_x
_atom_site_fract_y
_atom_site_fract_z
Si Si1 0.068687 0.106030 0.788923
Si Si2 0.579547 0.491968 0.077609
Si Si3 0.793858 0.251891 0.538526
Si Si4 0.928613 0.611029 0.665778
Si Si5 0.696648 0.149578 0.656268
Si Si6 0.324452 0.787574 0.248123
O O1 0.039437 0.249289 0.727624
O O2 0.118122 0.255370 0.835301
O O3 0.123553 0.927041 0.756714
O O4 0.000000 0.000000 0.822106
O O5 0.500000 0.500000 0.104413
O O6 0.633881 0.279302 0.082033
O O7 0.608890 0.719804 0.113275
O O8 0.570708 0.500000 0.000000
O O9 0.794416 0.500000 0.500000
O O10 0.729573 0.226880 0.588420
O O11 0.791652 0.000000 0.500000
O O12 0.869394 0.465694 0.704138
O O13 0.000000 0.500000 0.634959
O O14 0.751301 0.241916 0.711449
O O15 0.691590 0.883056 0.679030
#
# Coordination Sequence:
#
# PCOD9331817 Si02
#       6
#     8   8   8   8   8   8
#     4  11  22  41  64 102 137 173 220 284 372 436
#     4  10  24  41  59  90 129 185 240 286 336 398
#     4  11  28  48  72  99 138 190 244 299 351 426
#     4  11  23  37  64  94 138 185 227 290 350 433
#     4  11  25  39  68 101 134 181 229 291 357 422
#     4  11  23  39  65 101 141 171 228 291 358 429
#
# _framework density 21.41301
#
# number of rings (size 3 to 8) (size 9 to 14) (size 15 to 20)
#    0.000    1.167    3.333    1.500   11.667    0.000 
#    0.000    4.167    0.000    0.500    0.000    0.000 
#    0.000    0.000    0.000    0.000    0.000    0.000 
#
# Total GULP energy -133719.168880 kJ/mol
# GULP energy per Si atom -5571.632037 kJ/mol
# Density = 2.136427 g / cm^3
# Si number density = 21.413010 Si / 1000 Ang^3
#
#
#
# Elastic Constant Matrix: (Units=GPa)
#
#
# Indices 1 2 3 4 5 6 
#
# 1 100.3686 6.9693 18.2490 0.0000 0.0000 0.0000
# 2 6.9693 82.5519 30.6401 0.0000 0.0000 0.0000
# 3 18.2490 30.6401 64.4247 0.0000 0.0000 0.0000
# 4 0.0000 0.0000 0.0000 35.7500 0.0000 0.0000
# 5 0.0000 0.0000 0.0000 0.0000 24.7747 0.0000
# 6 0.0000 0.0000 0.0000 0.0000 0.0000 1443.9639
#
#
#
# Elastic Compliance Matrix: (Units=1/GPa)
#
#
# Indices 1 2 3 4 5 6 
#
# 1 0.010509 0.000264 -0.003103 0.000000 0.000000 0.000000
# 2 0.000264 0.014717 -0.007074 0.000000 0.000000 0.000000
# 3 -0.003103 -0.007074 0.019765 0.000000 0.000000 0.000000
# 4 0.000000 0.000000 0.000000 0.027972 0.000000 0.000000
# 5 0.000000 0.000000 0.000000 0.000000 0.040364 0.000000
# 6 0.000000 0.000000 0.000000 0.000000 0.000000 0.000693
#
#
# Mechanical properties :
#
#
# Convention : Reuss Voigt Hill
#
# Bulk Modulus (GPa) = 39.73538 39.89579 39.81558
# Shear Modulus (GPa) = 35.15356 313.66351 174.40853
#
# Velocity S-wave (km/s) = 4.05617 12.11613 9.03474
# Velocity P-wave (km/s) = 6.36661 14.64262 11.29026
#
# Compressibility (1/GPa) = 0.02516649
#
# Stress axis : x y z
#
# Youngs Moduli (GPa) = 95.15630 67.94886 50.59382
#
# Poissons Ratio (x) = -0.01796 0.15697
# Poissons Ratio (y) = -0.02515 0.35791
# Poissons Ratio (z) = 0.29522 0.48068
#
# Static dielectric constant tensor:
#      x y z
#    x 1.811220 0.000000 0.000000 
#    y 0.000000 1.969280 0.000000 
#    z 0.000000 0.000000 0.624550 
# 
# From -- ./inp_files/28627.got.cif
#   From: 2010.05.17/outbox.cif.g08.bks.cpg/sg23_15_cif.got.tgz:28627.got - 2010.06.04 12:02:01.
