data_PCOD9331793
_publ_section_title
;
Structure prediction by ZEFSAII (Michael W. Deem and Ramdas Pophale) SiO2 
 PCOD9331793
Probable space group: I 2 2 2
;
_chemical_formula_sum "Si O2"
_cell_formula_units_Z 58
_cell_length_a 28.149512
_cell_length_b 20.192651
_cell_length_c 5.504791
_cell_angle_alpha 90.000000
_cell_angle_beta 90.000000
_cell_angle_gamma 90.000000
_cell_volume 3128.996262
_symmetry_space_group_name_H-M "I 2 2 2"
_symmetry_group_IT_number 23
_symmetry_cell_setting 'orthorhombic'
loop_
_space_group_symop_operation_xyz
x,y,z
-x,-y,z
x,-y,-z
-x,y,-z
1/2+x,1/2+y,1/2+z
1/2-x,1/2-y,1/2+z
1/2+x,1/2-y,1/2-z
1/2-x,1/2+y,1/2-z
loop_
_atom_site_type_symbol
_atom_site_label
_atom_site_fract_x
_atom_site_fract_y
_atom_site_fract_z
Si Si1 0.386323 0.739718 0.969809
Si Si2 0.428105 0.435806 0.342583
Si Si3 0.334677 0.386506 0.219097
Si Si4 0.500000 0.500000 0.000000
Si Si5 0.737251 0.923524 0.525961
Si Si6 0.308784 0.814506 0.189935
Si Si7 0.714889 0.672787 0.625186
Si Si8 0.943416 0.790253 0.026146
O O1 0.354295 0.805019 0.017852
O O2 0.419440 0.728722 0.211386
O O3 0.346368 0.680847 0.930336
O O4 0.415895 0.738487 0.715762
O O5 0.421006 0.500000 0.500000
O O6 0.381391 0.427590 0.181759
O O7 0.437511 0.369356 0.492336
O O8 0.471003 0.451290 0.168980
O O9 0.328136 0.366092 0.499395
O O10 0.286413 0.425599 0.176222
O O11 0.695642 0.880506 0.650606
O O12 0.758040 0.875636 0.313121
O O13 0.722753 0.000000 0.500000
O O14 0.306446 0.745654 0.334043
O O15 0.258002 0.813226 0.058301
O O16 0.000000 0.774378 0.000000
#
# Coordination Sequence:
#
# PCOD9331793 Si02
#       8
#     8   8   8   2   8   8   8   8
#     4  11  23  39  65  91 112 165 208 254 310 381
#     4  11  26  37  56  74 108 161 210 272 322 376
#     4  10  24  35  58  83 114 158 218 264 307 371
#     4  12  26  40  52  74 104 160 230 252 336 360
#     4  11  25  36  58  88 128 163 209 267 314 356
#     4  11  20  37  61  87 116 166 210 254 305 390
#     4  11  20  37  60  84 121 163 212 261 308 366
#     4  11  25  41  62  85 121 151 205 265 326 369
#
# _framework density 18.536294999999999
#
# number of rings (size 3 to 8) (size 9 to 14) (size 15 to 20)
#    0.000    1.103    2.759    3.931   12.552    1.655 
#    0.000    0.000    0.000    0.000    0.000    0.000 
#    0.000    0.552    0.828    0.000    0.000    0.000 
#
# Total GULP energy -161453.200667 kJ/mol
# GULP energy per Si atom -5567.351747 kJ/mol
# Density = 1.849411 g / cm^3
# Si number density = 18.536295 Si / 1000 Ang^3
#
#
#
# Elastic Constant Matrix: (Units=GPa)
#
#
# Indices 1 2 3 4 5 6 
#
# 1 76.6186 25.1774 15.9311 0.0000 0.0000 0.0000
# 2 25.1774 88.2756 26.7499 0.0000 0.0000 0.0000
# 3 15.9311 26.7499 52.3470 0.0000 0.0000 0.0000
# 4 0.0000 0.0000 0.0000 22.3698 0.0000 0.0000
# 5 0.0000 0.0000 0.0000 0.0000 35.0317 0.0000
# 6 0.0000 0.0000 0.0000 0.0000 0.0000 -22.8765
#
#
#
# Elastic Compliance Matrix: (Units=1/GPa)
#
#
# Indices 1 2 3 4 5 6 
#
# 1 0.014732 -0.003364 -0.002764 0.000000 0.000000 0.000000
# 2 -0.003364 0.014172 -0.006218 0.000000 0.000000 0.000000
# 3 -0.002764 -0.006218 0.023122 0.000000 0.000000 0.000000
# 4 0.000000 0.000000 0.000000 0.044703 0.000000 0.000000
# 5 0.000000 0.000000 0.000000 0.000000 0.028546 0.000000
# 6 0.000000 0.000000 0.000000 0.000000 0.000000 -0.043713
#
#
# Mechanical properties :
#
#
# Convention : Reuss Voigt Hill
#
# Bulk Modulus (GPa) = 36.58620 39.21754 37.90187
# Shear Modulus (GPa) = 43.34037 16.86386 30.10211
#
# Velocity S-wave (km/s) = 4.84067 3.01952 4.03420
# Velocity P-wave (km/s) = 7.14306 5.77579 6.49550
#
# Compressibility (1/GPa) = 0.02733271
#
# Stress axis : x y z
#
# Youngs Moduli (GPa) = 67.87993 70.56214 43.24858
#
# Poissons Ratio (x) = 0.23737 0.11956
# Poissons Ratio (y) = 0.22835 0.26893
# Poissons Ratio (z) = 0.18765 0.43877
#
# Static dielectric constant tensor:
#      x y z
#    x 1.683710 0.000000 0.000000 
#    y 0.000000 1.673180 0.000000 
#    z 0.000000 0.000000 1.975330 
# 
# From -- ./inp_files/5018.got.cif
#   From: 2010.05.17/outbox.cif.g08.bks.cpg/sg23_3_cif.got.tgz:5018.got - 2010.06.04 12:02:01.
