data_PCOD9331313
_publ_section_title
;
Structure prediction by ZEFSAII (Michael W. Deem and Ramdas Pophale) SiO2 
 PCOD9331313
Probable space group: I 2 2 2
;
_chemical_formula_sum "Si O2"
_cell_formula_units_Z 44
_cell_length_a 15.075028
_cell_length_b 12.118196
_cell_length_c 13.641204
_cell_angle_alpha 90.000000
_cell_angle_beta 90.000000
_cell_angle_gamma 90.000000
_cell_volume 2492.004394
_symmetry_space_group_name_H-M "I 2 2 2"
_symmetry_group_IT_number 23
_symmetry_cell_setting 'orthorhombic'
loop_
_space_group_symop_operation_xyz
x,y,z
-x,-y,z
x,-y,-z
-x,y,-z
1/2+x,1/2+y,1/2+z
1/2-x,1/2-y,1/2+z
1/2+x,1/2-y,1/2-z
1/2-x,1/2+y,1/2-z
loop_
_atom_site_type_symbol
_atom_site_label
_atom_site_fract_x
_atom_site_fract_y
_atom_site_fract_z
Si Si1 0.181113 0.230557 0.262568
Si Si2 0.471606 0.874811 0.196179
Si Si3 0.896772 0.001427 0.811600
Si Si4 0.353377 0.204130 0.971410
Si Si5 0.727581 0.500000 0.500000
Si Si6 0.870411 0.210252 0.321388
O O1 0.113752 0.332855 0.242666
O O2 0.131982 0.119456 0.231341
O O3 0.193305 0.233677 0.380411
O O4 0.273914 0.246827 0.210128
O O5 0.435876 0.852519 0.085521
O O6 0.553690 0.794108 0.215114
O O7 0.500000 0.000000 0.209931
O O8 0.833452 0.981480 0.904882
O O9 0.883886 0.907428 0.729472
O O10 0.000000 0.000000 0.840684
O O11 0.290750 0.106363 0.010782
O O12 0.376483 0.283818 0.060769
#
# Coordination Sequence:
#
# PCOD9331313 Si02
#       6
#     8   8   8   8   4   8
#     4  10  24  39  59  95 123 165 206 255 319 369
#     4  10  22  40  63  94 123 161 212 257 312 368
#     4  12  23  42  62  93 128 166 210 259 318 375
#     4  10  22  38  59  97 116 162 210 252 312 366
#     4  12  21  38  67  90 128 160 218 259 299 380
#     4  12  22  39  64  88 134 162 202 268 310 376
#
# _framework density 17.656469999999999
#
# number of rings (size 3 to 8) (size 9 to 14) (size 15 to 20)
#    1.091    0.000    5.455    1.909    2.545    1.455 
#    0.000    0.909    0.000    0.000    0.000    2.545 
#    0.000    0.000    0.000    0.000    0.000    0.000 
#
# Total GULP energy -122620.029176 kJ/mol
# GULP energy per Si atom -5573.637690 kJ/mol
# Density = 1.761628 g / cm^3
# Si number density = 17.656470 Si / 1000 Ang^3
#
#
#
# Elastic Constant Matrix: (Units=GPa)
#
#
# Indices 1 2 3 4 5 6 
#
# 1 116.6824 35.5659 5.6662 0.0000 0.0000 0.0000
# 2 35.5659 87.8540 33.0659 0.0000 0.0000 0.0000
# 3 5.6662 33.0659 41.2142 0.0000 0.0000 0.0000
# 4 0.0000 0.0000 0.0000 29.9613 0.0000 0.0000
# 5 0.0000 0.0000 0.0000 0.0000 29.5612 0.0000
# 6 0.0000 0.0000 0.0000 0.0000 0.0000 26.2252
#
#
#
# Elastic Compliance Matrix: (Units=1/GPa)
#
#
# Indices 1 2 3 4 5 6 
#
# 1 0.009979 -0.005048 0.002678 0.000000 0.000000 0.000000
# 2 -0.005048 0.018860 -0.014437 0.000000 0.000000 0.000000
# 3 0.002678 -0.014437 0.035478 0.000000 0.000000 0.000000
# 4 0.000000 0.000000 0.000000 0.033376 0.000000 0.000000
# 5 0.000000 0.000000 0.000000 0.000000 0.033828 0.000000
# 6 0.000000 0.000000 0.000000 0.000000 0.000000 0.038131
#
#
# Mechanical properties :
#
#
# Convention : Reuss Voigt Hill
#
# Bulk Modulus (GPa) = 32.57033 43.81629 38.19331
# Shear Modulus (GPa) = 23.41917 28.57970 25.99943
#
# Velocity S-wave (km/s) = 3.64590 4.02761 3.84150
# Velocity P-wave (km/s) = 6.01749 6.81900 6.43074
#
# Compressibility (1/GPa) = 0.03070279
#
# Stress axis : x y z
#
# Youngs Moduli (GPa) = 100.21278 53.02334 28.18640
#
# Poissons Ratio (x) = 0.26764 -0.07547
# Poissons Ratio (y) = 0.50582 0.40693
# Poissons Ratio (z) = -0.26834 0.76550
#
# Static dielectric constant tensor:
#      x y z
#    x 1.612210 0.000000 0.000000 
#    y 0.000000 1.577170 0.000000 
#    z 0.000000 0.000000 1.602060 
# 
# From -- ./inp_files/21497.got.cif
#   From: 2010.05.17/outbox.cif.g08.bks.cpg/sg23_11_cif.got.tgz:21497.got - 2010.06.04 12:02:01.
