data_PCOD9331473
_publ_section_title
;
Structure prediction by ZEFSAII (Michael W. Deem and Ramdas Pophale) SiO2 
 PCOD9331473
Probable space group: I 2 2 2
;
_chemical_formula_sum "Si O2"
_cell_formula_units_Z 48
_cell_length_a 13.252311
_cell_length_b 13.406736
_cell_length_c 10.211117
_cell_angle_alpha 90.000000
_cell_angle_beta 90.000000
_cell_angle_gamma 90.000000
_cell_volume 1814.211557
_symmetry_space_group_name_H-M "I 2 2 2"
_symmetry_group_IT_number 23
_symmetry_cell_setting 'orthorhombic'
loop_
_space_group_symop_operation_xyz
x,y,z
-x,-y,z
x,-y,-z
-x,y,-z
1/2+x,1/2+y,1/2+z
1/2-x,1/2-y,1/2+z
1/2+x,1/2-y,1/2-z
1/2-x,1/2+y,1/2-z
loop_
_atom_site_type_symbol
_atom_site_label
_atom_site_fract_x
_atom_site_fract_y
_atom_site_fract_z
Si Si1 0.000000 0.000000 0.253006
Si Si2 0.883378 0.280123 0.045471
Si Si3 0.360275 0.230487 0.888216
Si Si4 0.143416 0.500000 0.000000
Si Si5 0.115559 0.485852 0.307427
Si Si6 0.081006 0.207581 0.663695
Si Si7 0.190102 0.119498 0.158289
O O1 0.952813 0.091885 0.334420
O O2 0.096108 0.042445 0.173754
O O3 0.883080 0.241332 0.194052
O O4 0.825216 0.383914 0.020422
O O5 0.840662 0.189897 0.960892
O O6 0.000000 0.298480 0.000000
O O7 0.646544 0.266743 0.962421
O O8 0.317090 0.309730 0.785871
O O9 0.500000 0.000000 0.856367
O O10 0.334282 0.117316 0.854875
O O11 0.105207 0.514086 0.850144
O O12 0.979053 0.731274 0.356287
O O13 0.200611 0.567222 0.345679
#
# Coordination Sequence:
#
# PCOD9331473 Si02
#       7
#     4   8   8   4   8   8   8
#     4  10  22  48  84 126 168 226 282 358 448 510
#     4  12  21  47  85 128 168 226 298 361 437 521
#     4  10  22  49  78 129 170 226 294 357 437 517
#     4  12  25  48  92 123 174 241 298 360 435 536
#     4  12  26  52  87 125 175 240 295 358 446 526
#     4  10  22  41  89 121 179 222 283 368 438 521
#     4  11  26  48  87 126 171 224 294 366 433 517
#
# _framework density 26.457774000000001
#
# number of rings (size 3 to 8) (size 9 to 14) (size 15 to 20)
#    0.000    1.000    5.000    2.500    0.000    8.000 
#    9.000   14.167   18.333    0.000    0.000    0.000 
#    0.000    0.000    0.000    0.000    0.000    0.000 
#
# Total GULP energy -134266.723657 kJ/mol
# GULP energy per Si atom -5594.446819 kJ/mol
# Density = 2.639755 g / cm^3
# Si number density = 26.457774 Si / 1000 Ang^3
#
#
#
# Elastic Constant Matrix: (Units=GPa)
#
#
# Indices 1 2 3 4 5 6 
#
# 1 179.0376 62.9955 46.9184 0.0000 0.0000 0.0000
# 2 62.9955 227.3074 84.7328 0.0000 0.0000 0.0000
# 3 46.9184 84.7328 231.5147 0.0000 0.0000 0.0000
# 4 0.0000 0.0000 0.0000 35.9599 0.0000 0.0000
# 5 0.0000 0.0000 0.0000 0.0000 1.6237 0.0000
# 6 0.0000 0.0000 0.0000 0.0000 0.0000 37.0641
#
#
#
# Elastic Compliance Matrix: (Units=1/GPa)
#
#
# Indices 1 2 3 4 5 6 
#
# 1 0.006296 -0.001470 -0.000738 0.000000 0.000000 0.000000
# 2 -0.001470 0.005437 -0.001692 0.000000 0.000000 0.000000
# 3 -0.000738 -0.001692 0.005088 0.000000 0.000000 0.000000
# 4 0.000000 0.000000 0.000000 0.027809 0.000000 0.000000
# 5 0.000000 0.000000 0.000000 0.000000 0.615883 0.000000
# 6 0.000000 0.000000 0.000000 0.000000 0.000000 0.026980
#
#
# Mechanical properties :
#
#
# Convention : Reuss Voigt Hill
#
# Bulk Modulus (GPa) = 110.84316 114.12811 112.48564
# Shear Modulus (GPa) = 7.16023 44.47708 25.81866
#
# Velocity S-wave (km/s) = 1.64686 4.10452 3.12724
# Velocity P-wave (km/s) = 6.75289 8.10508 7.45969
#
# Compressibility (1/GPa) = 0.00902176
#
# Stress axis : x y z
#
# Youngs Moduli (GPa) = 158.83204 183.90967 196.52990
#
# Poissons Ratio (x) = 0.27030 0.14504
# Poissons Ratio (y) = 0.23344 0.33257
# Poissons Ratio (z) = 0.11722 0.31121
#
# Static dielectric constant tensor:
#      x y z
#    x 2.149480 0.000000 0.000000 
#    y 0.000000 2.038070 0.000000 
#    z 0.000000 0.000000 2.040120 
# 
# From -- ./inp_files/21563.got.cif
#   From: 2010.05.17/outbox.cif.g08.bks.cpg/sg23_11_cif.got.tgz:21563.got - 2010.06.04 12:02:01.
