data_PCOD9331412
_publ_section_title
;
Structure prediction by ZEFSAII (Michael W. Deem and Ramdas Pophale) SiO2 
 PCOD9331412
Probable space group: I 2 2 2
;
_chemical_formula_sum "Si O2"
_cell_formula_units_Z 38
_cell_length_a 13.020505
_cell_length_b 7.338395
_cell_length_c 15.101277
_cell_angle_alpha 90.000000
_cell_angle_beta 90.000000
_cell_angle_gamma 90.000000
_cell_volume 1442.921110
_symmetry_space_group_name_H-M "I 2 2 2"
_symmetry_group_IT_number 23
_symmetry_cell_setting 'orthorhombic'
loop_
_space_group_symop_operation_xyz
x,y,z
-x,-y,z
x,-y,-z
-x,y,-z
1/2+x,1/2+y,1/2+z
1/2-x,1/2-y,1/2+z
1/2+x,1/2-y,1/2-z
1/2-x,1/2+y,1/2-z
loop_
_atom_site_type_symbol
_atom_site_label
_atom_site_fract_x
_atom_site_fract_y
_atom_site_fract_z
Si Si1 0.000000 0.500000 0.500000
Si Si2 0.500000 0.500000 0.000000
Si Si3 0.139858 0.934076 0.647834
Si Si4 0.341160 0.871557 0.849561
Si Si5 0.102318 0.118640 0.154073
Si Si6 0.500000 0.000000 0.500000
Si Si7 0.135055 0.453551 0.852422
O O1 0.916328 0.425757 0.427806
O O2 0.570641 0.614550 0.935024
O O3 0.157035 0.151468 0.650972
O O4 0.091665 0.874386 0.739134
O O5 0.253894 0.866314 0.636090
O O6 0.222662 0.945901 0.859035
O O7 0.383677 0.925507 0.751820
O O8 0.117940 0.331095 0.129427
O O9 0.000000 0.000000 0.125356
O O10 0.569390 0.879261 0.433879
#
# Coordination Sequence:
#
# PCOD9331412 Si02
#       7
#     2   2   8   8   8   2   8
#     4  12  24  40  66 104 126 172 218 268 338 398
#     4  12  20  32  68 104 138 170 216 280 314 406
#     4  10  22  40  65  96 128 174 220 271 332 388
#     4  10  24  44  68  95 137 172 224 276 334 403
#     4  10  22  44  67  94 128 175 223 275 338 389
#     4  12  24  40  66  92 132 180 214 264 328 404
#     4  10  24  44  64  94 130 177 220 272 329 398
#
# _framework density 26.335464999999999
#
# number of rings (size 3 to 8) (size 9 to 14) (size 15 to 20)
#    0.000    1.684    1.053    1.895    5.895    1.684 
#    7.579    0.000    0.000    0.000    0.000    0.000 
#    0.000    0.000    0.000    0.000    0.000    0.000 
#
# Total GULP energy -105998.296701 kJ/mol
# GULP energy per Si atom -5578.857721 kJ/mol
# Density = 2.627552 g / cm^3
# Si number density = 26.335465 Si / 1000 Ang^3
#
#
#
# Elastic Constant Matrix: (Units=GPa)
#
#
# Indices 1 2 3 4 5 6 
#
# 1 182.0834 36.8649 73.2247 0.0000 0.0000 0.0000
# 2 36.8649 108.8524 38.7431 0.0000 0.0000 0.0000
# 3 73.2247 38.7431 132.4363 0.0000 0.0000 0.0000
# 4 0.0000 0.0000 0.0000 3.6774 0.0000 0.0000
# 5 0.0000 0.0000 0.0000 0.0000 67.8197 0.0000
# 6 0.0000 0.0000 0.0000 0.0000 0.0000 23.6185
#
#
#
# Elastic Compliance Matrix: (Units=1/GPa)
#
#
# Indices 1 2 3 4 5 6 
#
# 1 0.007186 -0.001138 -0.003640 0.000000 0.000000 0.000000
# 2 -0.001138 0.010435 -0.002423 0.000000 0.000000 0.000000
# 3 -0.003640 -0.002423 0.010273 0.000000 0.000000 0.000000
# 4 0.000000 0.000000 0.000000 0.271928 0.000000 0.000000
# 5 0.000000 0.000000 0.000000 0.000000 0.014745 0.000000
# 6 0.000000 0.000000 0.000000 0.000000 0.000000 0.042340
#
#
# Mechanical properties :
#
#
# Convention : Reuss Voigt Hill
#
# Bulk Modulus (GPa) = 74.12948 80.11527 77.12238
# Shear Modulus (GPa) = 13.30472 37.32574 25.31523
#
# Velocity S-wave (km/s) = 2.25011 3.76881 3.10378
# Velocity P-wave (km/s) = 5.91269 7.03034 6.49560
#
# Compressibility (1/GPa) = 0.01348991
#
# Stress axis : x y z
#
# Youngs Moduli (GPa) = 139.15133 95.83402 97.34673
#
# Poissons Ratio (x) = 0.10907 0.35439
# Poissons Ratio (y) = 0.15837 0.23590
# Poissons Ratio (z) = 0.50658 0.23224
#
# Static dielectric constant tensor:
#      x y z
#    x 2.263740 0.000000 0.000000 
#    y 0.000000 2.171640 0.000000 
#    z 0.000000 0.000000 1.980800 
# 
# From -- ./inp_files/20724.got.cif
#   From: 2010.05.17/outbox.cif.g08.bks.cpg/sg23_11_cif.got.tgz:20724.got - 2010.06.04 12:02:01.
