data_PCOD9331071
_publ_section_title
;
Structure prediction by ZEFSAII (Michael W. Deem and Ramdas Pophale) SiO2 
 PCOD9331071
Probable space group: I 2 2 2
;
_chemical_formula_sum "Si O2"
_cell_formula_units_Z 32
_cell_length_a 12.494477
_cell_length_b 17.165948
_cell_length_c 7.258740
_cell_angle_alpha 90.000000
_cell_angle_beta 90.000000
_cell_angle_gamma 90.000000
_cell_volume 1556.851234
_symmetry_space_group_name_H-M "I 2 2 2"
_symmetry_group_IT_number 23
_symmetry_cell_setting 'orthorhombic'
loop_
_space_group_symop_operation_xyz
x,y,z
-x,-y,z
x,-y,-z
-x,y,-z
1/2+x,1/2+y,1/2+z
1/2-x,1/2-y,1/2+z
1/2+x,1/2-y,1/2-z
1/2-x,1/2+y,1/2-z
loop_
_atom_site_type_symbol
_atom_site_label
_atom_site_fract_x
_atom_site_fract_y
_atom_site_fract_z
Si Si1 0.382877 0.317957 0.427621
Si Si2 0.377905 0.989481 0.780107
Si Si3 0.760993 0.667979 0.788688
Si Si4 0.825185 0.075074 0.387723
O O1 0.500000 0.296344 0.500000
O O2 0.310971 0.333506 0.606902
O O3 0.322997 0.247898 0.322417
O O4 0.387280 0.391578 0.288628
O O5 0.343863 0.902384 0.731727
O O6 0.500000 0.000000 0.722421
O O7 0.291531 0.047022 0.687220
O O8 0.371056 0.000000 0.000000
O O9 0.689977 0.643988 0.965025
O O10 0.868390 0.000000 0.500000
#
# Coordination Sequence:
#
# PCOD9331071 Si02
#       4
#     8   8   8   8
#     4  12  26  45  71 101 144 191 227 290 362 410
#     4  10  21  39  70 100 133 182 228 293 355 395
#     4  11  24  44  66 102 141 173 237 291 339 433
#     4  10  23  44  68  99 141 178 237 292 333 427
#
# _framework density 20.554307999999999
#
# number of rings (size 3 to 8) (size 9 to 14) (size 15 to 20)
#    0.000    1.250    5.000    0.000    3.500    4.500 
#    0.000   13.750    0.000    0.000    0.000    0.000 
#    0.000    0.000    0.000    0.000    0.000    0.000 
#
# Total GULP energy -89411.107756 kJ/mol
# GULP energy per Si atom -5588.194235 kJ/mol
# Density = 2.050753 g / cm^3
# Si number density = 20.554308 Si / 1000 Ang^3
#
#
#
# Elastic Constant Matrix: (Units=GPa)
#
#
# Indices 1 2 3 4 5 6 
#
# 1 53.5334 8.7802 27.9603 0.0000 0.0000 0.0000
# 2 8.7802 66.3499 44.1616 0.0000 0.0000 0.0000
# 3 27.9603 44.1616 147.8766 0.0000 0.0000 0.0000
# 4 0.0000 0.0000 0.0000 42.9955 0.0000 0.0000
# 5 0.0000 0.0000 0.0000 0.0000 -0.6021 0.0000
# 6 0.0000 0.0000 0.0000 0.0000 0.0000 11.1383
#
#
#
# Elastic Compliance Matrix: (Units=1/GPa)
#
#
# Indices 1 2 3 4 5 6 
#
# 1 0.020728 -0.000168 -0.003869 0.000000 0.000000 0.000000
# 2 -0.000168 0.018812 -0.005586 0.000000 0.000000 0.000000
# 3 -0.003869 -0.005586 0.009162 0.000000 0.000000 0.000000
# 4 0.000000 0.000000 0.000000 0.023258 0.000000 0.000000
# 5 0.000000 0.000000 0.000000 0.000000 -1.660721 0.000000
# 6 0.000000 0.000000 0.000000 0.000000 0.000000 0.089780
#
#
# Mechanical properties :
#
#
# Convention : Reuss Voigt Hill
#
# Bulk Modulus (GPa) = 33.94880 47.72935 40.83907
# Shear Modulus (GPa) = -3.40156 23.16352 9.88098
#
# Velocity S-wave (km/s) = -1.28783 3.36064 2.19492
# Velocity P-wave (km/s) = 3.78697 6.19112 5.13182
#
# Compressibility (1/GPa) = 0.02945613
#
# Stress axis : x y z
#
# Youngs Moduli (GPa) = 48.24324 53.15774 109.14354
#
# Poissons Ratio (x) = 0.00892 0.42230
# Poissons Ratio (y) = 0.00809 0.60970
# Poissons Ratio (z) = 0.18666 0.29695
#
# Static dielectric constant tensor:
#      x y z
#    x 1.723670 0.000000 0.000000 
#    y 0.000000 1.717650 0.000000 
#    z 0.000000 0.000000 1.784530 
# 
# From -- ./inp_files/7917.got.cif
#   From: 2010.05.17/outbox.cif.g08.bks.cpg/sg23_4_cif.got.tgz:7917.got - 2010.06.04 12:02:01.
