data_PCOD9331954
_publ_section_title
;
Structure prediction by ZEFSAII (Michael W. Deem and Ramdas Pophale) SiO2 
 PCOD9331954
Probable space group: I 2 2 2
;
_chemical_formula_sum "Si O2"
_cell_formula_units_Z 40
_cell_length_a 7.857377
_cell_length_b 12.763418
_cell_length_c 16.908902
_cell_angle_alpha 90.000000
_cell_angle_beta 90.000000
_cell_angle_gamma 90.000000
_cell_volume 1695.742836
_symmetry_space_group_name_H-M "I 2 2 2"
_symmetry_group_IT_number 23
_symmetry_cell_setting 'orthorhombic'
loop_
_space_group_symop_operation_xyz
x,y,z
-x,-y,z
x,-y,-z
-x,y,-z
1/2+x,1/2+y,1/2+z
1/2-x,1/2-y,1/2+z
1/2+x,1/2-y,1/2-z
1/2-x,1/2+y,1/2-z
loop_
_atom_site_type_symbol
_atom_site_label
_atom_site_fract_x
_atom_site_fract_y
_atom_site_fract_z
Si Si1 0.038818 0.669823 0.213043
Si Si2 0.825281 0.446191 0.662256
Si Si3 0.327340 0.069193 0.433227
Si Si4 0.218133 0.832533 0.849258
Si Si5 0.687487 0.691083 0.479276
O O1 0.174534 0.605300 0.159327
O O2 0.143419 0.710877 0.287796
O O3 0.887352 0.603413 0.254588
O O4 0.947988 0.760681 0.162816
O O5 0.698253 0.544447 0.669995
O O6 0.763216 0.363926 0.597532
O O7 0.000000 0.500000 0.632719
O O8 0.326455 0.184223 0.470563
O O9 0.500000 0.000000 0.426980
O O10 0.226366 0.000000 0.500000
O O11 0.284749 0.826138 0.938571
O O12 0.500000 0.646624 0.500000
#
# Coordination Sequence:
#
# PCOD9331954 Si02
#       5
#     8   8   8   8   8
#     4  11  23  42  66  99 132 183 231 286 354 417
#     4  10  25  43  67  96 139 184 230 292 361 405
#     4  11  19  39  68  96 132 174 230 280 335 409
#     4  11  23  41  63  93 138 178 226 287 344 410
#     4  12  23  41  67 102 136 181 239 279 344 437
#
# _framework density 23.588483
#
# number of rings (size 3 to 8) (size 9 to 14) (size 15 to 20)
#    0.000    1.000    4.000    3.600    0.000    7.200 
#    0.000    0.000    0.000    0.000    0.000   22.400 
#    0.000    0.000    0.000    0.000    0.000    0.000 
#
# Total GULP energy -111335.449391 kJ/mol
# GULP energy per Si atom -5566.772470 kJ/mol
# Density = 2.353479 g / cm^3
# Si number density = 23.588483 Si / 1000 Ang^3
#
#
#
# Elastic Constant Matrix: (Units=GPa)
#
#
# Indices 1 2 3 4 5 6 
#
# 1 33.2513 42.2034 16.5589 0.0000 0.0000 0.0000
# 2 42.2034 147.0769 54.4358 0.0000 0.0000 0.0000
# 3 16.5589 54.4358 163.6290 0.0000 0.0000 0.0000
# 4 0.0000 0.0000 0.0000 50.3125 0.0000 0.0000
# 5 0.0000 0.0000 0.0000 0.0000 35.3124 0.0000
# 6 0.0000 0.0000 0.0000 0.0000 0.0000 24.9210
#
#
#
# Elastic Compliance Matrix: (Units=1/GPa)
#
#
# Indices 1 2 3 4 5 6 
#
# 1 0.047315 -0.013462 -0.000310 0.000000 0.000000 0.000000
# 2 -0.013462 0.011584 -0.002491 0.000000 0.000000 0.000000
# 3 -0.000310 -0.002491 0.006972 0.000000 0.000000 0.000000
# 4 0.000000 0.000000 0.000000 0.019876 0.000000 0.000000
# 5 0.000000 0.000000 0.000000 0.000000 0.028319 0.000000
# 6 0.000000 0.000000 0.000000 0.000000 0.000000 0.040127
#
#
# Mechanical properties :
#
#
# Convention : Reuss Voigt Hill
#
# Bulk Modulus (GPa) = 29.99040 63.37260 46.68150
# Shear Modulus (GPa) = 25.27382 37.49313 31.38348
#
# Velocity S-wave (km/s) = 3.27685 3.99114 3.65150
# Velocity P-wave (km/s) = 5.20179 6.93997 6.13277
#
# Compressibility (1/GPa) = 0.03334400
#
# Stress axis : x y z
#
# Youngs Moduli (GPa) = 21.13503 86.32384 143.43965
#
# Poissons Ratio (x) = 1.16212 0.04440
# Poissons Ratio (y) = 0.28453 0.35738
# Poissons Ratio (z) = 0.00654 0.21507
#
# Static dielectric constant tensor:
#      x y z
#    x 1.984520 0.000000 0.000000 
#    y 0.000000 1.937060 0.000000 
#    z 0.000000 0.000000 2.017960 
# 
# From -- ./inp_files/23564.got.cif
#   From: 2010.05.17/outbox.cif.g08.bks.cpg/sg23_12_cif.got.tgz:23564.got - 2010.06.04 12:02:01.
