data_PCOD9331897
_publ_section_title
;
Structure prediction by ZEFSAII (Michael W. Deem and Ramdas Pophale) SiO2 
 PCOD9331897
Probable space group: I 2 2 2
;
_chemical_formula_sum "Si O2"
_cell_formula_units_Z 26
_cell_length_a 20.339731
_cell_length_b 5.376172
_cell_length_c 9.277305
_cell_angle_alpha 90.000000
_cell_angle_beta 90.000000
_cell_angle_gamma 90.000000
_cell_volume 1014.472302
_symmetry_space_group_name_H-M "I 2 2 2"
_symmetry_group_IT_number 23
_symmetry_cell_setting 'orthorhombic'
loop_
_space_group_symop_operation_xyz
x,y,z
-x,-y,z
x,-y,-z
-x,y,-z
1/2+x,1/2+y,1/2+z
1/2-x,1/2-y,1/2+z
1/2+x,1/2-y,1/2-z
1/2-x,1/2+y,1/2-z
loop_
_atom_site_type_symbol
_atom_site_label
_atom_site_fract_x
_atom_site_fract_y
_atom_site_fract_z
Si Si1 0.978659 0.742559 0.724020
Si Si2 0.653352 0.438794 0.836775
Si Si3 0.000000 0.500000 0.000000
Si Si4 0.201021 0.744305 0.906129
O O1 0.900536 0.764646 0.738440
O O2 0.000000 0.500000 0.642442
O O3 0.017678 0.701978 0.875695
O O4 0.000000 0.000000 0.660755
O O5 0.724581 0.312055 0.853976
O O6 0.661811 0.683283 0.738256
O O7 0.632973 0.500000 0.000000
O O8 0.180671 0.500000 0.000000
O O9 0.199783 0.000000 0.000000
#
# Coordination Sequence:
#
# PCOD9331897 Si02
#       4
#     8   8   2   8
#     4  10  24  45  73 107 143 194 252 312 376 446
#     4  11  25  49  76 114 161 199 261 324 388 462
#     4   8  22  48  70 102 142 180 260 292 372 448
#     4  11  26  48  75 113 158 213 260 315 392 472
#
# _framework density 25.629086999999998
#
# number of rings (size 3 to 8) (size 9 to 14) (size 15 to 20)
#    0.923    0.615    0.000    4.154    0.000   12.923 
#   13.846    1.538    0.000    0.000    0.000    0.000 
#    0.000    0.000    0.000    0.000    0.000    0.000 
#
# Total GULP energy -72467.694686 kJ/mol
# GULP energy per Si atom -5574.438053 kJ/mol
# Density = 2.557075 g / cm^3
# Si number density = 25.629087 Si / 1000 Ang^3
#
#
#
# Elastic Constant Matrix: (Units=GPa)
#
#
# Indices 1 2 3 4 5 6 
#
# 1 88.6717 59.8087 57.7571 0.0000 0.0000 0.0000
# 2 59.8087 241.8312 82.8553 0.0000 0.0000 0.0000
# 3 57.7571 82.8553 160.8518 0.0000 0.0000 0.0000
# 4 0.0000 0.0000 0.0000 -175.1861 0.0000 0.0000
# 5 0.0000 0.0000 0.0000 0.0000 0.9492 0.0000
# 6 0.0000 0.0000 0.0000 0.0000 0.0000 38.6684
#
#
#
# Elastic Compliance Matrix: (Units=1/GPa)
#
#
# Indices 1 2 3 4 5 6 
#
# 1 0.015774 -0.002381 -0.004438 0.000000 0.000000 0.000000
# 2 -0.002381 0.005381 -0.001917 0.000000 0.000000 0.000000
# 3 -0.004438 -0.001917 0.008798 0.000000 0.000000 0.000000
# 4 0.000000 0.000000 0.000000 -0.005708 0.000000 0.000000
# 5 0.000000 0.000000 0.000000 0.000000 1.053507 0.000000
# 6 0.000000 0.000000 0.000000 0.000000 0.000000 0.025861
#
#
# Mechanical properties :
#
#
# Convention : Reuss Voigt Hill
#
# Bulk Modulus (GPa) = 80.11555 99.13297 89.62426
# Shear Modulus (GPa) = 4.44349 -7.71810 -1.63731
#
# Velocity S-wave (km/s) = 1.31815 -1.73724 -0.80015
# Velocity P-wave (km/s) = 5.80036 5.89405 5.84739
#
# Compressibility (1/GPa) = 0.01248197
#
# Stress axis : x y z
#
# Youngs Moduli (GPa) = 63.39626 185.85276 113.66719
#
# Poissons Ratio (x) = 0.44246 0.50441
# Poissons Ratio (y) = 0.15093 0.21787
# Poissons Ratio (z) = 0.28133 0.35623
#
# Static dielectric constant tensor:
#      x y z
#    x 2.132230 0.000000 0.000000 
#    y 0.000000 2.019370 0.000000 
#    z 0.000000 0.000000 1.990540 
# 
# From -- ./inp_files/12335.got.cif
#   From: 2010.05.17/outbox.cif.g08.bks.cpg/sg23_7_cif.got.tgz:12335.got - 2010.06.04 12:02:01.
