data_PCOD9331541
_publ_section_title
;
Structure prediction by ZEFSAII (Michael W. Deem and Ramdas Pophale) SiO2 
 PCOD9331541
Probable space group: I 2 2 2
;
_chemical_formula_sum "Si O2"
_cell_formula_units_Z 26
_cell_length_a 10.517976
_cell_length_b 16.701796
_cell_length_c 5.702265
_cell_angle_alpha 90.000000
_cell_angle_beta 90.000000
_cell_angle_gamma 90.000000
_cell_volume 1001.711701
_symmetry_space_group_name_H-M "I 2 2 2"
_symmetry_group_IT_number 23
_symmetry_cell_setting 'orthorhombic'
loop_
_space_group_symop_operation_xyz
x,y,z
-x,-y,z
x,-y,-z
-x,y,-z
1/2+x,1/2+y,1/2+z
1/2-x,1/2-y,1/2+z
1/2+x,1/2-y,1/2-z
1/2-x,1/2+y,1/2-z
loop_
_atom_site_type_symbol
_atom_site_label
_atom_site_fract_x
_atom_site_fract_y
_atom_site_fract_z
Si Si1 0.000000 0.000000 0.000000
Si Si2 0.107697 0.852192 0.297901
Si Si3 0.362722 0.184537 0.423228
Si Si4 0.354209 0.029881 0.241448
O O1 0.069993 0.064385 0.825727
O O2 0.246671 0.839193 0.411910
O O3 0.116132 0.777148 0.121168
O O4 0.000000 0.837841 0.500000
O O5 0.500000 0.153077 0.500000
O O6 0.338979 0.125588 0.207028
O O7 0.500000 0.000000 0.238537
O O8 0.305953 0.000000 0.500000
O O9 0.295505 0.000000 0.000000
#
# Coordination Sequence:
#
# PCOD9331541 Si02
#       4
#     2   8   8   8
#     4  12  30  64  88 128 198 264 298 378 494 616
#     4  12  30  58  89 128 183 247 310 383 490 580
#     4  12  26  54  86 133 170 232 319 388 469 552
#     4  10  22  43  71 124 165 212 273 377 459 529
#
# _framework density 25.955570000000002
#
# number of rings (size 3 to 8) (size 9 to 14) (size 15 to 20)
#    0.000    0.615    4.615    2.308    4.308    4.923 
#    8.308    0.000    0.000    0.000    0.000    0.000 
#    0.000    0.000    0.000    0.000    0.000    0.000 
#
# Total GULP energy -72491.850654 kJ/mol
# GULP energy per Si atom -5576.296204 kJ/mol
# Density = 2.589649 g / cm^3
# Si number density = 25.955570 Si / 1000 Ang^3
#
#
#
# Elastic Constant Matrix: (Units=GPa)
#
#
# Indices 1 2 3 4 5 6 
#
# 1 186.6190 71.7040 82.5686 0.0000 -0.0001 0.0000
# 2 71.7040 266.7188 80.1289 0.0001 0.0001 0.0001
# 3 82.5686 80.1289 141.1047 0.0019 0.0010 0.0011
# 4 0.0000 0.0001 0.0019 49.8442 0.0003 0.0000
# 5 -0.0001 0.0001 0.0010 0.0003 32.5645 0.0005
# 6 0.0000 0.0001 0.0011 0.0000 0.0005 93.1150
#
#
#
# Elastic Compliance Matrix: (Units=1/GPa)
#
#
# Indices 1 2 3 4 5 6 
#
# 1 0.007379 -0.000828 -0.003848 0.000000 0.000000 0.000000
# 2 -0.000828 0.004613 -0.002135 0.000000 0.000000 0.000000
# 3 -0.003848 -0.002135 0.010551 0.000000 0.000000 0.000000
# 4 0.000000 0.000000 0.000000 0.020063 0.000000 0.000000
# 5 0.000000 0.000000 0.000000 0.000000 0.030708 0.000000
# 6 0.000000 0.000000 0.000000 0.000000 0.000000 0.010739
#
#
# Mechanical properties :
#
#
# Convention : Reuss Voigt Hill
#
# Bulk Modulus (GPa) = 112.08859 118.13839 115.11349
# Shear Modulus (GPa) = 49.67734 59.10747 54.39240
#
# Velocity S-wave (km/s) = 4.37960 4.77724 4.58273
# Velocity P-wave (km/s) = 8.29778 8.72031 8.51166
#
# Compressibility (1/GPa) = 0.00892151
#
# Stress axis : x y z
#
# Youngs Moduli (GPa) = 135.51949 216.76336 94.77655
#
# Poissons Ratio (x) = 0.17943 0.36468
# Poissons Ratio (y) = 0.11218 0.20238
# Poissons Ratio (z) = 0.52145 0.46287
#
# Static dielectric constant tensor:
#      x y z
#    x 1.905470 0.000000 0.000000 
#    y 0.000000 2.112080 0.000000 
#    z 0.000000 0.000000 1.956080 
# 
# From -- ./inp_files/1143.got.cif
#   From: 2010.05.17/outbox.cif.g08.bks.cpg/sg23_1_cif.got.tgz:1143.got - 2010.06.04 12:02:01.
