data_PCOD9331065
_publ_section_title
;
Structure prediction by ZEFSAII (Michael W. Deem and Ramdas Pophale) SiO2 
 PCOD9331065
Probable space group: I 2 2 2
;
_chemical_formula_sum "Si O2"
_cell_formula_units_Z 48
_cell_length_a 31.305445
_cell_length_b 8.602183
_cell_length_c 7.858334
_cell_angle_alpha 90.000000
_cell_angle_beta 90.000000
_cell_angle_gamma 90.000000
_cell_volume 2116.211365
_symmetry_space_group_name_H-M "I 2 2 2"
_symmetry_group_IT_number 23
_symmetry_cell_setting 'orthorhombic'
loop_
_space_group_symop_operation_xyz
x,y,z
-x,-y,z
x,-y,-z
-x,y,-z
1/2+x,1/2+y,1/2+z
1/2-x,1/2-y,1/2+z
1/2+x,1/2-y,1/2-z
1/2-x,1/2+y,1/2-z
loop_
_atom_site_type_symbol
_atom_site_label
_atom_site_fract_x
_atom_site_fract_y
_atom_site_fract_z
Si Si1 0.316008 0.753989 0.215380
Si Si2 0.994560 0.679171 0.201504
Si Si3 0.082673 0.281971 0.680636
Si Si4 0.095445 0.627396 0.713177
Si Si5 0.841737 0.067603 0.190111
Si Si6 0.732799 0.329855 0.907682
O O1 0.356032 0.854060 0.270404
O O2 0.338144 0.586351 0.195440
O O3 0.278001 0.762788 0.350457
O O4 0.292784 0.781831 0.036411
O O5 0.945300 0.726448 0.226165
O O6 0.000000 0.500000 0.267733
O O7 0.033358 0.768973 0.293694
O O8 0.000000 0.681011 0.000000
O O9 0.085267 0.451113 0.767377
O O10 0.094861 0.328022 0.487526
O O11 0.117120 0.167382 0.761314
O O12 0.798012 0.153659 0.243521
O O13 0.843033 0.000000 0.000000
O O14 0.738781 0.500000 0.000000
#
# Coordination Sequence:
#
# PCOD9331065 Si02
#       6
#     8   8   8   8   8   8
#     4  11  23  42  65  91 128 172 220 273 337 404
#     4   9  19  37  62  97 130 161 212 277 335 390
#     4  10  21  40  64  95 131 166 219 269 336 405
#     4  10  21  39  68  94 125 173 220 277 326 403
#     4  11  24  41  64  94 133 177 215 277 339 406
#     4  10  23  44  63  95 132 173 230 283 336 407
#
# _framework density 22.682044999999999
#
# number of rings (size 3 to 8) (size 9 to 14) (size 15 to 20)
#    0.000    1.833    1.667    1.500    2.333    6.000 
#    6.000    0.833    0.000    2.000    0.000    0.000 
#    0.000    0.000    0.000    0.000    0.000    0.000 
#
# Total GULP energy -133815.144149 kJ/mol
# GULP energy per Si atom -5575.631006 kJ/mol
# Density = 2.263042 g / cm^3
# Si number density = 22.682045 Si / 1000 Ang^3
#
#
#
# Elastic Constant Matrix: (Units=GPa)
#
#
# Indices 1 2 3 4 5 6 
#
# 1 225.5533 46.1063 48.9161 0.0000 0.0000 0.0000
# 2 46.1063 37.9404 12.4844 0.0000 0.0000 0.0000
# 3 48.9161 12.4844 79.2056 0.0000 0.0000 0.0000
# 4 0.0000 0.0000 0.0000 22.6812 0.0000 0.0000
# 5 0.0000 0.0000 0.0000 0.0000 32.0423 0.0000
# 6 0.0000 0.0000 0.0000 0.0000 0.0000 29.0724
#
#
#
# Elastic Compliance Matrix: (Units=1/GPa)
#
#
# Indices 1 2 3 4 5 6 
#
# 1 0.006478 -0.006915 -0.002911 0.000000 0.000000 0.000000
# 2 -0.006915 0.035180 -0.001275 0.000000 0.000000 0.000000
# 3 -0.002911 -0.001275 0.014624 0.000000 0.000000 0.000000
# 4 0.000000 0.000000 0.000000 0.044089 0.000000 0.000000
# 5 0.000000 0.000000 0.000000 0.000000 0.031209 0.000000
# 6 0.000000 0.000000 0.000000 0.000000 0.000000 0.034397
#
#
# Mechanical properties :
#
#
# Convention : Reuss Voigt Hill
#
# Bulk Modulus (GPa) = 29.34165 61.96812 45.65489
# Shear Modulus (GPa) = 25.05787 32.43868 28.74827
#
# Velocity S-wave (km/s) = 3.32738 3.78583 3.56398
# Velocity P-wave (km/s) = 5.26555 6.81833 6.09162
#
# Compressibility (1/GPa) = 0.03408125
#
# Stress axis : x y z
#
# Youngs Moduli (GPa) = 154.36062 28.42559 68.38050
#
# Poissons Ratio (x) = 0.19656 0.19906
# Poissons Ratio (y) = 1.06737 0.08716
# Poissons Ratio (z) = 0.44934 0.03623
#
# Static dielectric constant tensor:
#      x y z
#    x 1.904440 0.000000 0.000000 
#    y 0.000000 1.930420 0.000000 
#    z 0.000000 0.000000 1.961470 
# 
# From -- ./inp_files/7368.got.cif
#   From: 2010.05.17/outbox.cif.g08.bks.cpg/sg23_4_cif.got.tgz:7368.got - 2010.06.04 12:02:01.
