data_PCOD9331671
_publ_section_title
;
Structure prediction by ZEFSAII (Michael W. Deem and Ramdas Pophale) SiO2 
 PCOD9331671
Probable space group: I 2 2 2
;
_chemical_formula_sum "Si O2"
_cell_formula_units_Z 48
_cell_length_a 13.320741
_cell_length_b 10.020646
_cell_length_c 16.393002
_cell_angle_alpha 90.000000
_cell_angle_beta 90.000000
_cell_angle_gamma 90.000000
_cell_volume 2188.177742
_symmetry_space_group_name_H-M "I 2 2 2"
_symmetry_group_IT_number 23
_symmetry_cell_setting 'orthorhombic'
loop_
_space_group_symop_operation_xyz
x,y,z
-x,-y,z
x,-y,-z
-x,y,-z
1/2+x,1/2+y,1/2+z
1/2-x,1/2-y,1/2+z
1/2+x,1/2-y,1/2-z
1/2-x,1/2+y,1/2-z
loop_
_atom_site_type_symbol
_atom_site_label
_atom_site_fract_x
_atom_site_fract_y
_atom_site_fract_z
Si Si1 0.719160 0.004206 0.594430
Si Si2 0.741496 0.702478 0.418587
Si Si3 0.917089 0.898720 0.673589
Si Si4 0.096315 0.728641 0.938171
Si Si5 0.976522 0.654433 0.404461
Si Si6 0.896288 0.982461 0.146919
O O1 0.806230 0.928861 0.641979
O O2 0.616754 0.921170 0.591496
O O3 0.754647 0.000000 0.500000
O O4 0.708073 0.157058 0.623028
O O5 0.693056 0.725401 0.507973
O O6 0.858919 0.690171 0.401610
O O7 0.693539 0.563167 0.392011
O O8 0.957546 0.753162 0.651153
O O9 0.911279 0.941377 0.768035
O O10 0.000000 0.000000 0.635594
O O11 0.106523 0.823404 0.858719
O O12 0.000000 0.735024 0.000000
O O13 0.000000 0.500000 0.385046
O O14 0.000000 0.675390 0.500000
O O15 0.000000 0.000000 0.097164
#
# Coordination Sequence:
#
# PCOD9331671 Si02
#       6
#     8   8   8   8   8   8
#     4  10  23  41  68 105 134 182 228 294 352 413
#     4  11  23  42  66 104 136 182 238 289 356 413
#     4  11  24  46  68  99 144 188 233 281 362 429
#     4  11  23  43  72 102 138 182 236 294 347 420
#     4  11  25  43  71 108 143 182 242 301 348 422
#     4  11  25  44  67  98 137 191 231 283 354 419
#
# _framework density 21.936060999999999
#
# number of rings (size 3 to 8) (size 9 to 14) (size 15 to 20)
#    0.000    1.167    3.333    2.500    7.000    4.333 
#    0.000    0.000    0.000    0.000    0.000    0.000 
#    0.000    0.000    0.000    0.000    0.000    0.000 
#
# Total GULP energy -133678.533242 kJ/mol
# GULP energy per Si atom -5569.938885 kJ/mol
# Density = 2.188613 g / cm^3
# Si number density = 21.936061 Si / 1000 Ang^3
#
#
#
# Elastic Constant Matrix: (Units=GPa)
#
#
# Indices 1 2 3 4 5 6 
#
# 1 61.8815 65.6184 17.0329 0.0000 0.0000 0.0000
# 2 65.6184 169.8761 45.2222 0.0000 0.0000 0.0000
# 3 17.0329 45.2222 53.4151 0.0000 0.0000 0.0000
# 4 0.0000 0.0000 0.0000 15.2063 0.0000 0.0000
# 5 0.0000 0.0000 0.0000 0.0000 13.5242 0.0000
# 6 0.0000 0.0000 0.0000 0.0000 0.0000 36.1212
#
#
#
# Elastic Compliance Matrix: (Units=1/GPa)
#
#
# Indices 1 2 3 4 5 6 
#
# 1 0.027374 -0.010651 0.000288 0.000000 0.000000 0.000000
# 2 -0.010651 0.011743 -0.006546 0.000000 0.000000 0.000000
# 3 0.000288 -0.006546 0.024171 0.000000 0.000000 0.000000
# 4 0.000000 0.000000 0.000000 0.065762 0.000000 0.000000
# 5 0.000000 0.000000 0.000000 0.000000 0.073941 0.000000
# 6 0.000000 0.000000 0.000000 0.000000 0.000000 0.027685
#
#
# Mechanical properties :
#
#
# Convention : Reuss Voigt Hill
#
# Bulk Modulus (GPa) = 33.93059 60.10220 47.01640
# Shear Modulus (GPa) = 18.22702 23.45695 20.84199
#
# Velocity S-wave (km/s) = 2.88569 3.27361 3.08575
# Velocity P-wave (km/s) = 5.15795 6.46119 5.84600
#
# Compressibility (1/GPa) = 0.02947193
#
# Stress axis : x y z
#
# Youngs Moduli (GPa) = 36.53038 85.15554 41.37146
#
# Poissons Ratio (x) = 0.90696 -0.01191
# Poissons Ratio (y) = 0.38907 0.27081
# Poissons Ratio (z) = -0.01052 0.55741
#
# Static dielectric constant tensor:
#      x y z
#    x 1.849120 0.000000 0.000000 
#    y 0.000000 1.927070 0.000000 
#    z 0.000000 0.000000 1.873890 
# 
# From -- ./inp_files/24728.got.cif
#   From: 2010.05.17/outbox.cif.g08.bks.cpg/sg23_13_cif.got.tgz:24728.got - 2010.06.04 12:02:01.
