data_PCOD9331356
_publ_section_title
;
Structure prediction by ZEFSAII (Michael W. Deem and Ramdas Pophale) SiO2 
 PCOD9331356
Probable space group: I 2 2 2
;
_chemical_formula_sum "Si O2"
_cell_formula_units_Z 64
_cell_length_a 9.643548
_cell_length_b 25.041594
_cell_length_c 14.064539
_cell_angle_alpha 90.000000
_cell_angle_beta 90.000000
_cell_angle_gamma 90.000000
_cell_volume 3396.442903
_symmetry_space_group_name_H-M "I 2 2 2"
_symmetry_group_IT_number 23
_symmetry_cell_setting 'orthorhombic'
loop_
_space_group_symop_operation_xyz
x,y,z
-x,-y,z
x,-y,-z
-x,y,-z
1/2+x,1/2+y,1/2+z
1/2-x,1/2-y,1/2+z
1/2+x,1/2-y,1/2-z
1/2-x,1/2+y,1/2-z
loop_
_atom_site_type_symbol
_atom_site_label
_atom_site_fract_x
_atom_site_fract_y
_atom_site_fract_z
Si Si1 0.087136 0.250000 0.403033
Si Si2 0.521388 0.837496 0.242524
Si Si3 0.267780 0.088721 0.743461
Si Si4 0.767780 0.911279 0.243461
Si Si5 0.665589 0.493626 0.611397
Si Si6 0.580225 0.250000 0.599398
Si Si7 0.334411 0.006374 0.388603
Si Si8 0.021388 0.162504 0.742524
O O1 0.041594 0.300791 0.340014
O O2 0.253367 0.250000 0.415880
O O3 0.041594 0.199209 0.340014
O O4 0.000000 0.250000 0.500000
O O5 0.421626 0.888045 0.254619
O O6 0.670813 0.861451 0.218515
O O7 0.537656 0.801177 0.336503
O O8 0.259558 0.041571 0.667024
O O9 0.170813 0.138549 0.718515
O O10 0.219364 0.061500 0.842313
O O11 0.759558 0.958429 0.167024
O O12 0.921626 0.888045 0.245381
O O13 0.719364 0.938500 0.342313
O O14 0.500000 0.500000 0.626927
O O15 0.691932 0.500000 0.500000
O O16 0.500000 0.250000 0.500000
O O17 0.537656 0.301177 0.663497
O O18 0.500000 0.000000 0.373073
O O19 0.308068 0.000000 0.500000
#
# Coordination Sequence:
#
# PCOD9331356 Si02
#       8
#     8   8   8   8   8   8   8   8
#     4  11  26  42  63  97 129 161 209 263 310 368
#     4  11  24  43  64  88 130 167 209 252 313 374
#     4  11  22  41  64  91 124 168 204 257 310 368
#     4  11  22  41  64  91 124 168 204 257 310 368
#     4  10  22  39  63  93 124 160 210 259 307 370
#     4  11  26  42  65  95 125 165 211 259 312 372
#     4  10  22  39  63  93 124 160 210 259 307 370
#     4  11  24  43  64  88 130 167 209 252 313 374
#
# _framework density 18.843242
#
# number of rings (size 3 to 8) (size 9 to 14) (size 15 to 20)
#    0.000    1.250    5.000    0.000    3.500    4.000 
#    0.000    1.250    0.000    0.000    0.000    0.000 
#    0.000    0.000    0.000    0.000    0.000    0.000 
#
# Total GULP energy -178706.581653 kJ/mol
# GULP energy per Si atom -5584.580677 kJ/mol
# Density = 1.880035 g / cm^3
# Si number density = 18.843242 Si / 1000 Ang^3
#
#
#
# Elastic Constant Matrix: (Units=GPa)
#
#
# Indices 1 2 3 4 5 6 
#
# 1 59.4374 0.3000 62.6983 0.0000 0.0000 0.0000
# 2 0.3000 71.6650 45.4682 0.0000 0.0000 0.0000
# 3 62.6983 45.4682 132.7310 0.0000 0.0000 0.0000
# 4 0.0000 0.0000 0.0000 9.3933 0.0000 0.0000
# 5 0.0000 0.0000 0.0000 0.0000 28.5491 0.0000
# 6 0.0000 0.0000 0.0000 0.0000 0.0000 42.9846
#
#
#
# Elastic Compliance Matrix: (Units=1/GPa)
#
#
# Indices 1 2 3 4 5 6 
#
# 1 0.045820 0.017301 -0.027571 0.000000 0.000000 0.000000
# 2 0.017301 0.024361 -0.016517 0.000000 0.000000 0.000000
# 3 -0.027571 -0.016517 0.026216 0.000000 0.000000 0.000000
# 4 0.000000 0.000000 0.000000 0.106459 0.000000 0.000000
# 5 0.000000 0.000000 0.000000 0.000000 0.035027 0.000000
# 6 0.000000 0.000000 0.000000 0.000000 0.000000 0.023264
#
#
# Mechanical properties :
#
#
# Convention : Reuss Voigt Hill
#
# Bulk Modulus (GPa) = 23.35242 53.41850 38.38546
# Shear Modulus (GPa) = 15.19771 26.54319 20.87045
#
# Velocity S-wave (km/s) = 2.84303 3.75725 3.33165
# Velocity P-wave (km/s) = 4.81633 6.87262 5.93422
#
# Compressibility (1/GPa) = 0.04282212
#
# Stress axis : x y z
#
# Youngs Moduli (GPa) = 21.82432 41.04949 38.14495
#
# Poissons Ratio (x) = -0.71018 1.05168
# Poissons Ratio (y) = -0.37757 0.63005
# Poissons Ratio (z) = 0.60171 0.67803
#
# Static dielectric constant tensor:
#      x y z
#    x 1.636340 0.000000 0.000000 
#    y 0.000000 1.661360 0.000000 
#    z 0.000000 0.000000 1.619870 
# 
# From -- ./inp_files/20341.got.cif
#   From: 2010.05.17/outbox.cif.g08.bks.cpg/sg23_11_cif.got.tgz:20341.got - 2010.06.04 12:02:01.
