data_PCOD9331391
_publ_section_title
;
Structure prediction by ZEFSAII (Michael W. Deem and Ramdas Pophale) SiO2 
 PCOD9331391
Probable space group: I 2 2 2
;
_chemical_formula_sum "Si O2"
_cell_formula_units_Z 32
_cell_length_a 7.560517
_cell_length_b 17.367380
_cell_length_c 12.444248
_cell_angle_alpha 90.000000
_cell_angle_beta 90.000000
_cell_angle_gamma 90.000000
_cell_volume 1634.009054
_symmetry_space_group_name_H-M "I 2 2 2"
_symmetry_group_IT_number 23
_symmetry_cell_setting 'orthorhombic'
loop_
_space_group_symop_operation_xyz
x,y,z
-x,-y,z
x,-y,-z
-x,y,-z
1/2+x,1/2+y,1/2+z
1/2-x,1/2-y,1/2+z
1/2+x,1/2-y,1/2-z
1/2-x,1/2+y,1/2-z
loop_
_atom_site_type_symbol
_atom_site_label
_atom_site_fract_x
_atom_site_fract_y
_atom_site_fract_z
Si Si1 0.543427 0.409236 0.620992
Si Si2 0.552448 0.085458 0.171461
Si Si3 0.251111 0.194307 0.201946
Si Si4 0.981665 0.669300 0.125197
O O1 0.500000 0.500000 0.629241
O O2 0.500000 0.382924 0.500000
O O3 0.749919 0.397356 0.637593
O O4 0.416140 0.363014 0.701083
O O5 0.406470 0.148870 0.137722
O O6 0.546454 0.094027 0.301406
O O7 0.500000 0.000000 0.136868
O O8 0.341512 0.205119 0.318555
O O9 0.178392 0.272349 0.151641
O O10 0.000000 0.656991 0.000000
#
# Coordination Sequence:
#
# PCOD9331391 Si02
#       4
#     8   8   8   8
#     4  11  21  38  61  92 129 164 210 262 321 382
#     4  10  22  42  62  93 131 167 212 265 317 374
#     4  10  22  40  62  90 128 162 205 270 304 385
#     4  10  22  42  65  90 124 168 210 256 323 370
#
# _framework density 19.583735999999998
#
# number of rings (size 3 to 8) (size 9 to 14) (size 15 to 20)
#    1.500    0.250    2.500    2.250    0.000    1.500 
#    4.500    3.750    0.000    1.500    0.000    0.000 
#    0.000    0.000    0.000    0.000    0.000    0.000 
#
# Total GULP energy -89158.105063 kJ/mol
# GULP energy per Si atom -5572.381566 kJ/mol
# Density = 1.953916 g / cm^3
# Si number density = 19.583736 Si / 1000 Ang^3
#
#
#
# Elastic Constant Matrix: (Units=GPa)
#
#
# Indices 1 2 3 4 5 6 
#
# 1 164.3824 28.2783 35.2867 0.0000 0.0000 0.0000
# 2 28.2783 54.4303 1.0892 0.0000 0.0000 0.0000
# 3 35.2867 1.0892 101.2350 0.0000 0.0000 0.0000
# 4 0.0000 0.0000 0.0000 6.5075 0.0000 0.0000
# 5 0.0000 0.0000 0.0000 0.0000 23.7218 0.0000
# 6 0.0000 0.0000 0.0000 0.0000 0.0000 37.9332
#
#
#
# Elastic Compliance Matrix: (Units=1/GPa)
#
#
# Indices 1 2 3 4 5 6 
#
# 1 0.007258 -0.003721 -0.002490 0.000000 0.000000 0.000000
# 2 -0.003721 0.020284 0.001079 0.000000 0.000000 0.000000
# 3 -0.002490 0.001079 0.010734 0.000000 0.000000 0.000000
# 4 0.000000 0.000000 0.000000 0.153669 0.000000 0.000000
# 5 0.000000 0.000000 0.000000 0.000000 0.042155 0.000000
# 6 0.000000 0.000000 0.000000 0.000000 0.000000 0.026362
#
#
# Mechanical properties :
#
#
# Convention : Reuss Voigt Hill
#
# Bulk Modulus (GPa) = 35.69912 49.92845 42.81379
# Shear Modulus (GPa) = 17.85307 30.65872 24.25589
#
# Velocity S-wave (km/s) = 3.02259 3.96096 3.52316
# Velocity P-wave (km/s) = 5.51815 6.81683 6.20157
#
# Compressibility (1/GPa) = 0.02801189
#
# Stress axis : x y z
#
# Youngs Moduli (GPa) = 137.78009 49.30073 93.15967
#
# Poissons Ratio (x) = 0.18344 0.23195
# Poissons Ratio (y) = 0.51267 -0.10049
# Poissons Ratio (z) = 0.34305 -0.05318
#
# Static dielectric constant tensor:
#      x y z
#    x 1.684380 0.000000 0.000000 
#    y 0.000000 1.703630 0.000000 
#    z 0.000000 0.000000 1.696280 
# 
# From -- ./inp_files/6615.got.cif
#   From: 2010.05.17/outbox.cif.g08.bks.cpg/sg23_4_cif.got.tgz:6615.got - 2010.06.04 12:02:01.
