data_PCOD9331038
_publ_section_title
;
Structure prediction by ZEFSAII (Michael W. Deem and Ramdas Pophale) SiO2 
 PCOD9331038
Probable space group: I 2 2 2
;
_chemical_formula_sum "Si O2"
_cell_formula_units_Z 48
_cell_length_a 9.348634
_cell_length_b 7.542926
_cell_length_c 28.390070
_cell_angle_alpha 90.000000
_cell_angle_beta 90.000000
_cell_angle_gamma 90.000000
_cell_volume 2001.955722
_symmetry_space_group_name_H-M "I 2 2 2"
_symmetry_group_IT_number 23
_symmetry_cell_setting 'orthorhombic'
loop_
_space_group_symop_operation_xyz
x,y,z
-x,-y,z
x,-y,-z
-x,y,-z
1/2+x,1/2+y,1/2+z
1/2-x,1/2-y,1/2+z
1/2+x,1/2-y,1/2-z
1/2-x,1/2+y,1/2-z
loop_
_atom_site_type_symbol
_atom_site_label
_atom_site_fract_x
_atom_site_fract_y
_atom_site_fract_z
Si Si1 0.297710 0.607037 0.156202
Si Si2 0.500000 0.257760 0.000000
Si Si3 0.871139 0.130734 0.903572
Si Si4 0.000000 0.000000 0.579036
Si Si5 0.534129 0.711392 0.758282
Si Si6 0.261023 0.000000 0.000000
Si Si7 0.222307 0.716118 0.312836
Si Si8 0.500000 0.000000 0.622418
O O1 0.389215 0.616104 0.108808
O O2 0.357987 0.729525 0.197199
O O3 0.336193 0.405371 0.170687
O O4 0.128674 0.602053 0.149090
O O5 0.427204 0.367862 0.042004
O O6 0.371404 0.143952 0.979579
O O7 0.753649 0.112568 0.861236
O O8 0.920563 0.337122 0.903745
O O9 0.824679 0.074364 0.955746
O O10 0.000000 0.000000 0.890027
O O11 0.500000 0.500000 0.751656
O O12 0.626693 0.753146 0.712399
O O13 0.394881 0.827469 0.772514
#
# Coordination Sequence:
#
# PCOD9331038 Si02
#       8
#     8   4   8   4   8   4   8   4
#     4  10  21  40  67  96 139 181 249 295 355 454
#     4  10  24  40  76 100 142 180 240 302 374 432
#     4  11  25  47  72 104 150 190 243 308 364 447
#     4  11  20  44  72 104 132 192 238 301 368 450
#     4  10  21  39  64  98 141 189 239 304 359 448
#     4  11  25  48  68 108 145 181 238 310 364 448
#     4  10  21  40  67  97 143 192 240 301 374 425
#     4  10  24  42  75 100 136 200 234 291 378 428
#
# _framework density 23.976555000000001
#
# number of rings (size 3 to 8) (size 9 to 14) (size 15 to 20)
#    0.000    1.667    2.500    2.750    7.000    0.000 
#    0.000    0.833    7.333    0.000    0.000    0.000 
#    0.000    0.000    0.000    0.000    0.000    0.000 
#
# Total GULP energy -133878.970999 kJ/mol
# GULP energy per Si atom -5578.290458 kJ/mol
# Density = 2.392198 g / cm^3
# Si number density = 23.976555 Si / 1000 Ang^3
#
#
#
# Elastic Constant Matrix: (Units=GPa)
#
#
# Indices 1 2 3 4 5 6 
#
# 1 116.6594 9.6424 46.4368 0.0000 0.0000 0.0000
# 2 9.6424 54.3574 20.1940 0.0000 0.0000 0.0000
# 3 46.4368 20.1940 133.6640 0.0000 0.0000 0.0000
# 4 0.0000 0.0000 0.0000 232.3269 0.0000 0.0000
# 5 0.0000 0.0000 0.0000 0.0000 36.2602 0.0000
# 6 0.0000 0.0000 0.0000 0.0000 0.0000 34.1022
#
#
#
# Elastic Compliance Matrix: (Units=1/GPa)
#
#
# Indices 1 2 3 4 5 6 
#
# 1 0.009961 -0.000510 -0.003384 0.000000 0.000000 0.000000
# 2 -0.000510 0.019517 -0.002771 0.000000 0.000000 0.000000
# 3 -0.003384 -0.002771 0.009076 0.000000 0.000000 0.000000
# 4 0.000000 0.000000 0.000000 0.004304 0.000000 0.000000
# 5 0.000000 0.000000 0.000000 0.000000 0.027578 0.000000
# 6 0.000000 0.000000 0.000000 0.000000 0.000000 0.029324
#
#
# Mechanical properties :
#
#
# Convention : Reuss Voigt Hill
#
# Bulk Modulus (GPa) = 39.64550 50.80299 45.22425
# Shear Modulus (GPa) = 41.15315 75.76506 58.45911
#
# Velocity S-wave (km/s) = 4.14743 5.62745 4.94315
# Velocity P-wave (km/s) = 6.28537 7.96611 7.17513
#
# Compressibility (1/GPa) = 0.02522355
#
# Stress axis : x y z
#
# Youngs Moduli (GPa) = 100.39213 51.23790 110.18503
#
# Poissons Ratio (x) = 0.02613 0.37281
# Poissons Ratio (y) = 0.05120 0.30537
# Poissons Ratio (z) = 0.33968 0.14200
#
# Static dielectric constant tensor:
#      x y z
#    x 1.909320 0.000000 0.000000 
#    y 0.000000 1.969290 0.000000 
#    z 0.000000 0.000000 1.938500 
# 
# From -- ./inp_files/30281.got.cif
#   From: 2010.05.17/outbox.cif.g08.bks.cpg/sg23_16_cif.got.tgz:30281.got - 2010.06.04 12:02:01.
