data_PCOD9331753
_publ_section_title
;
Structure prediction by ZEFSAII (Michael W. Deem and Ramdas Pophale) SiO2 
 PCOD9331753
Probable space group: I 2 2 2
;
_chemical_formula_sum "Si O2"
_cell_formula_units_Z 54
_cell_length_a 31.081698
_cell_length_b 11.672895
_cell_length_c 6.380341
_cell_angle_alpha 90.000000
_cell_angle_beta 90.000000
_cell_angle_gamma 90.000000
_cell_volume 2314.873193
_symmetry_space_group_name_H-M "I 2 2 2"
_symmetry_group_IT_number 23
_symmetry_cell_setting 'orthorhombic'
loop_
_space_group_symop_operation_xyz
x,y,z
-x,-y,z
x,-y,-z
-x,y,-z
1/2+x,1/2+y,1/2+z
1/2-x,1/2-y,1/2+z
1/2+x,1/2-y,1/2-z
1/2-x,1/2+y,1/2-z
loop_
_atom_site_type_symbol
_atom_site_label
_atom_site_fract_x
_atom_site_fract_y
_atom_site_fract_z
Si Si1 0.107319 0.152034 0.653362
Si Si2 0.824613 0.000000 0.500000
Si Si3 0.640365 0.099387 0.826242
Si Si4 0.599440 0.217865 0.462552
Si Si5 0.036906 0.181593 0.331744
Si Si6 0.808847 0.221682 0.765962
Si Si7 0.230020 0.379381 0.551918
Si Si8 0.000000 0.000000 0.000000
O O1 0.144183 0.058764 0.670991
O O2 0.085381 0.184632 0.869987
O O3 0.073810 0.125814 0.474557
O O4 0.129367 0.273139 0.587865
O O5 0.803735 0.891236 0.384492
O O6 0.612449 0.109993 0.611228
O O7 0.691730 0.101516 0.779580
O O8 0.701875 0.163896 0.141399
O O9 0.631100 0.000000 0.000000
O O10 0.561428 0.215375 0.292890
O O11 0.644597 0.265058 0.369697
O O12 0.000000 0.215868 0.500000
O O13 0.022213 0.087570 0.164846
O O14 0.768582 0.207297 0.919546
O O15 0.250660 0.500000 0.500000
#
# Coordination Sequence:
#
# PCOD9331753 Si02
#       8
#     8   4   8   8   8   8   8   2
#     4  10  24  43  70 107 141 188 242 297 368 455
#     4  12  24  40  69  98 146 196 236 308 353 462
#     4   9  20  46  71 102 139 186 248 307 367 441
#     4  10  23  44  73 103 143 196 240 300 382 440
#     4  12  25  43  66 107 153 184 250 297 364 460
#     4  12  25  42  66 101 143 197 253 297 383 439
#     4  11  25  42  64  97 147 189 251 320 356 435
#     4  12  30  40  68 110 142 216 214 312 380 432
#
# _framework density 23.32741
#
# number of rings (size 3 to 8) (size 9 to 14) (size 15 to 20)
#    0.889    0.296    2.963    2.000    8.296    0.000 
#    0.000    5.926    0.000    0.444    3.852    0.000 
#    0.000    0.000    0.000    0.000    0.000    0.000 
#
# Total GULP energy -150391.136993 kJ/mol
# GULP energy per Si atom -5570.042111 kJ/mol
# Density = 2.327432 g / cm^3
# Si number density = 23.327410 Si / 1000 Ang^3
#
#
#
# Elastic Constant Matrix: (Units=GPa)
#
#
# Indices 1 2 3 4 5 6 
#
# 1 101.0467 26.1959 50.4354 0.0000 0.0000 0.0000
# 2 26.1959 98.4273 28.8824 0.0000 0.0000 0.0000
# 3 50.4354 28.8824 101.7327 0.0000 -0.0003 0.0000
# 4 0.0000 0.0000 0.0000 33.3700 -0.0001 0.0000
# 5 0.0000 0.0000 -0.0003 -0.0001 45.1102 0.0000
# 6 0.0000 0.0000 0.0000 0.0000 0.0000 19.6333
#
#
#
# Elastic Compliance Matrix: (Units=1/GPa)
#
#
# Indices 1 2 3 4 5 6 
#
# 1 0.013427 -0.001767 -0.006155 0.000000 0.000000 0.000000
# 2 -0.001767 0.011316 -0.002336 0.000000 0.000000 0.000000
# 3 -0.006155 -0.002336 0.013544 0.000000 0.000000 0.000000
# 4 0.000000 0.000000 0.000000 0.029967 0.000000 0.000000
# 5 0.000000 0.000000 0.000000 0.000000 0.022168 0.000000
# 6 0.000000 0.000000 0.000000 0.000000 0.000000 0.050934
#
#
# Mechanical properties :
#
#
# Convention : Reuss Voigt Hill
#
# Bulk Modulus (GPa) = 56.27550 56.91490 56.59520
# Shear Modulus (GPa) = 29.79821 32.66892 31.23357
#
# Velocity S-wave (km/s) = 3.57794 3.74632 3.66310
# Velocity P-wave (km/s) = 6.42226 6.56997 6.49653
#
# Compressibility (1/GPa) = 0.01776972
#
# Stress axis : x y z
#
# Youngs Moduli (GPa) = 74.47928 88.37238 73.83215
#
# Poissons Ratio (x) = 0.15619 0.45441
# Poissons Ratio (y) = 0.13163 0.17250
# Poissons Ratio (z) = 0.45839 0.20647
#
# Static dielectric constant tensor:
#      x y z
#    x 1.901750 0.000000 0.000000 
#    y 0.000000 1.880260 0.000000 
#    z 0.000000 0.000000 2.045590 
# 
# From -- ./inp_files/5402.got.cif
#   From: 2010.05.17/outbox.cif.g08.bks.cpg/sg23_3_cif.got.tgz:5402.got - 2010.06.04 12:02:01.
