data_PCOD9331241
_publ_section_title
;
Structure prediction by ZEFSAII (Michael W. Deem and Ramdas Pophale) SiO2 
 PCOD9331241
Probable space group: I 2 2 2
;
_chemical_formula_sum "Si O2"
_cell_formula_units_Z 28
_cell_length_a 11.891992
_cell_length_b 7.816881
_cell_length_c 14.606822
_cell_angle_alpha 90.000000
_cell_angle_beta 90.000000
_cell_angle_gamma 90.000000
_cell_volume 1357.825142
_symmetry_space_group_name_H-M "I 2 2 2"
_symmetry_group_IT_number 23
_symmetry_cell_setting 'orthorhombic'
loop_
_space_group_symop_operation_xyz
x,y,z
-x,-y,z
x,-y,-z
-x,y,-z
1/2+x,1/2+y,1/2+z
1/2-x,1/2-y,1/2+z
1/2+x,1/2-y,1/2-z
1/2-x,1/2+y,1/2-z
loop_
_atom_site_type_symbol
_atom_site_label
_atom_site_fract_x
_atom_site_fract_y
_atom_site_fract_z
Si Si1 0.999133 0.809815 0.347722
Si Si2 0.342358 0.804029 0.994905
Si Si3 0.500000 0.000000 0.717949
Si Si4 0.382747 0.168739 0.449714
O O1 0.911376 0.806682 0.431467
O O2 0.960631 0.656228 0.281605
O O3 0.119479 0.762734 0.394793
O O4 0.000000 0.000000 0.306301
O O5 0.214286 0.801176 0.029458
O O6 0.380127 0.000000 0.000000
O O7 0.412830 0.900894 0.650937
O O8 0.500000 0.214940 0.500000
O O9 0.337702 0.000000 0.500000
#
# Coordination Sequence:
#
# PCOD9331241 Si02
#       4
#     8   8   4   8
#     4  11  21  40  69  96 128 167 220 277 327 379
#     4  11  20  40  67  94 128 174 218 267 331 398
#     4  10  21  45  58  98 130 164 218 271 315 392
#     4   9  21  43  63  83 134 174 206 261 329 395
#
# _framework density 20.621212
#
# number of rings (size 3 to 8) (size 9 to 14) (size 15 to 20)
#    0.000    2.000    2.857    4.286    0.000    0.571 
#   25.714    0.000    0.000    0.000    0.000    0.000 
#    0.000    0.000    0.000    0.000    0.000    0.000 
#
# Total GULP energy -77940.922960 kJ/mol
# GULP energy per Si atom -5567.208783 kJ/mol
# Density = 2.057428 g / cm^3
# Si number density = 20.621212 Si / 1000 Ang^3
#
#
#
# Elastic Constant Matrix: (Units=GPa)
#
#
# Indices 1 2 3 4 5 6 
#
# 1 88.8339 43.1376 26.7495 0.0000 0.0000 0.0000
# 2 43.1376 107.7308 14.5441 0.0000 0.0000 0.0000
# 3 26.7495 14.5441 79.4558 0.0000 0.0000 0.0000
# 4 0.0000 0.0000 0.0000 3.1843 0.0000 0.0000
# 5 0.0000 0.0000 0.0000 0.0000 11.0304 0.0000
# 6 0.0000 0.0000 0.0000 0.0000 0.0000 15.5201
#
#
#
# Elastic Compliance Matrix: (Units=1/GPa)
#
#
# Indices 1 2 3 4 5 6 
#
# 1 0.015172 -0.005522 -0.004097 0.000000 0.000000 0.000000
# 2 -0.005522 0.011527 -0.000251 0.000000 0.000000 0.000000
# 3 -0.004097 -0.000251 0.014011 0.000000 0.000000 0.000000
# 4 0.000000 0.000000 0.000000 0.314046 0.000000 0.000000
# 5 0.000000 0.000000 0.000000 0.000000 0.090658 0.000000
# 6 0.000000 0.000000 0.000000 0.000000 0.000000 0.064432
#
#
# Mechanical properties :
#
#
# Convention : Reuss Voigt Hill
#
# Bulk Modulus (GPa) = 47.68676 49.43144 48.55910
# Shear Modulus (GPa) = 9.31832 18.71958 14.01895
#
# Velocity S-wave (km/s) = 2.12805 3.01621 2.61019
# Velocity P-wave (km/s) = 5.40495 6.01276 5.71694
#
# Compressibility (1/GPa) = 0.02097018
#
# Stress axis : x y z
#
# Youngs Moduli (GPa) = 65.91004 86.74941 71.37313
#
# Poissons Ratio (x) = 0.47904 0.29242
# Poissons Ratio (y) = 0.36396 0.01791
# Poissons Ratio (z) = 0.27004 0.02177
#
# Static dielectric constant tensor:
#      x y z
#    x 1.799360 0.000000 0.000000 
#    y 0.000000 1.707200 0.000000 
#    z 0.000000 0.000000 1.782170 
# 
# From -- ./inp_files/20468.got.cif
#   From: 2010.05.17/outbox.cif.g08.bks.cpg/sg23_11_cif.got.tgz:20468.got - 2010.06.04 12:02:01.
