data_PCOD9331033
_publ_section_title
;
Structure prediction by ZEFSAII (Michael W. Deem and Ramdas Pophale) SiO2 
 PCOD9331033
Probable space group: I 2 2 2
;
_chemical_formula_sum "Si O2"
_cell_formula_units_Z 48
_cell_length_a 8.594838
_cell_length_b 8.700633
_cell_length_c 29.511073
_cell_angle_alpha 90.000000
_cell_angle_beta 90.000000
_cell_angle_gamma 90.000000
_cell_volume 2206.853713
_symmetry_space_group_name_H-M "I 2 2 2"
_symmetry_group_IT_number 23
_symmetry_cell_setting 'orthorhombic'
loop_
_space_group_symop_operation_xyz
x,y,z
-x,-y,z
x,-y,-z
-x,y,-z
1/2+x,1/2+y,1/2+z
1/2-x,1/2-y,1/2+z
1/2+x,1/2-y,1/2-z
1/2-x,1/2+y,1/2-z
loop_
_atom_site_type_symbol
_atom_site_label
_atom_site_fract_x
_atom_site_fract_y
_atom_site_fract_z
Si Si1 0.500000 0.500000 0.415390
Si Si2 0.402940 0.246559 0.113493
Si Si3 0.000000 0.793169 0.000000
Si Si4 0.800480 0.892601 0.701432
Si Si5 0.666831 0.677704 0.012157
Si Si6 0.707090 0.902680 0.861195
Si Si7 0.867335 0.228197 0.728796
O O1 0.552940 0.378445 0.453665
O O2 0.376495 0.412765 0.383613
O O3 0.340961 0.371286 0.149121
O O4 0.335162 0.293937 0.065730
O O5 0.589744 0.218000 0.113987
O O6 0.347529 0.078794 0.130947
O O7 0.831075 0.721411 0.988911
O O8 0.662124 0.792379 0.721409
O O9 0.952631 0.814540 0.723846
O O10 0.784322 0.067738 0.716589
O O11 0.652661 0.500000 0.000000
O O12 0.500000 0.756782 0.000000
O O13 0.688874 0.852304 0.808776
#
# Coordination Sequence:
#
# PCOD9331033 Si02
#       7
#     4   8   4   8   8   8   8
#     4  11  22  38  62  88 128 162 210 272 331 390
#     4  10  21  41  64  92 126 171 219 269 327 399
#     4  11  23  42  60  96 129 169 220 280 328 401
#     4  10  22  40  64  92 131 168 216 265 325 389
#     4  11  24  42  68  93 129 178 222 280 339 399
#     4  10  21  39  64  94 128 166 216 267 326 397
#     4  10  22  39  63  94 128 171 210 267 320 394
#
# _framework density 21.750420999999999
#
# number of rings (size 3 to 8) (size 9 to 14) (size 15 to 20)
#    0.000    1.667    1.667    2.250    0.000   11.333 
#    0.000    0.000    0.000    0.000    0.000    0.000 
#    0.000    0.000    0.000    0.000    0.000    0.000 
#
# Total GULP energy -133627.198872 kJ/mol
# GULP energy per Si atom -5567.799953 kJ/mol
# Density = 2.170092 g / cm^3
# Si number density = 21.750421 Si / 1000 Ang^3
#
#
#
# Elastic Constant Matrix: (Units=GPa)
#
#
# Indices 1 2 3 4 5 6 
#
# 1 68.4735 15.4636 41.7780 0.0000 0.0000 0.0000
# 2 15.4636 56.6846 18.5613 0.0000 0.0000 0.0000
# 3 41.7780 18.5613 61.5459 0.0000 0.0000 0.0000
# 4 0.0000 0.0000 0.0000 48.5426 0.0000 0.0000
# 5 0.0000 0.0000 0.0000 0.0000 28.8638 0.0000
# 6 0.0000 0.0000 0.0000 0.0000 0.0000 16.4979
#
#
#
# Elastic Compliance Matrix: (Units=1/GPa)
#
#
# Indices 1 2 3 4 5 6 
#
# 1 0.025029 -0.001403 -0.016567 0.000000 0.000000 0.000000
# 2 -0.001403 0.019653 -0.004975 0.000000 0.000000 0.000000
# 3 -0.016567 -0.004975 0.028994 0.000000 0.000000 0.000000
# 4 0.000000 0.000000 0.000000 0.020600 0.000000 0.000000
# 5 0.000000 0.000000 0.000000 0.000000 0.034646 0.000000
# 6 0.000000 0.000000 0.000000 0.000000 0.000000 0.060614
#
#
# Mechanical properties :
#
#
# Convention : Reuss Voigt Hill
#
# Bulk Modulus (GPa) = 35.98792 37.58996 36.78894
# Shear Modulus (GPa) = 20.43423 26.17425 23.30424
#
# Velocity S-wave (km/s) = 3.06843 3.47276 3.27683
# Velocity P-wave (km/s) = 5.39773 5.77927 5.59175
#
# Compressibility (1/GPa) = 0.02778711
#
# Stress axis : x y z
#
# Youngs Moduli (GPa) = 39.95355 50.88229 34.48984
#
# Poissons Ratio (x) = 0.07140 0.57139
# Poissons Ratio (y) = 0.05606 0.17157
# Poissons Ratio (z) = 0.66190 0.25312
#
# Static dielectric constant tensor:
#      x y z
#    x 1.949950 0.000000 0.000000 
#    y 0.000000 1.819500 0.000000 
#    z 0.000000 0.000000 1.785960 
# 
# From -- ./inp_files/13380.got.cif
#   From: 2010.05.17/outbox.cif.g08.bks.cpg/sg23_7_cif.got.tgz:13380.got - 2010.06.04 12:02:01.
