data_PCOD9332909
_publ_section_title
;
Structure prediction by ZEFSAII (Michael W. Deem and Ramdas Pophale) SiO2 
 PCOD9332909
Probable space group: I 21 21 21
;
_chemical_formula_sum "Si O2"
_cell_formula_units_Z 36
_cell_length_a 7.768440
_cell_length_b 25.722181
_cell_length_c 7.183989
_cell_angle_alpha 90.000000
_cell_angle_beta 90.000000
_cell_angle_gamma 90.000000
_cell_volume 1435.513445
_symmetry_space_group_name_H-M "I 21 21 21"
_symmetry_group_IT_number 24
_symmetry_cell_setting 'orthorhombic'
loop_
_space_group_symop_operation_xyz
x,y,z
-x,1/2-y,z
x,-y,1/2-z
1/2-x,y,-z
1/2+x,1/2+y,1/2+z
1/2-x,-y,1/2+z
1/2+x,1/2-y,-z
-x,1/2+y,1/2-z
loop_
_atom_site_type_symbol
_atom_site_label
_atom_site_fract_x
_atom_site_fract_y
_atom_site_fract_z
Si Si1 0.424592 0.870090 0.304502
Si Si2 0.156110 0.290238 0.204232
Si Si3 0.724325 0.942305 0.279393
Si Si4 0.050889 0.108065 0.241495
Si Si5 0.000000 0.750000 0.751191
O O1 0.591703 0.897630 0.216242
O O2 0.249358 0.887359 0.203318
O O3 0.428953 0.890484 0.516382
O O4 0.432154 0.807495 0.319193
O O5 0.316116 0.269789 0.323255
O O6 0.000000 0.250000 0.178476
O O7 0.060573 0.340414 0.281166
O O8 0.250000 0.298181 0.000000
O O9 0.750000 0.935051 0.500000
O O10 0.918368 0.936806 0.198975
O O11 0.654924 0.000000 0.250000
#
# Coordination Sequence:
#
# PCOD9332909 Si02
#       5
#     8   8   8   8   4
#     4  10  19  27  45  72 105 136 170 210 266 320
#     4  12  17  21  35  62  99 138 166 193 252 324
#     4  10  21  38  54  73 104 139 180 223 260 302
#     4  10  18  28  42  69 101 137 170 207 256 312
#     4  12  18  24  40  68 108 140 162 204 272 332
#
# _framework density 25.078133000000001
#
# number of rings (size 3 to 8) (size 9 to 14) (size 15 to 20)
#    0.000    1.333    7.778    0.667    0.000    0.889 
#    0.000    0.000    0.000    0.000    0.000    0.000 
#   10.000    0.000    0.000    0.000    0.000    0.000 
#
# Total GULP energy -100261.035013 kJ/mol
# GULP energy per Si atom -5570.057501 kJ/mol
# Density = 2.502105 g / cm^3
# Si number density = 25.078133 Si / 1000 Ang^3
#
#
#
# Elastic Constant Matrix: (Units=GPa)
#
#
# Indices 1 2 3 4 5 6 
#
# 1 226.9735 50.8575 7.9775 -0.0002 -0.0008 -0.0001
# 2 50.8575 98.7822 -16.5267 -0.0008 0.0001 0.0002
# 3 7.9775 -16.5267 76.7941 -0.0009 -0.0028 -0.0005
# 4 -0.0002 -0.0008 -0.0009 -3.1153 -0.0002 0.0000
# 5 -0.0008 0.0001 -0.0028 -0.0002 -29.4580 0.0001
# 6 -0.0001 0.0002 -0.0005 0.0000 0.0001 34.3388
#
#
#
# Elastic Compliance Matrix: (Units=1/GPa)
#
#
# Indices 1 2 3 4 5 6 
#
# 1 0.005073 -0.002801 -0.001130 0.000001 0.000000 0.000000
# 2 -0.002801 0.012048 0.002884 -0.000004 0.000000 0.000000
# 3 -0.001130 0.002884 0.013760 -0.000005 -0.000001 0.000000
# 4 0.000001 -0.000004 -0.000005 -0.320999 0.000002 0.000000
# 5 0.000000 0.000000 -0.000001 0.000002 -0.033947 0.000000
# 6 0.000000 0.000000 0.000000 0.000000 0.000000 0.029122
#
#
# Mechanical properties :
#
#
# Convention : Reuss Voigt Hill
#
# Bulk Modulus (GPa) = 34.73812 54.12960 44.43386
# Shear Modulus (GPa) = -17.65197 24.36921 3.35862
#
# Velocity S-wave (km/s) = -2.65595 3.12064 1.15852
# Velocity P-wave (km/s) = 2.11580 5.88352 4.42111
#
# Compressibility (1/GPa) = 0.02878682
#
# Stress axis : x y z
#
# Youngs Moduli (GPa) = 197.11831 83.00298 72.67552
#
# Poissons Ratio (x) = 0.23248 0.08211
# Poissons Ratio (y) = 0.55210 -0.20958
# Poissons Ratio (z) = 0.22270 -0.23936
#
# Static dielectric constant tensor:
#      x y z
#    x 2.049750 0.000000 0.000000 
#    y 0.000000 1.955670 0.000000 
#    z 0.000000 0.000000 2.190340 
# 
# From -- ./inp_files/18490.got.cif
#   From: 2010.05.17/outbox.cif.g08.bks.cpg/sg24_10_cif.got.tgz:18490.got - 2010.06.04 00:33:39.
