data_PCOD9332200
_publ_section_title
;
Structure prediction by ZEFSAII (Michael W. Deem and Ramdas Pophale) SiO2 
 PCOD9332200
Probable space group: I 2 2 2
;
_chemical_formula_sum "Si O2"
_cell_formula_units_Z 60
_cell_length_a 22.316997
_cell_length_b 5.007811
_cell_length_c 26.937739
_cell_angle_alpha 90.000000
_cell_angle_beta 90.000000
_cell_angle_gamma 90.000000
_cell_volume 3010.542937
_symmetry_space_group_name_H-M "I 2 2 2"
_symmetry_group_IT_number 23
_symmetry_cell_setting 'orthorhombic'
loop_
_space_group_symop_operation_xyz
x,y,z
-x,-y,z
x,-y,-z
-x,y,-z
1/2+x,1/2+y,1/2+z
1/2-x,1/2-y,1/2+z
1/2+x,1/2-y,1/2-z
1/2-x,1/2+y,1/2-z
loop_
_atom_site_type_symbol
_atom_site_label
_atom_site_fract_x
_atom_site_fract_y
_atom_site_fract_z
Si Si1 0.612332 0.697801 0.046744
Si Si2 0.067619 0.089279 0.749024
Si Si3 0.804806 0.534460 0.326705
Si Si4 0.914923 0.145115 0.640923
Si Si5 0.233479 0.462954 0.139597
Si Si6 0.245487 0.737405 0.466560
Si Si7 0.640875 0.097870 0.276762
Si Si8 0.500000 0.000000 0.083763
O O1 0.613220 0.520421 0.096213
O O2 0.676378 0.842862 0.045090
O O3 0.555565 0.890421 0.052332
O O4 0.604935 0.500000 0.000000
O O5 0.076943 0.023839 0.690732
O O6 0.112902 0.890717 0.776773
O O7 0.088652 0.386779 0.762385
O O8 0.000000 0.000000 0.761013
O O9 0.870624 0.609407 0.346505
O O10 0.781266 0.238232 0.335030
O O11 0.810350 0.584843 0.267774
O O12 0.761303 0.741704 0.355218
O O13 0.975302 0.270426 0.619429
O O14 0.225707 0.339321 0.084757
O O15 0.173498 0.461460 0.171950
O O16 0.272572 0.500000 0.500000
O O17 0.241495 0.000000 0.500000
#
# Coordination Sequence:
#
# PCOD9332200 Si02
#       8
#     8   8   8   8   8   8   8   4
#     4  11  26  42  54  79 108 158 219 281 335 373
#     4  11  24  41  61  89 129 162 198 243 301 371
#     4  11  22  37  62  86 121 156 198 259 314 369
#     4  11  25  39  58  84 110 164 216 262 330 371
#     4  12  22  41  64  89 122 153 197 260 306 368
#     4  11  25  43  62  84 114 159 201 251 319 377
#     4  11  24  38  63  94 120 158 205 239 306 369
#     4  12  26  39  58  76 110 158 224 286 327 368
#
# _framework density 19.929960000000001
#
# number of rings (size 3 to 8) (size 9 to 14) (size 15 to 20)
#    0.000    0.800    1.333    6.400   13.067    1.600 
#    0.000    0.000    0.000    0.000    0.000    0.000 
#    0.000    8.000    0.000    0.000    0.000    0.000 
#
# Total GULP energy -167960.169596 kJ/mol
# GULP energy per Si atom -5598.672320 kJ/mol
# Density = 1.988460 g / cm^3
# Si number density = 19.929960 Si / 1000 Ang^3
#
#
#
# Elastic Constant Matrix: (Units=GPa)
#
#
# Indices 1 2 3 4 5 6 
#
# 1 39.8234 1.4729 40.3236 0.0000 0.0000 0.0000
# 2 1.4729 64.8462 11.6327 0.0000 0.0000 0.0000
# 3 40.3236 11.6327 110.1763 0.0000 0.0000 0.0000
# 4 0.0000 0.0000 0.0000 21.0571 0.0000 0.0000
# 5 0.0000 0.0000 0.0000 0.0000 -13.0934 0.0000
# 6 0.0000 0.0000 0.0000 0.0000 0.0000 22.7464
#
#
#
# Elastic Compliance Matrix: (Units=1/GPa)
#
#
# Indices 1 2 3 4 5 6 
#
# 1 0.040091 0.001755 -0.014858 0.000000 0.000000 0.000000
# 2 0.001755 0.015796 -0.002310 0.000000 0.000000 0.000000
# 3 -0.014858 -0.002310 0.014758 0.000000 0.000000 0.000000
# 4 0.000000 0.000000 0.000000 0.047490 0.000000 0.000000
# 5 0.000000 0.000000 0.000000 0.000000 -0.076375 0.000000
# 6 0.000000 0.000000 0.000000 0.000000 0.000000 0.043963
#
#
# Mechanical properties :
#
#
# Convention : Reuss Voigt Hill
#
# Bulk Modulus (GPa) = 25.11433 35.74491 30.42962
# Shear Modulus (GPa) = 38.51423 16.90315 27.70869
#
# Velocity S-wave (km/s) = 4.40077 2.91542 3.73272
# Velocity P-wave (km/s) = 6.20089 5.41360 5.82057
#
# Compressibility (1/GPa) = 0.03981790
#
# Stress axis : x y z
#
# Youngs Moduli (GPa) = 24.94342 63.30865 67.75893
#
# Poissons Ratio (x) = -0.11109 1.00677
# Poissons Ratio (y) = -0.04377 0.15652
# Poissons Ratio (z) = 0.37061 0.14624
#
# Static dielectric constant tensor:
#      x y z
#    x 1.716630 0.000000 0.000000 
#    y 0.000000 1.743100 0.000000 
#    z 0.000000 0.000000 1.722970 
# 
# From -- ./inp_files/28707.got.cif
#   From: 2010.05.17/outbox.cif.g08.bks.cpg/sg23_15_cif.got.tgz:28707.got - 2010.06.04 12:02:01.
