data_PCOD9332252
_publ_section_title
;
Structure prediction by ZEFSAII (Michael W. Deem and Ramdas Pophale) SiO2 
 PCOD9332252
Probable space group: I 2 2 2
;
_chemical_formula_sum "Si O2"
_cell_formula_units_Z 56
_cell_length_a 16.078576
_cell_length_b 8.579148
_cell_length_c 20.372629
_cell_angle_alpha 90.000000
_cell_angle_beta 90.000000
_cell_angle_gamma 90.000000
_cell_volume 2810.210287
_symmetry_space_group_name_H-M "I 2 2 2"
_symmetry_group_IT_number 23
_symmetry_cell_setting 'orthorhombic'
loop_
_space_group_symop_operation_xyz
x,y,z
-x,-y,z
x,-y,-z
-x,y,-z
1/2+x,1/2+y,1/2+z
1/2-x,1/2-y,1/2+z
1/2+x,1/2-y,1/2-z
1/2-x,1/2+y,1/2-z
loop_
_atom_site_type_symbol
_atom_site_label
_atom_site_fract_x
_atom_site_fract_y
_atom_site_fract_z
Si Si1 0.911369 0.577985 0.288316
Si Si2 0.591222 0.564124 0.742089
Si Si3 0.257394 0.942946 0.304742
Si Si4 0.904363 0.188881 0.998896
Si Si5 0.338147 0.930727 0.068994
Si Si6 0.689565 0.357432 0.375986
Si Si7 0.234374 0.624772 0.059268
O O1 0.911711 0.759533 0.268635
O O2 0.830907 0.516751 0.247094
O O3 0.895194 0.562144 0.366372
O O4 0.000000 0.500000 0.271181
O O5 0.500000 0.500000 0.752244
O O6 0.666213 0.473047 0.776588
O O7 0.618609 0.557921 0.665937
O O8 0.264536 0.043534 0.370501
O O9 0.267659 0.763860 0.326752
O O10 0.858743 0.236470 0.931879
O O11 0.850936 0.277307 0.052874
O O12 0.000000 0.232572 0.000000
O O13 0.898641 0.000000 0.000000
O O14 0.306894 0.754807 0.056302
O O15 0.257022 0.032637 0.089876
O O16 0.370576 0.000000 0.000000
O O17 0.242338 0.500000 0.000000
#
# Coordination Sequence:
#
# PCOD9332252 Si02
#       7
#     8   8   8   8   8   8   8
#     4  11  27  45  67 102 136 177 233 279 336 404
#     4  11  26  42  69 102 133 177 223 282 343 402
#     4  11  24  44  70  97 134 177 224 279 338 397
#     4  11  23  38  59  95 134 168 217 268 327 411
#     4  12  22  42  72  94 129 178 228 271 340 395
#     4  11  22  42  64  98 131 179 218 268 336 407
#     4  12  22  41  67  99 130 175 222 274 338 407
#
# _framework density 19.927333999999998
#
# number of rings (size 3 to 8) (size 9 to 14) (size 15 to 20)
#    0.000    0.714    7.143    0.000    4.000    4.000 
#    0.000    0.000    0.000    0.429    0.000    0.000 
#    0.000    0.000    0.000    0.000    0.000    0.000 
#
# Total GULP energy -156396.678215 kJ/mol
# GULP energy per Si atom -5585.595651 kJ/mol
# Density = 1.988198 g / cm^3
# Si number density = 19.927334 Si / 1000 Ang^3
#
#
#
# Elastic Constant Matrix: (Units=GPa)
#
#
# Indices 1 2 3 4 5 6 
#
# 1 124.3714 30.6755 28.5352 0.0000 0.0000 0.0000
# 2 30.6755 67.2351 25.3092 0.0000 0.0000 0.0000
# 3 28.5352 25.3092 105.6868 0.0000 0.0000 0.0000
# 4 0.0000 0.0000 0.0000 30.4630 0.0000 0.0000
# 5 0.0000 0.0000 0.0000 0.0000 -21.2679 0.0000
# 6 0.0000 0.0000 0.0000 0.0000 0.0000 30.8008
#
#
#
# Elastic Compliance Matrix: (Units=1/GPa)
#
#
# Indices 1 2 3 4 5 6 
#
# 1 0.009313 -0.003630 -0.001645 0.000000 0.000000 0.000000
# 2 -0.003630 0.017761 -0.003273 0.000000 0.000000 0.000000
# 3 -0.001645 -0.003273 0.010690 0.000000 0.000000 0.000000
# 4 0.000000 0.000000 0.000000 0.032827 0.000000 0.000000
# 5 0.000000 0.000000 0.000000 0.000000 -0.047019 0.000000
# 6 0.000000 0.000000 0.000000 0.000000 0.000000 0.032467
#
#
# Mechanical properties :
#
#
# Convention : Reuss Voigt Hill
#
# Bulk Modulus (GPa) = 48.38445 51.81480 50.09962
# Shear Modulus (GPa) = 62.48052 22.18407 42.33229
#
# Velocity S-wave (km/s) = 5.60556 3.34016 4.61405
# Velocity P-wave (km/s) = 8.13815 6.39796 7.31995
#
# Compressibility (1/GPa) = 0.02066780
#
# Stress axis : x y z
#
# Youngs Moduli (GPa) = 107.37470 56.30183 93.54502
#
# Poissons Ratio (x) = 0.20436 0.15391
# Poissons Ratio (y) = 0.38974 0.30621
# Poissons Ratio (z) = 0.17667 0.18430
#
# Static dielectric constant tensor:
#      x y z
#    x 1.681990 0.000000 0.000000 
#    y 0.000000 1.735660 0.000000 
#    z 0.000000 0.000000 1.737660 
# 
# From -- ./inp_files/26977.got.cif
#   From: 2010.05.17/outbox.cif.g08.bks.cpg/sg23_14_cif.got.tgz:26977.got - 2010.06.04 12:02:01.
