data_PCOD9332132
_publ_section_title
;
Structure prediction by ZEFSAII (Michael W. Deem and Ramdas Pophale) SiO2 
 PCOD9332132
Probable space group: I 2 2 2
;
_chemical_formula_sum "Si O2"
_cell_formula_units_Z 64
_cell_length_a 11.935740
_cell_length_b 9.203135
_cell_length_c 26.285949
_cell_angle_alpha 90.000000
_cell_angle_beta 90.000000
_cell_angle_gamma 90.000000
_cell_volume 2887.412309
_symmetry_space_group_name_H-M "I 2 2 2"
_symmetry_group_IT_number 23
_symmetry_cell_setting 'orthorhombic'
loop_
_space_group_symop_operation_xyz
x,y,z
-x,-y,z
x,-y,-z
-x,y,-z
1/2+x,1/2+y,1/2+z
1/2-x,1/2-y,1/2+z
1/2+x,1/2-y,1/2-z
1/2-x,1/2+y,1/2-z
loop_
_atom_site_type_symbol
_atom_site_label
_atom_site_fract_x
_atom_site_fract_y
_atom_site_fract_z
Si Si1 0.446202 0.144998 0.871622
Si Si2 0.632705 0.954161 0.704470
Si Si3 0.554448 0.151050 0.397171
Si Si4 0.691571 0.160598 0.487683
Si Si5 0.403237 0.601108 0.646991
Si Si6 0.941856 0.156475 0.448395
Si Si7 0.280584 0.254441 0.789845
Si Si8 0.743555 0.418604 0.554305
O O1 0.536840 0.240327 0.901082
O O2 0.378153 0.245653 0.832501
O O3 0.359874 0.090519 0.915367
O O4 0.500000 0.000000 0.847468
O O5 0.641957 0.896953 0.646476
O O6 0.667025 0.819043 0.739984
O O7 0.500000 0.000000 0.711239
O O8 0.715362 0.091828 0.714334
O O9 0.607606 0.225115 0.446326
O O10 0.463202 0.252043 0.370965
O O11 0.500000 0.000000 0.412897
O O12 0.812211 0.144204 0.461165
O O13 0.707008 0.257164 0.537289
O O14 0.653860 0.000000 0.500000
O O15 0.500000 0.500000 0.668013
O O16 0.310789 0.641703 0.687837
O O17 0.344987 0.531588 0.597030
O O18 0.000000 0.216591 0.500000
O O19 0.000000 0.000000 0.439993
O O20 0.750474 0.500000 0.500000
#
# Coordination Sequence:
#
# PCOD9332132 Si02
#       8
#     8   8   8   8   8   8   8   8
#     4  11  24  42  66  97 138 178 229 273 341 403
#     4  11  25  50  76 101 137 171 225 287 358 416
#     4  11  24  44  67  94 135 181 217 284 344 403
#     4  12  23  36  64  95 130 179 237 268 329 398
#     4  11  24  43  66  96 137 175 224 275 340 400
#     4  11  21  38  60  90 136 183 225 281 329 385
#     4  11  26  48  74 100 131 174 223 286 348 427
#     4  11  23  38  60  95 135 184 225 272 320 395
#
# _framework density 22.165175000000001
#
# number of rings (size 3 to 8) (size 9 to 14) (size 15 to 20)
#    0.000    0.875    5.000    2.625    5.250    4.000 
#    2.250    0.000    0.000    0.000    0.000    0.000 
#    0.000    0.000    0.000    0.000    0.000    0.000 
#
# Total GULP energy -178882.081751 kJ/mol
# GULP energy per Si atom -5590.065055 kJ/mol
# Density = 2.211473 g / cm^3
# Si number density = 22.165175 Si / 1000 Ang^3
#
#
#
# Elastic Constant Matrix: (Units=GPa)
#
#
# Indices 1 2 3 4 5 6 
#
# 1 39.8081 -0.6641 26.2781 0.0000 0.0000 0.0000
# 2 -0.6641 57.3772 2.8401 0.0000 0.0000 0.0000
# 3 26.2781 2.8401 59.4288 0.0000 0.0000 0.0000
# 4 0.0000 0.0000 0.0000 16.8227 0.0000 0.0000
# 5 0.0000 0.0000 0.0000 0.0000 44.2202 0.0000
# 6 0.0000 0.0000 0.0000 0.0000 0.0000 31.5154
#
#
#
# Elastic Compliance Matrix: (Units=1/GPa)
#
#
# Indices 1 2 3 4 5 6 
#
# 1 0.035557 0.001193 -0.015779 0.000000 0.000000 0.000000
# 2 0.001193 0.017510 -0.001364 0.000000 0.000000 0.000000
# 3 -0.015779 -0.001364 0.023869 0.000000 0.000000 0.000000
# 4 0.000000 0.000000 0.000000 0.059444 0.000000 0.000000
# 5 0.000000 0.000000 0.000000 0.000000 0.022614 0.000000
# 6 0.000000 0.000000 0.000000 0.000000 0.000000 0.031731
#
#
# Mechanical properties :
#
#
# Convention : Reuss Voigt Hill
#
# Bulk Modulus (GPa) = 22.20542 23.72470 22.96506
# Shear Modulus (GPa) = 21.04048 27.05564 24.04806
#
# Velocity S-wave (km/s) = 3.08435 3.49755 3.29743
# Velocity P-wave (km/s) = 4.76699 5.19974 4.98806
#
# Compressibility (1/GPa) = 0.04503405
#
# Stress axis : x y z
#
# Youngs Moduli (GPa) = 28.12416 57.11068 41.89483
#
# Poissons Ratio (x) = -0.06811 0.66107
# Poissons Ratio (y) = -0.03354 0.05715
# Poissons Ratio (z) = 0.44378 0.07791
#
# Static dielectric constant tensor:
#      x y z
#    x 1.801710 0.000000 0.000000 
#    y 0.000000 1.820750 0.000000 
#    z 0.000000 0.000000 1.809670 
# 
# From -- ./inp_files/30496.got.cif
#   From: 2010.05.17/outbox.cif.g08.bks.cpg/sg23_16_cif.got.tgz:30496.got - 2010.06.04 12:02:01.
