data_PCOD9332012
_publ_section_title
;
Structure prediction by ZEFSAII (Michael W. Deem and Ramdas Pophale) SiO2 
 PCOD9332012
Probable space group: I 2 2 2
;
_chemical_formula_sum "Si O2"
_cell_formula_units_Z 40
_cell_length_a 9.716293
_cell_length_b 7.277918
_cell_length_c 26.335269
_cell_angle_alpha 90.000000
_cell_angle_beta 90.000000
_cell_angle_gamma 90.000000
_cell_volume 1862.282317
_symmetry_space_group_name_H-M "I 2 2 2"
_symmetry_group_IT_number 23
_symmetry_cell_setting 'orthorhombic'
loop_
_space_group_symop_operation_xyz
x,y,z
-x,-y,z
x,-y,-z
-x,y,-z
1/2+x,1/2+y,1/2+z
1/2-x,1/2-y,1/2+z
1/2+x,1/2-y,1/2-z
1/2-x,1/2+y,1/2-z
loop_
_atom_site_type_symbol
_atom_site_label
_atom_site_fract_x
_atom_site_fract_y
_atom_site_fract_z
Si Si1 0.000000 0.000000 0.000000
Si Si2 0.033986 0.786421 0.816586
Si Si3 0.056016 0.806357 0.578273
Si Si4 0.500000 0.000000 0.769097
Si Si5 0.814326 0.636800 0.647696
Si Si6 0.000000 0.500000 0.500000
Si Si7 0.838993 0.814917 0.909532
O O1 0.909662 0.131100 0.037150
O O2 0.951382 0.751877 0.868565
O O3 0.990463 0.672007 0.767966
O O4 0.194327 0.743178 0.827406
O O5 0.000000 0.000000 0.805908
O O6 0.213950 0.829034 0.594153
O O7 0.943099 0.734565 0.619577
O O8 0.072468 0.644097 0.537067
O O9 0.000000 0.000000 0.559112
O O10 0.627686 0.008323 0.807524
O O11 0.730959 0.505739 0.609465
#
# Coordination Sequence:
#
# PCOD9332012 Si02
#       7
#     2   8   8   4   8   2   8
#     4  12  22  44  86  98 150 214 230 312 400 410
#     4  10  26  44  67 102 144 185 252 295 362 444
#     4  12  26  43  76 104 147 186 244 311 373 442
#     4  12  25  42  74  98 148 204 229 308 370 430
#     4  11  23  46  65 106 145 186 243 303 363 438
#     4  12  22  48  64 104 138 188 244 290 370 448
#     4  11  22  47  71 107 142 188 247 307 367 448
#
# _framework density 21.479019000000001
#
# number of rings (size 3 to 8) (size 9 to 14) (size 15 to 20)
#    0.000    0.800    7.000    0.900    8.400    0.800 
#    0.000    0.000    0.000    1.200    0.000    0.000 
#    0.000    0.000    0.000    0.000    0.000    0.000 
#
# Total GULP energy -111529.967414 kJ/mol
# GULP energy per Si atom -5576.498371 kJ/mol
# Density = 2.143013 g / cm^3
# Si number density = 21.479019 Si / 1000 Ang^3
#
#
#
# Elastic Constant Matrix: (Units=GPa)
#
#
# Indices 1 2 3 4 5 6 
#
# 1 134.7932 23.2264 51.0331 0.0000 0.0000 0.0000
# 2 23.2264 77.1088 35.4814 0.0000 0.0000 0.0000
# 3 51.0331 35.4814 125.4143 0.0000 0.0000 0.0000
# 4 0.0000 0.0000 0.0000 8.2428 0.0000 0.0000
# 5 0.0000 0.0000 0.0000 0.0000 27.3358 0.0000
# 6 0.0000 0.0000 0.0000 0.0000 0.0000 18.5196
#
#
#
# Elastic Compliance Matrix: (Units=1/GPa)
#
#
# Indices 1 2 3 4 5 6 
#
# 1 0.008859 -0.001161 -0.003277 0.000000 0.000000 0.000000
# 2 -0.001161 0.015062 -0.003789 0.000000 0.000000 0.000000
# 3 -0.003277 -0.003789 0.010379 0.000000 0.000000 0.000000
# 4 0.000000 0.000000 0.000000 0.121318 0.000000 0.000000
# 5 0.000000 0.000000 0.000000 0.000000 0.036582 0.000000
# 6 0.000000 0.000000 0.000000 0.000000 0.000000 0.053997
#
#
# Mechanical properties :
#
#
# Convention : Reuss Voigt Hill
#
# Bulk Modulus (GPa) = 56.03064 61.86645 58.94854
# Shear Modulus (GPa) = 18.61513 25.99131 22.30322
#
# Velocity S-wave (km/s) = 2.94711 3.48239 3.22587
# Velocity P-wave (km/s) = 6.14194 6.71082 6.43268
#
# Compressibility (1/GPa) = 0.01784738
#
# Stress axis : x y z
#
# Youngs Moduli (GPa) = 112.87538 66.39327 96.35052
#
# Poissons Ratio (x) = 0.07707 0.31570
# Poissons Ratio (y) = 0.13103 0.36505
# Poissons Ratio (z) = 0.36985 0.25155
#
# Static dielectric constant tensor:
#      x y z
#    x 1.910000 0.000000 0.000000 
#    y 0.000000 1.845080 0.000000 
#    z 0.000000 0.000000 1.802880 
# 
# From -- ./inp_files/29200.got.cif
#   From: 2010.05.17/outbox.cif.g08.bks.cpg/sg23_15_cif.got.tgz:29200.got - 2010.06.04 12:02:01.
