data_PCOD9332294
_publ_section_title
;
Structure prediction by ZEFSAII (Michael W. Deem and Ramdas Pophale) SiO2 
 PCOD9332294
Probable space group: I 2 2 2
;
_chemical_formula_sum "Si O2"
_cell_formula_units_Z 48
_cell_length_a 8.492922
_cell_length_b 26.101708
_cell_length_c 9.118908
_cell_angle_alpha 90.000000
_cell_angle_beta 90.000000
_cell_angle_gamma 90.000000
_cell_volume 2021.477429
_symmetry_space_group_name_H-M "I 2 2 2"
_symmetry_group_IT_number 23
_symmetry_cell_setting 'orthorhombic'
loop_
_space_group_symop_operation_xyz
x,y,z
-x,-y,z
x,-y,-z
-x,y,-z
1/2+x,1/2+y,1/2+z
1/2-x,1/2-y,1/2+z
1/2+x,1/2-y,1/2-z
1/2-x,1/2+y,1/2-z
loop_
_atom_site_type_symbol
_atom_site_label
_atom_site_fract_x
_atom_site_fract_y
_atom_site_fract_z
Si Si1 0.327129 0.052191 0.068901
Si Si2 0.707186 0.721933 0.624269
Si Si3 0.988008 0.686599 0.234055
Si Si4 0.202243 0.858879 0.110313
Si Si5 0.138087 0.413216 0.889722
Si Si6 0.444576 0.642495 0.149759
O O1 0.355826 0.053372 0.241939
O O2 0.500000 0.058539 0.000000
O O3 0.216759 0.098960 0.017313
O O4 0.262055 0.000000 0.000000
O O5 0.626569 0.776450 0.643408
O O6 0.669570 0.695554 0.468618
O O7 0.635446 0.684987 0.748293
O O8 0.892189 0.718623 0.663935
O O9 0.875232 0.650148 0.327907
O O10 0.082855 0.645033 0.142095
O O11 0.087020 0.874407 0.242048
O O12 0.325574 0.401803 0.910943
O O13 0.000000 0.432507 0.000000
O O14 0.500000 0.668226 0.000000
#
# Coordination Sequence:
#
# PCOD9332294 Si02
#       6
#     8   8   8   8   8   8
#     4  11  23  46  80 113 137 191 257 316 385 447
#     4  11  24  40  65  99 138 200 253 302 376 454
#     4  11  23  40  66  97 146 188 252 308 375 451
#     4  12  22  46  72 103 147 191 254 321 366 463
#     4  11  24  45  70 103 150 189 238 315 383 452
#     4  11  25  41  66 100 146 194 240 300 384 443
#
# _framework density 23.745007999999999
#
# number of rings (size 3 to 8) (size 9 to 14) (size 15 to 20)
#    0.000    0.833    5.000    3.000    0.000    6.667 
#    0.000    5.000    0.000    1.000    0.000    0.000 
#    0.000    0.000    0.000    0.000    0.000    0.000 
#
# Total GULP energy -134038.339126 kJ/mol
# GULP energy per Si atom -5584.930797 kJ/mol
# Density = 2.369096 g / cm^3
# Si number density = 23.745008 Si / 1000 Ang^3
#
#
#
# Elastic Constant Matrix: (Units=GPa)
#
#
# Indices 1 2 3 4 5 6 
#
# 1 109.6696 8.8152 36.8106 -0.0002 0.0000 -0.0001
# 2 8.8152 84.3597 20.8828 -0.0006 0.0002 0.0001
# 3 36.8106 20.8828 135.4340 -0.0009 -0.0001 -0.0008
# 4 -0.0002 -0.0006 -0.0009 16.0934 0.0001 0.0001
# 5 0.0000 0.0002 -0.0001 0.0001 20.8442 0.0001
# 6 -0.0001 0.0001 -0.0008 0.0001 0.0001 12.3904
#
#
#
# Elastic Compliance Matrix: (Units=1/GPa)
#
#
# Indices 1 2 3 4 5 6 
#
# 1 0.010046 -0.000389 -0.002671 0.000000 0.000000 0.000000
# 2 -0.000389 0.012339 -0.001797 0.000000 0.000000 0.000000
# 3 -0.002671 -0.001797 0.008387 0.000000 0.000000 0.000001
# 4 0.000000 0.000000 0.000000 0.062137 0.000000 -0.000001
# 5 0.000000 0.000000 0.000000 0.000000 0.047975 0.000000
# 6 0.000000 0.000000 0.000001 -0.000001 0.000000 0.080708
#
#
# Mechanical properties :
#
#
# Convention : Reuss Voigt Hill
#
# Bulk Modulus (GPa) = 47.48438 51.38671 49.43554
# Shear Modulus (GPa) = 20.97983 27.39591 24.18787
#
# Velocity S-wave (km/s) = 2.97568 3.40038 3.19509
# Velocity P-wave (km/s) = 5.64334 6.09137 5.87163
#
# Compressibility (1/GPa) = 0.02105956
#
# Stress axis : x y z
#
# Youngs Moduli (GPa) = 99.54311 81.04089 119.23798
#
# Poissons Ratio (x) = 0.03150 0.31843
# Poissons Ratio (y) = 0.03869 0.21427
# Poissons Ratio (z) = 0.26583 0.14563
#
# Static dielectric constant tensor:
#      x y z
#    x 2.071580 0.000000 0.000000 
#    y 0.000000 1.919170 0.000000 
#    z 0.000000 0.000000 1.963520 
# 
# From -- ./inp_files/7347.got.cif
#   From: 2010.05.17/outbox.cif.g08.bks.cpg/sg23_4_cif.got.tgz:7347.got - 2010.06.04 12:02:01.
