data_PCOD9332938
_publ_section_title
;
Structure prediction by ZEFSAII (Michael W. Deem and Ramdas Pophale) SiO2 
 PCOD9332938
Probable space group: I 21 21 21
;
_chemical_formula_sum "Si O2"
_cell_formula_units_Z 60
_cell_length_a 18.891739
_cell_length_b 23.212862
_cell_length_c 5.623569
_cell_angle_alpha 90.000000
_cell_angle_beta 90.000000
_cell_angle_gamma 90.000000
_cell_volume 2466.111195
_symmetry_space_group_name_H-M "I 21 21 21"
_symmetry_group_IT_number 24
_symmetry_cell_setting 'orthorhombic'
loop_
_space_group_symop_operation_xyz
x,y,z
-x,1/2-y,z
x,-y,1/2-z
1/2-x,y,-z
1/2+x,1/2+y,1/2+z
1/2-x,-y,1/2+z
1/2+x,1/2-y,-z
-x,1/2+y,1/2-z
loop_
_atom_site_type_symbol
_atom_site_label
_atom_site_fract_x
_atom_site_fract_y
_atom_site_fract_z
Si Si1 0.133274 0.181009 0.605677
Si Si2 0.846320 0.848711 0.401786
Si Si3 0.829676 0.018581 0.002484
Si Si4 0.750000 0.533611 0.500000
Si Si5 0.344699 0.859659 0.605551
Si Si6 0.004468 0.401186 0.627090
Si Si7 0.864749 0.811738 0.897990
Si Si8 0.997940 0.898815 0.372949
O O1 0.172361 0.173525 0.860269
O O2 0.066208 0.138084 0.623352
O O3 0.108844 0.246642 0.574416
O O4 0.175490 0.164363 0.365212
O O5 0.824495 0.913384 0.467423
O O6 0.823475 0.828090 0.140552
O O7 0.932041 0.854433 0.377064
O O8 0.827936 0.813720 0.638733
O O9 0.863963 0.000000 0.250000
O O10 0.750000 0.992142 0.000000
O O11 0.860885 0.000000 0.750000
O O12 0.764725 0.500000 0.750000
O O13 0.685679 0.576447 0.565372
O O14 0.429660 0.863220 0.621107
O O15 0.005436 0.432580 0.879455
O O16 0.072808 0.359158 0.622733
O O17 0.003928 0.432284 0.374678
#
# Coordination Sequence:
#
# PCOD9332938 Si02
#       8
#     8   8   8   4   8   8   8   8
#     4  10  18  32  55  82 114 147 180 210 267 325
#     4  10  19  33  53  81 118 144 180 225 271 319
#     4  10  21  38  59  77  97 138 192 231 264 308
#     4  12  26  46  68  84 100 140 198 248 296 338
#     4  10  21  38  59  80 110 139 182 232 274 330
#     4   8  15  26  45  77 111 148 181 210 242 314
#     4  10  18  29  51  81 118 151 179 208 260 330
#     4   8  16  30  50  79 109 142 170 219 279 323
#
# _framework density 24.329802999999998
#
# number of rings (size 3 to 8) (size 9 to 14) (size 15 to 20)
#    0.000    2.400    0.000    2.800    0.000    0.000 
#    0.000    9.333    8.800    0.000    0.000    0.000 
#    0.000    0.000    0.000    0.000    0.000    0.000 
#
# Total GULP energy -167276.404190 kJ/mol
# GULP energy per Si atom -5575.880140 kJ/mol
# Density = 2.427443 g / cm^3
# Si number density = 24.329803 Si / 1000 Ang^3
#
#
#
# Elastic Constant Matrix: (Units=GPa)
#
#
# Indices 1 2 3 4 5 6 
#
# 1 69.9604 5.0416 24.8467 0.0000 0.0000 0.0000
# 2 5.0416 74.5839 44.9612 0.0000 0.0000 0.0000
# 3 24.8467 44.9612 338.3691 0.0000 0.0000 0.0000
# 4 0.0000 0.0000 0.0000 33.7873 0.0000 0.0000
# 5 0.0000 0.0000 0.0000 0.0000 18.8173 0.0000
# 6 0.0000 0.0000 0.0000 0.0000 0.0000 -40.7459
#
#
#
# Elastic Compliance Matrix: (Units=1/GPa)
#
#
# Indices 1 2 3 4 5 6 
#
# 1 0.014686 -0.000372 -0.001029 0.000000 0.000000 0.000000
# 2 -0.000372 0.014585 -0.001911 0.000000 0.000000 0.000000
# 3 -0.001029 -0.001911 0.003285 0.000000 0.000000 0.000000
# 4 0.000000 0.000000 0.000000 0.029597 0.000000 0.000000
# 5 0.000000 0.000000 0.000000 0.000000 0.053143 0.000000
# 6 0.000000 0.000000 0.000000 0.000000 0.000000 -0.024542
#
#
# Mechanical properties :
#
#
# Convention : Reuss Voigt Hill
#
# Bulk Modulus (GPa) = 38.56309 70.29025 54.42667
# Shear Modulus (GPa) = 47.16074 29.57601 38.36837
#
# Velocity S-wave (km/s) = 4.40750 3.49037 3.97547
# Velocity P-wave (km/s) = 6.46420 6.72286 6.59480
#
# Compressibility (1/GPa) = 0.02593153
#
# Stress axis : x y z
#
# Youngs Moduli (GPa) = 68.09172 68.56523 304.43442
#
# Poissons Ratio (x) = 0.02554 0.31324
# Poissons Ratio (y) = 0.02536 0.58165
# Poissons Ratio (z) = 0.07006 0.13100
#
# Static dielectric constant tensor:
#      x y z
#    x 1.976230 0.000000 0.000000 
#    y 0.000000 1.881450 0.000000 
#    z 0.000000 0.000000 2.027080 
# 
# From -- ./inp_files/6540.got.cif
#   From: 2010.05.17/outbox.cif.g08.bks.cpg/sg24_4_cif.got.tgz:6540.got - 2010.06.04 00:33:39.
