data_PCOD9332762
_publ_section_title
;
Structure prediction by ZEFSAII (Michael W. Deem and Ramdas Pophale) SiO2 
 PCOD9332762
Probable space group: I 21 21 21
;
_chemical_formula_sum "Si O2"
_cell_formula_units_Z 48
_cell_length_a 8.237016
_cell_length_b 17.698781
_cell_length_c 16.521284
_cell_angle_alpha 90.000000
_cell_angle_beta 90.000000
_cell_angle_gamma 90.000000
_cell_volume 2408.557739
_symmetry_space_group_name_H-M "I 21 21 21"
_symmetry_group_IT_number 24
_symmetry_cell_setting 'orthorhombic'
loop_
_space_group_symop_operation_xyz
x,y,z
-x,1/2-y,z
x,-y,1/2-z
1/2-x,y,-z
1/2+x,1/2+y,1/2+z
1/2-x,-y,1/2+z
1/2+x,1/2-y,-z
-x,1/2+y,1/2-z
loop_
_atom_site_type_symbol
_atom_site_label
_atom_site_fract_x
_atom_site_fract_y
_atom_site_fract_z
Si Si1 0.134198 0.688279 0.072470
Si Si2 0.845021 0.517449 0.844606
Si Si3 0.848030 0.000000 0.250000
Si Si4 0.942526 0.831283 0.823505
Si Si5 0.004493 0.030969 0.418465
Si Si6 0.896617 0.889075 0.658015
Si Si7 0.750000 0.085290 0.000000
O O1 0.260104 0.663911 0.142371
O O2 0.000000 0.750000 0.096129
O O3 0.041211 0.612299 0.045159
O O4 0.250000 0.716009 0.000000
O O5 0.798644 0.500000 0.750000
O O6 0.695897 0.518875 0.906766
O O7 0.947248 0.596089 0.847137
O O8 0.962319 0.447812 0.864373
O O9 0.732675 0.061146 0.208287
O O10 0.950343 0.031776 0.324135
O O11 0.949797 0.830742 0.725831
O O12 0.000000 0.750000 0.854733
O O13 0.893137 0.969071 0.464244
O O14 0.815956 0.865572 0.574348
#
# Coordination Sequence:
#
# PCOD9332762 Si02
#       7
#     8   8   4   8   8   8   4
#     4  12  25  41  56  84 124 164 203 244 302 370
#     4  10  20  35  60  90 118 147 198 260 301 356
#     4  10  16  34  60  80 116 144 194 250 282 362
#     4  11  21  39  61  84 115 160 203 246 308 356
#     4  11  20  35  60  89 115 153 201 241 306 360
#     4  10  19  38  58  85 120 151 196 250 302 362
#     4  10  22  36  58  86 118 156 194 246 318 352
#
# _framework density 19.928940000000001
#
# number of rings (size 3 to 8) (size 9 to 14) (size 15 to 20)
#    0.000    1.333    5.833    2.500    0.000    0.667 
#    0.000    0.000    0.000    5.000    0.000    0.000 
#    0.000    0.000    0.000    0.000    0.000    0.000 
#
# Total GULP energy -133824.649176 kJ/mol
# GULP energy per Si atom -5576.027049 kJ/mol
# Density = 1.988358 g / cm^3
# Si number density = 19.928940 Si / 1000 Ang^3
#
#
#
# Elastic Constant Matrix: (Units=GPa)
#
#
# Indices 1 2 3 4 5 6 
#
# 1 124.6424 36.8777 49.8464 0.0000 0.0000 0.0000
# 2 36.8777 57.1395 1.6794 0.0000 0.0000 0.0000
# 3 49.8464 1.6794 95.1364 0.0000 0.0000 0.0000
# 4 0.0000 0.0000 0.0000 9.9108 0.0000 0.0000
# 5 0.0000 0.0000 0.0000 0.0000 23.7548 0.0000
# 6 0.0000 0.0000 0.0000 0.0000 0.0000 23.4977
#
#
#
# Elastic Compliance Matrix: (Units=1/GPa)
#
#
# Indices 1 2 3 4 5 6 
#
# 1 0.013186 -0.008312 -0.006762 0.000000 0.000000 0.000000
# 2 -0.008312 0.022749 0.003953 0.000000 0.000000 0.000000
# 3 -0.006762 0.003953 0.013985 0.000000 0.000000 0.000000
# 4 0.000000 0.000000 0.000000 0.100900 0.000000 0.000000
# 5 0.000000 0.000000 0.000000 0.000000 0.042097 0.000000
# 6 0.000000 0.000000 0.000000 0.000000 0.000000 0.042557
#
#
# Mechanical properties :
#
#
# Convention : Reuss Voigt Hill
#
# Bulk Modulus (GPa) = 36.12872 50.41394 43.27133
# Shear Modulus (GPa) = 18.73063 24.00032 21.36547
#
# Velocity S-wave (km/s) = 3.06906 3.47406 3.27782
# Velocity P-wave (km/s) = 5.54319 6.43769 6.00711
#
# Compressibility (1/GPa) = 0.02767881
#
# Stress axis : x y z
#
# Youngs Moduli (GPa) = 75.83518 43.95746 71.50766
#
# Poissons Ratio (x) = 0.36537 0.48356
# Poissons Ratio (y) = 0.63033 -0.28270
# Poissons Ratio (z) = 0.51282 -0.17378
#
# Static dielectric constant tensor:
#      x y z
#    x 1.809980 0.000000 0.000000 
#    y 0.000000 1.696690 0.000000 
#    z 0.000000 0.000000 1.762850 
# 
# From -- ./inp_files/14370.got.cif
#   From: 2010.05.17/outbox.cif.g08.bks.cpg/sg24_8_cif.got.tgz:14370.got - 2010.06.04 00:33:39.
