data_PCOD9332332
_publ_section_title
;
Structure prediction by ZEFSAII (Michael W. Deem and Ramdas Pophale) SiO2 
 PCOD9332332
Probable space group: I 2 2 2
;
_chemical_formula_sum "Si O2"
_cell_formula_units_Z 32
_cell_length_a 13.836700
_cell_length_b 15.056711
_cell_length_c 7.637654
_cell_angle_alpha 90.000000
_cell_angle_beta 90.000000
_cell_angle_gamma 90.000000
_cell_volume 1591.192121
_symmetry_space_group_name_H-M "I 2 2 2"
_symmetry_group_IT_number 23
_symmetry_cell_setting 'orthorhombic'
loop_
_space_group_symop_operation_xyz
x,y,z
-x,-y,z
x,-y,-z
-x,y,-z
1/2+x,1/2+y,1/2+z
1/2-x,1/2-y,1/2+z
1/2+x,1/2-y,1/2-z
1/2-x,1/2+y,1/2-z
loop_
_atom_site_type_symbol
_atom_site_label
_atom_site_fract_x
_atom_site_fract_y
_atom_site_fract_z
Si Si1 0.769026 0.370500 0.155220
Si Si2 0.101976 0.397263 0.539167
Si Si3 0.111767 0.985997 0.209472
Si Si4 0.752274 0.332291 0.756327
O O1 0.864998 0.393852 0.261241
O O2 0.685465 0.443013 0.200272
O O3 0.746427 0.273461 0.235534
O O4 0.786812 0.360010 0.949468
O O5 0.094266 0.500000 0.500000
O O6 0.182578 0.363827 0.404920
O O7 0.000000 0.351439 0.500000
O O8 0.151017 0.886129 0.242294
O O9 0.000000 0.000000 0.263508
O O10 0.117610 0.000000 0.000000
#
# Coordination Sequence:
#
# PCOD9332332 Si02
#       4
#     8   8   8   8
#     4  12  23  42  69  95 133 172 214 266 328 388
#     4  11  24  44  66  93 131 170 217 268 320 384
#     4  11  23  43  69  99 133 170 217 272 330 390
#     4  12  23  42  69  95 133 172 214 266 328 388
#
# _framework density 20.110707999999999
#
# number of rings (size 3 to 8) (size 9 to 14) (size 15 to 20)
#    0.000    0.500    7.500    0.750    0.000    5.000 
#    0.000    2.500    0.000    0.000    0.000    0.000 
#    0.000    0.000    0.000    0.000    0.000    0.000 
#
# Total GULP energy -89264.800947 kJ/mol
# GULP energy per Si atom -5579.050059 kJ/mol
# Density = 2.006493 g / cm^3
# Si number density = 20.110708 Si / 1000 Ang^3
#
#
#
# Elastic Constant Matrix: (Units=GPa)
#
#
# Indices 1 2 3 4 5 6 
#
# 1 85.7576 5.2221 -3.1120 0.0000 0.0000 0.0000
# 2 5.2221 83.0779 -18.0649 0.0000 0.0000 0.0000
# 3 -3.1120 -18.0649 105.4739 0.0000 0.0000 0.0000
# 4 0.0000 0.0000 0.0000 18.9205 0.0000 0.0000
# 5 0.0000 0.0000 0.0000 0.0000 -20.7486 0.0000
# 6 0.0000 0.0000 0.0000 0.0000 0.0000 -10.1318
#
#
#
# Elastic Compliance Matrix: (Units=1/GPa)
#
#
# Indices 1 2 3 4 5 6 
#
# 1 0.011711 -0.000687 0.000228 0.000000 0.000000 0.000000
# 2 -0.000687 0.012543 0.002128 0.000000 0.000000 0.000000
# 3 0.000228 0.002128 0.009852 0.000000 0.000000 0.000000
# 4 0.000000 0.000000 0.000000 0.052853 0.000000 0.000000
# 5 0.000000 0.000000 0.000000 0.000000 -0.048196 0.000000
# 6 0.000000 0.000000 0.000000 0.000000 0.000000 -0.098699
#
#
# Mechanical properties :
#
#
# Convention : Reuss Voigt Hill
#
# Bulk Modulus (GPa) = 26.70613 26.93331 26.81972
# Shear Modulus (GPa) = -98.43722 16.95898 -40.73912
#
# Velocity S-wave (km/s) = -7.00385 2.90708 -4.50571
# Velocity P-wave (km/s) = 7.21781 4.96888 3.70183
#
# Compressibility (1/GPa) = 0.03744459
#
# Stress axis : x y z
#
# Youngs Moduli (GPa) = 85.39093 79.72722 101.50002
#
# Poissons Ratio (x) = 0.05474 -0.02314
# Poissons Ratio (y) = 0.05863 -0.21599
# Poissons Ratio (z) = -0.01946 -0.16966
#
# Static dielectric constant tensor:
#      x y z
#    x 2.467600 0.000000 0.000000 
#    y 0.000000 2.453910 0.000000 
#    z 0.000000 0.000000 1.796020 
# 
# From -- ./inp_files/9397.got.cif
#   From: 2010.05.17/outbox.cif.g08.bks.cpg/sg23_5_cif.got.tgz:9397.got - 2010.06.04 12:02:01.
