data_PCOD9332819
_publ_section_title
;
Structure prediction by ZEFSAII (Michael W. Deem and Ramdas Pophale) SiO2 
 PCOD9332819
Probable space group: I 21 21 21
;
_chemical_formula_sum "Si O2"
_cell_formula_units_Z 56
_cell_length_a 27.439121
_cell_length_b 12.645630
_cell_length_c 9.845391
_cell_angle_alpha 90.000000
_cell_angle_beta 90.000000
_cell_angle_gamma 90.000000
_cell_volume 3416.202717
_symmetry_space_group_name_H-M "I 21 21 21"
_symmetry_group_IT_number 24
_symmetry_cell_setting 'orthorhombic'
loop_
_space_group_symop_operation_xyz
x,y,z
-x,1/2-y,z
x,-y,1/2-z
1/2-x,y,-z
1/2+x,1/2+y,1/2+z
1/2-x,-y,1/2+z
1/2+x,1/2-y,-z
-x,1/2+y,1/2-z
loop_
_atom_site_type_symbol
_atom_site_label
_atom_site_fract_x
_atom_site_fract_y
_atom_site_fract_z
Si Si1 0.915991 0.110800 0.461843
Si Si2 0.000000 0.250000 0.503242
Si Si3 0.056549 0.124380 0.734720
Si Si4 0.832949 0.128397 0.259483
Si Si5 0.373418 0.313364 0.269580
Si Si6 0.594195 0.132839 0.970480
Si Si7 0.000000 0.250000 0.959519
Si Si8 0.268078 0.605610 0.157470
O O1 0.961330 0.182020 0.419615
O O2 0.867360 0.149875 0.387291
O O3 0.908316 0.128884 0.621791
O O4 0.920517 0.987031 0.434498
O O5 0.971517 0.333951 0.600051
O O6 0.106260 0.193535 0.738565
O O7 0.022244 0.161512 0.859076
O O8 0.064140 0.000000 0.750000
O O9 0.862532 0.166186 0.129462
O O10 0.778187 0.166557 0.278896
O O11 0.828913 0.000000 0.250000
O O12 0.318621 0.332057 0.322621
O O13 0.383927 0.362501 0.122186
O O14 0.546010 0.203381 0.961901
O O15 0.275072 0.500000 0.250000
O O16 0.250000 0.583119 0.000000
#
# Coordination Sequence:
#
# PCOD9332819 Si02
#       8
#     8   4   8   8   8   8   4   8
#     4  10  17  31  44  70  99 129 161 199 243 293
#     4   9  18  25  48  72  94 130 166 198 248 290
#     4   9  17  31  47  75 102 125 167 211 246 292
#     4   9  20  31  45  68 100 131 158 196 248 299
#     4  10  20  30  51  74  95 131 163 200 252 296
#     4  10  19  31  47  70 103 131 160 199 244 296
#     4   9  18  29  48  74  96 134 166 198 254 288
#     4  11  21  33  51  78 106 131 162 204 258 307
#
# _framework density 16.392471
#
# number of rings (size 3 to 8) (size 9 to 14) (size 15 to 20)
#    0.000    2.286    1.429    3.000    4.000    0.571 
#    0.000    0.000    0.000    0.000    7.429    9.000 
#    0.000    0.000    0.000    0.000    0.000    0.000 
#
# Total GULP energy -155932.667571 kJ/mol
# GULP energy per Si atom -5569.023842 kJ/mol
# Density = 1.635516 g / cm^3
# Si number density = 16.392471 Si / 1000 Ang^3
#
#
#
# Elastic Constant Matrix: (Units=GPa)
#
#
# Indices 1 2 3 4 5 6 
#
# 1 123.7632 31.0689 17.5324 0.0000 0.0000 0.0000
# 2 31.0689 73.1345 1.8613 0.0000 0.0000 0.0000
# 3 17.5324 1.8613 57.1360 0.0000 0.0000 0.0000
# 4 0.0000 0.0000 0.0000 7.0362 0.0000 0.0000
# 5 0.0000 0.0000 0.0000 0.0000 22.4502 0.0000
# 6 0.0000 0.0000 0.0000 0.0000 0.0000 24.1856
#
#
#
# Elastic Compliance Matrix: (Units=1/GPa)
#
#
# Indices 1 2 3 4 5 6 
#
# 1 0.009465 -0.003950 -0.002776 0.000000 0.000000 0.000000
# 2 -0.003950 0.015333 0.000713 0.000000 0.000000 0.000000
# 3 -0.002776 0.000713 0.018331 0.000000 0.000000 0.000000
# 4 0.000000 0.000000 0.000000 0.142122 0.000000 0.000000
# 5 0.000000 0.000000 0.000000 0.000000 0.044543 0.000000
# 6 0.000000 0.000000 0.000000 0.000000 0.000000 0.041347
#
#
# Mechanical properties :
#
#
# Convention : Reuss Voigt Hill
#
# Bulk Modulus (GPa) = 32.15181 39.43985 35.79583
# Shear Modulus (GPa) = 17.03376 24.30581 20.66978
#
# Velocity S-wave (km/s) = 3.22704 3.85482 3.55481
# Velocity P-wave (km/s) = 5.79149 6.62758 6.22359
#
# Compressibility (1/GPa) = 0.03110245
#
# Stress axis : x y z
#
# Youngs Moduli (GPa) = 105.65495 65.21707 54.55358
#
# Poissons Ratio (x) = 0.25762 0.15142
# Poissons Ratio (y) = 0.41736 -0.03888
# Poissons Ratio (z) = 0.29326 -0.04648
#
# Static dielectric constant tensor:
#      x y z
#    x 1.581990 0.000000 0.000000 
#    y 0.000000 1.538120 0.000000 
#    z 0.000000 0.000000 1.592720 
# 
# From -- ./inp_files/23013.got.cif
#   From: 2010.05.17/outbox.cif.g08.bks.cpg/sg24_12_cif.got.tgz:23013.got - 2010.06.04 00:33:39.
