data_PCOD9332490
_publ_section_title
;
Structure prediction by ZEFSAII (Michael W. Deem and Ramdas Pophale) SiO2 
 PCOD9332490
Probable space group: I 2 2 2
;
_chemical_formula_sum "Si O2"
_cell_formula_units_Z 32
_cell_length_a 6.845213
_cell_length_b 21.527939
_cell_length_c 9.083485
_cell_angle_alpha 90.000000
_cell_angle_beta 90.000000
_cell_angle_gamma 90.000000
_cell_volume 1338.572579
_symmetry_space_group_name_H-M "I 2 2 2"
_symmetry_group_IT_number 23
_symmetry_cell_setting 'orthorhombic'
loop_
_space_group_symop_operation_xyz
x,y,z
-x,-y,z
x,-y,-z
-x,y,-z
1/2+x,1/2+y,1/2+z
1/2-x,1/2-y,1/2+z
1/2+x,1/2-y,1/2-z
1/2-x,1/2+y,1/2-z
loop_
_atom_site_type_symbol
_atom_site_label
_atom_site_fract_x
_atom_site_fract_y
_atom_site_fract_z
Si Si1 0.889495 0.302587 0.346674
Si Si2 0.247152 0.162108 0.657580
Si Si3 0.281122 0.936520 0.566991
Si Si4 0.433677 0.403035 0.656500
O O1 0.846654 0.229897 0.328778
O O2 0.686993 0.339091 0.363236
O O3 0.000000 0.311792 0.500000
O O4 0.031916 0.328677 0.218290
O O5 0.217787 0.130580 0.497992
O O6 0.132197 0.113589 0.759264
O O7 0.500000 0.937172 0.500000
O O8 0.215687 0.939678 0.736861
O O9 0.198627 0.000000 0.500000
O O10 0.500000 0.428905 0.500000
#
# Coordination Sequence:
#
# PCOD9332490 Si02
#       4
#     8   8   8   8
#     4  12  24  41  68 112 155 192 255 324 399 465
#     4  12  25  43  73 107 152 204 255 319 392 483
#     4  11  26  50  79 110 152 206 266 327 397 479
#     4  12  25  44  74 109 149 197 256 321 391 473
#
# _framework density 23.906063
#
# number of rings (size 3 to 8) (size 9 to 14) (size 15 to 20)
#    0.000    0.250    7.500    2.250    0.000    3.000 
#    0.000    2.500    0.000    4.500    0.000    0.000 
#    0.000    0.000    0.000    0.000    0.000    0.000 
#
# Total GULP energy -89359.052541 kJ/mol
# GULP energy per Si atom -5584.940784 kJ/mol
# Density = 2.385165 g / cm^3
# Si number density = 23.906063 Si / 1000 Ang^3
#
#
#
# Elastic Constant Matrix: (Units=GPa)
#
#
# Indices 1 2 3 4 5 6 
#
# 1 134.2565 21.6808 40.5659 0.0013 -0.0006 0.0003
# 2 21.6808 96.4749 33.0285 0.0003 -0.0004 0.0001
# 3 40.5659 33.0285 165.9451 0.0202 0.0080 0.0007
# 4 0.0013 0.0003 0.0202 109.1013 0.0032 0.0003
# 5 -0.0006 -0.0004 0.0080 0.0032 45.3163 0.0011
# 6 0.0003 0.0001 0.0007 0.0003 0.0011 -91.9453
#
#
#
# Elastic Compliance Matrix: (Units=1/GPa)
#
#
# Indices 1 2 3 4 5 6 
#
# 1 0.008178 -0.001238 -0.001753 0.000000 0.000000 0.000000
# 2 -0.001238 0.011311 -0.001949 0.000000 0.000000 0.000000
# 3 -0.001753 -0.001949 0.006842 -0.000001 -0.000001 0.000000
# 4 0.000000 0.000000 -0.000001 0.009166 -0.000001 0.000000
# 5 0.000000 0.000000 -0.000001 -0.000001 0.022067 0.000000
# 6 0.000000 0.000000 0.000000 0.000000 0.000000 -0.010876
#
#
# Mechanical properties :
#
#
# Convention : Reuss Voigt Hill
#
# Bulk Modulus (GPa) = 60.78030 65.24741 63.01385
# Shear Modulus (GPa) = 80.57967 32.58788 56.58378
#
# Velocity S-wave (km/s) = 5.81205 3.69611 4.87038
# Velocity P-wave (km/s) = 8.39761 6.75037 7.61864
#
# Compressibility (1/GPa) = 0.01645270
#
# Stress axis : x y z
#
# Youngs Moduli (GPa) = 122.28053 88.41208 146.14757
#
# Poissons Ratio (x) = 0.10943 0.25616
# Poissons Ratio (y) = 0.15135 0.28479
# Poissons Ratio (z) = 0.21433 0.17228
#
# Static dielectric constant tensor:
#      x y z
#    x 1.475020 0.000000 -0.000040 
#    y 0.000000 1.889550 0.000000 
#    z -0.000040 0.000000 1.948420 
# 
# From -- ./inp_files/6828.got.cif
#   From: 2010.05.17/outbox.cif.g08.bks.cpg/sg23_4_cif.got.tgz:6828.got - 2010.06.04 12:02:01.
