data_PCOD9332739
_publ_section_title
;
Structure prediction by ZEFSAII (Michael W. Deem and Ramdas Pophale) SiO2 
 PCOD9332739
Probable space group: I 21 21 21
;
_chemical_formula_sum "Si O2"
_cell_formula_units_Z 44
_cell_length_a 14.035147
_cell_length_b 7.076632
_cell_length_c 22.431403
_cell_angle_alpha 90.000000
_cell_angle_beta 90.000000
_cell_angle_gamma 90.000000
_cell_volume 2227.922172
_symmetry_space_group_name_H-M "I 21 21 21"
_symmetry_group_IT_number 24
_symmetry_cell_setting 'orthorhombic'
loop_
_space_group_symop_operation_xyz
x,y,z
-x,1/2-y,z
x,-y,1/2-z
1/2-x,y,-z
1/2+x,1/2+y,1/2+z
1/2-x,-y,1/2+z
1/2+x,1/2-y,-z
-x,1/2+y,1/2-z
loop_
_atom_site_type_symbol
_atom_site_label
_atom_site_fract_x
_atom_site_fract_y
_atom_site_fract_z
Si Si1 0.286544 0.922271 0.081603
Si Si2 0.500000 0.250000 0.000449
Si Si3 0.092543 0.876314 0.035101
Si Si4 0.369025 0.457705 0.180152
Si Si5 0.308718 0.368970 0.058438
Si Si6 0.916383 0.515042 0.681578
O O1 0.179998 0.845287 0.079678
O O2 0.277760 0.149631 0.068599
O O3 0.343319 0.900018 0.142097
O O4 0.355534 0.849436 0.028945
O O5 0.555670 0.407954 0.963696
O O6 0.420300 0.356021 0.039871
O O7 0.000000 0.750000 0.042587
O O8 0.339593 0.500000 0.250000
O O9 0.302923 0.482663 0.121115
O O10 0.395522 0.236031 0.171562
O O11 0.474413 0.544637 0.172389
O O12 0.250000 0.437738 0.000000
O O13 0.894848 0.500000 0.750000
#
# Coordination Sequence:
#
# PCOD9332739 Si02
#       6
#     8   4   8   8   8   8
#     4   9  17  35  51  76 111 145 184 226 278 343
#     4  10  18  34  52  78 106 150 190 222 282 336
#     4  10  19  34  53  78 111 143 184 235 275 325
#     4   9  17  29  48  78 109 139 189 226 266 349
#     4  10  16  31  55  74 109 154 183 226 282 336
#     4   9  17  32  52  72 105 152 172 218 292 335
#
# _framework density 19.749345000000002
#
# number of rings (size 3 to 8) (size 9 to 14) (size 15 to 20)
#    0.000    2.545    3.636    3.273    0.000    0.000 
#   13.091    0.000    0.000    0.000    2.364    1.273 
#    0.000    0.000    0.000    0.000    0.000    0.000 
#
# Total GULP energy -122662.992034 kJ/mol
# GULP energy per Si atom -5575.590547 kJ/mol
# Density = 1.970439 g / cm^3
# Si number density = 19.749345 Si / 1000 Ang^3
#
#
#
# Elastic Constant Matrix: (Units=GPa)
#
#
# Indices 1 2 3 4 5 6 
#
# 1 140.0442 24.7580 76.3701 0.0000 0.0000 0.0000
# 2 24.7580 60.3679 16.6082 0.0000 0.0000 0.0000
# 3 76.3701 16.6082 152.4819 0.0000 0.0000 0.0000
# 4 0.0000 0.0000 0.0000 21.5502 0.0000 0.0000
# 5 0.0000 0.0000 0.0000 0.0000 33.1164 0.0000
# 6 0.0000 0.0000 0.0000 0.0000 0.0000 26.1208
#
#
#
# Elastic Compliance Matrix: (Units=1/GPa)
#
#
# Indices 1 2 3 4 5 6 
#
# 1 0.010290 -0.002889 -0.004839 0.000000 0.000000 0.000000
# 2 -0.002889 0.017888 -0.000501 0.000000 0.000000 0.000000
# 3 -0.004839 -0.000501 0.009036 0.000000 0.000000 0.000000
# 4 0.000000 0.000000 0.000000 0.046403 0.000000 0.000000
# 5 0.000000 0.000000 0.000000 0.000000 0.030196 0.000000
# 6 0.000000 0.000000 0.000000 0.000000 0.000000 0.038284
#
#
# Mechanical properties :
#
#
# Convention : Reuss Voigt Hill
#
# Bulk Modulus (GPa) = 48.17992 65.37405 56.77699
# Shear Modulus (GPa) = 28.49398 31.83467 30.16432
#
# Velocity S-wave (km/s) = 3.80252 4.01925 3.91238
# Velocity P-wave (km/s) = 6.61268 7.39682 7.01571
#
# Compressibility (1/GPa) = 0.02075553
#
# Stress axis : x y z
#
# Youngs Moduli (GPa) = 97.17915 55.90391 110.66274
#
# Poissons Ratio (x) = 0.16150 0.53552
# Poissons Ratio (y) = 0.28074 0.05549
# Poissons Ratio (z) = 0.47027 0.02803
#
# Static dielectric constant tensor:
#      x y z
#    x 1.688830 0.000000 0.000000 
#    y 0.000000 1.990130 0.000000 
#    z 0.000000 0.000000 1.797360 
# 
# From -- ./inp_files/35502.got.cif
#   From: 2010.05.17/outbox.cif.g08.bks.cpg/sg24_18_cif.got.tgz:35502.got - 2010.06.04 00:33:39.
