data_PCOD9332028
_publ_section_title
;
Structure prediction by ZEFSAII (Michael W. Deem and Ramdas Pophale) SiO2 
 PCOD9332028
Probable space group: I 2 2 2
;
_chemical_formula_sum "Si O2"
_cell_formula_units_Z 34
_cell_length_a 16.215414
_cell_length_b 15.855670
_cell_length_c 4.872832
_cell_angle_alpha 90.000000
_cell_angle_beta 90.000000
_cell_angle_gamma 90.000000
_cell_volume 1252.835578
_symmetry_space_group_name_H-M "I 2 2 2"
_symmetry_group_IT_number 23
_symmetry_cell_setting 'orthorhombic'
loop_
_space_group_symop_operation_xyz
x,y,z
-x,-y,z
x,-y,-z
-x,y,-z
1/2+x,1/2+y,1/2+z
1/2-x,1/2-y,1/2+z
1/2+x,1/2-y,1/2-z
1/2-x,1/2+y,1/2-z
loop_
_atom_site_type_symbol
_atom_site_label
_atom_site_fract_x
_atom_site_fract_y
_atom_site_fract_z
Si Si1 0.256587 0.500000 0.500000
Si Si2 0.000000 0.276592 0.000000
Si Si3 0.000000 0.000000 0.500000
Si Si4 0.877430 0.585832 0.902573
Si Si5 0.118023 0.128248 0.201159
Si Si6 0.755484 0.190396 0.351913
O O1 0.193160 0.451591 0.703330
O O2 0.323633 0.422331 0.481012
O O3 0.064926 0.211212 0.129588
O O4 0.943589 0.342400 0.178962
O O5 0.054290 0.940962 0.692274
O O6 0.822597 0.628176 0.144660
O O7 0.918303 0.500000 0.000000
O O8 0.171371 0.151632 0.469573
O O9 0.770911 0.234333 0.063590
#
# Coordination Sequence:
#
# PCOD9332028 Si02
#       6
#     4   4   2   8   8   8
#     4  10  26  51  81 110 152 228 278 342 408 548
#     4  12  25  51  72 122 166 214 270 371 429 510
#     4  12  28  46  76 128 164 210 260 386 436 506
#     4  11  27  46  78 111 166 216 280 339 436 504
#     4  11  26  44  81 111 167 204 290 337 444 492
#     4  11  26  48  78 113 151 213 282 337 407 521
#
# _framework density 27.138438000000001
#
# number of rings (size 3 to 8) (size 9 to 14) (size 15 to 20)
#    0.000    0.941    2.353    1.765   16.471    0.000 
#    0.000    3.529    0.000    0.000    0.000    0.000 
#    0.000    0.000    0.000    0.000    0.000    0.000 
#
# Total GULP energy -94946.002660 kJ/mol
# GULP energy per Si atom -5585.058980 kJ/mol
# Density = 2.707667 g / cm^3
# Si number density = 27.138438 Si / 1000 Ang^3
#
#
#
# Elastic Constant Matrix: (Units=GPa)
#
#
# Indices 1 2 3 4 5 6 
#
# 1 182.1781 96.2563 21.9229 0.0000 0.0000 0.0000
# 2 96.2563 266.9391 41.3876 0.0000 0.0000 0.0000
# 3 21.9229 41.3876 80.4289 0.0000 0.0000 0.0000
# 4 0.0000 0.0000 0.0000 31.2503 0.0000 0.0000
# 5 0.0000 0.0000 0.0000 0.0000 9.5377 0.0000
# 6 0.0000 0.0000 0.0000 0.0000 0.0000 44.5113
#
#
#
# Elastic Compliance Matrix: (Units=1/GPa)
#
#
# Indices 1 2 3 4 5 6 
#
# 1 0.006812 -0.002356 -0.000644 0.000000 0.000000 0.000000
# 2 -0.002356 0.004886 -0.001872 0.000000 0.000000 0.000000
# 3 -0.000644 -0.001872 0.013572 0.000000 0.000000 0.000000
# 4 0.000000 0.000000 0.000000 0.032000 0.000000 0.000000
# 5 0.000000 0.000000 0.000000 0.000000 0.104848 0.000000
# 6 0.000000 0.000000 0.000000 0.000000 0.000000 0.022466
#
#
# Mechanical properties :
#
#
# Convention : Reuss Voigt Hill
#
# Bulk Modulus (GPa) = 64.41250 94.29776 79.35513
# Shear Modulus (GPa) = 25.06221 41.72514 33.39367
#
# Velocity S-wave (km/s) = 3.04220 3.92534 3.51164
# Velocity P-wave (km/s) = 6.01052 7.44088 6.76362
#
# Compressibility (1/GPa) = 0.01552494
#
# Stress axis : x y z
#
# Youngs Moduli (GPa) = 146.80694 204.66160 73.67977
#
# Poissons Ratio (x) = 0.48226 0.04746
# Poissons Ratio (y) = 0.34593 0.13793
# Poissons Ratio (z) = 0.09456 0.38314
#
# Static dielectric constant tensor:
#      x y z
#    x 2.154930 0.000000 0.000000 
#    y 0.000000 2.221230 0.000000 
#    z 0.000000 0.000000 2.206270 
# 
# From -- ./inp_files/3014.got.cif
#   From: 2010.05.17/outbox.cif.g08.bks.cpg/sg23_2_cif.got.tgz:3014.got - 2010.06.04 12:02:01.
