data_PCOD9332087
_publ_section_title
;
Structure prediction by ZEFSAII (Michael W. Deem and Ramdas Pophale) SiO2 
 PCOD9332087
Probable space group: I 2 2 2
;
_chemical_formula_sum "Si O2"
_cell_formula_units_Z 36
_cell_length_a 6.313706
_cell_length_b 15.506998
_cell_length_c 18.838126
_cell_angle_alpha 90.000000
_cell_angle_beta 90.000000
_cell_angle_gamma 90.000000
_cell_volume 1844.377363
_symmetry_space_group_name_H-M "I 2 2 2"
_symmetry_group_IT_number 23
_symmetry_cell_setting 'orthorhombic'
loop_
_space_group_symop_operation_xyz
x,y,z
-x,-y,z
x,-y,-z
-x,y,-z
1/2+x,1/2+y,1/2+z
1/2-x,1/2-y,1/2+z
1/2+x,1/2-y,1/2-z
1/2-x,1/2+y,1/2-z
loop_
_atom_site_type_symbol
_atom_site_label
_atom_site_fract_x
_atom_site_fract_y
_atom_site_fract_z
Si Si1 0.500000 0.000000 0.259408
Si Si2 0.641084 0.161696 0.827188
Si Si3 0.407260 0.774328 0.422675
Si Si4 0.294393 0.284562 0.819219
Si Si5 0.862133 0.920758 0.636779
O O1 0.616265 0.931382 0.207931
O O2 0.320720 0.955926 0.309744
O O3 0.792620 0.188835 0.891422
O O4 0.408381 0.197502 0.843978
O O5 0.721428 0.220885 0.761643
O O6 0.500000 0.761340 0.500000
O O7 0.595663 0.799768 0.369278
O O8 0.245574 0.855130 0.418714
O O9 0.462879 0.361676 0.824359
O O10 0.000000 0.000000 0.606885
#
# Coordination Sequence:
#
# PCOD9332087 Si02
#       5
#     4   8   8   8   8
#     4  12  22  38  63 107 126 162 224 290 326 380
#     4  11  21  36  68  95 123 169 221 273 326 398
#     4  11  25  43  62  94 137 178 217 269 338 412
#     4  11  20  39  65  91 122 168 218 266 329 402
#     4  11  21  37  64  95 132 166 217 269 334 394
#
# _framework density 19.518782000000002
#
# number of rings (size 3 to 8) (size 9 to 14) (size 15 to 20)
#    0.000    0.889    6.667    1.333    0.000    3.556 
#    0.000    8.333    0.000    4.000    0.000    0.000 
#    0.000    0.000    0.000    0.000    0.000    0.000 
#
# Total GULP energy -100423.738140 kJ/mol
# GULP energy per Si atom -5579.096563 kJ/mol
# Density = 1.947436 g / cm^3
# Si number density = 19.518782 Si / 1000 Ang^3
#
#
#
# Elastic Constant Matrix: (Units=GPa)
#
#
# Indices 1 2 3 4 5 6 
#
# 1 86.3117 25.2103 33.2720 0.0000 0.0000 0.0000
# 2 25.2103 67.7453 25.3943 0.0000 0.0000 0.0000
# 3 33.2720 25.3943 94.5496 0.0000 0.0000 0.0000
# 4 0.0000 0.0000 0.0000 16.4330 0.0000 0.0000
# 5 0.0000 0.0000 0.0000 0.0000 29.7225 0.0000
# 6 0.0000 0.0000 0.0000 0.0000 0.0000 33.4516
#
#
#
# Elastic Compliance Matrix: (Units=1/GPa)
#
#
# Indices 1 2 3 4 5 6 
#
# 1 0.014234 -0.003802 -0.003988 0.000000 0.000000 0.000000
# 2 -0.003802 0.017429 -0.003343 0.000000 0.000000 0.000000
# 3 -0.003988 -0.003343 0.012878 0.000000 0.000000 0.000000
# 4 0.000000 0.000000 0.000000 0.060853 0.000000 0.000000
# 5 0.000000 0.000000 0.000000 0.000000 0.033645 0.000000
# 6 0.000000 0.000000 0.000000 0.000000 0.000000 0.029894
#
#
# Mechanical properties :
#
#
# Convention : Reuss Voigt Hill
#
# Bulk Modulus (GPa) = 44.89410 46.26221 45.57816
# Shear Modulus (GPa) = 25.17332 26.90342 26.03837
#
# Velocity S-wave (km/s) = 3.59513 3.71662 3.65638
# Velocity P-wave (km/s) = 6.34694 6.49388 6.42083
#
# Compressibility (1/GPa) = 0.02227464
#
# Stress axis : x y z
#
# Youngs Moduli (GPa) = 70.25625 57.37483 77.65398
#
# Poissons Ratio (x) = 0.21814 0.30966
# Poissons Ratio (y) = 0.26712 0.25962
# Poissons Ratio (z) = 0.28016 0.19182
#
# Static dielectric constant tensor:
#      x y z
#    x 1.734560 0.000000 0.000000 
#    y 0.000000 1.751080 0.000000 
#    z 0.000000 0.000000 1.642500 
# 
# From -- ./inp_files/3742.got.cif
#   From: 2010.05.17/outbox.cif.g08.bks.cpg/sg23_2_cif.got.tgz:3742.got - 2010.06.04 12:02:01.
