data_PCOD9332499
_publ_section_title
;
Structure prediction by ZEFSAII (Michael W. Deem and Ramdas Pophale) SiO2 
 PCOD9332499
Probable space group: I 2 2 2
;
_chemical_formula_sum "Si O2"
_cell_formula_units_Z 26
_cell_length_a 5.069208
_cell_length_b 15.322082
_cell_length_c 14.191849
_cell_angle_alpha 90.000000
_cell_angle_beta 90.000000
_cell_angle_gamma 90.000000
_cell_volume 1102.292558
_symmetry_space_group_name_H-M "I 2 2 2"
_symmetry_group_IT_number 23
_symmetry_cell_setting 'orthorhombic'
loop_
_space_group_symop_operation_xyz
x,y,z
-x,-y,z
x,-y,-z
-x,y,-z
1/2+x,1/2+y,1/2+z
1/2-x,1/2-y,1/2+z
1/2+x,1/2-y,1/2-z
1/2-x,1/2+y,1/2-z
loop_
_atom_site_type_symbol
_atom_site_label
_atom_site_fract_x
_atom_site_fract_y
_atom_site_fract_z
Si Si1 0.500000 0.000000 0.000000
Si Si2 0.527287 0.175486 0.605748
Si Si3 0.034457 0.096768 0.692384
Si Si4 0.862507 0.877199 0.097399
O O1 0.589937 0.074002 0.921726
O O2 0.500000 0.139406 0.500000
O O3 0.824640 0.162844 0.643113
O O4 0.409167 0.273387 0.600130
O O5 0.331668 0.125873 0.675069
O O6 0.973637 0.094324 0.802778
O O7 0.000000 0.000000 0.651685
O O8 0.000000 0.907523 0.000000
#
# Coordination Sequence:
#
# PCOD9332499 Si02
#       4
#     2   8   8   8
#     4  12  26  44  80 102 152 196 246 312 378 440
#     4  11  27  47  75 104 148 194 243 305 364 433
#     4  12  26  46  75 107 145 194 246 298 366 439
#     4  11  27  46  73 111 149 188 246 308 380 439
#
# _framework density 23.587205000000001
#
# number of rings (size 3 to 8) (size 9 to 14) (size 15 to 20)
#    0.000    0.615    0.000    6.000   17.231    3.692 
#    0.000    0.000    0.000    0.000    0.000    0.000 
#    0.000    0.000    0.000    0.000    0.000    0.000 
#
# Total GULP energy -72492.833682 kJ/mol
# GULP energy per Si atom -5576.371822 kJ/mol
# Density = 2.353352 g / cm^3
# Si number density = 23.587205 Si / 1000 Ang^3
#
#
#
# Elastic Constant Matrix: (Units=GPa)
#
#
# Indices 1 2 3 4 5 6 
#
# 1 48.6991 -10.4303 6.2175 0.0000 0.0000 0.0000
# 2 -10.4303 116.6354 -9.6994 0.0000 0.0001 0.0000
# 3 6.2175 -9.6994 138.8387 0.0000 0.0000 0.0000
# 4 0.0000 0.0000 0.0000 43.3457 0.0000 0.0000
# 5 0.0000 0.0001 0.0000 0.0000********** 0.0002
# 6 0.0000 0.0000 0.0000 0.0000 0.0002 47.7819
#
#
#
# Elastic Compliance Matrix: (Units=1/GPa)
#
#
# Indices 1 2 3 4 5 6 
#
# 1 0.021027 0.001813 -0.000815 0.000000 0.000000 0.000000
# 2 0.001813 0.008780 0.000532 0.000000 0.000000 0.000000
# 3 -0.000815 0.000532 0.007276 0.000000 0.000000 0.000000
# 4 0.000000 0.000000 0.000000 0.023070 0.000000 0.000000
# 5 0.000000 0.000000 0.000000 0.000000 -0.000093 0.000000
# 6 0.000000 0.000000 0.000000 0.000000 0.000000 0.020928
#
#
# Mechanical properties :
#
#
# Convention : Reuss Voigt Hill
#
# Bulk Modulus (GPa) = 24.91129 30.70543 27.80836
# Shear Modulus (GPa) = 54.75846 -2116.01204 -1030.62679
#
# Velocity S-wave (km/s) = 4.82346 -29.98415 -20.92586
# Velocity P-wave (km/s) = 6.45021 34.43379 23.91737
#
# Compressibility (1/GPa) = 0.04014244
#
# Stress axis : x y z
#
# Youngs Moduli (GPa) = 47.55902 113.89427 137.43283
#
# Poissons Ratio (x) = -0.20644 0.11201
# Poissons Ratio (y) = -0.08620 -0.07314
# Poissons Ratio (z) = 0.03876 -0.06062
#
# Static dielectric constant tensor:
#      x y z
#    x 2.204730 0.000000 0.000000 
#    y 0.000000 75.455530 0.000000 
#    z 0.000000 0.000000 1.836840 
# 
# From -- ./inp_files/18932.got.cif
#   From: 2010.05.17/outbox.cif.g08.bks.cpg/sg23_10_cif.got.tgz:18932.got - 2010.06.04 12:02:01.
