data_PCOD9332906
_publ_section_title
;
Structure prediction by ZEFSAII (Michael W. Deem and Ramdas Pophale) SiO2 
 PCOD9332906
Probable space group: I 21 21 21
;
_chemical_formula_sum "Si O2"
_cell_formula_units_Z 48
_cell_length_a 31.819268
_cell_length_b 7.652635
_cell_length_c 8.580833
_cell_angle_alpha 90.000000
_cell_angle_beta 90.000000
_cell_angle_gamma 90.000000
_cell_volume 2089.443510
_symmetry_space_group_name_H-M "I 21 21 21"
_symmetry_group_IT_number 24
_symmetry_cell_setting 'orthorhombic'
loop_
_space_group_symop_operation_xyz
x,y,z
-x,1/2-y,z
x,-y,1/2-z
1/2-x,y,-z
1/2+x,1/2+y,1/2+z
1/2-x,-y,1/2+z
1/2+x,1/2-y,-z
-x,1/2+y,1/2-z
loop_
_atom_site_type_symbol
_atom_site_label
_atom_site_fract_x
_atom_site_fract_y
_atom_site_fract_z
Si Si1 0.930848 0.500000 0.750000
Si Si2 0.795148 0.777440 0.577949
Si Si3 0.868174 0.814882 0.158408
Si Si4 0.568400 0.008029 0.434024
Si Si5 0.794972 0.202408 0.562016
Si Si6 0.500000 0.250000 0.374052
Si Si7 0.613344 0.338765 0.965622
O O1 0.962525 0.337678 0.723374
O O2 0.902967 0.522786 0.593713
O O3 0.750000 0.728084 0.500000
O O4 0.798650 0.734542 0.761204
O O5 0.837639 0.703255 0.502728
O O6 0.797579 0.989595 0.565564
O O7 0.886409 0.676242 0.278824
O O8 0.858645 0.000000 0.250000
O O9 0.900774 0.864073 0.024952
O O10 0.828388 0.741817 0.066632
O O11 0.522088 0.087564 0.460356
O O12 0.577091 0.000000 0.250000
O O13 0.581378 0.821214 0.497775
O O14 0.750000 0.254509 0.500000
#
# Coordination Sequence:
#
# PCOD9332906 Si02
#       7
#     4   8   8   8   8   4   8
#     4  12  24  42  70  96 128 176 234 290 354 424
#     4  10  19  31  56  93 131 173 220 273 332 408
#     4  10  20  34  56  92 134 174 217 276 344 412
#     4  11  20  39  65  91 128 170 214 280 347 414
#     4  10  18  27  53  92 134 171 215 276 338 393
#     4  12  24  42  66  98 122 170 236 290 350 428
#     4  11  22  39  63  96 132 177 224 279 346 420
#
# _framework density 22.972624
#
# number of rings (size 3 to 8) (size 9 to 14) (size 15 to 20)
#    0.000    1.333    5.833    2.000    2.333    0.000 
#    0.000    6.667    0.000    1.000    0.000    0.000 
#    0.000    0.000    0.000    0.000    0.000    0.000 
#
# Total GULP energy -133960.086343 kJ/mol
# GULP energy per Si atom -5581.670264 kJ/mol
# Density = 2.292034 g / cm^3
# Si number density = 22.972624 Si / 1000 Ang^3
#
#
#
# Elastic Constant Matrix: (Units=GPa)
#
#
# Indices 1 2 3 4 5 6 
#
# 1 134.7816 27.1734 50.6687 0.0000 0.0000 0.0000
# 2 27.1734 88.5971 38.4199 0.0000 0.0000 0.0000
# 3 50.6687 38.4199 132.0645 0.0000 0.0000 0.0000
# 4 0.0000 0.0000 0.0000 8.9258 0.0000 0.0000
# 5 0.0000 0.0000 0.0000 0.0000 27.2392 0.0000
# 6 0.0000 0.0000 0.0000 0.0000 0.0000 -20.9531
#
#
#
# Elastic Compliance Matrix: (Units=1/GPa)
#
#
# Indices 1 2 3 4 5 6 
#
# 1 0.008823 -0.001417 -0.002973 0.000000 0.000000 0.000000
# 2 -0.001417 0.013144 -0.003280 0.000000 0.000000 0.000000
# 3 -0.002973 -0.003280 0.009667 0.000000 0.000000 0.000000
# 4 0.000000 0.000000 0.000000 0.112035 0.000000 0.000000
# 5 0.000000 0.000000 0.000000 0.000000 0.036712 0.000000
# 6 0.000000 0.000000 0.000000 0.000000 0.000000 -0.047726
#
#
# Mechanical properties :
#
#
# Convention : Reuss Voigt Hill
#
# Bulk Modulus (GPa) = 61.37268 65.32968 63.35118
# Shear Modulus (GPa) = 32.58903 18.98779 25.78841
#
# Velocity S-wave (km/s) = 3.77052 2.87808 3.35411
# Velocity P-wave (km/s) = 6.76235 6.28842 6.52969
#
# Compressibility (1/GPa) = 0.01629390
#
# Stress axis : x y z
#
# Youngs Moduli (GPa) = 113.34515 76.07987 103.44596
#
# Poissons Ratio (x) = 0.10779 0.30752
# Poissons Ratio (y) = 0.16059 0.33933
# Poissons Ratio (z) = 0.33695 0.24956
#
# Static dielectric constant tensor:
#      x y z
#    x 1.918200 0.000000 0.000000 
#    y 0.000000 2.033090 0.000000 
#    z 0.000000 0.000000 1.891550 
# 
# From -- ./inp_files/16861.got.cif
#   From: 2010.05.17/outbox.cif.g08.bks.cpg/sg24_9_cif.got.tgz:16861.got - 2010.06.04 00:33:39.
