data_PCOD9332439
_publ_section_title
;
Structure prediction by ZEFSAII (Michael W. Deem and Ramdas Pophale) SiO2 
 PCOD9332439
Probable space group: I 2 2 2
;
_chemical_formula_sum "Si O2"
_cell_formula_units_Z 48
_cell_length_a 29.630884
_cell_length_b 8.606022
_cell_length_c 7.605663
_cell_angle_alpha 90.000000
_cell_angle_beta 90.000000
_cell_angle_gamma 90.000000
_cell_volume 1939.474789
_symmetry_space_group_name_H-M "I 2 2 2"
_symmetry_group_IT_number 23
_symmetry_cell_setting 'orthorhombic'
loop_
_space_group_symop_operation_xyz
x,y,z
-x,-y,z
x,-y,-z
-x,y,-z
1/2+x,1/2+y,1/2+z
1/2-x,1/2-y,1/2+z
1/2+x,1/2-y,1/2-z
1/2-x,1/2+y,1/2-z
loop_
_atom_site_type_symbol
_atom_site_label
_atom_site_fract_x
_atom_site_fract_y
_atom_site_fract_z
Si Si1 0.113982 0.400843 0.860811
Si Si2 0.555933 0.329836 0.280583
Si Si3 0.548440 0.315481 0.710088
Si Si4 0.715193 0.612825 0.774783
Si Si5 0.859075 0.645582 0.364447
Si Si6 0.300507 0.708398 0.626027
O O1 0.078382 0.327575 0.725241
O O2 0.147031 0.542648 0.810776
O O3 0.147704 0.258256 0.881859
O O4 0.084877 0.500000 0.000000
O O5 0.556819 0.314792 0.495721
O O6 0.562895 0.511886 0.235385
O O7 0.503658 0.293988 0.242012
O O8 0.593396 0.230373 0.179298
O O9 0.679401 0.724168 0.875524
O O10 0.705665 0.429414 0.768799
O O11 0.711026 0.654863 0.569508
O O12 0.765363 0.656502 0.830250
O O13 0.857459 0.500000 0.500000
#
# Coordination Sequence:
#
# PCOD9332439 Si02
#       6
#     8   8   8   8   8   8
#     4  12  22  40  64  96 132 173 226 282 334 404
#     4   9  18  38  64  99 129 170 225 285 338 404
#     4   9  18  36  69  96 126 169 232 285 335 397
#     4  11  25  44  69  97 135 182 227 287 345 410
#     4  12  26  42  62  96 145 180 222 282 349 416
#     4  11  25  43  69  99 133 177 232 284 344 412
#
# _framework density 24.748967
#
# number of rings (size 3 to 8) (size 9 to 14) (size 15 to 20)
#    0.000    1.333    3.333    3.000    4.667    3.333 
#    0.000    4.167    0.000    2.000    0.000    0.000 
#    0.000    0.000    0.000    0.000    0.000    0.000 
#
# Total GULP energy -133848.076178 kJ/mol
# GULP energy per Si atom -5577.003174 kJ/mol
# Density = 2.469264 g / cm^3
# Si number density = 24.748967 Si / 1000 Ang^3
#
#
#
# Elastic Constant Matrix: (Units=GPa)
#
#
# Indices 1 2 3 4 5 6 
#
# 1 147.8237 82.0949 29.6674 0.0000 0.0000 0.0000
# 2 82.0949 132.8223 47.1710 0.0000 0.0000 0.0000
# 3 29.6674 47.1710 47.0964 0.0000 0.0000 0.0000
# 4 0.0000 0.0000 0.0000 41.7818 0.0000 0.0000
# 5 0.0000 0.0000 0.0000 0.0000 14.7748 0.0000
# 6 0.0000 0.0000 0.0000 0.0000 0.0000 37.3386
#
#
#
# Elastic Compliance Matrix: (Units=1/GPa)
#
#
# Indices 1 2 3 4 5 6 
#
# 1 0.010301 -0.006305 -0.000174 0.000000 0.000000 0.000000
# 2 -0.006305 0.015545 -0.011598 0.000000 0.000000 0.000000
# 3 -0.000174 -0.011598 0.032958 0.000000 0.000000 0.000000
# 4 0.000000 0.000000 0.000000 0.023934 0.000000 0.000000
# 5 0.000000 0.000000 0.000000 0.000000 0.067683 0.000000
# 6 0.000000 0.000000 0.000000 0.000000 0.000000 0.026782
#
#
# Mechanical properties :
#
#
# Convention : Reuss Voigt Hill
#
# Bulk Modulus (GPa) = 44.14757 71.73432 57.94095
# Shear Modulus (GPa) = 22.63393 30.03298 26.33346
#
# Velocity S-wave (km/s) = 3.02742 3.48732 3.26547
# Velocity P-wave (km/s) = 5.48609 6.72777 6.13841
#
# Compressibility (1/GPa) = 0.02265130
#
# Stress axis : x y z
#
# Youngs Moduli (GPa) = 97.07377 64.32979 30.34122
#
# Poissons Ratio (x) = 0.40563 0.00527
# Poissons Ratio (y) = 0.61209 0.35188
# Poissons Ratio (z) = 0.01687 0.74607
#
# Static dielectric constant tensor:
#      x y z
#    x 1.943900 0.000000 0.000000 
#    y 0.000000 2.024860 0.000000 
#    z 0.000000 0.000000 2.549550 
# 
# From -- ./inp_files/13371.got.cif
#   From: 2010.05.17/outbox.cif.g08.bks.cpg/sg23_7_cif.got.tgz:13371.got - 2010.06.04 12:02:01.
