data_PCOD9332546
_publ_section_title
;
Structure prediction by ZEFSAII (Michael W. Deem and Ramdas Pophale) SiO2 
 PCOD9332546
Probable space group: I 2 2 2
;
_chemical_formula_sum "Si O2"
_cell_formula_units_Z 56
_cell_length_a 7.310013
_cell_length_b 20.430556
_cell_length_c 16.113482
_cell_angle_alpha 90.000000
_cell_angle_beta 90.000000
_cell_angle_gamma 90.000000
_cell_volume 2406.510347
_symmetry_space_group_name_H-M "I 2 2 2"
_symmetry_group_IT_number 23
_symmetry_cell_setting 'orthorhombic'
loop_
_space_group_symop_operation_xyz
x,y,z
-x,-y,z
x,-y,-z
-x,y,-z
1/2+x,1/2+y,1/2+z
1/2-x,1/2-y,1/2+z
1/2+x,1/2-y,1/2-z
1/2-x,1/2+y,1/2-z
loop_
_atom_site_type_symbol
_atom_site_label
_atom_site_fract_x
_atom_site_fract_y
_atom_site_fract_z
Si Si1 0.434913 0.302690 0.844005
Si Si2 0.226907 0.377537 0.237161
Si Si3 0.282507 0.518399 0.871915
Si Si4 0.294774 0.400451 0.974903
Si Si5 0.730573 0.572687 0.594516
Si Si6 0.882129 0.320141 0.283843
Si Si7 0.789298 0.921589 0.910541
O O1 0.589290 0.352968 0.808460
O O2 0.337482 0.332758 0.926531
O O3 0.283949 0.295103 0.772594
O O4 0.546790 0.235389 0.847126
O O5 0.213984 0.453801 0.214062
O O6 0.236439 0.374172 0.336429
O O7 0.043593 0.338301 0.219553
O O8 0.500000 0.500000 0.860504
O O9 0.215922 0.422865 0.064125
O O10 0.788851 0.549310 0.908904
O O11 0.500000 0.422736 0.000000
O O12 0.816119 0.616619 0.665751
O O13 0.774512 0.598424 0.501985
O O14 0.509651 0.575758 0.596061
O O15 0.778016 0.496185 0.600058
#
# Coordination Sequence:
#
# PCOD9332546 Si02
#       7
#     8   8   8   8   8   8   8
#     4  12  24  44  65  92 139 178 230 278 323 400
#     4  12  23  39  67  99 131 173 220 280 339 391
#     4   9  18  35  67 102 130 166 219 276 344 403
#     4   9  18  37  68  98 125 180 219 266 345 404
#     4   9  20  41  65 100 137 171 219 272 346 408
#     4  12  27  44  66  97 136 183 233 274 329 408
#     4   9  20  39  69  99 135 172 210 284 347 399
#
# _framework density 23.270209000000001
#
# number of rings (size 3 to 8) (size 9 to 14) (size 15 to 20)
#    0.000    1.714    5.714    1.714    4.000    1.143 
#    2.571    2.143    0.000    1.714    0.000    0.000 
#    0.000    0.000    0.000    0.000    0.000    0.000 
#
# Total GULP energy -155975.412362 kJ/mol
# GULP energy per Si atom -5570.550441 kJ/mol
# Density = 2.321724 g / cm^3
# Si number density = 23.270209 Si / 1000 Ang^3
#
#
#
# Elastic Constant Matrix: (Units=GPa)
#
#
# Indices 1 2 3 4 5 6 
#
# 1 91.5173 21.9588 10.5332 0.0000 0.0000 0.0000
# 2 21.9588 78.9530 21.2322 0.0000 0.0000 0.0000
# 3 10.5332 21.2322 51.3034 0.0000 -0.0001 0.0000
# 4 0.0000 0.0000 0.0000 34.4734 0.0000 0.0000
# 5 0.0000 0.0000 -0.0001 0.0000 111.3962 0.0000
# 6 0.0000 0.0000 0.0000 0.0000 0.0000 18.6333
#
#
#
# Elastic Compliance Matrix: (Units=1/GPa)
#
#
# Indices 1 2 3 4 5 6 
#
# 1 0.011773 -0.002953 -0.001195 0.000000 0.000000 0.000000
# 2 -0.002953 0.014993 -0.005599 0.000000 0.000000 0.000000
# 3 -0.001195 -0.005599 0.022054 0.000000 0.000000 0.000000
# 4 0.000000 0.000000 0.000000 0.029008 0.000000 0.000000
# 5 0.000000 0.000000 0.000000 0.000000 0.008977 0.000000
# 6 0.000000 0.000000 0.000000 0.000000 0.000000 0.053667
#
#
# Mechanical properties :
#
#
# Convention : Reuss Voigt Hill
#
# Bulk Modulus (GPa) = 34.09853 36.58025 35.33939
# Shear Modulus (GPa) = 29.45667 44.10386 36.78027
#
# Velocity S-wave (km/s) = 3.56174 4.35822 3.97996
# Velocity P-wave (km/s) = 5.62137 6.40932 6.02823
#
# Compressibility (1/GPa) = 0.02932677
#
# Stress axis : x y z
#
# Youngs Moduli (GPa) = 84.94027 66.69946 45.34280
#
# Poissons Ratio (x) = 0.19696 0.05419
# Poissons Ratio (y) = 0.25083 0.25385
# Poissons Ratio (z) = 0.10151 0.37342
#
# Static dielectric constant tensor:
#      x y z
#    x 1.959000 0.000000 0.000000 
#    y 0.000000 1.859650 0.000000 
#    z 0.000000 0.000000 1.951960 
# 
# From -- ./inp_files/23939.got.cif
#   From: 2010.05.17/outbox.cif.g08.bks.cpg/sg23_12_cif.got.tgz:23939.got - 2010.06.04 12:02:01.
