data_PCOD9332571
_publ_section_title
;
Structure prediction by ZEFSAII (Michael W. Deem and Ramdas Pophale) SiO2 
 PCOD9332571
Probable space group: I 2 2 2
;
_chemical_formula_sum "Si O2"
_cell_formula_units_Z 36
_cell_length_a 9.721714
_cell_length_b 13.050370
_cell_length_c 11.465740
_cell_angle_alpha 90.000000
_cell_angle_beta 90.000000
_cell_angle_gamma 90.000000
_cell_volume 1454.680961
_symmetry_space_group_name_H-M "I 2 2 2"
_symmetry_group_IT_number 23
_symmetry_cell_setting 'orthorhombic'
loop_
_space_group_symop_operation_xyz
x,y,z
-x,-y,z
x,-y,-z
-x,y,-z
1/2+x,1/2+y,1/2+z
1/2-x,1/2-y,1/2+z
1/2+x,1/2-y,1/2-z
1/2-x,1/2+y,1/2-z
loop_
_atom_site_type_symbol
_atom_site_label
_atom_site_fract_x
_atom_site_fract_y
_atom_site_fract_z
Si Si1 0.580938 0.605682 0.172218
Si Si2 0.500000 0.772920 0.000000
Si Si3 0.772719 0.426328 0.399358
Si Si4 0.878257 0.437005 0.816632
Si Si5 0.977039 0.218284 0.862537
O O1 0.500000 0.500000 0.176878
O O2 0.492599 0.690130 0.104103
O O3 0.732189 0.584011 0.121348
O O4 0.600233 0.658236 0.298939
O O5 0.621720 0.848867 0.037704
O O6 0.716002 0.500000 0.500000
O O7 0.841133 0.496422 0.298944
O O8 0.652436 0.357054 0.347915
O O9 0.944098 0.325444 0.801551
O O10 0.000000 0.500000 0.876099
O O11 0.000000 0.234642 0.000000
#
# Coordination Sequence:
#
# PCOD9332571 Si02
#       5
#     8   4   8   8   8
#     4  12  26  50  79 113 165 211 275 331 406 478
#     4  12  26  50  78 116 150 220 260 338 394 482
#     4  12  24  46  80 112 155 208 273 322 388 487
#     4  12  27  50  76 118 158 209 266 337 397 478
#     4  12  28  47  78 117 162 209 262 331 408 478
#
# _framework density 24.747692000000001
#
# number of rings (size 3 to 8) (size 9 to 14) (size 15 to 20)
#    0.000    0.000    4.444    6.000    0.000    2.222 
#    4.000    0.000    0.000    0.000    0.000    0.000 
#    0.000    0.000    0.000    0.000    0.000    0.000 
#
# Total GULP energy -100731.940287 kJ/mol
# GULP energy per Si atom -5596.218905 kJ/mol
# Density = 2.469137 g / cm^3
# Si number density = 24.747692 Si / 1000 Ang^3
#
#
#
# Elastic Constant Matrix: (Units=GPa)
#
#
# Indices 1 2 3 4 5 6 
#
# 1 93.9059 53.4022 18.5009 0.0000 0.0000 0.0000
# 2 53.4022 215.0152 63.1966 0.0000 0.0000 0.0000
# 3 18.5009 63.1966 102.5415 0.0000 0.0000 0.0000
# 4 0.0000 0.0000 0.0000 14.3674 0.0000 0.0000
# 5 0.0000 0.0000 0.0000 0.0000 13.9569 0.0000
# 6 0.0000 0.0000 0.0000 0.0000 0.0000 48.9403
#
#
#
# Elastic Compliance Matrix: (Units=1/GPa)
#
#
# Indices 1 2 3 4 5 6 
#
# 1 0.012415 -0.002962 -0.000415 0.000000 0.000000 0.000000
# 2 -0.002962 0.006386 -0.003401 0.000000 0.000000 0.000000
# 3 -0.000415 -0.003401 0.011923 0.000000 0.000000 0.000000
# 4 0.000000 0.000000 0.000000 0.069602 0.000000 0.000000
# 5 0.000000 0.000000 0.000000 0.000000 0.071649 0.000000
# 6 0.000000 0.000000 0.000000 0.000000 0.000000 0.020433
#
#
# Mechanical properties :
#
#
# Convention : Reuss Voigt Hill
#
# Bulk Modulus (GPa) = 58.24513 75.74025 66.99269
# Shear Modulus (GPa) = 23.61982 33.87712 28.74847
#
# Velocity S-wave (km/s) = 3.09273 3.70388 3.41201
# Velocity P-wave (km/s) = 6.02826 6.99736 6.53081
#
# Compressibility (1/GPa) = 0.01716882
#
# Stress axis : x y z
#
# Youngs Moduli (GPa) = 80.54898 156.58978 83.86939
#
# Poissons Ratio (x) = 0.46374 0.03478
# Poissons Ratio (y) = 0.23855 0.28528
# Poissons Ratio (z) = 0.03341 0.53263
#
# Static dielectric constant tensor:
#      x y z
#    x 1.987770 0.000000 0.000000 
#    y 0.000000 1.905220 0.000000 
#    z 0.000000 0.000000 2.113590 
# 
# From -- ./inp_files/15350.got.cif
#   From: 2010.05.17/outbox.cif.g08.bks.cpg/sg23_8_cif.got.tgz:15350.got - 2010.06.04 12:02:01.
