data_PCOD9332006
_publ_section_title
;
Structure prediction by ZEFSAII (Michael W. Deem and Ramdas Pophale) SiO2 
 PCOD9332006
Probable space group: I 2 2 2
;
_chemical_formula_sum "Si O2"
_cell_formula_units_Z 52
_cell_length_a 5.272304
_cell_length_b 20.230877
_cell_length_c 22.509415
_cell_angle_alpha 90.000000
_cell_angle_beta 90.000000
_cell_angle_gamma 90.000000
_cell_volume 2400.929244
_symmetry_space_group_name_H-M "I 2 2 2"
_symmetry_group_IT_number 23
_symmetry_cell_setting 'orthorhombic'
loop_
_space_group_symop_operation_xyz
x,y,z
-x,-y,z
x,-y,-z
-x,y,-z
1/2+x,1/2+y,1/2+z
1/2-x,1/2-y,1/2+z
1/2+x,1/2-y,1/2-z
1/2-x,1/2+y,1/2-z
loop_
_atom_site_type_symbol
_atom_site_label
_atom_site_fract_x
_atom_site_fract_y
_atom_site_fract_z
Si Si1 0.950725 0.851276 0.387467
Si Si2 0.582275 0.794093 0.933075
Si Si3 0.459328 0.921549 0.430531
Si Si4 0.493249 0.293369 0.757147
Si Si5 0.903135 0.912773 0.934331
Si Si6 0.500000 0.000000 0.131943
Si Si7 0.274780 0.120130 0.159716
O O1 0.918940 0.783788 0.425127
O O2 0.681823 0.887480 0.392833
O O3 0.009295 0.828108 0.320747
O O4 0.182435 0.895646 0.411467
O O5 0.842576 0.834564 0.926913
O O6 0.408865 0.824727 0.880962
O O7 0.500000 0.811816 0.000000
O O8 0.500000 0.904157 0.500000
O O9 0.500000 0.000000 0.425079
O O10 0.764090 0.260817 0.740912
O O11 0.396637 0.345450 0.708334
O O12 0.115426 0.925351 0.885636
O O13 0.665130 0.955911 0.915448
O O14 0.000000 0.924955 0.000000
O O15 0.538854 0.938198 0.179178
#
# Coordination Sequence:
#
# PCOD9332006 Si02
#       7
#     8   8   8   8   8   4   8
#     4  12  25  44  75 111 140 190 244 289 365 442
#     4  11  22  39  64 103 136 170 232 294 356 414
#     4  11  25  48  74 108 151 188 229 296 374 449
#     4  12  26  48  74 102 144 189 239 301 364 429
#     4  11  23  41  65  94 140 182 232 295 353 418
#     4  10  26  43  60 100 130 190 245 286 356 422
#     4  11  24  44  66  93 137 185 234 292 353 415
#
# _framework density 21.658280000000001
#
# number of rings (size 3 to 8) (size 9 to 14) (size 15 to 20)
#    0.000    0.769    3.077    4.154    4.308    3.692 
#    1.385    1.538    0.000    0.000    0.000    0.000 
#    0.000    0.000    0.000    0.000    0.000    0.000 
#
# Total GULP energy -145149.393101 kJ/mol
# GULP energy per Si atom -5582.668965 kJ/mol
# Density = 2.160898 g / cm^3
# Si number density = 21.658280 Si / 1000 Ang^3
#
#
#
# Elastic Constant Matrix: (Units=GPa)
#
#
# Indices 1 2 3 4 5 6 
#
# 1 48.5490 6.0360 -14.3862 0.0000 0.0000 0.0000
# 2 6.0360 99.2833 4.4452 0.0000 0.0000 0.0000
# 3 -14.3862 4.4452 75.3223 0.0000 0.0000 0.0000
# 4 0.0000 0.0000 0.0000 15.0332 0.0000 0.0000
# 5 0.0000 0.0000 0.0000 0.0000 26.0475 0.0000
# 6 0.0000 0.0000 0.0000 0.0000 0.0000 18.7846
#
#
#
# Elastic Compliance Matrix: (Units=1/GPa)
#
#
# Indices 1 2 3 4 5 6 
#
# 1 0.022064 -0.001534 0.004305 0.000000 0.000000 0.000000
# 2 -0.001534 0.010206 -0.000895 0.000000 0.000000 0.000000
# 3 0.004305 -0.000895 0.014151 0.000000 0.000000 0.000000
# 4 0.000000 0.000000 0.000000 0.066520 0.000000 0.000000
# 5 0.000000 0.000000 0.000000 0.000000 0.038391 0.000000
# 6 0.000000 0.000000 0.000000 0.000000 0.000000 0.053235
#
#
# Mechanical properties :
#
#
# Convention : Reuss Voigt Hill
#
# Bulk Modulus (GPa) = 19.93169 23.92718 21.92943
# Shear Modulus (GPa) = 22.98424 27.11035 25.04730
#
# Velocity S-wave (km/s) = 3.26117 3.54182 3.40439
# Velocity P-wave (km/s) = 4.83768 5.27234 5.05968
#
# Compressibility (1/GPa) = 0.05017137
#
# Stress axis : x y z
#
# Youngs Moduli (GPa) = 45.32257 97.98599 70.66490
#
# Poissons Ratio (x) = 0.15032 -0.30419
# Poissons Ratio (y) = 0.06953 0.06327
# Poissons Ratio (z) = -0.19510 0.08773
#
# Static dielectric constant tensor:
#      x y z
#    x 0.887030 0.000000 0.000000 
#    y 0.000000 1.927590 0.000000 
#    z 0.000000 0.000000 1.780240 
# 
# From -- ./inp_files/25736.got.cif
#   From: 2010.05.17/outbox.cif.g08.bks.cpg/sg23_13_cif.got.tgz:25736.got - 2010.06.04 12:02:01.
