data_PCOD9332663
_publ_section_title
;
Structure prediction by ZEFSAII (Michael W. Deem and Ramdas Pophale) SiO2 
 PCOD9332663
Probable space group: I 2 2 2
;
_chemical_formula_sum "Si O2"
_cell_formula_units_Z 20
_cell_length_a 9.000000
_cell_length_b 9.000000
_cell_length_c 24.000000
_cell_angle_alpha 90.000000
_cell_angle_beta 90.000000
_cell_angle_gamma 90.000000
_cell_volume 1944.000000
_symmetry_space_group_name_H-M "I 2 2 2"
_symmetry_group_IT_number 23
_symmetry_cell_setting 'orthorhombic'
loop_
_space_group_symop_operation_xyz
x,y,z
-x,-y,z
x,-y,-z
-x,y,-z
1/2+x,1/2+y,1/2+z
1/2-x,1/2-y,1/2+z
1/2+x,1/2-y,1/2-z
1/2-x,1/2+y,1/2-z
loop_
_atom_site_type_symbol
_atom_site_label
_atom_site_fract_x
_atom_site_fract_y
_atom_site_fract_z
Si Si1 0.321915 0.830961 0.887087
Si Si2 0.821773 0.679393 0.003366
Si Si3 0.323960 0.191903 0.891532
Si Si4 0.382154 0.130554 0.300602
Si Si5 0.115164 0.866981 0.783133
O O1 0.497036 0.782537 0.881270
O O2 0.213207 0.804001 0.834473
O O3 0.313682 0.011703 0.891815
O O4 0.249777 0.748426 0.940449
O O5 0.731435 0.748819 0.951421
O O6 0.806876 0.500000 0.000000
O O7 0.000000 0.713211 0.000000
O O8 0.208718 0.273767 0.848047
O O9 0.243007 0.082842 0.260963
O O10 0.497624 0.237402 0.266971
O O11 0.500000 0.000000 0.319729
O O12 0.000000 0.000000 0.797536
#
# Coordination Sequence:
#
# PCOD9332663 Si02
#       5
#     8   8   8   8   8
#     4  11  25  46  74 101 144 192 246 297 361 443
#     4  11  26  45  71 106 145 186 238 300 369 437
#     4  11  25  46  72 105 142 193 245 297 364 440
#     4  12  27  44  73 107 150 190 248 307 365 436
#     4  12  25  47  72 105 144 197 244 300 369 438
#
# _framework density 10.288066000000001
#
# number of rings (size 3 to 8) (size 9 to 14) (size 15 to 20)
#    0.000    0.600    2.000    4.800    8.400    4.000 
#    0.000    0.000    0.000    0.000    0.000    0.000 
#    0.000    0.000    0.000    0.000    0.000    0.000 
#
# Total GULP energy -111682.641307 kJ/mol
# GULP energy per Si atom -5584.132065 kJ/mol
# Density = 1.026465 g / cm^3
# Si number density = 10.288066 Si / 1000 Ang^3
#
#
#
# Elastic Constant Matrix: (Units=GPa)
#
#
# Indices 1 2 3 4 5 6 
#
# 1 216.4182 60.0248 63.4165 0.0000 0.0000 0.0000
# 2 60.0248 81.2327 21.6715 0.0000 0.0000 0.0000
# 3 63.4165 21.6715 121.7678 0.0000 0.0000 0.0000
# 4 0.0000 0.0000 0.0000 30.1483 0.0000 0.0000
# 5 0.0000 0.0000 0.0000 0.0000 48.6496 0.0000
# 6 0.0000 0.0000 0.0000 0.0000 0.0000 59.0156
#
#
#
# Elastic Compliance Matrix: (Units=1/GPa)
#
#
# Indices 1 2 3 4 5 6 
#
# 1 0.006549 -0.004125 -0.002677 0.000000 0.000000 0.000000
# 2 -0.004125 0.015522 -0.000614 0.000000 0.000000 0.000000
# 3 -0.002677 -0.000614 0.009716 0.000000 0.000000 0.000000
# 4 0.000000 0.000000 0.000000 0.033169 0.000000 0.000000
# 5 0.000000 0.000000 0.000000 0.000000 0.020555 0.000000
# 6 0.000000 0.000000 0.000000 0.000000 0.000000 0.016945
#
#
# Mechanical properties :
#
#
# Convention : Reuss Voigt Hill
#
# Bulk Modulus (GPa) = 58.97911 78.84937 68.91424
# Shear Modulus (GPa) = 40.67019 45.84977 43.25998
#
# Velocity S-wave (km/s) = 4.45069 4.72561 4.59021
# Velocity P-wave (km/s) = 7.42547 8.25707 7.85228
#
# Compressibility (1/GPa) = 0.01695516
#
# Stress axis : x y z
#
# Youngs Moduli (GPa) = 152.69118 64.42301 102.92699
#
# Poissons Ratio (x) = 0.26576 0.27550
# Poissons Ratio (y) = 0.62989 0.06321
# Poissons Ratio (z) = 0.40869 0.03957
#
# Static dielectric constant tensor:
#      x y z
#    x 1.702520 0.000000 0.000000 
#    y 0.000000 1.779470 0.000000 
#    z 0.000000 0.000000 1.758860 
# 
# From -- ./inp_files/12898.got.cif
#   From: 2010.05.17/outbox.ucp.g08.bks.cvg/sg23_7_cif.got.tgz:12898.got - 2010.06.11 15:19:07.
