data_PCOD9332581
_publ_section_title
;
Structure prediction by ZEFSAII (Michael W. Deem and Ramdas Pophale) SiO2 
 PCOD9332581
Probable space group: I 2 2 2
;
_chemical_formula_sum "Si O2"
_cell_formula_units_Z 58
_cell_length_a 28.506484
_cell_length_b 7.098206
_cell_length_c 13.155416
_cell_angle_alpha 90.000000
_cell_angle_beta 90.000000
_cell_angle_gamma 90.000000
_cell_volume 2661.931279
_symmetry_space_group_name_H-M "I 2 2 2"
_symmetry_group_IT_number 23
_symmetry_cell_setting 'orthorhombic'
loop_
_space_group_symop_operation_xyz
x,y,z
-x,-y,z
x,-y,-z
-x,y,-z
1/2+x,1/2+y,1/2+z
1/2-x,1/2-y,1/2+z
1/2+x,1/2-y,1/2-z
1/2-x,1/2+y,1/2-z
loop_
_atom_site_type_symbol
_atom_site_label
_atom_site_fract_x
_atom_site_fract_y
_atom_site_fract_z
Si Si1 0.847672 0.272188 0.812794
Si Si2 0.500000 0.500000 0.500000
Si Si3 0.070989 0.301029 0.037130
Si Si4 0.357091 0.303437 0.133706
Si Si5 0.362676 0.675559 0.643929
Si Si6 0.249216 0.300781 0.661828
Si Si7 0.155574 0.225706 0.418943
Si Si8 0.757635 0.232840 0.110419
O O1 0.891571 0.348856 0.874780
O O2 0.796562 0.313873 0.862673
O O3 0.847083 0.325761 0.692242
O O4 0.853139 0.045628 0.831597
O O5 0.532312 0.644341 0.564269
O O6 0.051448 0.500000 0.000000
O O7 0.099475 0.209856 0.942560
O O8 0.376886 0.246978 0.244167
O O9 0.301469 0.287188 0.153378
O O10 0.365857 0.522632 0.108882
O O11 0.366830 0.204264 0.025195
O O12 0.313387 0.756254 0.599846
O O13 0.254012 0.327758 0.782118
O O14 0.251356 0.506166 0.613512
O O15 0.211128 0.205476 0.449260
#
# Coordination Sequence:
#
# PCOD9332581 Si02
#       8
#     8   2   8   8   8   8   8   8
#     4   9  18  35  53  77 117 156 193 245 297 346
#     4  12  26  52  68  90 126 136 186 264 324 372
#     4  12  25  41  69  94 113 151 188 241 315 378
#     4   9  18  31  49  77 116 161 203 239 279 331
#     4   9  18  35  53  77 117 156 193 245 297 346
#     4   9  17  28  45  68 106 155 199 241 281 320
#     4   9  18  31  49  77 116 161 203 239 279 331
#     4   9  17  28  45  68 106 155 199 241 281 320
#
# _framework density 21.788692000000001
#
# number of rings (size 3 to 8) (size 9 to 14) (size 15 to 20)
#    0.000    2.483    1.379    2.690    1.931    6.069 
#    0.000    0.000    0.000    0.000    0.000    1.931 
#    0.000    2.207    0.000    0.000    0.000    0.000 
#
# Total GULP energy -161542.172056 kJ/mol
# GULP energy per Si atom -5570.419726 kJ/mol
# Density = 2.173910 g / cm^3
# Si number density = 21.788692 Si / 1000 Ang^3
#
#
#
# Elastic Constant Matrix: (Units=GPa)
#
#
# Indices 1 2 3 4 5 6 
#
# 1 63.8227 15.1886 15.3691 0.0000 0.0000 0.0000
# 2 15.1886 75.8276 -2.6640 0.0000 0.0000 0.0000
# 3 15.3691 -2.6640 140.4208 0.0000 0.0000 0.0000
# 4 0.0000 0.0000 0.0000 16.8460 0.0000 0.0000
# 5 0.0000 0.0000 0.0000 0.0000 5.1155 0.0000
# 6 0.0000 0.0000 0.0000 0.0000 0.0000 25.7447
#
#
#
# Elastic Compliance Matrix: (Units=1/GPa)
#
#
# Indices 1 2 3 4 5 6 
#
# 1 0.016955 -0.003464 -0.001921 0.000000 0.000000 0.000000
# 2 -0.003464 0.013904 0.000643 0.000000 0.000000 0.000000
# 3 -0.001921 0.000643 0.007344 0.000000 0.000000 0.000000
# 4 0.000000 0.000000 0.000000 0.059361 0.000000 0.000000
# 5 0.000000 0.000000 0.000000 0.000000 0.195485 0.000000
# 6 0.000000 0.000000 0.000000 0.000000 0.000000 0.038843
#
#
# Mechanical properties :
#
#
# Convention : Reuss Voigt Hill
#
# Bulk Modulus (GPa) = 34.82030 37.31762 36.06896
# Shear Modulus (GPa) = 14.24702 26.35307 20.30004
#
# Velocity S-wave (km/s) = 2.55987 3.48154 3.05565
# Velocity P-wave (km/s) = 4.97522 5.77284 5.38881
#
# Compressibility (1/GPa) = 0.02871888
#
# Stress axis : x y z
#
# Youngs Moduli (GPa) = 58.97819 71.92071 136.16644
#
# Poissons Ratio (x) = 0.24912 0.26164
# Poissons Ratio (y) = 0.20429 -0.08754
# Poissons Ratio (z) = 0.11333 -0.04624
#
# Static dielectric constant tensor:
#      x y z
#    x 1.788170 0.000000 0.000000 
#    y 0.000000 1.802860 0.000000 
#    z 0.000000 0.000000 1.909110 
# 
# From -- ./inp_files/22752.got.cif
#   From: 2010.05.17/outbox.cif.g08.bks.cpg/sg23_12_cif.got.tgz:22752.got - 2010.06.04 12:02:01.
