data_PCOD9332590
_publ_section_title
;
Structure prediction by ZEFSAII (Michael W. Deem and Ramdas Pophale) SiO2 
 PCOD9332590
Probable space group: I 2 2 2
;
_chemical_formula_sum "Si O2"
_cell_formula_units_Z 44
_cell_length_a 7.995640
_cell_length_b 15.002778
_cell_length_c 16.360556
_cell_angle_alpha 90.000000
_cell_angle_beta 90.000000
_cell_angle_gamma 90.000000
_cell_volume 1962.560138
_symmetry_space_group_name_H-M "I 2 2 2"
_symmetry_group_IT_number 23
_symmetry_cell_setting 'orthorhombic'
loop_
_space_group_symop_operation_xyz
x,y,z
-x,-y,z
x,-y,-z
-x,y,-z
1/2+x,1/2+y,1/2+z
1/2-x,1/2-y,1/2+z
1/2+x,1/2-y,1/2-z
1/2-x,1/2+y,1/2-z
loop_
_atom_site_type_symbol
_atom_site_label
_atom_site_fract_x
_atom_site_fract_y
_atom_site_fract_z
Si Si1 0.500000 0.500000 0.289974
Si Si2 0.500000 0.000000 0.789669
Si Si3 0.482198 0.676158 0.214835
Si Si4 0.753254 0.460843 0.587313
Si Si5 0.000000 0.695122 0.000000
Si Si6 0.878835 0.338024 0.823574
Si Si7 0.651777 0.232049 0.058151
O O1 0.420717 0.575869 0.233825
O O2 0.600438 0.561327 0.353954
O O3 0.645963 0.027164 0.853359
O O4 0.562348 0.918811 0.734569
O O5 0.676995 0.670130 0.186466
O O6 0.457095 0.745911 0.288886
O O7 0.372339 0.716250 0.142100
O O8 0.709287 0.500000 0.500000
O O9 0.860125 0.372983 0.573755
O O10 0.056336 0.645996 0.916104
O O11 0.834195 0.751246 0.978939
O O12 0.500000 0.260191 0.000000
#
# Coordination Sequence:
#
# PCOD9332590 Si02
#       7
#     4   4   8   8   4   8   8
#     4  12  27  46  73 112 150 202 256 309 378 459
#     4  12  25  49  68 110 148 204 254 303 393 448
#     4  12  26  50  75 111 155 205 256 322 380 460
#     4  12  27  44  73 113 155 197 247 321 384 459
#     4  12  28  45  79 114 148 210 256 319 386 449
#     4  12  27  47  75 108 154 201 264 318 383 459
#     4  12  26  51  78 114 157 198 257 318 386 457
#
# _framework density 22.419695999999998
#
# number of rings (size 3 to 8) (size 9 to 14) (size 15 to 20)
#    0.000    0.000    5.455    3.818   10.182    0.364 
#    0.000    0.455    0.000    0.000    0.000    0.000 
#    0.000    0.000    0.000    0.000    0.000    0.000 
#
# Total GULP energy -122936.943730 kJ/mol
# GULP energy per Si atom -5588.042897 kJ/mol
# Density = 2.236867 g / cm^3
# Si number density = 22.419696 Si / 1000 Ang^3
#
#
#
# Elastic Constant Matrix: (Units=GPa)
#
#
# Indices 1 2 3 4 5 6 
#
# 1 111.5701 13.5886 33.3649 0.0000 0.0000 0.0000
# 2 13.5886 95.4848 30.3688 0.0000 0.0000 0.0000
# 3 33.3649 30.3688 137.8314 0.0000 0.0000 0.0000
# 4 0.0000 0.0000 0.0000 31.9395 0.0000 0.0000
# 5 0.0000 0.0000 0.0000 0.0000 41.1631 0.0000
# 6 0.0000 0.0000 0.0000 0.0000 0.0000 25.3629
#
#
#
# Elastic Compliance Matrix: (Units=1/GPa)
#
#
# Indices 1 2 3 4 5 6 
#
# 1 0.009704 -0.000682 -0.002199 0.000000 0.000000 0.000000
# 2 -0.000682 0.011310 -0.002327 0.000000 0.000000 0.000000
# 3 -0.002199 -0.002327 0.008300 0.000000 0.000000 0.000000
# 4 0.000000 0.000000 0.000000 0.031309 0.000000 0.000000
# 5 0.000000 0.000000 0.000000 0.000000 0.024294 0.000000
# 6 0.000000 0.000000 0.000000 0.000000 0.000000 0.039428
#
#
# Mechanical properties :
#
#
# Convention : Reuss Voigt Hill
#
# Bulk Modulus (GPa) = 52.91277 55.50344 54.20811
# Shear Modulus (GPa) = 35.44629 37.53070 36.48850
#
# Velocity S-wave (km/s) = 3.98054 4.09590 4.03863
# Velocity P-wave (km/s) = 6.69167 6.86868 6.78076
#
# Compressibility (1/GPa) = 0.01889903
#
# Stress axis : x y z
#
# Youngs Moduli (GPa) = 103.05531 88.41766 120.47902
#
# Poissons Ratio (x) = 0.06027 0.26490
# Poissons Ratio (y) = 0.07024 0.28035
# Poissons Ratio (z) = 0.22659 0.20574
#
# Static dielectric constant tensor:
#      x y z
#    x 1.942600 0.000000 0.000000 
#    y 0.000000 1.782420 0.000000 
#    z 0.000000 0.000000 1.832760 
# 
# From -- ./inp_files/23713.got.cif
#   From: 2010.05.17/outbox.cif.g08.bks.cpg/sg23_12_cif.got.tgz:23713.got - 2010.06.04 12:02:01.
