data_PCOD9332174
_publ_section_title
;
Structure prediction by ZEFSAII (Michael W. Deem and Ramdas Pophale) SiO2 
 PCOD9332174
Probable space group: I 2 2 2
;
_chemical_formula_sum "Si O2"
_cell_formula_units_Z 32
_cell_length_a 9.808790
_cell_length_b 7.975549
_cell_length_c 19.792578
_cell_angle_alpha 90.000000
_cell_angle_beta 90.000000
_cell_angle_gamma 90.000000
_cell_volume 1548.382982
_symmetry_space_group_name_H-M "I 2 2 2"
_symmetry_group_IT_number 23
_symmetry_cell_setting 'orthorhombic'
loop_
_space_group_symop_operation_xyz
x,y,z
-x,-y,z
x,-y,-z
-x,y,-z
1/2+x,1/2+y,1/2+z
1/2-x,1/2-y,1/2+z
1/2+x,1/2-y,1/2-z
1/2-x,1/2+y,1/2-z
loop_
_atom_site_type_symbol
_atom_site_label
_atom_site_fract_x
_atom_site_fract_y
_atom_site_fract_z
Si Si1 0.129849 0.119620 0.282613
Si Si2 0.574857 0.822104 0.911340
Si Si3 0.696300 0.321704 0.964862
Si Si4 0.367790 0.882286 0.334383
O O1 0.134317 0.260071 0.341297
O O2 0.115633 0.220012 0.212915
O O3 0.259358 0.001644 0.295659
O O4 0.000000 0.000000 0.290295
O O5 0.450670 0.697034 0.929408
O O6 0.500000 0.000000 0.907339
O O7 0.683231 0.808159 0.972451
O O8 0.807328 0.317709 0.905809
O O9 0.710883 0.500000 0.000000
O O10 0.500000 0.000000 0.343763
#
# Coordination Sequence:
#
# PCOD9332174 Si02
#       4
#     8   8   8   8
#     4  12  24  48  72 100 141 184 240 287 348 424
#     4  11  22  41  74 107 131 178 243 294 331 411
#     4  11  21  43  69  98 137 178 235 284 346 407
#     4  12  27  43  69 105 144 187 226 292 360 417
#
# _framework density 20.666722
#
# number of rings (size 3 to 8) (size 9 to 14) (size 15 to 20)
#    0.000    0.500    5.000    5.250    3.500    0.500 
#    0.000    0.000    0.000    0.000    0.000    0.000 
#    0.000    0.000    0.000    0.000    0.000    0.000 
#
# Total GULP energy -89362.833197 kJ/mol
# GULP energy per Si atom -5585.177075 kJ/mol
# Density = 2.061968 g / cm^3
# Si number density = 20.666722 Si / 1000 Ang^3
#
#
#
# Elastic Constant Matrix: (Units=GPa)
#
#
# Indices 1 2 3 4 5 6 
#
# 1 97.7957 22.7706 35.4286 0.0000 0.0000 0.0000
# 2 22.7706 112.3877 56.2097 0.0000 0.0000 0.0000
# 3 35.4286 56.2097 139.8626 0.0000 0.0000 0.0000
# 4 0.0000 0.0000 0.0000 43.2600 0.0000 0.0000
# 5 0.0000 0.0000 0.0000 0.0000 18.7068 0.0000
# 6 0.0000 0.0000 0.0000 0.0000 0.0000 15.0513
#
#
#
# Elastic Compliance Matrix: (Units=1/GPa)
#
#
# Indices 1 2 3 4 5 6 
#
# 1 0.011362 -0.001080 -0.002444 0.000000 0.000000 0.000000
# 2 -0.001080 0.011239 -0.004243 0.000000 0.000000 0.000000
# 3 -0.002444 -0.004243 0.009474 0.000000 0.000000 0.000000
# 4 0.000000 0.000000 0.000000 0.023116 0.000000 0.000000
# 5 0.000000 0.000000 0.000000 0.000000 0.053457 0.000000
# 6 0.000000 0.000000 0.000000 0.000000 0.000000 0.066439
#
#
# Mechanical properties :
#
#
# Convention : Reuss Voigt Hill
#
# Bulk Modulus (GPa) = 60.45569 64.31820 62.38695
# Shear Modulus (GPa) = 25.49260 31.11276 28.30268
#
# Velocity S-wave (km/s) = 3.51595 3.88422 3.70466
# Velocity P-wave (km/s) = 6.76747 7.16278 6.96793
#
# Compressibility (1/GPa) = 0.01654104
#
# Stress axis : x y z
#
# Youngs Moduli (GPa) = 88.01053 88.97786 105.54769
#
# Poissons Ratio (x) = 0.09606 0.25799
# Poissons Ratio (y) = 0.09502 0.44787
# Poissons Ratio (z) = 0.21512 0.37756
#
# Static dielectric constant tensor:
#      x y z
#    x 1.724380 0.000000 0.000000 
#    y 0.000000 1.741570 0.000000 
#    z 0.000000 0.000000 1.774900 
# 
# From -- ./inp_files/25934.got.cif
#   From: 2010.05.17/outbox.cif.g08.bks.cpg/sg23_13_cif.got.tgz:25934.got - 2010.06.04 12:02:01.
