data_PCOD9332086
_publ_section_title
;
Structure prediction by ZEFSAII (Michael W. Deem and Ramdas Pophale) SiO2 
 PCOD9332086
Probable space group: I 2 2 2
;
_chemical_formula_sum "Si O2"
_cell_formula_units_Z 40
_cell_length_a 7.150604
_cell_length_b 12.807279
_cell_length_c 18.560028
_cell_angle_alpha 90.000000
_cell_angle_beta 90.000000
_cell_angle_gamma 90.000000
_cell_volume 1699.723289
_symmetry_space_group_name_H-M "I 2 2 2"
_symmetry_group_IT_number 23
_symmetry_cell_setting 'orthorhombic'
loop_
_space_group_symop_operation_xyz
x,y,z
-x,-y,z
x,-y,-z
-x,y,-z
1/2+x,1/2+y,1/2+z
1/2-x,1/2-y,1/2+z
1/2+x,1/2-y,1/2-z
1/2-x,1/2+y,1/2-z
loop_
_atom_site_type_symbol
_atom_site_label
_atom_site_fract_x
_atom_site_fract_y
_atom_site_fract_z
Si Si1 0.936414 0.611137 0.802594
Si Si2 0.087312 0.702316 0.572858
Si Si3 0.227670 0.496457 0.415589
Si Si4 0.303782 0.903712 0.540540
Si Si5 0.231774 0.202312 0.169648
O O1 0.840336 0.574318 0.876198
O O2 0.792426 0.666674 0.749112
O O3 0.000000 0.500000 0.768136
O O4 0.091988 0.699099 0.824140
O O5 0.243752 0.625358 0.606772
O O6 0.187509 0.800576 0.539833
O O7 0.000000 0.652181 0.500000
O O8 0.923549 0.732253 0.627546
O O9 0.281586 0.500000 0.500000
O O10 0.318516 0.593486 0.373237
O O11 0.000000 0.500000 0.403134
O O12 0.500000 0.886426 0.500000
O O13 0.213471 0.000000 0.500000
#
# Coordination Sequence:
#
# PCOD9332086 Si02
#       5
#     8   8   8   8   8
#     4  12  25  47  70  97 145 188 228 301 358 424
#     4  11  20  38  69 101 137 178 237 286 352 425
#     4   9  16  34  63  96 129 168 214 280 340 403
#     4  11  24  43  63  95 140 189 233 289 351 410
#     4  11  24  43  71 103 137 182 236 286 363 434
#
# _framework density 23.533242000000001
#
# number of rings (size 3 to 8) (size 9 to 14) (size 15 to 20)
#    0.000    1.200    6.000    4.200    0.000    0.400 
#    0.000    6.000    0.000    0.000    0.000    0.000 
#    0.000    0.000    0.000    0.000    0.000    0.000 
#
# Total GULP energy -111583.465367 kJ/mol
# GULP energy per Si atom -5579.173268 kJ/mol
# Density = 2.347968 g / cm^3
# Si number density = 23.533242 Si / 1000 Ang^3
#
#
#
# Elastic Constant Matrix: (Units=GPa)
#
#
# Indices 1 2 3 4 5 6 
#
# 1 63.5185 54.9706 21.4756 0.0000 0.0000 0.0000
# 2 54.9706 211.7821 33.0510 0.0000 0.0000 0.0000
# 3 21.4756 33.0510 129.9951 0.0000 0.0000 0.0000
# 4 0.0000 0.0000 0.0000 41.7523 0.0000 0.0000
# 5 0.0000 0.0000 0.0000 0.0000 -30.4356 0.0000
# 6 0.0000 0.0000 0.0000 0.0000 0.0000 22.6981
#
#
#
# Elastic Compliance Matrix: (Units=1/GPa)
#
#
# Indices 1 2 3 4 5 6 
#
# 1 0.020869 -0.005080 -0.002156 0.000000 0.000000 0.000000
# 2 -0.005080 0.006154 -0.000725 0.000000 0.000000 0.000000
# 3 -0.002156 -0.000725 0.008233 0.000000 0.000000 0.000000
# 4 0.000000 0.000000 0.000000 0.023951 0.000000 0.000000
# 5 0.000000 0.000000 0.000000 0.000000 -0.032856 0.000000
# 6 0.000000 0.000000 0.000000 0.000000 0.000000 0.044057
#
#
# Mechanical properties :
#
#
# Convention : Reuss Voigt Hill
#
# Bulk Modulus (GPa) = 51.72574 69.36555 60.54565
# Shear Modulus (GPa) = 53.89421 26.52287 40.20854
#
# Velocity S-wave (km/s) = 4.79072 3.36078 4.13799
# Velocity P-wave (km/s) = 7.25458 6.67827 6.97238
#
# Compressibility (1/GPa) = 0.01933273
#
# Stress axis : x y z
#
# Youngs Moduli (GPa) = 47.91789 162.50424 121.45997
#
# Poissons Ratio (x) = 0.82558 0.26186
# Poissons Ratio (y) = 0.24344 0.08809
# Poissons Ratio (z) = 0.10331 0.11786
#
# Static dielectric constant tensor:
#      x y z
#    x 1.964990 0.000000 0.000000 
#    y 0.000000 2.170310 0.000000 
#    z 0.000000 0.000000 1.810060 
# 
# From -- ./inp_files/26085.got.cif
#   From: 2010.05.17/outbox.cif.g08.bks.cpg/sg23_14_cif.got.tgz:26085.got - 2010.06.04 12:02:01.
