data_PCOD9332124
_publ_section_title
;
Structure prediction by ZEFSAII (Michael W. Deem and Ramdas Pophale) SiO2 
 PCOD9332124
Probable space group: I 2 2 2
;
_chemical_formula_sum "Si O2"
_cell_formula_units_Z 52
_cell_length_a 8.843558
_cell_length_b 21.320826
_cell_length_c 13.186878
_cell_angle_alpha 90.000000
_cell_angle_beta 90.000000
_cell_angle_gamma 90.000000
_cell_volume 2486.411711
_symmetry_space_group_name_H-M "I 2 2 2"
_symmetry_group_IT_number 23
_symmetry_cell_setting 'orthorhombic'
loop_
_space_group_symop_operation_xyz
x,y,z
-x,-y,z
x,-y,-z
-x,y,-z
1/2+x,1/2+y,1/2+z
1/2-x,1/2-y,1/2+z
1/2+x,1/2-y,1/2-z
1/2-x,1/2+y,1/2-z
loop_
_atom_site_type_symbol
_atom_site_label
_atom_site_fract_x
_atom_site_fract_y
_atom_site_fract_z
Si Si1 0.554541 0.322041 0.598345
Si Si2 0.000000 0.279255 0.500000
Si Si3 0.728423 0.784325 0.164805
Si Si4 0.740083 0.795904 0.397441
Si Si5 0.167307 0.516972 0.879080
Si Si6 0.603889 0.417138 0.096973
Si Si7 0.817157 0.139448 0.298746
O O1 0.500000 0.359779 0.500000
O O2 0.400475 0.305356 0.655080
O O3 0.628148 0.256615 0.559989
O O4 0.672334 0.352338 0.676848
O O5 0.881256 0.311600 0.422815
O O6 0.900099 0.237121 0.576668
O O7 0.688309 0.800836 0.280494
O O8 0.718634 0.708463 0.157968
O O9 0.767956 0.866323 0.435158
O O10 0.308747 0.473049 0.847526
O O11 0.205708 0.586858 0.842553
O O12 0.000000 0.500000 0.841934
O O13 0.167726 0.500000 0.000000
O O14 0.483890 0.382920 0.168372
O O15 0.500000 0.433928 0.000000
#
# Coordination Sequence:
#
# PCOD9332124 Si02
#       7
#     8   4   8   8   8   8   8
#     4  11  23  38  62  93 132 175 219 265 323 389
#     4  12  20  38  58  85 134 171 210 266 320 382
#     4  11  22  38  59  92 130 170 218 262 322 394
#     4  11  21  37  60  94 129 170 217 261 322 395
#     4  11  26  41  60  93 128 169 218 272 332 391
#     4  12  21  39  64  91 127 176 213 263 336 398
#     4  11  23  41  61  91 133 171 220 267 326 397
#
# _framework density 20.913674
#
# number of rings (size 3 to 8) (size 9 to 14) (size 15 to 20)
#    0.000    0.769    6.923    1.385    2.154    0.000 
#    0.000    0.000    0.000    1.846    0.000    1.077 
#    0.000    0.000    0.000    0.000    0.000    0.000 
#
# Total GULP energy -144940.424822 kJ/mol
# GULP energy per Si atom -5574.631724 kJ/mol
# Density = 2.086607 g / cm^3
# Si number density = 20.913674 Si / 1000 Ang^3
#
#
#
# Elastic Constant Matrix: (Units=GPa)
#
#
# Indices 1 2 3 4 5 6 
#
# 1 94.1474 33.1336 27.0414 0.0000 0.0000 0.0000
# 2 33.1336 81.1648 28.8479 0.0000 0.0000 0.0000
# 3 27.0414 28.8479 91.2112 0.0001 0.0000 0.0000
# 4 0.0000 0.0000 0.0001 10.0856 0.0000 0.0000
# 5 0.0000 0.0000 0.0000 0.0000 29.6672 0.0000
# 6 0.0000 0.0000 0.0000 0.0000 0.0000 26.6577
#
#
#
# Elastic Compliance Matrix: (Units=1/GPa)
#
#
# Indices 1 2 3 4 5 6 
#
# 1 0.012863 -0.004389 -0.002425 0.000000 0.000000 0.000000
# 2 -0.004389 0.015379 -0.003563 0.000000 0.000000 0.000000
# 3 -0.002425 -0.003563 0.012809 0.000000 0.000000 0.000000
# 4 0.000000 0.000000 0.000000 0.099151 0.000000 0.000000
# 5 0.000000 0.000000 0.000000 0.000000 0.033707 0.000000
# 6 0.000000 0.000000 0.000000 0.000000 0.000000 0.037513
#
#
# Mechanical properties :
#
#
# Convention : Reuss Voigt Hill
#
# Bulk Modulus (GPa) = 49.26860 49.39658 49.33259
# Shear Modulus (GPa) = 20.92565 25.11549 23.02057
#
# Velocity S-wave (km/s) = 3.16661 3.46918 3.32134
# Velocity P-wave (km/s) = 6.08105 6.30218 6.19260
#
# Compressibility (1/GPa) = 0.02029690
#
# Stress axis : x y z
#
# Youngs Moduli (GPa) = 77.74319 65.02569 78.06773
#
# Poissons Ratio (x) = 0.28539 0.18934
# Poissons Ratio (y) = 0.34121 0.27813
# Poissons Ratio (z) = 0.18855 0.23167
#
# Static dielectric constant tensor:
#      x y z
#    x 1.804100 0.000000 0.000000 
#    y 0.000000 1.770660 0.000000 
#    z 0.000000 0.000000 1.858800 
# 
# From -- ./inp_files/20151.got.cif
#   From: 2010.05.17/outbox.cif.g08.bks.cpg/sg23_11_cif.got.tgz:20151.got - 2010.06.04 12:02:01.
