data_PCOD9332492
_publ_section_title
;
Structure prediction by ZEFSAII (Michael W. Deem and Ramdas Pophale) SiO2 
 PCOD9332492
Probable space group: I 2 2 2
;
_chemical_formula_sum "Si O2"
_cell_formula_units_Z 24
_cell_length_a 5.247809
_cell_length_b 18.092271
_cell_length_c 10.536262
_cell_angle_alpha 90.000000
_cell_angle_beta 90.000000
_cell_angle_gamma 90.000000
_cell_volume 1000.363105
_symmetry_space_group_name_H-M "I 2 2 2"
_symmetry_group_IT_number 23
_symmetry_cell_setting 'orthorhombic'
loop_
_space_group_symop_operation_xyz
x,y,z
-x,-y,z
x,-y,-z
-x,y,-z
1/2+x,1/2+y,1/2+z
1/2-x,1/2-y,1/2+z
1/2+x,1/2-y,1/2-z
1/2-x,1/2+y,1/2-z
loop_
_atom_site_type_symbol
_atom_site_label
_atom_site_fract_x
_atom_site_fract_y
_atom_site_fract_z
Si Si1 0.226220 0.753770 0.333212
Si Si2 0.000000 0.000000 0.200922
Si Si3 0.745606 0.078559 0.416285
Si Si4 0.000000 0.134733 0.000000
O O1 0.441410 0.746092 0.223444
O O2 0.267768 0.836758 0.376378
O O3 0.290220 0.693051 0.442628
O O4 0.775764 0.022970 0.297795
O O5 0.004317 0.073893 0.114727
O O6 0.500000 0.068590 0.500000
O O7 0.000000 0.073632 0.500000
#
# Coordination Sequence:
#
# PCOD9332492 Si02
#       4
#     8   4   8   4
#     4  12  26  50  81 117 159 211 277 330 401 495
#     4  11  27  52  76 124 169 209 270 340 426 471
#     4  12  27  51  82 113 163 221 276 331 400 491
#     4  11  26  50  84 120 167 210 264 353 412 482
#
# _framework density 23.991288000000001
#
# number of rings (size 3 to 8) (size 9 to 14) (size 15 to 20)
#    0.000    0.333    5.000    2.500    0.000    2.667 
#    0.000    0.000    0.000    0.000    0.000    0.000 
#    0.000    0.000    0.000    0.000    0.000    0.000 
#
# Total GULP energy -66908.077337 kJ/mol
# GULP energy per Si atom -5575.673111 kJ/mol
# Density = 2.393668 g / cm^3
# Si number density = 23.991288 Si / 1000 Ang^3
#
#
#
# Elastic Constant Matrix: (Units=GPa)
#
#
# Indices 1 2 3 4 5 6 
#
# 1 86.1971 -6.4663 46.6231 0.0000 0.0000 0.0000
# 2 -6.4663 165.3485 61.0981 0.0000 0.0000 0.0000
# 3 46.6231 61.0981 133.7689 0.0000 0.0000 0.0000
# 4 0.0000 0.0000 0.0000 76.0055 0.0000 0.0000
# 5 0.0000 0.0000 0.0000 0.0000 11.6474 0.0000
# 6 0.0000 0.0000 0.0000 0.0000 0.0000 44.4471
#
#
#
# Elastic Compliance Matrix: (Units=1/GPa)
#
#
# Indices 1 2 3 4 5 6 
#
# 1 0.015542 0.003139 -0.006851 0.000000 0.000000 0.000000
# 2 0.003139 0.007910 -0.004707 0.000000 0.000000 0.000000
# 3 -0.006851 -0.004707 0.012013 0.000000 0.000000 0.000000
# 4 0.000000 0.000000 0.000000 0.013157 0.000000 0.000000
# 5 0.000000 0.000000 0.000000 0.000000 0.085856 0.000000
# 6 0.000000 0.000000 0.000000 0.000000 0.000000 0.022499
#
#
# Mechanical properties :
#
#
# Convention : Reuss Voigt Hill
#
# Bulk Modulus (GPa) = 53.68145 65.31381 59.49763
# Shear Modulus (GPa) = 27.77413 45.35731 36.56572
#
# Velocity S-wave (km/s) = 3.40615 4.35279 3.90824
# Velocity P-wave (km/s) = 6.15574 7.24882 6.72453
#
# Compressibility (1/GPa) = 0.01862841
#
# Stress axis : x y z
#
# Youngs Moduli (GPa) = 64.33996 126.42424 83.24147
#
# Poissons Ratio (x) = -0.39689 0.57028
# Poissons Ratio (y) = -0.20198 0.39181
# Poissons Ratio (z) = 0.44079 0.59507
#
# Static dielectric constant tensor:
#      x y z
#    x 1.843840 0.000000 0.000000 
#    y 0.000000 2.071630 0.000000 
#    z 0.000000 0.000000 1.987330 
# 
# From -- ./inp_files/2860.got.cif
#   From: 2010.05.17/outbox.cif.g08.bks.cpg/sg23_2_cif.got.tgz:2860.got - 2010.06.04 12:02:01.
