data_PCOD9332040
_publ_section_title
;
Structure prediction by ZEFSAII (Michael W. Deem and Ramdas Pophale) SiO2 
 PCOD9332040
Probable space group: I 2 2 2
;
_chemical_formula_sum "Si O2"
_cell_formula_units_Z 38
_cell_length_a 27.803308
_cell_length_b 11.816397
_cell_length_c 5.012054
_cell_angle_alpha 90.000000
_cell_angle_beta 90.000000
_cell_angle_gamma 90.000000
_cell_volume 1646.634786
_symmetry_space_group_name_H-M "I 2 2 2"
_symmetry_group_IT_number 23
_symmetry_cell_setting 'orthorhombic'
loop_
_space_group_symop_operation_xyz
x,y,z
-x,-y,z
x,-y,-z
-x,y,-z
1/2+x,1/2+y,1/2+z
1/2-x,1/2-y,1/2+z
1/2+x,1/2-y,1/2-z
1/2-x,1/2+y,1/2-z
loop_
_atom_site_type_symbol
_atom_site_label
_atom_site_fract_x
_atom_site_fract_y
_atom_site_fract_z
Si Si1 0.788079 0.890561 0.838788
Si Si2 0.889312 0.576343 0.759860
Si Si3 0.063261 0.000000 0.500000
Si Si4 0.693358 0.837976 0.593072
Si Si5 0.874785 0.789903 0.495694
Si Si6 0.000000 0.000000 0.000000
O O1 0.736079 0.910695 0.713401
O O2 0.830457 0.852677 0.641815
O O3 0.781314 0.780093 0.019606
O O4 0.803695 0.000000 0.000000
O O5 0.892772 0.500000 0.500000
O O6 0.834188 0.602978 0.849439
O O7 0.904836 0.704219 0.686841
O O8 0.910415 0.500000 0.000000
O O9 0.092994 0.892369 0.607824
O O10 0.035731 0.951844 0.234300
O O11 0.650160 0.794014 0.782873
#
# Coordination Sequence:
#
# PCOD9332040 Si02
#       6
#     8   8   4   8   8   2
#     4  11  24  38  59  91 138 200 250 300 338 392
#     4  11  24  41  62  95 137 187 240 291 334 395
#     4  11  26  50  78 112 146 168 240 284 400 441
#     4  11  23  39  59  95 134 198 251 290 345 387
#     4  11  24  43  69  99 140 195 236 296 356 431
#     4  10  28  50  80 114 138 170 208 326 380 472
#
# _framework density 23.077372
#
# number of rings (size 3 to 8) (size 9 to 14) (size 15 to 20)
#    0.000    1.053    4.211    1.263   10.316    0.000 
#    1.895    0.000    2.316    0.000    0.000   11.053 
#    0.000    0.000    0.000    0.000    0.000    0.000 
#
# Total GULP energy -105907.656597 kJ/mol
# GULP energy per Si atom -5574.087189 kJ/mol
# Density = 2.302485 g / cm^3
# Si number density = 23.077372 Si / 1000 Ang^3
#
#
#
# Elastic Constant Matrix: (Units=GPa)
#
#
# Indices 1 2 3 4 5 6 
#
# 1 30.5928 16.6548 16.0164 0.0000 0.0000 0.0000
# 2 16.6548 81.8574 24.1145 0.0000 0.0000 0.0006
# 3 16.0164 24.1145 121.3009 0.0004 0.0003 0.0001
# 4 0.0000 0.0000 0.0004 41.5649 0.0001 0.0000
# 5 0.0000 0.0000 0.0003 0.0001 15.7967 -0.0009
# 6 0.0000 0.0006 0.0001 0.0000 -0.0009 -92.6245
#
#
#
# Elastic Compliance Matrix: (Units=1/GPa)
#
#
# Indices 1 2 3 4 5 6 
#
# 1 0.038280 -0.006691 -0.003724 0.000000 0.000000 0.000000
# 2 -0.006691 0.014146 -0.001929 0.000000 0.000000 0.000000
# 3 -0.003724 -0.001929 0.009119 0.000000 0.000000 0.000000
# 4 0.000000 0.000000 0.000000 0.024059 0.000000 0.000000
# 5 0.000000 0.000000 0.000000 0.000000 0.063304 -0.000001
# 6 0.000000 0.000000 0.000000 0.000000 -0.000001 -0.010796
#
#
# Mechanical properties :
#
#
# Convention : Reuss Voigt Hill
#
# Bulk Modulus (GPa) = 27.13222 38.59139 32.86180
# Shear Modulus (GPa) = 28.55742 4.74513 16.65127
#
# Velocity S-wave (km/s) = 3.52158 1.43549 2.68907
# Velocity P-wave (km/s) = 5.32146 4.41661 4.89001
#
# Compressibility (1/GPa) = 0.03685655
#
# Stress axis : x y z
#
# Youngs Moduli (GPa) = 26.12334 70.69148 109.65966
#
# Poissons Ratio (x) = 0.47302 0.40839
# Poissons Ratio (y) = 0.17480 0.21150
# Poissons Ratio (z) = 0.09729 0.13634
#
# Static dielectric constant tensor:
#      x y z
#    x 1.867790 0.000000 0.000000 
#    y 0.000000 1.907510 0.000000 
#    z 0.000000 0.000000 2.063240 
# 
# From -- ./inp_files/4792.got.cif
#   From: 2010.05.17/outbox.cif.g08.bks.cpg/sg23_3_cif.got.tgz:4792.got - 2010.06.04 12:02:01.
