data_PCOD9332241
_publ_section_title
;
Structure prediction by ZEFSAII (Michael W. Deem and Ramdas Pophale) SiO2 
 PCOD9332241
Probable space group: I 2 2 2
;
_chemical_formula_sum "Si O2"
_cell_formula_units_Z 64
_cell_length_a 14.208937
_cell_length_b 17.325506
_cell_length_c 11.548699
_cell_angle_alpha 90.000000
_cell_angle_beta 90.000000
_cell_angle_gamma 90.000000
_cell_volume 2843.024342
_symmetry_space_group_name_H-M "I 2 2 2"
_symmetry_group_IT_number 23
_symmetry_cell_setting 'orthorhombic'
loop_
_space_group_symop_operation_xyz
x,y,z
-x,-y,z
x,-y,-z
-x,y,-z
1/2+x,1/2+y,1/2+z
1/2-x,1/2-y,1/2+z
1/2+x,1/2-y,1/2-z
1/2-x,1/2+y,1/2-z
loop_
_atom_site_type_symbol
_atom_site_label
_atom_site_fract_x
_atom_site_fract_y
_atom_site_fract_z
Si Si1 0.763483 0.931225 0.409327
Si Si2 0.564506 0.930963 0.741814
Si Si3 0.565576 0.208199 0.110958
Si Si4 0.464689 0.382484 0.865918
Si Si5 0.362068 0.607824 0.706480
Si Si6 0.767154 0.830074 0.002618
Si Si7 0.283774 0.827863 0.390615
Si Si8 0.282097 0.028227 0.165385
O O1 0.871186 0.932720 0.369604
O O2 0.744824 0.855088 0.481735
O O3 0.704532 0.935794 0.293257
O O4 0.746541 0.000000 0.500000
O O5 0.521216 0.857605 0.807302
O O6 0.632880 0.884721 0.652902
O O7 0.500000 0.000000 0.692953
O O8 0.626178 0.974349 0.841507
O O9 0.561346 0.293846 0.162401
O O10 0.673159 0.190996 0.072169
O O11 0.500000 0.209974 0.000000
O O12 0.539602 0.406368 0.769272
O O13 0.500000 0.385510 0.000000
O O14 0.352057 0.655429 0.587604
O O15 0.301270 0.653115 0.803852
O O16 0.305191 0.530215 0.676547
O O17 0.795270 0.763343 0.093820
O O18 0.738994 0.907300 0.072062
#
# Coordination Sequence:
#
# PCOD9332241 Si02
#       8
#     8   8   8   8   8   8   8   8
#     4  12  22  43  70 101 135 182 239 296 360 436
#     4  11  24  44  68 104 147 189 242 298 352 448
#     4  11  22  40  70 107 138 178 243 302 358 419
#     4  11  22  41  69 105 134 169 234 307 355 416
#     4  11  23  44  67 106 146 178 243 302 368 442
#     4  12  24  42  75 103 147 195 234 305 373 447
#     4  11  23  44  68 103 138 189 237 292 361 431
#     4  11  25  41  72 104 140 192 238 291 377 440
#
# _framework density 22.511237999999999
#
# number of rings (size 3 to 8) (size 9 to 14) (size 15 to 20)
#    0.000    0.750    7.500    1.875    3.500    3.000 
#    0.000    1.875    0.000    1.500    0.000    0.000 
#    0.000    0.000    0.000    0.000    0.000    0.000 
#
# Total GULP energy -178744.453459 kJ/mol
# GULP energy per Si atom -5585.764171 kJ/mol
# Density = 2.246000 g / cm^3
# Si number density = 22.511238 Si / 1000 Ang^3
#
#
#
# Elastic Constant Matrix: (Units=GPa)
#
#
# Indices 1 2 3 4 5 6 
#
# 1 45.8340 -6.7127 4.9809 0.0000 0.0000 0.0000
# 2 -6.7127 88.2058 13.3666 0.0000 0.0000 0.0000
# 3 4.9809 13.3666 58.7157 0.0000 0.0000 0.0000
# 4 0.0000 0.0000 0.0000 22.4965 0.0000 0.0000
# 5 0.0000 0.0000 0.0000 0.0000 24.9871 0.0000
# 6 0.0000 0.0000 0.0000 0.0000 0.0000 14.7101
#
#
#
# Elastic Compliance Matrix: (Units=1/GPa)
#
#
# Indices 1 2 3 4 5 6 
#
# 1 0.022377 0.002062 -0.002368 0.000000 0.000000 0.000000
# 2 0.002062 0.011932 -0.002891 0.000000 0.000000 0.000000
# 3 -0.002368 -0.002891 0.017890 0.000000 0.000000 0.000000
# 4 0.000000 0.000000 0.000000 0.044451 0.000000 0.000000
# 5 0.000000 0.000000 0.000000 0.000000 0.040021 0.000000
# 6 0.000000 0.000000 0.000000 0.000000 0.000000 0.067980
#
#
# Mechanical properties :
#
#
# Convention : Reuss Voigt Hill
#
# Bulk Modulus (GPa) = 21.83158 24.00282 22.91720
# Shear Modulus (GPa) = 22.09314 24.51346 23.30330
#
# Velocity S-wave (km/s) = 3.13617 3.30349 3.22092
# Velocity P-wave (km/s) = 4.77841 5.02359 4.90254
#
# Compressibility (1/GPa) = 0.04580521
#
# Stress axis : x y z
#
# Youngs Moduli (GPa) = 44.68854 83.80707 55.89635
#
# Poissons Ratio (x) = -0.17279 0.13234
# Poissons Ratio (y) = -0.09214 0.16161
# Poissons Ratio (z) = 0.10581 0.24231
#
# Static dielectric constant tensor:
#      x y z
#    x 1.881290 0.000000 0.000000 
#    y 0.000000 1.879930 0.000000 
#    z 0.000000 0.000000 1.866750 
# 
# From -- ./inp_files/16985.got.cif
#   From: 2010.05.17/outbox.cif.g08.bks.cpg/sg23_9_cif.got.tgz:16985.got - 2010.06.04 12:02:01.
