data_PCOD9332852
_publ_section_title
;
Structure prediction by ZEFSAII (Michael W. Deem and Ramdas Pophale) SiO2 
 PCOD9332852
Probable space group: I 21 21 21
;
_chemical_formula_sum "Si O2"
_cell_formula_units_Z 48
_cell_length_a 31.494626
_cell_length_b 16.743981
_cell_length_c 5.094006
_cell_angle_alpha 90.000000
_cell_angle_beta 90.000000
_cell_angle_gamma 90.000000
_cell_volume 2686.300730
_symmetry_space_group_name_H-M "I 21 21 21"
_symmetry_group_IT_number 24
_symmetry_cell_setting 'orthorhombic'
loop_
_space_group_symop_operation_xyz
x,y,z
-x,1/2-y,z
x,-y,1/2-z
1/2-x,y,-z
1/2+x,1/2+y,1/2+z
1/2-x,-y,1/2+z
1/2+x,1/2-y,-z
-x,1/2+y,1/2-z
loop_
_atom_site_type_symbol
_atom_site_label
_atom_site_fract_x
_atom_site_fract_y
_atom_site_fract_z
Si Si1 0.843444 0.558404 0.499156
Si Si2 0.147170 0.622077 0.371938
Si Si3 0.279305 0.500000 0.750000
Si Si4 0.404594 0.419206 0.374088
Si Si5 0.750000 0.557205 0.500000
Si Si6 0.050051 0.742756 0.848435
Si Si7 0.602702 0.711389 0.654627
O O1 0.843801 0.500000 0.250000
O O2 0.796047 0.597614 0.521242
O O3 0.875944 0.629403 0.439331
O O4 0.850794 0.500000 0.750000
O O5 0.191272 0.577419 0.313936
O O6 0.132906 0.603726 0.669085
O O7 0.137998 0.716881 0.334150
O O8 0.115262 0.581440 0.162278
O O9 0.250000 0.483355 0.500000
O O10 0.422084 0.500000 0.250000
O O11 0.438812 0.350149 0.376725
O O12 0.751984 0.500000 0.250000
O O13 0.067668 0.766445 0.563435
O O14 0.000000 0.750000 0.879619
O O15 0.078313 0.788815 0.066932
#
# Coordination Sequence:
#
# PCOD9332852 Si02
#       7
#     8   8   4   8   4   8   8
#     4  10  19  35  58  82 110 149 189 227 281 331
#     4  10  20  35  54  77 107 145 190 220 270 337
#     4  12  22  34  54  80 118 148 182 236 286 322
#     4  10  17  33  58  75  98 143 189 225 259 331
#     4   8  16  30  52  76 102 136 182 228 262 318
#     4  10  21  36  56  83 113 143 182 234 287 335
#     4  10  21  37  59  80 111 151 186 228 281 343
#
# _framework density 17.868438000000001
#
# number of rings (size 3 to 8) (size 9 to 14) (size 15 to 20)
#    0.000    2.000    1.667    2.500    0.000    0.000 
#    1.500    2.500    7.333    2.000    0.000    0.000 
#    0.000    0.000    0.000    0.000    0.000    0.000 
#
# Total GULP energy -133655.383752 kJ/mol
# GULP energy per Si atom -5568.974323 kJ/mol
# Density = 1.782777 g / cm^3
# Si number density = 17.868438 Si / 1000 Ang^3
#
#
#
# Elastic Constant Matrix: (Units=GPa)
#
#
# Indices 1 2 3 4 5 6 
#
# 1 105.9475 51.2158 7.8967 -0.0001 -0.0002 0.0000
# 2 51.2158 95.0417 18.4378 0.0001 -0.0004 0.0000
# 3 7.8967 18.4378 85.0169 0.0007 -0.0015 -0.0017
# 4 -0.0001 0.0001 0.0007 23.7855 -0.0002 -0.0002
# 5 -0.0002 -0.0004 -0.0015 -0.0002 10.2029 0.0003
# 6 0.0000 0.0000 -0.0017 -0.0002 0.0003 5.0093
#
#
#
# Elastic Compliance Matrix: (Units=1/GPa)
#
#
# Indices 1 2 3 4 5 6 
#
# 1 0.012772 -0.006944 0.000320 0.000000 0.000000 0.000000
# 2 -0.006944 0.014760 -0.002556 0.000000 0.000000 -0.000001
# 3 0.000320 -0.002556 0.012287 0.000000 0.000002 0.000004
# 4 0.000000 0.000000 0.000000 0.042042 0.000001 0.000002
# 5 0.000000 0.000000 0.000002 0.000001 0.098011 -0.000005
# 6 0.000000 -0.000001 0.000004 0.000002 -0.000005 0.199627
#
#
# Mechanical properties :
#
#
# Convention : Reuss Voigt Hill
#
# Bulk Modulus (GPa) = 46.60433 49.01187 47.80810
# Shear Modulus (GPa) = 12.34530 21.69662 17.02096
#
# Velocity S-wave (km/s) = 2.63135 3.48838 3.08972
# Velocity P-wave (km/s) = 5.94731 6.61165 6.28826
#
# Compressibility (1/GPa) = 0.02145723
#
# Stress axis : x y z
#
# Youngs Moduli (GPa) = 78.29746 67.75182 81.38699
#
# Poissons Ratio (x) = 0.47050 -0.02602
# Poissons Ratio (y) = 0.54373 0.20802
# Poissons Ratio (z) = -0.02504 0.17317
#
# Static dielectric constant tensor:
#      x y z
#    x 1.609120 0.000000 0.000000 
#    y 0.000000 1.634430 0.000000 
#    z 0.000000 0.000000 1.626060 
# 
# From -- ./inp_files/7120.got.cif
#   From: 2010.05.17/outbox.cif.g08.bks.cpg/sg24_4_cif.got.tgz:7120.got - 2010.06.04 00:33:39.
