data_PCOD9332738
_publ_section_title
;
Structure prediction by ZEFSAII (Michael W. Deem and Ramdas Pophale) SiO2 
 PCOD9332738
Probable space group: I 21 21 21
;
_chemical_formula_sum "Si O2"
_cell_formula_units_Z 48
_cell_length_a 7.522367
_cell_length_b 22.464418
_cell_length_c 11.469272
_cell_angle_alpha 90.000000
_cell_angle_beta 90.000000
_cell_angle_gamma 90.000000
_cell_volume 1938.141772
_symmetry_space_group_name_H-M "I 21 21 21"
_symmetry_group_IT_number 24
_symmetry_cell_setting 'orthorhombic'
loop_
_space_group_symop_operation_xyz
x,y,z
-x,1/2-y,z
x,-y,1/2-z
1/2-x,y,-z
1/2+x,1/2+y,1/2+z
1/2-x,-y,1/2+z
1/2+x,1/2-y,-z
-x,1/2+y,1/2-z
loop_
_atom_site_type_symbol
_atom_site_label
_atom_site_fract_x
_atom_site_fract_y
_atom_site_fract_z
Si Si1 0.386386 0.851367 0.153744
Si Si2 0.522300 0.532051 0.627332
Si Si3 0.491441 0.319335 0.578139
Si Si4 0.568107 0.508735 0.127238
Si Si5 0.622524 0.841979 0.690730
Si Si6 0.752764 0.282310 0.863393
O O1 0.186926 0.841283 0.108930
O O2 0.398634 0.921578 0.140439
O O3 0.386485 0.818845 0.279211
O O4 0.524718 0.825162 0.060190
O O5 0.475910 0.500000 0.750000
O O6 0.485439 0.503777 0.499691
O O7 0.743176 0.528896 0.630998
O O8 0.416824 0.594903 0.630698
O O9 0.500000 0.250000 0.603367
O O10 0.362595 0.351242 0.669791
O O11 0.465872 0.500000 0.250000
O O12 0.756150 0.789714 0.650306
O O13 0.435929 0.808484 0.674351
O O14 0.750000 0.295608 0.000000
#
# Coordination Sequence:
#
# PCOD9332738 Si02
#       6
#     8   8   8   8   8   8
#     4  10  19  32  52  75 112 137 171 225 272 338
#     4  10  18  29  49  75 103 137 172 219 272 336
#     4  10  16  31  49  73 101 139 176 218 269 318
#     4  10  19  30  46  79 106 133 168 215 295 329
#     4  10  19  33  52  77 105 141 187 219 268 336
#     4  10  20  34  51  73 110 151 179 221 270 332
#
# _framework density 24.765991
#
# number of rings (size 3 to 8) (size 9 to 14) (size 15 to 20)
#    0.000    2.000    3.333    7.000    4.667    0.000 
#    3.000    0.000    0.000    0.000    0.000    8.167 
#    0.000    0.000    0.000    0.000    0.000    0.000 
#
# Total GULP energy -133654.088569 kJ/mol
# GULP energy per Si atom -5568.920357 kJ/mol
# Density = 2.470962 g / cm^3
# Si number density = 24.765991 Si / 1000 Ang^3
#
#
#
# Elastic Constant Matrix: (Units=GPa)
#
#
# Indices 1 2 3 4 5 6 
#
# 1 40.8783 11.4595 32.4969 0.0000 0.0000 0.0000
# 2 11.4595 184.8601 79.1574 0.0001 0.0000 0.0000
# 3 32.4969 79.1574 278.2755 0.0002 0.0000 0.0000
# 4 0.0000 0.0001 0.0002 34.8325 0.0000 0.0000
# 5 0.0000 0.0000 0.0000 0.0000 0.8969 0.0000
# 6 0.0000 0.0000 0.0000 0.0000 0.0000 0.2963
#
#
#
# Elastic Compliance Matrix: (Units=1/GPa)
#
#
# Indices 1 2 3 4 5 6 
#
# 1 0.026988 -0.000368 -0.003047 0.000000 0.000001 0.000000
# 2 -0.000368 0.006165 -0.001711 0.000000 0.000000 0.000000
# 3 -0.003047 -0.001711 0.004436 0.000000 0.000000 0.000000
# 4 0.000000 0.000000 0.000000 0.028709 0.000001 0.000001
# 5 0.000001 0.000000 0.000000 0.000001 1.114921 -0.000066
# 6 0.000000 0.000000 0.000000 0.000001 -0.000066 3.375059
#
#
# Mechanical properties :
#
#
# Convention : Reuss Voigt Hill
#
# Bulk Modulus (GPa) = 36.57988 83.36018 59.97003
# Shear Modulus (GPa) = 1.09274 32.59848 16.84561
#
# Velocity S-wave (km/s) = 0.66497 3.63197 2.61088
# Velocity P-wave (km/s) = 3.92324 7.16383 5.77548
#
# Compressibility (1/GPa) = 0.02733743
#
# Stress axis : x y z
#
# Youngs Moduli (GPa) = 37.05303 162.21088 225.42953
#
# Poissons Ratio (x) = 0.05974 0.68687
# Poissons Ratio (y) = 0.01365 0.38562
# Poissons Ratio (z) = 0.11290 0.27748
#
# Static dielectric constant tensor:
#      x y z
#    x 2.009510 0.000000 0.000000 
#    y 0.000000 1.948910 0.000000 
#    z 0.000000 0.000000 2.207830 
# 
# From -- ./inp_files/19847.got.cif
#   From: 2010.05.17/outbox.cif.g08.bks.cpg/sg24_10_cif.got.tgz:19847.got - 2010.06.04 00:33:39.
