data_PCOD9332705
_publ_section_title
;
Structure prediction by ZEFSAII (Michael W. Deem and Ramdas Pophale) SiO2 
 PCOD9332705
Probable space group: I 21 21 21
;
_chemical_formula_sum "Si O2"
_cell_formula_units_Z 48
_cell_length_a 9.288090
_cell_length_b 12.557850
_cell_length_c 21.878089
_cell_angle_alpha 90.000000
_cell_angle_beta 90.000000
_cell_angle_gamma 90.000000
_cell_volume 2551.826193
_symmetry_space_group_name_H-M "I 21 21 21"
_symmetry_group_IT_number 24
_symmetry_cell_setting 'orthorhombic'
loop_
_space_group_symop_operation_xyz
x,y,z
-x,1/2-y,z
x,-y,1/2-z
1/2-x,y,-z
1/2+x,1/2+y,1/2+z
1/2-x,-y,1/2+z
1/2+x,1/2-y,-z
-x,1/2+y,1/2-z
loop_
_atom_site_type_symbol
_atom_site_label
_atom_site_fract_x
_atom_site_fract_y
_atom_site_fract_z
Si Si1 0.877770 0.564352 0.076821
Si Si2 0.129466 0.811077 0.195311
Si Si3 0.060120 0.984391 0.619581
Si Si4 0.859455 0.177593 0.623848
Si Si5 0.421903 0.141087 0.998970
Si Si6 0.687363 0.500000 0.250000
Si Si7 0.250000 0.231984 0.500000
O O1 0.935501 0.622797 0.137054
O O2 0.708730 0.540989 0.094448
O O3 0.944124 0.456867 0.049028
O O4 0.874227 0.652175 0.023704
O O5 0.241290 0.722925 0.170350
O O6 0.000000 0.750000 0.227667
O O7 0.214402 0.899391 0.232742
O O8 0.034504 0.895877 0.567650
O O9 0.098794 0.962973 0.690288
O O10 0.921520 0.059633 0.624334
O O11 0.798016 0.200323 0.557005
O O12 0.000000 0.250000 0.634022
O O13 0.500000 0.250000 0.981854
O O14 0.250000 0.157765 0.000000
#
# Coordination Sequence:
#
# PCOD9332705 Si02
#       7
#     8   8   8   8   8   4   4
#     4   9  16  34  58  79 115 155 184 233 302 368
#     4  10  22  38  60  90 122 152 196 253 320 360
#     4  10  19  37  59  83 110 157 210 236 288 353
#     4  11  18  34  59  90 115 148 197 239 292 377
#     4  10  20  38  57  82 119 157 199 242 291 363
#     4  10  20  40  64  78 118 168 194 256 306 356
#     4  10  16  26  56  88 122 142 168 234 314 352
#
# _framework density 18.810058999999999
#
# number of rings (size 3 to 8) (size 9 to 14) (size 15 to 20)
#    0.000    2.000    7.500    0.000    0.000    5.333 
#    7.500    8.333    0.000    0.000    0.000    0.000 
#    0.000    0.000    0.000    0.000    0.000    0.000 
#
# Total GULP energy -133713.176794 kJ/mol
# GULP energy per Si atom -5571.382366 kJ/mol
# Density = 1.876725 g / cm^3
# Si number density = 18.810059 Si / 1000 Ang^3
#
#
#
# Elastic Constant Matrix: (Units=GPa)
#
#
# Indices 1 2 3 4 5 6 
#
# 1 57.8675 44.4166 15.6660 0.0000 0.0000 0.0000
# 2 44.4166 110.5712 45.0065 0.0000 0.0000 0.0000
# 3 15.6660 45.0065 80.5527 0.0000 0.0000 0.0000
# 4 0.0000 0.0000 0.0000 18.8778 0.0000 0.0000
# 5 0.0000 0.0000 0.0000 0.0000 14.6642 0.0000
# 6 0.0000 0.0000 0.0000 0.0000 0.0000 38.1454
#
#
#
# Elastic Compliance Matrix: (Units=1/GPa)
#
#
# Indices 1 2 3 4 5 6 
#
# 1 0.025043 -0.010455 0.000971 0.000000 0.000000 0.000000
# 2 -0.010455 0.016071 -0.006946 0.000000 0.000000 0.000000
# 3 0.000971 -0.006946 0.016106 0.000000 0.000000 0.000000
# 4 0.000000 0.000000 0.000000 0.052972 0.000000 0.000000
# 5 0.000000 0.000000 0.000000 0.000000 0.068193 0.000000
# 6 0.000000 0.000000 0.000000 0.000000 0.000000 0.026215
#
#
# Mechanical properties :
#
#
# Convention : Reuss Voigt Hill
#
# Bulk Modulus (GPa) = 41.05035 51.01885 46.03460
# Shear Modulus (GPa) = 20.35991 23.93096 22.14544
#
# Velocity S-wave (km/s) = 3.29355 3.57072 3.43493
# Velocity P-wave (km/s) = 6.02779 6.64696 6.34493
#
# Compressibility (1/GPa) = 0.02436033
#
# Stress axis : x y z
#
# Youngs Moduli (GPa) = 39.93167 62.22405 62.08790
#
# Poissons Ratio (x) = 0.65055 -0.06029
# Poissons Ratio (y) = 0.41749 0.43126
# Poissons Ratio (z) = -0.03878 0.43220
#
# Static dielectric constant tensor:
#      x y z
#    x 1.677360 0.000000 0.000000 
#    y 0.000000 1.703330 0.000000 
#    z 0.000000 0.000000 1.674320 
# 
# From -- ./inp_files/35154.got.cif
#   From: 2010.05.17/outbox.cif.g08.bks.cpg/sg24_18_cif.got.tgz:35154.got - 2010.06.04 00:33:39.
