data_PCOD9332350
_publ_section_title
;
Structure prediction by ZEFSAII (Michael W. Deem and Ramdas Pophale) SiO2 
 PCOD9332350
Probable space group: I 2 2 2
;
_chemical_formula_sum "Si O2"
_cell_formula_units_Z 26
_cell_length_a 7.061161
_cell_length_b 14.897961
_cell_length_c 11.179343
_cell_angle_alpha 90.000000
_cell_angle_beta 90.000000
_cell_angle_gamma 90.000000
_cell_volume 1176.032241
_symmetry_space_group_name_H-M "I 2 2 2"
_symmetry_group_IT_number 23
_symmetry_cell_setting 'orthorhombic'
loop_
_space_group_symop_operation_xyz
x,y,z
-x,-y,z
x,-y,-z
-x,y,-z
1/2+x,1/2+y,1/2+z
1/2-x,1/2-y,1/2+z
1/2+x,1/2-y,1/2-z
1/2-x,1/2+y,1/2-z
loop_
_atom_site_type_symbol
_atom_site_label
_atom_site_fract_x
_atom_site_fract_y
_atom_site_fract_z
Si Si1 0.851471 0.683618 0.627521
Si Si2 0.737768 0.913781 0.910028
Si Si3 0.526723 0.630440 0.800921
Si Si4 0.000000 0.000000 0.500000
O O1 0.739635 0.668146 0.503559
O O2 0.707409 0.664105 0.731255
O O3 0.023862 0.610702 0.632929
O O4 0.926423 0.783582 0.641133
O O5 0.881045 0.911920 0.798404
O O6 0.756261 0.000000 0.000000
O O7 0.598438 0.565225 0.905542
#
# Coordination Sequence:
#
# PCOD9332350 Si02
#       4
#     8   8   8   2
#     4  11  23  44  74  99 140 187 235 284 345 426
#     4  11  24  45  74 105 138 185 242 288 340 427
#     4  12  25  46  71 104 143 187 231 292 357 410
#     4  12  28  44  68 108 150 170 228 310 342 404
#
# _framework density 22.108238
#
# number of rings (size 3 to 8) (size 9 to 14) (size 15 to 20)
#    0.000    0.615    3.077    6.462    0.000    2.462 
#    0.000    3.077    0.000    0.000    0.000    0.000 
#    0.000    0.000    0.000    0.000    0.000    0.000 
#
# Total GULP energy -72537.531808 kJ/mol
# GULP energy per Si atom -5579.810139 kJ/mol
# Density = 2.205792 g / cm^3
# Si number density = 22.108238 Si / 1000 Ang^3
#
#
#
# Elastic Constant Matrix: (Units=GPa)
#
#
# Indices 1 2 3 4 5 6 
#
# 1 58.8537 36.2735 31.4088 0.0000 0.0000 0.0000
# 2 36.2735 106.9898 65.3934 0.0000 0.0000 0.0000
# 3 31.4088 65.3934 142.9686 0.0001 0.0000 0.0000
# 4 0.0000 0.0000 0.0001 48.4258 0.0000 0.0000
# 5 0.0000 0.0000 0.0000 0.0000 17.9419 0.0000
# 6 0.0000 0.0000 0.0000 0.0000 0.0000 16.4609
#
#
#
# Elastic Compliance Matrix: (Units=1/GPa)
#
#
# Indices 1 2 3 4 5 6 
#
# 1 0.021869 -0.006216 -0.001961 0.000000 0.000000 0.000000
# 2 -0.006216 0.014740 -0.005377 0.000000 0.000000 0.000000
# 3 -0.001961 -0.005377 0.009885 0.000000 0.000000 0.000000
# 4 0.000000 0.000000 0.000000 0.020650 0.000000 0.000000
# 5 0.000000 0.000000 0.000000 0.000000 0.055735 0.000000
# 6 0.000000 0.000000 0.000000 0.000000 0.000000 0.060750
#
#
# Mechanical properties :
#
#
# Convention : Reuss Voigt Hill
#
# Bulk Modulus (GPa) = 51.58188 63.88482 57.73335
# Shear Modulus (GPa) = 23.02039 28.28149 25.65094
#
# Velocity S-wave (km/s) = 3.23035 3.58051 3.40993
# Velocity P-wave (km/s) = 6.10703 6.78620 6.45555
#
# Compressibility (1/GPa) = 0.01938665
#
# Stress axis : x y z
#
# Youngs Moduli (GPa) = 45.72713 67.84145 101.16634
#
# Poissons Ratio (x) = 0.42167 0.19843
# Poissons Ratio (y) = 0.28422 0.54394
# Poissons Ratio (z) = 0.08969 0.36476
#
# Static dielectric constant tensor:
#      x y z
#    x 1.821750 0.000000 0.000000 
#    y 0.000000 1.894020 0.000000 
#    z 0.000000 0.000000 1.834480 
# 
# From -- ./inp_files/14206.got.cif
#   From: 2010.05.17/outbox.cif.g08.bks.cpg/sg23_8_cif.got.tgz:14206.got - 2010.06.04 12:02:01.
