data_PCOD9332227
_publ_section_title
;
Structure prediction by ZEFSAII (Michael W. Deem and Ramdas Pophale) SiO2 
 PCOD9332227
Probable space group: I 2 2 2
;
_chemical_formula_sum "Si O2"
_cell_formula_units_Z 64
_cell_length_a 9.363602
_cell_length_b 16.226650
_cell_length_c 20.147055
_cell_angle_alpha 90.000000
_cell_angle_beta 90.000000
_cell_angle_gamma 90.000000
_cell_volume 3061.141369
_symmetry_space_group_name_H-M "I 2 2 2"
_symmetry_group_IT_number 23
_symmetry_cell_setting 'orthorhombic'
loop_
_space_group_symop_operation_xyz
x,y,z
-x,-y,z
x,-y,-z
-x,y,-z
1/2+x,1/2+y,1/2+z
1/2-x,1/2-y,1/2+z
1/2+x,1/2-y,1/2-z
1/2-x,1/2+y,1/2-z
loop_
_atom_site_type_symbol
_atom_site_label
_atom_site_fract_x
_atom_site_fract_y
_atom_site_fract_z
Si Si1 0.076086 0.259554 0.067974
Si Si2 0.255224 0.092336 0.776345
Si Si3 0.343127 0.918182 0.779951
Si Si4 0.656220 0.477232 0.861796
Si Si5 0.463464 0.650272 0.303608
Si Si6 0.023681 0.274733 0.314214
Si Si7 0.914860 0.582542 0.871466
Si Si8 0.901415 0.820284 0.563009
O O1 0.065892 0.192921 0.126425
O O2 0.243530 0.280356 0.058158
O O3 0.986157 0.340141 0.092876
O O4 0.000000 0.232668 0.000000
O O5 0.236976 0.074043 0.697089
O O6 0.328620 0.177800 0.797959
O O7 0.098528 0.091053 0.807038
O O8 0.344087 0.013237 0.800358
O O9 0.177423 0.892918 0.775143
O O10 0.415331 0.850224 0.825122
O O11 0.418712 0.907102 0.708375
O O12 0.500000 0.500000 0.835951
O O13 0.749867 0.556253 0.882324
O O14 0.631402 0.415717 0.922112
O O15 0.507855 0.720617 0.250714
O O16 0.994484 0.215201 0.375559
O O17 0.000000 0.500000 0.890330
O O18 0.000000 0.808237 0.500000
#
# Coordination Sequence:
#
# PCOD9332227 Si02
#       8
#     8   8   8   8   8   8   8   8
#     4  12  28  46  67  97 137 187 236 278 339 411
#     4  11  23  38  68 104 135 170 217 279 351 399
#     4  11  22  39  68 102 137 168 217 284 343 400
#     4  11  23  42  66 103 144 180 224 274 337 418
#     4  12  23  41  69 102 133 174 229 284 337 397
#     4  12  23  41  70  98 133 173 227 282 341 400
#     4  11  22  41  69  98 140 178 221 273 338 419
#     4  12  28  47  66  97 138 186 234 283 341 407
#
# _framework density 20.907233999999999
#
# number of rings (size 3 to 8) (size 9 to 14) (size 15 to 20)
#    0.000    0.500    5.000    5.250    3.500    0.500 
#    0.000    0.000    0.000    4.500    0.000    0.000 
#    0.000    0.000    0.000    0.000    0.000    0.000 
#
# Total GULP energy -178884.899149 kJ/mol
# GULP energy per Si atom -5590.153098 kJ/mol
# Density = 2.085965 g / cm^3
# Si number density = 20.907234 Si / 1000 Ang^3
#
#
#
# Elastic Constant Matrix: (Units=GPa)
#
#
# Indices 1 2 3 4 5 6 
#
# 1 142.1773 19.9525 33.7371 0.0000 0.0000 0.0000
# 2 19.9525 56.1948 21.0111 0.0000 0.0000 0.0000
# 3 33.7371 21.0111 100.8723 0.0000 0.0000 0.0000
# 4 0.0000 0.0000 0.0000 16.9220 0.0000 0.0000
# 5 0.0000 0.0000 0.0000 0.0000 31.5981 0.0000
# 6 0.0000 0.0000 0.0000 0.0000 0.0000 41.0783
#
#
#
# Elastic Compliance Matrix: (Units=1/GPa)
#
#
# Indices 1 2 3 4 5 6 
#
# 1 0.007833 -0.001954 -0.002213 0.000000 0.000000 0.000000
# 2 -0.001954 0.019786 -0.003468 0.000000 0.000000 0.000000
# 3 -0.002213 -0.003468 0.011376 0.000000 0.000000 0.000000
# 4 0.000000 0.000000 0.000000 0.059095 0.000000 0.000000
# 5 0.000000 0.000000 0.000000 0.000000 0.031647 0.000000
# 6 0.000000 0.000000 0.000000 0.000000 0.000000 0.024344
#
#
# Mechanical properties :
#
#
# Convention : Reuss Voigt Hill
#
# Bulk Modulus (GPa) = 42.14848 49.84954 45.99901
# Shear Modulus (GPa) = 28.20761 32.88925 30.54843
#
# Velocity S-wave (km/s) = 3.67710 3.97054 3.82663
# Velocity P-wave (km/s) = 6.18317 6.70188 6.44775
#
# Compressibility (1/GPa) = 0.02372565
#
# Stress axis : x y z
#
# Youngs Moduli (GPa) = 127.66981 50.54199 87.90513
#
# Poissons Ratio (x) = 0.09875 0.19451
# Poissons Ratio (y) = 0.24943 0.30484
# Poissons Ratio (z) = 0.28250 0.17527
#
# Static dielectric constant tensor:
#      x y z
#    x 1.852090 0.000000 0.000000 
#    y 0.000000 1.781270 0.000000 
#    z 0.000000 0.000000 1.730900 
# 
# From -- ./inp_files/26349.got.cif
#   From: 2010.05.17/outbox.cif.g08.bks.cpg/sg23_14_cif.got.tgz:26349.got - 2010.06.04 12:02:01.
