data_PCOD9332196
_publ_section_title
;
Structure prediction by ZEFSAII (Michael W. Deem and Ramdas Pophale) SiO2 
 PCOD9332196
Probable space group: I 2 2 2
;
_chemical_formula_sum "Si O2"
_cell_formula_units_Z 64
_cell_length_a 14.769016
_cell_length_b 8.222138
_cell_length_c 24.460316
_cell_angle_alpha 90.000000
_cell_angle_beta 90.000000
_cell_angle_gamma 90.000000
_cell_volume 2970.286805
_symmetry_space_group_name_H-M "I 2 2 2"
_symmetry_group_IT_number 23
_symmetry_cell_setting 'orthorhombic'
loop_
_space_group_symop_operation_xyz
x,y,z
-x,-y,z
x,-y,-z
-x,y,-z
1/2+x,1/2+y,1/2+z
1/2-x,1/2-y,1/2+z
1/2+x,1/2-y,1/2-z
1/2-x,1/2+y,1/2-z
loop_
_atom_site_type_symbol
_atom_site_label
_atom_site_fract_x
_atom_site_fract_y
_atom_site_fract_z
Si Si1 0.018861 0.822031 0.090727
Si Si2 0.788243 0.821525 0.972954
Si Si3 0.385558 0.089832 0.340073
Si Si4 0.369164 0.388851 0.761169
Si Si5 0.287550 0.126500 0.172843
Si Si6 0.791399 0.266791 0.640090
Si Si7 0.934948 0.250331 0.260396
Si Si8 0.673132 0.202411 0.418950
O O1 0.110189 0.821495 0.054606
O O2 0.027925 0.676607 0.133779
O O3 0.923645 0.778950 0.063419
O O4 0.000000 0.000000 0.115314
O O5 0.715833 0.781731 0.925290
O O6 0.781519 0.690208 0.021837
O O7 0.775028 0.000000 0.000000
O O8 0.311388 0.230807 0.344019
O O9 0.405808 0.093046 0.276072
O O10 0.346499 0.950765 0.379415
O O11 0.283659 0.342193 0.722866
O O12 0.343486 0.370847 0.825424
O O13 0.395755 0.571934 0.744613
O O14 0.458107 0.277352 0.755936
O O15 0.381429 0.219490 0.183255
O O16 0.232181 0.179554 0.119128
O O17 0.313796 0.939556 0.165857
#
# Coordination Sequence:
#
# PCOD9332196 Si02
#       8
#     8   8   8   8   8   8   8   8
#     4  11  22  36  61  89 132 176 226 275 329 404
#     4  11  22  42  66  93 129 184 230 280 343 414
#     4  11  23  39  57  96 132 177 223 275 345 415
#     4  11  23  42  66  99 137 182 224 295 346 423
#     4  12  22  41  66  98 136 175 225 287 348 419
#     4  11  23  41  67  93 136 174 230 283 345 415
#     4  11  25  40  67  96 138 182 228 276 365 414
#     4  12  24  38  63  94 134 178 227 282 338 412
#
# _framework density 21.546741000000001
#
# number of rings (size 3 to 8) (size 9 to 14) (size 15 to 20)
#    0.000    0.750    5.000    3.000    3.500    2.500 
#    0.000    2.500    0.000    0.750    0.000    1.750 
#    0.000    0.000    0.000    0.000    0.000    0.000 
#
# Total GULP energy -178283.519615 kJ/mol
# GULP energy per Si atom -5571.359988 kJ/mol
# Density = 2.149770 g / cm^3
# Si number density = 21.546741 Si / 1000 Ang^3
#
#
#
# Elastic Constant Matrix: (Units=GPa)
#
#
# Indices 1 2 3 4 5 6 
#
# 1 34.1517 13.1356 30.7987 0.0000 0.0000 0.0000
# 2 13.1356 89.5612 40.3173 0.0000 0.0000 0.0000
# 3 30.7987 40.3173 126.8837 0.0000 0.0000 0.0000
# 4 0.0000 0.0000 0.0000 34.1283 0.0000 0.0000
# 5 0.0000 0.0000 0.0000 0.0000 19.4890 0.0000
# 6 0.0000 0.0000 0.0000 0.0000 0.0000 31.1198
#
#
#
# Elastic Compliance Matrix: (Units=1/GPa)
#
#
# Indices 1 2 3 4 5 6 
#
# 1 0.037694 -0.001645 -0.008627 0.000000 0.000000 0.000000
# 2 -0.001645 0.013101 -0.003764 0.000000 0.000000 0.000000
# 3 -0.008627 -0.003764 0.011171 0.000000 0.000000 0.000000
# 4 0.000000 0.000000 0.000000 0.029301 0.000000 0.000000
# 5 0.000000 0.000000 0.000000 0.000000 0.051311 0.000000
# 6 0.000000 0.000000 0.000000 0.000000 0.000000 0.032134
#
#
# Mechanical properties :
#
#
# Convention : Reuss Voigt Hill
#
# Bulk Modulus (GPa) = 29.50267 46.56665 38.03466
# Shear Modulus (GPa) = 23.35567 28.03708 25.69638
#
# Velocity S-wave (km/s) = 3.29592 3.61116 3.45713
# Velocity P-wave (km/s) = 5.31095 6.24869 5.79881
#
# Compressibility (1/GPa) = 0.03389523
#
# Stress axis : x y z
#
# Youngs Moduli (GPa) = 26.52969 76.32985 89.51672
#
# Poissons Ratio (x) = 0.12556 0.77224
# Poissons Ratio (y) = 0.04364 0.33690
# Poissons Ratio (z) = 0.22887 0.28727
#
# Static dielectric constant tensor:
#      x y z
#    x 1.831380 0.000000 0.000000 
#    y 0.000000 1.844960 0.000000 
#    z 0.000000 0.000000 1.854070 
# 
# From -- ./inp_files/28572.got.cif
#   From: 2010.05.17/outbox.cif.g08.bks.cpg/sg23_15_cif.got.tgz:28572.got - 2010.06.04 12:02:01.
