data_PCOD9332053
_publ_section_title
;
Structure prediction by ZEFSAII (Michael W. Deem and Ramdas Pophale) SiO2 
 PCOD9332053
Probable space group: I 2 2 2
;
_chemical_formula_sum "Si O2"
_cell_formula_units_Z 40
_cell_length_a 7.505712
_cell_length_b 10.472217
_cell_length_c 18.904851
_cell_angle_alpha 90.000000
_cell_angle_beta 90.000000
_cell_angle_gamma 90.000000
_cell_volume 1485.948602
_symmetry_space_group_name_H-M "I 2 2 2"
_symmetry_group_IT_number 23
_symmetry_cell_setting 'orthorhombic'
loop_
_space_group_symop_operation_xyz
x,y,z
-x,-y,z
x,-y,-z
-x,y,-z
1/2+x,1/2+y,1/2+z
1/2-x,1/2-y,1/2+z
1/2+x,1/2-y,1/2-z
1/2-x,1/2+y,1/2-z
loop_
_atom_site_type_symbol
_atom_site_label
_atom_site_fract_x
_atom_site_fract_y
_atom_site_fract_z
Si Si1 0.191597 0.834125 0.423472
Si Si2 0.711104 0.962130 0.078168
Si Si3 0.263207 0.442024 0.274702
Si Si4 0.899720 0.313069 0.225160
Si Si5 0.734409 0.619493 0.912444
O O1 0.113606 0.829848 0.253812
O O2 0.233855 0.688134 0.405496
O O3 0.977075 0.846006 0.410514
O O4 0.259504 0.850217 0.504835
O O5 0.752500 0.914297 0.252632
O O6 0.500000 0.000000 0.079496
O O7 0.792739 0.040901 0.142033
O O8 0.774626 0.000000 0.000000
O O9 0.240106 0.469115 0.106653
O O10 0.074414 0.376654 0.256491
O O11 0.867661 0.310539 0.140816
#
# Coordination Sequence:
#
# PCOD9332053 Si02
#       5
#     8   8   8   8   8
#     4   9  18  32  58  97 122 164 223 278 332 388
#     4  11  19  33  59  93 128 159 221 295 329 384
#     4  11  26  42  65  97 136 180 229 271 357 403
#     4  11  24  42  61  96 137 177 222 278 339 425
#     4   9  18  33  60  91 131 160 215 286 339 387
#
# _framework density 26.918834
#
# number of rings (size 3 to 8) (size 9 to 14) (size 15 to 20)
#    0.000    1.800    2.000    6.000    2.800    2.400 
#    0.000    0.000    0.000    9.600    0.000    5.600 
#    0.000    0.000    0.000    0.000    0.000    0.000 
#
# Total GULP energy -111800.314900 kJ/mol
# GULP energy per Si atom -5590.015745 kJ/mol
# Density = 2.685757 g / cm^3
# Si number density = 26.918834 Si / 1000 Ang^3
#
#
#
# Elastic Constant Matrix: (Units=GPa)
#
#
# Indices 1 2 3 4 5 6 
#
# 1 85.8953 71.7174 25.1924 0.0000 0.0000 0.0000
# 2 71.7174 209.0357 31.1639 0.0000 0.0000 0.0000
# 3 25.1924 31.1639 143.0399 0.0000 0.0000 0.0000
# 4 0.0000 0.0000 0.0000 48.3531 0.0000 0.0000
# 5 0.0000 0.0000 0.0000 0.0000 -9.6919 0.0000
# 6 0.0000 0.0000 0.0000 0.0000 0.0000 33.1136
#
#
#
# Elastic Compliance Matrix: (Units=1/GPa)
#
#
# Indices 1 2 3 4 5 6 
#
# 1 0.016731 -0.005479 -0.001753 0.000000 0.000000 0.000000
# 2 -0.005479 0.006739 -0.000503 0.000000 0.000000 0.000000
# 3 -0.001753 -0.000503 0.007409 0.000000 0.000000 0.000000
# 4 0.000000 0.000000 0.000000 0.020681 0.000000 0.000000
# 5 0.000000 0.000000 0.000000 0.000000 -0.103179 0.000000
# 6 0.000000 0.000000 0.000000 0.000000 0.000000 0.030199
#
#
# Mechanical properties :
#
#
# Convention : Reuss Voigt Hill
#
# Bulk Modulus (GPa) = 64.89793 77.12425 71.01109
# Shear Modulus (GPa) = -6141.75779 35.01477 -3053.37151
#
# Velocity S-wave (km/s) = -47.81775 3.61051 -33.71573
# Velocity P-wave (km/s) = 54.99595 6.78925 38.59055
#
# Compressibility (1/GPa) = 0.01540881
#
# Stress axis : x y z
#
# Youngs Moduli (GPa) = 59.77070 148.39947 134.96320
#
# Poissons Ratio (x) = 0.81304 0.23659
# Poissons Ratio (y) = 0.32747 0.06791
# Poissons Ratio (z) = 0.10478 0.07468
#
# Static dielectric constant tensor:
#      x y z
#    x 2.111950 0.000000 0.000000 
#    y 0.000000 2.107100 0.000000 
#    z 0.000000 0.000000 2.160140 
# 
# From -- ./inp_files/23804.got.cif
#   From: 2010.05.17/outbox.cif.g08.bks.cpg/sg23_12_cif.got.tgz:23804.got - 2010.06.04 12:02:01.
