data_PCOD9332111
_publ_section_title
;
Structure prediction by ZEFSAII (Michael W. Deem and Ramdas Pophale) SiO2 
 PCOD9332111
Probable space group: I 2 2 2
;
_chemical_formula_sum "Si O2"
_cell_formula_units_Z 34
_cell_length_a 18.568628
_cell_length_b 16.287926
_cell_length_c 4.982113
_cell_angle_alpha 90.000000
_cell_angle_beta 90.000000
_cell_angle_gamma 90.000000
_cell_volume 1506.812370
_symmetry_space_group_name_H-M "I 2 2 2"
_symmetry_group_IT_number 23
_symmetry_cell_setting 'orthorhombic'
loop_
_space_group_symop_operation_xyz
x,y,z
-x,-y,z
x,-y,-z
-x,y,-z
1/2+x,1/2+y,1/2+z
1/2-x,1/2-y,1/2+z
1/2+x,1/2-y,1/2-z
1/2-x,1/2+y,1/2-z
loop_
_atom_site_type_symbol
_atom_site_label
_atom_site_fract_x
_atom_site_fract_y
_atom_site_fract_z
Si Si1 0.675289 0.678744 0.546832
Si Si2 0.050508 0.262281 0.747928
Si Si3 0.871536 0.576165 0.692351
Si Si4 0.750065 0.641592 0.050779
Si Si5 0.000000 0.500000 0.000000
O O1 0.600476 0.695165 0.397257
O O2 0.682719 0.644743 0.845824
O O3 0.713366 0.768193 0.560314
O O4 0.724222 0.623679 0.349268
O O5 0.106235 0.329860 0.614047
O O6 0.000000 0.236292 0.500000
O O7 0.000000 0.291399 0.000000
O O8 0.853694 0.500000 0.500000
O O9 0.810976 0.586707 0.917136
O O10 0.947483 0.550613 0.815373
#
# Coordination Sequence:
#
# PCOD9332111 Si02
#       5
#     8   8   8   8   2
#     4   9  18  34  53  75  99 136 185 232 280 317
#     4  11  21  35  55  81 112 146 183 230 282 333
#     4  11  24  35  51  75 115 158 192 218 260 323
#     4   9  19  34  53  71 100 143 187 229 266 314
#     4  12  22  36  48  74 112 156 188 216 252 320
#
# _framework density 22.564188999999999
#
# number of rings (size 3 to 8) (size 9 to 14) (size 15 to 20)
#    0.000    1.882    1.176    3.176    3.294    3.765 
#    0.000    0.000    0.000    0.000    0.000    0.000 
#    0.000   14.118    0.000    0.000    0.000    0.000 
#
# Total GULP energy -94808.427957 kJ/mol
# GULP energy per Si atom -5576.966350 kJ/mol
# Density = 2.251283 g / cm^3
# Si number density = 22.564189 Si / 1000 Ang^3
#
#
#
# Elastic Constant Matrix: (Units=GPa)
#
#
# Indices 1 2 3 4 5 6 
#
# 1 60.7520 24.2596 5.3917 0.0000 0.0000 0.0000
# 2 24.2596 30.1998 8.8034 0.0000 0.0000 0.0000
# 3 5.3917 8.8034 97.2587 0.0000 0.0000 0.0000
# 4 0.0000 0.0000 0.0000 27.4099 0.0000 0.0000
# 5 0.0000 0.0000 0.0000 0.0000 99.6715 0.0000
# 6 0.0000 0.0000 0.0000 0.0000 0.0000 27.8115
#
#
#
# Elastic Compliance Matrix: (Units=1/GPa)
#
#
# Indices 1 2 3 4 5 6 
#
# 1 0.024252 -0.019607 0.000430 0.000000 0.000000 0.000000
# 2 -0.019607 0.049862 -0.003426 0.000000 0.000000 0.000000
# 3 0.000430 -0.003426 0.010568 0.000000 0.000000 0.000000
# 4 0.000000 0.000000 0.000000 0.036483 0.000000 0.000000
# 5 0.000000 0.000000 0.000000 0.000000 0.010033 0.000000
# 6 0.000000 0.000000 0.000000 0.000000 0.000000 0.035956
#
#
# Mechanical properties :
#
#
# Convention : Reuss Voigt Hill
#
# Bulk Modulus (GPa) = 25.33195 29.45779 27.39487
# Shear Modulus (GPa) = 22.17112 40.96229 31.56671
#
# Velocity S-wave (km/s) = 3.13801 4.26533 3.74434
# Velocity P-wave (km/s) = 4.93766 6.11072 5.55524
#
# Compressibility (1/GPa) = 0.03947584
#
# Stress axis : x y z
#
# Youngs Moduli (GPa) = 41.23435 20.05539 94.62407
#
# Poissons Ratio (x) = 0.39322 -0.04072
# Poissons Ratio (y) = 0.80848 0.32421
# Poissons Ratio (z) = -0.01774 0.06872
#
# Static dielectric constant tensor:
#      x y z
#    x 1.877860 0.000000 0.000000 
#    y 0.000000 1.862220 0.000000 
#    z 0.000000 0.000000 1.867050 
# 
# From -- ./inp_files/3003.got.cif
#   From: 2010.05.17/outbox.cif.g08.bks.cpg/sg23_2_cif.got.tgz:3003.got - 2010.06.04 12:02:01.
