data_PCOD9332542
_publ_section_title
;
Structure prediction by ZEFSAII (Michael W. Deem and Ramdas Pophale) SiO2 
 PCOD9332542
Probable space group: I 2 2 2
;
_chemical_formula_sum "Si O2"
_cell_formula_units_Z 20
_cell_length_a 6.699879
_cell_length_b 21.830679
_cell_length_c 5.019156
_cell_angle_alpha 90.000000
_cell_angle_beta 90.000000
_cell_angle_gamma 90.000000
_cell_volume 734.116351
_symmetry_space_group_name_H-M "I 2 2 2"
_symmetry_group_IT_number 23
_symmetry_cell_setting 'orthorhombic'
loop_
_space_group_symop_operation_xyz
x,y,z
-x,-y,z
x,-y,-z
-x,y,-z
1/2+x,1/2+y,1/2+z
1/2-x,1/2-y,1/2+z
1/2+x,1/2-y,1/2-z
1/2-x,1/2+y,1/2-z
loop_
_atom_site_type_symbol
_atom_site_label
_atom_site_fract_x
_atom_site_fract_y
_atom_site_fract_z
Si Si1 0.710213 0.405757 0.886670
Si Si2 0.717589 0.289768 0.601758
Si Si3 0.500000 0.500000 0.500000
Si Si4 0.500000 0.000000 0.500000
O O1 0.814193 0.348762 0.742529
O O2 0.638754 0.455610 0.673085
O O3 0.500000 0.382090 0.000000
O O4 0.841694 0.446422 0.090838
O O5 0.500000 0.309590 0.500000
O O6 0.810437 0.259922 0.337554
#
# Coordination Sequence:
#
# PCOD9332542 Si02
#       4
#     8   8   2   2
#     4  12  26  52  78 116 164 210 261 342 404 469
#     4  12  28  53  82 115 160 213 267 330 403 472
#     4  12  22  50  82 102 158 216 250 316 438 448
#     4  12  26  50  82 118 154 208 284 314 398 506
#
# _framework density 27.243637
#
# number of rings (size 3 to 8) (size 9 to 14) (size 15 to 20)
#    0.000    0.000    6.000    3.600    2.800    0.800 
#   14.400    0.000    0.000    0.000    0.000    0.000 
#    0.000    0.000    0.000    0.000    0.000    0.000 
#
# Total GULP energy -55794.936537 kJ/mol
# GULP energy per Si atom -5579.493654 kJ/mol
# Density = 2.718163 g / cm^3
# Si number density = 27.243637 Si / 1000 Ang^3
#
#
#
# Elastic Constant Matrix: (Units=GPa)
#
#
# Indices 1 2 3 4 5 6 
#
# 1 59.2466 30.0519 11.7610 0.0018 -0.0005 0.0006
# 2 30.0519 184.1137 62.8624 0.0069 -0.0008 0.0016
# 3 11.7610 62.8624 139.7814 0.0280 0.0023 0.0043
# 4 0.0018 0.0069 0.0280 75.4697 -0.0008 0.0000
# 5 -0.0005 -0.0008 0.0023 -0.0008 19.9830 0.0005
# 6 0.0006 0.0016 0.0043 0.0000 0.0005 42.5623
#
#
#
# Elastic Compliance Matrix: (Units=1/GPa)
#
#
# Indices 1 2 3 4 5 6 
#
# 1 0.018409 -0.002925 -0.000233 0.000000 0.000000 0.000000
# 2 -0.002925 0.006881 -0.002849 0.000001 0.000001 0.000000
# 3 -0.000233 -0.002849 0.008455 -0.000003 -0.000001 -0.000001
# 4 0.000000 0.000001 -0.000003 0.013250 0.000000 0.000000
# 5 0.000000 0.000001 -0.000001 0.000000 0.050042 -0.000001
# 6 0.000000 0.000000 -0.000001 0.000000 -0.000001 0.023495
#
#
# Mechanical properties :
#
#
# Convention : Reuss Voigt Hill
#
# Bulk Modulus (GPa) = 46.01792 65.83248 55.92520
# Shear Modulus (GPa) = 35.76785 46.16744 40.96764
#
# Velocity S-wave (km/s) = 3.62731 4.12103 3.88203
# Velocity P-wave (km/s) = 5.87121 6.84549 6.37698
#
# Compressibility (1/GPa) = 0.02173066
#
# Stress axis : x y z
#
# Youngs Moduli (GPa) = 54.32239 145.31762 118.27674
#
# Poissons Ratio (x) = 0.42506 0.02761
# Poissons Ratio (y) = 0.15890 0.33693
# Poissons Ratio (z) = 0.01268 0.41396
#
# Static dielectric constant tensor:
#      x y z
#    x 2.280520 0.000000 0.000000 
#    y 0.000000 2.016700 0.000010 
#    z 0.000000 0.000010 2.120570 
# 
# From -- ./inp_files/377.got.cif
#   From: 2010.05.17/outbox.cif.g08.bks.cpg/sg23_1_cif.got.tgz:377.got - 2010.06.04 12:02:01.
