data_PCOD9332664
_publ_section_title
;
Structure prediction by ZEFSAII (Michael W. Deem and Ramdas Pophale) SiO2 
 PCOD9332664
Probable space group: I 2 2 2
;
_chemical_formula_sum "Si O2"
_cell_formula_units_Z 24
_cell_length_a 18.000000
_cell_length_b 15.000000
_cell_length_c 9.000000
_cell_angle_alpha 90.000000
_cell_angle_beta 90.000000
_cell_angle_gamma 90.000000
_cell_volume 2430.000000
_symmetry_space_group_name_H-M "I 2 2 2"
_symmetry_group_IT_number 23
_symmetry_cell_setting 'orthorhombic'
loop_
_space_group_symop_operation_xyz
x,y,z
-x,-y,z
x,-y,-z
-x,y,-z
1/2+x,1/2+y,1/2+z
1/2-x,1/2-y,1/2+z
1/2+x,1/2-y,1/2-z
1/2-x,1/2+y,1/2-z
loop_
_atom_site_type_symbol
_atom_site_label
_atom_site_fract_x
_atom_site_fract_y
_atom_site_fract_z
Si Si1 0.054270 0.169442 0.626161
Si Si2 0.816704 0.303932 0.881292
Si Si3 0.660769 0.500000 0.500000
Si Si4 0.731274 0.997283 0.739089
Si Si5 0.440780 0.662152 0.376169
Si Si6 0.177922 0.304347 0.758573
Si Si7 0.147035 0.000000 0.500000
O O1 0.107416 0.246054 0.697314
O O2 0.000000 0.208390 0.500000
O O3 0.995084 0.131443 0.744773
O O4 0.100728 0.084929 0.560787
O O5 0.809406 0.408237 0.827433
O O6 0.889005 0.246164 0.833003
O O7 0.747448 0.247778 0.815443
O O8 0.817944 0.299630 0.061507
O O9 0.717895 0.535332 0.375863
O O10 0.609887 0.419486 0.437105
O O11 0.683968 0.087804 0.775406
O O12 0.795371 0.031093 0.626317
O O13 0.500000 0.691371 0.500000
#
# Coordination Sequence:
#
# PCOD9332664 Si02
#       7
#     8   8   4   8   8   8   4
#     4  12  27  44  70 105 147 188 229 294 367 434
#     4  12  25  46  71 103 144 189 242 299 347 433
#     4  12  25  42  68 110 141 180 230 308 363 430
#     4  12  24  43  78 106 138 187 249 294 354 416
#     4  12  25  45  67 101 147 187 229 289 365 431
#     4  12  24  47  72 103 144 188 244 293 354 432
#     4  12  23  46  68 108 145 186 230 302 369 428
#
# _framework density 9.8765429999999999
#
# number of rings (size 3 to 8) (size 9 to 14) (size 15 to 20)
#    0.000    0.000    6.667    3.500    2.333    1.333 
#    0.000    0.833    0.000    1.000    0.000    0.000 
#    0.000    0.000    0.000    0.000    0.000    0.000 
#
# Total GULP energy -134101.547250 kJ/mol
# GULP energy per Si atom -5587.564469 kJ/mol
# Density = 0.985406 g / cm^3
# Si number density = 9.876543 Si / 1000 Ang^3
#
#
#
# Elastic Constant Matrix: (Units=GPa)
#
#
# Indices 1 2 3 4 5 6 
#
# 1 116.1398 68.6274 49.1147 0.0000 0.0000 0.0000
# 2 68.6274 189.8267 33.7679 0.0000 0.0000 0.0000
# 3 49.1147 33.7679 90.9855 0.0000 0.0000 0.0000
# 4 0.0000 0.0000 0.0000 34.3028 0.0000 0.0000
# 5 0.0000 0.0000 0.0000 0.0000 46.8728 0.0000
# 6 0.0000 0.0000 0.0000 0.0000 0.0000 30.4485
#
#
#
# Elastic Compliance Matrix: (Units=1/GPa)
#
#
# Indices 1 2 3 4 5 6 
#
# 1 0.013280 -0.003775 -0.005768 0.000000 0.000000 0.000000
# 2 -0.003775 0.006713 -0.000454 0.000000 0.000000 0.000000
# 3 -0.005768 -0.000454 0.014273 0.000000 0.000000 0.000000
# 4 0.000000 0.000000 0.000000 0.029152 0.000000 0.000000
# 5 0.000000 0.000000 0.000000 0.000000 0.021334 0.000000
# 6 0.000000 0.000000 0.000000 0.000000 0.000000 0.032842
#
#
# Mechanical properties :
#
#
# Convention : Reuss Voigt Hill
#
# Bulk Modulus (GPa) = 70.06165 77.77467 73.91816
# Shear Modulus (GPa) = 35.12571 38.68762 36.90666
#
# Velocity S-wave (km/s) = 4.22149 4.43036 4.32719
# Velocity P-wave (km/s) = 7.70111 8.10122 7.90369
#
# Compressibility (1/GPa) = 0.01427314
#
# Stress axis : x y z
#
# Youngs Moduli (GPa) = 75.30027 148.95368 70.06435
#
# Poissons Ratio (x) = 0.56232 0.40411
# Poissons Ratio (y) = 0.28427 0.03179
# Poissons Ratio (z) = 0.43431 0.06759
#
# Static dielectric constant tensor:
#      x y z
#    x 1.690310 0.000000 0.000000 
#    y 0.000000 1.679750 0.000000 
#    z 0.000000 0.000000 1.864350 
# 
# From -- ./inp_files/11073.got.cif
#   From: 2010.05.17/outbox.ucp.g08.bks.cvg/sg23_6_cif.got.tgz:11073.got - 2010.06.11 15:19:07.
