data_PCOD9332696
_publ_section_title
;
Structure prediction by ZEFSAII (Michael W. Deem and Ramdas Pophale) SiO2 
 PCOD9332696
Probable space group: I 21 21 21
;
_chemical_formula_sum "Si O2"
_cell_formula_units_Z 32
_cell_length_a 35.031474
_cell_length_b 5.001388
_cell_length_c 7.610487
_cell_angle_alpha 90.000000
_cell_angle_beta 90.000000
_cell_angle_gamma 90.000000
_cell_volume 1333.402937
_symmetry_space_group_name_H-M "I 21 21 21"
_symmetry_group_IT_number 24
_symmetry_cell_setting 'orthorhombic'
loop_
_space_group_symop_operation_xyz
x,y,z
-x,1/2-y,z
x,-y,1/2-z
1/2-x,y,-z
1/2+x,1/2+y,1/2+z
1/2-x,-y,1/2+z
1/2+x,1/2-y,-z
-x,1/2+y,1/2-z
loop_
_atom_site_type_symbol
_atom_site_label
_atom_site_fract_x
_atom_site_fract_y
_atom_site_fract_z
Si Si1 0.576779 0.462281 0.463109
Si Si2 0.162401 0.130009 0.557060
Si Si3 0.706416 0.129334 0.940539
Si Si4 0.034717 0.548574 0.537787
O O1 0.573460 0.500000 0.250000
O O2 0.618612 0.355378 0.504275
O O3 0.569919 0.764673 0.522230
O O4 0.544636 0.250245 0.525480
O O5 0.186421 0.915506 0.447300
O O6 0.161558 0.000000 0.750000
O O7 0.182777 0.414857 0.554819
O O8 0.705872 0.000000 0.750000
O O9 0.750000 0.155473 0.000000
O O10 0.032234 0.500000 0.750000
O O11 0.000000 0.750000 0.494522
#
# Coordination Sequence:
#
# PCOD9332696 Si02
#       4
#     8   8   8   8
#     4   9  18  29  46  72 107 151 194 234 288 350
#     4  11  22  40  62  87 121 162 203 248 304 365
#     4  12  25  42  63  90 121 156 201 251 306 364
#     4  10  16  25  41  69 109 153 191 231 286 349
#
# _framework density 23.998747000000002
#
# number of rings (size 3 to 8) (size 9 to 14) (size 15 to 20)
#    0.000    1.500    0.000    8.250    0.000    4.000 
#    0.000    0.000    0.000    0.000    0.000    0.000 
#    0.000   56.000    0.000    5.000    0.000    0.000 
#
# Total GULP energy -89394.766411 kJ/mol
# GULP energy per Si atom -5587.172901 kJ/mol
# Density = 2.394412 g / cm^3
# Si number density = 23.998747 Si / 1000 Ang^3
#
#
#
# Elastic Constant Matrix: (Units=GPa)
#
#
# Indices 1 2 3 4 5 6 
#
# 1 153.2626 63.3801 4.9787 0.0000 0.0000 0.0000
# 2 63.3801 178.3602 -0.0952 0.0000 0.0000 0.0000
# 3 4.9787 -0.0952 54.2130 0.0000 0.0000 0.0000
# 4 0.0000 0.0000 0.0000 -11.7606 0.0000 0.0000
# 5 0.0000 0.0000 0.0000 0.0000 20.3964 0.0000
# 6 0.0000 0.0000 0.0000 0.0000 0.0000 16.4389
#
#
#
# Elastic Compliance Matrix: (Units=1/GPa)
#
#
# Indices 1 2 3 4 5 6 
#
# 1 0.007676 -0.002728 -0.000710 0.000000 0.000000 0.000000
# 2 -0.002728 0.006576 0.000262 0.000000 0.000000 0.000000
# 3 -0.000710 0.000262 0.018511 0.000000 0.000000 0.000000
# 4 0.000000 0.000000 0.000000 -0.085030 0.000000 0.000000
# 5 0.000000 0.000000 0.000000 0.000000 0.049028 0.000000
# 6 0.000000 0.000000 0.000000 0.000000 0.000000 0.060831
#
#
# Mechanical properties :
#
#
# Convention : Reuss Voigt Hill
#
# Bulk Modulus (GPa) = 37.86129 58.04034 47.95082
# Shear Modulus (GPa) = 68.72965 26.18642 47.45804
#
# Velocity S-wave (km/s) = 5.35733 3.30685 4.45176
# Velocity P-wave (km/s) = 7.35382 6.23038 6.81529
#
# Compressibility (1/GPa) = 0.02641220
#
# Stress axis : x y z
#
# Youngs Moduli (GPa) = 130.27715 152.06426 54.02073
#
# Poissons Ratio (x) = 0.41483 0.03834
# Poissons Ratio (y) = 0.35540 -0.01416
# Poissons Ratio (z) = 0.09246 -0.03985
#
# Static dielectric constant tensor:
#      x y z
#    x 1.973240 0.000000 0.000000 
#    y 0.000000 1.826650 0.000000 
#    z 0.000000 0.000000 2.005090 
# 
# From -- ./inp_files/16626.got.cif
#   From: 2010.05.17/outbox.cif.g08.bks.cpg/sg24_9_cif.got.tgz:16626.got - 2010.06.04 00:33:39.
