data_PCOD9332742
_publ_section_title
;
Structure prediction by ZEFSAII (Michael W. Deem and Ramdas Pophale) SiO2 
 PCOD9332742
Probable space group: I 21 21 21
;
_chemical_formula_sum "Si O2"
_cell_formula_units_Z 52
_cell_length_a 18.814624
_cell_length_b 17.220203
_cell_length_c 7.415742
_cell_angle_alpha 90.000000
_cell_angle_beta 90.000000
_cell_angle_gamma 90.000000
_cell_volume 2402.638447
_symmetry_space_group_name_H-M "I 21 21 21"
_symmetry_group_IT_number 24
_symmetry_cell_setting 'orthorhombic'
loop_
_space_group_symop_operation_xyz
x,y,z
-x,1/2-y,z
x,-y,1/2-z
1/2-x,y,-z
1/2+x,1/2+y,1/2+z
1/2-x,-y,1/2+z
1/2+x,1/2-y,-z
-x,1/2+y,1/2-z
loop_
_atom_site_type_symbol
_atom_site_label
_atom_site_fract_x
_atom_site_fract_y
_atom_site_fract_z
Si Si1 0.530505 0.665305 0.039855
Si Si2 0.378552 0.259953 0.946867
Si Si3 0.277772 0.500000 0.250000
Si Si4 0.167992 0.234532 0.467437
Si Si5 0.541797 0.000000 0.750000
Si Si6 0.250000 0.364666 0.000000
Si Si7 0.109480 0.596864 0.962192
Si Si8 0.017639 0.138527 0.105421
O O1 0.500000 0.750000 0.086526
O O2 0.615116 0.672141 0.061506
O O3 0.525483 0.656972 0.820655
O O4 0.470688 0.607579 0.120576
O O5 0.347961 0.243434 0.746236
O O6 0.415809 0.177620 0.996791
O O7 0.446070 0.317394 0.950349
O O8 0.315784 0.307677 0.041589
O O9 0.238505 0.425836 0.163544
O O10 0.333295 0.537344 0.110698
O O11 0.250000 0.218670 0.500000
O O12 0.145061 0.319196 0.538447
O O13 0.494186 0.953607 0.605138
O O14 0.590612 0.063697 0.657834
#
# Coordination Sequence:
#
# PCOD9332742 Si02
#       8
#     8   8   4   8   4   4   8   8
#     4   8  13  29  52  76  96 134 185 225 252 315
#     4  10  18  35  53  77 112 146 187 225 273 335
#     4  12  28  35  52  80 119 156 184 230 292 345
#     4  10  17  29  55  80 106 138 178 226 271 327
#     4  10  16  31  64  86  99 134 192 246 276 319
#     4  12  28  38  52  82 122 154 188 228 296 352
#     4  10  20  34  52  79 110 141 184 226 278 331
#     4   9  15  30  57  82 101 138 190 233 260 329
#
# _framework density 21.642873000000002
#
# number of rings (size 3 to 8) (size 9 to 14) (size 15 to 20)
#    0.000    2.154    6.154    1.846    3.231    0.615 
#    0.000    0.000   30.462    0.000   18.000    1.077 
#    0.000    0.000    0.000    0.000    0.000    0.000 
#
# Total GULP energy -144774.803488 kJ/mol
# GULP energy per Si atom -5568.261673 kJ/mol
# Density = 2.159361 g / cm^3
# Si number density = 21.642873 Si / 1000 Ang^3
#
#
#
# Elastic Constant Matrix: (Units=GPa)
#
#
# Indices 1 2 3 4 5 6 
#
# 1 169.0778 43.8143 8.6354 0.0000 0.0000 0.0000
# 2 43.8143 60.0440 5.0477 0.0000 0.0000 0.0000
# 3 8.6354 5.0477 33.5392 0.0000 0.0000 0.0000
# 4 0.0000 0.0000 0.0000 13.1816 0.0000 0.0000
# 5 0.0000 0.0000 0.0000 0.0000 10.6149 0.0000
# 6 0.0000 0.0000 0.0000 0.0000 0.0000 16.2739
#
#
#
# Elastic Compliance Matrix: (Units=1/GPa)
#
#
# Indices 1 2 3 4 5 6 
#
# 1 0.007333 -0.005259 -0.001097 0.000000 0.000000 0.000000
# 2 -0.005259 0.020639 -0.001752 0.000000 0.000000 0.000000
# 3 -0.001097 -0.001752 0.030362 0.000000 0.000000 0.000000
# 4 0.000000 0.000000 0.000000 0.075863 0.000000 0.000000
# 5 0.000000 0.000000 0.000000 0.000000 0.094207 0.000000
# 6 0.000000 0.000000 0.000000 0.000000 0.000000 0.061448
#
#
# Mechanical properties :
#
#
# Convention : Reuss Voigt Hill
#
# Bulk Modulus (GPa) = 23.74234 41.96176 32.85205
# Shear Modulus (GPa) = 15.61973 21.69166 18.65570
#
# Velocity S-wave (km/s) = 2.68937 3.16927 2.93913
# Velocity P-wave (km/s) = 4.54285 5.72911 5.17012
#
# Compressibility (1/GPa) = 0.04211884
#
# Stress axis : x y z
#
# Youngs Moduli (GPa) = 136.36588 48.45153 32.93600
#
# Poissons Ratio (x) = 0.25480 0.03612
# Poissons Ratio (y) = 0.71713 0.05771
# Poissons Ratio (z) = 0.14954 0.08490
#
# Static dielectric constant tensor:
#      x y z
#    x 1.827760 0.000000 0.000000 
#    y 0.000000 1.839560 0.000000 
#    z 0.000000 0.000000 1.955150 
# 
# From -- ./inp_files/14436.got.cif
#   From: 2010.05.17/outbox.cif.g08.bks.cpg/sg24_8_cif.got.tgz:14436.got - 2010.06.04 00:33:39.
