data_PCOD9332759
_publ_section_title
;
Structure prediction by ZEFSAII (Michael W. Deem and Ramdas Pophale) SiO2 
 PCOD9332759
Probable space group: I 21 21 21
;
_chemical_formula_sum "Si O2"
_cell_formula_units_Z 32
_cell_length_a 11.746499
_cell_length_b 10.049236
_cell_length_c 10.497091
_cell_angle_alpha 90.000000
_cell_angle_beta 90.000000
_cell_angle_gamma 90.000000
_cell_volume 1239.111688
_symmetry_space_group_name_H-M "I 21 21 21"
_symmetry_group_IT_number 24
_symmetry_cell_setting 'orthorhombic'
loop_
_space_group_symop_operation_xyz
x,y,z
-x,1/2-y,z
x,-y,1/2-z
1/2-x,y,-z
1/2+x,1/2+y,1/2+z
1/2-x,-y,1/2+z
1/2+x,1/2-y,-z
-x,1/2+y,1/2-z
loop_
_atom_site_type_symbol
_atom_site_label
_atom_site_fract_x
_atom_site_fract_y
_atom_site_fract_z
Si Si1 0.250000 0.498176 0.000000
Si Si2 0.321790 0.277642 0.349092
Si Si3 0.396430 0.842738 0.874090
Si Si4 0.003324 0.096173 0.010909
Si Si5 0.992266 0.000000 0.750000
O O1 0.259637 0.596510 0.881157
O O2 0.131055 0.428770 0.989904
O O3 0.371180 0.212561 0.479518
O O4 0.224391 0.176384 0.301057
O O5 0.421111 0.364843 0.284179
O O6 0.500000 0.750000 0.827063
O O7 0.441170 0.992842 0.891697
O O8 0.000000 0.250000 0.040455
O O9 0.057379 0.052403 0.874403
#
# Coordination Sequence:
#
# PCOD9332759 Si02
#       5
#     4   8   8   8   4
#     4   8  16  34  48  80 108 144 190 228 288 348
#     4   9  18  31  58  82 114 149 197 240 293 363
#     4  10  16  34  56  81 104 160 205 222 290 385
#     4  11  22  32  58  86 118 149 195 255 300 355
#     4  10  20  34  52  92 122 144 188 262 312 332
#
# _framework density 25.824953000000001
#
# number of rings (size 3 to 8) (size 9 to 14) (size 15 to 20)
#    0.000    2.500    7.500    0.000    3.500    2.000 
#    0.000    0.000    0.000    6.000    0.000    0.000 
#    0.000    0.000    0.000    0.000    0.000    0.000 
#
# Total GULP energy -89070.626078 kJ/mol
# GULP energy per Si atom -5566.914130 kJ/mol
# Density = 2.576617 g / cm^3
# Si number density = 25.824953 Si / 1000 Ang^3
#
#
#
# Elastic Constant Matrix: (Units=GPa)
#
#
# Indices 1 2 3 4 5 6 
#
# 1 81.4392 64.6022 1.8938 0.0000 0.0000 0.0000
# 2 64.6022 220.3769 37.3571 0.0000 0.0000 0.0000
# 3 1.8938 37.3571 86.3934 0.0000 0.0000 0.0000
# 4 0.0000 0.0000 0.0000 -5.5914 0.0000 0.0000
# 5 0.0000 0.0000 0.0000 0.0000 21.4507 0.0000
# 6 0.0000 0.0000 0.0000 0.0000 0.0000 44.6928
#
#
#
# Elastic Compliance Matrix: (Units=1/GPa)
#
#
# Indices 1 2 3 4 5 6 
#
# 1 0.016266 -0.005080 0.001840 0.000000 0.000000 0.000000
# 2 -0.005080 0.006483 -0.002692 0.000000 0.000000 0.000000
# 3 0.001840 -0.002692 0.012699 0.000000 0.000000 0.000000
# 4 0.000000 0.000000 0.000000 -0.178847 0.000000 0.000000
# 5 0.000000 0.000000 0.000000 0.000000 0.046619 0.000000
# 6 0.000000 0.000000 0.000000 0.000000 0.000000 0.022375
#
#
# Mechanical properties :
#
#
# Convention : Reuss Voigt Hill
#
# Bulk Modulus (GPa) = 42.40173 66.21286 54.30730
# Shear Modulus (GPa) = -91.44184 31.06750 -30.18717
#
# Velocity S-wave (km/s) = -5.95695 3.47220 -3.42265
# Velocity P-wave (km/s) = 5.55509 6.46294 2.33566
#
# Compressibility (1/GPa) = 0.02358394
#
# Stress axis : x y z
#
# Youngs Moduli (GPa) = 61.47676 154.24259 78.74829
#
# Poissons Ratio (x) = 0.78360 -0.14491
# Poissons Ratio (y) = 0.31232 0.21200
# Poissons Ratio (z) = -0.11313 0.41523
#
# Static dielectric constant tensor:
#      x y z
#    x 2.129060 0.000000 0.000000 
#    y 0.000000 2.093220 0.000000 
#    z 0.000000 0.000000 2.192580 
# 
# From -- ./inp_files/12111.got.cif
#   From: 2010.05.17/outbox.cif.g08.bks.cpg/sg24_7_cif.got.tgz:12111.got - 2010.06.04 00:33:39.
