data_PCOD9332988
_publ_section_title
;
Structure prediction by ZEFSAII (Michael W. Deem and Ramdas Pophale) SiO2 
 PCOD9332988
Probable space group: I 21 21 21
;
_chemical_formula_sum "Si O2"
_cell_formula_units_Z 56
_cell_length_a 25.997708
_cell_length_b 7.511203
_cell_length_c 11.727036
_cell_angle_alpha 90.000000
_cell_angle_beta 90.000000
_cell_angle_gamma 90.000000
_cell_volume 2289.985959
_symmetry_space_group_name_H-M "I 21 21 21"
_symmetry_group_IT_number 24
_symmetry_cell_setting 'orthorhombic'
loop_
_space_group_symop_operation_xyz
x,y,z
-x,1/2-y,z
x,-y,1/2-z
1/2-x,y,-z
1/2+x,1/2+y,1/2+z
1/2-x,-y,1/2+z
1/2+x,1/2-y,-z
-x,1/2+y,1/2-z
loop_
_atom_site_type_symbol
_atom_site_label
_atom_site_fract_x
_atom_site_fract_y
_atom_site_fract_z
Si Si1 0.344673 0.960347 0.595675
Si Si2 0.554471 0.688086 0.583603
Si Si3 0.598635 0.020942 0.084937
Si Si4 0.307752 0.660412 0.955967
Si Si5 0.510845 0.461587 0.130206
Si Si6 0.341177 0.171737 0.171072
Si Si7 0.764812 0.180822 0.134890
O O1 0.333584 0.166724 0.595138
O O2 0.398322 0.896586 0.647451
O O3 0.342274 0.899014 0.460495
O O4 0.300805 0.847038 0.655298
O O5 0.500000 0.750000 0.634813
O O6 0.578978 0.864284 0.524640
O O7 0.541900 0.536018 0.487000
O O8 0.544062 0.936252 0.122923
O O9 0.616073 0.173572 0.174393
O O10 0.649824 0.914309 0.047309
O O11 0.294966 0.505039 0.866048
O O12 0.250000 0.710070 0.000000
O O13 0.500000 0.250000 0.133873
O O14 0.537077 0.500000 0.250000
O O15 0.288343 0.278018 0.197356
O O16 0.345764 0.000000 0.250000
O O17 0.750000 0.185328 0.000000
#
# Coordination Sequence:
#
# PCOD9332988 Si02
#       7
#     8   8   8   8   8   8   8
#     4  10  19  30  51  71  87 133 176 205 256 319
#     4   8  16  31  45  61  90 123 164 215 251 287
#     4   9  17  29  43  63  88 128 164 210 253 291
#     4  11  17  29  52  68  92 122 175 215 260 306
#     4   9  19  30  42  57  91 129 165 206 254 288
#     4  10  18  31  47  68  99 132 167 216 264 312
#     4   9  16  32  48  64  94 125 165 215 263 301
#
# _framework density 24.454298999999999
#
# number of rings (size 3 to 8) (size 9 to 14) (size 15 to 20)
#    0.000    2.857    5.714    1.286    0.000    7.429 
#    0.000    2.143    0.000    0.000    0.000    0.000 
#    0.000    0.000    0.000   10.286    0.000    0.286 
#
# Total GULP energy -156198.219163 kJ/mol
# GULP energy per Si atom -5578.507827 kJ/mol
# Density = 2.439864 g / cm^3
# Si number density = 24.454299 Si / 1000 Ang^3
#
#
#
# Elastic Constant Matrix: (Units=GPa)
#
#
# Indices 1 2 3 4 5 6 
#
# 1 177.0070 38.4905 -6.3829 0.0000 0.0000 0.0000
# 2 38.4905 101.6546 -12.4115 0.0000 0.0000 0.0000
# 3 -6.3829 -12.4115 45.7461 0.0000 0.0000 0.0000
# 4 0.0000 0.0000 0.0000 -2.0937 0.0000 0.0000
# 5 0.0000 0.0000 0.0000 0.0000 0.9954 0.0000
# 6 0.0000 0.0000 0.0000 0.0000 0.0000 25.9708
#
#
#
# Elastic Compliance Matrix: (Units=1/GPa)
#
#
# Indices 1 2 3 4 5 6 
#
# 1 0.006159 -0.002303 0.000234 0.000000 0.000000 0.000000
# 2 -0.002303 0.011036 0.002673 0.000000 0.000000 0.000000
# 3 0.000234 0.002673 0.022618 0.000000 0.000000 0.000000
# 4 0.000000 0.000000 0.000000 -0.477623 0.000000 0.000000
# 5 0.000000 0.000000 0.000000 0.000000 1.004645 0.000000
# 6 0.000000 0.000000 0.000000 0.000000 0.000000 0.038505
#
#
# Mechanical properties :
#
#
# Convention : Reuss Voigt Hill
#
# Bulk Modulus (GPa) = 24.37849 40.42222 32.40035
# Shear Modulus (GPa) = 8.09318 25.28859 16.69088
#
# Velocity S-wave (km/s) = 1.82118 3.21926 2.61537
# Velocity P-wave (km/s) = 3.79643 5.51214 4.73269
#
# Compressibility (1/GPa) = 0.04101977
#
# Stress axis : x y z
#
# Youngs Moduli (GPa) = 162.36887 90.61496 44.21323
#
# Poissons Ratio (x) = 0.20872 -0.01036
# Poissons Ratio (y) = 0.37399 -0.11817
# Poissons Ratio (z) = -0.03806 -0.24219
#
# Static dielectric constant tensor:
#      x y z
#    x 1.985630 0.000000 0.000000 
#    y 0.000000 1.951520 0.000000 
#    z 0.000000 0.000000 2.109500 
# 
# From -- ./inp_files/31562.got.cif
#   From: 2010.05.17/outbox.cif.g08.bks.cpg/sg24_16_cif.got.tgz:31562.got - 2010.06.04 00:33:39.
