data_PCOD9332963
_publ_section_title
;
Structure prediction by ZEFSAII (Michael W. Deem and Ramdas Pophale) SiO2 
 PCOD9332963
Probable space group: I 21 21 21
;
_chemical_formula_sum "Si O2"
_cell_formula_units_Z 48
_cell_length_a 14.218924
_cell_length_b 12.720950
_cell_length_c 11.829879
_cell_angle_alpha 90.000000
_cell_angle_beta 90.000000
_cell_angle_gamma 90.000000
_cell_volume 2139.767471
_symmetry_space_group_name_H-M "I 21 21 21"
_symmetry_group_IT_number 24
_symmetry_cell_setting 'orthorhombic'
loop_
_space_group_symop_operation_xyz
x,y,z
-x,1/2-y,z
x,-y,1/2-z
1/2-x,y,-z
1/2+x,1/2+y,1/2+z
1/2-x,-y,1/2+z
1/2+x,1/2-y,-z
-x,1/2+y,1/2-z
loop_
_atom_site_type_symbol
_atom_site_label
_atom_site_fract_x
_atom_site_fract_y
_atom_site_fract_z
Si Si1 0.000000 0.250000 0.929722
Si Si2 0.640627 0.000000 0.250000
Si Si3 0.875132 0.310835 0.263044
Si Si4 0.858432 0.035050 0.498758
Si Si5 0.035477 0.389639 0.141635
Si Si6 0.337528 0.251254 0.247951
Si Si7 0.142763 0.784692 0.993275
O O1 0.090510 0.228787 0.852403
O O2 0.026549 0.341291 0.016328
O O3 0.597942 0.993186 0.122497
O O4 0.682131 0.878886 0.249859
O O5 0.911783 0.197531 0.217150
O O6 0.763485 0.305108 0.244621
O O7 0.903794 0.328536 0.393965
O O8 0.930813 0.394899 0.189039
O O9 0.750000 0.995311 0.500000
O O10 0.855127 0.159764 0.487796
O O11 0.907289 0.992769 0.385902
O O12 0.387248 0.208889 0.363423
O O13 0.250000 0.823906 0.000000
#
# Coordination Sequence:
#
# PCOD9332963 Si02
#       7
#     4   4   8   8   8   8   8
#     4  10  20  30  44  76 104 140 188 206 278 330
#     4  10  18  30  52  76 108 142 172 234 276 334
#     4   9  19  33  46  73 113 138 180 223 267 338
#     4  10  18  30  51  80 113 144 180 221 286 336
#     4  10  21  30  47  74 112 149 179 215 272 336
#     4  10  18  32  53  74 108 141 180 227 276 335
#     4   8  17  31  51  78 104 144 172 218 291 333
#
# _framework density 22.432342999999999
#
# number of rings (size 3 to 8) (size 9 to 14) (size 15 to 20)
#    0.000    2.667    1.667    2.000    0.000    4.000 
#    0.000    0.000    0.000    0.000    0.000    4.667 
#    0.000    0.000    0.000    0.000    0.000    0.000 
#
# Total GULP energy -133610.678346 kJ/mol
# GULP energy per Si atom -5567.111598 kJ/mol
# Density = 2.238129 g / cm^3
# Si number density = 22.432343 Si / 1000 Ang^3
#
#
#
# Elastic Constant Matrix: (Units=GPa)
#
#
# Indices 1 2 3 4 5 6 
#
# 1 76.4064 -11.4961 34.6844 0.0000 0.0000 0.0000
# 2 -11.4961 7.8172 -0.0430 0.0000 0.0000 0.0000
# 3 34.6844 -0.0430 162.2563 0.0000 0.0000 0.0000
# 4 0.0000 0.0000 0.0000 26.3976 0.0000 0.0000
# 5 0.0000 0.0000 0.0000 0.0000 113.5564 0.0000
# 6 0.0000 0.0000 0.0000 0.0000 0.0000 4.5523
#
#
#
# Elastic Compliance Matrix: (Units=1/GPa)
#
#
# Indices 1 2 3 4 5 6 
#
# 1 0.019189 0.028198 -0.004094 0.000000 0.000000 0.000000
# 2 0.028198 0.169359 -0.005983 0.000000 0.000000 0.000000
# 3 -0.004094 -0.005983 0.007037 0.000000 0.000000 0.000000
# 4 0.000000 0.000000 0.000000 0.037882 0.000000 0.000000
# 5 0.000000 0.000000 0.000000 0.000000 0.008806 0.000000
# 6 0.000000 0.000000 0.000000 0.000000 0.000000 0.219670
#
#
# Mechanical properties :
#
#
# Convention : Reuss Voigt Hill
#
# Bulk Modulus (GPa) = 4.31359 32.53005 18.42182
# Shear Modulus (GPa) = 9.94081 43.79024 26.86552
#
# Velocity S-wave (km/s) = 2.10739 4.42305 3.46443
# Velocity P-wave (km/s) = 2.80153 6.37318 4.92270
#
# Compressibility (1/GPa) = 0.23182569
#
# Stress axis : x y z
#
# Youngs Moduli (GPa) = 52.11265 5.90462 142.11109
#
# Poissons Ratio (x) = -0.16650 0.58187
# Poissons Ratio (y) = -1.46945 0.85021
# Poissons Ratio (z) = 0.21337 0.03533
#
# Static dielectric constant tensor:
#      x y z
#    x 1.894900 0.000000 0.000000 
#    y 0.000000 1.758610 0.000000 
#    z 0.000000 0.000000 1.879240 
# 
# From -- ./inp_files/20790.got.cif
#   From: 2010.05.17/outbox.cif.g08.bks.cpg/sg24_11_cif.got.tgz:20790.got - 2010.06.04 00:33:39.
