data_PCOD9332428
_publ_section_title
;
Structure prediction by ZEFSAII (Michael W. Deem and Ramdas Pophale) SiO2 
 PCOD9332428
Probable space group: I 2 2 2
;
_chemical_formula_sum "Si O2"
_cell_formula_units_Z 28
_cell_length_a 9.366595
_cell_length_b 18.018295
_cell_length_c 7.280282
_cell_angle_alpha 90.000000
_cell_angle_beta 90.000000
_cell_angle_gamma 90.000000
_cell_volume 1228.693716
_symmetry_space_group_name_H-M "I 2 2 2"
_symmetry_group_IT_number 23
_symmetry_cell_setting 'orthorhombic'
loop_
_space_group_symop_operation_xyz
x,y,z
-x,-y,z
x,-y,-z
-x,y,-z
1/2+x,1/2+y,1/2+z
1/2-x,1/2-y,1/2+z
1/2+x,1/2-y,1/2-z
1/2-x,1/2+y,1/2-z
loop_
_atom_site_type_symbol
_atom_site_label
_atom_site_fract_x
_atom_site_fract_y
_atom_site_fract_z
Si Si1 0.486082 0.414935 0.780442
Si Si2 0.000000 0.638871 0.000000
Si Si3 0.212984 0.318090 0.683883
Si Si4 0.286183 0.846202 0.224723
O O1 0.500000 0.500000 0.721687
O O2 0.338353 0.375957 0.730096
O O3 0.624066 0.372831 0.705425
O O4 0.500000 0.411766 0.000000
O O5 0.907702 0.678920 0.840783
O O6 0.121835 0.603450 0.866527
O O7 0.278616 0.235697 0.686330
O O8 0.157592 0.337395 0.481286
#
# Coordination Sequence:
#
# PCOD9332428 Si02
#       4
#     8   4   8   8
#     4  11  24  47  75 103 141 188 237 290 347 419
#     4  12  24  42  63 102 131 180 230 278 360 392
#     4  12  24  43  71 100 142 183 235 292 349 414
#     4  12  24  43  71 100 142 183 235 292 349 414
#
# _framework density 22.788430000000002
#
# number of rings (size 3 to 8) (size 9 to 14) (size 15 to 20)
#    0.000    0.286    5.714    3.429    0.000    2.286 
#    0.000    2.857    0.000    3.429    0.000    0.000 
#    0.000    0.000    0.000    0.000    0.000    0.000 
#
# Total GULP energy -78223.235235 kJ/mol
# GULP energy per Si atom -5587.373945 kJ/mol
# Density = 2.273656 g / cm^3
# Si number density = 22.788430 Si / 1000 Ang^3
#
#
#
# Elastic Constant Matrix: (Units=GPa)
#
#
# Indices 1 2 3 4 5 6 
#
# 1 138.5786 28.8245 43.2911 0.0000 0.0000 0.0000
# 2 28.8245 88.1939 -2.4675 0.0003 -0.0001 -0.0001
# 3 43.2911 -2.4675 188.5014 0.0013 -0.0003 -0.0002
# 4 0.0000 0.0003 0.0013 11.4618 -0.0001 -0.0001
# 5 0.0000 -0.0001 -0.0003 -0.0001 47.3580 0.0001
# 6 0.0000 -0.0001 -0.0002 -0.0001 0.0001 26.2709
#
#
#
# Elastic Compliance Matrix: (Units=1/GPa)
#
#
# Indices 1 2 3 4 5 6 
#
# 1 0.008415 -0.002805 -0.001969 0.000000 0.000000 0.000000
# 2 -0.002805 0.012278 0.000805 0.000000 0.000000 0.000000
# 3 -0.001969 0.000805 0.005768 -0.000001 0.000000 0.000000
# 4 0.000000 0.000000 -0.000001 0.087247 0.000000 0.000000
# 5 0.000000 0.000000 0.000000 0.000000 0.021116 0.000000
# 6 0.000000 0.000000 0.000000 0.000000 0.000000 0.038065
#
#
# Mechanical properties :
#
#
# Convention : Reuss Voigt Hill
#
# Bulk Modulus (GPa) = 53.99141 61.61891 57.80516
# Shear Modulus (GPa) = 26.73785 40.05986 33.39885
#
# Velocity S-wave (km/s) = 3.42907 4.19728 3.83248
# Velocity P-wave (km/s) = 6.27869 7.11251 6.70857
#
# Compressibility (1/GPa) = 0.01852147
#
# Stress axis : x y z
#
# Youngs Moduli (GPa) = 118.83805 81.44625 173.37638
#
# Poissons Ratio (x) = 0.22848 0.34142
# Poissons Ratio (y) = 0.33338 -0.13957
# Poissons Ratio (z) = 0.23402 -0.06556
#
# Static dielectric constant tensor:
#      x y z
#    x 1.882450 0.000000 0.000000 
#    y 0.000000 1.788890 0.000000 
#    z 0.000000 0.000000 1.909270 
# 
# From -- ./inp_files/6444.got.cif
#   From: 2010.05.17/outbox.cif.g08.bks.cpg/sg23_4_cif.got.tgz:6444.got - 2010.06.04 12:02:01.
