data_PCOD9332656
_publ_section_title
;
Structure prediction by ZEFSAII (Michael W. Deem and Ramdas Pophale) SiO2 
 PCOD9332656
Probable space group: I 2 2 2
;
_chemical_formula_sum "Si O2"
_cell_formula_units_Z 20
_cell_length_a 9.000000
_cell_length_b 24.000000
_cell_length_c 9.000000
_cell_angle_alpha 90.000000
_cell_angle_beta 90.000000
_cell_angle_gamma 90.000000
_cell_volume 1944.000000
_symmetry_space_group_name_H-M "I 2 2 2"
_symmetry_group_IT_number 23
_symmetry_cell_setting 'orthorhombic'
loop_
_space_group_symop_operation_xyz
x,y,z
-x,-y,z
x,-y,-z
-x,y,-z
1/2+x,1/2+y,1/2+z
1/2-x,1/2-y,1/2+z
1/2+x,1/2-y,1/2-z
1/2-x,1/2+y,1/2-z
loop_
_atom_site_type_symbol
_atom_site_label
_atom_site_fract_x
_atom_site_fract_y
_atom_site_fract_z
Si Si1 0.035737 0.125852 0.177752
Si Si2 0.731005 0.174862 0.299864
Si Si3 0.948947 0.569488 0.173439
Si Si4 0.150963 0.780207 0.599531
Si Si5 0.732903 0.976667 0.170179
O O1 0.128900 0.173274 0.269539
O O2 0.126091 0.066183 0.193374
O O3 0.876130 0.137681 0.256321
O O4 0.000000 0.133270 0.000000
O O5 0.596001 0.132506 0.300550
O O6 0.743801 0.198054 0.467703
O O7 0.707637 0.224730 0.182306
O O8 0.808222 0.529390 0.220313
O O9 0.083460 0.557378 0.288146
O O10 0.000000 0.561389 0.000000
O O11 0.000000 0.770714 0.500000
O O12 0.739203 0.000000 0.000000
#
# Coordination Sequence:
#
# PCOD9332656 Si02
#       5
#     8   8   8   8   8
#     4  11  24  42  66  96 133 174 220 275 334 395
#     4  11  24  43  69  98 134 177 224 275 330 395
#     4  11  24  42  68  97 129 174 221 269 328 397
#     4  10  24  43  66 101 137 176 222 274 335 396
#     4  11  24  42  65  96 131 170 220 271 332 397
#
# _framework density 10.288066000000001
#
# number of rings (size 3 to 8) (size 9 to 14) (size 15 to 20)
#    0.000    1.200    0.000    6.000    0.000   13.200 
#    0.000    2.000    0.000   13.200    0.000    0.000 
#    0.000    0.000    0.000    0.000    0.000    0.000 
#
# Total GULP energy -111491.514332 kJ/mol
# GULP energy per Si atom -5574.575717 kJ/mol
# Density = 1.026465 g / cm^3
# Si number density = 10.288066 Si / 1000 Ang^3
#
#
#
# Elastic Constant Matrix: (Units=GPa)
#
#
# Indices 1 2 3 4 5 6 
#
# 1 53.9138 62.4258 35.6086 0.0004 -0.0004 -0.0002
# 2 62.4258 154.6127 73.5206 -0.0001 0.0002 0.0000
# 3 35.6086 73.5206 158.3226 0.0019 0.0000 -0.0004
# 4 0.0004 -0.0001 0.0019 39.7025 -0.0001 -0.0002
# 5 -0.0004 0.0002 0.0000 -0.0001 35.2441 0.0008
# 6 -0.0002 0.0000 -0.0004 -0.0002 0.0008 41.3672
#
#
#
# Elastic Compliance Matrix: (Units=1/GPa)
#
#
# Indices 1 2 3 4 5 6 
#
# 1 0.035181 -0.013401 -0.001689 0.000000 0.000001 0.000000
# 2 -0.013401 0.013405 -0.003211 0.000000 0.000000 0.000000
# 3 -0.001689 -0.003211 0.008187 0.000000 0.000000 0.000000
# 4 0.000000 0.000000 0.000000 0.025187 0.000000 0.000000
# 5 0.000001 0.000000 0.000000 0.000000 0.028374 -0.000001
# 6 0.000000 0.000000 0.000000 0.000000 -0.000001 0.024174
#
#
# Mechanical properties :
#
#
# Convention : Reuss Voigt Hill
#
# Bulk Modulus (GPa) = 49.57768 78.88435 64.23102
# Shear Modulus (GPa) = 28.11593 36.28237 32.19915
#
# Velocity S-wave (km/s) = 3.70054 4.20375 3.96015
# Velocity P-wave (km/s) = 6.51197 7.87293 7.22457
#
# Compressibility (1/GPa) = 0.02017037
#
# Stress axis : x y z
#
# Youngs Moduli (GPa) = 28.42449 74.59643 122.13997
#
# Poissons Ratio (x) = 0.99968 0.20635
# Poissons Ratio (y) = 0.38092 0.39220
# Poissons Ratio (z) = 0.04802 0.23953
#
# Static dielectric constant tensor:
#      x y z
#    x 1.795820 0.000000 0.000000 
#    y 0.000000 1.768180 0.000000 
#    z 0.000000 0.000000 1.699960 
# 
# From -- ./inp_files/6916.got.cif
#   From: 2010.05.17/outbox.ucp.g08.bks.cvg/sg23_4_cif.got.tgz:6916.got - 2010.06.11 15:19:07.
