data_PCOD9332263
_publ_section_title
;
Structure prediction by ZEFSAII (Michael W. Deem and Ramdas Pophale) SiO2 
 PCOD9332263
Probable space group: I 2 2 2
;
_chemical_formula_sum "Si O2"
_cell_formula_units_Z 34
_cell_length_a 10.453330
_cell_length_b 9.835184
_cell_length_c 14.823040
_cell_angle_alpha 90.000000
_cell_angle_beta 90.000000
_cell_angle_gamma 90.000000
_cell_volume 1523.963027
_symmetry_space_group_name_H-M "I 2 2 2"
_symmetry_group_IT_number 23
_symmetry_cell_setting 'orthorhombic'
loop_
_space_group_symop_operation_xyz
x,y,z
-x,-y,z
x,-y,-z
-x,y,-z
1/2+x,1/2+y,1/2+z
1/2-x,1/2-y,1/2+z
1/2+x,1/2-y,1/2-z
1/2-x,1/2+y,1/2-z
loop_
_atom_site_type_symbol
_atom_site_label
_atom_site_fract_x
_atom_site_fract_y
_atom_site_fract_z
Si Si1 0.638898 0.428831 0.724385
Si Si2 0.700719 0.843927 0.623103
Si Si3 0.663923 0.081527 0.909894
Si Si4 0.500000 0.000000 0.500000
Si Si5 0.991850 0.342038 0.247844
O O1 0.500000 0.500000 0.715767
O O2 0.694565 0.438180 0.826985
O O3 0.744118 0.492988 0.657064
O O4 0.610175 0.266704 0.710456
O O5 0.760946 0.719809 0.569785
O O6 0.625470 0.786280 0.711558
O O7 0.596091 0.910266 0.559341
O O8 0.543163 0.137985 0.852417
O O9 0.639233 0.000000 0.000000
O O10 0.000000 0.500000 0.218016
#
# Coordination Sequence:
#
# PCOD9332263 Si02
#       5
#     8   8   8   2   8
#     4  11  23  43  70  95 137 180 227 280 354 424
#     4  11  24  43  69 100 131 188 226 285 354 423
#     4  11  25  41  68 104 136 176 239 294 340 411
#     4  12  24  44  68  92 142 168 234 290 348 412
#     4  11  22  44  67  94 135 183 225 273 354 421
#
# _framework density 22.310251000000001
#
# number of rings (size 3 to 8) (size 9 to 14) (size 15 to 20)
#    0.000    0.941    5.882    0.000    3.294    0.941 
#    4.235    0.588    0.000    0.000    0.000    0.000 
#    0.000    0.000    0.000    0.000    0.000    0.000 
#
# Total GULP energy -94698.440838 kJ/mol
# GULP energy per Si atom -5570.496520 kJ/mol
# Density = 2.225947 g / cm^3
# Si number density = 22.310251 Si / 1000 Ang^3
#
#
#
# Elastic Constant Matrix: (Units=GPa)
#
#
# Indices 1 2 3 4 5 6 
#
# 1 111.8236 29.7426 50.9964 0.0000 0.0000 0.0000
# 2 29.7426 97.5525 45.7021 0.0000 0.0000 0.0000
# 3 50.9964 45.7021 115.3058 0.0000 0.0000 0.0000
# 4 0.0000 0.0000 0.0000 33.1969 0.0000 0.0000
# 5 0.0000 0.0000 0.0000 0.0000 25.5694 0.0000
# 6 0.0000 0.0000 0.0000 0.0000 0.0000 35.8001
#
#
#
# Elastic Compliance Matrix: (Units=1/GPa)
#
#
# Indices 1 2 3 4 5 6 
#
# 1 0.011347 -0.001361 -0.004479 0.000000 0.000000 0.000000
# 2 -0.001361 0.012752 -0.004452 0.000000 0.000000 0.000000
# 3 -0.004479 -0.004452 0.012418 0.000000 0.000000 0.000000
# 4 0.000000 0.000000 0.000000 0.030123 0.000000 0.000000
# 5 0.000000 0.000000 0.000000 0.000000 0.039109 0.000000
# 6 0.000000 0.000000 0.000000 0.000000 0.000000 0.027933
#
#
# Mechanical properties :
#
#
# Convention : Reuss Voigt Hill
#
# Bulk Modulus (GPa) = 62.76574 64.17378 63.46976
# Shear Modulus (GPa) = 31.33257 32.12935 31.73096
#
# Velocity S-wave (km/s) = 3.75160 3.79900 3.77538
# Velocity P-wave (km/s) = 6.85275 6.93325 6.89312
#
# Compressibility (1/GPa) = 0.01593226
#
# Stress axis : x y z
#
# Youngs Moduli (GPa) = 88.12611 78.42084 80.52705
#
# Poissons Ratio (x) = 0.10675 0.36069
# Poissons Ratio (y) = 0.11997 0.35852
# Poissons Ratio (z) = 0.39472 0.34914
#
# Static dielectric constant tensor:
#      x y z
#    x 1.939480 0.000000 0.000000 
#    y 0.000000 1.917220 0.000000 
#    z 0.000000 0.000000 1.866650 
# 
# From -- ./inp_files/15355.got.cif
#   From: 2010.05.17/outbox.cif.g08.bks.cpg/sg23_8_cif.got.tgz:15355.got - 2010.06.04 12:02:01.
