data_PCOD9332015
_publ_section_title
;
Structure prediction by ZEFSAII (Michael W. Deem and Ramdas Pophale) SiO2 
 PCOD9332015
Probable space group: I 2 2 2
;
_chemical_formula_sum "Si O2"
_cell_formula_units_Z 44
_cell_length_a 9.475587
_cell_length_b 26.156269
_cell_length_c 6.390221
_cell_angle_alpha 90.000000
_cell_angle_beta 90.000000
_cell_angle_gamma 90.000000
_cell_volume 1583.790730
_symmetry_space_group_name_H-M "I 2 2 2"
_symmetry_group_IT_number 23
_symmetry_cell_setting 'orthorhombic'
loop_
_space_group_symop_operation_xyz
x,y,z
-x,-y,z
x,-y,-z
-x,y,-z
1/2+x,1/2+y,1/2+z
1/2-x,1/2-y,1/2+z
1/2+x,1/2-y,1/2-z
1/2-x,1/2+y,1/2-z
loop_
_atom_site_type_symbol
_atom_site_label
_atom_site_fract_x
_atom_site_fract_y
_atom_site_fract_z
Si Si1 0.882894 0.264587 0.629729
Si Si2 0.854199 0.151632 0.051429
Si Si3 0.720760 0.000000 0.000000
Si Si4 0.319038 0.908370 0.738387
Si Si5 0.860686 0.936954 0.634932
Si Si6 0.107981 0.704038 0.139919
O O1 0.775142 0.311386 0.583676
O O2 0.935668 0.262485 0.359970
O O3 0.779840 0.215806 0.647003
O O4 0.914201 0.284436 0.884906
O O5 0.875035 0.118001 0.256376
O O6 0.817003 0.112764 0.865429
O O7 0.000000 0.179470 0.000000
O O8 0.820054 0.976415 0.817545
O O9 0.634270 0.045668 0.889041
O O10 0.271766 0.932058 0.520364
O O11 0.407165 0.856694 0.699967
O O12 0.000000 0.947245 0.500000
#
# Coordination Sequence:
#
# PCOD9332015 Si02
#       6
#     8   8   4   8   8   8
#     4  12  26  47  75 113 164 213 271 337 408 499
#     4  11  23  45  74 110 158 214 267 332 416 488
#     4  10  26  45  74 115 158 214 276 346 438 488
#     4  11  24  46  74 112 156 211 275 343 415 498
#     4  11  23  42  72 113 160 205 271 343 416 497
#     4  12  27  47  77 116 162 214 280 336 417 502
#
# _framework density 27.78145
#
# number of rings (size 3 to 8) (size 9 to 14) (size 15 to 20)
#    0.000    0.727    3.636    3.273    2.545    2.909 
#    0.000    0.000    0.000   27.273    0.000    0.000 
#    0.000    0.000    0.000    0.000    0.000    0.000 
#
# Total GULP energy -123161.927176 kJ/mol
# GULP energy per Si atom -5598.269417 kJ/mol
# Density = 2.771822 g / cm^3
# Si number density = 27.781450 Si / 1000 Ang^3
#
#
#
# Elastic Constant Matrix: (Units=GPa)
#
#
# Indices 1 2 3 4 5 6 
#
# 1 179.9608 60.3080 85.8220 -0.0008 0.0040 -0.0004
# 2 60.3080 186.6608 72.2051 0.0015 0.0019 -0.0005
# 3 85.8220 72.2051 222.7668 -0.0009 0.0108 0.0009
# 4 -0.0008 0.0015 -0.0009 66.7417 -0.0005 -0.0008
# 5 0.0040 0.0019 0.0108 -0.0005 64.0818 -0.0006
# 6 -0.0004 -0.0005 0.0009 -0.0008 -0.0006 11.9748
#
#
#
# Elastic Compliance Matrix: (Units=1/GPa)
#
#
# Indices 1 2 3 4 5 6 
#
# 1 0.007121 -0.001417 -0.002284 0.000000 0.000000 0.000000
# 2 -0.001417 0.006407 -0.001531 0.000000 0.000000 0.000000
# 3 -0.002284 -0.001531 0.005865 0.000000 -0.000001 -0.000001
# 4 0.000000 0.000000 0.000000 0.014983 0.000000 0.000001
# 5 0.000000 0.000000 -0.000001 0.000000 0.015605 0.000001
# 6 0.000000 0.000000 -0.000001 0.000001 0.000001 0.083508
#
#
# Mechanical properties :
#
#
# Convention : Reuss Voigt Hill
#
# Bulk Modulus (GPa) = 111.99050 114.00652 112.99851
# Shear Modulus (GPa) = 34.02969 53.29655 43.66312
#
# Velocity S-wave (km/s) = 3.50366 4.38473 3.96872
# Velocity P-wave (km/s) = 7.53434 8.17071 7.85897
#
# Compressibility (1/GPa) = 0.00892933
#
# Stress axis : x y z
#
# Youngs Moduli (GPa) = 140.43136 156.07083 170.49958
#
# Poissons Ratio (x) = 0.22118 0.38942
# Poissons Ratio (y) = 0.19902 0.26101
# Poissons Ratio (z) = 0.32075 0.23892
#
# Static dielectric constant tensor:
#      x y z
#    x 2.176540 0.000000 0.000000 
#    y 0.000000 2.110550 0.000000 
#    z 0.000000 0.000000 2.275080 
# 
# From -- ./inp_files/2668.got.cif
#   From: 2010.05.17/outbox.cif.g08.bks.cpg/sg23_2_cif.got.tgz:2668.got - 2010.06.04 12:02:01.
