data_PCOD9332540
_publ_section_title
;
Structure prediction by ZEFSAII (Michael W. Deem and Ramdas Pophale) SiO2 
 PCOD9332540
Probable space group: I 2 2 2
;
_chemical_formula_sum "Si O2"
_cell_formula_units_Z 34
_cell_length_a 32.474061
_cell_length_b 10.154483
_cell_length_c 5.360925
_cell_angle_alpha 90.000000
_cell_angle_beta 90.000000
_cell_angle_gamma 90.000000
_cell_volume 1767.804155
_symmetry_space_group_name_H-M "I 2 2 2"
_symmetry_group_IT_number 23
_symmetry_cell_setting 'orthorhombic'
loop_
_space_group_symop_operation_xyz
x,y,z
-x,-y,z
x,-y,-z
-x,y,-z
1/2+x,1/2+y,1/2+z
1/2-x,1/2-y,1/2+z
1/2+x,1/2-y,1/2-z
1/2-x,1/2+y,1/2-z
loop_
_atom_site_type_symbol
_atom_site_label
_atom_site_fract_x
_atom_site_fract_y
_atom_site_fract_z
Si Si1 0.454695 0.857454 0.892193
Si Si2 0.500000 0.000000 0.500000
Si Si3 0.739124 0.500000 0.500000
Si Si4 0.706119 0.000000 0.500000
Si Si5 0.668351 0.285521 0.484627
Si Si6 0.882898 0.152388 0.482203
O O1 0.467264 0.896702 0.614904
O O2 0.421665 0.747973 0.946337
O O3 0.500000 0.826106 0.000000
O O4 0.441511 0.000000 0.000000
O O5 0.766339 0.491992 0.749769
O O6 0.709738 0.372840 0.474470
O O7 0.679270 0.867761 0.492100
O O8 0.644705 0.329980 0.734448
O O9 0.642267 0.311468 0.233185
O O10 0.895337 0.000000 0.500000
#
# Coordination Sequence:
#
# PCOD9332540 Si02
#       6
#     8   2   4   4   8   8
#     4   9  22  40  69  97 131 170 221 267 325 380
#     4   8  18  42  64 104 124 168 218 286 314 376
#     4  12  22  48  66  96 135 172 213 280 330 402
#     4  12  26  41  74  98 123 176 229 268 332 392
#     4  12  26  44  66 101 134 170 221 273 332 389
#     4  12  25  44  66  95 139 179 211 273 328 386
#
# _framework density 19.232900999999998
#
# number of rings (size 3 to 8) (size 9 to 14) (size 15 to 20)
#    0.000    1.176    2.353    4.235    9.882    0.471 
#    0.000    0.000    0.000    0.000    0.000    0.000 
#    0.000    0.000    0.000    0.000    0.000    0.000 
#
# Total GULP energy -94853.985345 kJ/mol
# GULP energy per Si atom -5579.646197 kJ/mol
# Density = 1.918913 g / cm^3
# Si number density = 19.232901 Si / 1000 Ang^3
#
#
#
# Elastic Constant Matrix: (Units=GPa)
#
#
# Indices 1 2 3 4 5 6 
#
# 1 82.2231 72.6667 52.8864 0.0001 0.0000 0.0001
# 2 72.6667 158.7185 46.9983 -0.0004 -0.0010 0.0001
# 3 52.8864 46.9983 137.6149 0.0008 0.0011 0.0008
# 4 0.0001 -0.0004 0.0008 34.0479 0.0002 0.0005
# 5 0.0000 -0.0010 0.0011 0.0002 41.6775 0.0004
# 6 0.0001 0.0001 0.0008 0.0005 0.0004 54.8052
#
#
#
# Elastic Compliance Matrix: (Units=1/GPa)
#
#
# Indices 1 2 3 4 5 6 
#
# 1 0.024391 -0.009335 -0.006185 0.000000 0.000000 0.000000
# 2 -0.009335 0.010582 -0.000026 0.000000 0.000000 0.000000
# 3 -0.006185 -0.000026 0.009653 0.000000 0.000000 0.000000
# 4 0.000000 0.000000 0.000000 0.029370 0.000000 0.000000
# 5 0.000000 0.000000 0.000000 0.000000 0.023994 0.000000
# 6 0.000000 0.000000 0.000000 0.000000 0.000000 0.018246
#
#
# Mechanical properties :
#
#
# Convention : Reuss Voigt Hill
#
# Bulk Modulus (GPa) = 73.90104 80.40657 77.15381
# Shear Modulus (GPa) = 32.92906 39.83979 36.38443
#
# Velocity S-wave (km/s) = 4.14227 4.55624 4.35418
# Velocity P-wave (km/s) = 7.83489 8.34126 8.09204
#
# Compressibility (1/GPa) = 0.01353161
#
# Stress axis : x y z
#
# Youngs Moduli (GPa) = 40.99888 94.49686 103.59732
#
# Poissons Ratio (x) = 0.88217 0.64079
# Poissons Ratio (y) = 0.38274 0.00274
# Poissons Ratio (z) = 0.25359 0.00250
#
# Static dielectric constant tensor:
#      x y z
#    x 1.636780 0.000000 0.000000 
#    y 0.000000 1.631510 0.000000 
#    z 0.000000 0.000000 1.716930 
# 
# From -- ./inp_files/855.got.cif
#   From: 2010.05.17/outbox.cif.g08.bks.cpg/sg23_1_cif.got.tgz:855.got - 2010.06.04 12:02:01.
