data_PCOD9332624
_publ_section_title
;
Structure prediction by ZEFSAII (Michael W. Deem and Ramdas Pophale) SiO2 
 PCOD9332624
Probable space group: I 2 2 2
;
_chemical_formula_sum "Si O2"
_cell_formula_units_Z 24
_cell_length_a 30.000000
_cell_length_b 9.000000
_cell_length_c 9.000000
_cell_angle_alpha 90.000000
_cell_angle_beta 90.000000
_cell_angle_gamma 90.000000
_cell_volume 2430.000000
_symmetry_space_group_name_H-M "I 2 2 2"
_symmetry_group_IT_number 23
_symmetry_cell_setting 'orthorhombic'
loop_
_space_group_symop_operation_xyz
x,y,z
-x,-y,z
x,-y,-z
-x,y,-z
1/2+x,1/2+y,1/2+z
1/2-x,1/2-y,1/2+z
1/2+x,1/2-y,1/2-z
1/2-x,1/2+y,1/2-z
loop_
_atom_site_type_symbol
_atom_site_label
_atom_site_fract_x
_atom_site_fract_y
_atom_site_fract_z
Si Si1 0.096024 0.663892 0.313671
Si Si2 0.245577 0.178757 0.508600
Si Si3 0.086349 0.675851 0.674497
Si Si4 0.311282 0.307320 0.292939
Si Si5 0.004867 0.829685 0.319253
Si Si6 0.660931 0.598299 0.849246
O O1 0.093253 0.670191 0.494327
O O2 0.093465 0.491027 0.270363
O O3 0.142388 0.727648 0.251131
O O4 0.051870 0.758075 0.271295
O O5 0.288708 0.260519 0.446411
O O6 0.226861 0.225771 0.668573
O O7 0.201719 0.199288 0.405148
O O8 0.253526 0.000000 0.500000
O O9 0.037515 0.729874 0.722325
O O10 0.121800 0.802252 0.715125
O O11 0.321742 0.480199 0.269368
O O12 0.000000 0.832499 0.500000
O O13 0.000000 0.000000 0.268751
O O14 0.647886 0.500000 0.000000
#
# Coordination Sequence:
#
# PCOD9332624 Si02
#       6
#     8   8   8   8   8   8
#     4  10  18  28  45  72 104 145 179 226 283 331
#     4   9  20  36  53  80 107 143 188 238 277 334
#     4  10  17  27  44  70 108 139 182 224 279 344
#     4  10  19  36  56  73 108 148 188 227 283 337
#     4   9  17  25  42  67 102 147 179 215 274 348
#     4   9  17  32  48  68 102 141 180 221 276 330
#
# _framework density 9.8765429999999999
#
# number of rings (size 3 to 8) (size 9 to 14) (size 15 to 20)
#    0.000    2.833    3.333    1.500    2.333    4.667 
#    0.000    0.000    0.000    0.000    0.000    0.000 
#    0.000    9.333    0.000   41.833    0.000    0.000 
#
# Total GULP energy -133788.004199 kJ/mol
# GULP energy per Si atom -5574.500175 kJ/mol
# Density = 0.985406 g / cm^3
# Si number density = 9.876543 Si / 1000 Ang^3
#
#
#
# Elastic Constant Matrix: (Units=GPa)
#
#
# Indices 1 2 3 4 5 6 
#
# 1 126.0721 60.5007 36.3056 0.0000 0.0000 0.0000
# 2 60.5007 82.5252 18.2549 0.0000 0.0000 0.0000
# 3 36.3056 18.2549 8.5807 0.0000 0.0000 0.0000
# 4 0.0000 0.0000 0.0000 13.3966 0.0000 0.0000
# 5 0.0000 0.0000 0.0000 0.0000 14.8034 0.0000
# 6 0.0000 0.0000 0.0000 0.0000 0.0000 32.2883
#
#
#
# Elastic Compliance Matrix: (Units=1/GPa)
#
#
# Indices 1 2 3 4 5 6 
#
# 1 -0.029454 -0.011284 0.148628 0.000000 0.000000 0.000000
# 2 -0.011284 0.018566 0.008244 0.000000 0.000000 0.000000
# 3 0.148628 0.008244 -0.529851 0.000000 0.000000 0.000000
# 4 0.000000 0.000000 0.000000 0.074646 0.000000 0.000000
# 5 0.000000 0.000000 0.000000 0.000000 0.067552 0.000000
# 6 0.000000 0.000000 0.000000 0.000000 0.000000 0.030971
#
#
# Mechanical properties :
#
#
# Convention : Reuss Voigt Hill
#
# Bulk Modulus (GPa) = -4.00700 49.70005 22.84653
# Shear Modulus (GPa) = -6.73915 18.90546 6.08316
#
# Velocity S-wave (km/s) = -1.84908 3.09704 1.75678
# Velocity P-wave (km/s) = 2.56744 6.16475 3.96311
#
# Compressibility (1/GPa) = -0.24956351
#
# Stress axis : x y z
#
# Youngs Moduli (GPa) = -33.95118 53.86107 -1.88732
#
# Poissons Ratio (x) = 0.60776 0.28051
# Poissons Ratio (y) = -0.38310 0.01556
# Poissons Ratio (z) = 5.04608 -0.44402
#
# Static dielectric constant tensor:
#      x y z
#    x 1.697640 0.000000 0.000000 
#    y 0.000000 1.707090 0.000000 
#    z 0.000000 0.000000 1.702570 
# 
# From -- ./inp_files/13349.got.cif
#   From: 2010.05.17/outbox.ucp.g08.bks.cvg/sg23_7_cif.got.tgz:13349.got - 2010.06.11 15:19:07.
