data_PCOD9332149
_publ_section_title
;
Structure prediction by ZEFSAII (Michael W. Deem and Ramdas Pophale) SiO2 
 PCOD9332149
Probable space group: I 2 2 2
;
_chemical_formula_sum "Si O2"
_cell_formula_units_Z 48
_cell_length_a 9.918071
_cell_length_b 13.461154
_cell_length_c 17.680123
_cell_angle_alpha 90.000000
_cell_angle_beta 90.000000
_cell_angle_gamma 90.000000
_cell_volume 2360.449904
_symmetry_space_group_name_H-M "I 2 2 2"
_symmetry_group_IT_number 23
_symmetry_cell_setting 'orthorhombic'
loop_
_space_group_symop_operation_xyz
x,y,z
-x,-y,z
x,-y,-z
-x,y,-z
1/2+x,1/2+y,1/2+z
1/2-x,1/2-y,1/2+z
1/2+x,1/2-y,1/2-z
1/2-x,1/2+y,1/2-z
loop_
_atom_site_type_symbol
_atom_site_label
_atom_site_fract_x
_atom_site_fract_y
_atom_site_fract_z
Si Si1 0.877456 0.074306 0.286973
Si Si2 0.847779 0.033650 0.079225
Si Si3 0.611168 0.076179 0.858745
Si Si4 0.486879 0.275225 0.089540
Si Si5 0.379360 0.935998 0.684946
Si Si6 0.216472 0.777652 0.150185
O O1 0.825524 0.158277 0.225851
O O2 0.931878 0.134566 0.359893
O O3 0.752477 0.004825 0.310185
O O4 0.000000 0.000000 0.261242
O O5 0.839696 0.150693 0.085893
O O6 0.753768 0.979067 0.139294
O O7 0.000000 0.000000 0.084604
O O8 0.788425 0.000000 0.000000
O O9 0.609984 0.179629 0.901733
O O10 0.577375 0.092045 0.770850
O O11 0.500000 0.000000 0.890516
O O12 0.625665 0.238365 0.130797
O O13 0.500000 0.297884 0.000000
O O14 0.347424 0.830612 0.648794
O O15 0.500000 0.000000 0.650295
#
# Coordination Sequence:
#
# PCOD9332149 Si02
#       6
#     8   8   8   8   8   8
#     4  12  25  43  71 105 139 190 243 298 348 432
#     4  11  24  39  62  97 137 172 217 289 363 422
#     4  11  21  39  65  98 132 175 229 284 343 413
#     4  12  26  44  71 106 146 191 237 296 365 440
#     4  11  24  42  68 102 138 177 240 301 346 424
#     4  12  23  43  70 100 138 185 242 293 364 421
#
# _framework density 20.335106
#
# number of rings (size 3 to 8) (size 9 to 14) (size 15 to 20)
#    0.000    0.500    6.667    2.500    0.000    1.667 
#    0.000    0.000    0.000    1.000    0.000    0.000 
#    0.000    0.000    0.000    0.000    0.000    0.000 
#
# Total GULP energy -133963.587392 kJ/mol
# GULP energy per Si atom -5581.816141 kJ/mol
# Density = 2.028882 g / cm^3
# Si number density = 20.335106 Si / 1000 Ang^3
#
#
#
# Elastic Constant Matrix: (Units=GPa)
#
#
# Indices 1 2 3 4 5 6 
#
# 1 123.4770 63.2281 11.9592 0.0000 0.0000 0.0000
# 2 63.2281 173.7205 45.6474 0.0000 0.0000 0.0000
# 3 11.9592 45.6474 90.3248 0.0000 0.0000 0.0000
# 4 0.0000 0.0000 0.0000 -26.2872 0.0000 0.0000
# 5 0.0000 0.0000 0.0000 0.0000 -4.1476 0.0000
# 6 0.0000 0.0000 0.0000 0.0000 0.0000 41.2378
#
#
#
# Elastic Compliance Matrix: (Units=1/GPa)
#
#
# Indices 1 2 3 4 5 6 
#
# 1 0.009981 -0.003789 0.000593 0.000000 0.000000 0.000000
# 2 -0.003789 0.008076 -0.003580 0.000000 0.000000 0.000000
# 3 0.000593 -0.003580 0.012802 0.000000 0.000000 0.000000
# 4 0.000000 0.000000 0.000000 -0.038041 0.000000 0.000000
# 5 0.000000 0.000000 0.000000 0.000000 -0.241106 0.000000
# 6 0.000000 0.000000 0.000000 0.000000 0.000000 0.024250
#
#
# Mechanical properties :
#
#
# Convention : Reuss Voigt Hill
#
# Bulk Modulus (GPa) = 57.77536 69.91018 63.84277
# Shear Modulus (GPa) = -24.42376 19.93980 -2.24198
#
# Velocity S-wave (km/s) = -3.46940 3.13479 -1.05115
# Velocity P-wave (km/s) = 3.52482 6.89610 5.47634
#
# Compressibility (1/GPa) = 0.01730842
#
# Stress axis : x y z
#
# Youngs Moduli (GPa) = 100.18766 123.82479 78.11468
#
# Poissons Ratio (x) = 0.46913 -0.04633
# Poissons Ratio (y) = 0.37958 0.27963
# Poissons Ratio (z) = -0.05943 0.44325
#
# Static dielectric constant tensor:
#      x y z
#    x 1.751670 0.000000 0.000000 
#    y 0.000000 1.712510 0.000000 
#    z 0.000000 0.000000 1.818440 
# 
# From -- ./inp_files/23735.got.cif
#   From: 2010.05.17/outbox.cif.g08.bks.cpg/sg23_12_cif.got.tgz:23735.got - 2010.06.04 12:02:01.
