data_PCOD9332613
_publ_section_title
;
Structure prediction by ZEFSAII (Michael W. Deem and Ramdas Pophale) SiO2 
 PCOD9332613
Probable space group: I 2 2 2
;
_chemical_formula_sum "Si O2"
_cell_formula_units_Z 64
_cell_length_a 21.906505
_cell_length_b 7.438734
_cell_length_c 18.986003
_cell_angle_alpha 90.000000
_cell_angle_beta 90.000000
_cell_angle_gamma 90.000000
_cell_volume 3093.895703
_symmetry_space_group_name_H-M "I 2 2 2"
_symmetry_group_IT_number 23
_symmetry_cell_setting 'orthorhombic'
loop_
_space_group_symop_operation_xyz
x,y,z
-x,-y,z
x,-y,-z
-x,y,-z
1/2+x,1/2+y,1/2+z
1/2-x,1/2-y,1/2+z
1/2+x,1/2-y,1/2-z
1/2-x,1/2+y,1/2-z
loop_
_atom_site_type_symbol
_atom_site_label
_atom_site_fract_x
_atom_site_fract_y
_atom_site_fract_z
Si Si1 0.748760 0.715561 0.918553
Si Si2 0.115228 0.712686 0.419713
Si Si3 0.381896 0.780790 0.417813
Si Si4 0.615194 0.212820 0.080247
Si Si5 0.000009 0.279465 0.669573
Si Si6 0.881869 0.280871 0.082242
Si Si7 0.500001 0.220036 0.668517
Si Si8 0.748788 0.284278 0.918589
O O1 0.683010 0.764428 0.887889
O O2 0.814677 0.776267 0.890545
O O3 0.750519 0.499921 0.919453
O O4 0.746805 0.778910 0.999973
O O5 0.114090 0.786774 0.499970
O O6 0.105352 0.499945 0.425800
O O7 0.183062 0.735301 0.387891
O O8 0.060438 0.781592 0.371806
O O9 0.387885 0.728595 0.500032
O O10 0.439145 0.720623 0.372215
O O11 0.314711 0.723563 0.390606
O O12 0.382547 0.999959 0.417108
O O13 0.560367 0.281678 0.128111
O O14 0.000000 0.500000 0.670030
O O15 0.999970 0.223278 0.750552
O O16 0.939102 0.220670 0.127858
O O17 0.500000 0.000000 0.667278
#
# Coordination Sequence:
#
# PCOD9332613 Si02
#       8
#     8   8   8   8   8   8   8   8
#     4   8  14  25  41  62  85 104 127 164 204 239
#     4   9  16  27  43  60  79 106 138 169 201 237
#     4   8  13  22  38  60  84 107 130 160 200 242
#     4   9  16  27  43  60  79 106 138 169 201 237
#     4   9  17  27  38  55  79 105 136 173 204 230
#     4   8  13  22  38  60  84 107 130 160 200 242
#     4   9  15  23  37  58  83 108 134 165 200 238
#     4   8  14  25  41  62  85 104 127 164 204 239
#
# _framework density 20.685894999999999
#
# number of rings (size 3 to 8) (size 9 to 14) (size 15 to 20)
#    0.000    3.500    0.000    2.250    0.000    3.000 
#    0.000    1.875    0.000    3.000    0.000    2.625 
#    0.000    6.000    0.000    0.000    0.000    0.000 
#
# Total GULP energy -178287.786810 kJ/mol
# GULP energy per Si atom -5571.493338 kJ/mol
# Density = 2.063881 g / cm^3
# Si number density = 20.685895 Si / 1000 Ang^3
#
#
#
# Elastic Constant Matrix: (Units=GPa)
#
#
# Indices 1 2 3 4 5 6 
#
# 1 270.2323 3.6576 108.2421 0.0000 0.0000 0.0000
# 2 3.6576 60.8260 4.3526 0.0000 0.0000 0.0000
# 3 108.2421 4.3526 92.6456 0.0000 0.0000 0.0000
# 4 0.0000 0.0000 0.0000 -3.1754 0.0000 0.0000
# 5 0.0000 0.0000 0.0000 0.0000 -5.1739 0.0000
# 6 0.0000 0.0000 0.0000 0.0000 0.0000 22.9058
#
#
#
# Elastic Compliance Matrix: (Units=1/GPa)
#
#
# Indices 1 2 3 4 5 6 
#
# 1 0.006957 0.000164 -0.008136 0.000000 0.000000 0.000000
# 2 0.000164 0.016500 -0.000967 0.000000 0.000000 0.000000
# 3 -0.008136 -0.000967 0.020345 0.000000 0.000000 0.000000
# 4 0.000000 0.000000 0.000000 -0.314917 0.000000 0.000000
# 5 0.000000 0.000000 0.000000 0.000000 -0.193278 0.000000
# 6 0.000000 0.000000 0.000000 0.000000 0.000000 0.043657
#
#
# Mechanical properties :
#
#
# Convention : Reuss Voigt Hill
#
# Bulk Modulus (GPa) = 38.57408 72.91205 55.74307
# Shear Modulus (GPa) = -12.68338 23.40807 5.36235
#
# Velocity S-wave (km/s) = -2.47886 3.36757 1.61180
# Velocity P-wave (km/s) = 3.23961 7.10243 5.51994
#
# Compressibility (1/GPa) = 0.02592414
#
# Stress axis : x y z
#
# Youngs Moduli (GPa) = 143.73447 60.60732 49.15184
#
# Poissons Ratio (x) = -0.00993 0.39991
# Poissons Ratio (y) = -0.02355 0.04751
# Poissons Ratio (z) = 1.16945 0.05858
#
# Static dielectric constant tensor:
#      x y z
#    x 1.769380 0.000000 0.000000 
#    y 0.000000 1.801410 0.000000 
#    z 0.000000 0.000000 1.685410 
# 
# From -- ./inp_files/25142.got.cif
#   From: 2010.05.17/outbox.cif.g08.bks.cpg/sg23_13_cif.got.tgz:25142.got - 2010.06.04 12:02:01.
