data_PCOD9332710
_publ_section_title
;
Structure prediction by ZEFSAII (Michael W. Deem and Ramdas Pophale) SiO2 
 PCOD9332710
Probable space group: I 21 21 21
;
_chemical_formula_sum "Si O2"
_cell_formula_units_Z 60
_cell_length_a 14.111275
_cell_length_b 20.243055
_cell_length_c 12.474642
_cell_angle_alpha 90.000000
_cell_angle_beta 90.000000
_cell_angle_gamma 90.000000
_cell_volume 3563.447802
_symmetry_space_group_name_H-M "I 21 21 21"
_symmetry_group_IT_number 24
_symmetry_cell_setting 'orthorhombic'
loop_
_space_group_symop_operation_xyz
x,y,z
-x,1/2-y,z
x,-y,1/2-z
1/2-x,y,-z
1/2+x,1/2+y,1/2+z
1/2-x,-y,1/2+z
1/2+x,1/2-y,-z
-x,1/2+y,1/2-z
loop_
_atom_site_type_symbol
_atom_site_label
_atom_site_fract_x
_atom_site_fract_y
_atom_site_fract_z
Si Si1 0.757291 0.289135 0.325267
Si Si2 0.349156 0.465055 0.543888
Si Si3 0.534650 0.000000 0.750000
Si Si4 0.025055 0.443391 0.665376
Si Si5 0.387897 0.316942 0.569816
Si Si6 0.566905 0.631802 0.819123
Si Si7 0.842977 0.593175 0.953731
Si Si8 0.084898 0.297940 0.683978
O O1 0.819561 0.241501 0.398640
O O2 0.841274 0.331858 0.268051
O O3 0.696868 0.342039 0.393204
O O4 0.680797 0.238103 0.275979
O O5 0.250000 0.492079 0.500000
O O6 0.398943 0.500472 0.644152
O O7 0.418866 0.460313 0.443076
O O8 0.336417 0.388042 0.578049
O O9 0.470483 0.066064 0.739959
O O10 0.040066 0.500000 0.750000
O O11 0.062608 0.373679 0.712687
O O12 0.915446 0.438922 0.628907
O O13 0.476201 0.323140 0.651424
O O14 0.415143 0.303518 0.446589
O O15 0.599660 0.611097 0.939203
O O16 0.750000 0.556223 0.000000
O O17 0.000000 0.250000 0.716022
#
# Coordination Sequence:
#
# PCOD9332710 Si02
#       8
#     8   8   4   8   8   8   8   8
#     4  11  19  27  51  79 111 147 173 221 296 345
#     4  10  21  36  55  81 113 146 185 222 277 344
#     4  10  20  36  56  76 118 150 186 236 268 326
#     4  11  22  37  53  79 120 153 185 228 282 336
#     4  10  16  27  49  76 108 138 165 221 287 347
#     4  10  18  31  48  77 111 144 178 222 277 332
#     4  10  18  34  48  76 112 147 187 221 273 339
#     4  11  17  29  46  72 109 143 181 222 273 342
#
# _framework density 16.837626
#
# number of rings (size 3 to 8) (size 9 to 14) (size 15 to 20)
#    0.000    1.600    5.333    5.600    0.933    0.000 
#    4.800    0.000    0.000    0.000    0.000    3.733 
#    8.000    0.000    0.000    0.000    0.000    0.000 
#
# Total GULP energy -167026.783850 kJ/mol
# GULP energy per Si atom -5567.559462 kJ/mol
# Density = 1.679930 g / cm^3
# Si number density = 16.837626 Si / 1000 Ang^3
#
#
#
# Elastic Constant Matrix: (Units=GPa)
#
#
# Indices 1 2 3 4 5 6 
#
# 1 114.4438 53.8028 26.4372 0.0000 0.0000 0.0000
# 2 53.8028 100.8379 38.1661 0.0000 0.0000 0.0000
# 3 26.4372 38.1661 38.4174 0.0000 0.0000 0.0000
# 4 0.0000 0.0000 0.0000 23.8158 0.0000 0.0000
# 5 0.0000 0.0000 0.0000 0.0000 14.3775 0.0000
# 6 0.0000 0.0000 0.0000 0.0000 0.0000 19.5653
#
#
#
# Elastic Compliance Matrix: (Units=1/GPa)
#
#
# Indices 1 2 3 4 5 6 
#
# 1 0.011877 -0.005198 -0.003009 0.000000 0.000000 0.000000
# 2 -0.005198 0.018168 -0.014472 0.000000 0.000000 0.000000
# 3 -0.003009 -0.014472 0.042478 0.000000 0.000000 0.000000
# 4 0.000000 0.000000 0.000000 0.041989 0.000000 0.000000
# 5 0.000000 0.000000 0.000000 0.000000 0.069553 0.000000
# 6 0.000000 0.000000 0.000000 0.000000 0.000000 0.051111
#
#
# Mechanical properties :
#
#
# Convention : Reuss Voigt Hill
#
# Bulk Modulus (GPa) = 36.81291 54.50128 45.65709
# Shear Modulus (GPa) = 17.26591 20.57125 18.91858
#
# Velocity S-wave (km/s) = 3.20572 3.49914 3.35564
# Velocity P-wave (km/s) = 5.96767 6.98314 6.49528
#
# Compressibility (1/GPa) = 0.02716438
#
# Stress axis : x y z
#
# Youngs Moduli (GPa) = 84.19815 55.04232 23.54171
#
# Poissons Ratio (x) = 0.28611 0.07084
# Poissons Ratio (y) = 0.43767 0.34069
# Poissons Ratio (z) = 0.25335 0.79657
#
# Static dielectric constant tensor:
#      x y z
#    x 1.679060 0.000000 0.000000 
#    y 0.000000 1.593320 0.000000 
#    z 0.000000 0.000000 1.529900 
# 
# From -- ./inp_files/21147.got.cif
#   From: 2010.05.17/outbox.cif.g08.bks.cpg/sg24_11_cif.got.tgz:21147.got - 2010.06.04 00:33:39.
