data_PCOD9332746
_publ_section_title
;
Structure prediction by ZEFSAII (Michael W. Deem and Ramdas Pophale) SiO2 
 PCOD9332746
Probable space group: I 21 21 21
;
_chemical_formula_sum "Si O2"
_cell_formula_units_Z 48
_cell_length_a 12.867327
_cell_length_b 21.097256
_cell_length_c 9.730577
_cell_angle_alpha 90.000000
_cell_angle_beta 90.000000
_cell_angle_gamma 90.000000
_cell_volume 2641.513924
_symmetry_space_group_name_H-M "I 21 21 21"
_symmetry_group_IT_number 24
_symmetry_cell_setting 'orthorhombic'
loop_
_space_group_symop_operation_xyz
x,y,z
-x,1/2-y,z
x,-y,1/2-z
1/2-x,y,-z
1/2+x,1/2+y,1/2+z
1/2-x,-y,1/2+z
1/2+x,1/2-y,-z
-x,1/2+y,1/2-z
loop_
_atom_site_type_symbol
_atom_site_label
_atom_site_fract_x
_atom_site_fract_y
_atom_site_fract_z
Si Si1 0.170540 0.500000 0.750000
Si Si2 0.279636 0.262970 0.153842
Si Si3 0.350652 0.197211 0.412596
Si Si4 0.445538 0.314045 0.821097
Si Si5 0.555666 0.832034 0.984741
Si Si6 0.750000 0.924035 0.000000
Si Si7 0.631883 0.111704 0.060829
O O1 0.241079 0.464333 0.638546
O O2 0.109756 0.553028 0.660342
O O3 0.318022 0.210304 0.256734
O O4 0.359849 0.321395 0.141689
O O5 0.250000 0.241545 0.000000
O O6 0.440732 0.370664 0.931309
O O7 0.250000 0.177223 0.500000
O O8 0.173859 0.294523 0.208771
O O9 0.390493 0.265286 0.473407
O O10 0.500000 0.250000 0.875381
O O11 0.488023 0.329786 0.671243
O O12 0.646164 0.882756 0.995593
O O13 0.454090 0.844470 0.076076
O O14 0.750000 0.102616 0.000000
#
# Coordination Sequence:
#
# PCOD9332746 Si02
#       7
#     4   8   8   8   8   4   8
#     4  12  22  38  56  76 110 164 196 260 292 356
#     4   9  18  33  49  72 113 151 184 234 289 358
#     4  11  18  32  55  83 115 153 192 230 299 375
#     4  10  16  32  52  79 110 155 181 236 299 362
#     4  11  20  31  56  83 119 151 194 252 294 364
#     4  12  24  38  56  84 118 154 206 250 308 348
#     4   9  19  33  50  73 106 151 195 230 300 349
#
# _framework density 18.171399000000001
#
# number of rings (size 3 to 8) (size 9 to 14) (size 15 to 20)
#    0.000    2.000    5.000    3.000    0.000    0.000 
#   18.000    0.000    0.000    0.000    0.000    1.167 
#    0.000    0.000    0.000    0.000    0.000    0.000 
#
# Total GULP energy -133782.064653 kJ/mol
# GULP energy per Si atom -5574.252694 kJ/mol
# Density = 1.813004 g / cm^3
# Si number density = 18.171399 Si / 1000 Ang^3
#
#
#
# Elastic Constant Matrix: (Units=GPa)
#
#
# Indices 1 2 3 4 5 6 
#
# 1 68.5431 25.9780 23.6270 0.0000 0.0000 0.0000
# 2 25.9780 61.1594 47.4743 0.0000 0.0000 0.0000
# 3 23.6270 47.4743 114.2278 0.0001 0.0000 0.0000
# 4 0.0000 0.0000 0.0001 37.2112 0.0000 0.0000
# 5 0.0000 0.0000 0.0000 0.0000 20.7618 0.0000
# 6 0.0000 0.0000 0.0000 0.0000 0.0000 5.8687
#
#
#
# Elastic Compliance Matrix: (Units=1/GPa)
#
#
# Indices 1 2 3 4 5 6 
#
# 1 0.017436 -0.006800 -0.000780 0.000000 0.000000 0.000000
# 2 -0.006800 0.026790 -0.009728 0.000000 0.000000 0.000000
# 3 -0.000780 -0.009728 0.012959 0.000000 0.000000 0.000000
# 4 0.000000 0.000000 0.000000 0.026874 0.000000 0.000000
# 5 0.000000 0.000000 0.000000 0.000000 0.048165 0.000000
# 6 0.000000 0.000000 0.000000 0.000000 0.000000 0.170395
#
#
# Mechanical properties :
#
#
# Convention : Reuss Voigt Hill
#
# Bulk Modulus (GPa) = 44.31008 48.67652 46.49330
# Shear Modulus (GPa) = 14.50293 22.55841 18.53067
#
# Velocity S-wave (km/s) = 2.82816 3.52721 3.19685
# Velocity P-wave (km/s) = 5.92471 6.59044 6.26642
#
# Compressibility (1/GPa) = 0.02256823
#
# Stress axis : x y z
#
# Youngs Moduli (GPa) = 57.35379 37.32693 77.16806
#
# Poissons Ratio (x) = 0.25384 0.06020
# Poissons Ratio (y) = 0.39003 0.75067
# Poissons Ratio (z) = 0.04474 0.36311
#
# Static dielectric constant tensor:
#      x y z
#    x 1.650550 0.000000 0.000000 
#    y 0.000000 1.637900 0.000000 
#    z 0.000000 0.000000 1.711500 
# 
# From -- ./inp_files/13262.got.cif
#   From: 2010.05.17/outbox.cif.g08.bks.cpg/sg24_7_cif.got.tgz:13262.got - 2010.06.04 00:33:39.
