data_PCOD9332048
_publ_section_title
;
Structure prediction by ZEFSAII (Michael W. Deem and Ramdas Pophale) SiO2 
 PCOD9332048
Probable space group: I 2 2 2
;
_chemical_formula_sum "Si O2"
_cell_formula_units_Z 40
_cell_length_a 15.019480
_cell_length_b 14.455202
_cell_length_c 8.299214
_cell_angle_alpha 90.000000
_cell_angle_beta 90.000000
_cell_angle_gamma 90.000000
_cell_volume 1801.839176
_symmetry_space_group_name_H-M "I 2 2 2"
_symmetry_group_IT_number 23
_symmetry_cell_setting 'orthorhombic'
loop_
_space_group_symop_operation_xyz
x,y,z
-x,-y,z
x,-y,-z
-x,y,-z
1/2+x,1/2+y,1/2+z
1/2-x,1/2-y,1/2+z
1/2+x,1/2-y,1/2-z
1/2-x,1/2+y,1/2-z
loop_
_atom_site_type_symbol
_atom_site_label
_atom_site_fract_x
_atom_site_fract_y
_atom_site_fract_z
Si Si1 0.195422 0.341877 0.419872
Si Si2 0.638820 0.802658 0.403272
Si Si3 0.547213 0.244096 0.269839
Si Si4 0.719468 0.034612 0.757605
Si Si5 0.413528 0.542795 0.317617
O O1 0.279165 0.271646 0.391092
O O2 0.103897 0.286388 0.386291
O O3 0.189544 0.432782 0.306463
O O4 0.210345 0.392322 0.591498
O O5 0.557778 0.776743 0.281687
O O6 0.595816 0.802570 0.578793
O O7 0.671237 0.906734 0.376217
O O8 0.565365 0.349913 0.315951
O O9 0.823576 0.024585 0.725637
O O10 0.500000 0.500000 0.239912
O O11 0.403518 0.500000 0.500000
#
# Coordination Sequence:
#
# PCOD9332048 Si02
#       5
#     8   8   8   8   8
#     4  11  21  41  60  93 126 161 214 254 318 364
#     4  11  21  40  60  93 124 163 211 255 317 365
#     4  11  23  37  63  90 126 163 203 268 302 373
#     4  11  22  37  64  88 125 168 202 262 310 373
#     4  11  18  34  64  97 115 153 212 258 302 361
#
# _framework density 22.199539999999999
#
# number of rings (size 3 to 8) (size 9 to 14) (size 15 to 20)
#    0.000    1.000    6.000    3.600    0.000    2.400 
#    0.000    4.000    0.000    0.000    0.000    2.800 
#    0.000    0.000    0.000    0.000    0.000    0.000 
#
# Total GULP energy -111632.843591 kJ/mol
# GULP energy per Si atom -5581.642180 kJ/mol
# Density = 2.214901 g / cm^3
# Si number density = 22.199540 Si / 1000 Ang^3
#
#
#
# Elastic Constant Matrix: (Units=GPa)
#
#
# Indices 1 2 3 4 5 6 
#
# 1 96.3238 27.2286 16.4191 0.0000 0.0000 0.0000
# 2 27.2286 97.7378 19.1421 0.0000 0.0000 0.0000
# 3 16.4191 19.1421 39.6474 0.0000 0.0000 0.0000
# 4 0.0000 0.0000 0.0000 -10.7207 0.0000 0.0000
# 5 0.0000 0.0000 0.0000 0.0000 7.0132 0.0000
# 6 0.0000 0.0000 0.0000 0.0000 0.0000 51.1338
#
#
#
# Elastic Compliance Matrix: (Units=1/GPa)
#
#
# Indices 1 2 3 4 5 6 
#
# 1 0.011721 -0.002556 -0.003620 0.000000 0.000000 0.000000
# 2 -0.002556 0.011858 -0.004666 0.000000 0.000000 0.000000
# 3 -0.003620 -0.004666 0.028974 0.000000 0.000000 0.000000
# 4 0.000000 0.000000 0.000000 -0.093278 0.000000 0.000000
# 5 0.000000 0.000000 0.000000 0.000000 0.142589 0.000000
# 6 0.000000 0.000000 0.000000 0.000000 0.000000 0.019557
#
#
# Mechanical properties :
#
#
# Convention : Reuss Voigt Hill
#
# Bulk Modulus (GPa) = 32.39588 39.92098 36.15843
# Shear Modulus (GPa) = 32.59554 20.87988 26.73771
#
# Velocity S-wave (km/s) = 3.83599 3.07017 3.47425
# Velocity P-wave (km/s) = 5.85188 5.53080 5.69361
#
# Compressibility (1/GPa) = 0.03086812
#
# Stress axis : x y z
#
# Youngs Moduli (GPa) = 85.31452 84.33447 34.51328
#
# Poissons Ratio (x) = 0.21560 0.12493
# Poissons Ratio (y) = 0.21810 0.16105
# Poissons Ratio (z) = 0.30883 0.39352
#
# Static dielectric constant tensor:
#      x y z
#    x 1.845070 0.000000 0.000000 
#    y 0.000000 2.387500 0.000000 
#    z 0.000000 0.000000 1.910180 
# 
# From -- ./inp_files/9587.got.cif
#   From: 2010.05.17/outbox.cif.g08.bks.cpg/sg23_5_cif.got.tgz:9587.got - 2010.06.04 12:02:01.
