data_PCOD9332996
_publ_section_title
;
Structure prediction by ZEFSAII (Michael W. Deem and Ramdas Pophale) SiO2 
 PCOD9332996
Probable space group: I 21 21 21
;
_chemical_formula_sum "Si O2"
_cell_formula_units_Z 52
_cell_length_a 11.338333
_cell_length_b 17.195544
_cell_length_c 14.897881
_cell_angle_alpha 90.000000
_cell_angle_beta 90.000000
_cell_angle_gamma 90.000000
_cell_volume 2904.622041
_symmetry_space_group_name_H-M "I 21 21 21"
_symmetry_group_IT_number 24
_symmetry_cell_setting 'orthorhombic'
loop_
_space_group_symop_operation_xyz
x,y,z
-x,1/2-y,z
x,-y,1/2-z
1/2-x,y,-z
1/2+x,1/2+y,1/2+z
1/2-x,-y,1/2+z
1/2+x,1/2-y,-z
-x,1/2+y,1/2-z
loop_
_atom_site_type_symbol
_atom_site_label
_atom_site_fract_x
_atom_site_fract_y
_atom_site_fract_z
Si Si1 0.207998 0.296735 0.306131
Si Si2 0.000000 0.750000 0.325369
Si Si3 0.704059 0.375895 0.275042
Si Si4 0.344315 0.953537 0.923142
Si Si5 0.952859 0.838591 0.823202
Si Si6 0.175213 0.868208 0.414545
Si Si7 0.552290 0.162912 0.533575
O O1 0.252380 0.207261 0.316976
O O2 0.325876 0.342025 0.275270
O O3 0.162131 0.332507 0.399230
O O4 0.097527 0.291588 0.238400
O O5 0.929503 0.688480 0.385336
O O6 0.779437 0.438336 0.329330
O O7 0.564870 0.387313 0.289944
O O8 0.738610 0.372702 0.171425
O O9 0.457742 0.899285 0.931191
O O10 0.370040 0.044652 0.934062
O O11 0.250000 0.930533 0.000000
O O12 0.000000 0.750000 0.813711
O O13 0.929803 0.853365 0.928514
O O14 0.250000 0.840733 0.500000
O O15 0.500000 0.250000 0.538776
#
# Coordination Sequence:
#
# PCOD9332996 Si02
#       7
#     8   4   8   8   8   8   8
#     4  10  18  31  51  83 117 147 189 220 263 343
#     4  10  20  42  60  78 106 138 198 252 286 322
#     4  10  18  35  53  82 118 148 185 231 278 326
#     4  11  20  33  57  88 116 145 184 228 278 336
#     4   9  19  27  48  83 117 153 179 213 268 336
#     4  10  23  40  61  84 103 142 198 247 286 323
#     4  11  17  28  51  82 125 155 175 209 267 344
#
# _framework density 17.902501000000001
#
# number of rings (size 3 to 8) (size 9 to 14) (size 15 to 20)
#    0.000    1.846    3.846    1.846    0.000    0.000 
#    6.923    0.000    0.000    5.538    0.000    0.000 
#    0.000    0.000    0.000    0.000    0.000    0.000 
#
# Total GULP energy -144960.661094 kJ/mol
# GULP energy per Si atom -5575.410042 kJ/mol
# Density = 1.786175 g / cm^3
# Si number density = 17.902501 Si / 1000 Ang^3
#
#
#
# Elastic Constant Matrix: (Units=GPa)
#
#
# Indices 1 2 3 4 5 6 
#
# 1 144.5903 36.8701 53.1323 0.0000 0.0000 0.0000
# 2 36.8701 43.2277 11.9290 0.0000 0.0000 0.0000
# 3 53.1323 11.9290 85.4998 0.0000 0.0000 0.0000
# 4 0.0000 0.0000 0.0000 17.3718 0.0000 0.0000
# 5 0.0000 0.0000 0.0000 0.0000 17.7632 0.0000
# 6 0.0000 0.0000 0.0000 0.0000 0.0000 8.2637
#
#
#
# Elastic Compliance Matrix: (Units=1/GPa)
#
#
# Indices 1 2 3 4 5 6 
#
# 1 0.011026 -0.007814 -0.005762 0.000000 0.000000 0.000000
# 2 -0.007814 0.029598 0.000727 0.000000 0.000000 0.000000
# 3 -0.005762 0.000727 0.015175 0.000000 0.000000 0.000000
# 4 0.000000 0.000000 0.000000 0.057564 0.000000 0.000000
# 5 0.000000 0.000000 0.000000 0.000000 0.056296 0.000000
# 6 0.000000 0.000000 0.000000 0.000000 0.000000 0.121011
#
#
# Mechanical properties :
#
#
# Convention : Reuss Voigt Hill
#
# Bulk Modulus (GPa) = 33.22248 53.02005 43.12127
# Shear Modulus (GPa) = 15.31851 20.10552 17.71201
#
# Velocity S-wave (km/s) = 2.92835 3.35484 3.14882
# Velocity P-wave (km/s) = 5.48009 6.68483 6.11221
#
# Compressibility (1/GPa) = 0.03010010
#
# Stress axis : x y z
#
# Youngs Moduli (GPa) = 90.69514 33.78613 65.89778
#
# Poissons Ratio (x) = 0.26402 0.37968
# Poissons Ratio (y) = 0.70873 -0.04788
# Poissons Ratio (z) = 0.52255 -0.02455
#
# Static dielectric constant tensor:
#      x y z
#    x 1.629530 0.000000 0.000000 
#    y 0.000000 1.619910 0.000000 
#    z 0.000000 0.000000 1.621310 
# 
# From -- ./inp_files/25939.got.cif
#   From: 2010.05.17/outbox.cif.g08.bks.cpg/sg24_13_cif.got.tgz:25939.got - 2010.06.04 00:33:39.
