data_PCOD9332313
_publ_section_title
;
Structure prediction by ZEFSAII (Michael W. Deem and Ramdas Pophale) SiO2 
 PCOD9332313
Probable space group: I 2 2 2
;
_chemical_formula_sum "Si O2"
_cell_formula_units_Z 40
_cell_length_a 5.248242
_cell_length_b 16.795346
_cell_length_c 18.417736
_cell_angle_alpha 90.000000
_cell_angle_beta 90.000000
_cell_angle_gamma 90.000000
_cell_volume 1623.450499
_symmetry_space_group_name_H-M "I 2 2 2"
_symmetry_group_IT_number 23
_symmetry_cell_setting 'orthorhombic'
loop_
_space_group_symop_operation_xyz
x,y,z
-x,-y,z
x,-y,-z
-x,y,-z
1/2+x,1/2+y,1/2+z
1/2-x,1/2-y,1/2+z
1/2+x,1/2-y,1/2-z
1/2-x,1/2+y,1/2-z
loop_
_atom_site_type_symbol
_atom_site_label
_atom_site_fract_x
_atom_site_fract_y
_atom_site_fract_z
Si Si1 0.500000 0.000000 0.232825
Si Si2 0.000000 0.500000 0.000000
Si Si3 0.760896 0.869640 0.592635
Si Si4 0.372075 0.123891 0.114722
Si Si5 0.500000 0.242076 0.000000
Si Si6 0.444689 0.251502 0.701352
Si Si7 0.500000 0.000000 0.000000
Si Si8 0.000000 0.000000 0.669771
O O1 0.502047 0.923116 0.180593
O O2 0.249897 0.998085 0.281142
O O3 0.154116 0.555190 0.947468
O O4 0.795745 0.802756 0.531483
O O5 0.594200 0.827521 0.653572
O O6 0.004572 0.913927 0.628539
O O7 0.547419 0.186687 0.070038
O O8 0.139055 0.173872 0.149739
O O9 0.330257 0.056250 0.052813
O O10 0.721334 0.253434 0.737515
#
# Coordination Sequence:
#
# PCOD9332313 Si02
#       8
#     4   2   8   8   4   8   2   4
#     4  11  23  41  68  99 135 175 220 274 332 393
#     4  12  26  46  70 102 134 180 224 276 332 394
#     4  11  24  41  67  96 135 175 224 276 331 396
#     4   9  19  38  66  96 133 174 224 274 329 393
#     4   9  20  40  64  93 130 178 224 275 330 390
#     4  11  24  43  69 100 134 174 220 275 333 394
#     4   8  16  36  66  96 132 178 224 274 328 388
#     4  12  24  41  66  97 132 174 220 276 334 394
#
# _framework density 24.638877999999998
#
# number of rings (size 3 to 8) (size 9 to 14) (size 15 to 20)
#    0.000    1.600    0.000    4.200    0.000    4.800 
#    0.000    2.000    0.000   48.000    0.000    0.000 
#    0.000    0.000    0.000    0.000    0.000    0.000 
#
# Total GULP energy -111796.781595 kJ/mol
# GULP energy per Si atom -5589.839080 kJ/mol
# Density = 2.458280 g / cm^3
# Si number density = 24.638878 Si / 1000 Ang^3
#
#
#
# Elastic Constant Matrix: (Units=GPa)
#
#
# Indices 1 2 3 4 5 6 
#
# 1 72.3524 23.9482 27.7234 0.0000 0.0000 0.0000
# 2 23.9482 153.9572 48.6118 0.0000 0.0000 0.0000
# 3 27.7234 48.6118 98.4340 0.0000 0.0000 0.0000
# 4 0.0000 0.0000 0.0000 -4.8424 0.0000 0.0000
# 5 0.0000 0.0000 0.0000 0.0000 7.7083 0.0000
# 6 0.0000 0.0000 0.0000 0.0000 0.0000 49.9925
#
#
#
# Elastic Compliance Matrix: (Units=1/GPa)
#
#
# Indices 1 2 3 4 5 6 
#
# 1 0.015690 -0.001238 -0.003807 0.000000 0.000000 0.000000
# 2 -0.001238 0.007793 -0.003500 0.000000 0.000000 0.000000
# 3 -0.003807 -0.003500 0.012960 0.000000 0.000000 0.000000
# 4 0.000000 0.000000 0.000000 -0.206510 0.000000 0.000000
# 5 0.000000 0.000000 0.000000 0.000000 0.129731 0.000000
# 6 0.000000 0.000000 0.000000 0.000000 0.000000 0.020003
#
#
# Mechanical properties :
#
#
# Convention : Reuss Voigt Hill
#
# Bulk Modulus (GPa) = 51.67533 58.36782 55.02157
# Shear Modulus (GPa) = 1558.41099 25.53568 791.97334
#
# Velocity S-wave (km/s) = 25.17685 3.22281 17.94799
# Velocity P-wave (km/s) = 29.43100 6.13102 21.25762
#
# Compressibility (1/GPa) = 0.01935160
#
# Stress axis : x y z
#
# Youngs Moduli (GPa) = 63.73461 128.32019 77.16159
#
# Poissons Ratio (x) = 0.15891 0.29379
# Poissons Ratio (y) = 0.07893 0.27005
# Poissons Ratio (z) = 0.24267 0.44909
#
# Static dielectric constant tensor:
#      x y z
#    x 1.987310 0.000000 0.000000 
#    y 0.000000 1.982580 0.000000 
#    z 0.000000 0.000000 1.908270 
# 
# From -- ./inp_files/3173.got.cif
#   From: 2010.05.17/outbox.cif.g08.bks.cpg/sg23_2_cif.got.tgz:3173.got - 2010.06.04 12:02:01.
