data_PCOD9332848
_publ_section_title
;
Structure prediction by ZEFSAII (Michael W. Deem and Ramdas Pophale) SiO2 
 PCOD9332848
Probable space group: I 21 21 21
;
_chemical_formula_sum "Si O2"
_cell_formula_units_Z 44
_cell_length_a 8.807477
_cell_length_b 22.757582
_cell_length_c 12.145598
_cell_angle_alpha 90.000000
_cell_angle_beta 90.000000
_cell_angle_gamma 90.000000
_cell_volume 2434.425769
_symmetry_space_group_name_H-M "I 21 21 21"
_symmetry_group_IT_number 24
_symmetry_cell_setting 'orthorhombic'
loop_
_space_group_symop_operation_xyz
x,y,z
-x,1/2-y,z
x,-y,1/2-z
1/2-x,y,-z
1/2+x,1/2+y,1/2+z
1/2-x,-y,1/2+z
1/2+x,1/2-y,-z
-x,1/2+y,1/2-z
loop_
_atom_site_type_symbol
_atom_site_label
_atom_site_fract_x
_atom_site_fract_y
_atom_site_fract_z
Si Si1 0.990290 0.467237 0.069734
Si Si2 0.600696 0.932068 0.220542
Si Si3 0.000000 0.750000 0.397073
Si Si4 0.750000 0.329541 0.000000
Si Si5 0.750000 0.946597 0.000000
Si Si6 0.809181 0.144361 0.123534
Si Si7 0.680867 0.436680 0.150457
O O1 0.836468 0.473234 0.140051
O O2 0.122124 0.515088 0.063853
O O3 0.067580 0.407214 0.109371
O O4 0.932605 0.460964 0.944017
O O5 0.657916 0.916404 0.098625
O O6 0.678052 0.885360 0.303281
O O7 0.418977 0.932326 0.240331
O O8 0.646462 0.000000 0.250000
O O9 0.106529 0.790030 0.472872
O O10 0.109444 0.703750 0.334352
O O11 0.721293 0.372271 0.103444
O O12 0.750000 0.156828 0.000000
#
# Coordination Sequence:
#
# PCOD9332848 Si02
#       7
#     8   8   4   4   4   8   8
#     4  10  17  33  54  83 121 149 194 240 300 352
#     4  12  22  37  58  82 123 164 205 246 307 370
#     4  12  20  30  54  90 118 156 190 246 320 374
#     4  10  20  31  54  86 124 152 189 248 318 370
#     4  12  22  39  58  88 112 176 215 242 300 378
#     4  12  19  35  56  87 121 154 201 249 302 379
#     4  10  19  34  51  83 125 152 190 252 298 367
#
# _framework density 18.074078
#
# number of rings (size 3 to 8) (size 9 to 14) (size 15 to 20)
#    0.000    1.091   10.909    0.000    0.000    0.000 
#    3.273    0.000    0.000    0.000    4.727    0.000 
#    0.000    0.000    0.000    0.000    0.000    0.000 
#
# Total GULP energy -122594.625175 kJ/mol
# GULP energy per Si atom -5572.482962 kJ/mol
# Density = 1.803294 g / cm^3
# Si number density = 18.074078 Si / 1000 Ang^3
#
#
#
# Elastic Constant Matrix: (Units=GPa)
#
#
# Indices 1 2 3 4 5 6 
#
# 1 122.0540 17.9361 36.2179 0.0000 0.0000 0.0000
# 2 17.9361 60.1976 20.5700 0.0000 0.0000 0.0000
# 3 36.2179 20.5700 78.7280 0.0000 0.0000 0.0000
# 4 0.0000 0.0000 0.0000 6.2721 0.0000 0.0000
# 5 0.0000 0.0000 0.0000 0.0000 35.6631 0.0000
# 6 0.0000 0.0000 0.0000 0.0000 0.0000 27.4397
#
#
#
# Elastic Compliance Matrix: (Units=1/GPa)
#
#
# Indices 1 2 3 4 5 6 
#
# 1 0.009608 -0.001485 -0.004032 0.000000 0.000000 0.000000
# 2 -0.001485 0.018470 -0.004143 0.000000 0.000000 0.000000
# 3 -0.004032 -0.004143 0.015639 0.000000 0.000000 0.000000
# 4 0.000000 0.000000 0.000000 0.159435 0.000000 0.000000
# 5 0.000000 0.000000 0.000000 0.000000 0.028040 0.000000
# 6 0.000000 0.000000 0.000000 0.000000 0.000000 0.036444
#
#
# Mechanical properties :
#
#
# Convention : Reuss Voigt Hill
#
# Bulk Modulus (GPa) = 40.98731 45.60308 43.29520
# Shear Modulus (GPa) = 16.94412 26.29203 21.61807
#
# Velocity S-wave (km/s) = 3.06515 3.81817 3.46219
# Velocity P-wave (km/s) = 5.93747 6.68759 6.32366
#
# Compressibility (1/GPa) = 0.02439779
#
# Stress axis : x y z
#
# Youngs Moduli (GPa) = 104.08282 54.14184 63.94184
#
# Poissons Ratio (x) = 0.08040 0.25781
# Poissons Ratio (y) = 0.15455 0.26489
# Poissons Ratio (z) = 0.41966 0.22429
#
# Static dielectric constant tensor:
#      x y z
#    x 1.747760 0.000000 0.000000 
#    y 0.000000 1.641050 0.000000 
#    z 0.000000 0.000000 1.671530 
# 
# From -- ./inp_files/18549.got.cif
#   From: 2010.05.17/outbox.cif.g08.bks.cpg/sg24_10_cif.got.tgz:18549.got - 2010.06.04 00:33:39.
