data_PCOD9332129
_publ_section_title
;
Structure prediction by ZEFSAII (Michael W. Deem and Ramdas Pophale) SiO2 
 PCOD9332129
Probable space group: I 2 2 2
;
_chemical_formula_sum "Si O2"
_cell_formula_units_Z 48
_cell_length_a 22.939374
_cell_length_b 9.074104
_cell_length_c 12.388061
_cell_angle_alpha 90.000000
_cell_angle_beta 90.000000
_cell_angle_gamma 90.000000
_cell_volume 2578.627737
_symmetry_space_group_name_H-M "I 2 2 2"
_symmetry_group_IT_number 23
_symmetry_cell_setting 'orthorhombic'
loop_
_space_group_symop_operation_xyz
x,y,z
-x,-y,z
x,-y,-z
-x,y,-z
1/2+x,1/2+y,1/2+z
1/2-x,1/2-y,1/2+z
1/2+x,1/2-y,1/2-z
1/2-x,1/2+y,1/2-z
loop_
_atom_site_type_symbol
_atom_site_label
_atom_site_fract_x
_atom_site_fract_y
_atom_site_fract_z
Si Si1 0.929249 0.341765 0.563040
Si Si2 0.031141 0.159445 0.633507
Si Si3 0.821429 0.451440 0.686023
Si Si4 0.253309 0.888186 0.400640
Si Si5 0.353103 0.281210 0.232201
Si Si6 0.292927 0.364910 0.446195
O O1 0.934863 0.500000 0.500000
O O2 0.933097 0.210939 0.474120
O O3 0.870999 0.349830 0.633074
O O4 0.983135 0.290796 0.638809
O O5 0.080892 0.164554 0.723355
O O6 0.000000 0.000000 0.628052
O O7 0.800833 0.419781 0.807860
O O8 0.846225 0.616651 0.685602
O O9 0.764015 0.429333 0.614148
O O10 0.191574 0.878539 0.339073
O O11 0.270853 0.737906 0.458518
O O12 0.251197 0.000000 0.500000
O O13 0.329548 0.284069 0.354168
O O14 0.326696 0.500000 0.500000
#
# Coordination Sequence:
#
# PCOD9332129 Si02
#       6
#     8   8   8   8   8   8
#     4  11  21  37  63  85 119 161 200 248 305 363
#     4  11  24  39  57  94 122 157 202 253 309 361
#     4  11  22  38  63  92 121 162 210 242 305 373
#     4  11  23  38  60  93 124 158 200 256 300 363
#     4  11  23  39  63  90 125 164 201 251 302 368
#     4  11  22  39  62  91 127 160 201 250 310 357
#
# _framework density 18.614550999999999
#
# number of rings (size 3 to 8) (size 9 to 14) (size 15 to 20)
#    0.000    1.000    5.000    3.500    0.000    5.333 
#    0.000    0.000    0.000    3.500    0.000    0.000 
#    0.000    0.000    0.000    0.000    0.000    0.000 
#
# Total GULP energy -133841.376954 kJ/mol
# GULP energy per Si atom -5576.724040 kJ/mol
# Density = 1.857218 g / cm^3
# Si number density = 18.614551 Si / 1000 Ang^3
#
#
#
# Elastic Constant Matrix: (Units=GPa)
#
#
# Indices 1 2 3 4 5 6 
#
# 1 100.5196 31.2525 41.1601 0.0000 0.0000 0.0000
# 2 31.2525 90.7181 21.8009 0.0000 0.0000 0.0000
# 3 41.1601 21.8009 74.6061 0.0000 0.0000 0.0000
# 4 0.0000 0.0000 0.0000 28.4050 0.0000 0.0000
# 5 0.0000 0.0000 0.0000 0.0000 19.8136 0.0000
# 6 0.0000 0.0000 0.0000 0.0000 0.0000 28.5223
#
#
#
# Elastic Compliance Matrix: (Units=1/GPa)
#
#
# Indices 1 2 3 4 5 6 
#
# 1 0.013618 -0.003104 -0.006606 0.000000 0.000000 0.000000
# 2 -0.003104 0.012563 -0.001959 0.000000 0.000000 0.000000
# 3 -0.006606 -0.001959 0.017621 0.000000 0.000000 0.000000
# 4 0.000000 0.000000 0.000000 0.035205 0.000000 0.000000
# 5 0.000000 0.000000 0.000000 0.000000 0.050470 0.000000
# 6 0.000000 0.000000 0.000000 0.000000 0.000000 0.035060
#
#
# Mechanical properties :
#
#
# Convention : Reuss Voigt Hill
#
# Bulk Modulus (GPa) = 48.86497 50.47454 49.66976
# Shear Modulus (GPa) = 25.68086 26.79020 26.23553
#
# Velocity S-wave (km/s) = 3.71834 3.79780 3.75828
# Velocity P-wave (km/s) = 6.68900 6.81217 6.75086
#
# Compressibility (1/GPa) = 0.02046456
#
# Stress axis : x y z
#
# Youngs Moduli (GPa) = 73.42980 79.59768 56.75129
#
# Poissons Ratio (x) = 0.24707 0.37491
# Poissons Ratio (y) = 0.22793 0.11116
# Poissons Ratio (z) = 0.48510 0.15590
#
# Static dielectric constant tensor:
#      x y z
#    x 1.666420 0.000000 0.000000 
#    y 0.000000 1.749820 0.000000 
#    z 0.000000 0.000000 1.649900 
# 
# From -- ./inp_files/18293.got.cif
#   From: 2010.05.17/outbox.cif.g08.bks.cpg/sg23_10_cif.got.tgz:18293.got - 2010.06.04 12:02:01.
