data_PCOD9332953
_publ_section_title
;
Structure prediction by ZEFSAII (Michael W. Deem and Ramdas Pophale) SiO2 
 PCOD9332953
Probable space group: I 21 21 21
;
_chemical_formula_sum "Si O2"
_cell_formula_units_Z 56
_cell_length_a 9.300200
_cell_length_b 7.330918
_cell_length_c 34.641650
_cell_angle_alpha 90.000000
_cell_angle_beta 90.000000
_cell_angle_gamma 90.000000
_cell_volume 2361.833179
_symmetry_space_group_name_H-M "I 21 21 21"
_symmetry_group_IT_number 24
_symmetry_cell_setting 'orthorhombic'
loop_
_space_group_symop_operation_xyz
x,y,z
-x,1/2-y,z
x,-y,1/2-z
1/2-x,y,-z
1/2+x,1/2+y,1/2+z
1/2-x,-y,1/2+z
1/2+x,1/2-y,-z
-x,1/2+y,1/2-z
loop_
_atom_site_type_symbol
_atom_site_label
_atom_site_fract_x
_atom_site_fract_y
_atom_site_fract_z
Si Si1 0.675670 0.444688 0.616131
Si Si2 0.979371 0.000000 0.750000
Si Si3 0.743045 0.931133 0.695514
Si Si4 0.667001 0.981895 0.038244
Si Si5 0.511660 0.500000 0.750000
Si Si6 0.844217 0.002169 0.113595
Si Si7 0.163809 0.036856 0.538358
Si Si8 0.766839 0.636586 0.802518
O O1 0.515873 0.526113 0.613606
O O2 0.667278 0.221186 0.615420
O O3 0.762170 0.509881 0.578887
O O4 0.748761 0.472143 0.657625
O O5 0.089233 0.078415 0.718666
O O6 0.871247 0.872471 0.724175
O O7 0.598459 0.903391 0.720191
O O8 0.719582 0.890884 0.650605
O O9 0.771444 0.147836 0.692414
O O10 0.755542 0.048097 0.075324
O O11 0.665556 0.759377 0.038081
O O12 0.499561 0.031013 0.037760
O O13 0.750000 0.040822 0.000000
O O14 0.622617 0.603040 0.777900
O O15 0.250000 0.979809 0.500000
#
# Coordination Sequence:
#
# PCOD9332953 Si02
#       8
#     8   4   8   8   4   8   8   8
#     4   9  16  26  41  57  77 108 142 180 220 252
#     4  10  22  30  44  64  86 116 154 188 232 272
#     4  10  19  32  46  64  89 116 152 193 225 266
#     4   9  16  24  35  53  77 105 141 178 208 246
#     4  10  18  30  48  68  82 112 154 188 232 272
#     4   9  16  26  41  57  77 108 142 180 220 252
#     4   9  16  24  35  53  77 105 141 178 208 246
#     4  10  19  32  46  64  89 116 152 193 225 266
#
# _framework density 23.710395999999999
#
# number of rings (size 3 to 8) (size 9 to 14) (size 15 to 20)
#    0.000    2.571    1.429    1.714    2.000    3.429 
#    0.000    0.000    0.000    0.000    0.000    0.000 
#    0.000    0.000    0.000    0.000    0.000  100.000 
#
# Total GULP energy -156452.211541 kJ/mol
# GULP energy per Si atom -5587.578984 kJ/mol
# Density = 2.365643 g / cm^3
# Si number density = 23.710396 Si / 1000 Ang^3
#
#
#
# Elastic Constant Matrix: (Units=GPa)
#
#
# Indices 1 2 3 4 5 6 
#
# 1 222.8613 17.8714 134.5126 0.0000 0.0000 0.0000
# 2 17.8714 75.9124 13.7063 0.0000 0.0000 0.0000
# 3 134.5126 13.7063 266.5316 0.0000 0.0000 0.0000
# 4 0.0000 0.0000 0.0000 3.6452 0.0000 0.0000
# 5 0.0000 0.0000 0.0000 0.0000 33.3538 0.0000
# 6 0.0000 0.0000 0.0000 0.0000 0.0000 7.6721
#
#
#
# Elastic Compliance Matrix: (Units=1/GPa)
#
#
# Indices 1 2 3 4 5 6 
#
# 1 0.006520 -0.000950 -0.003242 0.000000 0.000000 0.000000
# 2 -0.000950 0.013435 -0.000212 0.000000 0.000000 0.000000
# 3 -0.003242 -0.000212 0.005399 0.000000 0.000000 0.000000
# 4 0.000000 0.000000 0.000000 0.274336 0.000000 0.000000
# 5 0.000000 0.000000 0.000000 0.000000 0.029982 0.000000
# 6 0.000000 0.000000 0.000000 0.000000 0.000000 0.130343
#
#
# Mechanical properties :
#
#
# Convention : Reuss Voigt Hill
#
# Bulk Modulus (GPa) = 60.43121 99.72062 80.07592
# Shear Modulus (GPa) = 10.54108 35.54854 23.04481
#
# Velocity S-wave (km/s) = 2.11079 3.87626 3.12096
# Velocity P-wave (km/s) = 5.61098 7.88561 6.84346
#
# Compressibility (1/GPa) = 0.01654774
#
# Stress axis : x y z
#
# Youngs Moduli (GPa) = 153.38027 74.43331 185.22927
#
# Poissons Ratio (x) = 0.07068 0.60043
# Poissons Ratio (y) = 0.14565 0.03920
# Poissons Ratio (z) = 0.49719 0.01575
#
# Static dielectric constant tensor:
#      x y z
#    x 1.824880 0.000000 0.000000 
#    y 0.000000 2.030280 0.000000 
#    z 0.000000 0.000000 1.883330 
# 
# From -- ./inp_files/38455.got.cif
#   From: 2010.05.17/outbox.cif.g08.bks.cpg/sg24_20_cif.got.tgz:38455.got - 2010.06.04 00:33:39.
