data_PCOD9332515
_publ_section_title
;
Structure prediction by ZEFSAII (Michael W. Deem and Ramdas Pophale) SiO2 
 PCOD9332515
Probable space group: I 2 2 2
;
_chemical_formula_sum "Si O2"
_cell_formula_units_Z 24
_cell_length_a 8.133081
_cell_length_b 14.045674
_cell_length_c 9.054479
_cell_angle_alpha 90.000000
_cell_angle_beta 90.000000
_cell_angle_gamma 90.000000
_cell_volume 1034.334826
_symmetry_space_group_name_H-M "I 2 2 2"
_symmetry_group_IT_number 23
_symmetry_cell_setting 'orthorhombic'
loop_
_space_group_symop_operation_xyz
x,y,z
-x,-y,z
x,-y,-z
-x,y,-z
1/2+x,1/2+y,1/2+z
1/2-x,1/2-y,1/2+z
1/2+x,1/2-y,1/2-z
1/2-x,1/2+y,1/2-z
loop_
_atom_site_type_symbol
_atom_site_label
_atom_site_fract_x
_atom_site_fract_y
_atom_site_fract_z
Si Si1 0.695614 0.299620 0.490616
Si Si2 0.861973 0.433474 0.730011
Si Si3 0.190624 0.373068 0.827647
O O1 0.500000 0.308128 0.500000
O O2 0.765172 0.372537 0.613548
O O3 0.757103 0.327263 0.328653
O O4 0.754501 0.195338 0.544623
O O5 0.764809 0.514670 0.821159
O O6 0.000000 0.500000 0.652569
O O7 0.989532 0.373085 0.828933
#
# Coordination Sequence:
#
# PCOD9332515 Si02
#       3
#     8   8   8
#     4  12  21  36  64  96 116 156 213 250 282 366
#     4   8  21  42  59  81 130 167 188 238 318 357
#     4   9  22  38  60  88 126 161 195 246 305 356
#
# _framework density 23.203317999999999
#
# number of rings (size 3 to 8) (size 9 to 14) (size 15 to 20)
#    2.000    0.000    0.000    4.000    4.667    2.667 
#    0.000   11.667    0.000    0.000    0.000   32.667 
#    0.000    0.000    0.000    0.000    0.000    0.000 
#
# Total GULP energy -66871.730090 kJ/mol
# GULP energy per Si atom -5572.644174 kJ/mol
# Density = 2.315051 g / cm^3
# Si number density = 23.203318 Si / 1000 Ang^3
#
#
#
# Elastic Constant Matrix: (Units=GPa)
#
#
# Indices 1 2 3 4 5 6 
#
# 1 36.4394 37.8150 15.8669 0.0000 0.0000 0.0000
# 2 37.8150 106.6289 34.4281 0.0001 0.0000 0.0000
# 3 15.8669 34.4281 97.7215 0.0001 0.0000 0.0000
# 4 0.0000 0.0001 0.0001 -5.7483 0.0000 0.0000
# 5 0.0000 0.0000 0.0000 0.0000 26.2203 0.0001
# 6 0.0000 0.0000 0.0000 0.0000 0.0001 33.7495
#
#
#
# Elastic Compliance Matrix: (Units=1/GPa)
#
#
# Indices 1 2 3 4 5 6 
#
# 1 0.043717 -0.014908 -0.001846 0.000000 0.000000 0.000000
# 2 -0.014908 0.015666 -0.003099 0.000000 0.000000 0.000000
# 3 -0.001846 -0.003099 0.011625 0.000000 0.000000 0.000000
# 4 0.000000 0.000000 0.000000 -0.173965 0.000000 0.000000
# 5 0.000000 0.000000 0.000000 0.000000 0.038138 0.000000
# 6 0.000000 0.000000 0.000000 0.000000 0.000000 0.029630
#
#
# Mechanical properties :
#
#
# Convention : Reuss Voigt Hill
#
# Bulk Modulus (GPa) = 31.94642 46.33442 39.14042
# Shear Modulus (GPa) = 334.43321 21.02295 177.72808
#
# Velocity S-wave (km/s) = 12.01851 3.01330 8.76141
# Velocity P-wave (km/s) = 14.36630 5.66735 10.92038
#
# Compressibility (1/GPa) = 0.03130241
#
# Stress axis : x y z
#
# Youngs Moduli (GPa) = 22.87418 63.83354 86.02458
#
# Poissons Ratio (x) = 0.95162 0.15882
# Poissons Ratio (y) = 0.34101 0.26655
# Poissons Ratio (z) = 0.04223 0.19779
#
# Static dielectric constant tensor:
#      x y z
#    x 1.873750 0.000000 0.000000 
#    y 0.000000 2.013400 0.000000 
#    z 0.000000 0.000000 1.869870 
# 
# From -- ./inp_files/6191.got.cif
#   From: 2010.05.17/outbox.cif.g08.bks.cpg/sg23_4_cif.got.tgz:6191.got - 2010.06.04 12:02:01.
