data_PCOD9332427
_publ_section_title
;
Structure prediction by ZEFSAII (Michael W. Deem and Ramdas Pophale) SiO2 
 PCOD9332427
Probable space group: I 2 2 2
;
_chemical_formula_sum "Si O2"
_cell_formula_units_Z 38
_cell_length_a 18.568615
_cell_length_b 5.021603
_cell_length_c 15.183249
_cell_angle_alpha 90.000000
_cell_angle_beta 90.000000
_cell_angle_gamma 90.000000
_cell_volume 1415.750101
_symmetry_space_group_name_H-M "I 2 2 2"
_symmetry_group_IT_number 23
_symmetry_cell_setting 'orthorhombic'
loop_
_space_group_symop_operation_xyz
x,y,z
-x,-y,z
x,-y,-z
-x,y,-z
1/2+x,1/2+y,1/2+z
1/2-x,1/2-y,1/2+z
1/2+x,1/2-y,1/2-z
1/2-x,1/2+y,1/2-z
loop_
_atom_site_type_symbol
_atom_site_label
_atom_site_fract_x
_atom_site_fract_y
_atom_site_fract_z
Si Si1 0.802570 0.355288 0.757338
Si Si2 0.136426 0.638026 0.409984
Si Si3 0.874637 0.321102 0.108177
Si Si4 0.748512 0.000000 0.500000
Si Si5 0.046936 0.236610 0.732348
Si Si6 0.500000 0.500000 0.500000
O O1 0.757950 0.087711 0.743703
O O2 0.846937 0.424204 0.667711
O O3 0.852620 0.383131 0.846888
O O4 0.117036 0.500000 0.500000
O O5 0.070787 0.793764 0.367194
O O6 0.201634 0.834143 0.433794
O O7 0.885028 0.201425 0.204008
O O8 0.804968 0.292751 0.048366
O O9 0.944393 0.204945 0.053371
O O10 0.000000 0.500000 0.747409
O O11 0.000000 0.000000 0.762828
#
# Coordination Sequence:
#
# PCOD9332427 Si02
#       6
#     8   8   8   4   8   2
#     4  11  24  47  74 109 151 204 249 318 398 457
#     4  11  27  47  78 116 155 199 272 327 404 468
#     4  11  27  46  79 106 166 198 267 322 393 481
#     4  12  26  47  75 122 146 208 256 350 392 464
#     4  11  28  55  79 114 160 217 263 318 399 482
#     4  12  28  46  72 116 154 222 260 316 398 480
#
# _framework density 26.840896000000001
#
# number of rings (size 3 to 8) (size 9 to 14) (size 15 to 20)
#    0.000    0.842    3.158    1.263   10.316    5.474 
#    0.000    0.000    0.000    0.000    0.000    0.000 
#    0.000    0.000    0.000    0.000    0.000    0.000 
#
# Total GULP energy -105968.420246 kJ/mol
# GULP energy per Si atom -5577.285276 kJ/mol
# Density = 2.677980 g / cm^3
# Si number density = 26.840896 Si / 1000 Ang^3
#
#
#
# Elastic Constant Matrix: (Units=GPa)
#
#
# Indices 1 2 3 4 5 6 
#
# 1 125.4905 58.3498 32.4682 0.0000 0.0000 0.0000
# 2 58.3498 113.3122 31.5927 0.0000 0.0000 0.0000
# 3 32.4682 31.5927 145.8966 0.0000 0.0000 0.0000
# 4 0.0000 0.0000 0.0000 29.5717 0.0000 0.0000
# 5 0.0000 0.0000 0.0000 0.0000 65.3639 0.0000
# 6 0.0000 0.0000 0.0000 0.0000 0.0000 36.7379
#
#
#
# Elastic Compliance Matrix: (Units=1/GPa)
#
#
# Indices 1 2 3 4 5 6 
#
# 1 0.010692 -0.005153 -0.001263 0.000000 0.000000 0.000000
# 2 -0.005153 0.011876 -0.001425 0.000000 0.000000 0.000000
# 3 -0.001263 -0.001425 0.007444 0.000000 0.000000 0.000000
# 4 0.000000 0.000000 0.000000 0.033816 0.000000 0.000000
# 5 0.000000 0.000000 0.000000 0.000000 0.015299 0.000000
# 6 0.000000 0.000000 0.000000 0.000000 0.000000 0.027220
#
#
# Mechanical properties :
#
#
# Convention : Reuss Voigt Hill
#
# Bulk Modulus (GPa) = 69.79132 69.94673 69.86902
# Shear Modulus (GPa) = 39.43014 43.82060 41.62537
#
# Velocity S-wave (km/s) = 3.83695 4.04494 3.94232
# Velocity P-wave (km/s) = 6.75928 6.92327 6.84177
#
# Compressibility (1/GPa) = 0.01432843
#
# Stress axis : x y z
#
# Youngs Moduli (GPa) = 93.52910 84.20199 134.33869
#
# Poissons Ratio (x) = 0.43393 0.16973
# Poissons Ratio (y) = 0.48200 0.19141
# Poissons Ratio (z) = 0.11817 0.11997
#
# Static dielectric constant tensor:
#      x y z
#    x 2.064580 0.000000 0.000000 
#    y 0.000000 2.289030 0.000000 
#    z 0.000000 0.000000 2.106530 
# 
# From -- ./inp_files/24966.got.cif
#   From: 2010.05.17/outbox.cif.g08.bks.cpg/sg23_13_cif.got.tgz:24966.got - 2010.06.04 12:02:01.
