data_PCOD9332085
_publ_section_title
;
Structure prediction by ZEFSAII (Michael W. Deem and Ramdas Pophale) SiO2 
 PCOD9332085
Probable space group: I 2 2 2
;
_chemical_formula_sum "Si O2"
_cell_formula_units_Z 64
_cell_length_a 21.445437
_cell_length_b 9.659868
_cell_length_c 16.664771
_cell_angle_alpha 90.000000
_cell_angle_beta 90.000000
_cell_angle_gamma 90.000000
_cell_volume 3452.275471
_symmetry_space_group_name_H-M "I 2 2 2"
_symmetry_group_IT_number 23
_symmetry_cell_setting 'orthorhombic'
loop_
_space_group_symop_operation_xyz
x,y,z
-x,-y,z
x,-y,-z
-x,y,-z
1/2+x,1/2+y,1/2+z
1/2-x,1/2-y,1/2+z
1/2+x,1/2-y,1/2-z
1/2-x,1/2+y,1/2-z
loop_
_atom_site_type_symbol
_atom_site_label
_atom_site_fract_x
_atom_site_fract_y
_atom_site_fract_z
Si Si1 0.764601 0.655543 0.974005
Si Si2 0.429214 0.520064 0.844724
Si Si3 0.134852 0.249734 0.406748
Si Si4 0.060874 0.698764 0.445564
Si Si5 0.628406 0.023870 0.828588
Si Si6 0.693106 0.457185 0.736771
Si Si7 0.741499 0.409911 0.418735
Si Si8 0.697059 0.142640 0.690675
O O1 0.705250 0.709144 0.923663
O O2 0.815966 0.654462 0.904017
O O3 0.752174 0.500000 0.000000
O O4 0.772265 0.755308 0.050088
O O5 0.500000 0.500000 0.814018
O O6 0.408059 0.383150 0.892819
O O7 0.431058 0.651647 0.904184
O O8 0.374185 0.538308 0.779630
O O9 0.114146 0.322711 0.488499
O O10 0.128040 0.358946 0.335614
O O11 0.070118 0.588844 0.375023
O O12 0.000000 0.687928 0.500000
O O13 0.690827 0.074289 0.876631
O O14 0.639064 0.081745 0.740351
O O15 0.695600 0.530940 0.649658
O O16 0.710802 0.296387 0.724562
O O17 0.745188 0.538731 0.789234
O O18 0.739440 0.500000 0.500000
#
# Coordination Sequence:
#
# PCOD9332085 Si02
#       8
#     8   8   8   8   8   8   8   8
#     4  12  23  35  59  89 120 154 201 250 320 382
#     4  12  25  42  57  85 123 171 212 253 301 371
#     4  12  23  36  54  82 122 162 204 252 299 362
#     4  12  23  39  58  82 119 166 211 245 287 360
#     4  11  23  38  57  83 127 161 199 254 306 372
#     4  11  24  38  62  85 126 164 202 257 322 375
#     4  11  20  38  58  86 119 153 196 252 313 363
#     4  11  23  38  57  91 123 161 199 258 323 374
#
# _framework density 18.538497
#
# number of rings (size 3 to 8) (size 9 to 14) (size 15 to 20)
#    0.000    0.500    7.500    2.250    3.500    1.000 
#    0.000    0.000    0.000    0.375    0.000    0.000 
#    0.000    0.000    0.000    0.000    0.000    0.000 
#
# Total GULP energy -178713.716104 kJ/mol
# GULP energy per Si atom -5584.803628 kJ/mol
# Density = 1.849630 g / cm^3
# Si number density = 18.538497 Si / 1000 Ang^3
#
#
#
# Elastic Constant Matrix: (Units=GPa)
#
#
# Indices 1 2 3 4 5 6 
#
# 1 62.8497 17.7755 24.4126 0.0000 0.0000 0.0000
# 2 17.7755 114.4213 10.1660 0.0000 0.0000 0.0000
# 3 24.4126 10.1660 52.9127 0.0000 0.0000 0.0000
# 4 0.0000 0.0000 0.0000 25.5750 0.0000 0.0000
# 5 0.0000 0.0000 0.0000 0.0000 29.2636 0.0000
# 6 0.0000 0.0000 0.0000 0.0000 0.0000 13.6187
#
#
#
# Elastic Compliance Matrix: (Units=1/GPa)
#
#
# Indices 1 2 3 4 5 6 
#
# 1 0.019974 -0.002324 -0.008769 0.000000 0.000000 0.000000
# 2 -0.002324 0.009162 -0.000688 0.000000 0.000000 0.000000
# 3 -0.008769 -0.000688 0.023077 0.000000 0.000000 0.000000
# 4 0.000000 0.000000 0.000000 0.039101 0.000000 0.000000
# 5 0.000000 0.000000 0.000000 0.000000 0.034172 0.000000
# 6 0.000000 0.000000 0.000000 0.000000 0.000000 0.073429
#
#
# Mechanical properties :
#
#
# Convention : Reuss Voigt Hill
#
# Bulk Modulus (GPa) = 34.90277 37.21020 36.05649
# Shear Modulus (GPa) = 21.54918 25.54678 23.54798
#
# Velocity S-wave (km/s) = 3.41310 3.71622 3.56788
# Velocity P-wave (km/s) = 5.86518 6.20719 6.03861
#
# Compressibility (1/GPa) = 0.02865102
#
# Stress axis : x y z
#
# Youngs Moduli (GPa) = 50.06395 109.14904 43.33294
#
# Poissons Ratio (x) = 0.25366 0.38000
# Poissons Ratio (y) = 0.11635 0.02981
# Poissons Ratio (z) = 0.43902 0.07510
#
# Static dielectric constant tensor:
#      x y z
#    x 1.710830 0.000000 0.000000 
#    y 0.000000 1.704850 0.000000 
#    z 0.000000 0.000000 1.682940 
# 
# From -- ./inp_files/24001.got.cif
#   From: 2010.05.17/outbox.cif.g08.bks.cpg/sg23_13_cif.got.tgz:24001.got - 2010.06.04 12:02:01.
