data_PCOD9332717
_publ_section_title
;
Structure prediction by ZEFSAII (Michael W. Deem and Ramdas Pophale) SiO2 
 PCOD9332717
Probable space group: I 21 21 21
;
_chemical_formula_sum "Si O2"
_cell_formula_units_Z 48
_cell_length_a 8.393172
_cell_length_b 14.409487
_cell_length_c 14.110672
_cell_angle_alpha 90.000000
_cell_angle_beta 90.000000
_cell_angle_gamma 90.000000
_cell_volume 1706.563055
_symmetry_space_group_name_H-M "I 21 21 21"
_symmetry_group_IT_number 24
_symmetry_cell_setting 'orthorhombic'
loop_
_space_group_symop_operation_xyz
x,y,z
-x,1/2-y,z
x,-y,1/2-z
1/2-x,y,-z
1/2+x,1/2+y,1/2+z
1/2-x,-y,1/2+z
1/2+x,1/2-y,-z
-x,1/2+y,1/2-z
loop_
_atom_site_type_symbol
_atom_site_label
_atom_site_fract_x
_atom_site_fract_y
_atom_site_fract_z
Si Si1 0.998449 0.136909 0.030758
Si Si2 0.182726 0.365462 0.855364
Si Si3 0.769813 0.656594 0.320548
Si Si4 0.154827 0.867613 0.870534
Si Si5 0.022403 0.915734 0.172963
Si Si6 0.687572 0.142887 0.364469
O O1 0.844037 0.104598 0.090642
O O2 0.000000 0.250000 0.034060
O O3 0.155957 0.110334 0.087270
O O4 0.963392 0.108706 0.923371
O O5 0.196740 0.253591 0.851570
O O6 0.183267 0.388378 0.745902
O O7 0.653212 0.611778 0.243839
O O8 0.923328 0.664056 0.249036
O O9 0.323059 0.913384 0.896099
O O10 0.178266 0.754985 0.876947
O O11 0.979748 0.891532 0.906889
O O12 0.864461 0.892625 0.114158
O O13 0.014447 0.000000 0.250000
#
# Coordination Sequence:
#
# PCOD9332717 Si02
#       6
#     8   8   8   8   8   8
#     4   9  15  20  34  54  79 105 136 168 211 243
#     4   9  15  22  36  57  76 106 134 176 215 243
#     4   8  16  28  34  53  82 104 136 185 209 246
#     4   8  18  27  44  58  78 102 139 183 226 245
#     4  10  19  29  43  55  76 111 146 186 225 262
#     4  10  16  29  44  57  78 106 136 186 226 253
#
# _framework density 28.126708000000001
#
# number of rings (size 3 to 8) (size 9 to 14) (size 15 to 20)
#    1.000    2.000    1.667    0.500    7.000    0.667 
#    0.000    0.000    0.000    0.000    0.000    0.000 
#    0.000    0.000    0.000    0.000    0.000    0.000 
#
# Total GULP energy -133827.832507 kJ/mol
# GULP energy per Si atom -5576.159688 kJ/mol
# Density = 2.806269 g / cm^3
# Si number density = 28.126708 Si / 1000 Ang^3
#
#
#
# Elastic Constant Matrix: (Units=GPa)
#
#
# Indices 1 2 3 4 5 6 
#
# 1 247.9791 42.3302 40.5782 0.0000 0.0000 0.0000
# 2 42.3302 141.5334 -7.7457 0.0000 0.0000 0.0000
# 3 40.5782 -7.7457 108.1105 0.0000 0.0000 0.0000
# 4 0.0000 0.0000 0.0000 2.7869 0.0000 0.0000
# 5 0.0000 0.0000 0.0000 0.0000 22.4312 0.0000
# 6 0.0000 0.0000 0.0000 0.0000 0.0000 -16.9320
#
#
#
# Elastic Compliance Matrix: (Units=1/GPa)
#
#
# Indices 1 2 3 4 5 6 
#
# 1 0.004582 -0.001470 -0.001825 0.000000 0.000000 0.000000
# 2 -0.001470 0.007565 0.001094 0.000000 0.000000 0.000000
# 3 -0.001825 0.001094 0.010013 0.000000 0.000000 0.000000
# 4 0.000000 0.000000 0.000000 0.358817 0.000000 0.000000
# 5 0.000000 0.000000 0.000000 0.000000 0.044581 0.000000
# 6 0.000000 0.000000 0.000000 0.000000 0.000000 -0.059060
#
#
# Mechanical properties :
#
#
# Convention : Reuss Voigt Hill
#
# Bulk Modulus (GPa) = 56.31525 71.99427 64.15476
# Shear Modulus (GPa) = 13.26889 29.82125 21.54507
#
# Velocity S-wave (km/s) = 2.17435 3.25968 2.77067
# Velocity P-wave (km/s) = 5.13509 6.31025 5.75276
#
# Compressibility (1/GPa) = 0.01775718
#
# Stress axis : x y z
#
# Youngs Moduli (GPa) = 218.23260 132.18601 99.86758
#
# Poissons Ratio (x) = 0.19436 0.18228
# Poissons Ratio (y) = 0.32088 -0.10925
# Poissons Ratio (z) = 0.39833 -0.14460
#
# Static dielectric constant tensor:
#      x y z
#    x 2.331770 0.000000 0.000000 
#    y 0.000000 2.202330 0.000000 
#    z 0.000000 0.000000 2.204690 
# 
# From -- ./inp_files/36833.got.cif
#   From: 2010.05.17/outbox.cif.g08.bks.cpg/sg24_19_cif.got.tgz:36833.got - 2010.06.04 00:33:39.
