data_PCOD9332997
_publ_section_title
;
Structure prediction by ZEFSAII (Michael W. Deem and Ramdas Pophale) SiO2 
 PCOD9332997
Probable space group: I 21 21 21
;
_chemical_formula_sum "Si O2"
_cell_formula_units_Z 44
_cell_length_a 6.689825
_cell_length_b 24.020990
_cell_length_c 11.308857
_cell_angle_alpha 90.000000
_cell_angle_beta 90.000000
_cell_angle_gamma 90.000000
_cell_volume 1817.290566
_symmetry_space_group_name_H-M "I 21 21 21"
_symmetry_group_IT_number 24
_symmetry_cell_setting 'orthorhombic'
loop_
_space_group_symop_operation_xyz
x,y,z
-x,1/2-y,z
x,-y,1/2-z
1/2-x,y,-z
1/2+x,1/2+y,1/2+z
1/2-x,-y,1/2+z
1/2+x,1/2-y,-z
-x,1/2+y,1/2-z
loop_
_atom_site_type_symbol
_atom_site_label
_atom_site_fract_x
_atom_site_fract_y
_atom_site_fract_z
Si Si1 0.956209 0.186493 0.158513
Si Si2 0.500000 0.750000 0.199713
Si Si3 0.602629 0.101272 0.647909
Si Si4 0.250000 0.693111 0.000000
Si Si5 0.970486 0.944167 0.703316
Si Si6 0.250000 0.508653 0.000000
Si Si7 0.979206 0.332294 0.892231
O O1 0.001055 0.132283 0.241169
O O2 0.717970 0.177534 0.132794
O O3 0.000000 0.250000 0.201084
O O4 0.051572 0.182279 0.028259
O O5 0.396718 0.793607 0.288270
O O6 0.338292 0.725389 0.109898
O O7 0.589342 0.151150 0.554006
O O8 0.826653 0.084916 0.698078
O O9 0.921521 0.046716 0.435328
O O10 0.827385 0.969666 0.603739
O O11 0.082168 0.894731 0.638892
O O12 0.079561 0.000000 0.750000
#
# Coordination Sequence:
#
# PCOD9332997 Si02
#       7
#     8   4   8   4   8   4   8
#     4  10  18  31  52  74 110 152 177 227 273 325
#     4  12  22  38  52  78 116 154 180 238 276 340
#     4   9  18  30  43  78 107 141 178 222 268 345
#     4  11  22  34  54  74 118 152 179 228 282 328
#     4   9  15  28  47  68 103 140 172 221 284 325
#     4   9  16  26  48  70 110 148 163 224 288 338
#     4  10  20  34  51  79 110 141 192 228 271 339
#
# _framework density 24.211870000000001
#
# number of rings (size 3 to 8) (size 9 to 14) (size 15 to 20)
#    0.000    2.182    4.545    2.182    1.273    0.000 
#    0.000    0.000    0.000    0.000    0.000    0.000 
#    5.455    7.273    0.000    0.000    0.000    0.000 
#
# Total GULP energy -122471.279514 kJ/mol
# GULP energy per Si atom -5566.876342 kJ/mol
# Density = 2.415676 g / cm^3
# Si number density = 24.211870 Si / 1000 Ang^3
#
#
#
# Elastic Constant Matrix: (Units=GPa)
#
#
# Indices 1 2 3 4 5 6 
#
# 1 53.8524 10.7305 8.2543 -0.0001 0.0000 0.0000
# 2 10.7305 176.1037 69.4627 0.0000 0.0000 0.0000
# 3 8.2543 69.4627 175.4612 -0.0005 -0.0001 0.0000
# 4 -0.0001 0.0000 -0.0005 37.5317 0.0000 0.0000
# 5 0.0000 0.0000 -0.0001 0.0000 17.8451 0.0000
# 6 0.0000 0.0000 0.0000 0.0000 0.0000 13.1512
#
#
#
# Elastic Compliance Matrix: (Units=1/GPa)
#
#
# Indices 1 2 3 4 5 6 
#
# 1 0.018836 -0.000946 -0.000512 0.000000 0.000000 0.000000
# 2 -0.000946 0.006777 -0.002638 0.000000 0.000000 0.000000
# 3 -0.000512 -0.002638 0.006768 0.000000 0.000000 0.000000
# 4 0.000000 0.000000 0.000000 0.026644 0.000000 0.000000
# 5 0.000000 0.000000 0.000000 0.000000 0.056038 0.000000
# 6 0.000000 0.000000 0.000000 0.000000 0.000000 0.076038
#
#
# Mechanical properties :
#
#
# Convention : Reuss Voigt Hill
#
# Bulk Modulus (GPa) = 41.34116 64.70136 53.02126
# Shear Modulus (GPa) = 24.11313 34.83693 29.47503
#
# Velocity S-wave (km/s) = 3.15925 3.79732 3.49288
# Velocity P-wave (km/s) = 5.51540 6.78286 6.18170
#
# Compressibility (1/GPa) = 0.02418897
#
# Stress axis : x y z
#
# Youngs Moduli (GPa) = 53.08933 147.56273 147.75818
#
# Poissons Ratio (x) = 0.13958 0.07560
# Poissons Ratio (y) = 0.05022 0.38984
# Poissons Ratio (z) = 0.02716 0.38932
#
# Static dielectric constant tensor:
#      x y z
#    x 2.100080 0.000000 0.000000 
#    y 0.000000 1.992850 0.000000 
#    z 0.000000 0.000000 1.958860 
# 
# From -- ./inp_files/18562.got.cif
#   From: 2010.05.17/outbox.cif.g08.bks.cpg/sg24_10_cif.got.tgz:18562.got - 2010.06.04 00:33:39.
