data_PCOD9332714
_publ_section_title
;
Structure prediction by ZEFSAII (Michael W. Deem and Ramdas Pophale) SiO2 
 PCOD9332714
Probable space group: I 21 21 21
;
_chemical_formula_sum "Si O2"
_cell_formula_units_Z 36
_cell_length_a 39.668907
_cell_length_b 5.457810
_cell_length_c 7.534573
_cell_angle_alpha 90.000000
_cell_angle_beta 90.000000
_cell_angle_gamma 90.000000
_cell_volume 1631.275420
_symmetry_space_group_name_H-M "I 21 21 21"
_symmetry_group_IT_number 24
_symmetry_cell_setting 'orthorhombic'
loop_
_space_group_symop_operation_xyz
x,y,z
-x,1/2-y,z
x,-y,1/2-z
1/2-x,y,-z
1/2+x,1/2+y,1/2+z
1/2-x,-y,1/2+z
1/2+x,1/2-y,-z
-x,1/2+y,1/2-z
loop_
_atom_site_type_symbol
_atom_site_label
_atom_site_fract_x
_atom_site_fract_y
_atom_site_fract_z
Si Si1 0.818017 0.630334 0.057077
Si Si2 0.081540 0.698813 0.550030
Si Si3 0.392394 0.199872 0.451489
Si Si4 0.980073 0.000000 0.750000
Si Si5 0.750000 0.627371 0.500000
Si Si6 0.218780 0.500000 0.250000
O O1 0.822726 0.500000 0.250000
O O2 0.805645 0.904896 0.096718
O O3 0.853369 0.628031 0.960814
O O4 0.784945 0.512898 0.971326
O O5 0.101063 0.468808 0.464668
O O6 0.096425 0.751135 0.748353
O O7 0.044100 0.598728 0.591130
O O8 0.086458 0.970016 0.470286
O O9 0.000000 0.750000 0.801569
O O10 0.758029 0.790741 0.328695
#
# Coordination Sequence:
#
# PCOD9332714 Si02
#       6
#     8   8   8   4   4   4
#     4  10  22  38  56  77 104 144 189 241 300 352
#     4   9  19  34  50  85 116 142 190 223 266 351
#     4   9  18  35  51  74 111 145 179 235 272 330
#     4  10  16  28  53  80 122 158 174 216 278 334
#     4  10  22  42  56  80 106 138 192 254 302 378
#     4  10  22  42  55  76 108 136 190 254 296 376
#
# _framework density 22.068624
#
# number of rings (size 3 to 8) (size 9 to 14) (size 15 to 20)
#    0.000    2.667    0.000    3.333    6.222    0.000 
#   20.000    0.000    0.000    0.000    0.000    0.000 
#    0.000   78.222    0.000    0.000    0.000    0.000 
#
# Total GULP energy -100270.424571 kJ/mol
# GULP energy per Si atom -5570.579143 kJ/mol
# Density = 2.201840 g / cm^3
# Si number density = 22.068624 Si / 1000 Ang^3
#
#
#
# Elastic Constant Matrix: (Units=GPa)
#
#
# Indices 1 2 3 4 5 6 
#
# 1 150.9736 68.6061 17.6262 0.0000 0.0000 0.0000
# 2 68.6061 190.3934 7.1552 0.0000 0.0000 0.0000
# 3 17.6262 7.1552 39.5614 0.0000 0.0000 0.0000
# 4 0.0000 0.0000 0.0000 7.8460 0.0000 0.0000
# 5 0.0000 0.0000 0.0000 0.0000 7.3185 0.0000
# 6 0.0000 0.0000 0.0000 0.0000 0.0000 11.9080
#
#
#
# Elastic Compliance Matrix: (Units=1/GPa)
#
#
# Indices 1 2 3 4 5 6 
#
# 1 0.008299 -0.002871 -0.003178 0.000000 0.000000 0.000000
# 2 -0.002871 0.006282 0.000143 0.000000 0.000000 0.000000
# 3 -0.003178 0.000143 0.026667 0.000000 0.000000 0.000000
# 4 0.000000 0.000000 0.000000 0.127453 0.000000 0.000000
# 5 0.000000 0.000000 0.000000 0.000000 0.136639 0.000000
# 6 0.000000 0.000000 0.000000 0.000000 0.000000 0.083977
#
#
# Mechanical properties :
#
#
# Convention : Reuss Voigt Hill
#
# Bulk Modulus (GPa) = 33.97270 63.07814 48.52542
# Shear Modulus (GPa) = 12.16714 24.58390 18.37552
#
# Velocity S-wave (km/s) = 2.35059 3.34125 2.88870
# Velocity P-wave (km/s) = 4.77437 6.59773 5.75867
#
# Compressibility (1/GPa) = 0.02943540
#
# Stress axis : x y z
#
# Youngs Moduli (GPa) = 120.48928 159.19763 37.49893
#
# Poissons Ratio (x) = 0.45708 0.11919
# Poissons Ratio (y) = 0.34595 -0.00537
# Poissons Ratio (z) = 0.38297 -0.02279
#
# Static dielectric constant tensor:
#      x y z
#    x 1.807990 0.000000 0.000000 
#    y 0.000000 2.056320 0.000000 
#    z 0.000000 0.000000 1.909000 
# 
# From -- ./inp_files/23062.got.cif
#   From: 2010.05.17/outbox.cif.g08.bks.cpg/sg24_12_cif.got.tgz:23062.got - 2010.06.04 00:33:39.
