data_PCOD9332770
_publ_section_title
;
Structure prediction by ZEFSAII (Michael W. Deem and Ramdas Pophale) SiO2 
 PCOD9332770
Probable space group: I 21 21 21
;
_chemical_formula_sum "Si O2"
_cell_formula_units_Z 40
_cell_length_a 8.883140
_cell_length_b 8.712788
_cell_length_c 24.486358
_cell_angle_alpha 90.000000
_cell_angle_beta 90.000000
_cell_angle_gamma 90.000000
_cell_volume 1895.168583
_symmetry_space_group_name_H-M "I 21 21 21"
_symmetry_group_IT_number 24
_symmetry_cell_setting 'orthorhombic'
loop_
_space_group_symop_operation_xyz
x,y,z
-x,1/2-y,z
x,-y,1/2-z
1/2-x,y,-z
1/2+x,1/2+y,1/2+z
1/2-x,-y,1/2+z
1/2+x,1/2-y,-z
-x,1/2+y,1/2-z
loop_
_atom_site_type_symbol
_atom_site_label
_atom_site_fract_x
_atom_site_fract_y
_atom_site_fract_z
Si Si1 0.206188 0.516745 0.612651
Si Si2 0.538049 0.926789 0.804940
Si Si3 0.674609 0.299936 0.053618
Si Si4 0.500000 0.750000 0.314804
Si Si5 0.704593 0.486209 0.167423
Si Si6 0.500000 0.250000 0.372627
O O1 0.345500 0.453464 0.646478
O O2 0.255459 0.637482 0.567023
O O3 0.102580 0.625792 0.651856
O O4 0.101211 0.374250 0.595353
O O5 0.500000 0.750000 0.796573
O O6 0.603489 0.000000 0.750000
O O7 0.377920 0.003162 0.817951
O O8 0.500000 0.250000 0.045786
O O9 0.691948 0.409777 0.106379
O O10 0.750000 0.368896 0.000000
O O11 0.623194 0.634199 0.291549
O O12 0.616142 0.646963 0.162614
#
# Coordination Sequence:
#
# PCOD9332770 Si02
#       6
#     8   8   8   4   8   4
#     4  10  20  42  66  88 132 170 215 276 331 391
#     4  12  28  42  63  99 133 178 226 281 347 396
#     4  11  23  40  67 100 126 175 225 265 338 405
#     4   8  18  36  67  86 108 176 206 250 327 376
#     4  10  20  42  66  88 132 170 215 276 331 391
#     4  10  16  40  67  80 120 172 208 266 319 398
#
# _framework density 21.106301999999999
#
# number of rings (size 3 to 8) (size 9 to 14) (size 15 to 20)
#    0.000    1.600    8.000    0.000    8.400    0.000 
#    0.000    7.000    4.400    0.000    0.000    0.000 
#    0.000    0.000    0.000    0.000    0.000    0.000 
#
# Total GULP energy -111465.072163 kJ/mol
# GULP energy per Si atom -5573.253608 kJ/mol
# Density = 2.105826 g / cm^3
# Si number density = 21.106302 Si / 1000 Ang^3
#
#
#
# Elastic Constant Matrix: (Units=GPa)
#
#
# Indices 1 2 3 4 5 6 
#
# 1 72.4426 13.8675 8.5849 0.0000 0.0000 0.0000
# 2 13.8675 114.6047 13.1328 0.0000 0.0000 0.0000
# 3 8.5849 13.1328 72.1255 0.0000 0.0000 0.0000
# 4 0.0000 0.0000 0.0000 22.8475 0.0000 0.0000
# 5 0.0000 0.0000 0.0000 0.0000 -21.7046 0.0000
# 6 0.0000 0.0000 0.0000 0.0000 0.0000 31.6809
#
#
#
# Elastic Compliance Matrix: (Units=1/GPa)
#
#
# Indices 1 2 3 4 5 6 
#
# 1 0.014271 -0.001565 -0.001414 0.000000 0.000000 0.000000
# 2 -0.001565 0.009083 -0.001468 0.000000 0.000000 0.000000
# 3 -0.001414 -0.001468 0.014300 0.000000 0.000000 0.000000
# 4 0.000000 0.000000 0.000000 0.043769 0.000000 0.000000
# 5 0.000000 0.000000 0.000000 0.000000 -0.046073 0.000000
# 6 0.000000 0.000000 0.000000 0.000000 0.000000 0.031565
#
#
# Mechanical properties :
#
#
# Convention : Reuss Voigt Hill
#
# Bulk Modulus (GPa) = 34.76792 36.70478 35.73635
# Shear Modulus (GPa) = 58.55187 21.47060 40.01124
#
# Velocity S-wave (km/s) = 5.27273 3.19291 4.35869
# Velocity P-wave (km/s) = 7.31966 5.56966 6.50379
#
# Compressibility (1/GPa) = 0.02876215
#
# Stress axis : x y z
#
# Youngs Moduli (GPa) = 70.07155 110.09370 69.92896
#
# Poissons Ratio (x) = 0.17228 0.09886
# Poissons Ratio (y) = 0.10965 0.10263
# Poissons Ratio (z) = 0.09906 0.16158
#
# Static dielectric constant tensor:
#      x y z
#    x 1.781550 0.000000 0.000000 
#    y 0.000000 1.827870 0.000000 
#    z 0.000000 0.000000 1.778760 
# 
# From -- ./inp_files/36790.got.cif
#   From: 2010.05.17/outbox.cif.g08.bks.cpg/sg24_19_cif.got.tgz:36790.got - 2010.06.04 00:33:39.
