data_PCOD9332482
_publ_section_title
;
Structure prediction by ZEFSAII (Michael W. Deem and Ramdas Pophale) SiO2 
 PCOD9332482
Probable space group: I 2 2 2
;
_chemical_formula_sum "Si O2"
_cell_formula_units_Z 36
_cell_length_a 6.836552
_cell_length_b 24.693016
_cell_length_c 10.426747
_cell_angle_alpha 90.000000
_cell_angle_beta 90.000000
_cell_angle_gamma 90.000000
_cell_volume 1760.192212
_symmetry_space_group_name_H-M "I 2 2 2"
_symmetry_group_IT_number 23
_symmetry_cell_setting 'orthorhombic'
loop_
_space_group_symop_operation_xyz
x,y,z
-x,-y,z
x,-y,-z
-x,y,-z
1/2+x,1/2+y,1/2+z
1/2-x,1/2-y,1/2+z
1/2+x,1/2-y,1/2-z
1/2-x,1/2+y,1/2-z
loop_
_atom_site_type_symbol
_atom_site_label
_atom_site_fract_x
_atom_site_fract_y
_atom_site_fract_z
Si Si1 0.830531 0.826799 0.693931
Si Si2 0.000000 0.085100 0.500000
Si Si3 0.516850 0.869519 0.139418
Si Si4 0.643757 0.282063 0.381205
Si Si5 0.612287 0.056686 0.622144
O O1 0.896140 0.875183 0.602280
O O2 0.690385 0.849093 0.806257
O O3 0.710014 0.780147 0.621649
O O4 0.019693 0.798043 0.755497
O O5 0.164837 0.052087 0.423804
O O6 0.665217 0.819696 0.117968
O O7 0.599504 0.907815 0.250872
O O8 0.500000 0.896755 0.000000
O O9 0.500000 0.291751 0.500000
O O10 0.500000 0.082934 0.500000
O O11 0.500000 0.000000 0.642730
#
# Coordination Sequence:
#
# PCOD9332482 Si02
#       5
#     8   4   8   8   8
#     4  12  26  40  65 102 147 193 233 291 345 429
#     4  12  26  45  74 106 142 182 243 302 360 424
#     4  12  25  45  68 103 146 189 235 294 360 428
#     4  12  26  40  63 101 148 195 237 282 351 425
#     4  11  26  48  74 104 134 180 240 308 364 421
#
# _framework density 20.452310000000001
#
# number of rings (size 3 to 8) (size 9 to 14) (size 15 to 20)
#    0.000    0.222    8.889    0.000    7.778    2.222 
#    0.000    0.000    0.000    0.000    0.000    0.000 
#    0.000    0.000    0.000    0.000    0.000    0.000 
#
# Total GULP energy -100672.856665 kJ/mol
# GULP energy per Si atom -5592.936481 kJ/mol
# Density = 2.040576 g / cm^3
# Si number density = 20.452310 Si / 1000 Ang^3
#
#
#
# Elastic Constant Matrix: (Units=GPa)
#
#
# Indices 1 2 3 4 5 6 
#
# 1 120.8257 39.0461 39.6024 0.0000 0.0000 0.0000
# 2 39.0461 87.3891 45.0111 -0.0001 0.0000 0.0000
# 3 39.6024 45.0111 130.7634 -0.0003 0.0000 -0.0001
# 4 0.0000 -0.0001 -0.0003 25.5255 0.0000 0.0000
# 5 0.0000 0.0000 0.0000 0.0000 46.2939 0.0000
# 6 0.0000 0.0000 -0.0001 0.0000 0.0000 35.2664
#
#
#
# Elastic Compliance Matrix: (Units=1/GPa)
#
#
# Indices 1 2 3 4 5 6 
#
# 1 0.010015 -0.003540 -0.001815 0.000000 0.000000 0.000000
# 2 -0.003540 0.015161 -0.004146 0.000000 0.000000 0.000000
# 3 -0.001815 -0.004146 0.009624 0.000000 0.000000 0.000000
# 4 0.000000 0.000000 0.000000 0.039177 0.000000 0.000000
# 5 0.000000 0.000000 0.000000 0.000000 0.021601 0.000000
# 6 0.000000 0.000000 0.000000 0.000000 0.000000 0.028356
#
#
# Mechanical properties :
#
#
# Convention : Reuss Voigt Hill
#
# Bulk Modulus (GPa) = 63.30059 65.14416 64.22238
# Shear Modulus (GPa) = 33.73788 35.77172 34.75480
#
# Velocity S-wave (km/s) = 4.06592 4.18668 4.12674
# Velocity P-wave (km/s) = 7.28421 7.43585 7.36042
#
# Compressibility (1/GPa) = 0.01579764
#
# Stress axis : x y z
#
# Youngs Moduli (GPa) = 99.84823 65.96079 103.90489
#
# Poissons Ratio (x) = 0.23352 0.18854
# Poissons Ratio (y) = 0.35349 0.43082
# Poissons Ratio (z) = 0.18118 0.27350
#
# Static dielectric constant tensor:
#      x y z
#    x 1.745170 0.000000 0.000000 
#    y 0.000000 1.719240 0.000000 
#    z 0.000000 0.000000 1.731990 
# 
# From -- ./inp_files/4301.got.cif
#   From: 2010.05.17/outbox.cif.g08.bks.cpg/sg23_3_cif.got.tgz:4301.got - 2010.06.04 12:02:01.
