data_PCOD9332580
_publ_section_title
;
Structure prediction by ZEFSAII (Michael W. Deem and Ramdas Pophale) SiO2 
 PCOD9332580
Probable space group: I 2 2 2
;
_chemical_formula_sum "Si O2"
_cell_formula_units_Z 34
_cell_length_a 5.050062
_cell_length_b 26.251675
_cell_length_c 11.177708
_cell_angle_alpha 90.000000
_cell_angle_beta 90.000000
_cell_angle_gamma 90.000000
_cell_volume 1481.857659
_symmetry_space_group_name_H-M "I 2 2 2"
_symmetry_group_IT_number 23
_symmetry_cell_setting 'orthorhombic'
loop_
_space_group_symop_operation_xyz
x,y,z
-x,-y,z
x,-y,-z
-x,y,-z
1/2+x,1/2+y,1/2+z
1/2-x,1/2-y,1/2+z
1/2+x,1/2-y,1/2-z
1/2-x,1/2+y,1/2-z
loop_
_atom_site_type_symbol
_atom_site_label
_atom_site_fract_x
_atom_site_fract_y
_atom_site_fract_z
Si Si1 0.000000 0.814402 0.500000
Si Si2 0.284428 0.261345 0.317687
Si Si3 0.500000 0.118615 0.500000
Si Si4 0.744769 0.376346 0.584854
Si Si5 0.627440 0.947964 0.695863
Si Si6 0.500000 0.500000 0.000000
O O1 0.859456 0.778007 0.405073
O O2 0.756521 0.849728 0.540653
O O3 0.584602 0.243617 0.294947
O O4 0.281430 0.318521 0.366716
O O5 0.575641 0.086153 0.617972
O O6 0.500000 0.388445 0.500000
O O7 0.761642 0.414470 0.696785
O O8 0.000000 0.379473 0.500000
O O9 0.825364 0.966308 0.590861
O O10 0.500000 0.000000 0.743566
#
# Coordination Sequence:
#
# PCOD9332580 Si02
#       6
#     4   8   4   8   8   2
#     4  12  25  42  71 108 151 186 252 295 380 444
#     4  12  25  46  74 109 152 206 254 310 366 455
#     4  12  25  46  76 118 144 196 253 326 384 450
#     4  12  29  51  77 114 167 207 257 313 393 481
#     4  12  27  49  79 112 155 201 260 336 393 451
#     4  12  24  52  82 110 156 186 280 338 388 450
#
# _framework density 22.944174
#
# number of rings (size 3 to 8) (size 9 to 14) (size 15 to 20)
#    0.000    0.000    3.529    6.353    4.941    0.471 
#    0.000    0.000    0.000    0.000    0.000    0.000 
#    0.000    0.000    0.000    0.000    0.000    0.000 
#
# Total GULP energy -95190.823956 kJ/mol
# GULP energy per Si atom -5599.460233 kJ/mol
# Density = 2.289195 g / cm^3
# Si number density = 22.944174 Si / 1000 Ang^3
#
#
#
# Elastic Constant Matrix: (Units=GPa)
#
#
# Indices 1 2 3 4 5 6 
#
# 1 92.6873 30.1584 43.0489 0.0000 0.0000 0.0000
# 2 30.1584 152.1701 78.4910 0.0001 0.0000 0.0000
# 3 43.0489 78.4910 137.8000 0.0001 0.0000 0.0000
# 4 0.0000 0.0001 0.0001 66.7628 0.0000 0.0000
# 5 0.0000 0.0000 0.0000 0.0000 46.6960 0.0000
# 6 0.0000 0.0000 0.0000 0.0000 0.0000 29.3179
#
#
#
# Elastic Compliance Matrix: (Units=1/GPa)
#
#
# Indices 1 2 3 4 5 6 
#
# 1 0.012667 -0.000665 -0.003579 0.000000 0.000000 0.000000
# 2 -0.000665 0.009341 -0.005113 0.000000 0.000000 0.000000
# 3 -0.003579 -0.005113 0.011287 0.000000 0.000000 0.000000
# 4 0.000000 0.000000 0.000000 0.014978 0.000000 0.000000
# 5 0.000000 0.000000 0.000000 0.000000 0.021415 0.000000
# 6 0.000000 0.000000 0.000000 0.000000 0.000000 0.034109
#
#
# Mechanical properties :
#
#
# Convention : Reuss Voigt Hill
#
# Bulk Modulus (GPa) = 68.57369 76.22822 72.40095
# Shear Modulus (GPa) = 39.25556 43.95262 41.60409
#
# Velocity S-wave (km/s) = 4.14081 4.38154 4.26288
# Velocity P-wave (km/s) = 7.26731 7.67416 7.47350
#
# Compressibility (1/GPa) = 0.01458285
#
# Stress axis : x y z
#
# Youngs Moduli (GPa) = 78.94302 107.06043 88.59649
#
# Poissons Ratio (x) = 0.07115 0.31707
# Poissons Ratio (y) = 0.05246 0.45297
# Poissons Ratio (z) = 0.28252 0.54737
#
# Static dielectric constant tensor:
#      x y z
#    x 1.857240 0.000000 0.000000 
#    y 0.000000 1.919080 0.000000 
#    z 0.000000 0.000000 1.776700 
# 
# From -- ./inp_files/4272.got.cif
#   From: 2010.05.17/outbox.cif.g08.bks.cpg/sg23_3_cif.got.tgz:4272.got - 2010.06.04 12:02:01.
