data_PCOD9332513
_publ_section_title
;
Structure prediction by ZEFSAII (Michael W. Deem and Ramdas Pophale) SiO2 
 PCOD9332513
Probable space group: I 2 2 2
;
_chemical_formula_sum "Si O2"
_cell_formula_units_Z 38
_cell_length_a 9.197985
_cell_length_b 12.554423
_cell_length_c 15.622245
_cell_angle_alpha 90.000000
_cell_angle_beta 90.000000
_cell_angle_gamma 90.000000
_cell_volume 1803.984903
_symmetry_space_group_name_H-M "I 2 2 2"
_symmetry_group_IT_number 23
_symmetry_cell_setting 'orthorhombic'
loop_
_space_group_symop_operation_xyz
x,y,z
-x,-y,z
x,-y,-z
-x,y,-z
1/2+x,1/2+y,1/2+z
1/2-x,1/2-y,1/2+z
1/2+x,1/2-y,1/2-z
1/2-x,1/2+y,1/2-z
loop_
_atom_site_type_symbol
_atom_site_label
_atom_site_fract_x
_atom_site_fract_y
_atom_site_fract_z
Si Si1 0.811016 0.306605 0.073934
Si Si2 0.501978 0.352941 0.852107
Si Si3 0.000000 0.000000 0.500000
Si Si4 0.806997 0.325742 0.410311
Si Si5 0.500000 0.000000 0.000000
Si Si6 0.496361 0.381482 0.658462
Si Si7 0.000000 0.500000 0.000000
O O1 0.668689 0.342065 0.127090
O O2 0.907650 0.213804 0.118445
O O3 0.753155 0.245650 0.989033
O O4 0.900771 0.414740 0.052710
O O5 0.571886 0.422369 0.929848
O O6 0.571764 0.238413 0.859977
O O7 0.536670 0.392628 0.757944
O O8 0.670689 0.348662 0.350935
O O9 0.890917 0.427457 0.445725
O O10 0.500000 0.500000 0.617218
#
# Coordination Sequence:
#
# PCOD9332513 Si02
#       7
#     8   8   2   8   2   8   2
#     4  12  24  48  72 105 144 190 243 290 366 438
#     4  12  25  46  71 103 138 184 246 290 351 437
#     4  12  20  44  76  92 124 188 230 282 342 422
#     4  12  24  45  72 104 141 188 241 289 365 440
#     4  12  22  44  80  98 140 194 236 292 354 454
#     4  12  27  45  69 108 146 183 235 312 366 417
#     4  12  26  44  78 104 142 194 242 294 358 446
#
# _framework density 21.064478999999999
#
# number of rings (size 3 to 8) (size 9 to 14) (size 15 to 20)
#    0.000    0.000    7.368    3.158    0.000    0.842 
#    3.789    2.105    0.000    0.000    0.000    0.000 
#    0.000    0.000    0.000    0.000    0.000    0.000 
#
# Total GULP energy -106028.119740 kJ/mol
# GULP energy per Si atom -5580.427355 kJ/mol
# Density = 2.101654 g / cm^3
# Si number density = 21.064479 Si / 1000 Ang^3
#
#
#
# Elastic Constant Matrix: (Units=GPa)
#
#
# Indices 1 2 3 4 5 6 
#
# 1 112.6275 54.8065 12.0931 0.0000 0.0000 0.0000
# 2 54.8065 171.5924 33.5935 0.0000 0.0000 0.0000
# 3 12.0931 33.5935 73.2733 0.0000 0.0000 0.0000
# 4 0.0000 0.0000 0.0000 21.4520 0.0000 0.0000
# 5 0.0000 0.0000 0.0000 0.0000 25.6065 0.0000
# 6 0.0000 0.0000 0.0000 0.0000 0.0000 45.0100
#
#
#
# Elastic Compliance Matrix: (Units=1/GPa)
#
#
# Indices 1 2 3 4 5 6 
#
# 1 0.010516 -0.003317 -0.000215 0.000000 0.000000 0.000000
# 2 -0.003317 0.007448 -0.002868 0.000000 0.000000 0.000000
# 3 -0.000215 -0.002868 0.014998 0.000000 0.000000 0.000000
# 4 0.000000 0.000000 0.000000 0.046616 0.000000 0.000000
# 5 0.000000 0.000000 0.000000 0.000000 0.039053 0.000000
# 6 0.000000 0.000000 0.000000 0.000000 0.000000 0.022217
#
#
# Mechanical properties :
#
#
# Convention : Reuss Voigt Hill
#
# Bulk Modulus (GPa) = 49.59400 62.05328 55.82364
# Shear Modulus (GPa) = 31.17846 35.54704 33.36275
#
# Velocity S-wave (km/s) = 3.85144 4.11242 3.98407
# Velocity P-wave (km/s) = 6.58583 7.21609 6.90815
#
# Compressibility (1/GPa) = 0.02016373
#
# Stress axis : x y z
#
# Youngs Moduli (GPa) = 95.09451 134.25529 66.67705
#
# Poissons Ratio (x) = 0.44528 0.01433
# Poissons Ratio (y) = 0.31540 0.19120
# Poissons Ratio (z) = 0.02044 0.38498
#
# Static dielectric constant tensor:
#      x y z
#    x 1.739390 0.000000 0.000000 
#    y 0.000000 1.658400 0.000000 
#    z 0.000000 0.000000 1.773180 
# 
# From -- ./inp_files/8278.got.cif
#   From: 2010.05.17/outbox.cif.g08.bks.cpg/sg23_5_cif.got.tgz:8278.got - 2010.06.04 12:02:01.
