data_PCOD9332063
_publ_section_title
;
Structure prediction by ZEFSAII (Michael W. Deem and Ramdas Pophale) SiO2 
 PCOD9332063
Probable space group: I 2 2 2
;
_chemical_formula_sum "Si O2"
_cell_formula_units_Z 56
_cell_length_a 19.451443
_cell_length_b 7.147319
_cell_length_c 21.613426
_cell_angle_alpha 90.000000
_cell_angle_beta 90.000000
_cell_angle_gamma 90.000000
_cell_volume 3004.820990
_symmetry_space_group_name_H-M "I 2 2 2"
_symmetry_group_IT_number 23
_symmetry_cell_setting 'orthorhombic'
loop_
_space_group_symop_operation_xyz
x,y,z
-x,-y,z
x,-y,-z
-x,y,-z
1/2+x,1/2+y,1/2+z
1/2-x,1/2-y,1/2+z
1/2+x,1/2-y,1/2-z
1/2-x,1/2+y,1/2-z
loop_
_atom_site_type_symbol
_atom_site_label
_atom_site_fract_x
_atom_site_fract_y
_atom_site_fract_z
Si Si1 0.436558 0.754280 0.278696
Si Si2 0.415564 0.313436 0.313025
Si Si3 0.315063 0.801098 0.364381
Si Si4 0.738472 0.619000 0.940794
Si Si5 0.833416 0.767098 0.322002
Si Si6 0.217187 0.145687 0.744390
Si Si7 0.646988 0.573318 0.437108
O O1 0.426985 0.532088 0.294109
O O2 0.516297 0.791563 0.291038
O O3 0.385294 0.849374 0.327957
O O4 0.405774 0.786187 0.209780
O O5 0.347114 0.252978 0.276278
O O6 0.399961 0.320580 0.386348
O O7 0.258329 0.764364 0.312023
O O8 0.326977 0.613556 0.402851
O O9 0.286718 0.971650 0.404238
O O10 0.678786 0.691392 0.894200
O O11 0.788907 0.793167 0.954964
O O12 0.713710 0.500000 0.000000
O O13 0.774151 0.627563 0.298165
O O14 0.811220 0.957674 0.286683
O O15 0.612023 0.500000 0.500000
#
# Coordination Sequence:
#
# PCOD9332063 Si02
#       7
#     8   8   8   8   8   8   8
#     4   8  16  31  51  74 103 130 170 216 264 304
#     4   9  16  30  51  77  99 139 171 207 260 311
#     4   9  19  33  50  75 101 131 172 220 255 305
#     4  11  20  32  51  75 105 134 175 213 248 301
#     4   9  17  29  49  74  97 130 166 221 261 301
#     4   9  16  28  50  74  97 126 167 218 269 298
#     4  11  20  33  52  72 105 144 174 203 248 305
#
# _framework density 18.636717000000001
#
# number of rings (size 3 to 8) (size 9 to 14) (size 15 to 20)
#    0.000    2.571    2.857    0.857    0.000    0.000 
#    0.000    6.429    0.000    0.857    0.000   18.000 
#    0.000    1.143    0.000    0.000    0.000    0.000 
#
# Total GULP energy -155962.936998 kJ/mol
# GULP energy per Si atom -5570.104893 kJ/mol
# Density = 1.859430 g / cm^3
# Si number density = 18.636717 Si / 1000 Ang^3
#
#
#
# Elastic Constant Matrix: (Units=GPa)
#
#
# Indices 1 2 3 4 5 6 
#
# 1 107.6637 2.8537 56.6077 0.0000 0.0000 0.0000
# 2 2.8537 35.5056 1.5829 0.0000 0.0000 0.0000
# 3 56.6077 1.5829 99.9256 0.0000 0.0000 0.0000
# 4 0.0000 0.0000 0.0000 27.0799 0.0000 0.0000
# 5 0.0000 0.0000 0.0000 0.0000 17.1289 0.0000
# 6 0.0000 0.0000 0.0000 0.0000 0.0000 14.6877
#
#
#
# Elastic Compliance Matrix: (Units=1/GPa)
#
#
# Indices 1 2 3 4 5 6 
#
# 1 0.013247 -0.000731 -0.007493 0.000000 0.000000 0.000000
# 2 -0.000731 0.028225 -0.000033 0.000000 0.000000 0.000000
# 3 -0.007493 -0.000033 0.014253 0.000000 0.000000 0.000000
# 4 0.000000 0.000000 0.000000 0.036928 0.000000 0.000000
# 5 0.000000 0.000000 0.000000 0.000000 0.058381 0.000000
# 6 0.000000 0.000000 0.000000 0.000000 0.000000 0.068084
#
#
# Mechanical properties :
#
#
# Convention : Reuss Voigt Hill
#
# Bulk Modulus (GPa) = 25.50300 40.57596 33.03948
# Shear Modulus (GPa) = 20.10444 23.91602 22.01023
#
# Velocity S-wave (km/s) = 3.28800 3.58617 3.44032
# Velocity P-wave (km/s) = 5.30364 6.24234 5.79204
#
# Compressibility (1/GPa) = 0.03921108
#
# Stress axis : x y z
#
# Youngs Moduli (GPa) = 75.48758 35.42989 70.16204
#
# Poissons Ratio (x) = 0.02589 0.52572
# Poissons Ratio (y) = 0.05516 0.00233
# Poissons Ratio (z) = 0.56563 0.00118
#
# Static dielectric constant tensor:
#      x y z
#    x 1.662810 0.000000 0.000000 
#    y 0.000000 1.760220 0.000000 
#    z 0.000000 0.000000 1.676220 
# 
# From -- ./inp_files/23945.got.cif
#   From: 2010.05.17/outbox.cif.g08.bks.cpg/sg23_12_cif.got.tgz:23945.got - 2010.06.04 12:02:01.
