data_PCOD9332121
_publ_section_title
;
Structure prediction by ZEFSAII (Michael W. Deem and Ramdas Pophale) SiO2 
 PCOD9332121
Probable space group: I 2 2 2
;
_chemical_formula_sum "Si O2"
_cell_formula_units_Z 56
_cell_length_a 9.405594
_cell_length_b 13.842892
_cell_length_c 22.554378
_cell_angle_alpha 90.000000
_cell_angle_beta 90.000000
_cell_angle_gamma 90.000000
_cell_volume 2936.594043
_symmetry_space_group_name_H-M "I 2 2 2"
_symmetry_group_IT_number 23
_symmetry_cell_setting 'orthorhombic'
loop_
_space_group_symop_operation_xyz
x,y,z
-x,-y,z
x,-y,-z
-x,y,-z
1/2+x,1/2+y,1/2+z
1/2-x,1/2-y,1/2+z
1/2+x,1/2-y,1/2-z
1/2-x,1/2+y,1/2-z
loop_
_atom_site_type_symbol
_atom_site_label
_atom_site_fract_x
_atom_site_fract_y
_atom_site_fract_z
Si Si1 0.253478 0.702163 0.123485
Si Si2 0.000000 0.500000 0.591643
Si Si3 0.244340 0.000000 0.000000
Si Si4 0.296581 0.235381 0.613442
Si Si5 0.046195 0.834215 0.058980
Si Si6 0.829004 0.113711 0.497882
Si Si7 0.511392 0.885604 0.304644
Si Si8 0.986572 0.687454 0.671340
O O1 0.154688 0.793176 0.107092
O O2 0.274977 0.656120 0.059458
O O3 0.163823 0.636027 0.166749
O O4 0.399879 0.732581 0.152453
O O5 0.860258 0.523348 0.551618
O O6 0.023392 0.593031 0.632391
O O7 0.136088 0.921155 0.028440
O O8 0.394928 0.326833 0.592942
O O9 0.232528 0.175031 0.557503
O O10 0.395787 0.162943 0.651417
O O11 0.168184 0.275184 0.652700
O O12 0.000000 0.773398 0.000000
O O13 0.000000 0.122851 0.500000
O O14 0.792472 0.000000 0.500000
O O15 0.501836 0.837754 0.240168
O O16 0.500000 0.000000 0.299372
#
# Coordination Sequence:
#
# PCOD9332121 Si02
#       8
#     8   4   4   8   8   8   8   8
#     4  11  23  41  68  93 129 171 216 273 327 399
#     4  11  24  38  70  94 132 179 222 272 324 401
#     4  11  23  38  60 102 138 172 216 270 330 400
#     4  11  24  41  70  97 129 176 220 277 338 403
#     4  11  21  37  58  93 134 169 204 260 333 390
#     4  11  22  39  66 100 129 160 212 277 337 400
#     4  11  25  45  66  94 133 177 223 278 332 397
#     4  12  23  45  66  96 129 177 234 267 327 402
#
# _framework density 19.069711000000002
#
# number of rings (size 3 to 8) (size 9 to 14) (size 15 to 20)
#    0.000    0.857    5.000    2.786    0.000    0.000 
#    0.000    2.143    0.000    1.714    0.000    0.000 
#    0.000    0.000    0.000    0.000    0.000    0.000 
#
# Total GULP energy -156089.956222 kJ/mol
# GULP energy per Si atom -5574.641294 kJ/mol
# Density = 1.902631 g / cm^3
# Si number density = 19.069711 Si / 1000 Ang^3
#
#
#
# Elastic Constant Matrix: (Units=GPa)
#
#
# Indices 1 2 3 4 5 6 
#
# 1 140.5695 48.9288 53.7982 0.0000 0.0000 0.0000
# 2 48.9288 79.9814 44.1285 0.0000 0.0000 0.0000
# 3 53.7982 44.1285 141.4855 0.0000 0.0000 0.0000
# 4 0.0000 0.0000 0.0000 28.2941 0.0000 0.0000
# 5 0.0000 0.0000 0.0000 0.0000 12.4345 0.0000
# 6 0.0000 0.0000 0.0000 0.0000 0.0000 19.6900
#
#
#
# Elastic Compliance Matrix: (Units=1/GPa)
#
#
# Indices 1 2 3 4 5 6 
#
# 1 0.009569 -0.004646 -0.002189 0.000000 0.000000 0.000000
# 2 -0.004646 0.017357 -0.003647 0.000000 0.000000 0.000000
# 3 -0.002189 -0.003647 0.009038 0.000000 0.000000 0.000000
# 4 0.000000 0.000000 0.000000 0.035343 0.000000 0.000000
# 5 0.000000 0.000000 0.000000 0.000000 0.080421 0.000000
# 6 0.000000 0.000000 0.000000 0.000000 0.000000 0.050787
#
#
# Mechanical properties :
#
#
# Convention : Reuss Voigt Hill
#
# Bulk Modulus (GPa) = 66.66983 72.86082 69.76532
# Shear Modulus (GPa) = 21.88374 26.42913 24.15643
#
# Velocity S-wave (km/s) = 3.39125 3.72684 3.56300
# Velocity P-wave (km/s) = 7.09726 7.53722 7.32054
#
# Compressibility (1/GPa) = 0.01499929
#
# Stress axis : x y z
#
# Youngs Moduli (GPa) = 104.50454 57.61288 110.64521
#
# Poissons Ratio (x) = 0.26766 0.24226
# Poissons Ratio (y) = 0.48551 0.40353
# Poissons Ratio (z) = 0.22881 0.21012
#
# Static dielectric constant tensor:
#      x y z
#    x 1.672910 0.000000 0.000000 
#    y 0.000000 1.700670 0.000000 
#    z 0.000000 0.000000 1.643550 
# 
# From -- ./inp_files/26278.got.cif
#   From: 2010.05.17/outbox.cif.g08.bks.cpg/sg23_14_cif.got.tgz:26278.got - 2010.06.04 12:02:01.
