data_PCOD9332680
_publ_section_title
;
Structure prediction by ZEFSAII (Michael W. Deem and Ramdas Pophale) SiO2 
 PCOD9332680
Probable space group: I 21 21 21
;
_chemical_formula_sum "Si O2"
_cell_formula_units_Z 40
_cell_length_a 13.232315
_cell_length_b 24.750047
_cell_length_c 5.531111
_cell_angle_alpha 90.000000
_cell_angle_beta 90.000000
_cell_angle_gamma 90.000000
_cell_volume 1811.441165
_symmetry_space_group_name_H-M "I 21 21 21"
_symmetry_group_IT_number 24
_symmetry_cell_setting 'orthorhombic'
loop_
_space_group_symop_operation_xyz
x,y,z
-x,1/2-y,z
x,-y,1/2-z
1/2-x,y,-z
1/2+x,1/2+y,1/2+z
1/2-x,-y,1/2+z
1/2+x,1/2-y,-z
-x,1/2+y,1/2-z
loop_
_atom_site_type_symbol
_atom_site_label
_atom_site_fract_x
_atom_site_fract_y
_atom_site_fract_z
Si Si1 0.420221 0.500000 0.750000
Si Si2 0.544767 0.809835 0.736202
Si Si3 0.591768 0.589417 0.712284
Si Si4 0.112716 0.358173 0.736308
Si Si5 0.916625 0.437184 0.721913
Si Si6 0.250000 0.437003 0.500000
O O1 0.492479 0.550114 0.690202
O O2 0.343541 0.475478 0.556621
O O3 0.500000 0.750000 0.730025
O O4 0.449232 0.850412 0.734586
O O5 0.604393 0.825320 0.487665
O O6 0.603534 0.822580 0.988526
O O7 0.643985 0.580217 0.457905
O O8 0.636692 0.570954 0.965219
O O9 0.210297 0.396784 0.709314
O O10 0.014652 0.397890 0.720843
O O11 0.943157 0.500000 0.750000
#
# Coordination Sequence:
#
# PCOD9332680 Si02
#       6
#     4   8   8   8   8   4
#     4  12  22  30  44  72 104 148 150 206 238 308
#     4  10  20  37  51  62  84 122 181 230 247 278
#     4  10  19  30  43  63  85 120 167 195 236 285
#     4  10  22  33  47  71  90 126 169 213 255 294
#     4  10  15  28  40  58  86 115 147 189 223 284
#     4  12  24  30  48  76 112 140 166 210 252 314
#
# _framework density 22.081866000000002
#
# number of rings (size 3 to 8) (size 9 to 14) (size 15 to 20)
#    0.000    1.600    6.000    0.600    7.000    0.800 
#    0.000    0.000    0.000    0.000    0.000    0.000 
#    0.000    0.000    0.000    0.000    0.000    4.000 
#
# Total GULP energy -111562.466194 kJ/mol
# GULP energy per Si atom -5578.123310 kJ/mol
# Density = 2.203161 g / cm^3
# Si number density = 22.081866 Si / 1000 Ang^3
#
#
#
# Elastic Constant Matrix: (Units=GPa)
#
#
# Indices 1 2 3 4 5 6 
#
# 1 78.6794 26.3376 21.0599 0.0026 0.0727 0.0046
# 2 26.3376 166.8640 49.8913 -0.0129 0.2095 0.0130
# 3 21.0599 49.8913 222.3882 -0.0816 0.1043 -0.0062
# 4 0.0026 -0.0129 -0.0816 30.9368 0.5047 0.0116
# 5 0.0727 0.2095 0.1043 0.5047 -255.6209 -0.0120
# 6 0.0046 0.0130 -0.0062 0.0116 -0.0120 -8.3105
#
#
#
# Elastic Compliance Matrix: (Units=1/GPa)
#
#
# Indices 1 2 3 4 5 6 
#
# 1 0.013571 -0.001884 -0.000862 -0.000004 0.000002 0.000005
# 2 -0.001884 0.006685 -0.001321 -0.000001 0.000004 0.000010
# 3 -0.000862 -0.001321 0.004875 0.000012 0.000001 -0.000006
# 4 -0.000004 -0.000001 0.000012 0.032323 0.000064 0.000045
# 5 0.000002 0.000004 0.000001 0.000064 -0.003912 0.000006
# 6 0.000005 0.000010 -0.000006 0.000045 0.000006 -0.120330
#
#
# Mechanical properties :
#
#
# Convention : Reuss Voigt Hill
#
# Bulk Modulus (GPa) = 58.83959 73.61214 66.22586
# Shear Modulus (GPa) = -94.36443 -21.88942 -58.12692
#
# Velocity S-wave (km/s) = -6.54421 -3.15188 -5.13620
# Velocity P-wave (km/s) = 5.51346 4.49027 2.26227
#
# Compressibility (1/GPa) = 0.01699536
#
# Stress axis : x y z
#
# Youngs Moduli (GPa) = 73.68437 149.57989 205.13794
#
# Poissons Ratio (x) = 0.28184 0.17693
# Poissons Ratio (y) = 0.13884 0.27107
# Poissons Ratio (z) = 0.06355 0.19765
#
# Static dielectric constant tensor:
#      x y z
#    x 1.781370 0.000000 0.000000 
#    y 0.000000 1.758370 0.000000 
#    z 0.000000 0.000000 1.980660 
# 
# From -- ./inp_files/3552.got.cif
#   From: 2010.05.17/outbox.cif.g08.bks.cpg/sg24_2_cif.got.tgz:3552.got - 2010.06.04 00:33:39.
