data_PCOD9332754
_publ_section_title
;
Structure prediction by ZEFSAII (Michael W. Deem and Ramdas Pophale) SiO2 
 PCOD9332754
Probable space group: I 21 21 21
;
_chemical_formula_sum "Si O2"
_cell_formula_units_Z 24
_cell_length_a 8.455387
_cell_length_b 7.032925
_cell_length_c 15.681758
_cell_angle_alpha 90.000000
_cell_angle_beta 90.000000
_cell_angle_gamma 90.000000
_cell_volume 932.533030
_symmetry_space_group_name_H-M "I 21 21 21"
_symmetry_group_IT_number 24
_symmetry_cell_setting 'orthorhombic'
loop_
_space_group_symop_operation_xyz
x,y,z
-x,1/2-y,z
x,-y,1/2-z
1/2-x,y,-z
1/2+x,1/2+y,1/2+z
1/2-x,-y,1/2+z
1/2+x,1/2-y,-z
-x,1/2+y,1/2-z
loop_
_atom_site_type_symbol
_atom_site_label
_atom_site_fract_x
_atom_site_fract_y
_atom_site_fract_z
Si Si1 0.467551 0.549324 0.604606
Si Si2 0.755403 0.000000 0.750000
Si Si3 0.198900 0.882092 0.832719
Si Si4 0.250000 0.258508 0.500000
O O1 0.500000 0.750000 0.558492
O O2 0.352936 0.609369 0.682250
O O3 0.618082 0.448327 0.649331
O O4 0.368565 0.398855 0.549689
O O5 0.834291 0.165580 0.696337
O O6 0.154809 0.875918 0.933100
O O7 0.144901 0.000000 0.750000
#
# Coordination Sequence:
#
# PCOD9332754 Si02
#       4
#     8   4   8   4
#     4  11  19  36  60  92 132 166 209 267 322 370
#     4  10  16  32  58  90 116 160 204 258 308 366
#     4  11  21  38  63  94 135 164 214 268 322 372
#     4  10  24  34  58 106 132 160 218 270 324 384
#
# _framework density 25.736350000000002
#
# number of rings (size 3 to 8) (size 9 to 14) (size 15 to 20)
#    0.000    1.333    5.000    4.000    0.000    1.333 
#    0.000    0.000    0.000    0.000   69.333    0.000 
#    0.000    0.000    0.000    0.000    0.000    0.000 
#
# Total GULP energy -66868.173754 kJ/mol
# GULP energy per Si atom -5572.347813 kJ/mol
# Density = 2.567777 g / cm^3
# Si number density = 25.736350 Si / 1000 Ang^3
#
#
#
# Elastic Constant Matrix: (Units=GPa)
#
#
# Indices 1 2 3 4 5 6 
#
# 1 74.9898 21.8374 29.3604 0.0000 0.0000 0.0000
# 2 21.8374 143.8860 41.5748 0.0000 0.0000 0.0000
# 3 29.3604 41.5748 164.1867 0.0000 0.0000 0.0000
# 4 0.0000 0.0000 0.0000 65.9345 0.0000 0.0000
# 5 0.0000 0.0000 0.0000 0.0000 38.1720 0.0000
# 6 0.0000 0.0000 0.0000 0.0000 0.0000 31.0902
#
#
#
# Elastic Compliance Matrix: (Units=1/GPa)
#
#
# Indices 1 2 3 4 5 6 
#
# 1 0.014666 -0.001584 -0.002222 0.000000 0.000000 0.000000
# 2 -0.001584 0.007670 -0.001659 0.000000 0.000000 0.000000
# 3 -0.002222 -0.001659 0.006908 0.000000 0.000000 0.000000
# 4 0.000000 0.000000 0.000000 0.015167 0.000000 0.000000
# 5 0.000000 0.000000 0.000000 0.000000 0.026197 0.000000
# 6 0.000000 0.000000 0.000000 0.000000 0.000000 0.032164
#
#
# Mechanical properties :
#
#
# Convention : Reuss Voigt Hill
#
# Bulk Modulus (GPa) = 54.59989 63.17863 58.88926
# Shear Modulus (GPa) = 41.73421 46.39201 44.06311
#
# Velocity S-wave (km/s) = 4.03129 4.25029 4.14224
# Velocity P-wave (km/s) = 6.55206 6.97770 6.76823
#
# Compressibility (1/GPa) = 0.01831505
#
# Stress axis : x y z
#
# Youngs Moduli (GPa) = 68.18398 130.38400 144.76101
#
# Poissons Ratio (x) = 0.20652 0.32160
# Poissons Ratio (y) = 0.10800 0.24013
# Poissons Ratio (z) = 0.15148 0.21629
#
# Static dielectric constant tensor:
#      x y z
#    x 2.169950 0.000000 0.000000 
#    y 0.000000 2.029730 0.000000 
#    z 0.000000 0.000000 2.059460 
# 
# From -- ./inp_files/8594.got.cif
#   From: 2010.05.17/outbox.cif.g08.bks.cpg/sg24_5_cif.got.tgz:8594.got - 2010.06.04 00:33:39.
