data_PCOD9332450
_publ_section_title
;
Structure prediction by ZEFSAII (Michael W. Deem and Ramdas Pophale) SiO2 
 PCOD9332450
Probable space group: I 2 2 2
;
_chemical_formula_sum "Si O2"
_cell_formula_units_Z 28
_cell_length_a 5.334495
_cell_length_b 7.566405
_cell_length_c 29.033995
_cell_angle_alpha 90.000000
_cell_angle_beta 90.000000
_cell_angle_gamma 90.000000
_cell_volume 1171.897678
_symmetry_space_group_name_H-M "I 2 2 2"
_symmetry_group_IT_number 23
_symmetry_cell_setting 'orthorhombic'
loop_
_space_group_symop_operation_xyz
x,y,z
-x,-y,z
x,-y,-z
-x,y,-z
1/2+x,1/2+y,1/2+z
1/2-x,1/2-y,1/2+z
1/2+x,1/2-y,1/2-z
1/2-x,1/2+y,1/2-z
loop_
_atom_site_type_symbol
_atom_site_label
_atom_site_fract_x
_atom_site_fract_y
_atom_site_fract_z
Si Si1 0.911399 0.797172 0.199731
Si Si2 0.431575 0.297056 0.397164
Si Si3 0.000000 0.500000 0.724010
Si Si4 0.062174 0.793411 0.448847
O O1 0.045253 0.724191 0.154765
O O2 0.908072 0.651364 0.239397
O O3 0.632038 0.861522 0.189351
O O4 0.000000 0.000000 0.214479
O O5 0.500000 0.500000 0.391110
O O6 0.153048 0.283979 0.416264
O O7 0.652276 0.226213 0.430948
O O8 0.000000 0.722286 0.500000
O O9 0.000000 0.000000 0.449819
#
# Coordination Sequence:
#
# PCOD9332450 Si02
#       4
#     8   8   4   8
#     4  11  26  43  68 103 139 183 239 289 353 420
#     4  11  26  44  70 104 141 178 232 293 344 420
#     4  12  24  46  68  96 140 192 230 298 352 416
#     4  11  25  46  71 102 139 182 231 283 352 430
#
# _framework density 23.892869999999998
#
# number of rings (size 3 to 8) (size 9 to 14) (size 15 to 20)
#    0.000    0.857    2.857    2.571   12.000    5.714 
#    0.000    0.000    0.000    0.000    0.000    0.000 
#    0.000    0.000    0.000    0.000    0.000    0.000 
#
# Total GULP energy -77936.514082 kJ/mol
# GULP energy per Si atom -5566.893863 kJ/mol
# Density = 2.383849 g / cm^3
# Si number density = 23.892870 Si / 1000 Ang^3
#
#
#
# Elastic Constant Matrix: (Units=GPa)
#
#
# Indices 1 2 3 4 5 6 
#
# 1 58.7107 0.3478 42.3869 0.0000 0.0000 0.0000
# 2 0.3478 76.0027 2.3479 0.0000 0.0000 0.0000
# 3 42.3869 2.3479 97.7618 0.0000 0.0000 0.0000
# 4 0.0000 0.0000 0.0000 20.0896 0.0000 0.0000
# 5 0.0000 0.0000 0.0000 0.0000 41.6750 0.0000
# 6 0.0000 0.0000 0.0000 0.0000 0.0000 45.9675
#
#
#
# Elastic Compliance Matrix: (Units=1/GPa)
#
#
# Indices 1 2 3 4 5 6 
#
# 1 0.024797 0.000219 -0.010757 0.000000 0.000000 0.000000
# 2 0.000219 0.013169 -0.000411 0.000000 0.000000 0.000000
# 3 -0.010757 -0.000411 0.014903 0.000000 0.000000 0.000000
# 4 0.000000 0.000000 0.000000 0.049777 0.000000 0.000000
# 5 0.000000 0.000000 0.000000 0.000000 0.023995 0.000000
# 6 0.000000 0.000000 0.000000 0.000000 0.000000 0.021754
#
#
# Mechanical properties :
#
#
# Convention : Reuss Voigt Hill
#
# Bulk Modulus (GPa) = 32.28826 35.84893 34.06860
# Shear Modulus (GPa) = 27.68279 34.03924 30.86102
#
# Velocity S-wave (km/s) = 3.40755 3.77856 3.59784
# Velocity P-wave (km/s) = 5.38748 5.83724 5.61686
#
# Compressibility (1/GPa) = 0.03097101
#
# Stress axis : x y z
#
# Youngs Moduli (GPa) = 40.32697 75.93513 67.10219
#
# Poissons Ratio (x) = -0.01662 0.72180
# Poissons Ratio (y) = -0.00882 0.02759
# Poissons Ratio (z) = 0.43379 0.03122
#
# Static dielectric constant tensor:
#      x y z
#    x 6.506170 0.000000 0.000000 
#    y 0.000000 1.826250 0.000000 
#    z 0.000000 0.000000 1.990260 
# 
# From -- ./inp_files/681.got.cif
#   From: 2010.05.17/outbox.cif.g08.bks.cpg/sg23_1_cif.got.tgz:681.got - 2010.06.04 12:02:01.
