data_PCOD9332784
_publ_section_title
;
Structure prediction by ZEFSAII (Michael W. Deem and Ramdas Pophale) SiO2 
 PCOD9332784
Probable space group: I 21 21 21
;
_chemical_formula_sum "Si O2"
_cell_formula_units_Z 56
_cell_length_a 21.905085
_cell_length_b 7.652188
_cell_length_c 23.265763
_cell_angle_alpha 90.000000
_cell_angle_beta 90.000000
_cell_angle_gamma 90.000000
_cell_volume 3899.849737
_symmetry_space_group_name_H-M "I 21 21 21"
_symmetry_group_IT_number 24
_symmetry_cell_setting 'orthorhombic'
loop_
_space_group_symop_operation_xyz
x,y,z
-x,1/2-y,z
x,-y,1/2-z
1/2-x,y,-z
1/2+x,1/2+y,1/2+z
1/2-x,-y,1/2+z
1/2+x,1/2-y,-z
-x,1/2+y,1/2-z
loop_
_atom_site_type_symbol
_atom_site_label
_atom_site_fract_x
_atom_site_fract_y
_atom_site_fract_z
Si Si1 0.571168 0.296943 0.985333
Si Si2 0.928572 0.708871 0.250000
Si Si3 0.140508 0.207435 0.135026
Si Si4 0.725057 0.000001 0.907540
Si Si5 0.653333 1.000000 0.470528
Si Si6 0.640508 0.707438 0.864973
Si Si7 0.071168 0.203057 0.485333
O O1 0.500000 0.250000 0.987214
O O2 0.610374 0.169616 0.025683
O O3 0.579909 0.500000 0.999779
O O4 0.596437 0.270627 0.920351
O O5 0.923695 0.500000 0.250000
O O6 0.894965 0.768222 0.307954
O O7 0.894966 0.768223 0.192046
O O8 0.000000 0.750000 0.250001
O O9 0.199196 0.328212 0.124050
O O10 0.154813 0.999998 0.139232
O O11 0.796919 0.000000 0.920137
O O12 0.699195 0.828217 0.875949
O O13 0.691803 0.000001 0.969875
O O14 0.610375 0.169616 0.474317
O O15 0.596436 0.729375 0.920352
O O16 0.000000 0.250000 0.487215
#
# Coordination Sequence:
#
# PCOD9332784 Si02
#       7
#     8   8   8   8   8   8   8
#     4  10  17  27  43  62  87 114 144 180 220 260
#     4  10  20  30  42  64  90 116 152 188 219 251
#     4   9  19  30  42  61  85 117 150 185 217 250
#     4   9  18  31  46  56  82 115 151 185 216 261
#     4   9  18  30  42  64  80 109 151 184 218 259
#     4   9  19  30  42  61  85 117 150 185 217 250
#     4  10  17  27  43  62  87 114 144 180 220 260
#
# _framework density 14.359527999999999
#
# number of rings (size 3 to 8) (size 9 to 14) (size 15 to 20)
#    0.000    2.571    1.429    0.857    2.000    1.143 
#    0.000    5.714    0.000    0.000    0.000    0.000 
#    0.000    0.000    0.000    5.143    0.000    0.571 
#
# Total GULP energy -156002.741443 kJ/mol
# GULP energy per Si atom -5571.526480 kJ/mol
# Density = 1.432685 g / cm^3
# Si number density = 14.359528 Si / 1000 Ang^3
#
#
#
# Elastic Constant Matrix: (Units=GPa)
#
#
# Indices 1 2 3 4 5 6 
#
# 1 122.9011 73.0072 55.1393 0.0000 0.0000 0.0000
# 2 73.0072 94.6878 38.1951 0.0000 0.0000 0.0000
# 3 55.1393 38.1951 52.6198 0.0000 0.0000 0.0000
# 4 0.0000 0.0000 0.0000 12.2058 0.0000 0.0000
# 5 0.0000 0.0000 0.0000 0.0000 23.9862 0.0000
# 6 0.0000 0.0000 0.0000 0.0000 0.0000 22.2883
#
#
#
# Elastic Compliance Matrix: (Units=1/GPa)
#
#
# Indices 1 2 3 4 5 6 
#
# 1 0.020460 -0.010078 -0.014125 0.000000 0.000000 0.000000
# 2 -0.010078 0.019898 -0.003883 0.000000 0.000000 0.000000
# 3 -0.014125 -0.003883 0.036623 0.000000 0.000000 0.000000
# 4 0.000000 0.000000 0.000000 0.081928 0.000000 0.000000
# 5 0.000000 0.000000 0.000000 0.000000 0.041691 0.000000
# 6 0.000000 0.000000 0.000000 0.000000 0.000000 0.044867
#
#
# Mechanical properties :
#
#
# Convention : Reuss Voigt Hill
#
# Bulk Modulus (GPa) = 48.05161 66.98800 57.51980
# Shear Modulus (GPa) = 16.20360 18.62054 17.41207
#
# Velocity S-wave (km/s) = 3.36284 3.60493 3.48599
# Velocity P-wave (km/s) = 6.97238 8.00495 7.50644
#
# Compressibility (1/GPa) = 0.02081096
#
# Stress axis : x y z
#
# Youngs Moduli (GPa) = 48.87548 50.25746 27.30496
#
# Poissons Ratio (x) = 0.50649 0.38567
# Poissons Ratio (y) = 0.49256 0.10601
# Poissons Ratio (z) = 0.69035 0.19513
#
# Static dielectric constant tensor:
#      x y z
#    x 1.455120 0.000000 0.000000 
#    y 0.000000 1.502320 0.000000 
#    z 0.000000 0.000000 1.461260 
# 
# From -- ./inp_files/14632.got.cif
#   From: 2010.05.17/outbox.cif.g08.bks.cpg/sg24_8_cif.got.tgz:14632.got - 2010.06.04 00:33:39.
