data_PCOD9332075
_publ_section_title
;
Structure prediction by ZEFSAII (Michael W. Deem and Ramdas Pophale) SiO2 
 PCOD9332075
Probable space group: I 2 2 2
;
_chemical_formula_sum "Si O2"
_cell_formula_units_Z 60
_cell_length_a 13.430776
_cell_length_b 26.493011
_cell_length_c 9.394000
_cell_angle_alpha 90.000000
_cell_angle_beta 90.000000
_cell_angle_gamma 90.000000
_cell_volume 3342.589015
_symmetry_space_group_name_H-M "I 2 2 2"
_symmetry_group_IT_number 23
_symmetry_cell_setting 'orthorhombic'
loop_
_space_group_symop_operation_xyz
x,y,z
-x,-y,z
x,-y,-z
-x,y,-z
1/2+x,1/2+y,1/2+z
1/2-x,1/2-y,1/2+z
1/2+x,1/2-y,1/2-z
1/2-x,1/2+y,1/2-z
loop_
_atom_site_type_symbol
_atom_site_label
_atom_site_fract_x
_atom_site_fract_y
_atom_site_fract_z
Si Si1 0.295339 0.815728 0.558402
Si Si2 0.000000 0.700439 0.000000
Si Si3 0.212066 0.848540 0.833812
Si Si4 0.043042 0.229926 0.265383
Si Si5 0.283940 0.790626 0.095205
Si Si6 0.374285 0.554077 0.178611
Si Si7 0.349450 0.666761 0.833379
Si Si8 0.613828 0.556924 0.161316
O O1 0.399133 0.831331 0.491506
O O2 0.294831 0.830025 0.722062
O O3 0.280686 0.756212 0.537235
O O4 0.195144 0.837572 0.490779
O O5 0.001481 0.735421 0.139979
O O6 0.119215 0.810557 0.804600
O O7 0.175690 0.903772 0.779921
O O8 0.261071 0.836310 0.986779
O O9 0.107540 0.266236 0.371126
O O10 0.952413 0.197276 0.330265
O O11 0.234320 0.804281 0.244909
O O12 0.494425 0.557387 0.181714
O O13 0.347225 0.496376 0.220023
O O14 0.357463 0.558073 0.007190
O O15 0.355424 0.610291 0.773567
#
# Coordination Sequence:
#
# PCOD9332075 Si02
#       8
#     8   4   8   8   8   8   8   8
#     4  11  22  35  54  77 109 150 194 227 272 351
#     4  12  20  40  52  76 112 156 182 240 276 324
#     4  11  20  36  52  80 113 154 188 231 292 340
#     4  11  22  34  56  76 116 156 192 232 282 336
#     4  11  23  34  49  82 113 150 200 230 269 360
#     4   9  17  32  53  80 114 141 189 245 288 340
#     4  12  20  37  57  79 111 155 195 229 281 342
#     4   9  18  31  53  85 106 145 196 237 282 347
#
# _framework density 17.950157999999998
#
# number of rings (size 3 to 8) (size 9 to 14) (size 15 to 20)
#    0.000    1.333    6.667    1.600    0.000    2.133 
#    0.000    0.667    0.000    1.600    0.000    1.867 
#    0.000    0.000    1.067    0.000    0.267    0.000 
#
# Total GULP energy -167018.161276 kJ/mol
# GULP energy per Si atom -5567.272043 kJ/mol
# Density = 1.790930 g / cm^3
# Si number density = 17.950158 Si / 1000 Ang^3
#
#
#
# Elastic Constant Matrix: (Units=GPa)
#
#
# Indices 1 2 3 4 5 6 
#
# 1 83.4057 27.1802 24.0810 0.0000 -0.0002 0.0000
# 2 27.1802 111.0298 23.7318 0.0002 -0.0003 0.0000
# 3 24.0810 23.7318 63.0940 0.0001 0.0000 0.0000
# 4 0.0000 0.0002 0.0001 18.3395 -0.0001 -0.0001
# 5 -0.0002 -0.0003 0.0000 -0.0001 22.3097 -0.0001
# 6 0.0000 0.0000 0.0000 -0.0001 -0.0001 17.5319
#
#
#
# Elastic Compliance Matrix: (Units=1/GPa)
#
#
# Indices 1 2 3 4 5 6 
#
# 1 0.014085 -0.002500 -0.004435 0.000000 0.000000 0.000000
# 2 -0.002500 0.010238 -0.002897 0.000000 0.000000 0.000000
# 3 -0.004435 -0.002897 0.018632 0.000000 0.000000 0.000000
# 4 0.000000 0.000000 0.000000 0.054527 0.000000 0.000000
# 5 0.000000 0.000000 0.000000 0.000000 0.044823 0.000000
# 6 0.000000 0.000000 0.000000 0.000000 0.000000 0.057039
#
#
# Mechanical properties :
#
#
# Convention : Reuss Voigt Hill
#
# Bulk Modulus (GPa) = 42.93623 45.27951 44.10787
# Shear Modulus (GPa) = 22.04864 23.80532 22.92698
#
# Velocity S-wave (km/s) = 3.50855 3.64564 3.57775
# Velocity P-wave (km/s) = 6.35491 6.55750 6.45700
#
# Compressibility (1/GPa) = 0.02329035
#
# Stress axis : x y z
#
# Youngs Moduli (GPa) = 70.99817 97.67808 53.67184
#
# Poissons Ratio (x) = 0.24419 0.23806
# Poissons Ratio (y) = 0.17749 0.15547
# Poissons Ratio (z) = 0.31491 0.28293
#
# Static dielectric constant tensor:
#      x y z
#    x 1.636810 0.000000 0.000000 
#    y 0.000000 1.644000 0.000000 
#    z 0.000000 0.000000 1.656330 
# 
# From -- ./inp_files/10332.got.cif
#   From: 2010.05.17/outbox.cif.g08.bks.cpg/sg23_6_cif.got.tgz:10332.got - 2010.06.04 12:02:01.
