data_PCOD9332300
_publ_section_title
;
Structure prediction by ZEFSAII (Michael W. Deem and Ramdas Pophale) SiO2 
 PCOD9332300
Probable space group: I 2 2 2
;
_chemical_formula_sum "Si O2"
_cell_formula_units_Z 34
_cell_length_a 8.854849
_cell_length_b 8.034691
_cell_length_c 18.952848
_cell_angle_alpha 90.000000
_cell_angle_beta 90.000000
_cell_angle_gamma 90.000000
_cell_volume 1348.418861
_symmetry_space_group_name_H-M "I 2 2 2"
_symmetry_group_IT_number 23
_symmetry_cell_setting 'orthorhombic'
loop_
_space_group_symop_operation_xyz
x,y,z
-x,-y,z
x,-y,-z
-x,y,-z
1/2+x,1/2+y,1/2+z
1/2-x,1/2-y,1/2+z
1/2+x,1/2-y,1/2-z
1/2-x,1/2+y,1/2-z
loop_
_atom_site_type_symbol
_atom_site_label
_atom_site_fract_x
_atom_site_fract_y
_atom_site_fract_z
Si Si1 0.500000 0.500000 0.500000
Si Si2 0.172634 0.426197 0.104007
Si Si3 0.658057 0.148145 0.167489
Si Si4 0.348090 0.769047 0.780227
Si Si5 0.246503 0.237374 0.965155
O O1 0.602850 0.618576 0.452400
O O2 0.237179 0.350918 0.175568
O O3 0.257910 0.585549 0.073057
O O4 0.000000 0.500000 0.104237
O O5 0.216823 0.283919 0.046254
O O6 0.523077 0.255918 0.201543
O O7 0.807903 0.236814 0.198868
O O8 0.632122 0.142138 0.082845
O O9 0.669192 0.959857 0.195199
#
# Coordination Sequence:
#
# PCOD9332300 Si02
#       5
#     2   8   8   8   8
#     4  12  20  38  68 110 140 198 244 328 376 458
#     4  11  23  45  70 106 146 200 253 322 380 459
#     4  11  27  47  70 111 149 207 259 323 388 475
#     4  11  27  47  74 106 156 204 261 322 395 466
#     4  11  23  40  70 105 145 192 258 307 388 448
#
# _framework density 25.214717
#
# number of rings (size 3 to 8) (size 9 to 14) (size 15 to 20)
#    0.000    0.941    2.353    3.529    6.588    4.706 
#    4.235    4.706    0.000    0.000    0.000    0.000 
#    0.000    0.000    0.000    0.000    0.000    0.000 
#
# Total GULP energy -94717.953223 kJ/mol
# GULP energy per Si atom -5571.644307 kJ/mol
# Density = 2.515733 g / cm^3
# Si number density = 25.214717 Si / 1000 Ang^3
#
#
#
# Elastic Constant Matrix: (Units=GPa)
#
#
# Indices 1 2 3 4 5 6 
#
# 1 73.9795 9.6726 28.2226 0.0000 0.0000 0.0000
# 2 9.6726 98.4561 26.7751 0.0000 0.0000 0.0000
# 3 28.2226 26.7751 144.9742 0.0000 0.0000 0.0000
# 4 0.0000 0.0000 0.0000 33.2505 0.0000 0.0000
# 5 0.0000 0.0000 0.0000 0.0000 13.9019 0.0000
# 6 0.0000 0.0000 0.0000 0.0000 0.0000 40.4692
#
#
#
# Elastic Compliance Matrix: (Units=1/GPa)
#
#
# Indices 1 2 3 4 5 6 
#
# 1 0.014647 -0.000699 -0.002722 0.000000 0.000000 0.000000
# 2 -0.000699 0.010727 -0.001845 0.000000 0.000000 0.000000
# 3 -0.002722 -0.001845 0.007769 0.000000 0.000000 0.000000
# 4 0.000000 0.000000 0.000000 0.030075 0.000000 0.000000
# 5 0.000000 0.000000 0.000000 0.000000 0.071932 0.000000
# 6 0.000000 0.000000 0.000000 0.000000 0.000000 0.024710
#
#
# Mechanical properties :
#
#
# Convention : Reuss Voigt Hill
#
# Bulk Modulus (GPa) = 44.22716 49.63893 46.93304
# Shear Modulus (GPa) = 28.10100 34.37362 31.23731
#
# Velocity S-wave (km/s) = 3.34199 3.69621 3.52355
# Velocity P-wave (km/s) = 5.69826 6.15997 5.93360
#
# Compressibility (1/GPa) = 0.02261054
#
# Stress axis : x y z
#
# Youngs Moduli (GPa) = 68.27254 93.22057 128.72432
#
# Poissons Ratio (x) = 0.06513 0.35044
# Poissons Ratio (y) = 0.04770 0.23752
# Poissons Ratio (z) = 0.18586 0.17201
#
# Static dielectric constant tensor:
#      x y z
#    x 2.097890 0.000000 0.000000 
#    y 0.000000 2.014770 0.000000 
#    z 0.000000 0.000000 2.043340 
# 
# From -- ./inp_files/11658.got.cif
#   From: 2010.05.17/outbox.cif.g08.bks.cpg/sg23_6_cif.got.tgz:11658.got - 2010.06.04 12:02:01.
