data_PCOD9332489
_publ_section_title
;
Structure prediction by ZEFSAII (Michael W. Deem and Ramdas Pophale) SiO2 
 PCOD9332489
Probable space group: I 2 2 2
;
_chemical_formula_sum "Si O2"
_cell_formula_units_Z 28
_cell_length_a 8.071852
_cell_length_b 27.843230
_cell_length_c 4.937625
_cell_angle_alpha 90.000000
_cell_angle_beta 90.000000
_cell_angle_gamma 90.000000
_cell_volume 1109.713600
_symmetry_space_group_name_H-M "I 2 2 2"
_symmetry_group_IT_number 23
_symmetry_cell_setting 'orthorhombic'
loop_
_space_group_symop_operation_xyz
x,y,z
-x,-y,z
x,-y,-z
-x,y,-z
1/2+x,1/2+y,1/2+z
1/2-x,1/2-y,1/2+z
1/2+x,1/2-y,1/2-z
1/2-x,1/2+y,1/2-z
loop_
_atom_site_type_symbol
_atom_site_label
_atom_site_fract_x
_atom_site_fract_y
_atom_site_fract_z
Si Si1 0.500000 0.224096 0.500000
Si Si2 0.689875 0.947942 0.420175
Si Si3 0.848618 0.812868 0.304545
Si Si4 0.821135 0.901396 0.922387
O O1 0.339084 0.193904 0.411659
O O2 0.418351 0.260810 0.715488
O O3 0.500000 0.947852 0.500000
O O4 0.701967 0.933233 0.109385
O O5 0.760400 0.000000 0.500000
O O6 0.778472 0.908884 0.611372
O O7 0.823673 0.847829 0.045660
O O8 0.000000 0.830232 0.500000
O O9 0.000000 0.921588 0.000000
#
# Coordination Sequence:
#
# PCOD9332489 Si02
#       4
#     4   8   8   8
#     4  12  26  48  78 102 156 212 258 322 386 456
#     4  11  26  50  76 109 150 196 249 308 385 472
#     4  12  26  48  74 113 155 205 268 321 387 460
#     4  12  26  46  77 111 151 192 251 320 376 456
#
# _framework density 25.231736000000001
#
# number of rings (size 3 to 8) (size 9 to 14) (size 15 to 20)
#    0.000    0.286    4.286    4.286    2.000    5.714 
#   10.286    0.000    0.000    0.000    0.000    0.000 
#    0.000    0.000    0.000    0.000    0.000    0.000 
#
# Total GULP energy -78367.873160 kJ/mol
# GULP energy per Si atom -5597.705226 kJ/mol
# Density = 2.517431 g / cm^3
# Si number density = 25.231736 Si / 1000 Ang^3
#
#
#
# Elastic Constant Matrix: (Units=GPa)
#
#
# Indices 1 2 3 4 5 6 
#
# 1 180.6490 41.1244 24.3917 0.2195 -0.0013 -0.0020
# 2 41.1244 115.2238 18.5509 0.2100 -0.0018 0.0009
# 3 24.3917 18.5509 68.4468 1.3781 -0.0022 -0.0040
# 4 0.2195 0.2100 1.3781 -796.7025 0.0104 -0.1037
# 5 -0.0013 -0.0018 -0.0022 0.0104 53.5129 -0.0079
# 6 -0.0020 0.0009 -0.0040 -0.1037 -0.0079 40.6538
#
#
#
# Elastic Compliance Matrix: (Units=1/GPa)
#
#
# Indices 1 2 3 4 5 6 
#
# 1 0.006206 -0.001944 -0.001685 -0.000002 0.000000 0.000000
# 2 -0.001944 0.009683 -0.001932 -0.000001 0.000000 0.000000
# 3 -0.001685 -0.001932 0.015733 0.000026 0.000001 0.000002
# 4 -0.000002 -0.000001 0.000026 -0.001255 0.000000 -0.000003
# 5 0.000000 0.000000 0.000001 0.000000 0.018687 0.000004
# 6 0.000000 0.000000 0.000002 -0.000003 0.000004 0.024598
#
#
# Mechanical properties :
#
#
# Convention : Reuss Voigt Hill
#
# Bulk Modulus (GPa) = 48.77523 59.16152 53.96837
# Shear Modulus (GPa) = 54.58144 -121.82365 -33.62111
#
# Velocity S-wave (km/s) = 4.65607 -6.95606 -3.65429
# Velocity P-wave (km/s) = 6.94825 6.40449 1.90536
#
# Compressibility (1/GPa) = 0.02050221
#
# Stress axis : x y z
#
# Youngs Moduli (GPa) = 161.14700 103.26880 63.55960
#
# Poissons Ratio (x) = 0.20071 0.10707
# Poissons Ratio (y) = 0.31320 0.12279
# Poissons Ratio (z) = 0.27147 0.19950
#
# Static dielectric constant tensor:
#      x y z
#    x 2.361610 -0.000080 0.000370 
#    y -0.000080 2.043200 0.000010 
#    z 0.000370 0.000010 2.051080 
# 
# From -- ./inp_files/591.got.cif
#   From: 2010.05.17/outbox.cif.g08.bks.cpg/sg23_1_cif.got.tgz:591.got - 2010.06.04 12:02:01.
