data_PCOD9332640
_publ_section_title
;
Structure prediction by ZEFSAII (Michael W. Deem and Ramdas Pophale) SiO2 
 PCOD9332640
Probable space group: I 2 2 2
;
_chemical_formula_sum "Si O2"
_cell_formula_units_Z 24
_cell_length_a 9.000000
_cell_length_b 9.000000
_cell_length_c 30.000000
_cell_angle_alpha 90.000000
_cell_angle_beta 90.000000
_cell_angle_gamma 90.000000
_cell_volume 2430.000000
_symmetry_space_group_name_H-M "I 2 2 2"
_symmetry_group_IT_number 23
_symmetry_cell_setting 'orthorhombic'
loop_
_space_group_symop_operation_xyz
x,y,z
-x,-y,z
x,-y,-z
-x,y,-z
1/2+x,1/2+y,1/2+z
1/2-x,1/2-y,1/2+z
1/2+x,1/2-y,1/2-z
1/2-x,1/2+y,1/2-z
loop_
_atom_site_type_symbol
_atom_site_label
_atom_site_fract_x
_atom_site_fract_y
_atom_site_fract_z
Si Si1 0.346228 0.166351 0.611643
Si Si2 0.160959 0.409686 0.440743
Si Si3 0.810704 0.836299 0.200123
Si Si4 0.334201 0.677734 0.476952
Si Si5 0.296230 0.828206 0.627453
Si Si6 0.836141 0.821074 0.782156
O O1 0.286771 0.281030 0.649285
O O2 0.320976 0.194830 0.559470
O O3 0.526145 0.183285 0.616647
O O4 0.276461 0.004838 0.621685
O O5 0.292990 0.533120 0.446485
O O6 0.200387 0.322040 0.486861
O O7 0.201405 0.289572 0.402346
O O8 0.000000 0.500000 0.438245
O O9 0.715947 0.738192 0.234471
O O10 0.985150 0.815617 0.212502
O O11 0.782792 0.011131 0.207612
O O12 0.500000 0.676117 0.500000
O O13 0.273681 0.783526 0.678729
#
# Coordination Sequence:
#
# PCOD9332640 Si02
#       6
#     8   8   8   8   8   8
#     4  10  21  38  65  96 126 166 222 279 319 383
#     4  11  23  40  61  91 131 169 213 269 331 397
#     4  10  21  39  64  93 132 167 211 268 319 389
#     4  11  21  38  65  94 120 166 221 270 324 388
#     4  10  21  39  62  96 131 166 218 274 330 390
#     4  10  21  39  64  93 128 170 212 261 326 384
#
# _framework density 9.8765429999999999
#
# number of rings (size 3 to 8) (size 9 to 14) (size 15 to 20)
#    0.000    1.667    1.667    4.000    0.000    4.000 
#    6.000    0.833    0.000    4.000    0.000    0.000 
#    0.000    0.000    0.000    0.000    0.000    0.000 
#
# Total GULP energy -133733.446902 kJ/mol
# GULP energy per Si atom -5572.226954 kJ/mol
# Density = 0.985406 g / cm^3
# Si number density = 9.876543 Si / 1000 Ang^3
#
#
#
# Elastic Constant Matrix: (Units=GPa)
#
#
# Indices 1 2 3 4 5 6 
#
# 1 60.4845 31.9831 25.6623 0.0000 0.0000 0.0000
# 2 31.9831 102.5766 43.1482 0.0000 0.0000 0.0000
# 3 25.6623 43.1482 114.4480 0.0000 0.0000 0.0000
# 4 0.0000 0.0000 0.0000 44.9287 0.0000 0.0000
# 5 0.0000 0.0000 0.0000 0.0000 31.0215 0.0000
# 6 0.0000 0.0000 0.0000 0.0000 0.0000 28.6047
#
#
#
# Elastic Compliance Matrix: (Units=1/GPa)
#
#
# Indices 1 2 3 4 5 6 
#
# 1 0.020423 -0.005279 -0.002589 0.000000 0.000000 0.000000
# 2 -0.005279 0.012951 -0.003699 0.000000 0.000000 0.000000
# 3 -0.002589 -0.003699 0.010713 0.000000 0.000000 0.000000
# 4 0.000000 0.000000 0.000000 0.022257 0.000000 0.000000
# 5 0.000000 0.000000 0.000000 0.000000 0.032236 0.000000
# 6 0.000000 0.000000 0.000000 0.000000 0.000000 0.034959
#
#
# Mechanical properties :
#
#
# Convention : Reuss Voigt Hill
#
# Bulk Modulus (GPa) = 47.72671 53.23290 50.47980
# Shear Modulus (GPa) = 30.55176 32.69201 31.62189
#
# Velocity S-wave (km/s) = 3.93706 4.07262 4.00541
# Velocity P-wave (km/s) = 6.69935 7.00876 6.85580
#
# Compressibility (1/GPa) = 0.02095263
#
# Stress axis : x y z
#
# Youngs Moduli (GPa) = 48.96446 77.21642 93.34709
#
# Poissons Ratio (x) = 0.40760 0.24170
# Poissons Ratio (y) = 0.25847 0.34528
# Poissons Ratio (z) = 0.12678 0.28562
#
# Static dielectric constant tensor:
#      x y z
#    x 1.699510 0.000000 0.000000 
#    y 0.000000 1.746950 0.000000 
#    z 0.000000 0.000000 1.725070 
# 
# From -- ./inp_files/30236.got.cif
#   From: 2010.05.17/outbox.ucp.g08.bks.cvg/sg23_16_cif.got.tgz:30236.got - 2010.06.11 15:19:07.
