data_PCOD9332922
_publ_section_title
;
Structure prediction by ZEFSAII (Michael W. Deem and Ramdas Pophale) SiO2 
 PCOD9332922
Probable space group: I 21 21 21
;
_chemical_formula_sum "Si O2"
_cell_formula_units_Z 64
_cell_length_a 21.525982
_cell_length_b 7.874170
_cell_length_c 28.589631
_cell_angle_alpha 90.000000
_cell_angle_beta 90.000000
_cell_angle_gamma 90.000000
_cell_volume 4845.920775
_symmetry_space_group_name_H-M "I 21 21 21"
_symmetry_group_IT_number 24
_symmetry_cell_setting 'orthorhombic'
loop_
_space_group_symop_operation_xyz
x,y,z
-x,1/2-y,z
x,-y,1/2-z
1/2-x,y,-z
1/2+x,1/2+y,1/2+z
1/2-x,-y,1/2+z
1/2+x,1/2-y,-z
-x,1/2+y,1/2-z
loop_
_atom_site_type_symbol
_atom_site_label
_atom_site_fract_x
_atom_site_fract_y
_atom_site_fract_z
Si Si1 0.426492 0.946973 0.982851
Si Si2 0.653805 0.057982 0.610720
Si Si3 0.928551 0.953389 0.303401
Si Si4 0.573508 0.946972 0.982851
Si Si5 0.770117 0.250000 0.076461
Si Si6 0.149912 0.750000 0.519867
Si Si7 0.571449 0.453389 0.803401
Si Si8 0.153806 0.057982 0.389280
O O1 0.500000 0.979497 0.980571
O O2 0.416768 0.750000 0.996817
O O3 0.392358 0.082283 0.015870
O O4 0.395962 0.966916 0.931405
O O5 0.604038 0.033085 0.568595
O O6 0.677843 0.250000 0.606881
O O7 0.617494 0.033026 0.659070
O O8 0.706476 0.916832 0.603494
O O9 0.926431 0.750000 0.308655
O O10 0.000000 0.009444 0.311810
O O11 0.913188 0.000000 0.250000
O O12 0.607642 0.082282 0.015870
O O13 0.698066 0.250000 0.062557
O O14 0.793524 0.416832 0.103494
O O15 0.808110 0.250000 0.027363
O O16 0.586813 0.500000 0.750000
O O17 0.617494 0.533026 0.840930
#
# Coordination Sequence:
#
# PCOD9332922 Si02
#       8
#     8   8   8   8   8   8   8   8
#     4   9  17  27  41  61  81 104 134 166 206 250
#     4  10  18  29  43  57  78 106 137 174 208 243
#     4  10  19  29  41  58  80 104 134 175 217 250
#     4   9  17  27  41  61  81 104 134 166 206 250
#     4   9  18  30  40  58  76 102 140 174 206 243
#     4   9  17  28  42  56  79 103 134 174 208 239
#     4  10  19  29  41  58  80 104 134 175 217 250
#     4  10  18  29  43  57  78 106 137 174 208 243
#
# _framework density 13.206982999999999
#
# number of rings (size 3 to 8) (size 9 to 14) (size 15 to 20)
#    0.000    2.500    1.250    1.875    0.000    3.500 
#    0.000    5.000    0.000    0.000    0.000    0.000 
#    0.000    0.000    0.000    0.000    0.000    5.000 
#
# Total GULP energy -178335.625748 kJ/mol
# GULP energy per Si atom -5572.988305 kJ/mol
# Density = 1.317692 g / cm^3
# Si number density = 13.206983 Si / 1000 Ang^3
#
#
#
# Elastic Constant Matrix: (Units=GPa)
#
#
# Indices 1 2 3 4 5 6 
#
# 1 64.4369 54.5527 36.3033 0.0000 0.0000 0.0000
# 2 54.5527 95.9147 36.3848 0.0000 0.0000 0.0000
# 3 36.3033 36.3848 50.9023 0.0000 0.0000 0.0000
# 4 0.0000 0.0000 0.0000 15.6464 0.0000 0.0000
# 5 0.0000 0.0000 0.0000 0.0000 22.6726 0.0000
# 6 0.0000 0.0000 0.0000 0.0000 0.0000 12.1701
#
#
#
# Elastic Compliance Matrix: (Units=1/GPa)
#
#
# Indices 1 2 3 4 5 6 
#
# 1 0.037255 -0.015243 -0.015674 0.000000 0.000000 0.000000
# 2 -0.015243 0.020542 -0.003812 0.000000 0.000000 0.000000
# 3 -0.015674 -0.003812 0.033549 0.000000 0.000000 0.000000
# 4 0.000000 0.000000 0.000000 0.063912 0.000000 0.000000
# 5 0.000000 0.000000 0.000000 0.000000 0.044106 0.000000
# 6 0.000000 0.000000 0.000000 0.000000 0.000000 0.082169
#
#
# Mechanical properties :
#
#
# Convention : Reuss Voigt Hill
#
# Bulk Modulus (GPa) = 45.68900 51.74838 48.71869
# Shear Modulus (GPa) = 13.95533 15.69871 14.82702
#
# Velocity S-wave (km/s) = 3.25416 3.45145 3.35425
# Velocity P-wave (km/s) = 6.98492 7.42637 7.20902
#
# Compressibility (1/GPa) = 0.02188711
#
# Stress axis : x y z
#
# Youngs Moduli (GPa) = 26.84222 48.68155 29.80729
#
# Poissons Ratio (x) = 0.74206 0.46720
# Poissons Ratio (y) = 0.40916 0.11362
# Poissons Ratio (z) = 0.42073 0.18556
#
# Static dielectric constant tensor:
#      x y z
#    x 1.409470 0.000000 0.000000 
#    y 0.000000 1.462530 0.000000 
#    z 0.000000 0.000000 1.405690 
# 
# From -- ./inp_files/29902.got.cif
#   From: 2010.05.17/outbox.cif.g08.bks.cpg/sg24_15_cif.got.tgz:29902.got - 2010.06.04 00:33:39.
