data_PCOD9332150
_publ_section_title
;
Structure prediction by ZEFSAII (Michael W. Deem and Ramdas Pophale) SiO2 
 PCOD9332150
Probable space group: I 2 2 2
;
_chemical_formula_sum "Si O2"
_cell_formula_units_Z 64
_cell_length_a 9.613841
_cell_length_b 20.107426
_cell_length_c 16.961727
_cell_angle_alpha 90.000000
_cell_angle_beta 90.000000
_cell_angle_gamma 90.000000
_cell_volume 3278.864602
_symmetry_space_group_name_H-M "I 2 2 2"
_symmetry_group_IT_number 23
_symmetry_cell_setting 'orthorhombic'
loop_
_space_group_symop_operation_xyz
x,y,z
-x,-y,z
x,-y,-z
-x,y,-z
1/2+x,1/2+y,1/2+z
1/2-x,1/2-y,1/2+z
1/2+x,1/2-y,1/2-z
1/2-x,1/2+y,1/2-z
loop_
_atom_site_type_symbol
_atom_site_label
_atom_site_fract_x
_atom_site_fract_y
_atom_site_fract_z
Si Si1 0.508796 0.071132 0.789605
Si Si2 0.369613 0.809443 0.689646
Si Si3 0.153071 0.742577 0.028732
Si Si4 0.771505 0.619616 0.403887
Si Si5 0.015734 0.924519 0.835621
Si Si6 0.196866 0.597972 0.422048
Si Si7 0.103536 0.250336 0.574534
Si Si8 0.050878 0.799444 0.729162
O O1 0.580728 0.124392 0.732919
O O2 0.375523 0.106123 0.831433
O O3 0.609454 0.053691 0.863064
O O4 0.500000 0.000000 0.747391
O O5 0.361447 0.812976 0.595416
O O6 0.479933 0.751894 0.710516
O O7 0.215906 0.789548 0.720004
O O8 0.235061 0.804148 0.071144
O O9 0.250128 0.721389 0.956056
O O10 0.000000 0.763795 0.000000
O O11 0.624521 0.589554 0.382268
O O12 0.824354 0.587712 0.485496
O O13 0.029038 0.872670 0.764238
O O14 0.144716 0.910966 0.894509
O O15 0.000000 0.000000 0.807910
O O16 0.141449 0.673132 0.404888
O O17 0.028740 0.214828 0.647194
O O18 0.000000 0.249916 0.500000
#
# Coordination Sequence:
#
# PCOD9332150 Si02
#       8
#     8   8   8   8   8   8   8   8
#     4  12  25  41  62  90 128 175 216 253 311 376
#     4  12  25  42  65  95 127 168 212 271 316 377
#     4  11  23  39  65  99 130 160 209 269 325 376
#     4  11  23  38  60  90 131 174 209 245 307 381
#     4  12  25  40  60  91 129 173 214 255 312 372
#     4  11  22  40  58  88 134 169 208 253 300 378
#     4  11  21  39  66  97 127 165 209 267 322 376
#     4  12  24  42  66  94 128 167 215 268 321 374
#
# _framework density 19.518951000000001
#
# number of rings (size 3 to 8) (size 9 to 14) (size 15 to 20)
#    0.000    0.500    5.000    5.250    1.750    3.000 
#    0.000    0.000    0.000    0.750    0.000    0.000 
#    0.000    0.000    0.000    0.000    0.000    0.000 
#
# Total GULP energy -178853.589098 kJ/mol
# GULP energy per Si atom -5589.174659 kJ/mol
# Density = 1.947453 g / cm^3
# Si number density = 19.518951 Si / 1000 Ang^3
#
#
#
# Elastic Constant Matrix: (Units=GPa)
#
#
# Indices 1 2 3 4 5 6 
#
# 1 89.0494 30.1991 7.0868 0.0000 0.0000 0.0000
# 2 30.1991 72.2848 27.7642 0.0000 0.0000 0.0000
# 3 7.0868 27.7642 53.0854 -0.0001 0.0000 0.0000
# 4 0.0000 0.0000 -0.0001 15.9600 0.0000 0.0000
# 5 0.0000 0.0000 0.0000 0.0000 32.6294 0.0000
# 6 0.0000 0.0000 0.0000 0.0000 0.0000 16.5612
#
#
#
# Elastic Compliance Matrix: (Units=1/GPa)
#
#
# Indices 1 2 3 4 5 6 
#
# 1 0.013166 -0.006038 0.001401 0.000000 0.000000 0.000000
# 2 -0.006038 0.020081 -0.009697 0.000000 0.000000 0.000000
# 3 0.001401 -0.009697 0.023722 0.000000 0.000000 0.000000
# 4 0.000000 0.000000 0.000000 0.062657 0.000000 0.000000
# 5 0.000000 0.000000 0.000000 0.000000 0.030647 0.000000
# 6 0.000000 0.000000 0.000000 0.000000 0.000000 0.060382
#
#
# Mechanical properties :
#
#
# Convention : Reuss Voigt Hill
#
# Bulk Modulus (GPa) = 35.33526 38.27999 36.80762
# Shear Modulus (GPa) = 20.09987 22.98809 21.54398
#
# Velocity S-wave (km/s) = 3.21247 3.43553 3.32587
# Velocity P-wave (km/s) = 5.64821 5.94907 5.80059
#
# Compressibility (1/GPa) = 0.02830034
#
# Stress axis : x y z
#
# Youngs Moduli (GPa) = 75.95286 49.79756 42.15493
#
# Poissons Ratio (x) = 0.30070 -0.05904
# Poissons Ratio (y) = 0.45864 0.40876
# Poissons Ratio (z) = -0.10637 0.48287
#
# Static dielectric constant tensor:
#      x y z
#    x 1.726050 0.000000 0.000000 
#    y 0.000000 1.723630 0.000000 
#    z 0.000000 0.000000 1.703490 
# 
# From -- ./inp_files/24005.got.cif
#   From: 2010.05.17/outbox.cif.g08.bks.cpg/sg23_13_cif.got.tgz:24005.got - 2010.06.04 12:02:01.
