data_PCOD9332948
_publ_section_title
;
Structure prediction by ZEFSAII (Michael W. Deem and Ramdas Pophale) SiO2 
 PCOD9332948
Probable space group: I 21 21 21
;
_chemical_formula_sum "Si O2"
_cell_formula_units_Z 64
_cell_length_a 28.609391
_cell_length_b 14.500203
_cell_length_c 8.707734
_cell_angle_alpha 90.000000
_cell_angle_beta 90.000000
_cell_angle_gamma 90.000000
_cell_volume 3612.333590
_symmetry_space_group_name_H-M "I 21 21 21"
_symmetry_group_IT_number 24
_symmetry_cell_setting 'orthorhombic'
loop_
_space_group_symop_operation_xyz
x,y,z
-x,1/2-y,z
x,-y,1/2-z
1/2-x,y,-z
1/2+x,1/2+y,1/2+z
1/2-x,-y,1/2+z
1/2+x,1/2-y,-z
-x,1/2+y,1/2-z
loop_
_atom_site_type_symbol
_atom_site_label
_atom_site_fract_x
_atom_site_fract_y
_atom_site_fract_z
Si Si1 0.475512 0.618353 0.582767
Si Si2 0.444369 0.442083 0.402080
Si Si3 0.934314 0.295180 0.966657
Si Si4 0.040750 0.099140 0.668916
Si Si5 0.393689 0.397379 0.686423
Si Si6 0.112674 0.055560 0.402053
Si Si7 0.350468 0.782772 0.696814
Si Si8 0.796790 0.556369 0.406361
O O1 0.467457 0.517356 0.517857
O O2 0.452725 0.690965 0.464723
O O3 0.529309 0.648155 0.576331
O O4 0.444091 0.629062 0.734939
O O5 0.430253 0.500000 0.250000
O O6 0.487340 0.373263 0.368450
O O7 0.402810 0.400032 0.503862
O O8 0.935945 0.337479 0.798217
O O9 0.885834 0.293106 0.053984
O O10 0.072996 0.080596 0.522669
O O11 0.034835 0.000000 0.750000
O O12 0.382452 0.500000 0.750000
O O13 0.356515 0.321536 0.743897
O O14 0.132863 0.150815 0.335131
O O15 0.095946 0.000000 0.250000
O O16 0.154958 0.991442 0.469831
O O17 0.304943 0.836019 0.635114
O O18 0.790980 0.500000 0.250000
O O19 0.750000 0.543936 0.500000
#
# Coordination Sequence:
#
# PCOD9332948 Si02
#       8
#     8   8   8   8   8   8   8   8
#     4   9  18  31  42  60  90 133 178 228 257 303
#     4  10  19  29  42  65  95 131 185 226 265 306
#     4  10  18  30  45  62  96 132 179 229 264 304
#     4  11  19  29  43  65  95 136 177 223 273 306
#     4   9  19  33  51  69  95 141 185 215 269 309
#     4   9  20  32  47  71 105 132 170 216 265 330
#     4   9  19  35  51  74 101 133 181 221 267 328
#     4   9  19  35  55  80 108 135 163 215 272 343
#
# _framework density 17.717078999999998
#
# number of rings (size 3 to 8) (size 9 to 14) (size 15 to 20)
#    0.000    2.750    2.500    1.500    1.750    3.000 
#    0.000    0.000    0.000    0.000    0.000    3.500 
#    0.000    1.000    0.000    0.000    0.000    0.000 
#
# Total GULP energy -178152.426123 kJ/mol
# GULP energy per Si atom -5567.263316 kJ/mol
# Density = 1.767675 g / cm^3
# Si number density = 17.717079 Si / 1000 Ang^3
#
#
#
# Elastic Constant Matrix: (Units=GPa)
#
#
# Indices 1 2 3 4 5 6 
#
# 1 43.6927 19.3843 27.2125 0.0000 0.0000 0.0000
# 2 19.3843 85.4666 15.9061 0.0000 0.0000 0.0000
# 3 27.2125 15.9061 56.0309 0.0000 0.0000 0.0000
# 4 0.0000 0.0000 0.0000 27.6714 0.0000 0.0000
# 5 0.0000 0.0000 0.0000 0.0000 26.2020 0.0000
# 6 0.0000 0.0000 0.0000 0.0000 0.0000 14.3710
#
#
#
# Elastic Compliance Matrix: (Units=1/GPa)
#
#
# Indices 1 2 3 4 5 6 
#
# 1 0.034726 -0.005001 -0.015445 0.000000 0.000000 0.000000
# 2 -0.005001 0.013073 -0.001282 0.000000 0.000000 0.000000
# 3 -0.015445 -0.001282 0.025713 0.000000 0.000000 0.000000
# 4 0.000000 0.000000 0.000000 0.036138 0.000000 0.000000
# 5 0.000000 0.000000 0.000000 0.000000 0.038165 0.000000
# 6 0.000000 0.000000 0.000000 0.000000 0.000000 0.069585
#
#
# Mechanical properties :
#
#
# Convention : Reuss Voigt Hill
#
# Bulk Modulus (GPa) = 33.27387 34.46622 33.87005
# Shear Modulus (GPa) = 18.45865 21.82803 20.14334
#
# Velocity S-wave (km/s) = 3.23128 3.51384 3.37552
# Velocity P-wave (km/s) = 5.72215 5.99656 5.86096
#
# Compressibility (1/GPa) = 0.03005361
#
# Stress axis : x y z
#
# Youngs Moduli (GPa) = 28.79721 76.49082 38.89133
#
# Poissons Ratio (x) = 0.38256 0.60069
# Poissons Ratio (y) = 0.14403 0.04987
# Poissons Ratio (z) = 0.44478 0.09808
#
# Static dielectric constant tensor:
#      x y z
#    x 1.614940 0.000000 0.000000 
#    y 0.000000 1.659640 0.000000 
#    z 0.000000 0.000000 1.657660 
# 
# From -- ./inp_files/17060.got.cif
#   From: 2010.05.17/outbox.cif.g08.bks.cpg/sg24_9_cif.got.tgz:17060.got - 2010.06.04 00:33:39.
