data_PCOD9332062
_publ_section_title
;
Structure prediction by ZEFSAII (Michael W. Deem and Ramdas Pophale) SiO2 
 PCOD9332062
Probable space group: I 2 2 2
;
_chemical_formula_sum "Si O2"
_cell_formula_units_Z 64
_cell_length_a 8.348142
_cell_length_b 31.197306
_cell_length_c 15.147977
_cell_angle_alpha 90.000000
_cell_angle_beta 90.000000
_cell_angle_gamma 90.000000
_cell_volume 3945.132169
_symmetry_space_group_name_H-M "I 2 2 2"
_symmetry_group_IT_number 23
_symmetry_cell_setting 'orthorhombic'
loop_
_space_group_symop_operation_xyz
x,y,z
-x,-y,z
x,-y,-z
-x,y,-z
1/2+x,1/2+y,1/2+z
1/2-x,1/2-y,1/2+z
1/2+x,1/2-y,1/2-z
1/2-x,1/2+y,1/2-z
loop_
_atom_site_type_symbol
_atom_site_label
_atom_site_fract_x
_atom_site_fract_y
_atom_site_fract_z
Si Si1 0.194600 0.675483 0.500000
Si Si2 0.805121 0.774875 0.500000
Si Si3 0.191671 0.367239 0.680766
Si Si4 0.306829 0.549236 0.601320
Si Si5 0.191670 0.792337 0.303681
Si Si6 0.691670 0.707663 0.803681
Si Si7 0.193171 0.049236 0.101320
Si Si8 0.808329 0.632761 0.319234
O O1 0.238479 0.724919 0.500000
O O2 0.251839 0.653207 0.411365
O O3 0.251839 0.653207 0.588635
O O4 0.000000 0.673196 0.500000
O O5 0.749615 0.792548 0.594578
O O6 0.749616 0.792548 0.405422
O O7 0.000000 0.777995 0.500000
O O8 0.258013 0.336192 0.756010
O O9 0.242309 0.416592 0.671295
O O10 0.000000 0.364737 0.683780
O O11 0.500000 0.551186 0.601145
O O12 0.260259 0.500000 0.619567
O O13 0.252521 0.559175 0.500000
O O14 0.242309 0.583408 0.671295
O O15 0.250000 0.750000 0.250000
O O16 0.241987 0.836192 0.256010
O O17 0.000000 0.789293 0.305005
#
# Coordination Sequence:
#
# PCOD9332062 Si02
#       8
#     8   8   8   8   8   8   8   8
#     4   9  16  28  45  67  98 132 164 198 238 285
#     4   9  18  34  50  65  96 133 167 204 247 289
#     4  11  20  32  49  72 101 135 169 204 246 297
#     4   9  18  32  49  72 102 132 165 207 249 291
#     4  11  21  34  51  72  97 131 170 209 249 294
#     4  11  21  34  51  72  97 131 170 209 249 294
#     4   9  18  32  49  72 102 132 165 207 249 291
#     4  11  20  32  49  72 101 135 169 204 246 297
#
# _framework density 16.222522999999999
#
# number of rings (size 3 to 8) (size 9 to 14) (size 15 to 20)
#    0.000    2.000    3.750    2.250    0.000    0.500 
#    0.000    5.000    0.000    0.000    0.000    0.875 
#    0.000    7.000    0.000    0.000    0.000    0.000 
#
# Total GULP energy -178381.038531 kJ/mol
# GULP energy per Si atom -5574.407454 kJ/mol
# Density = 1.618560 g / cm^3
# Si number density = 16.222523 Si / 1000 Ang^3
#
#
#
# Elastic Constant Matrix: (Units=GPa)
#
#
# Indices 1 2 3 4 5 6 
#
# 1 26.5890 15.8964 21.1190 0.0000 0.0000 0.0000
# 2 15.8964 116.4463 70.7290 0.0000 0.0000 0.0000
# 3 21.1190 70.7290 123.3339 0.0000 0.0000 0.0000
# 4 0.0000 0.0000 0.0000 22.3843 0.0000 0.0000
# 5 0.0000 0.0000 0.0000 0.0000 16.3664 0.0000
# 6 0.0000 0.0000 0.0000 0.0000 0.0000 25.1902
#
#
#
# Elastic Compliance Matrix: (Units=1/GPa)
#
#
# Indices 1 2 3 4 5 6 
#
# 1 0.043891 -0.002189 -0.006260 0.000000 0.000000 0.000000
# 2 -0.002189 0.013287 -0.007245 0.000000 0.000000 0.000000
# 3 -0.006260 -0.007245 0.013335 0.000000 0.000000 0.000000
# 4 0.000000 0.000000 0.000000 0.044674 0.000000 0.000000
# 5 0.000000 0.000000 0.000000 0.000000 0.061101 0.000000
# 6 0.000000 0.000000 0.000000 0.000000 0.000000 0.039698
#
#
# Mechanical properties :
#
#
# Convention : Reuss Voigt Hill
#
# Bulk Modulus (GPa) = 25.55980 53.53977 39.54979
# Shear Modulus (GPa) = 19.20010 23.36317 21.28164
#
# Velocity S-wave (km/s) = 3.44400 3.79907 3.62589
# Velocity P-wave (km/s) = 5.62182 7.23318 6.47780
#
# Compressibility (1/GPa) = 0.03912393
#
# Stress axis : x y z
#
# Youngs Moduli (GPa) = 22.78391 75.26120 74.99170
#
# Poissons Ratio (x) = 0.16477 0.46945
# Poissons Ratio (y) = 0.04988 0.54331
# Poissons Ratio (z) = 0.14263 0.54526
#
# Static dielectric constant tensor:
#      x y z
#    x 1.566860 0.000000 0.000000 
#    y 0.000000 1.550680 0.000000 
#    z 0.000000 0.000000 1.558400 
# 
# From -- ./inp_files/20415.got.cif
#   From: 2010.05.17/outbox.cif.g08.bks.cpg/sg23_11_cif.got.tgz:20415.got - 2010.06.04 12:02:01.
