data_PCOD9332416
_publ_section_title
;
Structure prediction by ZEFSAII (Michael W. Deem and Ramdas Pophale) SiO2 
 PCOD9332416
Probable space group: I 2 2 2
;
_chemical_formula_sum "Si O2"
_cell_formula_units_Z 34
_cell_length_a 11.406240
_cell_length_b 10.583524
_cell_length_c 11.743752
_cell_angle_alpha 90.000000
_cell_angle_beta 90.000000
_cell_angle_gamma 90.000000
_cell_volume 1417.684776
_symmetry_space_group_name_H-M "I 2 2 2"
_symmetry_group_IT_number 23
_symmetry_cell_setting 'orthorhombic'
loop_
_space_group_symop_operation_xyz
x,y,z
-x,-y,z
x,-y,-z
-x,y,-z
1/2+x,1/2+y,1/2+z
1/2-x,1/2-y,1/2+z
1/2+x,1/2-y,1/2-z
1/2-x,1/2+y,1/2-z
loop_
_atom_site_type_symbol
_atom_site_label
_atom_site_fract_x
_atom_site_fract_y
_atom_site_fract_z
Si Si1 0.500000 0.000000 0.500000
Si Si2 0.395491 0.318744 0.074307
Si Si3 0.745355 0.375393 0.573789
Si Si4 0.667348 0.138204 0.325922
Si Si5 0.504740 0.652807 0.309521
O O1 0.425207 0.920950 0.410496
O O2 0.290032 0.403653 0.117880
O O3 0.452952 0.277910 0.193773
O O4 0.500000 0.370370 0.000000
O O5 0.328386 0.216010 0.998814
O O6 0.729876 0.500000 0.500000
O O7 0.812055 0.397115 0.694278
O O8 0.613744 0.325062 0.603832
O O9 0.623192 0.285511 0.329676
O O10 0.500000 0.500000 0.295692
#
# Coordination Sequence:
#
# PCOD9332416 Si02
#       5
#     2   8   8   8   8
#     4  12  28  48  74 108 156 196 260 318 388 452
#     4  11  24  45  71 110 150 189 249 312 376 454
#     4  11  25  45  77 111 150 197 256 320 382 453
#     4  11  26  47  74 111 148 203 251 319 389 453
#     4  11  25  48  76 106 150 201 255 305 381 457
#
# _framework density 23.982765000000001
#
# number of rings (size 3 to 8) (size 9 to 14) (size 15 to 20)
#    0.000    0.941    2.353    2.824    3.294    7.059 
#    4.235    0.000    0.000    0.000    0.000    0.000 
#    0.000    0.000    0.000    0.000    0.000    0.000 
#
# Total GULP energy -94868.952800 kJ/mol
# GULP energy per Si atom -5580.526635 kJ/mol
# Density = 2.392818 g / cm^3
# Si number density = 23.982765 Si / 1000 Ang^3
#
#
#
# Elastic Constant Matrix: (Units=GPa)
#
#
# Indices 1 2 3 4 5 6 
#
# 1 146.1598 34.0429 58.5267 0.0000 0.0000 0.0000
# 2 34.0429 44.7236 52.6947 0.0000 0.0000 0.0000
# 3 58.5267 52.6947 177.7834 0.0000 0.0000 0.0000
# 4 0.0000 0.0000 0.0000 25.7048 0.0000 0.0000
# 5 0.0000 0.0000 0.0000 0.0000 54.6312 0.0000
# 6 0.0000 0.0000 0.0000 0.0000 0.0000 305.5086
#
#
#
# Elastic Compliance Matrix: (Units=1/GPa)
#
#
# Indices 1 2 3 4 5 6 
#
# 1 0.008524 -0.004890 -0.001357 0.000000 0.000000 0.000000
# 2 -0.004890 0.037163 -0.009405 0.000000 0.000000 0.000000
# 3 -0.001357 -0.009405 0.008859 0.000000 0.000000 0.000000
# 4 0.000000 0.000000 0.000000 0.038903 0.000000 0.000000
# 5 0.000000 0.000000 0.000000 0.000000 0.018305 0.000000
# 6 0.000000 0.000000 0.000000 0.000000 0.000000 0.003273
#
#
# Mechanical properties :
#
#
# Convention : Reuss Voigt Hill
#
# Bulk Modulus (GPa) = 43.02437 73.24391 58.13414
# Shear Modulus (GPa) = 32.45088 92.06242 62.25665
#
# Velocity S-wave (km/s) = 3.68243 6.20244 5.10052
# Velocity P-wave (km/s) = 6.00492 9.04987 7.67982
#
# Compressibility (1/GPa) = 0.02324264
#
# Stress axis : x y z
#
# Youngs Moduli (GPa) = 117.31543 26.90828 112.87637
#
# Poissons Ratio (x) = 0.13157 0.15315
# Poissons Ratio (y) = 0.57364 1.06165
# Poissons Ratio (z) = 0.15918 0.25308
#
# Static dielectric constant tensor:
#      x y z
#    x 1.977280 0.000000 0.000000 
#    y 0.000000 1.916070 0.000000 
#    z 0.000000 0.000000 1.334800 
# 
# From -- ./inp_files/15341.got.cif
#   From: 2010.05.17/outbox.cif.g08.bks.cpg/sg23_8_cif.got.tgz:15341.got - 2010.06.04 12:02:01.
