data_PCOD9332261
_publ_section_title
;
Structure prediction by ZEFSAII (Michael W. Deem and Ramdas Pophale) SiO2 
 PCOD9332261
Probable space group: I 2 2 2
;
_chemical_formula_sum "Si O2"
_cell_formula_units_Z 40
_cell_length_a 10.176116
_cell_length_b 22.350629
_cell_length_c 7.169428
_cell_angle_alpha 90.000000
_cell_angle_beta 90.000000
_cell_angle_gamma 90.000000
_cell_volume 1630.633297
_symmetry_space_group_name_H-M "I 2 2 2"
_symmetry_group_IT_number 23
_symmetry_cell_setting 'orthorhombic'
loop_
_space_group_symop_operation_xyz
x,y,z
-x,-y,z
x,-y,-z
-x,y,-z
1/2+x,1/2+y,1/2+z
1/2-x,1/2-y,1/2+z
1/2+x,1/2-y,1/2-z
1/2-x,1/2+y,1/2-z
loop_
_atom_site_type_symbol
_atom_site_label
_atom_site_fract_x
_atom_site_fract_y
_atom_site_fract_z
Si Si1 0.381677 0.190144 0.678791
Si Si2 0.293852 0.515151 0.285356
Si Si3 0.952773 0.096097 0.297366
Si Si4 0.162284 0.625879 0.177190
Si Si5 0.177167 0.814349 0.005587
O O1 0.305512 0.148163 0.530583
O O2 0.303316 0.200028 0.866926
O O3 0.382373 0.253930 0.576870
O O4 0.519953 0.156514 0.711821
O O5 0.264199 0.500000 0.500000
O O6 0.575093 0.556328 0.722898
O O7 0.337190 0.453610 0.187853
O O8 0.176549 0.554688 0.199932
O O9 0.911169 0.146490 0.148892
O O10 0.000000 0.118456 0.500000
O O11 0.262532 0.651325 0.329501
#
# Coordination Sequence:
#
# PCOD9332261 Si02
#       5
#     8   8   8   8   8
#     4  11  26  48  73 115 154 216 267 333 408 495
#     4  11  22  43  73 112 154 202 263 326 399 480
#     4  11  24  43  77 117 154 204 268 334 397 478
#     4  11  25  47  75 109 162 206 269 331 410 484
#     4  12  24  49  75 111 162 207 267 337 402 484
#
# _framework density 24.530346999999999
#
# number of rings (size 3 to 8) (size 9 to 14) (size 15 to 20)
#    0.000    0.800    4.000    4.200    0.000    3.200 
#    7.200    1.000    0.000    2.400    0.000    0.000 
#    0.000    0.000    0.000    0.000    0.000    0.000 
#
# Total GULP energy -111930.484843 kJ/mol
# GULP energy per Si atom -5596.524242 kJ/mol
# Density = 2.447451 g / cm^3
# Si number density = 24.530347 Si / 1000 Ang^3
#
#
#
# Elastic Constant Matrix: (Units=GPa)
#
#
# Indices 1 2 3 4 5 6 
#
# 1 101.6948 83.3384 48.8653 0.0004 -0.0004 -0.0002
# 2 83.3384 183.6783 62.0352 0.0007 -0.0008 -0.0005
# 3 48.8653 62.0352 119.2548 0.0032 -0.0030 -0.0024
# 4 0.0004 0.0007 0.0032 55.1274 -0.0010 -0.0007
# 5 -0.0004 -0.0008 -0.0030 -0.0010 29.5312 0.0006
# 6 -0.0002 -0.0005 -0.0024 -0.0007 0.0006 37.3356
#
#
#
# Elastic Compliance Matrix: (Units=1/GPa)
#
#
# Indices 1 2 3 4 5 6 
#
# 1 0.016802 -0.006427 -0.003541 0.000000 0.000000 0.000000
# 2 -0.006427 0.009063 -0.002081 0.000000 0.000000 0.000000
# 3 -0.003541 -0.002081 0.010919 -0.000001 0.000001 0.000001
# 4 0.000000 0.000000 -0.000001 0.018140 0.000001 0.000000
# 5 0.000000 0.000000 0.000001 0.000001 0.033862 -0.000001
# 6 0.000000 0.000000 0.000001 0.000000 -0.000001 0.026784
#
#
# Mechanical properties :
#
#
# Convention : Reuss Voigt Hill
#
# Bulk Modulus (GPa) = 78.83270 88.12285 83.47777
# Shear Modulus (GPa) = 34.74658 38.42476 36.58567
#
# Velocity S-wave (km/s) = 3.76769 3.96209 3.86611
# Velocity P-wave (km/s) = 7.15080 7.54539 7.35074
#
# Compressibility (1/GPa) = 0.01268509
#
# Stress axis : x y z
#
# Youngs Moduli (GPa) = 59.51575 110.33380 91.58350
#
# Poissons Ratio (x) = 0.70917 0.32433
# Poissons Ratio (y) = 0.38254 0.19059
# Poissons Ratio (z) = 0.21076 0.22960
#
# Static dielectric constant tensor:
#      x y z
#    x 2.048010 0.000000 0.000000 
#    y 0.000000 1.964610 0.000000 
#    z 0.000000 0.000000 1.954260 
# 
# From -- ./inp_files/3833.got.cif
#   From: 2010.05.17/outbox.cif.g08.bks.cpg/sg23_2_cif.got.tgz:3833.got - 2010.06.04 12:02:01.
