data_PCOD9332295
_publ_section_title
;
Structure prediction by ZEFSAII (Michael W. Deem and Ramdas Pophale) SiO2 
 PCOD9332295
Probable space group: I 2 2 2
;
_chemical_formula_sum "Si O2"
_cell_formula_units_Z 64
_cell_length_a 32.410601
_cell_length_b 8.611492
_cell_length_c 9.655503
_cell_angle_alpha 90.000000
_cell_angle_beta 90.000000
_cell_angle_gamma 90.000000
_cell_volume 2694.885949
_symmetry_space_group_name_H-M "I 2 2 2"
_symmetry_group_IT_number 23
_symmetry_cell_setting 'orthorhombic'
loop_
_space_group_symop_operation_xyz
x,y,z
-x,-y,z
x,-y,-z
-x,y,-z
1/2+x,1/2+y,1/2+z
1/2-x,1/2-y,1/2+z
1/2+x,1/2-y,1/2-z
1/2-x,1/2+y,1/2-z
loop_
_atom_site_type_symbol
_atom_site_label
_atom_site_fract_x
_atom_site_fract_y
_atom_site_fract_z
Si Si1 0.045299 0.186420 0.707783
Si Si2 0.558224 0.813678 0.503597
Si Si3 0.220854 0.680398 0.823202
Si Si4 0.221768 0.682508 0.174011
Si Si5 0.045865 0.815510 0.694002
Si Si6 0.152945 0.688889 0.001080
Si Si7 0.290570 0.685471 0.997098
Si Si8 0.114647 0.684880 0.489092
O O1 0.040809 0.233808 0.867604
O O2 0.085840 0.267381 0.642419
O O3 0.000463 0.227877 0.644110
O O4 0.049831 0.001714 0.689983
O O5 0.546369 0.745821 0.650227
O O6 0.606233 0.774502 0.494176
O O7 0.551741 0.000000 0.500000
O O8 0.221121 0.498630 0.783643
O O9 0.225895 0.759910 0.661791
O O10 0.175383 0.745795 0.861524
O O11 0.272883 0.737397 0.833717
O O12 0.176424 0.749271 0.136982
O O13 0.231803 0.671302 0.998956
O O14 0.084967 0.746287 0.612486
O O15 0.156085 0.500000 0.000000
O O16 0.297033 0.500000 0.000000
O O17 0.337674 0.755421 0.992139
O O18 0.117507 0.500000 0.500000
#
# Coordination Sequence:
#
# PCOD9332295 Si02
#       8
#     8   8   8   8   8   8   8   8
#     4  11  25  46  69  94 129 171 211 259 324 394
#     4  11  23  40  67 101 134 169 212 264 316 374
#     4   9  18  34  56  80 115 159 203 252 302 361
#     4   9  18  34  56  80 115 159 203 252 302 361
#     4  11  25  46  69  94 129 171 211 259 324 394
#     4   8  18  36  54  80 120 159 197 249 310 358
#     4   9  20  38  56  82 121 165 206 251 310 376
#     4  12  26  42  67  99 129 164 213 274 326 381
#
# _framework density 23.748685999999999
#
# number of rings (size 3 to 8) (size 9 to 14) (size 15 to 20)
#    0.000    2.000    0.000    4.500    3.500    6.000 
#    0.000    3.125    0.000    0.000    0.000    0.000 
#    0.000    0.000    0.000    0.000    0.000    0.000 
#
# Total GULP energy -178369.118998 kJ/mol
# GULP energy per Si atom -5574.034969 kJ/mol
# Density = 2.369463 g / cm^3
# Si number density = 23.748686 Si / 1000 Ang^3
#
#
#
# Elastic Constant Matrix: (Units=GPa)
#
#
# Indices 1 2 3 4 5 6 
#
# 1 95.5397 12.9482 22.0219 0.0000 0.0000 0.0000
# 2 12.9482 91.1107 29.7665 0.0000 0.0000 0.0000
# 3 22.0219 29.7665 141.6126 0.0000 0.0000 0.0000
# 4 0.0000 0.0000 0.0000 28.7949 0.0000 0.0000
# 5 0.0000 0.0000 0.0000 0.0000 60.9350 0.0000
# 6 0.0000 0.0000 0.0000 0.0000 0.0000 32.5423
#
#
#
# Elastic Compliance Matrix: (Units=1/GPa)
#
#
# Indices 1 2 3 4 5 6 
#
# 1 0.010953 -0.001074 -0.001478 0.000000 0.000000 0.000000
# 2 -0.001074 0.011890 -0.002332 0.000000 0.000000 0.000000
# 3 -0.001478 -0.002332 0.007782 0.000000 0.000000 0.000000
# 4 0.000000 0.000000 0.000000 0.034728 0.000000 0.000000
# 5 0.000000 0.000000 0.000000 0.000000 0.016411 0.000000
# 6 0.000000 0.000000 0.000000 0.000000 0.000000 0.030729
#
#
# Mechanical properties :
#
#
# Convention : Reuss Voigt Hill
#
# Bulk Modulus (GPa) = 47.94474 50.85955 49.40215
# Shear Modulus (GPa) = 38.69575 42.02286 40.35930
#
# Velocity S-wave (km/s) = 4.04094 4.21108 4.12689
# Velocity P-wave (km/s) = 6.48109 6.71614 6.59966
#
# Compressibility (1/GPa) = 0.02085734
#
# Stress axis : x y z
#
# Youngs Moduli (GPa) = 91.29945 84.10254 128.50939
#
# Poissons Ratio (x) = 0.09031 0.18988
# Poissons Ratio (y) = 0.09804 0.29972
# Poissons Ratio (z) = 0.13490 0.19615
#
# Static dielectric constant tensor:
#      x y z
#    x 2.140260 0.000000 0.000000 
#    y 0.000000 1.780010 0.000000 
#    z 0.000000 0.000000 1.894940 
# 
# From -- ./inp_files/18822.got.cif
#   From: 2010.05.17/outbox.cif.g08.bks.cpg/sg23_10_cif.got.tgz:18822.got - 2010.06.04 12:02:01.
