data_PCOD9332472
_publ_section_title
;
Structure prediction by ZEFSAII (Michael W. Deem and Ramdas Pophale) SiO2 
 PCOD9332472
Probable space group: I 2 2 2
;
_chemical_formula_sum "Si O2"
_cell_formula_units_Z 34
_cell_length_a 7.600187
_cell_length_b 10.033052
_cell_length_c 19.005613
_cell_angle_alpha 90.000000
_cell_angle_beta 90.000000
_cell_angle_gamma 90.000000
_cell_volume 1449.236365
_symmetry_space_group_name_H-M "I 2 2 2"
_symmetry_group_IT_number 23
_symmetry_cell_setting 'orthorhombic'
loop_
_space_group_symop_operation_xyz
x,y,z
-x,-y,z
x,-y,-z
-x,y,-z
1/2+x,1/2+y,1/2+z
1/2-x,1/2-y,1/2+z
1/2+x,1/2-y,1/2-z
1/2-x,1/2+y,1/2-z
loop_
_atom_site_type_symbol
_atom_site_label
_atom_site_fract_x
_atom_site_fract_y
_atom_site_fract_z
Si Si1 0.188201 0.938789 0.408823
Si Si2 0.808990 0.293117 0.160977
Si Si3 0.000000 0.500000 0.000000
Si Si4 0.793539 0.208840 0.823177
Si Si5 0.293156 0.032310 0.920431
O O1 0.270376 0.058968 0.364647
O O2 0.239535 0.214353 0.259548
O O3 0.350325 0.908448 0.462300
O O4 0.000000 0.000000 0.431210
O O5 0.841494 0.192656 0.362987
O O6 0.736417 0.182123 0.106905
O O7 0.015349 0.268413 0.164847
O O8 0.785363 0.065916 0.860903
O O9 0.500000 0.000000 0.921443
O O10 0.227204 0.000000 0.000000
#
# Coordination Sequence:
#
# PCOD9332472 Si02
#       5
#     8   8   2   8   8
#     4  12  26  46  73 105 142 186 238 293 349 423
#     4  12  25  46  71 103 141 188 240 292 355 426
#     4  12  26  48  68 108 144 184 240 282 360 422
#     4  12  25  46  71 103 141 188 240 292 355 426
#     4  11  26  45  69 104 142 183 232 292 361 421
#
# _framework density 23.460630999999999
#
# number of rings (size 3 to 8) (size 9 to 14) (size 15 to 20)
#    0.000    0.235    2.353    6.706    3.294    1.882 
#    0.000    0.000    0.000    0.000    0.000    0.000 
#    0.000    0.000    0.000    0.000    0.000    0.000 
#
# Total GULP energy -95044.010389 kJ/mol
# GULP energy per Si atom -5590.824141 kJ/mol
# Density = 2.340723 g / cm^3
# Si number density = 23.460631 Si / 1000 Ang^3
#
#
#
# Elastic Constant Matrix: (Units=GPa)
#
#
# Indices 1 2 3 4 5 6 
#
# 1 131.7531 -14.1171 15.2446 0.0000 0.0000 0.0000
# 2 -14.1171 100.1788 23.4178 0.0000 0.0000 0.0000
# 3 15.2446 23.4178 123.2671 0.0000 0.0000 0.0000
# 4 0.0000 0.0000 0.0000 38.1177 0.0000 0.0000
# 5 0.0000 0.0000 0.0000 0.0000 25.0453 0.0000
# 6 0.0000 0.0000 0.0000 0.0000 0.0000 39.9581
#
#
#
# Elastic Compliance Matrix: (Units=1/GPa)
#
#
# Indices 1 2 3 4 5 6 
#
# 1 0.007884 0.001401 -0.001241 0.000000 0.000000 0.000000
# 2 0.001401 0.010695 -0.002205 0.000000 0.000000 0.000000
# 3 -0.001241 -0.002205 0.008685 0.000000 0.000000 0.000000
# 4 0.000000 0.000000 0.000000 0.026235 0.000000 0.000000
# 5 0.000000 0.000000 0.000000 0.000000 0.039928 0.000000
# 6 0.000000 0.000000 0.000000 0.000000 0.000000 0.025026
#
#
# Mechanical properties :
#
#
# Convention : Reuss Voigt Hill
#
# Bulk Modulus (GPa) = 43.15305 44.92106 44.03706
# Shear Modulus (GPa) = 38.38277 42.66779 40.52528
#
# Velocity S-wave (km/s) = 4.04920 4.26925 4.16068
# Velocity P-wave (km/s) = 6.34784 6.59477 6.47248
#
# Compressibility (1/GPa) = 0.02317333
#
# Stress axis : x y z
#
# Youngs Moduli (GPa) = 126.84412 93.50115 115.14272
#
# Poissons Ratio (x) = -0.13100 0.14291
# Poissons Ratio (y) = -0.17772 0.25390
# Poissons Ratio (z) = 0.15743 0.20618
#
# Static dielectric constant tensor:
#      x y z
#    x 1.866950 0.000000 0.000000 
#    y 0.000000 1.865890 0.000000 
#    z 0.000000 0.000000 2.058860 
# 
# From -- ./inp_files/23526.got.cif
#   From: 2010.05.17/outbox.cif.g08.bks.cpg/sg23_12_cif.got.tgz:23526.got - 2010.06.04 12:02:01.
