data_PCOD9332352
_publ_section_title
;
Structure prediction by ZEFSAII (Michael W. Deem and Ramdas Pophale) SiO2 
 PCOD9332352
Probable space group: I 2 2 2
;
_chemical_formula_sum "Si O2"
_cell_formula_units_Z 36
_cell_length_a 19.424366
_cell_length_b 9.435647
_cell_length_c 8.323501
_cell_angle_alpha 90.000000
_cell_angle_beta 90.000000
_cell_angle_gamma 90.000000
_cell_volume 1525.543422
_symmetry_space_group_name_H-M "I 2 2 2"
_symmetry_group_IT_number 23
_symmetry_cell_setting 'orthorhombic'
loop_
_space_group_symop_operation_xyz
x,y,z
-x,-y,z
x,-y,-z
-x,y,-z
1/2+x,1/2+y,1/2+z
1/2-x,1/2-y,1/2+z
1/2+x,1/2-y,1/2-z
1/2-x,1/2+y,1/2-z
loop_
_atom_site_type_symbol
_atom_site_label
_atom_site_fract_x
_atom_site_fract_y
_atom_site_fract_z
Si Si1 0.360657 0.500000 0.500000
Si Si2 0.537306 0.363481 0.766191
Si Si3 0.342523 0.669502 0.967573
Si Si4 0.377514 0.000000 0.500000
Si Si5 0.295417 0.764042 0.313304
Si Si6 0.500000 0.193631 0.500000
O O1 0.409046 0.576928 0.631873
O O2 0.317076 0.623473 0.413058
O O3 0.500000 0.500000 0.832599
O O4 0.582474 0.289396 0.901622
O O5 0.481220 0.280149 0.659428
O O6 0.285808 0.710767 0.834665
O O7 0.342361 0.500000 0.000000
O O8 0.319057 0.741494 0.131849
O O9 0.330861 0.094921 0.614324
O O10 0.434225 0.109669 0.432527
#
# Coordination Sequence:
#
# PCOD9332352 Si02
#       6
#     4   8   8   4   8   4
#     4  12  21  44  80 110 144 211 258 314 390 473
#     4  12  22  45  75 113 151 200 260 312 386 466
#     4  12  28  46  74 119 156 203 260 332 389 465
#     4  11  24  46  76 108 153 200 254 318 383 466
#     4  12  26  48  75 113 157 201 263 323 396 464
#     4  11  23  44  76 107 144 209 256 303 382 463
#
# _framework density 23.598147999999998
#
# number of rings (size 3 to 8) (size 9 to 14) (size 15 to 20)
#    0.000    0.222    7.778    1.333    0.000    0.444 
#    0.000    0.000    0.000    2.667    0.000    0.000 
#    0.000    0.000    0.000    0.000    0.000    0.000 
#
# Total GULP energy -100687.269268 kJ/mol
# GULP energy per Si atom -5593.737182 kJ/mol
# Density = 2.354444 g / cm^3
# Si number density = 23.598148 Si / 1000 Ang^3
#
#
#
# Elastic Constant Matrix: (Units=GPa)
#
#
# Indices 1 2 3 4 5 6 
#
# 1 101.5200 17.6910 33.9181 0.0000 0.0000 0.0000
# 2 17.6910 84.9857 36.9900 0.0000 0.0000 0.0000
# 3 33.9181 36.9900 135.5564 0.0000 0.0000 0.0000
# 4 0.0000 0.0000 0.0000 27.2487 0.0000 0.0000
# 5 0.0000 0.0000 0.0000 0.0000 49.9448 0.0000
# 6 0.0000 0.0000 0.0000 0.0000 0.0000 27.8547
#
#
#
# Elastic Compliance Matrix: (Units=1/GPa)
#
#
# Indices 1 2 3 4 5 6 
#
# 1 0.010860 -0.001223 -0.002383 0.000000 0.000000 0.000000
# 2 -0.001223 0.013490 -0.003375 0.000000 0.000000 0.000000
# 3 -0.002383 -0.003375 0.008894 0.000000 0.000000 0.000000
# 4 0.000000 0.000000 0.000000 0.036699 0.000000 0.000000
# 5 0.000000 0.000000 0.000000 0.000000 0.020022 0.000000
# 6 0.000000 0.000000 0.000000 0.000000 0.000000 0.035901
#
#
# Mechanical properties :
#
#
# Convention : Reuss Voigt Hill
#
# Bulk Modulus (GPa) = 51.86492 55.47337 53.66915
# Shear Modulus (GPa) = 34.18644 36.57382 35.38013
#
# Velocity S-wave (km/s) = 3.81030 3.94110 3.87625
# Velocity P-wave (km/s) = 6.43303 6.65344 6.54416
#
# Compressibility (1/GPa) = 0.01928085
#
# Stress axis : x y z
#
# Youngs Moduli (GPa) = 92.08307 74.12715 112.43077
#
# Poissons Ratio (x) = 0.09067 0.26798
# Poissons Ratio (y) = 0.11264 0.37947
# Poissons Ratio (z) = 0.21948 0.25019
#
# Static dielectric constant tensor:
#      x y z
#    x 1.905180 0.000000 0.000000 
#    y 0.000000 2.020320 0.000000 
#    z 0.000000 0.000000 1.907960 
# 
# From -- ./inp_files/11702.got.cif
#   From: 2010.05.17/outbox.cif.g08.bks.cpg/sg23_6_cif.got.tgz:11702.got - 2010.06.04 12:02:01.
