data_PCOD9332329
_publ_section_title
;
Structure prediction by ZEFSAII (Michael W. Deem and Ramdas Pophale) SiO2 
 PCOD9332329
Probable space group: I 2 2 2
;
_chemical_formula_sum "Si O2"
_cell_formula_units_Z 48
_cell_length_a 14.030724
_cell_length_b 9.593624
_cell_length_c 15.132435
_cell_angle_alpha 90.000000
_cell_angle_beta 90.000000
_cell_angle_gamma 90.000000
_cell_volume 2036.908836
_symmetry_space_group_name_H-M "I 2 2 2"
_symmetry_group_IT_number 23
_symmetry_cell_setting 'orthorhombic'
loop_
_space_group_symop_operation_xyz
x,y,z
-x,-y,z
x,-y,-z
-x,y,-z
1/2+x,1/2+y,1/2+z
1/2-x,1/2-y,1/2+z
1/2+x,1/2-y,1/2-z
1/2-x,1/2+y,1/2-z
loop_
_atom_site_type_symbol
_atom_site_label
_atom_site_fract_x
_atom_site_fract_y
_atom_site_fract_z
Si Si1 0.500000 0.500000 0.615986
Si Si2 0.365158 0.099220 0.856200
Si Si3 0.606499 0.994271 0.396254
Si Si4 0.150336 0.186983 0.858118
Si Si5 0.500000 0.783338 0.000000
Si Si6 0.622230 0.216228 0.829588
Si Si7 0.651714 0.720714 0.689300
O O1 0.571121 0.381211 0.577737
O O2 0.581386 0.597265 0.661505
O O3 0.250622 0.110210 0.868123
O O4 0.419911 0.135216 0.945320
O O5 0.379869 0.223256 0.785519
O O6 0.402746 0.948642 0.824510
O O7 0.660259 0.852174 0.373375
O O8 0.500000 0.000000 0.358904
O O9 0.600570 0.000000 0.500000
O O10 0.648508 0.138284 0.366602
O O11 0.108037 0.187758 0.757495
O O12 0.433088 0.724395 0.916947
O O13 0.736723 0.192527 0.823803
#
# Coordination Sequence:
#
# PCOD9332329 Si02
#       7
#     4   8   8   8   4   8   8
#     4  12  22  42  71 103 128 186 234 302 356 427
#     4  11  23  43  68 108 140 192 238 295 363 438
#     4  11  24  43  68  97 132 188 230 289 364 433
#     4  11  24  43  73 101 148 181 243 296 362 445
#     4  12  27  42  72 105 150 189 242 305 366 433
#     4  11  23  43  68 108 140 192 238 295 363 438
#     4  11  24  43  73 101 148 181 243 296 362 445
#
# _framework density 23.565121000000001
#
# number of rings (size 3 to 8) (size 9 to 14) (size 15 to 20)
#    0.000    0.833    5.000    2.500    2.333    0.000 
#    0.000    1.667    0.000    3.000    0.000    0.000 
#    0.000    0.000    0.000    0.000    0.000    0.000 
#
# Total GULP energy -133638.354877 kJ/mol
# GULP energy per Si atom -5568.264787 kJ/mol
# Density = 2.351149 g / cm^3
# Si number density = 23.565121 Si / 1000 Ang^3
#
#
#
# Elastic Constant Matrix: (Units=GPa)
#
#
# Indices 1 2 3 4 5 6 
#
# 1 112.0585 23.5717 33.7338 0.0000 0.0000 0.0000
# 2 23.5717 102.4055 15.5330 0.0000 0.0000 0.0000
# 3 33.7338 15.5330 117.4380 0.0000 0.0000 0.0000
# 4 0.0000 0.0000 0.0000 -1.3823 0.0000 0.0000
# 5 0.0000 0.0000 0.0000 0.0000 61.7318 0.0000
# 6 0.0000 0.0000 0.0000 0.0000 0.0000 41.6361
#
#
#
# Elastic Compliance Matrix: (Units=1/GPa)
#
#
# Indices 1 2 3 4 5 6 
#
# 1 0.010129 -0.001929 -0.002654 0.000000 0.000000 0.000000
# 2 -0.001929 0.010332 -0.000813 0.000000 0.000000 0.000000
# 3 -0.002654 -0.000813 0.009385 0.000000 0.000000 0.000000
# 4 0.000000 0.000000 0.000000 -0.723439 0.000000 0.000000
# 5 0.000000 0.000000 0.000000 0.000000 0.016199 0.000000
# 6 0.000000 0.000000 0.000000 0.000000 0.000000 0.024018
#
#
# Mechanical properties :
#
#
# Convention : Reuss Voigt Hill
#
# Bulk Modulus (GPa) = 52.48060 53.06434 52.77247
# Shear Modulus (GPa) = -7.85876 37.66803 14.90463
#
# Velocity S-wave (km/s) = -1.82816 4.00242 2.51766
# Velocity P-wave (km/s) = 4.22642 6.62768 5.55827
#
# Compressibility (1/GPa) = 0.01905466
#
# Stress axis : x y z
#
# Youngs Moduli (GPa) = 98.72941 96.78368 106.55239
#
# Poissons Ratio (x) = 0.18668 0.28283
# Poissons Ratio (y) = 0.19043 0.08658
# Poissons Ratio (z) = 0.26206 0.07864
#
# Static dielectric constant tensor:
#      x y z
#    x 1.852770 0.000000 0.000000 
#    y 0.000000 1.399430 0.000000 
#    z 0.000000 0.000000 1.980070 
# 
# From -- ./inp_files/24754.got.cif
#   From: 2010.05.17/outbox.cif.g08.bks.cpg/sg23_13_cif.got.tgz:24754.got - 2010.06.04 12:02:01.
