data_PCOD9332036
_publ_section_title
;
Structure prediction by ZEFSAII (Michael W. Deem and Ramdas Pophale) SiO2 
 PCOD9332036
Probable space group: I 2 2 2
;
_chemical_formula_sum "Si O2"
_cell_formula_units_Z 38
_cell_length_a 8.507214
_cell_length_b 20.306226
_cell_length_c 9.795766
_cell_angle_alpha 90.000000
_cell_angle_beta 90.000000
_cell_angle_gamma 90.000000
_cell_volume 1692.212798
_symmetry_space_group_name_H-M "I 2 2 2"
_symmetry_group_IT_number 23
_symmetry_cell_setting 'orthorhombic'
loop_
_space_group_symop_operation_xyz
x,y,z
-x,-y,z
x,-y,-z
-x,y,-z
1/2+x,1/2+y,1/2+z
1/2-x,1/2-y,1/2+z
1/2+x,1/2-y,1/2-z
1/2-x,1/2+y,1/2-z
loop_
_atom_site_type_symbol
_atom_site_label
_atom_site_fract_x
_atom_site_fract_y
_atom_site_fract_z
Si Si1 0.500000 0.000000 0.000000
Si Si2 0.490776 0.781656 0.151374
Si Si3 0.665359 0.912673 0.764377
Si Si4 0.500000 0.901546 0.500000
Si Si5 0.261950 0.666344 0.184344
Si Si6 0.010647 0.921627 0.845399
O O1 0.605590 0.044880 0.103773
O O2 0.394052 0.837763 0.228238
O O3 0.408011 0.711465 0.142611
O O4 0.659852 0.785316 0.220072
O O5 0.500000 0.808416 0.000000
O O6 0.586615 0.938424 0.625029
O O7 0.852050 0.906677 0.763961
O O8 0.356407 0.859689 0.568574
O O9 0.334661 0.605964 0.271264
O O10 0.000000 0.000000 0.854924
O O11 0.000000 0.894018 0.000000
#
# Coordination Sequence:
#
# PCOD9332036 Si02
#       6
#     2   8   8   4   8   8
#     4  12  24  46  82 104 148 190 276 308 380 464
#     4  11  24  42  72  99 140 189 244 303 362 456
#     4  11  25  47  73 108 143 196 246 313 374 457
#     4  10  28  47  72 108 152 193 246 314 392 454
#     4  11  26  45  70 109 147 194 249 310 391 446
#     4  11  25  45  75 107 146 196 256 319 374 458
#
# _framework density 22.455801999999998
#
# number of rings (size 3 to 8) (size 9 to 14) (size 15 to 20)
#    0.000    1.053    1.053    3.789   17.684    0.421 
#    3.789    1.053    0.000    0.000    0.000    0.000 
#    0.000    0.000    0.000    0.000    0.000    0.000 
#
# Total GULP energy -106072.147939 kJ/mol
# GULP energy per Si atom -5582.744628 kJ/mol
# Density = 2.240469 g / cm^3
# Si number density = 22.455802 Si / 1000 Ang^3
#
#
#
# Elastic Constant Matrix: (Units=GPa)
#
#
# Indices 1 2 3 4 5 6 
#
# 1 133.5988 39.2116 63.3960 0.0002 0.0000 0.0000
# 2 39.2116 71.7338 27.3270 0.0002 0.0000 0.0000
# 3 63.3960 27.3270 145.6726 0.0010 0.0002 -0.0005
# 4 0.0002 0.0002 0.0010 18.3593 0.0000 -0.0002
# 5 0.0000 0.0000 0.0002 0.0000 35.6366 0.0002
# 6 0.0000 0.0000 -0.0005 -0.0002 0.0002 9.1924
#
#
#
# Elastic Compliance Matrix: (Units=1/GPa)
#
#
# Indices 1 2 3 4 5 6 
#
# 1 0.010548 -0.004326 -0.003779 0.000000 0.000000 0.000000
# 2 -0.004326 0.016788 -0.001266 0.000000 0.000000 0.000000
# 3 -0.003779 -0.001266 0.008747 0.000000 0.000000 0.000000
# 4 0.000000 0.000000 0.000000 0.054468 0.000000 0.000001
# 5 0.000000 0.000000 0.000000 0.000000 0.028061 -0.000001
# 6 0.000000 0.000000 0.000000 0.000001 -0.000001 0.108786
#
#
# Mechanical properties :
#
#
# Convention : Reuss Voigt Hill
#
# Bulk Modulus (GPa) = 57.67221 67.87494 62.77357
# Shear Modulus (GPa) = 19.84748 27.37568 23.61158
#
# Velocity S-wave (km/s) = 2.97618 3.49534 3.24615
# Velocity P-wave (km/s) = 6.12768 6.82506 6.48575
#
# Compressibility (1/GPa) = 0.01733937
#
# Stress axis : x y z
#
# Youngs Moduli (GPa) = 94.80424 59.56721 114.32702
#
# Poissons Ratio (x) = 0.25770 0.43203
# Poissons Ratio (y) = 0.41015 0.14479
# Poissons Ratio (z) = 0.35825 0.07544
#
# Static dielectric constant tensor:
#      x y z
#    x 1.835550 0.000000 0.000000 
#    y 0.000000 1.889390 0.000000 
#    z 0.000000 0.000000 1.923980 
# 
# From -- ./inp_files/6951.got.cif
#   From: 2010.05.17/outbox.cif.g08.bks.cpg/sg23_4_cif.got.tgz:6951.got - 2010.06.04 12:02:01.
