data_PCOD9332545
_publ_section_title
;
Structure prediction by ZEFSAII (Michael W. Deem and Ramdas Pophale) SiO2 
 PCOD9332545
Probable space group: I 2 2 2
;
_chemical_formula_sum "Si O2"
_cell_formula_units_Z 64
_cell_length_a 29.628879
_cell_length_b 8.989304
_cell_length_c 12.437469
_cell_angle_alpha 90.000000
_cell_angle_beta 90.000000
_cell_angle_gamma 90.000000
_cell_volume 3312.632812
_symmetry_space_group_name_H-M "I 2 2 2"
_symmetry_group_IT_number 23
_symmetry_cell_setting 'orthorhombic'
loop_
_space_group_symop_operation_xyz
x,y,z
-x,-y,z
x,-y,-z
-x,y,-z
1/2+x,1/2+y,1/2+z
1/2-x,1/2-y,1/2+z
1/2+x,1/2-y,1/2-z
1/2-x,1/2+y,1/2-z
loop_
_atom_site_type_symbol
_atom_site_label
_atom_site_fract_x
_atom_site_fract_y
_atom_site_fract_z
Si Si1 0.646277 0.176585 0.874132
Si Si2 0.719108 0.378510 0.807308
Si Si3 0.315469 0.861081 0.420918
Si Si4 0.186227 0.833165 0.584216
Si Si5 0.453143 0.314616 0.867599
Si Si6 0.372075 0.860162 0.221286
Si Si7 0.055728 0.835769 0.374424
Si Si8 0.726431 0.363691 0.565573
O O1 0.691160 0.225658 0.811157
O O2 0.599944 0.252142 0.833272
O O3 0.639332 0.002417 0.853804
O O4 0.656629 0.253039 0.990218
O O5 0.770123 0.360789 0.847203
O O6 0.694483 0.493241 0.889139
O O7 0.715916 0.424264 0.683691
O O8 0.358478 0.886529 0.344418
O O9 0.312874 0.712669 0.494861
O O10 0.311824 0.000000 0.500000
O O11 0.160979 0.773276 0.688414
O O12 0.235628 0.762412 0.576392
O O13 0.421510 0.200070 0.805834
O O14 0.505503 0.292460 0.837060
O O15 0.440055 0.488125 0.851155
O O16 0.446826 0.302484 0.996949
O O17 0.746793 0.500000 0.500000
#
# Coordination Sequence:
#
# PCOD9332545 Si02
#       8
#     8   8   8   8   8   8   8   8
#     4  12  23  36  57  91 118 166 200 253 306 382
#     4  12  25  40  59  80 119 170 213 255 314 373
#     4  12  24  42  59  85 123 169 213 269 319 375
#     4  12  23  37  56  84 119 162 210 256 302 376
#     4   9  19  37  58  91 118 169 190 246 309 386
#     4  12  24  36  60  87 128 159 210 255 316 370
#     4   9  19  36  61  84 129 159 199 235 312 390
#     4  12  25  39  59  83 113 158 217 264 310 358
#
# _framework density 19.319979
#
# number of rings (size 3 to 8) (size 9 to 14) (size 15 to 20)
#    0.000    0.750    5.000    4.500    1.750    0.500 
#    0.000    1.250    0.000    0.000    0.000    6.125 
#    0.000    9.000    0.000    0.000    0.000    0.000 
#
# Total GULP energy -178494.183213 kJ/mol
# GULP energy per Si atom -5577.943225 kJ/mol
# Density = 1.927601 g / cm^3
# Si number density = 19.319979 Si / 1000 Ang^3
#
#
#
# Elastic Constant Matrix: (Units=GPa)
#
#
# Indices 1 2 3 4 5 6 
#
# 1 98.9555 54.3533 28.6473 0.0000 0.0000 0.0000
# 2 54.3533 74.1755 25.6908 0.0000 0.0000 0.0000
# 3 28.6473 25.6908 91.0605 0.0000 0.0000 0.0000
# 4 0.0000 0.0000 0.0000 15.1370 0.0000 0.0000
# 5 0.0000 0.0000 0.0000 0.0000 16.1184 0.0000
# 6 0.0000 0.0000 0.0000 0.0000 0.0000 25.4825
#
#
#
# Elastic Compliance Matrix: (Units=1/GPa)
#
#
# Indices 1 2 3 4 5 6 
#
# 1 0.017255 -0.011930 -0.002063 0.000000 0.000000 0.000000
# 2 -0.011930 0.023189 -0.002789 0.000000 0.000000 0.000000
# 3 -0.002063 -0.002789 0.012418 0.000000 0.000000 0.000000
# 4 0.000000 0.000000 0.000000 0.066063 0.000000 0.000000
# 5 0.000000 0.000000 0.000000 0.000000 0.062041 0.000000
# 6 0.000000 0.000000 0.000000 0.000000 0.000000 0.039243
#
#
# Mechanical properties :
#
#
# Convention : Reuss Voigt Hill
#
# Bulk Modulus (GPa) = 51.81704 53.50826 52.66265
# Shear Modulus (GPa) = 19.21558 21.71424 20.46491
#
# Velocity S-wave (km/s) = 3.15714 3.35614 3.25816
# Velocity P-wave (km/s) = 6.33788 6.54020 6.43983
#
# Compressibility (1/GPa) = 0.01929867
#
# Stress axis : x y z
#
# Youngs Moduli (GPa) = 57.95309 43.12338 80.53082
#
# Poissons Ratio (x) = 0.51445 0.16612
# Poissons Ratio (y) = 0.69136 0.22463
# Poissons Ratio (z) = 0.11954 0.12029
#
# Static dielectric constant tensor:
#      x y z
#    x 1.676390 0.000000 0.000000 
#    y 0.000000 1.716110 0.000000 
#    z 0.000000 0.000000 1.768940 
# 
# From -- ./inp_files/18795.got.cif
#   From: 2010.05.17/outbox.cif.g08.bks.cpg/sg23_10_cif.got.tgz:18795.got - 2010.06.04 12:02:01.
