data_PCOD9332130
_publ_section_title
;
Structure prediction by ZEFSAII (Michael W. Deem and Ramdas Pophale) SiO2 
 PCOD9332130
Probable space group: I 2 2 2
;
_chemical_formula_sum "Si O2"
_cell_formula_units_Z 34
_cell_length_a 20.866049
_cell_length_b 9.029773
_cell_length_c 7.551770
_cell_angle_alpha 90.000000
_cell_angle_beta 90.000000
_cell_angle_gamma 90.000000
_cell_volume 1422.871924
_symmetry_space_group_name_H-M "I 2 2 2"
_symmetry_group_IT_number 23
_symmetry_cell_setting 'orthorhombic'
loop_
_space_group_symop_operation_xyz
x,y,z
-x,-y,z
x,-y,-z
-x,y,-z
1/2+x,1/2+y,1/2+z
1/2-x,1/2-y,1/2+z
1/2+x,1/2-y,1/2-z
1/2-x,1/2+y,1/2-z
loop_
_atom_site_type_symbol
_atom_site_label
_atom_site_fract_x
_atom_site_fract_y
_atom_site_fract_z
Si Si1 0.000000 0.500000 0.500000
Si Si2 0.567010 0.247670 0.584294
Si Si3 0.594686 0.067752 0.272152
Si Si4 0.339634 0.651850 0.893336
Si Si5 0.278265 0.104910 0.857614
O O1 0.049637 0.604081 0.606467
O O2 0.500000 0.305433 0.500000
O O3 0.605179 0.204227 0.405156
O O4 0.604077 0.326572 0.744962
O O5 0.558785 0.079857 0.657436
O O6 0.665624 0.008892 0.232782
O O7 0.274139 0.653996 0.779530
O O8 0.349557 0.500000 0.000000
O O9 0.321602 0.771931 0.044971
O O10 0.244769 0.000000 0.000000
#
# Coordination Sequence:
#
# PCOD9332130 Si02
#       5
#     2   8   8   8   8
#     4  12  16  34  60 120 154 174 242 344 396 428
#     4  11  22  43  71 110 151 200 260 325 387 469
#     4  11  21  37  73 112 147 189 262 333 386 450
#     4  12  27  45  71 114 160 211 259 325 411 490
#     4  12  24  44  73 106 152 202 262 329 398 469
#
# _framework density 23.895334999999999
#
# number of rings (size 3 to 8) (size 9 to 14) (size 15 to 20)
#    0.000    0.471    5.882    3.529    3.294    0.000 
#    0.000    0.000    0.000   12.000    0.000    0.000 
#    0.000    0.000    0.000    0.000    0.000    0.000 
#
# Total GULP energy -94700.213296 kJ/mol
# GULP energy per Si atom -5570.600782 kJ/mol
# Density = 2.384095 g / cm^3
# Si number density = 23.895335 Si / 1000 Ang^3
#
#
#
# Elastic Constant Matrix: (Units=GPa)
#
#
# Indices 1 2 3 4 5 6 
#
# 1 149.1011 25.1819 71.6045 0.0000 0.0000 0.0000
# 2 25.1819 79.6097 43.5782 0.0000 0.0000 0.0000
# 3 71.6045 43.5782 131.9747 0.0000 0.0000 0.0000
# 4 0.0000 0.0000 0.0000 30.8739 0.0000 0.0000
# 5 0.0000 0.0000 0.0000 0.0000 59.9283 0.0000
# 6 0.0000 0.0000 0.0000 0.0000 0.0000 14.3572
#
#
#
# Elastic Compliance Matrix: (Units=1/GPa)
#
#
# Indices 1 2 3 4 5 6 
#
# 1 0.009073 -0.000214 -0.004852 0.000000 0.000000 0.000000
# 2 -0.000214 0.015338 -0.004948 0.000000 0.000000 0.000000
# 3 -0.004852 -0.004948 0.011844 0.000000 0.000000 0.000000
# 4 0.000000 0.000000 0.000000 0.032390 0.000000 0.000000
# 5 0.000000 0.000000 0.000000 0.000000 0.016687 0.000000
# 6 0.000000 0.000000 0.000000 0.000000 0.000000 0.069651
#
#
# Mechanical properties :
#
#
# Convention : Reuss Voigt Hill
#
# Bulk Modulus (GPa) = 61.63088 71.26831 66.44959
# Shear Modulus (GPa) = 27.71311 35.71993 31.71652
#
# Velocity S-wave (km/s) = 3.40924 3.87052 3.64718
# Velocity P-wave (km/s) = 6.43002 7.06148 6.75314
#
# Compressibility (1/GPa) = 0.01622563
#
# Stress axis : x y z
#
# Youngs Moduli (GPa) = 110.21493 65.19861 84.43261
#
# Poissons Ratio (x) = 0.01395 0.40968
# Poissons Ratio (y) = 0.02358 0.41781
# Poissons Ratio (z) = 0.53478 0.32263
#
# Static dielectric constant tensor:
#      x y z
#    x 1.933890 0.000000 0.000000 
#    y 0.000000 1.910980 0.000000 
#    z 0.000000 0.000000 2.301880 
# 
# From -- ./inp_files/11689.got.cif
#   From: 2010.05.17/outbox.cif.g08.bks.cpg/sg23_6_cif.got.tgz:11689.got - 2010.06.04 12:02:01.
