data_PCOD9332134
_publ_section_title
;
Structure prediction by ZEFSAII (Michael W. Deem and Ramdas Pophale) SiO2 
 PCOD9332134
Probable space group: I 2 2 2
;
_chemical_formula_sum "Si O2"
_cell_formula_units_Z 58
_cell_length_a 16.753158
_cell_length_b 18.089492
_cell_length_c 9.665712
_cell_angle_alpha 90.000000
_cell_angle_beta 90.000000
_cell_angle_gamma 90.000000
_cell_volume 2929.253153
_symmetry_space_group_name_H-M "I 2 2 2"
_symmetry_group_IT_number 23
_symmetry_cell_setting 'orthorhombic'
loop_
_space_group_symop_operation_xyz
x,y,z
-x,-y,z
x,-y,-z
-x,y,-z
1/2+x,1/2+y,1/2+z
1/2-x,1/2-y,1/2+z
1/2+x,1/2-y,1/2-z
1/2-x,1/2+y,1/2-z
loop_
_atom_site_type_symbol
_atom_site_label
_atom_site_fract_x
_atom_site_fract_y
_atom_site_fract_z
Si Si1 0.407884 0.217826 0.035252
Si Si2 0.420192 0.037963 0.355300
Si Si3 0.660658 0.293381 0.706188
Si Si4 0.682111 0.064002 0.897157
Si Si5 0.418668 0.190126 0.493917
Si Si6 0.500000 0.500000 0.500000
Si Si7 0.861595 0.110301 0.945289
Si Si8 0.841357 0.258733 0.762406
O O1 0.396805 0.273323 0.165433
O O2 0.360629 0.142229 0.070969
O O3 0.500000 0.203089 0.000000
O O4 0.368914 0.248354 0.894669
O O5 0.346937 0.039598 0.252990
O O6 0.441130 0.120666 0.401034
O O7 0.500000 0.000000 0.296619
O O8 0.400161 0.000000 0.500000
O O9 0.650182 0.228457 0.593380
O O10 0.642393 0.363680 0.607922
O O11 0.750018 0.285260 0.762306
O O12 0.776809 0.072820 0.911856
O O13 0.654388 0.000000 0.000000
O O14 0.500000 0.237887 0.500000
O O15 0.389357 0.179669 0.649494
O O16 0.437259 0.556286 0.424878
O O17 0.859725 0.183330 0.847134
#
# Coordination Sequence:
#
# PCOD9332134 Si02
#       8
#     8   8   8   8   8   2   8   8
#     4  12  25  38  64 107 139 170 219 289 364 411
#     4  11  24  39  60  93 141 186 222 261 335 432
#     4  11  22  43  67  98 131 175 223 295 346 406
#     4  12  26  43  63  97 142 181 225 278 354 426
#     4  11  21  38  61  91 127 171 222 268 329 404
#     4  12  28  48  76  94 138 192 250 286 332 448
#     4  11  25  48  73  98 128 181 238 286 349 420
#     4  11  23  40  70  97 130 172 229 295 345 404
#
# _framework density 19.800267000000002
#
# number of rings (size 3 to 8) (size 9 to 14) (size 15 to 20)
#    0.000    0.690    6.207    1.655    9.655    0.000 
#    0.000    0.000    0.000    0.828    0.000    0.000 
#    0.000    0.000    0.000    0.000    0.000    0.000 
#
# Total GULP energy -161727.977318 kJ/mol
# GULP energy per Si atom -5576.826804 kJ/mol
# Density = 1.975520 g / cm^3
# Si number density = 19.800267 Si / 1000 Ang^3
#
#
#
# Elastic Constant Matrix: (Units=GPa)
#
#
# Indices 1 2 3 4 5 6 
#
# 1 132.2979 35.1501 42.1667 0.0000 0.0000 0.0000
# 2 35.1501 57.9095 16.8654 0.0000 0.0000 0.0000
# 3 42.1667 16.8654 103.3563 0.0000 0.0000 0.0000
# 4 0.0000 0.0000 0.0000 7.1570 0.0000 0.0000
# 5 0.0000 0.0000 0.0000 0.0000 29.8370 0.0000
# 6 0.0000 0.0000 0.0000 0.0000 0.0000 27.9009
#
#
#
# Elastic Compliance Matrix: (Units=1/GPa)
#
#
# Indices 1 2 3 4 5 6 
#
# 1 0.009940 -0.005094 -0.003224 0.000000 0.000000 0.000000
# 2 -0.005094 0.020741 -0.001306 0.000000 0.000000 0.000000
# 3 -0.003224 -0.001306 0.011204 0.000000 0.000000 0.000000
# 4 0.000000 0.000000 0.000000 0.139724 0.000000 0.000000
# 5 0.000000 0.000000 0.000000 0.000000 0.033515 0.000000
# 6 0.000000 0.000000 0.000000 0.000000 0.000000 0.035841
#
#
# Mechanical properties :
#
#
# Convention : Reuss Voigt Hill
#
# Bulk Modulus (GPa) = 44.17804 53.54756 48.86280
# Shear Modulus (GPa) = 18.00123 26.27107 22.13615
#
# Velocity S-wave (km/s) = 3.01847 3.64648 3.34724
# Velocity P-wave (km/s) = 5.87439 6.69565 6.29842
#
# Compressibility (1/GPa) = 0.02263568
#
# Stress axis : x y z
#
# Youngs Moduli (GPa) = 100.60617 48.21394 89.25662
#
# Poissons Ratio (x) = 0.24562 0.28775
# Poissons Ratio (y) = 0.51252 0.11658
# Poissons Ratio (z) = 0.32434 0.06297
#
# Static dielectric constant tensor:
#      x y z
#    x 1.742300 0.000000 0.000000 
#    y 0.000000 1.798900 0.000000 
#    z 0.000000 0.000000 1.717220 
# 
# From -- ./inp_files/11279.got.cif
#   From: 2010.05.17/outbox.cif.g08.bks.cpg/sg23_6_cif.got.tgz:11279.got - 2010.06.04 12:02:01.
