data_PCOD9332344
_publ_section_title
;
Structure prediction by ZEFSAII (Michael W. Deem and Ramdas Pophale) SiO2 
 PCOD9332344
Probable space group: I 2 2 2
;
_chemical_formula_sum "Si O2"
_cell_formula_units_Z 56
_cell_length_a 22.256276
_cell_length_b 8.538859
_cell_length_c 13.099394
_cell_angle_alpha 90.000000
_cell_angle_beta 90.000000
_cell_angle_gamma 90.000000
_cell_volume 2489.450788
_symmetry_space_group_name_H-M "I 2 2 2"
_symmetry_group_IT_number 23
_symmetry_cell_setting 'orthorhombic'
loop_
_space_group_symop_operation_xyz
x,y,z
-x,-y,z
x,-y,-z
-x,y,-z
1/2+x,1/2+y,1/2+z
1/2-x,1/2-y,1/2+z
1/2+x,1/2-y,1/2-z
1/2-x,1/2+y,1/2-z
loop_
_atom_site_type_symbol
_atom_site_label
_atom_site_fract_x
_atom_site_fract_y
_atom_site_fract_z
Si Si1 0.748144 0.656252 0.716272
Si Si2 0.217957 0.173783 0.889985
Si Si3 0.987973 0.334957 0.880296
Si Si4 0.068003 0.315810 0.469157
Si Si5 0.310226 0.676683 0.959809
Si Si6 0.610391 0.710899 0.743382
Si Si7 0.415900 0.578173 0.608704
O O1 0.782303 0.667822 0.822718
O O2 0.739623 0.487703 0.664715
O O3 0.784897 0.783688 0.650883
O O4 0.681733 0.719842 0.742358
O O5 0.267211 0.209731 0.974633
O O6 0.149258 0.147047 0.920935
O O7 0.034391 0.199512 0.851843
O O8 0.000000 0.500000 0.828426
O O9 0.920055 0.301196 0.850459
O O10 0.000000 0.346589 0.000000
O O11 0.074042 0.500000 0.500000
O O12 0.120534 0.225601 0.529408
O O13 0.082576 0.272448 0.349994
O O14 0.000000 0.270123 0.500000
O O15 0.304019 0.500000 0.000000
O O16 0.594871 0.535482 0.705526
O O17 0.435654 0.500000 0.500000
#
# Coordination Sequence:
#
# PCOD9332344 Si02
#       7
#     8   8   8   8   8   8   8
#     4  11  24  42  74 101 142 186 240 310 372 447
#     4  11  23  44  69 106 139 185 239 301 379 444
#     4  11  25  42  68 108 150 192 248 311 385 456
#     4  11  27  52  77 104 150 205 259 314 371 446
#     4  12  26  46  71 106 145 188 248 308 375 455
#     4  11  24  46  74 107 147 198 258 300 386 458
#     4  11  23  45  74 107 153 197 243 309 388 460
#
# _framework density 22.494921000000001
#
# number of rings (size 3 to 8) (size 9 to 14) (size 15 to 20)
#    0.000    0.857    2.857    4.286    4.000    3.714 
#    2.571    0.000    0.000    0.000    0.000    0.000 
#    0.000    0.000    0.000    0.000    0.000    0.000 
#
# Total GULP energy -156265.968852 kJ/mol
# GULP energy per Si atom -5580.927459 kJ/mol
# Density = 2.244372 g / cm^3
# Si number density = 22.494921 Si / 1000 Ang^3
#
#
#
# Elastic Constant Matrix: (Units=GPa)
#
#
# Indices 1 2 3 4 5 6 
#
# 1 132.6218 44.3057 40.7247 0.0000 0.0000 0.0000
# 2 44.3057 83.9974 20.3380 0.0000 0.0000 0.0000
# 3 40.7247 20.3380 85.9647 0.0000 0.0000 0.0000
# 4 0.0000 0.0000 0.0000 36.1465 0.0000 0.0000
# 5 0.0000 0.0000 0.0000 0.0000 35.1435 0.0000
# 6 0.0000 0.0000 0.0000 0.0000 0.0000 8.9037
#
#
#
# Elastic Compliance Matrix: (Units=1/GPa)
#
#
# Indices 1 2 3 4 5 6 
#
# 1 0.010189 -0.004461 -0.003771 0.000000 0.000000 0.000000
# 2 -0.004461 0.014582 -0.001336 0.000000 0.000000 0.000000
# 3 -0.003771 -0.001336 0.013735 0.000000 0.000000 0.000000
# 4 0.000000 0.000000 0.000000 0.027665 0.000000 0.000000
# 5 0.000000 0.000000 0.000000 0.000000 0.028455 0.000000
# 6 0.000000 0.000000 0.000000 0.000000 0.000000 0.112313
#
#
# Mechanical properties :
#
#
# Convention : Reuss Voigt Hill
#
# Bulk Modulus (GPa) = 51.63091 57.03563 54.33327
# Shear Modulus (GPa) = 21.50238 29.18644 25.34441
#
# Velocity S-wave (km/s) = 3.09508 3.60595 3.36024
# Velocity P-wave (km/s) = 5.98120 6.53812 6.26585
#
# Compressibility (1/GPa) = 0.01936824
#
# Stress axis : x y z
#
# Youngs Moduli (GPa) = 98.14866 68.57889 72.80406
#
# Poissons Ratio (x) = 0.30593 0.27457
# Poissons Ratio (y) = 0.43784 0.09730
# Poissons Ratio (z) = 0.37015 0.09165
#
# Static dielectric constant tensor:
#      x y z
#    x 1.806330 0.000000 0.000000 
#    y 0.000000 1.904790 0.000000 
#    z 0.000000 0.000000 1.994560 
# 
# From -- ./inp_files/22408.got.cif
#   From: 2010.05.17/outbox.cif.g08.bks.cpg/sg23_12_cif.got.tgz:22408.got - 2010.06.04 12:02:01.
