data_PCOD9332602
_publ_section_title
;
Structure prediction by ZEFSAII (Michael W. Deem and Ramdas Pophale) SiO2 
 PCOD9332602
Probable space group: I 2 2 2
;
_chemical_formula_sum "Si O2"
_cell_formula_units_Z 22
_cell_length_a 5.241909
_cell_length_b 6.639795
_cell_length_c 22.222601
_cell_angle_alpha 90.000000
_cell_angle_beta 90.000000
_cell_angle_gamma 90.000000
_cell_volume 773.462098
_symmetry_space_group_name_H-M "I 2 2 2"
_symmetry_group_IT_number 23
_symmetry_cell_setting 'orthorhombic'
loop_
_space_group_symop_operation_xyz
x,y,z
-x,-y,z
x,-y,-z
-x,y,-z
1/2+x,1/2+y,1/2+z
1/2-x,1/2-y,1/2+z
1/2+x,1/2-y,1/2-z
1/2-x,1/2+y,1/2-z
loop_
_atom_site_type_symbol
_atom_site_label
_atom_site_fract_x
_atom_site_fract_y
_atom_site_fract_z
Si Si1 0.746398 0.361341 0.925197
Si Si2 0.000000 0.000000 0.000000
Si Si3 0.000000 0.000000 0.200479
Si Si4 0.067386 0.724658 0.687455
O O1 0.500000 0.500000 0.943395
O O2 0.639759 0.303175 0.858716
O O3 0.000000 0.500000 0.926637
O O4 0.818691 0.156938 0.961966
O O5 0.894980 0.847007 0.252347
O O6 0.159392 0.841583 0.159736
O O7 0.000000 0.500000 0.705104
#
# Coordination Sequence:
#
# PCOD9332602 Si02
#       4
#     8   2   4   8
#     4  12  33  61  97 136 187 247 326 397 477 573
#     4  12  34  68 100 140 188 254 320 414 496 542
#     4  12  26  49  80 133 193 248 309 366 464 574
#     4  12  28  49  85 129 188 248 301 376 464 557
#
# _framework density 28.443542999999998
#
# number of rings (size 3 to 8) (size 9 to 14) (size 15 to 20)
#    0.000    0.000    5.455    0.545   10.182    5.818 
#    0.000    0.000    0.000    0.000    0.000    0.000 
#    0.000    0.000    0.000    0.000    0.000    0.000 
#
# Total GULP energy -61288.812418 kJ/mol
# GULP energy per Si atom -5571.710220 kJ/mol
# Density = 2.837880 g / cm^3
# Si number density = 28.443543 Si / 1000 Ang^3
#
#
#
# Elastic Constant Matrix: (Units=GPa)
#
#
# Indices 1 2 3 4 5 6 
#
# 1 253.4736 107.8748 80.3791 0.0000 0.0000 0.0000
# 2 107.8748 215.5178 94.6484 0.0000 0.0000 0.0000
# 3 80.3791 94.6484 152.4038 0.0000 0.0000 0.0000
# 4 0.0000 0.0000 0.0000 91.6510 0.0000 0.0000
# 5 0.0000 0.0000 0.0000 0.0000 -19.7888 0.0000
# 6 0.0000 0.0000 0.0000 0.0000 0.0000 -87.8329
#
#
#
# Elastic Compliance Matrix: (Units=1/GPa)
#
#
# Indices 1 2 3 4 5 6 
#
# 1 0.005273 -0.001950 -0.001570 0.000000 0.000000 0.000000
# 2 -0.001950 0.007101 -0.003382 0.000000 0.000000 0.000000
# 3 -0.001570 -0.003382 0.009490 0.000000 0.000000 0.000000
# 4 0.000000 0.000000 0.000000 0.010911 0.000000 0.000000
# 5 0.000000 0.000000 0.000000 0.000000 -0.050534 0.000000
# 6 0.000000 0.000000 0.000000 0.000000 0.000000 -0.011385
#
#
# Mechanical properties :
#
#
# Convention : Reuss Voigt Hill
#
# Bulk Modulus (GPa) = 124.06029 131.91109 127.98569
# Shear Modulus (GPa) = -395.11931 19.37205 -187.87363
#
# Velocity S-wave (km/s) = -11.79895 2.61256 -8.13602
# Velocity P-wave (km/s) = 11.91256 7.45505 6.57006
#
# Compressibility (1/GPa) = 0.00806060
#
# Stress axis : x y z
#
# Youngs Moduli (GPa) = 189.65056 140.82465 105.37678
#
# Poissons Ratio (x) = 0.27457 0.16545
# Poissons Ratio (y) = 0.36977 0.35635
# Poissons Ratio (z) = 0.29777 0.47623
#
# Static dielectric constant tensor:
#      x y z
#    x 3.261750 0.000000 0.000000 
#    y 0.000000 2.174130 0.000000 
#    z 0.000000 0.000000 2.114460 
# 
# From -- ./inp_files/29772.got.cif
#   From: 2010.05.17/outbox.cif.g08.bks.cpg/sg23_15_cif.got.tgz:29772.got - 2010.06.04 12:02:01.
