data_PCOD9332043
_publ_section_title
;
Structure prediction by ZEFSAII (Michael W. Deem and Ramdas Pophale) SiO2 
 PCOD9332043
Probable space group: I 2 2 2
;
_chemical_formula_sum "Si O2"
_cell_formula_units_Z 56
_cell_length_a 5.043341
_cell_length_b 28.083678
_cell_length_c 25.354494
_cell_angle_alpha 90.000000
_cell_angle_beta 90.000000
_cell_angle_gamma 90.000000
_cell_volume 3591.098075
_symmetry_space_group_name_H-M "I 2 2 2"
_symmetry_group_IT_number 23
_symmetry_cell_setting 'orthorhombic'
loop_
_space_group_symop_operation_xyz
x,y,z
-x,-y,z
x,-y,-z
-x,y,-z
1/2+x,1/2+y,1/2+z
1/2-x,1/2-y,1/2+z
1/2+x,1/2-y,1/2-z
1/2-x,1/2+y,1/2-z
loop_
_atom_site_type_symbol
_atom_site_label
_atom_site_fract_x
_atom_site_fract_y
_atom_site_fract_z
Si Si1 0.746607 0.532056 0.578107
Si Si2 0.595694 0.168810 0.119068
Si Si3 0.371244 0.549235 0.298451
Si Si4 0.397938 0.362389 0.556742
Si Si5 0.887784 0.609787 0.277539
Si Si6 0.293596 0.304799 0.212529
Si Si7 0.704725 0.243264 0.678896
O O1 0.500000 0.500000 0.562629
O O2 0.727416 0.540474 0.641524
O O3 0.719758 0.584080 0.553174
O O4 0.000000 0.500000 0.566354
O O5 0.341173 0.167769 0.081574
O O6 0.514157 0.142781 0.173712
O O7 0.700108 0.221137 0.133659
O O8 0.842469 0.140175 0.093837
O O9 0.500000 0.500000 0.278799
O O10 0.615454 0.585665 0.296444
O O11 0.118769 0.571301 0.268597
O O12 0.500000 0.346326 0.500000
O O13 0.812942 0.643603 0.228782
O O14 0.296963 0.275620 0.267914
O O15 0.585301 0.298785 0.189189
O O16 0.086627 0.278157 0.174717
#
# Coordination Sequence:
#
# PCOD9332043 Si02
#       7
#     8   8   8   8   8   8   8
#     4  11  21  35  51  60  76 102 143 190 235 279
#     4  11  20  35  50  64  84 112 135 173 233 275
#     4  11  20  30  46  65  84 112 149 180 218 268
#     4  12  24  37  49  65  82 106 146 188 236 286
#     4  11  18  31  48  65  87 111 139 174 222 265
#     4   9  17  27  44  69  88 106 129 163 205 263
#     4   9  17  29  45  66  89 106 129 159 209 275
#
# _framework density 15.594117000000001
#
# number of rings (size 3 to 8) (size 9 to 14) (size 15 to 20)
#    0.000    1.429    2.857    5.143    0.000    4.857 
#    0.000    0.714    0.000    0.000    0.000    0.000 
#    0.000    0.000    0.000    0.000    0.000    0.000 
#
# Total GULP energy -156303.475675 kJ/mol
# GULP energy per Si atom -5582.266988 kJ/mol
# Density = 1.555862 g / cm^3
# Si number density = 15.594117 Si / 1000 Ang^3
#
#
#
# Elastic Constant Matrix: (Units=GPa)
#
#
# Indices 1 2 3 4 5 6 
#
# 1 71.2501 -4.8889 -0.8827 0.0000 0.0000 0.0000
# 2 -4.8889 26.0232 10.2696 0.0000 0.0000 0.0000
# 3 -0.8827 10.2696 18.6227 0.0000 0.0000 0.0000
# 4 0.0000 0.0000 0.0000 7.6285 0.0000 0.0000
# 5 0.0000 0.0000 0.0000 0.0000 12.3051 0.0000
# 6 0.0000 0.0000 0.0000 0.0000 0.0000 23.5938
#
#
#
# Elastic Compliance Matrix: (Units=1/GPa)
#
#
# Indices 1 2 3 4 5 6 
#
# 1 0.014234 0.003078 -0.001022 0.000000 0.000000 0.000000
# 2 0.003078 0.049781 -0.027306 0.000000 0.000000 0.000000
# 3 -0.001022 -0.027306 0.068708 0.000000 0.000000 0.000000
# 4 0.000000 0.000000 0.000000 0.131087 0.000000 0.000000
# 5 0.000000 0.000000 0.000000 0.000000 0.081267 0.000000
# 6 0.000000 0.000000 0.000000 0.000000 0.000000 0.042384
#
#
# Mechanical properties :
#
#
# Convention : Reuss Voigt Hill
#
# Bulk Modulus (GPa) = 12.16248 13.87688 13.01968
# Shear Modulus (GPa) = 10.74414 16.13202 13.43808
#
# Velocity S-wave (km/s) = 2.62770 3.21984 2.93873
# Velocity P-wave (km/s) = 4.12587 4.76879 4.45893
#
# Compressibility (1/GPa) = 0.08222006
#
# Stress axis : x y z
#
# Youngs Moduli (GPa) = 70.25642 20.08780 14.55438
#
# Poissons Ratio (x) = -0.06182 0.01488
# Poissons Ratio (y) = -0.21622 0.39743
# Poissons Ratio (z) = 0.07183 0.54853
#
# Static dielectric constant tensor:
#      x y z
#    x 1.542410 0.000000 0.000000 
#    y 0.000000 1.542380 0.000000 
#    z 0.000000 0.000000 1.517470 
# 
# From -- ./inp_files/25828.got.cif
#   From: 2010.05.17/outbox.cif.g08.bks.cpg/sg23_13_cif.got.tgz:25828.got - 2010.06.04 12:02:01.
