data_PCOD9332569
_publ_section_title
;
Structure prediction by ZEFSAII (Michael W. Deem and Ramdas Pophale) SiO2 
 PCOD9332569
Probable space group: I 2 2 2
;
_chemical_formula_sum "Si O2"
_cell_formula_units_Z 28
_cell_length_a 25.804045
_cell_length_b 4.779337
_cell_length_c 9.230617
_cell_angle_alpha 90.000000
_cell_angle_beta 90.000000
_cell_angle_gamma 90.000000
_cell_volume 1138.377168
_symmetry_space_group_name_H-M "I 2 2 2"
_symmetry_group_IT_number 23
_symmetry_cell_setting 'orthorhombic'
loop_
_space_group_symop_operation_xyz
x,y,z
-x,-y,z
x,-y,-z
-x,y,-z
1/2+x,1/2+y,1/2+z
1/2-x,1/2-y,1/2+z
1/2+x,1/2-y,1/2-z
1/2-x,1/2+y,1/2-z
loop_
_atom_site_type_symbol
_atom_site_label
_atom_site_fract_x
_atom_site_fract_y
_atom_site_fract_z
Si Si1 0.000000 0.000000 0.500000
Si Si2 0.068495 0.233744 0.752579
Si Si3 0.638288 0.741795 0.737613
Si Si4 0.000000 0.500000 0.000000
Si Si5 0.284132 0.500000 0.500000
Si Si6 0.796713 0.000000 0.500000
O O1 0.035618 0.806601 0.394997
O O2 0.119032 0.440525 0.740045
O O3 0.085958 0.922614 0.791500
O O4 0.035850 0.333477 0.888357
O O5 0.678433 0.660053 0.612208
O O6 0.663125 0.585068 0.874415
O O7 0.243734 0.252327 0.466805
#
# Coordination Sequence:
#
# PCOD9332569 Si02
#       6
#     2   8   8   2   4   4
#     4  12  30  52  80 114 158 212 272 338 406 476
#     4  12  28  49  75 108 150 199 259 323 393 467
#     4  12  26  46  72 106 146 194 251 316 385 463
#     4  12  28  50  76 110 150 204 264 324 392 472
#     4  12  24  46  72 105 146 193 248 308 382 468
#     4  12  25  43  72 105 146 193 248 311 385 466
#
# _framework density 24.596419000000001
#
# number of rings (size 3 to 8) (size 9 to 14) (size 15 to 20)
#    0.000    0.000    0.000    9.429    0.000   13.714 
#    0.000    0.000    0.000    0.000    0.000    0.000 
#    0.000    0.000    0.000    0.000    0.000    0.000 
#
# Total GULP energy -78132.224912 kJ/mol
# GULP energy per Si atom -5580.873208 kJ/mol
# Density = 2.454044 g / cm^3
# Si number density = 24.596419 Si / 1000 Ang^3
#
#
#
# Elastic Constant Matrix: (Units=GPa)
#
#
# Indices 1 2 3 4 5 6 
#
# 1 98.7314 34.6267 59.7963 0.0000 0.0000 0.0000
# 2 34.6267 125.3285 24.7710 0.0000 0.0000 0.0000
# 3 59.7963 24.7710 148.4943 0.0000 0.0000 0.0000
# 4 0.0000 0.0000 0.0000 25.5445 0.0000 0.0000
# 5 0.0000 0.0000 0.0000 0.0000 46.1685 0.0000
# 6 0.0000 0.0000 0.0000 0.0000 0.0000 30.9729
#
#
#
# Elastic Compliance Matrix: (Units=1/GPa)
#
#
# Indices 1 2 3 4 5 6 
#
# 1 0.014360 -0.002921 -0.005295 0.000000 0.000000 0.000000
# 2 -0.002921 0.008845 -0.000299 0.000000 0.000000 0.000000
# 3 -0.005295 -0.000299 0.008917 0.000000 0.000000 0.000000
# 4 0.000000 0.000000 0.000000 0.039147 0.000000 0.000000
# 5 0.000000 0.000000 0.000000 0.000000 0.021660 0.000000
# 6 0.000000 0.000000 0.000000 0.000000 0.000000 0.032286
#
#
# Mechanical properties :
#
#
# Convention : Reuss Voigt Hill
#
# Bulk Modulus (GPa) = 66.26584 67.88244 67.07414
# Shear Modulus (GPa) = 33.94980 37.42786 35.68883
#
# Velocity S-wave (km/s) = 3.71923 3.90510 3.81330
# Velocity P-wave (km/s) = 6.74117 6.92759 6.83502
#
# Compressibility (1/GPa) = 0.01509073
#
# Stress axis : x y z
#
# Youngs Moduli (GPa) = 69.63812 113.05578 112.15136
#
# Poissons Ratio (x) = 0.33022 0.59387
# Poissons Ratio (y) = 0.20340 0.03357
# Poissons Ratio (z) = 0.36875 0.03384
#
# Static dielectric constant tensor:
#      x y z
#    x 1.974540 0.000000 0.000000 
#    y 0.000000 1.900360 0.000000 
#    z 0.000000 0.000000 2.054490 
# 
# From -- ./inp_files/12840.got.cif
#   From: 2010.05.17/outbox.cif.g08.bks.cpg/sg23_7_cif.got.tgz:12840.got - 2010.06.04 12:02:01.
