data_PCOD9332484
_publ_section_title
;
Structure prediction by ZEFSAII (Michael W. Deem and Ramdas Pophale) SiO2 
 PCOD9332484
Probable space group: I 2 2 2
;
_chemical_formula_sum "Si O2"
_cell_formula_units_Z 40
_cell_length_a 26.549981
_cell_length_b 12.504187
_cell_length_c 5.117014
_cell_angle_alpha 90.000000
_cell_angle_beta 90.000000
_cell_angle_gamma 90.000000
_cell_volume 1698.776638
_symmetry_space_group_name_H-M "I 2 2 2"
_symmetry_group_IT_number 23
_symmetry_cell_setting 'orthorhombic'
loop_
_space_group_symop_operation_xyz
x,y,z
-x,-y,z
x,-y,-z
-x,y,-z
1/2+x,1/2+y,1/2+z
1/2-x,1/2-y,1/2+z
1/2+x,1/2-y,1/2-z
1/2-x,1/2+y,1/2-z
loop_
_atom_site_type_symbol
_atom_site_label
_atom_site_fract_x
_atom_site_fract_y
_atom_site_fract_z
Si Si1 0.000000 0.252373 0.500000
Si Si2 0.062840 0.073597 0.250841
Si Si3 0.258374 0.000000 0.500000
Si Si4 0.162113 0.659420 0.863882
Si Si5 0.597287 0.882158 0.123193
Si Si6 0.679942 0.608419 0.665896
O O1 0.972021 0.176454 0.710193
O O2 0.956246 0.322932 0.370798
O O3 0.121696 0.103564 0.250772
O O4 0.054557 0.000000 0.500000
O O5 0.054087 0.000000 0.000000
O O6 0.296296 0.067687 0.680513
O O7 0.221746 0.089509 0.383569
O O8 0.133262 0.673707 0.590899
O O9 0.185310 0.773356 0.951193
O O10 0.124204 0.623199 0.095432
O O11 0.590508 0.000000 0.000000
O O12 0.686749 0.500000 0.500000
#
# Coordination Sequence:
#
# PCOD9332484 Si02
#       6
#     4   8   4   8   8   8
#     4  12  28  48  88 108 156 222 254 322 412 466
#     4  11  26  49  71 113 159 195 257 324 384 474
#     4  12  28  50  82 114 152 224 254 330 408 466
#     4  12  29  51  81 112 166 198 268 331 393 470
#     4  12  27  54  77 118 152 207 264 334 387 476
#     4  11  28  48  78 115 158 207 264 327 392 480
#
# _framework density 23.546358999999999
#
# number of rings (size 3 to 8) (size 9 to 14) (size 15 to 20)
#    0.000    0.400    5.000    0.600   14.000    4.000 
#    0.000    2.000    0.000    0.000    0.000    0.000 
#    0.000    0.000    0.000    0.000    0.000    0.000 
#
# Total GULP energy -111905.605872 kJ/mol
# GULP energy per Si atom -5595.280294 kJ/mol
# Density = 2.349277 g / cm^3
# Si number density = 23.546359 Si / 1000 Ang^3
#
#
#
# Elastic Constant Matrix: (Units=GPa)
#
#
# Indices 1 2 3 4 5 6 
#
# 1 138.1823 21.1130 23.0318 0.0000 0.0000 0.0000
# 2 21.1130 126.0087 2.2215 0.0000 0.0000 0.0000
# 3 23.0318 2.2215 92.9024 -0.0001 0.0000 0.0000
# 4 0.0000 0.0000 -0.0001 35.0458 0.0000 0.0000
# 5 0.0000 0.0000 0.0000 0.0000 3.1025 0.0001
# 6 0.0000 0.0000 0.0000 0.0000 0.0001 39.4745
#
#
#
# Elastic Compliance Matrix: (Units=1/GPa)
#
#
# Indices 1 2 3 4 5 6 
#
# 1 0.007745 -0.001264 -0.001890 0.000000 0.000000 0.000000
# 2 -0.001264 0.008146 0.000119 0.000000 0.000000 0.000000
# 3 -0.001890 0.000119 0.011230 0.000000 0.000000 0.000000
# 4 0.000000 0.000000 0.000000 0.028534 0.000000 0.000000
# 5 0.000000 0.000000 0.000000 0.000000 0.322325 0.000000
# 6 0.000000 0.000000 0.000000 0.000000 0.000000 0.025333
#
#
# Mechanical properties :
#
#
# Convention : Reuss Voigt Hill
#
# Bulk Modulus (GPa) = 47.50759 49.98066 48.74413
# Shear Modulus (GPa) = 12.00768 36.23970 24.12369
#
# Velocity S-wave (km/s) = 2.26068 3.92737 3.20428
# Velocity P-wave (km/s) = 5.19944 6.46824 5.86824
#
# Compressibility (1/GPa) = 0.02104927
#
# Stress axis : x y z
#
# Youngs Moduli (GPa) = 129.11566 122.76393 89.04982
#
# Poissons Ratio (x) = 0.15522 0.16829
# Poissons Ratio (y) = 0.16325 -0.01057
# Poissons Ratio (z) = 0.24401 -0.01457
#
# Static dielectric constant tensor:
#      x y z
#    x 1.747440 0.000000 0.000000 
#    y 0.000000 1.918890 0.000000 
#    z 0.000000 0.000000 1.899150 
# 
# From -- ./inp_files/4785.got.cif
#   From: 2010.05.17/outbox.cif.g08.bks.cpg/sg23_3_cif.got.tgz:4785.got - 2010.06.04 12:02:01.
