data_PCOD9332516
_publ_section_title
;
Structure prediction by ZEFSAII (Michael W. Deem and Ramdas Pophale) SiO2 
 PCOD9332516
Probable space group: I 2 2 2
;
_chemical_formula_sum "Si O2"
_cell_formula_units_Z 40
_cell_length_a 8.860900
_cell_length_b 14.113393
_cell_length_c 14.669992
_cell_angle_alpha 90.000000
_cell_angle_beta 90.000000
_cell_angle_gamma 90.000000
_cell_volume 1834.590530
_symmetry_space_group_name_H-M "I 2 2 2"
_symmetry_group_IT_number 23
_symmetry_cell_setting 'orthorhombic'
loop_
_space_group_symop_operation_xyz
x,y,z
-x,-y,z
x,-y,-z
-x,y,-z
1/2+x,1/2+y,1/2+z
1/2-x,1/2-y,1/2+z
1/2+x,1/2-y,1/2-z
1/2-x,1/2+y,1/2-z
loop_
_atom_site_type_symbol
_atom_site_label
_atom_site_fract_x
_atom_site_fract_y
_atom_site_fract_z
Si Si1 0.372336 0.646072 0.820744
Si Si2 0.500000 0.361286 0.500000
Si Si3 0.000000 0.240229 0.500000
Si Si4 0.152011 0.815337 0.812672
Si Si5 0.692590 0.914502 0.933482
Si Si6 0.835230 0.504871 0.755936
O O1 0.236020 0.717187 0.795542
O O2 0.507505 0.663991 0.749889
O O3 0.299366 0.541992 0.814165
O O4 0.432864 0.677146 0.919305
O O5 0.597741 0.314387 0.418396
O O6 0.373418 0.414036 0.441080
O O7 0.124480 0.313837 0.461471
O O8 0.274439 0.896449 0.786159
O O9 0.643709 0.939341 0.832753
O O10 0.648720 0.000000 0.000000
O O11 0.000000 0.500000 0.802676
#
# Coordination Sequence:
#
# PCOD9332516 Si02
#       6
#     8   4   4   8   8   8
#     4  12  26  44  69  98 142 180 231 279 337 410
#     4  12  23  38  66 104 147 168 214 283 362 404
#     4  12  25  44  61 100 134 186 230 274 326 404
#     4  12  25  45  71 105 138 179 224 285 349 413
#     4  12  21  38  68 101 140 171 213 284 358 410
#     4  12  25  44  70 102 138 176 225 286 350 408
#
# _framework density 21.803231
#
# number of rings (size 3 to 8) (size 9 to 14) (size 15 to 20)
#    0.000    0.000    6.000    6.000    0.000    0.000 
#    0.000    2.000    0.000    1.200    0.000    0.000 
#    0.000    0.000    0.000    0.000    0.000    0.000 
#
# Total GULP energy -111767.794627 kJ/mol
# GULP energy per Si atom -5588.389731 kJ/mol
# Density = 2.175361 g / cm^3
# Si number density = 21.803231 Si / 1000 Ang^3
#
#
#
# Elastic Constant Matrix: (Units=GPa)
#
#
# Indices 1 2 3 4 5 6 
#
# 1 111.2593 0.2795 -5.9301 0.0000 0.0000 0.0000
# 2 0.2795 56.9268 24.3270 0.0000 0.0000 0.0000
# 3 -5.9301 24.3270 68.4666 0.0000 0.0000 0.0000
# 4 0.0000 0.0000 0.0000 24.6544 0.0000 0.0000
# 5 0.0000 0.0000 0.0000 0.0000 16.0848 0.0000
# 6 0.0000 0.0000 0.0000 0.0000 0.0000 44.2473
#
#
#
# Elastic Compliance Matrix: (Units=1/GPa)
#
#
# Indices 1 2 3 4 5 6 
#
# 1 0.009039 -0.000447 0.000942 0.000000 0.000000 0.000000
# 2 -0.000447 0.020733 -0.007405 0.000000 0.000000 0.000000
# 3 0.000942 -0.007405 0.017318 0.000000 0.000000 0.000000
# 4 0.000000 0.000000 0.000000 0.040561 0.000000 0.000000
# 5 0.000000 0.000000 0.000000 0.000000 0.062171 0.000000
# 6 0.000000 0.000000 0.000000 0.000000 0.000000 0.022600
#
#
# Mechanical properties :
#
#
# Convention : Reuss Voigt Hill
#
# Bulk Modulus (GPa) = 30.05722 30.44505 30.25113
# Shear Modulus (GPa) = 25.33780 31.52907 28.43343
#
# Velocity S-wave (km/s) = 3.41267 3.80685 3.61514
# Velocity P-wave (km/s) = 5.41702 5.77206 5.59735
#
# Compressibility (1/GPa) = 0.03326988
#
# Stress axis : x y z
#
# Youngs Moduli (GPa) = 110.62770 48.23165 57.74178
#
# Poissons Ratio (x) = 0.02155 -0.05437
# Poissons Ratio (y) = 0.04943 0.42761
# Poissons Ratio (z) = -0.10418 0.35718
#
# Static dielectric constant tensor:
#      x y z
#    x 1.897730 0.000000 0.000000 
#    y 0.000000 1.801060 0.000000 
#    z 0.000000 0.000000 1.787110 
# 
# From -- ./inp_files/9641.got.cif
#   From: 2010.05.17/outbox.cif.g08.bks.cpg/sg23_5_cif.got.tgz:9641.got - 2010.06.04 12:02:01.
