data_PCOD9332815
_publ_section_title
;
Structure prediction by ZEFSAII (Michael W. Deem and Ramdas Pophale) SiO2 
 PCOD9332815
Probable space group: I 21 21 21
;
_chemical_formula_sum "Si O2"
_cell_formula_units_Z 60
_cell_length_a 11.296413
_cell_length_b 28.862208
_cell_length_c 8.992212
_cell_angle_alpha 90.000000
_cell_angle_beta 90.000000
_cell_angle_gamma 90.000000
_cell_volume 2931.815600
_symmetry_space_group_name_H-M "I 21 21 21"
_symmetry_group_IT_number 24
_symmetry_cell_setting 'orthorhombic'
loop_
_space_group_symop_operation_xyz
x,y,z
-x,1/2-y,z
x,-y,1/2-z
1/2-x,y,-z
1/2+x,1/2+y,1/2+z
1/2-x,-y,1/2+z
1/2+x,1/2-y,-z
-x,1/2+y,1/2-z
loop_
_atom_site_type_symbol
_atom_site_label
_atom_site_fract_x
_atom_site_fract_y
_atom_site_fract_z
Si Si1 0.020267 0.300628 0.825769
Si Si2 0.312872 0.093035 0.718561
Si Si3 0.243096 0.361009 0.819297
Si Si4 0.912512 0.551005 0.935944
Si Si5 0.606261 0.222624 0.833116
Si Si6 0.184220 0.546187 0.843812
Si Si7 0.250000 0.034619 0.000000
Si Si8 0.245835 0.184670 0.829798
O O1 0.123704 0.333776 0.773940
O O2 0.000000 0.250000 0.757319
O O3 0.892068 0.321714 0.797680
O O4 0.057513 0.290529 0.000189
O O5 0.405200 0.070198 0.604962
O O6 0.182655 0.082240 0.651518
O O7 0.323757 0.148218 0.738572
O O8 0.310027 0.066136 0.874525
O O9 0.346885 0.325677 0.771854
O O10 0.238316 0.410452 0.744676
O O11 0.250000 0.364820 0.000000
O O12 0.043359 0.552114 0.871801
O O13 0.851292 0.499999 0.936660
O O14 0.500000 0.250000 0.756013
O O15 0.709936 0.261788 0.831451
O O16 0.202061 0.500000 0.750000
O O17 0.250000 0.542300 0.000000
O O18 0.250000 0.169680 0.000000
#
# Coordination Sequence:
#
# PCOD9332815 Si02
#       8
#     8   8   8   8   8   8   4   8
#     4  10  17  30  54  88 125 169 203 256 314 382
#     4  10  21  35  63  96 124 162 204 269 327 385
#     4  10  21  41  65  92 126 165 216 271 330 387
#     4  10  22  43  59  85 129 168 205 259 334 397
#     4  10  19  31  54  89 130 165 203 266 320 374
#     4  12  27  47  68  90 125 171 225 272 329 398
#     4  10  18  36  66  96 122 158 208 268 324 384
#     4  12  18  30  52  91 129 155 212 258 314 378
#
# _framework density 20.465133999999999
#
# number of rings (size 3 to 8) (size 9 to 14) (size 15 to 20)
#    0.000    1.600    4.667    4.000    0.000    2.133 
#    0.000    0.000    2.933    0.800    0.000    0.000 
#    0.000    0.000    0.000    0.000    0.000    0.000 
#
# Total GULP energy -167265.337283 kJ/mol
# GULP energy per Si atom -5575.511243 kJ/mol
# Density = 2.041855 g / cm^3
# Si number density = 20.465134 Si / 1000 Ang^3
#
#
#
# Elastic Constant Matrix: (Units=GPa)
#
#
# Indices 1 2 3 4 5 6 
#
# 1 87.3464 41.4076 8.4921 0.0001 -0.0001 -0.0003
# 2 41.4076 162.2700 43.8992 0.0002 0.0001 0.0001
# 3 8.4921 43.8992 46.4937 0.0022 -0.0001 -0.0005
# 4 0.0001 0.0002 0.0022 24.6589 -0.0004 0.0000
# 5 -0.0001 0.0001 -0.0001 -0.0004 18.6308 0.0006
# 6 -0.0003 0.0001 -0.0005 0.0000 0.0006 30.8856
#
#
#
# Elastic Compliance Matrix: (Units=1/GPa)
#
#
# Indices 1 2 3 4 5 6 
#
# 1 0.013060 -0.003609 0.001022 0.000000 0.000000 0.000000
# 2 -0.003609 0.009274 -0.008097 0.000001 0.000000 0.000000
# 3 0.001022 -0.008097 0.028967 -0.000003 0.000000 0.000001
# 4 0.000000 0.000001 -0.000003 0.040553 0.000001 0.000000
# 5 0.000000 0.000000 0.000000 0.000001 0.053675 -0.000001
# 6 0.000000 0.000000 0.000001 0.000000 -0.000001 0.032378
#
#
# Mechanical properties :
#
#
# Convention : Reuss Voigt Hill
#
# Bulk Modulus (GPa) = 33.40797 53.74532 43.57665
# Shear Modulus (GPa) = 23.89448 28.32246 26.10847
#
# Velocity S-wave (km/s) = 3.42068 3.72417 3.57564
# Velocity P-wave (km/s) = 5.65342 6.69414 6.19567
#
# Compressibility (1/GPa) = 0.02993298
#
# Stress axis : x y z
#
# Youngs Moduli (GPa) = 76.56796 107.82629 34.52193
#
# Poissons Ratio (x) = 0.38917 -0.03529
# Poissons Ratio (y) = 0.27635 0.27954
# Poissons Ratio (z) = -0.07828 0.87311
#
# Static dielectric constant tensor:
#      x y z
#    x 1.758480 0.000000 0.000000 
#    y 0.000000 1.745860 0.000000 
#    z 0.000000 0.000000 1.744410 
# 
# From -- ./inp_files/11513.got.cif
#   From: 2010.05.17/outbox.cif.g08.bks.cpg/sg24_6_cif.got.tgz:11513.got - 2010.06.04 00:33:39.
