data_PCOD9332038
_publ_section_title
;
Structure prediction by ZEFSAII (Michael W. Deem and Ramdas Pophale) SiO2 
 PCOD9332038
Probable space group: I 2 2 2
;
_chemical_formula_sum "Si O2"
_cell_formula_units_Z 40
_cell_length_a 11.072261
_cell_length_b 25.856998
_cell_length_c 5.779503
_cell_angle_alpha 90.000000
_cell_angle_beta 90.000000
_cell_angle_gamma 90.000000
_cell_volume 1654.645300
_symmetry_space_group_name_H-M "I 2 2 2"
_symmetry_group_IT_number 23
_symmetry_cell_setting 'orthorhombic'
loop_
_space_group_symop_operation_xyz
x,y,z
-x,-y,z
x,-y,-z
-x,y,-z
1/2+x,1/2+y,1/2+z
1/2-x,1/2-y,1/2+z
1/2+x,1/2-y,1/2-z
1/2-x,1/2+y,1/2-z
loop_
_atom_site_type_symbol
_atom_site_label
_atom_site_fract_x
_atom_site_fract_y
_atom_site_fract_z
Si Si1 0.500000 0.826362 0.000000
Si Si2 0.000000 0.000000 0.500000
Si Si3 0.619455 0.421049 0.348111
Si Si4 0.169105 0.416789 0.319259
Si Si5 0.000000 0.500000 0.500000
Si Si6 0.362306 0.637870 0.978183
Si Si7 0.180806 0.753014 0.296649
O O1 0.404837 0.864385 0.123352
O O2 0.574711 0.789019 0.172378
O O3 0.914292 0.033188 0.670311
O O4 0.500000 0.414071 0.500000
O O5 0.735796 0.435839 0.490363
O O6 0.661286 0.364104 0.251033
O O7 0.072629 0.462250 0.326223
O O8 0.259891 0.400181 0.115979
O O9 0.367937 0.688842 0.829954
O O10 0.500000 0.618160 0.000000
O O11 0.258781 0.749851 0.540920
#
# Coordination Sequence:
#
# PCOD9332038 Si02
#       7
#     4   2   8   8   2   8   8
#     4  11  24  50  74 114 160 214 268 339 416 498
#     4  12  26  42  72 118 136 206 254 340 422 476
#     4  12  25  44  75 109 160 195 263 346 407 489
#     4  11  25  50  73 112 157 209 271 330 408 502
#     4  10  28  48  84 102 160 222 252 334 412 490
#     4  12  24  44  75 114 153 202 265 335 406 483
#     4  12  27  49  78 114 161 219 272 329 407 498
#
# _framework density 24.174364000000001
#
# number of rings (size 3 to 8) (size 9 to 14) (size 15 to 20)
#    0.000    0.400    6.000    1.500    5.600    0.800 
#    3.600    4.000    0.000    0.000    0.000    0.000 
#    0.000    0.000    0.000    0.000    0.000    0.000 
#
# Total GULP energy -111465.988004 kJ/mol
# GULP energy per Si atom -5573.299400 kJ/mol
# Density = 2.411934 g / cm^3
# Si number density = 24.174364 Si / 1000 Ang^3
#
#
#
# Elastic Constant Matrix: (Units=GPa)
#
#
# Indices 1 2 3 4 5 6 
#
# 1 146.9396 59.5372 47.3544 -0.0004 -0.0042 -0.0003
# 2 59.5372 114.2821 36.9791 0.0040 -0.0029 0.0003
# 3 47.3544 36.9791 97.8009 -0.0014 -0.0062 0.0069
# 4 -0.0004 0.0040 -0.0014 31.5187 0.0041 0.0019
# 5 -0.0042 -0.0029 -0.0062 0.0041 29.1174 -0.0013
# 6 -0.0003 0.0003 0.0069 0.0019 -0.0013 37.0375
#
#
#
# Elastic Compliance Matrix: (Units=1/GPa)
#
#
# Indices 1 2 3 4 5 6 
#
# 1 0.009369 -0.003889 -0.003066 0.000000 0.000000 0.000001
# 2 -0.003889 0.011584 -0.002497 -0.000002 0.000000 0.000000
# 3 -0.003066 -0.002497 0.012654 0.000001 0.000002 -0.000002
# 4 0.000000 -0.000002 0.000001 0.031727 -0.000005 -0.000002
# 5 0.000000 0.000000 0.000002 -0.000005 0.034344 0.000001
# 6 0.000001 0.000000 -0.000002 -0.000002 0.000001 0.027000
#
#
# Mechanical properties :
#
#
# Convention : Reuss Voigt Hill
#
# Bulk Modulus (GPa) = 68.01379 71.86266 69.93822
# Shear Modulus (GPa) = 33.22628 33.87818 33.55223
#
# Velocity S-wave (km/s) = 3.71137 3.74760 3.72953
# Velocity P-wave (km/s) = 6.82359 6.96544 6.89488
#
# Compressibility (1/GPa) = 0.01470290
#
# Stress axis : x y z
#
# Youngs Moduli (GPa) = 106.73046 86.32351 79.02887
#
# Poissons Ratio (x) = 0.33571 0.24231
# Poissons Ratio (y) = 0.41508 0.19734
# Poissons Ratio (z) = 0.32725 0.21556
#
# Static dielectric constant tensor:
#      x y z
#    x 1.883340 0.000000 0.000000 
#    y 0.000000 2.038820 0.000000 
#    z 0.000000 0.000000 2.325740 
# 
# From -- ./inp_files/1771.got.cif
#   From: 2010.05.17/outbox.cif.g08.bks.cpg/sg23_1_cif.got.tgz:1771.got - 2010.06.04 12:02:01.
