data_PCOD9332302
_publ_section_title
;
Structure prediction by ZEFSAII (Michael W. Deem and Ramdas Pophale) SiO2 
 PCOD9332302
Probable space group: I 2 2 2
;
_chemical_formula_sum "Si O2"
_cell_formula_units_Z 32
_cell_length_a 24.699739
_cell_length_b 12.538550
_cell_length_c 4.904480
_cell_angle_alpha 90.000000
_cell_angle_beta 90.000000
_cell_angle_gamma 90.000000
_cell_volume 1518.912122
_symmetry_space_group_name_H-M "I 2 2 2"
_symmetry_group_IT_number 23
_symmetry_cell_setting 'orthorhombic'
loop_
_space_group_symop_operation_xyz
x,y,z
-x,-y,z
x,-y,-z
-x,y,-z
1/2+x,1/2+y,1/2+z
1/2-x,1/2-y,1/2+z
1/2+x,1/2-y,1/2-z
1/2-x,1/2+y,1/2-z
loop_
_atom_site_type_symbol
_atom_site_label
_atom_site_fract_x
_atom_site_fract_y
_atom_site_fract_z
Si Si1 0.863880 0.071567 0.748608
Si Si2 0.393503 0.120996 0.099043
Si Si3 0.786881 0.756445 0.513265
Si Si4 0.560228 0.234776 0.392571
O O1 0.816223 0.140485 0.612792
O O2 0.906816 0.154906 0.874710
O O3 0.886830 0.000000 0.500000
O O4 0.844871 0.000000 0.000000
O O5 0.409957 0.150580 0.406452
O O6 0.333880 0.169204 0.049057
O O7 0.434838 0.186076 0.907705
O O8 0.395599 0.000000 0.000000
O O9 0.758654 0.779270 0.799794
O O10 0.500000 0.250175 0.500000
#
# Coordination Sequence:
#
# PCOD9332302 Si02
#       4
#     8   8   8   8
#     4  11  23  42  64  91 126 163 208 259 311 372
#     4  11  24  42  64  94 128 163 209 259 310 374
#     4  11  23  41  63  90 124 162 206 256 309 368
#     4  11  24  43  65  93 128 164 207 260 313 372
#
# _framework density 21.067708
#
# number of rings (size 3 to 8) (size 9 to 14) (size 15 to 20)
#    0.000    1.000    0.000    9.000    0.000    6.500 
#    0.000    6.250    0.000    0.000    0.000    0.000 
#    0.000    0.000    0.000    0.000    0.000    0.000 
#
# Total GULP energy -89503.826755 kJ/mol
# GULP energy per Si atom -5593.989172 kJ/mol
# Density = 2.101976 g / cm^3
# Si number density = 21.067708 Si / 1000 Ang^3
#
#
#
# Elastic Constant Matrix: (Units=GPa)
#
#
# Indices 1 2 3 4 5 6 
#
# 1 81.2021 16.5517 3.6509 0.0000 0.0000 0.0000
# 2 16.5517 88.5466 0.1858 0.0000 0.0000 0.0000
# 3 3.6509 0.1858 81.6076 0.0000 0.0000 0.0000
# 4 0.0000 0.0000 0.0000 43.4680 0.0000 0.0000
# 5 0.0000 0.0000 0.0000 0.0000 31.1702 0.0000
# 6 0.0000 0.0000 0.0000 0.0000 0.0000 -9.7274
#
#
#
# Elastic Compliance Matrix: (Units=1/GPa)
#
#
# Indices 1 2 3 4 5 6 
#
# 1 0.012829 -0.002397 -0.000568 0.000000 0.000000 0.000000
# 2 -0.002397 0.011741 0.000081 0.000000 0.000000 0.000000
# 3 -0.000568 0.000081 0.012279 0.000000 0.000000 0.000000
# 4 0.000000 0.000000 0.000000 0.023005 0.000000 0.000000
# 5 0.000000 0.000000 0.000000 0.000000 0.032082 0.000000
# 6 0.000000 0.000000 0.000000 0.000000 0.000000 -0.102803
#
#
# Mechanical properties :
#
#
# Convention : Reuss Voigt Hill
#
# Bulk Modulus (GPa) = 32.17535 32.45923 32.31729
# Shear Modulus (GPa) = 949.91244 28.38003 489.14624
#
# Velocity S-wave (km/s) = 21.25710 3.67425 15.25392
# Velocity P-wave (km/s) = 24.85541 5.78279 18.04483
#
# Compressibility (1/GPa) = 0.03107969
#
# Stress axis : x y z
#
# Youngs Moduli (GPa) = 77.94790 85.16895 81.43982
#
# Poissons Ratio (x) = 0.20414 0.04630
# Poissons Ratio (y) = 0.18683 -0.00656
# Poissons Ratio (z) = 0.04431 -0.00686
#
# Static dielectric constant tensor:
#      x y z
#    x 1.744840 0.000000 0.000000 
#    y 0.000000 1.751610 0.000000 
#    z 0.000000 0.000000 1.744910 
# 
# From -- ./inp_files/1360.got.cif
#   From: 2010.05.17/outbox.cif.g08.bks.cpg/sg23_1_cif.got.tgz:1360.got - 2010.06.04 12:02:01.
