data_PCOD9332375
_publ_section_title
;
Structure prediction by ZEFSAII (Michael W. Deem and Ramdas Pophale) SiO2 
 PCOD9332375
Probable space group: I 2 2 2
;
_chemical_formula_sum "Si O2"
_cell_formula_units_Z 26
_cell_length_a 5.144110
_cell_length_b 21.104929
_cell_length_c 8.877027
_cell_angle_alpha 90.000000
_cell_angle_beta 90.000000
_cell_angle_gamma 90.000000
_cell_volume 963.743991
_symmetry_space_group_name_H-M "I 2 2 2"
_symmetry_group_IT_number 23
_symmetry_cell_setting 'orthorhombic'
loop_
_space_group_symop_operation_xyz
x,y,z
-x,-y,z
x,-y,-z
-x,y,-z
1/2+x,1/2+y,1/2+z
1/2-x,1/2-y,1/2+z
1/2+x,1/2-y,1/2-z
1/2-x,1/2+y,1/2-z
loop_
_atom_site_type_symbol
_atom_site_label
_atom_site_fract_x
_atom_site_fract_y
_atom_site_fract_z
Si Si1 0.000000 0.368032 0.500000
Si Si2 0.000000 0.500000 0.000000
Si Si3 0.287633 0.745524 0.652354
Si Si4 0.000000 0.146896 0.500000
Si Si5 0.351179 0.562550 0.250776
O O1 0.796961 0.320202 0.577912
O O2 0.831003 0.407672 0.379215
O O3 0.171983 0.541490 0.111213
O O4 0.573946 0.743781 0.717208
O O5 0.229777 0.805394 0.546038
O O6 0.045891 0.107624 0.654480
O O7 0.500000 0.500000 0.307088
#
# Coordination Sequence:
#
# PCOD9332375 Si02
#       5
#     4   2   8   4   8
#     4  11  28  51  85 129 175 223 296 374 430 531
#     4  12  26  46  84 114 156 234 278 348 434 520
#     4  11  26  50  81 129 170 225 284 368 448 523
#     4  11  23  48  81 109 172 218 284 352 440 531
#     4  12  26  54  80 122 168 230 288 358 432 530
#
# _framework density 26.978116
#
# number of rings (size 3 to 8) (size 9 to 14) (size 15 to 20)
#    0.000    0.615    6.154    0.000    4.308    5.538 
#    5.538    6.154    0.000    0.000    0.000    0.000 
#    0.000    0.000    0.000    0.000    0.000    0.000 
#
# Total GULP energy -72952.164656 kJ/mol
# GULP energy per Si atom -5611.704974 kJ/mol
# Density = 2.691671 g / cm^3
# Si number density = 26.978116 Si / 1000 Ang^3
#
#
#
# Elastic Constant Matrix: (Units=GPa)
#
#
# Indices 1 2 3 4 5 6 
#
# 1 72.5359 35.3392 64.9276 0.0001 -0.0001 0.0000
# 2 35.3392 174.3614 115.6320 -0.0001 0.0000 0.0000
# 3 64.9276 115.6320 196.3704 0.0002 0.0000 -0.0001
# 4 0.0001 -0.0001 0.0002 54.7912 -0.0001 -0.0001
# 5 -0.0001 0.0000 0.0000 -0.0001 80.5991 0.0000
# 6 0.0000 0.0000 -0.0001 -0.0001 0.0000 22.9913
#
#
#
# Elastic Compliance Matrix: (Units=1/GPa)
#
#
# Indices 1 2 3 4 5 6 
#
# 1 0.019612 0.000534 -0.006799 0.000000 0.000000 0.000000
# 2 0.000534 0.009424 -0.005726 0.000000 0.000000 0.000000
# 3 -0.006799 -0.005726 0.010712 0.000000 0.000000 0.000000
# 4 0.000000 0.000000 0.000000 0.018251 0.000000 0.000000
# 5 0.000000 0.000000 0.000000 0.000000 0.012407 0.000000
# 6 0.000000 0.000000 0.000000 0.000000 0.000000 0.043495
#
#
# Mechanical properties :
#
#
# Convention : Reuss Voigt Hill
#
# Bulk Modulus (GPa) = 63.42582 97.22947 80.32764
# Shear Modulus (GPa) = 34.93117 46.83425 40.88271
#
# Velocity S-wave (km/s) = 3.60223 4.17106 3.89704
# Velocity P-wave (km/s) = 6.39238 7.70165 7.07736
#
# Compressibility (1/GPa) = 0.01576645
#
# Stress axis : x y z
#
# Youngs Moduli (GPa) = 50.98955 106.10802 93.35216
#
# Poissons Ratio (x) = -0.05665 0.63469
# Poissons Ratio (y) = -0.02722 0.53454
# Poissons Ratio (z) = 0.34667 0.60758
#
# Static dielectric constant tensor:
#      x y z
#    x 2.193200 0.000000 0.000000 
#    y 0.000000 2.279120 0.000000 
#    z 0.000000 0.000000 2.176540 
# 
# From -- ./inp_files/5652.got.cif
#   From: 2010.05.17/outbox.cif.g08.bks.cpg/sg23_3_cif.got.tgz:5652.got - 2010.06.04 12:02:01.
