data_PCOD9332919
_publ_section_title
;
Structure prediction by ZEFSAII (Michael W. Deem and Ramdas Pophale) SiO2 
 PCOD9332919
Probable space group: I 21 21 21
;
_chemical_formula_sum "Si O2"
_cell_formula_units_Z 36
_cell_length_a 6.838142
_cell_length_b 8.171419
_cell_length_c 24.859526
_cell_angle_alpha 90.000000
_cell_angle_beta 90.000000
_cell_angle_gamma 90.000000
_cell_volume 1389.083775
_symmetry_space_group_name_H-M "I 21 21 21"
_symmetry_group_IT_number 24
_symmetry_cell_setting 'orthorhombic'
loop_
_space_group_symop_operation_xyz
x,y,z
-x,1/2-y,z
x,-y,1/2-z
1/2-x,y,-z
1/2+x,1/2+y,1/2+z
1/2-x,-y,1/2+z
1/2+x,1/2-y,-z
-x,1/2+y,1/2-z
loop_
_atom_site_type_symbol
_atom_site_label
_atom_site_fract_x
_atom_site_fract_y
_atom_site_fract_z
Si Si1 0.500000 0.750000 0.170201
Si Si2 0.756497 0.980076 0.095581
Si Si3 0.250000 0.722973 0.000000
Si Si4 0.358049 0.949520 0.448749
Si Si5 0.289197 0.000000 0.250000
Si Si6 0.237037 0.785745 0.657315
O O1 0.660658 0.842264 0.133648
O O2 0.411781 0.890271 0.208208
O O3 0.857942 0.892082 0.044655
O O4 0.584439 0.080688 0.064099
O O5 0.833375 0.118332 0.135878
O O6 0.145418 0.857809 0.962423
O O7 0.250000 0.872238 0.500000
O O8 0.253545 0.909349 0.393131
O O9 0.185984 0.869404 0.288750
O O10 0.000000 0.750000 0.666989
#
# Coordination Sequence:
#
# PCOD9332919 Si02
#       6
#     4   8   4   8   4   8
#     4  12  16  30  42  66  96 128 162 192 250 292
#     4  11  19  32  46  73 100 130 169 202 238 297
#     4  10  18  28  50  64  96 136 160 204 246 284
#     4   9  18  32  46  64  97 135 159 202 245 288
#     4  12  18  28  46  66  96 138 156 194 250 300
#     4  10  19  30  44  68  98 130 166 194 241 293
#
# _framework density 25.916361999999999
#
# number of rings (size 3 to 8) (size 9 to 14) (size 15 to 20)
#    0.667    0.889    7.778    0.000    1.556    0.000 
#    0.000    0.000    0.000    0.000    0.000    0.000 
#    0.000   16.000    0.000    0.889    0.000    0.000 
#
# Total GULP energy -100421.274762 kJ/mol
# GULP energy per Si atom -5578.959709 kJ/mol
# Density = 2.585738 g / cm^3
# Si number density = 25.916362 Si / 1000 Ang^3
#
#
#
# Elastic Constant Matrix: (Units=GPa)
#
#
# Indices 1 2 3 4 5 6 
#
# 1 64.5033 17.7740 29.5876 0.0000 0.0000 0.0000
# 2 17.7740 171.9620 98.9995 0.0000 0.0000 0.0000
# 3 29.5876 98.9995 228.8683 0.0000 0.0000 0.0000
# 4 0.0000 0.0000 0.0000 82.2496 0.0000 0.0000
# 5 0.0000 0.0000 0.0000 0.0000 35.7988 0.0000
# 6 0.0000 0.0000 0.0000 0.0000 0.0000 27.3254
#
#
#
# Elastic Compliance Matrix: (Units=1/GPa)
#
#
# Indices 1 2 3 4 5 6 
#
# 1 0.016533 -0.000637 -0.001862 0.000000 0.000000 0.000000
# 2 -0.000637 0.007768 -0.003278 0.000000 0.000000 0.000000
# 3 -0.001862 -0.003278 0.006028 0.000000 0.000000 0.000000
# 4 0.000000 0.000000 0.000000 0.012158 0.000000 0.000000
# 5 0.000000 0.000000 0.000000 0.000000 0.027934 0.000000
# 6 0.000000 0.000000 0.000000 0.000000 0.000000 0.036596
#
#
# Mechanical properties :
#
#
# Convention : Reuss Voigt Hill
#
# Bulk Modulus (GPa) = 53.26108 84.22841 68.74475
# Shear Modulus (GPa) = 40.05502 50.33960 45.19731
#
# Velocity S-wave (km/s) = 3.93561 4.41203 4.18061
# Velocity P-wave (km/s) = 6.42245 7.65019 7.06304
#
# Compressibility (1/GPa) = 0.01877544
#
# Stress axis : x y z
#
# Youngs Moduli (GPa) = 60.48658 128.73070 165.89579
#
# Poissons Ratio (x) = 0.08200 0.30886
# Poissons Ratio (y) = 0.03853 0.54378
# Poissons Ratio (z) = 0.11261 0.42196
#
# Static dielectric constant tensor:
#      x y z
#    x 2.165950 0.000000 0.000000 
#    y 0.000000 2.134690 0.000000 
#    z 0.000000 0.000000 1.960550 
# 
# From -- ./inp_files/30583.got.cif
#   From: 2010.05.17/outbox.cif.g08.bks.cpg/sg24_16_cif.got.tgz:30583.got - 2010.06.04 00:33:39.
