data_PCOD9332310
_publ_section_title
;
Structure prediction by ZEFSAII (Michael W. Deem and Ramdas Pophale) SiO2 
 PCOD9332310
Probable space group: I 2 2 2
;
_chemical_formula_sum "Si O2"
_cell_formula_units_Z 58
_cell_length_a 26.091496
_cell_length_b 18.300787
_cell_length_c 5.643396
_cell_angle_alpha 90.000000
_cell_angle_beta 90.000000
_cell_angle_gamma 90.000000
_cell_volume 2694.692870
_symmetry_space_group_name_H-M "I 2 2 2"
_symmetry_group_IT_number 23
_symmetry_cell_setting 'orthorhombic'
loop_
_space_group_symop_operation_xyz
x,y,z
-x,-y,z
x,-y,-z
-x,y,-z
1/2+x,1/2+y,1/2+z
1/2-x,1/2-y,1/2+z
1/2+x,1/2-y,1/2-z
1/2-x,1/2+y,1/2-z
loop_
_atom_site_type_symbol
_atom_site_label
_atom_site_fract_x
_atom_site_fract_y
_atom_site_fract_z
Si Si1 0.057539 0.840539 0.992953
Si Si2 0.412498 0.413201 0.995128
Si Si3 0.303279 0.021200 0.759621
Si Si4 0.215222 0.317153 0.171249
Si Si5 0.000000 0.500000 0.500000
Si Si6 0.373041 0.214103 0.359463
Si Si7 0.824112 0.191786 0.503859
Si Si8 0.086737 0.443175 0.802497
O O1 0.059805 0.886025 0.747138
O O2 0.068610 0.883189 0.244316
O O3 0.099871 0.776105 0.982708
O O4 0.000000 0.809740 0.000000
O O5 0.355230 0.381562 0.952318
O O6 0.414650 0.500000 0.000000
O O7 0.357487 0.977182 0.765146
O O8 0.281152 0.000000 0.500000
O O9 0.309451 0.108611 0.773585
O O10 0.274129 0.000000 0.000000
O O11 0.202297 0.241402 0.298378
O O12 0.275755 0.327978 0.160943
O O13 0.184898 0.308013 0.926244
O O14 0.958931 0.553781 0.619002
O O15 0.366090 0.253178 0.108388
O O16 0.404071 0.139728 0.373824
O O17 0.068515 0.500000 0.000000
#
# Coordination Sequence:
#
# PCOD9332310 Si02
#       8
#     8   8   8   8   2   8   8   8
#     4  11  25  46  73 105 135 182 234 279 349 425
#     4  11  25  47  72 104 145 173 223 297 353 412
#     4  11  23  41  66  95 131 181 225 277 332 397
#     4  12  22  41  72  92 139 182 230 278 341 410
#     4  12  26  40  60  98 128 184 240 292 342 408
#     4  11  23  45  64  95 140 180 223 294 333 405
#     4  11  25  41  68 104 133 181 232 281 348 413
#     4  11  23  42  63  92 138 178 236 277 344 399
#
# _framework density 21.523789000000001
#
# number of rings (size 3 to 8) (size 9 to 14) (size 15 to 20)
#    0.000    0.828    6.207    1.862    0.000    3.310 
#    4.966    2.759    0.000    0.000    0.000    0.000 
#    0.000    0.000    0.000    0.000    0.000    0.000 
#
# Total GULP energy -161512.486027 kJ/mol
# GULP energy per Si atom -5569.396070 kJ/mol
# Density = 2.147480 g / cm^3
# Si number density = 21.523789 Si / 1000 Ang^3
#
#
#
# Elastic Constant Matrix: (Units=GPa)
#
#
# Indices 1 2 3 4 5 6 
#
# 1 72.9615 27.5566 7.8715 0.0000 0.0000 0.0000
# 2 27.5566 116.0832 22.4034 0.0000 0.0000 0.0000
# 3 7.8715 22.4034 91.4528 0.0000 0.0000 0.0000
# 4 0.0000 0.0000 0.0000 25.4175 0.0000 0.0000
# 5 0.0000 0.0000 0.0000 0.0000 13.5563 0.0000
# 6 0.0000 0.0000 0.0000 0.0000 0.0000 24.6929
#
#
#
# Elastic Compliance Matrix: (Units=1/GPa)
#
#
# Indices 1 2 3 4 5 6 
#
# 1 0.015073 -0.003493 -0.000442 0.000000 0.000000 0.000000
# 2 -0.003493 0.009851 -0.002113 0.000000 0.000000 0.000000
# 3 -0.000442 -0.002113 0.011490 0.000000 0.000000 0.000000
# 4 0.000000 0.000000 0.000000 0.039343 0.000000 0.000000
# 5 0.000000 0.000000 0.000000 0.000000 0.073767 0.000000
# 6 0.000000 0.000000 0.000000 0.000000 0.000000 0.040498
#
#
# Mechanical properties :
#
#
# Convention : Reuss Voigt Hill
#
# Bulk Modulus (GPa) = 41.11861 44.01783 42.56822
# Shear Modulus (GPa) = 23.78436 27.57775 25.68105
#
# Velocity S-wave (km/s) = 3.32780 3.58336 3.45794
# Velocity P-wave (km/s) = 5.82331 6.13318 5.98025
#
# Compressibility (1/GPa) = 0.02431989
#
# Stress axis : x y z
#
# Youngs Moduli (GPa) = 66.34519 101.50852 87.03090
#
# Poissons Ratio (x) = 0.35455 0.03844
# Poissons Ratio (y) = 0.23173 0.18387
# Poissons Ratio (z) = 0.02930 0.21446
#
# Static dielectric constant tensor:
#      x y z
#    x 1.768730 0.000000 0.000000 
#    y 0.000000 1.865340 0.000000 
#    z 0.000000 0.000000 1.637750 
# 
# From -- ./inp_files/5036.got.cif
#   From: 2010.05.17/outbox.cif.g08.bks.cpg/sg23_3_cif.got.tgz:5036.got - 2010.06.04 12:02:01.
