data_PCOD9332827
_publ_section_title
;
Structure prediction by ZEFSAII (Michael W. Deem and Ramdas Pophale) SiO2 
 PCOD9332827
Probable space group: I 21 21 21
;
_chemical_formula_sum "Si O2"
_cell_formula_units_Z 64
_cell_length_a 5.906258
_cell_length_b 31.944429
_cell_length_c 19.033575
_cell_angle_alpha 90.000000
_cell_angle_beta 90.000000
_cell_angle_gamma 90.000000
_cell_volume 3591.103411
_symmetry_space_group_name_H-M "I 21 21 21"
_symmetry_group_IT_number 24
_symmetry_cell_setting 'orthorhombic'
loop_
_space_group_symop_operation_xyz
x,y,z
-x,1/2-y,z
x,-y,1/2-z
1/2-x,y,-z
1/2+x,1/2+y,1/2+z
1/2-x,-y,1/2+z
1/2+x,1/2-y,-z
-x,1/2+y,1/2-z
loop_
_atom_site_type_symbol
_atom_site_label
_atom_site_fract_x
_atom_site_fract_y
_atom_site_fract_z
Si Si1 0.250940 0.728928 0.915557
Si Si2 0.025962 0.885141 0.708869
Si Si3 0.102692 0.506594 0.565465
Si Si4 0.417676 0.076229 0.694835
Si Si5 0.361096 0.547074 0.676548
Si Si6 0.188395 0.358476 0.660175
Si Si7 0.243748 0.916818 0.580552
Si Si8 0.377137 0.919880 0.068811
O O1 0.500000 0.750000 0.898744
O O2 0.250401 0.684419 0.876854
O O3 0.000000 0.750000 0.898668
O O4 0.250000 0.723997 0.000000
O O5 0.228280 0.901594 0.757447
O O6 0.128527 0.881835 0.630879
O O7 0.840526 0.921301 0.697243
O O8 0.911104 0.851582 0.760813
O O9 0.250000 0.522146 0.500000
O O10 0.250799 0.508253 0.636306
O O11 0.901866 0.539893 0.577341
O O12 0.026689 0.459800 0.548704
O O13 0.513363 0.043106 0.749730
O O14 0.601086 0.110315 0.670993
O O15 0.299257 0.060651 0.624673
O O16 0.524506 0.569873 0.619636
O O17 0.014927 0.384038 0.609649
O O18 0.250000 0.902627 0.500000
O O19 0.250000 0.903447 0.000000
#
# Coordination Sequence:
#
# PCOD9332827 Si02
#       8
#     8   8   8   8   8   8   8   8
#     4  10  24  41  65  97 123 151 196 242 293 362
#     4   8  18  34  53  81 107 144 190 230 289 352
#     4  11  22  34  50  73 103 141 197 251 300 349
#     4   9  20  39  55  77 102 145 188 236 294 349
#     4   9  18  36  55  71 105 142 189 241 298 344
#     4  10  22  40  61  77 113 154 180 241 295 352
#     4  10  17  31  54  78 105 151 187 248 297 339
#     4  11  26  36  54  78 106 144 202 247 299 359
#
# _framework density 17.821821
#
# number of rings (size 3 to 8) (size 9 to 14) (size 15 to 20)
#    0.000    2.250    1.250    0.375    7.000    0.500 
#    0.000   28.750    0.000    0.000    0.000    0.000 
#    0.000    0.000   12.750    0.250    0.000    0.000 
#
# Total GULP energy -178155.563597 kJ/mol
# GULP energy per Si atom -5567.361362 kJ/mol
# Density = 1.778126 g / cm^3
# Si number density = 17.821821 Si / 1000 Ang^3
#
#
#
# Elastic Constant Matrix: (Units=GPa)
#
#
# Indices 1 2 3 4 5 6 
#
# 1 94.5251 35.5956 52.8580 0.0000 0.0000 0.0000
# 2 35.5956 66.2494 29.9723 0.0000 0.0000 0.0000
# 3 52.8580 29.9723 117.6988 0.0000 0.0000 0.0000
# 4 0.0000 0.0000 0.0000 15.8522 0.0000 0.0000
# 5 0.0000 0.0000 0.0000 0.0000 41.2524 0.0000
# 6 0.0000 0.0000 0.0000 0.0000 0.0000 11.9283
#
#
#
# Elastic Compliance Matrix: (Units=1/GPa)
#
#
# Indices 1 2 3 4 5 6 
#
# 1 0.016018 -0.006049 -0.005653 0.000000 0.000000 0.000000
# 2 -0.006049 0.019344 -0.002209 0.000000 0.000000 0.000000
# 3 -0.005653 -0.002209 0.011598 0.000000 0.000000 0.000000
# 4 0.000000 0.000000 0.000000 0.063083 0.000000 0.000000
# 5 0.000000 0.000000 0.000000 0.000000 0.024241 0.000000
# 6 0.000000 0.000000 0.000000 0.000000 0.000000 0.083834
#
#
# Mechanical properties :
#
#
# Convention : Reuss Voigt Hill
#
# Bulk Modulus (GPa) = 52.25557 57.25834 54.75696
# Shear Modulus (GPa) = 19.81603 24.47641 22.14622
#
# Velocity S-wave (km/s) = 3.33813 3.70996 3.52894
# Velocity P-wave (km/s) = 6.65149 7.10983 6.88447
#
# Compressibility (1/GPa) = 0.01913672
#
# Stress axis : x y z
#
# Youngs Moduli (GPa) = 62.42798 51.69520 86.22297
#
# Poissons Ratio (x) = 0.31270 0.48746
# Poissons Ratio (y) = 0.37762 0.19051
# Poissons Ratio (z) = 0.35293 0.11422
#
# Static dielectric constant tensor:
#      x y z
#    x 1.715230 0.000000 0.000000 
#    y 0.000000 1.553550 0.000000 
#    z 0.000000 0.000000 1.650550 
# 
# From -- ./inp_files/28980.got.cif
#   From: 2010.05.17/outbox.cif.g08.bks.cpg/sg24_15_cif.got.tgz:28980.got - 2010.06.04 00:33:39.
