data_PCOD9332666
_publ_section_title
;
Structure prediction by ZEFSAII (Michael W. Deem and Ramdas Pophale) SiO2 
 PCOD9332666
Probable space group: I 21 21 21
;
_chemical_formula_sum "Si O2"
_cell_formula_units_Z 48
_cell_length_a 16.707595
_cell_length_b 7.250458
_cell_length_c 19.733164
_cell_angle_alpha 90.000000
_cell_angle_beta 90.000000
_cell_angle_gamma 90.000000
_cell_volume 2390.430413
_symmetry_space_group_name_H-M "I 21 21 21"
_symmetry_group_IT_number 24
_symmetry_cell_setting 'orthorhombic'
loop_
_space_group_symop_operation_xyz
x,y,z
-x,1/2-y,z
x,-y,1/2-z
1/2-x,y,-z
1/2+x,1/2+y,1/2+z
1/2-x,-y,1/2+z
1/2+x,1/2-y,-z
-x,1/2+y,1/2-z
loop_
_atom_site_type_symbol
_atom_site_label
_atom_site_fract_x
_atom_site_fract_y
_atom_site_fract_z
Si Si1 0.830998 0.419452 0.967333
Si Si2 0.266138 0.927199 0.320368
Si Si3 0.166191 0.503737 0.026483
Si Si4 0.991359 0.524751 0.464310
Si Si5 0.916938 0.464474 0.173818
Si Si6 0.160863 0.591712 0.321299
O O1 0.818651 0.436294 0.887202
O O2 0.912491 0.510647 0.991752
O O3 0.750000 0.497884 0.000000
O O4 0.832853 0.208379 0.996917
O O5 0.177776 0.024769 0.330306
O O6 0.240586 0.714241 0.312034
O O7 0.300492 0.000000 0.250000
O O8 0.169590 0.513184 0.108346
O O9 0.250000 0.584790 0.000000
O O10 0.074865 0.561056 0.010868
O O11 0.968834 0.463769 0.387834
O O12 0.000000 0.750000 0.465356
O O13 0.944814 0.500000 0.250000
O O14 0.093099 0.255032 0.165370
O O15 0.143814 0.500000 0.250000
#
# Coordination Sequence:
#
# PCOD9332666 Si02
#       6
#     8   8   8   8   8   8
#     4  10  13  26  48  69  91 125 158 200 229 277
#     4   9  16  28  46  73 103 124 157 200 245 284
#     4  10  17  30  47  69  94 123 169 206 232 284
#     4  10  16  26  46  74  90 119 168 205 235 279
#     4   9  16  28  43  68 106 126 152 193 245 297
#     4  10  17  28  47  72 100 133 160 192 244 297
#
# _framework density 20.080065000000001
#
# number of rings (size 3 to 8) (size 9 to 14) (size 15 to 20)
#    1.000    1.333    8.333    0.000    0.000    0.667 
#    0.000    0.000    0.000    4.000    0.000    0.000 
#    0.000    0.000    0.000    0.000    0.000    0.000 
#
# Total GULP energy -133610.241824 kJ/mol
# GULP energy per Si atom -5567.093409 kJ/mol
# Density = 2.003436 g / cm^3
# Si number density = 20.080065 Si / 1000 Ang^3
#
#
#
# Elastic Constant Matrix: (Units=GPa)
#
#
# Indices 1 2 3 4 5 6 
#
# 1 163.2025 13.5773 82.7487 0.0000 0.0000 0.0000
# 2 13.5773 41.0005 20.0021 0.0000 0.0000 0.0000
# 3 82.7487 20.0021 141.9901 0.0000 0.0000 0.0000
# 4 0.0000 0.0000 0.0000 18.2913 0.0000 0.0000
# 5 0.0000 0.0000 0.0000 0.0000 -140.7062 0.0000
# 6 0.0000 0.0000 0.0000 0.0000 0.0000 -5.7453
#
#
#
# Elastic Compliance Matrix: (Units=1/GPa)
#
#
# Indices 1 2 3 4 5 6 
#
# 1 0.008705 -0.000438 -0.005011 0.000000 0.000000 0.000000
# 2 -0.000438 0.026212 -0.003437 0.000000 0.000000 0.000000
# 3 -0.005011 -0.003437 0.010447 0.000000 0.000000 0.000000
# 4 0.000000 0.000000 0.000000 0.054671 0.000000 0.000000
# 5 0.000000 0.000000 0.000000 0.000000 -0.007107 0.000000
# 6 0.000000 0.000000 0.000000 0.000000 0.000000 -0.174054
#
#
# Mechanical properties :
#
#
# Convention : Reuss Voigt Hill
#
# Bulk Modulus (GPa) = 36.24346 64.31660 50.28003
# Shear Modulus (GPa) = -92.32485 -10.30772 -51.31628
#
# Velocity S-wave (km/s) = -6.78809 -2.26814 -5.06076
# Velocity P-wave (km/s) = 6.58399 5.02398 3.00903
#
# Compressibility (1/GPa) = 0.02759118
#
# Stress axis : x y z
#
# Youngs Moduli (GPa) = 114.88181 38.15073 95.71804
#
# Poissons Ratio (x) = 0.01670 0.47966
# Poissons Ratio (y) = 0.05030 0.32901
# Poissons Ratio (z) = 0.57569 0.13114
#
# Static dielectric constant tensor:
#      x y z
#    x 1.754010 0.000000 0.000000 
#    y 0.000000 1.842820 0.000000 
#    z 0.000000 0.000000 1.739820 
# 
# From -- ./inp_files/31100.got.cif
#   From: 2010.05.17/outbox.cif.g08.bks.cpg/sg24_16_cif.got.tgz:31100.got - 2010.06.04 00:33:39.
