data_PCOD9332720
_publ_section_title
;
Structure prediction by ZEFSAII (Michael W. Deem and Ramdas Pophale) SiO2 
 PCOD9332720
Probable space group: I 21 21 21
;
_chemical_formula_sum "Si O2"
_cell_formula_units_Z 52
_cell_length_a 22.850575
_cell_length_b 7.531223
_cell_length_c 15.570629
_cell_angle_alpha 90.000000
_cell_angle_beta 90.000000
_cell_angle_gamma 90.000000
_cell_volume 2679.592769
_symmetry_space_group_name_H-M "I 21 21 21"
_symmetry_group_IT_number 24
_symmetry_cell_setting 'orthorhombic'
loop_
_space_group_symop_operation_xyz
x,y,z
-x,1/2-y,z
x,-y,1/2-z
1/2-x,y,-z
1/2+x,1/2+y,1/2+z
1/2-x,-y,1/2+z
1/2+x,1/2-y,-z
-x,1/2+y,1/2-z
loop_
_atom_site_type_symbol
_atom_site_label
_atom_site_fract_x
_atom_site_fract_y
_atom_site_fract_z
Si Si1 0.114977 0.204413 0.501632
Si Si2 0.551924 0.500000 0.250000
Si Si3 0.319269 0.575427 0.501786
Si Si4 0.070349 0.757064 0.180045
Si Si5 0.500000 0.250000 0.985823
Si Si6 0.610241 0.353958 0.096655
Si Si7 0.000000 0.250000 0.611068
Si Si8 0.095815 0.644876 0.356910
O O1 0.158505 0.371614 0.499306
O O2 0.096502 0.147552 0.404305
O O3 0.056226 0.271729 0.550460
O O4 0.136581 0.036496 0.557480
O O5 0.593605 0.369008 0.196181
O O6 0.513107 0.408094 0.322552
O O7 0.250000 0.584439 0.500000
O O8 0.349889 0.686716 0.425728
O O9 0.346492 0.670211 0.586500
O O10 0.085681 0.787610 0.280850
O O11 0.096260 0.559301 0.171162
O O12 0.000000 0.750000 0.174643
O O13 0.540471 0.140637 0.921278
O O14 0.548461 0.339800 0.045363
#
# Coordination Sequence:
#
# PCOD9332720 Si02
#       8
#     8   4   8   8   4   8   4   8
#     4  10  21  36  60  91 117 159 199 239 307 365
#     4  10  22  34  56  88 126 150 192 258 312 370
#     4  10  23  42  63  79 119 167 208 243 288 351
#     4  10  16  29  51  82 125 144 175 238 290 364
#     4  10  17  31  52  88 120 154 180 233 303 372
#     4  10  22  37  60  87 119 154 200 249 306 359
#     4  10  21  33  58  94 122 154 192 247 323 370
#     4   9  19  29  52  85 114 152 193 224 295 351
#
# _framework density 19.405934999999999
#
# number of rings (size 3 to 8) (size 9 to 14) (size 15 to 20)
#    0.000    2.154    1.538    1.385   12.923    0.615 
#    0.000    0.000   30.462    0.000    0.000    0.000 
#    0.000    0.000    0.000    0.000    0.000    0.000 
#
# Total GULP energy -144826.733739 kJ/mol
# GULP energy per Si atom -5570.258990 kJ/mol
# Density = 1.936177 g / cm^3
# Si number density = 19.405935 Si / 1000 Ang^3
#
#
#
# Elastic Constant Matrix: (Units=GPa)
#
#
# Indices 1 2 3 4 5 6 
#
# 1 104.2105 15.2129 17.2225 0.0000 0.0000 0.0000
# 2 15.2129 43.6378 7.3350 0.0000 0.0000 0.0000
# 3 17.2225 7.3350 71.3341 0.0000 0.0000 0.0000
# 4 0.0000 0.0000 0.0000 25.9581 0.0000 0.0000
# 5 0.0000 0.0000 0.0000 0.0000 7.4927 0.0000
# 6 0.0000 0.0000 0.0000 0.0000 0.0000 20.5239
#
#
#
# Elastic Compliance Matrix: (Units=1/GPa)
#
#
# Indices 1 2 3 4 5 6 
#
# 1 0.010434 -0.003271 -0.002183 0.000000 0.000000 0.000000
# 2 -0.003271 0.024344 -0.001714 0.000000 0.000000 0.000000
# 3 -0.002183 -0.001714 0.014722 0.000000 0.000000 0.000000
# 4 0.000000 0.000000 0.000000 0.038524 0.000000 0.000000
# 5 0.000000 0.000000 0.000000 0.000000 0.133464 0.000000
# 6 0.000000 0.000000 0.000000 0.000000 0.000000 0.048724
#
#
# Mechanical properties :
#
#
# Convention : Reuss Voigt Hill
#
# Bulk Modulus (GPa) = 28.43658 33.19146 30.81402
# Shear Modulus (GPa) = 16.87665 22.75572 19.81618
#
# Velocity S-wave (km/s) = 2.95221 3.42806 3.19900
# Velocity P-wave (km/s) = 5.12894 5.72798 5.43672
#
# Compressibility (1/GPa) = 0.03516597
#
# Stress axis : x y z
#
# Youngs Moduli (GPa) = 95.83891 41.07761 67.92664
#
# Poissons Ratio (x) = 0.13435 0.14827
# Poissons Ratio (y) = 0.31345 0.11640
# Poissons Ratio (z) = 0.20920 0.07039
#
# Static dielectric constant tensor:
#      x y z
#    x 1.653040 0.000000 0.000000 
#    y 0.000000 1.698980 0.000000 
#    z 0.000000 0.000000 1.802760 
# 
# From -- ./inp_files/27504.got.cif
#   From: 2010.05.17/outbox.cif.g08.bks.cpg/sg24_14_cif.got.tgz:27504.got - 2010.06.04 00:33:39.
