data_PCOD9332393
_publ_section_title
;
Structure prediction by ZEFSAII (Michael W. Deem and Ramdas Pophale) SiO2 
 PCOD9332393
Probable space group: I 2 2 2
;
_chemical_formula_sum "Si O2"
_cell_formula_units_Z 58
_cell_length_a 9.242013
_cell_length_b 11.850827
_cell_length_c 24.225116
_cell_angle_alpha 90.000000
_cell_angle_beta 90.000000
_cell_angle_gamma 90.000000
_cell_volume 2653.267875
_symmetry_space_group_name_H-M "I 2 2 2"
_symmetry_group_IT_number 23
_symmetry_cell_setting 'orthorhombic'
loop_
_space_group_symop_operation_xyz
x,y,z
-x,-y,z
x,-y,-z
-x,y,-z
1/2+x,1/2+y,1/2+z
1/2-x,1/2-y,1/2+z
1/2+x,1/2-y,1/2-z
1/2-x,1/2+y,1/2-z
loop_
_atom_site_type_symbol
_atom_site_label
_atom_site_fract_x
_atom_site_fract_y
_atom_site_fract_z
Si Si1 0.858966 0.697631 0.938848
Si Si2 0.214654 0.085323 0.337894
Si Si3 0.000000 0.500000 0.000000
Si Si4 0.243285 0.731657 0.257267
Si Si5 0.984917 0.873845 0.791251
Si Si6 0.114994 0.840676 0.362283
Si Si7 0.581238 0.389315 0.417971
Si Si8 0.852557 0.303936 0.471720
O O1 0.802927 0.666787 0.878614
O O2 0.900870 0.578931 0.963924
O O3 0.999470 0.777051 0.937857
O O4 0.738921 0.753874 0.977382
O O5 0.275535 0.115433 0.277208
O O6 0.048077 0.124841 0.346286
O O7 0.212705 0.953603 0.354513
O O8 0.177041 0.831210 0.219593
O O9 0.415593 0.725111 0.265806
O O10 0.172685 0.750881 0.317192
O O11 0.050036 0.886274 0.852463
O O12 0.000000 0.000000 0.766329
O O13 0.118197 0.790670 0.424162
O O14 0.500000 0.500000 0.438529
O O15 0.744902 0.388752 0.439513
O O16 0.000000 0.346194 0.500000
#
# Coordination Sequence:
#
# PCOD9332393 Si02
#       8
#     8   8   2   8   8   8   8   8
#     4  12  24  43  68 104 141 186 238 301 367 450
#     4  11  24  42  68 102 143 193 240 302 374 446
#     4  12  24  40  68 100 152 172 234 294 374 436
#     4  12  22  42  71  97 141 192 246 303 362 440
#     4  11  24  43  70 102 141 193 244 305 374 436
#     4  11  24  43  68 104 148 186 241 311 380 440
#     4  11  25  48  72  99 144 194 240 300 369 441
#     4  12  24  45  75 108 144 187 244 307 380 449
#
# _framework density 21.859836999999999
#
# number of rings (size 3 to 8) (size 9 to 14) (size 15 to 20)
#    0.000    0.552    6.897    1.655    0.000    1.103 
#    0.000    3.448    0.000    6.621    0.000    0.000 
#    0.000    0.000    0.000    0.000    0.000    0.000 
#
# Total GULP energy -161817.107107 kJ/mol
# GULP energy per Si atom -5579.900245 kJ/mol
# Density = 2.181008 g / cm^3
# Si number density = 21.859837 Si / 1000 Ang^3
#
#
#
# Elastic Constant Matrix: (Units=GPa)
#
#
# Indices 1 2 3 4 5 6 
#
# 1 93.4359 37.3688 16.3766 0.0000 0.0000 0.0000
# 2 37.3688 87.6030 8.2705 0.0000 0.0000 0.0000
# 3 16.3766 8.2705 93.8052 0.0000 0.0000 0.0000
# 4 0.0000 0.0000 0.0000 -9.2645 0.0000 0.0000
# 5 0.0000 0.0000 0.0000 0.0000 39.0376 0.0000
# 6 0.0000 0.0000 0.0000 0.0000 0.0000 30.2558
#
#
#
# Elastic Compliance Matrix: (Units=1/GPa)
#
#
# Indices 1 2 3 4 5 6 
#
# 1 0.013206 -0.005461 -0.001824 0.000000 0.000000 0.000000
# 2 -0.005461 0.013769 -0.000261 0.000000 0.000000 0.000000
# 3 -0.001824 -0.000261 0.011002 0.000000 0.000000 0.000000
# 4 0.000000 0.000000 0.000000 -0.107939 0.000000 0.000000
# 5 0.000000 0.000000 0.000000 0.000000 0.025616 0.000000
# 6 0.000000 0.000000 0.000000 0.000000 0.000000 0.033052
#
#
# Mechanical properties :
#
#
# Convention : Reuss Voigt Hill
#
# Bulk Modulus (GPa) = 43.69529 44.31953 44.00741
# Shear Modulus (GPa) = 437.57456 26.19432 231.88444
#
# Velocity S-wave (km/s) = 14.16359 3.46538 10.31058
# Velocity P-wave (km/s) = 16.95608 6.02746 12.72476
#
# Compressibility (1/GPa) = 0.02288576
#
# Stress axis : x y z
#
# Youngs Moduli (GPa) = 75.72087 72.62521 90.89410
#
# Poissons Ratio (x) = 0.39662 0.16580
# Poissons Ratio (y) = 0.41353 0.02368
# Poissons Ratio (z) = 0.13812 0.01892
#
# Static dielectric constant tensor:
#      x y z
#    x 2.349530 0.000000 0.000000 
#    y 0.000000 1.783930 0.000000 
#    z 0.000000 0.000000 1.924050 
# 
# From -- ./inp_files/29286.got.cif
#   From: 2010.05.17/outbox.cif.g08.bks.cpg/sg23_15_cif.got.tgz:29286.got - 2010.06.04 12:02:01.
