data_PCOD9332145
_publ_section_title
;
Structure prediction by ZEFSAII (Michael W. Deem and Ramdas Pophale) SiO2 
 PCOD9332145
Probable space group: I 2 2 2
;
_chemical_formula_sum "Si O2"
_cell_formula_units_Z 48
_cell_length_a 8.198282
_cell_length_b 14.569371
_cell_length_c 18.305266
_cell_angle_alpha 90.000000
_cell_angle_beta 90.000000
_cell_angle_gamma 90.000000
_cell_volume 2186.450751
_symmetry_space_group_name_H-M "I 2 2 2"
_symmetry_group_IT_number 23
_symmetry_cell_setting 'orthorhombic'
loop_
_space_group_symop_operation_xyz
x,y,z
-x,-y,z
x,-y,-z
-x,y,-z
1/2+x,1/2+y,1/2+z
1/2-x,1/2-y,1/2+z
1/2+x,1/2-y,1/2-z
1/2-x,1/2+y,1/2-z
loop_
_atom_site_type_symbol
_atom_site_label
_atom_site_fract_x
_atom_site_fract_y
_atom_site_fract_z
Si Si1 0.810285 0.034085 0.421083
Si Si2 0.810285 0.034085 0.078917
Si Si3 0.716296 0.128957 0.836409
Si Si4 0.469998 0.280544 0.085843
Si Si5 0.716296 0.128957 0.663591
Si Si6 0.030002 0.780544 0.085843
O O1 0.824585 0.142981 0.411880
O O2 0.747437 0.000000 0.500000
O O3 0.717491 0.977463 0.359476
O O4 0.000000 0.000000 0.419503
O O5 0.824585 0.142981 0.088120
O O6 0.717491 0.977463 0.140524
O O7 0.000000 0.000000 0.080497
O O8 0.747437 0.000000 0.000000
O O9 0.574888 0.187478 0.873779
O O10 0.718449 0.139822 0.750000
O O11 0.878005 0.172949 0.873308
O O12 0.621995 0.327051 0.126692
O O13 0.500000 0.266340 0.000000
O O14 0.574888 0.187478 0.626222
O O15 0.000000 0.766340 0.000000
#
# Coordination Sequence:
#
# PCOD9332145 Si02
#       6
#     8   8   8   8   8   8
#     4   9  17  35  60  87 114 155 210 243 286 360
#     4   9  17  35  60  87 114 155 210 243 286 360
#     4  11  23  37  61  94 125 157 201 258 312 355
#     4  11  21  39  64  89 119 165 207 249 300 367
#     4  11  23  37  61  94 125 157 201 258 312 355
#     4  11  21  39  64  89 119 165 207 249 300 367
#
# _framework density 21.953385999999998
#
# number of rings (size 3 to 8) (size 9 to 14) (size 15 to 20)
#    0.000    1.667    6.667    2.000    0.000    7.333 
#    0.000    1.667    0.000    4.000    0.000    0.000 
#    0.000    0.000    0.000    0.000    0.000    0.000 
#
# Total GULP energy -134122.637676 kJ/mol
# GULP energy per Si atom -5588.443236 kJ/mol
# Density = 2.190342 g / cm^3
# Si number density = 21.953386 Si / 1000 Ang^3
#
#
#
# Elastic Constant Matrix: (Units=GPa)
#
#
# Indices 1 2 3 4 5 6 
#
# 1 35.3946 5.2606 25.1735 0.0000 0.0000 0.0000
# 2 5.2606 40.2521 34.9701 0.0000 0.0000 0.0000
# 3 25.1735 34.9701 189.5335 0.0000 0.0000 0.0000
# 4 0.0000 0.0000 0.0000 35.7965 0.0000 0.0000
# 5 0.0000 0.0000 0.0000 0.0000 33.6753 0.0000
# 6 0.0000 0.0000 0.0000 0.0000 0.0000 25.9030
#
#
#
# Elastic Compliance Matrix: (Units=1/GPa)
#
#
# Indices 1 2 3 4 5 6 
#
# 1 0.031211 -0.000569 -0.004040 0.000000 0.000000 0.000000
# 2 -0.000569 0.029596 -0.005385 0.000000 0.000000 0.000000
# 3 -0.004040 -0.005385 0.006806 0.000000 0.000000 0.000000
# 4 0.000000 0.000000 0.000000 0.027936 0.000000 0.000000
# 5 0.000000 0.000000 0.000000 0.000000 0.029695 0.000000
# 6 0.000000 0.000000 0.000000 0.000000 0.000000 0.038606
#
#
# Mechanical properties :
#
#
# Convention : Reuss Voigt Hill
#
# Bulk Modulus (GPa) = 20.99741 43.99873 32.49807
# Shear Modulus (GPa) = 25.03579 32.39336 28.71457
#
# Velocity S-wave (km/s) = 3.38065 3.84546 3.62052
# Velocity P-wave (km/s) = 4.98234 6.30889 5.68445
#
# Compressibility (1/GPa) = 0.04762492
#
# Stress axis : x y z
#
# Youngs Moduli (GPa) = 32.03990 33.78804 146.92168
#
# Poissons Ratio (x) = 0.01922 0.59363
# Poissons Ratio (y) = 0.01822 0.79119
# Poissons Ratio (z) = 0.12946 0.18195
#
# Static dielectric constant tensor:
#      x y z
#    x 1.857440 0.000000 0.000000 
#    y 0.000000 1.843370 0.000000 
#    z 0.000000 0.000000 1.726510 
# 
# From -- ./inp_files/23732.got.cif
#   From: 2010.05.17/outbox.cif.g08.bks.cpg/sg23_12_cif.got.tgz:23732.got - 2010.06.04 12:02:01.
