data_PCOD9332281
_publ_section_title
;
Structure prediction by ZEFSAII (Michael W. Deem and Ramdas Pophale) SiO2 
 PCOD9332281
Probable space group: I 2 2 2
;
_chemical_formula_sum "Si O2"
_cell_formula_units_Z 40
_cell_length_a 8.950849
_cell_length_b 14.821158
_cell_length_c 14.273660
_cell_angle_alpha 90.000000
_cell_angle_beta 90.000000
_cell_angle_gamma 90.000000
_cell_volume 1893.571530
_symmetry_space_group_name_H-M "I 2 2 2"
_symmetry_group_IT_number 23
_symmetry_cell_setting 'orthorhombic'
loop_
_space_group_symop_operation_xyz
x,y,z
-x,-y,z
x,-y,-z
-x,y,-z
1/2+x,1/2+y,1/2+z
1/2-x,1/2-y,1/2+z
1/2+x,1/2-y,1/2-z
1/2-x,1/2+y,1/2-z
loop_
_atom_site_type_symbol
_atom_site_label
_atom_site_fract_x
_atom_site_fract_y
_atom_site_fract_z
Si Si1 0.325508 0.012273 0.609979
Si Si2 0.622952 0.299407 0.700739
Si Si3 0.144644 0.276709 0.451662
Si Si4 0.568610 0.593732 0.841518
Si Si5 0.681565 0.221385 0.366485
O O1 0.291832 0.114535 0.635645
O O2 0.500000 0.000000 0.620040
O O3 0.288584 0.000000 0.500000
O O4 0.237392 0.939778 0.671112
O O5 0.756265 0.323871 0.628973
O O6 0.526696 0.378359 0.750822
O O7 0.491666 0.242753 0.651034
O O8 0.710327 0.245630 0.782852
O O9 0.080661 0.182975 0.405988
O O10 0.260228 0.255656 0.534565
O O11 0.000000 0.321946 0.500000
O O12 0.500000 0.500000 0.882114
#
# Coordination Sequence:
#
# PCOD9332281 Si02
#       5
#     8   8   8   8   8
#     4  11  23  36  63 100 136 169 208 277 353 403
#     4  12  25  40  64  98 134 182 223 270 337 410
#     4  12  23  42  65  96 133 172 219 277 337 402
#     4  12  23  40  65  98 135 172 218 273 343 408
#     4  12  23  41  64  95 139 173 218 272 333 409
#
# _framework density 21.124103000000002
#
# number of rings (size 3 to 8) (size 9 to 14) (size 15 to 20)
#    0.000    0.200    8.000    1.800    2.800    0.000 
#    0.000    0.000    0.000    2.400    0.000    4.200 
#    0.000    0.000    0.000    0.000    0.000    0.000 
#
# Total GULP energy -111616.870442 kJ/mol
# GULP energy per Si atom -5580.843522 kJ/mol
# Density = 2.107602 g / cm^3
# Si number density = 21.124103 Si / 1000 Ang^3
#
#
#
# Elastic Constant Matrix: (Units=GPa)
#
#
# Indices 1 2 3 4 5 6 
#
# 1 148.4681 37.4186 69.9702 0.0000 0.0000 0.0000
# 2 37.4186 34.9994 18.0911 0.0000 0.0000 0.0000
# 3 69.9702 18.0911 111.1848 0.0000 0.0000 0.0000
# 4 0.0000 0.0000 0.0000 14.2626 0.0000 0.0000
# 5 0.0000 0.0000 0.0000 0.0000 66.8031 0.0000
# 6 0.0000 0.0000 0.0000 0.0000 0.0000 37.8192
#
#
#
# Elastic Compliance Matrix: (Units=1/GPa)
#
#
# Indices 1 2 3 4 5 6 
#
# 1 0.012006 -0.009750 -0.005969 0.000000 0.000000 0.000000
# 2 -0.009750 0.039114 -0.000228 0.000000 0.000000 0.000000
# 3 -0.005969 -0.000228 0.012788 0.000000 0.000000 0.000000
# 4 0.000000 0.000000 0.000000 0.070113 0.000000 0.000000
# 5 0.000000 0.000000 0.000000 0.000000 0.014969 0.000000
# 6 0.000000 0.000000 0.000000 0.000000 0.000000 0.026442
#
#
# Mechanical properties :
#
#
# Convention : Reuss Voigt Hill
#
# Bulk Modulus (GPa) = 31.23792 60.62355 45.93073
# Shear Modulus (GPa) = 22.93595 35.05514 28.99554
#
# Velocity S-wave (km/s) = 3.29868 4.07810 3.70892
# Velocity P-wave (km/s) = 5.41556 7.13692 6.33498
#
# Compressibility (1/GPa) = 0.03201237
#
# Stress axis : x y z
#
# Youngs Moduli (GPa) = 83.29201 25.56611 78.20104
#
# Poissons Ratio (x) = 0.24928 0.46678
# Poissons Ratio (y) = 0.81213 0.01785
# Poissons Ratio (z) = 0.49717 0.00584
#
# Static dielectric constant tensor:
#      x y z
#    x 1.874590 0.000000 0.000000 
#    y 0.000000 1.774390 0.000000 
#    z 0.000000 0.000000 1.844130 
# 
# From -- ./inp_files/8203.got.cif
#   From: 2010.05.17/outbox.cif.g08.bks.cpg/sg23_5_cif.got.tgz:8203.got - 2010.06.04 12:02:01.
