data_PCOD9332924
_publ_section_title
;
Structure prediction by ZEFSAII (Michael W. Deem and Ramdas Pophale) SiO2 
 PCOD9332924
Probable space group: I 21 21 21
;
_chemical_formula_sum "Si O2"
_cell_formula_units_Z 48
_cell_length_a 5.551169
_cell_length_b 16.098508
_cell_length_c 25.482693
_cell_angle_alpha 90.000000
_cell_angle_beta 90.000000
_cell_angle_gamma 90.000000
_cell_volume 2277.274584
_symmetry_space_group_name_H-M "I 21 21 21"
_symmetry_group_IT_number 24
_symmetry_cell_setting 'orthorhombic'
loop_
_space_group_symop_operation_xyz
x,y,z
-x,1/2-y,z
x,-y,1/2-z
1/2-x,y,-z
1/2+x,1/2+y,1/2+z
1/2-x,-y,1/2+z
1/2+x,1/2-y,-z
-x,1/2+y,1/2-z
loop_
_atom_site_type_symbol
_atom_site_label
_atom_site_fract_x
_atom_site_fract_y
_atom_site_fract_z
Si Si1 0.750000 0.298970 0.562756
Si Si2 0.750000 0.230540 0.082854
Si Si3 0.249999 0.563921 0.702529
Si Si4 0.750000 0.033621 0.086103
Si Si5 0.250000 0.982247 0.085773
Si Si6 0.249999 0.871341 0.327908
O O1 0.500000 0.250000 0.572846
O O2 0.750000 0.319344 0.500000
O O3 0.750000 0.384426 0.595114
O O4 0.000000 0.250000 0.572846
O O5 0.500000 0.250000 0.055748
O O6 0.750000 0.132800 0.091456
O O7 0.750001 0.290048 0.134694
O O8 0.000000 0.250000 0.055748
O O9 0.249998 0.500000 0.750000
O O10 0.249999 0.510065 0.648063
O O11 0.496709 0.618408 0.702391
O O12 0.003290 0.618408 0.702391
O O13 0.506066 0.002836 0.059820
O O14 0.993933 0.002836 0.059820
O O15 0.249999 0.048041 0.133660
#
# Coordination Sequence:
#
# PCOD9332924 Si02
#       6
#     8   8   8   8   8   8
#     4  10  21  37  57  83 105 132 172 216 267 308
#     4  12  16  30  48  74 110 122 165 223 241 285
#     4  10  18  29  43  68  93 130 173 211 252 296
#     4  10  19  30  50  81 100 134 173 204 262 302
#     4  10  18  32  51  77 103 128 167 211 256 306
#     4  10  19  30  48  77  96 132 173 205 259 303
#
# _framework density 21.077826000000002
#
# number of rings (size 3 to 8) (size 9 to 14) (size 15 to 20)
#    0.000    1.667    6.667    1.500    0.000    0.000 
#    0.000    0.000    0.000    0.000  104.000    4.667 
#    0.000    0.000    0.000    0.000    0.000    0.000 
#
# Total GULP energy -133687.841497 kJ/mol
# GULP energy per Si atom -5570.326729 kJ/mol
# Density = 2.102985 g / cm^3
# Si number density = 21.077826 Si / 1000 Ang^3
#
#
#
# Elastic Constant Matrix: (Units=GPa)
#
#
# Indices 1 2 3 4 5 6 
#
# 1 274.7455 58.1700 28.5447 0.0000 0.0000 0.0000
# 2 58.1700 143.9355 26.2089 0.0000 0.0000 0.0000
# 3 28.5447 26.2089 74.5414 0.0000 0.0000 0.0000
# 4 0.0000 0.0000 0.0000 -85.5755 0.0000 0.0000
# 5 0.0000 0.0000 0.0000 0.0000 112.0448 0.0000
# 6 0.0000 0.0000 0.0000 0.0000 0.0000 41.7587
#
#
#
# Elastic Compliance Matrix: (Units=1/GPa)
#
#
# Indices 1 2 3 4 5 6 
#
# 1 0.004055 -0.001449 -0.001043 0.000000 0.000000 0.000000
# 2 -0.001449 0.007940 -0.002237 0.000000 0.000000 0.000000
# 3 -0.001043 -0.002237 0.014601 0.000000 0.000000 0.000000
# 4 0.000000 0.000000 0.000000 -0.011686 0.000000 0.000000
# 5 0.000000 0.000000 0.000000 0.000000 0.008925 0.000000
# 6 0.000000 0.000000 0.000000 0.000000 0.000000 0.023947
#
#
# Mechanical properties :
#
#
# Convention : Reuss Voigt Hill
#
# Bulk Modulus (GPa) = 58.34874 79.89662 69.12268
# Shear Modulus (GPa) = 79.42248 38.99884 59.21066
#
# Velocity S-wave (km/s) = 6.14511 4.30610 5.30589
# Velocity P-wave (km/s) = 8.83699 7.91904 8.39058
#
# Compressibility (1/GPa) = 0.01713833
#
# Stress axis : x y z
#
# Youngs Moduli (GPa) = 246.61717 125.93831 68.48623
#
# Poissons Ratio (x) = 0.18245 0.07146
# Poissons Ratio (y) = 0.35729 0.15321
# Poissons Ratio (z) = 0.25732 0.28173
#
# Static dielectric constant tensor:
#      x y z
#    x 1.906640 0.000000 0.000000 
#    y 0.000000 1.739550 0.000000 
#    z 0.000000 0.000000 1.749620 
# 
# From -- ./inp_files/36464.got.cif
#   From: 2010.05.17/outbox.cif.g08.bks.cpg/sg24_19_cif.got.tgz:36464.got - 2010.06.04 00:33:39.
