data_PCOD9332039
_publ_section_title
;
Structure prediction by ZEFSAII (Michael W. Deem and Ramdas Pophale) SiO2 
 PCOD9332039
Probable space group: I 2 2 2
;
_chemical_formula_sum "Si O2"
_cell_formula_units_Z 40
_cell_length_a 23.414697
_cell_length_b 6.050979
_cell_length_c 11.680025
_cell_angle_alpha 90.000000
_cell_angle_beta 90.000000
_cell_angle_gamma 90.000000
_cell_volume 1654.847431
_symmetry_space_group_name_H-M "I 2 2 2"
_symmetry_group_IT_number 23
_symmetry_cell_setting 'orthorhombic'
loop_
_space_group_symop_operation_xyz
x,y,z
-x,-y,z
x,-y,-z
-x,y,-z
1/2+x,1/2+y,1/2+z
1/2-x,1/2-y,1/2+z
1/2+x,1/2-y,1/2-z
1/2-x,1/2+y,1/2-z
loop_
_atom_site_type_symbol
_atom_site_label
_atom_site_fract_x
_atom_site_fract_y
_atom_site_fract_z
Si Si1 0.414662 0.151270 0.111300
Si Si2 0.500000 0.500000 0.000000
Si Si3 0.739765 0.165938 0.090204
Si Si4 0.913128 0.658245 0.177083
Si Si5 0.167714 0.987411 0.274802
Si Si6 0.500000 0.000000 0.500000
Si Si7 0.325744 0.000000 0.500000
O O1 0.460504 0.340952 0.078034
O O2 0.359053 0.282110 0.157697
O O3 0.431062 0.980784 0.212306
O O4 0.408850 0.000000 0.000000
O O5 0.692663 0.329648 0.139395
O O6 0.785571 0.292207 0.011964
O O7 0.778524 0.073056 0.194043
O O8 0.713530 0.000000 0.000000
O O9 0.884212 0.891852 0.207515
O O10 0.962609 0.654749 0.082955
O O11 0.863414 0.520586 0.112700
#
# Coordination Sequence:
#
# PCOD9332039 Si02
#       7
#     8   2   8   8   8   2   4
#     4  12  29  52  81 116 165 208 275 344 400 492
#     4  12  30  54  84 114 156 218 266 340 414 488
#     4  12  27  49  77 116 161 216 273 328 400 491
#     4  11  25  50  79 118 159 209 267 339 401 491
#     4  12  28  50  79 119 162 218 270 327 412 482
#     4  10  28  48  88 118 160 206 268 346 420 462
#     4  11  22  48  76 110 162 206 266 335 396 474
#
# _framework density 24.171412
#
# number of rings (size 3 to 8) (size 9 to 14) (size 15 to 20)
#    0.000    0.400    4.000    2.700    5.600    4.800 
#    0.000    1.000    0.000    0.000    0.000    0.000 
#    0.000    0.000    0.000    0.000    0.000    0.000 
#
# Total GULP energy -112097.160248 kJ/mol
# GULP energy per Si atom -5604.858012 kJ/mol
# Density = 2.411640 g / cm^3
# Si number density = 24.171412 Si / 1000 Ang^3
#
#
#
# Elastic Constant Matrix: (Units=GPa)
#
#
# Indices 1 2 3 4 5 6 
#
# 1 102.0977 36.9826 57.4129 0.0000 0.0000 0.0000
# 2 36.9826 98.6601 63.7815 0.0000 0.0000 0.0000
# 3 57.4129 63.7815 163.8633 0.0000 0.0000 0.0000
# 4 0.0000 0.0000 0.0000 55.7392 0.0000 0.0000
# 5 0.0000 0.0000 0.0000 0.0000 23.2368 0.0000
# 6 0.0000 0.0000 0.0000 0.0000 0.0000 41.4855
#
#
#
# Elastic Compliance Matrix: (Units=1/GPa)
#
#
# Indices 1 2 3 4 5 6 
#
# 1 0.012645 -0.002507 -0.003455 0.000000 0.000000 0.000000
# 2 -0.002507 0.014041 -0.004587 0.000000 0.000000 0.000000
# 3 -0.003455 -0.004587 0.009099 0.000000 0.000000 0.000000
# 4 0.000000 0.000000 0.000000 0.017941 0.000000 0.000000
# 5 0.000000 0.000000 0.000000 0.000000 0.043035 0.000000
# 6 0.000000 0.000000 0.000000 0.000000 0.000000 0.024105
#
#
# Mechanical properties :
#
#
# Convention : Reuss Voigt Hill
#
# Bulk Modulus (GPa) = 68.08376 75.66388 71.87382
# Shear Modulus (GPa) = 34.04651 37.85525 35.95088
#
# Velocity S-wave (km/s) = 3.75713 3.96171 3.86078
# Velocity P-wave (km/s) = 6.85927 7.23173 7.04796
#
# Compressibility (1/GPa) = 0.01468779
#
# Stress axis : x y z
#
# Youngs Moduli (GPa) = 79.08084 71.22136 109.90771
#
# Poissons Ratio (x) = 0.17852 0.37972
# Poissons Ratio (y) = 0.19822 0.50414
# Poissons Ratio (z) = 0.27322 0.32669
#
# Static dielectric constant tensor:
#      x y z
#    x 1.925230 0.000000 0.000000 
#    y 0.000000 1.959250 0.000000 
#    z 0.000000 0.000000 1.885320 
# 
# From -- ./inp_files/18529.got.cif
#   From: 2010.05.17/outbox.cif.g08.bks.cpg/sg23_10_cif.got.tgz:18529.got - 2010.06.04 12:02:01.
