data_PCOD9332755
_publ_section_title
;
Structure prediction by ZEFSAII (Michael W. Deem and Ramdas Pophale) SiO2 
 PCOD9332755
Probable space group: I 21 21 21
;
_chemical_formula_sum "Si O2"
_cell_formula_units_Z 44
_cell_length_a 5.332903
_cell_length_b 25.531097
_cell_length_c 15.976980
_cell_angle_alpha 90.000000
_cell_angle_beta 90.000000
_cell_angle_gamma 90.000000
_cell_volume 2175.343536
_symmetry_space_group_name_H-M "I 21 21 21"
_symmetry_group_IT_number 24
_symmetry_cell_setting 'orthorhombic'
loop_
_space_group_symop_operation_xyz
x,y,z
-x,1/2-y,z
x,-y,1/2-z
1/2-x,y,-z
1/2+x,1/2+y,1/2+z
1/2-x,-y,1/2+z
1/2+x,1/2-y,-z
-x,1/2+y,1/2-z
loop_
_atom_site_type_symbol
_atom_site_label
_atom_site_fract_x
_atom_site_fract_y
_atom_site_fract_z
Si Si1 0.202259 0.945701 0.200656
Si Si2 0.500000 0.250000 0.759096
Si Si3 0.502396 0.187008 0.049889
Si Si4 0.706483 0.080723 0.404932
Si Si5 0.704570 0.342668 0.210909
Si Si6 0.898910 0.802177 0.864593
O O1 0.449180 0.937985 0.141074
O O2 0.198673 0.899805 0.270434
O O3 0.947939 0.937447 0.147939
O O4 0.212366 0.000000 0.250000
O O5 0.610620 0.296021 0.815851
O O6 0.689157 0.219790 0.697936
O O7 0.500000 0.250000 0.061350
O O8 0.504299 0.159358 0.140236
O O9 0.250000 0.171864 0.000000
O O10 0.750000 0.172720 0.000000
O O11 0.750000 0.062422 0.500000
O O12 0.692368 0.144734 0.407415
O O13 0.613560 0.322169 0.301342
O O14 0.000000 0.750000 0.912492
#
# Coordination Sequence:
#
# PCOD9332755 Si02
#       6
#     8   4   8   8   8   8
#     4  11  24  45  70  95 124 174 229 270 321 392
#     4  10  16  32  60  88 120 158 216 248 310 382
#     4  10  22  34  51  81 119 159 200 255 326 380
#     4  11  23  44  67 100 134 171 213 274 337 381
#     4  10  21  35  60  85 122 161 215 261 314 386
#     4   9  19  34  56  92 129 169 208 248 312 399
#
# _framework density 20.226689
#
# number of rings (size 3 to 8) (size 9 to 14) (size 15 to 20)
#    0.000    1.818    1.818    2.727    6.364    0.000 
#    1.636    2.727    0.000    0.000    0.000    0.000 
#    0.000    0.000    0.000    0.000    0.000    0.000 
#
# Total GULP energy -122682.425404 kJ/mol
# GULP energy per Si atom -5576.473882 kJ/mol
# Density = 2.018065 g / cm^3
# Si number density = 20.226689 Si / 1000 Ang^3
#
#
#
# Elastic Constant Matrix: (Units=GPa)
#
#
# Indices 1 2 3 4 5 6 
#
# 1 123.5679 54.8108 42.1954 0.0000 0.0000 0.0000
# 2 54.8108 131.6214 51.6183 0.0000 0.0000 0.0000
# 3 42.1954 51.6183 93.4768 -0.0002 0.0000 0.0000
# 4 0.0000 0.0000 -0.0002 -32.1725 0.0000 0.0000
# 5 0.0000 0.0000 0.0000 0.0000 5.6218 0.0000
# 6 0.0000 0.0000 0.0000 0.0000 0.0000 21.5135
#
#
#
# Elastic Compliance Matrix: (Units=1/GPa)
#
#
# Indices 1 2 3 4 5 6 
#
# 1 0.010538 -0.003220 -0.002979 0.000000 0.000000 0.000000
# 2 -0.003220 0.010682 -0.004445 0.000000 0.000000 0.000000
# 3 -0.002979 -0.004445 0.014497 0.000000 0.000000 0.000000
# 4 0.000000 0.000000 0.000000 -0.031082 0.000000 0.000000
# 5 0.000000 0.000000 0.000000 0.000000 0.177879 0.000000
# 6 0.000000 0.000000 0.000000 0.000000 0.000000 0.046482
#
#
# Mechanical properties :
#
#
# Convention : Reuss Voigt Hill
#
# Bulk Modulus (GPa) = 69.30393 71.76833 70.53613
# Shear Modulus (GPa) = 19.60070 12.32867 15.96469
#
# Velocity S-wave (km/s) = 3.11634 2.47153 2.81248
# Velocity P-wave (km/s) = 6.87653 6.61087 6.74501
#
# Compressibility (1/GPa) = 0.01442920
#
# Stress axis : x y z
#
# Youngs Moduli (GPa) = 94.89210 93.61803 68.98018
#
# Poissons Ratio (x) = 0.30147 0.20547
# Poissons Ratio (y) = 0.30558 0.30661
# Poissons Ratio (z) = 0.28266 0.41612
#
# Static dielectric constant tensor:
#      x y z
#    x 1.965130 0.000000 0.000000 
#    y 0.000000 1.735940 0.000000 
#    z 0.000000 0.000000 1.715810 
# 
# From -- ./inp_files/24007.got.cif
#   From: 2010.05.17/outbox.cif.g08.bks.cpg/sg24_13_cif.got.tgz:24007.got - 2010.06.04 00:33:39.
