data_PCOD9332544
_publ_section_title
;
Structure prediction by ZEFSAII (Michael W. Deem and Ramdas Pophale) SiO2 
 PCOD9332544
Probable space group: I 2 2 2
;
_chemical_formula_sum "Si O2"
_cell_formula_units_Z 28
_cell_length_a 5.315534
_cell_length_b 7.581784
_cell_length_c 25.738490
_cell_angle_alpha 90.000000
_cell_angle_beta 90.000000
_cell_angle_gamma 90.000000
_cell_volume 1037.292822
_symmetry_space_group_name_H-M "I 2 2 2"
_symmetry_group_IT_number 23
_symmetry_cell_setting 'orthorhombic'
loop_
_space_group_symop_operation_xyz
x,y,z
-x,-y,z
x,-y,-z
-x,y,-z
1/2+x,1/2+y,1/2+z
1/2-x,1/2-y,1/2+z
1/2+x,1/2-y,1/2-z
1/2-x,1/2+y,1/2-z
loop_
_atom_site_type_symbol
_atom_site_label
_atom_site_fract_x
_atom_site_fract_y
_atom_site_fract_z
Si Si1 0.500000 0.500000 0.758144
Si Si2 0.000000 0.500000 0.628219
Si Si3 0.500000 0.500000 0.000000
Si Si4 0.368343 0.764362 0.427099
Si Si5 0.500000 0.500000 0.500000
Si Si6 0.644091 0.787987 0.320883
O O1 0.497911 0.327886 0.721739
O O2 0.267315 0.461174 0.796049
O O3 0.178042 0.385182 0.591966
O O4 0.140252 0.644737 0.663359
O O5 0.696868 0.397197 0.961209
O O6 0.580608 0.655197 0.459493
O O7 0.500227 0.821424 0.374359
#
# Coordination Sequence:
#
# PCOD9332544 Si02
#       6
#     4   4   2   8   2   8
#     4  12  27  55  86 124 166 230 278 346 448 498
#     4  12  22  55  82 118 166 220 268 355 424 486
#     4  12  32  54  88 132 164 230 292 344 448 490
#     4  12  27  55  83 124 169 219 283 361 416 516
#     4  12  22  56  84 102 170 218 266 334 444 500
#     4  12  27  55  85 121 173 217 288 353 418 517
#
# _framework density 26.993344
#
# number of rings (size 3 to 8) (size 9 to 14) (size 15 to 20)
#    0.000    0.000    5.714    3.429    0.000    1.714 
#   10.286    0.000    0.000    0.000    0.000    0.000 
#    0.000    0.000    0.000    0.000    0.000    0.000 
#
# Total GULP energy -78195.760860 kJ/mol
# GULP energy per Si atom -5585.411490 kJ/mol
# Density = 2.693191 g / cm^3
# Si number density = 26.993344 Si / 1000 Ang^3
#
#
#
# Elastic Constant Matrix: (Units=GPa)
#
#
# Indices 1 2 3 4 5 6 
#
# 1 85.8797 35.8167 63.0411 0.0000 0.0000 0.0000
# 2 35.8167 149.6289 95.0775 0.0000 0.0000 0.0000
# 3 63.0411 95.0775 220.4791 0.0000 0.0000 0.0000
# 4 0.0000 0.0000 0.0000 -76.8763 0.0000 0.0000
# 5 0.0000 0.0000 0.0000 0.0000 56.1994 0.0000
# 6 0.0000 0.0000 0.0000 0.0000 0.0000 62.9324
#
#
#
# Elastic Compliance Matrix: (Units=1/GPa)
#
#
# Indices 1 2 3 4 5 6 
#
# 1 0.014888 -0.001183 -0.003747 0.000000 0.000000 0.000000
# 2 -0.001183 0.009300 -0.003672 0.000000 0.000000 0.000000
# 3 -0.003747 -0.003672 0.007190 0.000000 0.000000 0.000000
# 4 0.000000 0.000000 0.000000 -0.013008 0.000000 0.000000
# 5 0.000000 0.000000 0.000000 0.000000 0.017794 0.000000
# 6 0.000000 0.000000 0.000000 0.000000 0.000000 0.015890
#
#
# Mechanical properties :
#
#
# Convention : Reuss Voigt Hill
#
# Bulk Modulus (GPa) = 70.54956 93.76202 82.15579
# Shear Modulus (GPa) = 67.58379 25.92127 46.75253
#
# Velocity S-wave (km/s) = 5.00915 3.10221 4.16625
# Velocity P-wave (km/s) = 7.72322 6.90233 7.32428
#
# Compressibility (1/GPa) = 0.01417443
#
# Stress axis : x y z
#
# Youngs Moduli (GPa) = 67.16864 107.53061 139.07463
#
# Poissons Ratio (x) = 0.12720 0.52108
# Poissons Ratio (y) = 0.07946 0.51069
# Poissons Ratio (z) = 0.25166 0.39486
#
# Static dielectric constant tensor:
#      x y z
#    x 2.209130 0.000000 0.000000 
#    y 0.000000 2.071140 0.000000 
#    z 0.000000 0.000000 2.189860 
# 
# From -- ./inp_files/640.got.cif
#   From: 2010.05.17/outbox.cif.g08.bks.cpg/sg23_1_cif.got.tgz:640.got - 2010.06.04 12:02:01.
