data_PCOD9332792
_publ_section_title
;
Structure prediction by ZEFSAII (Michael W. Deem and Ramdas Pophale) SiO2 
 PCOD9332792
Probable space group: I 21 21 21
;
_chemical_formula_sum "Si O2"
_cell_formula_units_Z 32
_cell_length_a 15.094716
_cell_length_b 14.044422
_cell_length_c 5.337692
_cell_angle_alpha 90.000000
_cell_angle_beta 90.000000
_cell_angle_gamma 90.000000
_cell_volume 1131.572350
_symmetry_space_group_name_H-M "I 21 21 21"
_symmetry_group_IT_number 24
_symmetry_cell_setting 'orthorhombic'
loop_
_space_group_symop_operation_xyz
x,y,z
-x,1/2-y,z
x,-y,1/2-z
1/2-x,y,-z
1/2+x,1/2+y,1/2+z
1/2-x,-y,1/2+z
1/2+x,1/2-y,-z
-x,1/2+y,1/2-z
loop_
_atom_site_type_symbol
_atom_site_label
_atom_site_fract_x
_atom_site_fract_y
_atom_site_fract_z
Si Si1 0.835315 0.280143 0.740731
Si Si2 0.750000 0.442816 0.000000
Si Si3 0.535182 0.357957 0.603351
Si Si4 0.941677 0.103095 0.900694
Si Si5 0.750000 0.875498 0.500000
O O1 0.911826 0.213488 0.852453
O O2 0.756158 0.201763 0.770172
O O3 0.865037 0.334147 0.488871
O O4 0.824869 0.368961 0.921996
O O5 0.771150 0.500000 0.250000
O O6 0.500000 0.250000 0.619097
O O7 0.486320 0.414581 0.372259
O O8 0.504799 0.403807 0.861703
O O9 0.841595 0.066379 0.976583
#
# Coordination Sequence:
#
# PCOD9332792 Si02
#       5
#     8   4   8   8   4
#     4   8  18  37  46  73 100 141 179 235 253 311
#     4  11  24  38  54  74 102 152 206 234 259 292
#     4  10  17  28  46  69  92 126 179 202 264 325
#     4   9  18  29  46  69  94 132 170 205 264 325
#     4   7  16  32  42  68 100 134 162 208 259 300
#
# _framework density 28.279233999999999
#
# number of rings (size 3 to 8) (size 9 to 14) (size 15 to 20)
#    1.500    1.500    0.000    2.250    0.000    7.000 
#    0.000    0.000    0.000    0.000    0.000    0.000 
#    0.000    0.000    0.000    6.750   13.000    1.250 
#
# Total GULP energy -89137.952954 kJ/mol
# GULP energy per Si atom -5571.122060 kJ/mol
# Density = 2.821487 g / cm^3
# Si number density = 28.279234 Si / 1000 Ang^3
#
#
#
# Elastic Constant Matrix: (Units=GPa)
#
#
# Indices 1 2 3 4 5 6 
#
# 1 86.3123 -8.7865 39.4243 0.0000 0.0000 0.0000
# 2 -8.7865 72.0812 53.1329 0.0000 0.0000 0.0000
# 3 39.4243 53.1329 250.8817 0.0000 0.0000 0.0000
# 4 0.0000 0.0000 0.0000 58.4589 0.0000 0.0000
# 5 0.0000 0.0000 0.0000 0.0000 33.1064 0.0000
# 6 0.0000 0.0000 0.0000 0.0000 0.0000 5.8056
#
#
#
# Elastic Compliance Matrix: (Units=1/GPa)
#
#
# Indices 1 2 3 4 5 6 
#
# 1 0.013282 0.003742 -0.002880 0.000000 0.000000 0.000000
# 2 0.003742 0.017494 -0.004293 0.000000 0.000000 0.000000
# 3 -0.002880 -0.004293 0.005348 0.000000 0.000000 0.000000
# 4 0.000000 0.000000 0.000000 0.017106 0.000000 0.000000
# 5 0.000000 0.000000 0.000000 0.000000 0.030206 0.000000
# 6 0.000000 0.000000 0.000000 0.000000 0.000000 0.172247
#
#
# Mechanical properties :
#
#
# Convention : Reuss Voigt Hill
#
# Bulk Modulus (GPa) = 34.17433 64.09076 49.13254
# Shear Modulus (GPa) = 18.36227 41.17449 29.76838
#
# Velocity S-wave (km/s) = 2.55094 3.81989 3.24799
# Velocity P-wave (km/s) = 4.55930 6.49370 5.61050
#
# Compressibility (1/GPa) = 0.02926173
#
# Stress axis : x y z
#
# Youngs Moduli (GPa) = 75.28971 57.16336 186.99910
#
# Poissons Ratio (x) = -0.21389 0.53848
# Poissons Ratio (y) = -0.28171 0.80277
# Poissons Ratio (z) = 0.21680 0.24540
#
# Static dielectric constant tensor:
#      x y z
#    x 2.414040 0.000000 0.000000 
#    y 0.000000 2.282110 0.000000 
#    z 0.000000 0.000000 2.249280 
# 
# From -- ./inp_files/4383.got.cif
#   From: 2010.05.17/outbox.cif.g08.bks.cpg/sg24_3_cif.got.tgz:4383.got - 2010.06.04 00:33:39.
