data_PCOD9332060
_publ_section_title
;
Structure prediction by ZEFSAII (Michael W. Deem and Ramdas Pophale) SiO2 
 PCOD9332060
Probable space group: I 2 2 2
;
_chemical_formula_sum "Si O2"
_cell_formula_units_Z 54
_cell_length_a 13.926029
_cell_length_b 13.540865
_cell_length_c 12.401796
_cell_angle_alpha 90.000000
_cell_angle_beta 90.000000
_cell_angle_gamma 90.000000
_cell_volume 2338.612608
_symmetry_space_group_name_H-M "I 2 2 2"
_symmetry_group_IT_number 23
_symmetry_cell_setting 'orthorhombic'
loop_
_space_group_symop_operation_xyz
x,y,z
-x,-y,z
x,-y,-z
-x,y,-z
1/2+x,1/2+y,1/2+z
1/2-x,1/2-y,1/2+z
1/2+x,1/2-y,1/2-z
1/2-x,1/2+y,1/2-z
loop_
_atom_site_type_symbol
_atom_site_label
_atom_site_fract_x
_atom_site_fract_y
_atom_site_fract_z
Si Si1 0.396377 0.663623 0.003447
Si Si2 0.132266 0.464908 0.124205
Si Si3 0.647764 0.495427 0.836293
Si Si4 0.141947 0.342237 0.611607
Si Si5 0.961310 0.664403 0.815922
Si Si6 0.000000 0.200434 0.000000
Si Si7 0.155609 0.062297 0.107662
Si Si8 0.500000 0.000000 0.000000
O O1 0.408830 0.580607 0.910829
O O2 0.330380 0.755568 0.972809
O O3 0.500000 0.713532 0.000000
O O4 0.363530 0.603420 0.108524
O O5 0.243902 0.457088 0.146018
O O6 0.092978 0.559992 0.185793
O O7 0.071497 0.370558 0.164027
O O8 0.116232 0.500000 0.000000
O O9 0.623255 0.499104 0.711143
O O10 0.079972 0.290222 0.706898
O O11 0.244850 0.386977 0.643866
O O12 0.072033 0.428104 0.566014
O O13 0.939422 0.731125 0.918777
O O14 0.071041 0.135743 0.072657
O O15 0.176608 0.000000 0.000000
#
# Coordination Sequence:
#
# PCOD9332060 Si02
#       8
#     8   8   8   8   8   4   8   2
#     4  11  26  47  75 106 139 191 249 305 366 442
#     4  11  19  42  71 108 145 188 240 303 372 423
#     4  11  25  47  76 104 150 188 248 308 367 442
#     4  12  27  46  76 109 144 192 248 305 375 440
#     4  11  24  42  69 109 145 187 243 299 360 433
#     4  12  29  45  74 102 156 196 248 299 359 460
#     4  12  30  49  70 104 147 201 237 299 381 442
#     4  12  24  52  72 102 160 176 244 308 372 438
#
# _framework density 23.090615
#
# number of rings (size 3 to 8) (size 9 to 14) (size 15 to 20)
#    0.000    0.593    5.926    2.444    8.296    1.185 
#    0.000    0.000    0.000    0.000    0.000    0.000 
#    0.000    0.000    0.000    0.000    0.000    0.000 
#
# Total GULP energy -150801.042696 kJ/mol
# GULP energy per Si atom -5585.223804 kJ/mol
# Density = 2.303806 g / cm^3
# Si number density = 23.090615 Si / 1000 Ang^3
#
#
#
# Elastic Constant Matrix: (Units=GPa)
#
#
# Indices 1 2 3 4 5 6 
#
# 1 84.5762 -0.8973 12.4668 0.0000 0.0000 0.0000
# 2 -0.8973 50.8009 18.6183 0.0000 0.0000 0.0000
# 3 12.4668 18.6183 137.0432 0.0000 0.0000 0.0000
# 4 0.0000 0.0000 0.0000 38.6404 0.0000 0.0000
# 5 0.0000 0.0000 0.0000 0.0000 28.3271 0.0000
# 6 0.0000 0.0000 0.0000 0.0000 0.0000 15.1308
#
#
#
# Elastic Compliance Matrix: (Units=1/GPa)
#
#
# Indices 1 2 3 4 5 6 
#
# 1 0.012004 0.000644 -0.001180 0.000000 0.000000 0.000000
# 2 0.000644 0.020751 -0.002878 0.000000 0.000000 0.000000
# 3 -0.001180 -0.002878 0.007795 0.000000 0.000000 0.000000
# 4 0.000000 0.000000 0.000000 0.025880 0.000000 0.000000
# 5 0.000000 0.000000 0.000000 0.000000 0.035302 0.000000
# 6 0.000000 0.000000 0.000000 0.000000 0.000000 0.066090
#
#
# Mechanical properties :
#
#
# Convention : Reuss Voigt Hill
#
# Bulk Modulus (GPa) = 29.65215 36.97733 33.31474
# Shear Modulus (GPa) = 26.89767 32.56849 29.73308
#
# Velocity S-wave (km/s) = 3.41673 3.75969 3.59230
# Velocity P-wave (km/s) = 5.33244 5.90727 5.62720
#
# Compressibility (1/GPa) = 0.03372437
#
# Stress axis : x y z
#
# Youngs Moduli (GPa) = 83.30300 48.19102 128.28338
#
# Poissons Ratio (x) = -0.03105 0.15132
# Poissons Ratio (y) = -0.05368 0.36917
# Poissons Ratio (z) = 0.09826 0.13868
#
# Static dielectric constant tensor:
#      x y z
#    x 1.892910 0.000000 0.000000 
#    y 0.000000 1.857850 0.000000 
#    z 0.000000 0.000000 1.985340 
# 
# From -- ./inp_files/16828.got.cif
#   From: 2010.05.17/outbox.cif.g08.bks.cpg/sg23_9_cif.got.tgz:16828.got - 2010.06.04 12:02:01.
