data_PCOD9332877
_publ_section_title
;
Structure prediction by ZEFSAII (Michael W. Deem and Ramdas Pophale) SiO2 
 PCOD9332877
Probable space group: I 21 21 21
;
_chemical_formula_sum "Si O2"
_cell_formula_units_Z 44
_cell_length_a 15.853307
_cell_length_b 14.332425
_cell_length_c 10.786398
_cell_angle_alpha 90.000000
_cell_angle_beta 90.000000
_cell_angle_gamma 90.000000
_cell_volume 2450.845806
_symmetry_space_group_name_H-M "I 21 21 21"
_symmetry_group_IT_number 24
_symmetry_cell_setting 'orthorhombic'
loop_
_space_group_symop_operation_xyz
x,y,z
-x,1/2-y,z
x,-y,1/2-z
1/2-x,y,-z
1/2+x,1/2+y,1/2+z
1/2-x,-y,1/2+z
1/2+x,1/2-y,-z
-x,1/2+y,1/2-z
loop_
_atom_site_type_symbol
_atom_site_label
_atom_site_fract_x
_atom_site_fract_y
_atom_site_fract_z
Si Si1 0.798558 0.471735 0.378993
Si Si2 0.918672 0.056884 0.623706
Si Si3 0.492245 0.037984 0.886292
Si Si4 0.500000 0.750000 0.081839
Si Si5 0.750000 0.113014 0.500000
Si Si6 0.000000 0.750000 0.329349
Si Si7 0.360306 0.768658 0.879242
O O1 0.756956 0.500000 0.250000
O O2 0.750000 0.502606 0.500000
O O3 0.892944 0.513204 0.385056
O O4 0.804802 0.360394 0.372748
O O5 0.820513 0.061124 0.581415
O O6 0.958547 0.160197 0.646517
O O7 0.928863 0.000000 0.750000
O O8 0.965308 0.013536 0.502755
O O9 0.504304 0.149720 0.896127
O O10 0.523360 0.000000 0.750000
O O11 0.425406 0.784787 0.991824
O O12 0.804611 0.179362 0.409858
O O13 0.917940 0.743508 0.241089
#
# Coordination Sequence:
#
# PCOD9332877 Si02
#       7
#     8   8   8   4   4   4   8
#     4  11  21  37  59  92 124 157 205 251 310 360
#     4  11  24  40  63  93 126 161 203 256 309 364
#     4  11  21  40  65  91 120 162 208 252 302 367
#     4   9  18  37  62  86 110 158 214 246 290 364
#     4  10  22  36  62  86 122 164 206 246 296 372
#     4  11  20  35  66  92 114 158 210 260 298 360
#     4  10  17  35  62  87 111 159 215 244 284 364
#
# _framework density 17.952985999999999
#
# number of rings (size 3 to 8) (size 9 to 14) (size 15 to 20)
#    0.000    1.455    6.364    2.182    0.000    3.636 
#    0.000    1.818    2.000    0.000    0.000    0.000 
#    0.000    0.000    0.000    0.000    0.000    0.000 
#
# Total GULP energy -122653.333834 kJ/mol
# GULP energy per Si atom -5575.151538 kJ/mol
# Density = 1.791212 g / cm^3
# Si number density = 17.952986 Si / 1000 Ang^3
#
#
#
# Elastic Constant Matrix: (Units=GPa)
#
#
# Indices 1 2 3 4 5 6 
#
# 1 62.7421 10.3908 44.7003 0.0000 0.0000 0.0000
# 2 10.3908 95.5111 49.8369 0.0000 0.0000 0.0000
# 3 44.7003 49.8369 121.8571 0.0000 0.0000 0.0000
# 4 0.0000 0.0000 0.0000 214.0864 0.0000 0.0000
# 5 0.0000 0.0000 0.0000 0.0000 5.6007 0.0000
# 6 0.0000 0.0000 0.0000 0.0000 0.0000 17.4175
#
#
#
# Elastic Compliance Matrix: (Units=1/GPa)
#
#
# Indices 1 2 3 4 5 6 
#
# 1 0.021970 0.002308 -0.009003 0.000000 0.000000 0.000000
# 2 0.002308 0.013553 -0.006389 0.000000 0.000000 0.000000
# 3 -0.009003 -0.006389 0.014122 0.000000 0.000000 0.000000
# 4 0.000000 0.000000 0.000000 0.004671 0.000000 0.000000
# 5 0.000000 0.000000 0.000000 0.000000 0.178550 0.000000
# 6 0.000000 0.000000 0.000000 0.000000 0.000000 0.057414
#
#
# Mechanical properties :
#
#
# Convention : Reuss Voigt Hill
#
# Bulk Modulus (GPa) = 42.59754 54.44069 48.51912
# Shear Modulus (GPa) = 15.41905 59.09973 37.25939
#
# Velocity S-wave (km/s) = 2.93381 5.74375 4.56058
# Velocity P-wave (km/s) = 5.93760 8.62423 7.40380
#
# Compressibility (1/GPa) = 0.02347553
#
# Stress axis : x y z
#
# Youngs Moduli (GPa) = 45.51613 73.78547 70.81195
#
# Poissons Ratio (x) = -0.17026 0.63752
# Poissons Ratio (y) = -0.10503 0.45244
# Poissons Ratio (z) = 0.40978 0.47143
#
# Static dielectric constant tensor:
#      x y z
#    x 1.357570 0.000000 0.000000 
#    y 0.000000 1.647920 0.000000 
#    z 0.000000 0.000000 1.608970 
# 
# From -- ./inp_files/20706.got.cif
#   From: 2010.05.17/outbox.cif.g08.bks.cpg/sg24_11_cif.got.tgz:20706.got - 2010.06.04 00:33:39.
