data_PCOD9332608
_publ_section_title
;
Structure prediction by ZEFSAII (Michael W. Deem and Ramdas Pophale) SiO2 
 PCOD9332608
Probable space group: I 2 2 2
;
_chemical_formula_sum "Si O2"
_cell_formula_units_Z 22
_cell_length_a 15.436555
_cell_length_b 4.719422
_cell_length_c 11.433967
_cell_angle_alpha 90.000000
_cell_angle_beta 90.000000
_cell_angle_gamma 90.000000
_cell_volume 832.982988
_symmetry_space_group_name_H-M "I 2 2 2"
_symmetry_group_IT_number 23
_symmetry_cell_setting 'orthorhombic'
loop_
_space_group_symop_operation_xyz
x,y,z
-x,-y,z
x,-y,-z
-x,y,-z
1/2+x,1/2+y,1/2+z
1/2-x,1/2-y,1/2+z
1/2+x,1/2-y,1/2-z
1/2-x,1/2+y,1/2-z
loop_
_atom_site_type_symbol
_atom_site_label
_atom_site_fract_x
_atom_site_fract_y
_atom_site_fract_z
Si Si1 0.000000 0.500000 0.000000
Si Si2 0.905913 0.379790 0.662226
Si Si3 0.270670 0.000000 0.000000
Si Si4 0.620322 0.626303 0.327845
O O1 0.060659 0.295821 0.921276
O O2 0.842525 0.289834 0.557312
O O3 0.858947 0.635106 0.731756
O O4 0.000000 0.500000 0.628426
O O5 0.918824 0.131387 0.754655
O O6 0.201308 0.009904 0.104883
#
# Coordination Sequence:
#
# PCOD9332608 Si02
#       4
#     2   8   4   8
#     4  12  28  54  86 126 156 228 282 352 402 490
#     4  12  28  51  80 118 162 215 269 334 415 500
#     4  12  29  51  78 122 166 214 260 353 413 482
#     4  12  28  49  82 118 158 212 279 332 405 488
#
# _framework density 26.411100999999999
#
# number of rings (size 3 to 8) (size 9 to 14) (size 15 to 20)
#    0.000    0.000    1.818    6.000    5.091    8.727 
#    0.000    3.636    0.000    0.000    0.000    0.000 
#    0.000    0.000    0.000    0.000    0.000    0.000 
#
# Total GULP energy -61452.790660 kJ/mol
# GULP energy per Si atom -5586.617333 kJ/mol
# Density = 2.635099 g / cm^3
# Si number density = 26.411101 Si / 1000 Ang^3
#
#
#
# Elastic Constant Matrix: (Units=GPa)
#
#
# Indices 1 2 3 4 5 6 
#
# 1 210.7295 59.2979 112.4918 0.0000 0.0000 0.0000
# 2 59.2979 142.7272 80.9287 0.0000 0.0000 0.0000
# 3 112.4918 80.9287 151.7979 0.0000 0.0000 0.0000
# 4 0.0000 0.0000 0.0000 40.3518 0.0000 0.0000
# 5 0.0000 0.0000 0.0000 0.0000 7.8345 0.0000
# 6 0.0000 0.0000 0.0000 0.0000 0.0000 3.9373
#
#
#
# Elastic Compliance Matrix: (Units=1/GPa)
#
#
# Indices 1 2 3 4 5 6 
#
# 1 0.007852 0.000053 -0.005847 0.000000 0.000000 0.000000
# 2 0.000053 0.010042 -0.005393 0.000000 0.000000 0.000000
# 3 -0.005847 -0.005393 0.013796 0.000000 0.000000 0.000000
# 4 0.000000 0.000000 0.000000 0.024782 0.000000 0.000000
# 5 0.000000 0.000000 0.000000 0.000000 0.127641 0.000000
# 6 0.000000 0.000000 0.000000 0.000000 0.000000 0.253983
#
#
# Mechanical properties :
#
#
# Convention : Reuss Voigt Hill
#
# Bulk Modulus (GPa) = 107.34337 112.29905 109.82121
# Shear Modulus (GPa) = 10.78573 27.26046 19.02310
#
# Velocity S-wave (km/s) = 2.02303 3.21621 2.68669
# Velocity P-wave (km/s) = 6.79620 7.51026 7.16213
#
# Compressibility (1/GPa) = 0.00931590
#
# Stress axis : x y z
#
# Youngs Moduli (GPa) = 127.36132 99.57773 72.48417
#
# Poissons Ratio (x) = -0.00530 0.42381
# Poissons Ratio (y) = -0.00678 0.39094
# Poissons Ratio (z) = 0.74468 0.53706
#
# Static dielectric constant tensor:
#      x y z
#    x 2.059880 0.000000 0.000000 
#    y 0.000000 2.127910 0.000000 
#    z 0.000000 0.000000 2.175690 
# 
# From -- ./inp_files/16243.got.cif
#   From: 2010.05.17/outbox.cif.g08.bks.cpg/sg23_9_cif.got.tgz:16243.got - 2010.06.04 12:02:01.
