data_PCOD9332748
_publ_section_title
;
Structure prediction by ZEFSAII (Michael W. Deem and Ramdas Pophale) SiO2 
 PCOD9332748
Probable space group: I 21 21 21
;
_chemical_formula_sum "Si O2"
_cell_formula_units_Z 48
_cell_length_a 7.130557
_cell_length_b 17.265508
_cell_length_c 16.163869
_cell_angle_alpha 90.000000
_cell_angle_beta 90.000000
_cell_angle_gamma 90.000000
_cell_volume 1989.977376
_symmetry_space_group_name_H-M "I 21 21 21"
_symmetry_group_IT_number 24
_symmetry_cell_setting 'orthorhombic'
loop_
_space_group_symop_operation_xyz
x,y,z
-x,1/2-y,z
x,-y,1/2-z
1/2-x,y,-z
1/2+x,1/2+y,1/2+z
1/2-x,-y,1/2+z
1/2+x,1/2-y,-z
-x,1/2+y,1/2-z
loop_
_atom_site_type_symbol
_atom_site_label
_atom_site_fract_x
_atom_site_fract_y
_atom_site_fract_z
Si Si1 0.000000 0.750000 0.935848
Si Si2 0.223686 0.764673 0.680309
Si Si3 0.461837 0.598768 0.964111
Si Si4 0.424524 0.079164 0.219387
Si Si5 0.961926 0.935281 0.530170
Si Si6 0.750000 0.301915 0.000000
Si Si7 0.237316 0.656270 0.183870
O O1 0.831128 0.779092 0.876995
O O2 0.045095 0.824998 0.991973
O O3 0.260528 0.755147 0.584163
O O4 0.327755 0.702724 0.735889
O O5 0.000000 0.750000 0.692122
O O6 0.228979 0.853707 0.707931
O O7 0.423553 0.613169 0.867319
O O8 0.250000 0.596206 0.000000
O O9 0.540242 0.515653 0.990903
O O10 0.518154 0.064930 0.129583
O O11 0.588944 0.103328 0.284392
O O12 0.336773 0.000000 0.250000
O O13 0.750000 0.929226 0.500000
O O14 0.075438 0.860223 0.502590
#
# Coordination Sequence:
#
# PCOD9332748 Si02
#       7
#     4   8   8   8   8   4   8
#     4  10  16  32  54  84 122 162 216 260 302 392
#     4   9  19  37  60  91 123 160 220 264 319 391
#     4   9  19  33  56  87 120 161 212 255 319 382
#     4  10  17  31  60  88 119 163 215 264 315 385
#     4  10  21  39  62  94 125 164 211 264 330 385
#     4  10  22  42  64  98 124 168 220 268 326 392
#     4  10  18  35  57  87 124 166 216 265 317 393
#
# _framework density 24.120878000000001
#
# number of rings (size 3 to 8) (size 9 to 14) (size 15 to 20)
#    0.000    2.333    2.500    3.000    0.000    0.000 
#   18.000    1.667    0.000   10.000    0.000    0.000 
#    0.000    0.000    0.000    0.000    0.000    0.000 
#
# Total GULP energy -134224.900421 kJ/mol
# GULP energy per Si atom -5592.704184 kJ/mol
# Density = 2.406598 g / cm^3
# Si number density = 24.120878 Si / 1000 Ang^3
#
#
#
# Elastic Constant Matrix: (Units=GPa)
#
#
# Indices 1 2 3 4 5 6 
#
# 1 72.1279 13.1081 16.6731 0.0000 0.0000 0.0000
# 2 13.1081 106.6419 64.3351 0.0000 0.0000 0.0000
# 3 16.6731 64.3351 151.0717 0.0000 0.0000 0.0000
# 4 0.0000 0.0000 0.0000 67.3499 0.0000 0.0000
# 5 0.0000 0.0000 0.0000 0.0000 23.9552 0.0000
# 6 0.0000 0.0000 0.0000 0.0000 0.0000 18.5139
#
#
#
# Elastic Compliance Matrix: (Units=1/GPa)
#
#
# Indices 1 2 3 4 5 6 
#
# 1 0.014320 -0.001086 -0.001118 0.000000 0.000000 0.000000
# 2 -0.001086 0.012702 -0.005289 0.000000 0.000000 0.000000
# 3 -0.001118 -0.005289 0.008995 0.000000 0.000000 0.000000
# 4 0.000000 0.000000 0.000000 0.014848 0.000000 0.000000
# 5 0.000000 0.000000 0.000000 0.000000 0.041745 0.000000
# 6 0.000000 0.000000 0.000000 0.000000 0.000000 0.054013
#
#
# Mechanical properties :
#
#
# Convention : Reuss Voigt Hill
#
# Bulk Modulus (GPa) = 47.54927 57.56379 52.55653
# Shear Modulus (GPa) = 29.65268 37.67881 33.66575
#
# Velocity S-wave (km/s) = 3.50999 3.95661 3.73997
# Velocity P-wave (km/s) = 6.01518 6.69250 6.36286
#
# Compressibility (1/GPa) = 0.02103082
#
# Stress axis : x y z
#
# Youngs Moduli (GPa) = 69.83234 78.73076 111.16996
#
# Poissons Ratio (x) = 0.08547 0.12430
# Poissons Ratio (y) = 0.07581 0.58800
# Poissons Ratio (z) = 0.07808 0.41642
#
# Static dielectric constant tensor:
#      x y z
#    x 1.917080 0.000000 0.000000 
#    y 0.000000 1.987810 0.000000 
#    z 0.000000 0.000000 1.949450 
# 
# From -- ./inp_files/24834.got.cif
#   From: 2010.05.17/outbox.cif.g08.bks.cpg/sg24_13_cif.got.tgz:24834.got - 2010.06.04 00:33:39.
