data_PCOD9332071
_publ_section_title
;
Structure prediction by ZEFSAII (Michael W. Deem and Ramdas Pophale) SiO2 
 PCOD9332071
Probable space group: I 2 2 2
;
_chemical_formula_sum "Si O2"
_cell_formula_units_Z 48
_cell_length_a 5.188780
_cell_length_b 15.974096
_cell_length_c 28.002636
_cell_angle_alpha 90.000000
_cell_angle_beta 90.000000
_cell_angle_gamma 90.000000
_cell_volume 2321.028443
_symmetry_space_group_name_H-M "I 2 2 2"
_symmetry_group_IT_number 23
_symmetry_cell_setting 'orthorhombic'
loop_
_space_group_symop_operation_xyz
x,y,z
-x,-y,z
x,-y,-z
-x,y,-z
1/2+x,1/2+y,1/2+z
1/2-x,1/2-y,1/2+z
1/2+x,1/2-y,1/2-z
1/2-x,1/2+y,1/2-z
loop_
_atom_site_type_symbol
_atom_site_label
_atom_site_fract_x
_atom_site_fract_y
_atom_site_fract_z
Si Si1 0.554746 0.904771 0.930692
Si Si2 0.973556 0.098375 0.678405
Si Si3 0.025035 0.682354 0.855431
Si Si4 0.447958 0.299003 0.551226
Si Si5 0.092799 0.170288 0.217674
Si Si6 0.592900 0.090103 0.183000
O O1 0.835313 0.871398 0.944645
O O2 0.543555 0.903450 0.873174
O O3 0.331695 0.842273 0.947951
O O4 0.500000 0.000000 0.945692
O O5 0.215829 0.129456 0.648249
O O6 0.716755 0.121479 0.649812
O O7 0.963935 0.152426 0.727224
O O8 0.000000 0.000000 0.689734
O O9 0.020498 0.738979 0.902988
O O10 0.023963 0.744125 0.809283
O O11 0.500000 0.256673 0.500000
O O12 0.393400 0.153211 0.207703
O O13 0.892271 0.106116 0.192404
O O14 0.500000 0.000000 0.200726
#
# Coordination Sequence:
#
# PCOD9332071 Si02
#       6
#     8   8   8   8   8   8
#     4  11  22  39  61  92 134 176 211 257 313 368
#     4  12  26  43  67  96 129 168 209 260 322 383
#     4  12  24  45  66  93 131 163 214 268 317 373
#     4  12  25  43  67  92 125 173 222 268 323 379
#     4  12  22  40  65  94 129 172 210 249 304 382
#     4  11  20  34  58  90 132 173 210 247 293 361
#
# _framework density 20.680489000000001
#
# number of rings (size 3 to 8) (size 9 to 14) (size 15 to 20)
#    0.000    0.333    3.333    7.000    0.000    4.667 
#    0.000    0.000    0.000    3.000    0.000    0.000 
#    0.000    0.000    0.000    0.000    0.000    0.000 
#
# Total GULP energy -134289.099370 kJ/mol
# GULP energy per Si atom -5595.379140 kJ/mol
# Density = 2.063342 g / cm^3
# Si number density = 20.680489 Si / 1000 Ang^3
#
#
#
# Elastic Constant Matrix: (Units=GPa)
#
#
# Indices 1 2 3 4 5 6 
#
# 1 80.3529 10.8858 19.8639 0.0000 0.0000 0.0000
# 2 10.8858 71.9258 25.0799 0.0000 0.0000 0.0000
# 3 19.8639 25.0799 111.6471 0.0000 0.0000 0.0000
# 4 0.0000 0.0000 0.0000 -3.7794 0.0000 0.0000
# 5 0.0000 0.0000 0.0000 0.0000 20.0806 0.0000
# 6 0.0000 0.0000 0.0000 0.0000 0.0000 20.4701
#
#
#
# Elastic Compliance Matrix: (Units=1/GPa)
#
#
# Indices 1 2 3 4 5 6 
#
# 1 0.013124 -0.001272 -0.002049 0.000000 0.000000 0.000000
# 2 -0.001272 0.015208 -0.003190 0.000000 0.000000 0.000000
# 3 -0.002049 -0.003190 0.010038 0.000000 0.000000 0.000000
# 4 0.000000 0.000000 0.000000 -0.264594 0.000000 0.000000
# 5 0.000000 0.000000 0.000000 0.000000 0.049799 0.000000
# 6 0.000000 0.000000 0.000000 0.000000 0.000000 0.048852
#
#
# Mechanical properties :
#
#
# Convention : Reuss Voigt Hill
#
# Bulk Modulus (GPa) = 39.45094 41.73168 40.59131
# Shear Modulus (GPa) = -47.12471 21.22736 -12.94868
#
# Velocity S-wave (km/s) = -4.77876 3.20729 -2.50497
# Velocity P-wave (km/s) = 3.36613 5.82569 3.36213
#
# Compressibility (1/GPa) = 0.02534794
#
# Stress axis : x y z
#
# Youngs Moduli (GPa) = 76.19638 65.75484 99.62159
#
# Poissons Ratio (x) = 0.08362 0.20415
# Poissons Ratio (y) = 0.09690 0.31779
# Poissons Ratio (z) = 0.15615 0.20976
#
# Static dielectric constant tensor:
#      x y z
#    x 1.733750 0.000000 0.000000 
#    y 0.000000 1.744950 0.000000 
#    z 0.000000 0.000000 1.741220 
# 
# From -- ./inp_files/28943.got.cif
#   From: 2010.05.17/outbox.cif.g08.bks.cpg/sg23_15_cif.got.tgz:28943.got - 2010.06.04 12:02:01.
