data_PCOD9332386
_publ_section_title
;
Structure prediction by ZEFSAII (Michael W. Deem and Ramdas Pophale) SiO2 
 PCOD9332386
Probable space group: I 2 2 2
;
_chemical_formula_sum "Si O2"
_cell_formula_units_Z 64
_cell_length_a 11.581315
_cell_length_b 15.028434
_cell_length_c 19.037965
_cell_angle_alpha 90.000000
_cell_angle_beta 90.000000
_cell_angle_gamma 90.000000
_cell_volume 3313.539305
_symmetry_space_group_name_H-M "I 2 2 2"
_symmetry_group_IT_number 23
_symmetry_cell_setting 'orthorhombic'
loop_
_space_group_symop_operation_xyz
x,y,z
-x,-y,z
x,-y,-z
-x,y,-z
1/2+x,1/2+y,1/2+z
1/2-x,1/2-y,1/2+z
1/2+x,1/2-y,1/2-z
1/2-x,1/2+y,1/2-z
loop_
_atom_site_type_symbol
_atom_site_label
_atom_site_fract_x
_atom_site_fract_y
_atom_site_fract_z
Si Si1 0.795698 0.830676 0.684194
Si Si2 0.953761 0.900462 0.075377
Si Si3 0.194745 0.248912 0.426377
Si Si4 0.085657 0.766177 0.172762
Si Si5 0.498672 0.605020 0.084516
Si Si6 0.480322 0.898398 0.112235
Si Si7 0.945357 0.593935 0.219680
Si Si8 0.723947 0.811443 0.078165
O O1 0.861407 0.803811 0.754987
O O2 0.890678 0.861195 0.627439
O O3 0.689910 0.896688 0.700507
O O4 0.742171 0.744101 0.647040
O O5 0.815920 0.890768 0.071729
O O6 0.005548 0.839434 0.136074
O O7 0.000000 0.000000 0.084376
O O8 0.000000 0.867361 0.000000
O O9 0.308052 0.248604 0.379447
O O10 0.226825 0.249443 0.508869
O O11 0.110591 0.169412 0.399869
O O12 0.126073 0.342353 0.418153
O O13 0.015300 0.676201 0.187074
O O14 0.500000 0.500000 0.100830
O O15 0.500000 0.612623 0.000000
O O16 0.461530 0.898864 0.196163
O O17 0.595392 0.846197 0.090612
O O18 0.500000 0.000000 0.089276
O O19 0.000000 0.500000 0.197220
#
# Coordination Sequence:
#
# PCOD9332386 Si02
#       8
#     8   8   8   8   8   8   8   8
#     4  12  24  45  68  96 136 180 224 287 341 399
#     4  11  26  44  66 101 139 178 224 275 342 421
#     4  12  23  42  65 101 133 176 220 277 340 408
#     4  12  25  43  68  96 135 181 228 278 342 411
#     4  11  24  43  69 101 133 172 225 285 342 402
#     4  11  24  41  65 100 133 169 222 277 341 409
#     4  11  25  44  67 100 137 178 228 282 338 405
#     4  12  23  41  70  92 137 180 217 279 340 404
#
# _framework density 19.314695
#
# number of rings (size 3 to 8) (size 9 to 14) (size 15 to 20)
#    0.000    0.500    7.500    0.375    3.500    1.500 
#    0.000    0.000    0.000    2.625    0.000    0.000 
#    0.000    0.000    0.000    0.000    0.000    0.000 
#
# Total GULP energy -178709.883502 kJ/mol
# GULP energy per Si atom -5584.683859 kJ/mol
# Density = 1.927073 g / cm^3
# Si number density = 19.314695 Si / 1000 Ang^3
#
#
#
# Elastic Constant Matrix: (Units=GPa)
#
#
# Indices 1 2 3 4 5 6 
#
# 1 115.7538 29.3931 43.9665 0.0000 0.0000 0.0000
# 2 29.3931 86.7722 37.9962 0.0000 0.0000 0.0000
# 3 43.9665 37.9962 110.8118 0.0000 0.0000 0.0000
# 4 0.0000 0.0000 0.0000 27.2115 0.0000 0.0000
# 5 0.0000 0.0000 0.0000 0.0000 30.1488 0.0000
# 6 0.0000 0.0000 0.0000 0.0000 0.0000 31.6741
#
#
#
# Elastic Compliance Matrix: (Units=1/GPa)
#
#
# Indices 1 2 3 4 5 6 
#
# 1 0.010468 -0.002032 -0.003456 0.000000 0.000000 0.000000
# 2 -0.002032 0.013955 -0.003979 0.000000 0.000000 0.000000
# 3 -0.003456 -0.003979 0.011760 0.000000 0.000000 0.000000
# 4 0.000000 0.000000 0.000000 0.036749 0.000000 0.000000
# 5 0.000000 0.000000 0.000000 0.000000 0.033169 0.000000
# 6 0.000000 0.000000 0.000000 0.000000 0.000000 0.031572
#
#
# Mechanical properties :
#
#
# Convention : Reuss Voigt Hill
#
# Bulk Modulus (GPa) = 57.97779 59.56105 58.76942
# Shear Modulus (GPa) = 30.79636 31.27235 31.03436
#
# Velocity S-wave (km/s) = 3.99739 4.02816 4.01281
# Velocity P-wave (km/s) = 7.16855 7.24837 7.20857
#
# Compressibility (1/GPa) = 0.01724798
#
# Stress axis : x y z
#
# Youngs Moduli (GPa) = 95.52954 71.65860 85.03434
#
# Poissons Ratio (x) = 0.14564 0.29392
# Poissons Ratio (y) = 0.19415 0.33832
# Poissons Ratio (z) = 0.33019 0.28511
#
# Static dielectric constant tensor:
#      x y z
#    x 1.679100 0.000000 0.000000 
#    y 0.000000 1.701820 0.000000 
#    z 0.000000 0.000000 1.675790 
# 
# From -- ./inp_files/24429.got.cif
#   From: 2010.05.17/outbox.cif.g08.bks.cpg/sg23_13_cif.got.tgz:24429.got - 2010.06.04 12:02:01.
