data_PCOD9332745
_publ_section_title
;
Structure prediction by ZEFSAII (Michael W. Deem and Ramdas Pophale) SiO2 
 PCOD9332745
Probable space group: I 21 21 21
;
_chemical_formula_sum "Si O2"
_cell_formula_units_Z 60
_cell_length_a 26.638500
_cell_length_b 14.295557
_cell_length_c 8.446947
_cell_angle_alpha 90.000000
_cell_angle_beta 90.000000
_cell_angle_gamma 90.000000
_cell_volume 3216.700429
_symmetry_space_group_name_H-M "I 21 21 21"
_symmetry_group_IT_number 24
_symmetry_cell_setting 'orthorhombic'
loop_
_space_group_symop_operation_xyz
x,y,z
-x,1/2-y,z
x,-y,1/2-z
1/2-x,y,-z
1/2+x,1/2+y,1/2+z
1/2-x,-y,1/2+z
1/2+x,1/2-y,-z
-x,1/2+y,1/2-z
loop_
_atom_site_type_symbol
_atom_site_label
_atom_site_fract_x
_atom_site_fract_y
_atom_site_fract_z
Si Si1 0.457059 0.595938 0.028905
Si Si2 0.368536 0.408804 0.687154
Si Si3 0.352547 0.089678 0.668595
Si Si4 0.567158 0.561858 0.099510
Si Si5 0.100133 0.740780 0.763881
Si Si6 0.500000 0.250000 0.709583
Si Si7 0.903288 0.737526 0.391290
Si Si8 0.191121 0.257518 0.517430
O O1 0.507972 0.541989 0.071625
O O2 0.430403 0.649526 0.175414
O O3 0.412760 0.550059 0.926084
O O4 0.476128 0.674609 0.906320
O O5 0.340624 0.500000 0.750000
O O6 0.389960 0.340079 0.822365
O O7 0.335715 0.337807 0.585217
O O8 0.399514 0.053179 0.560055
O O9 0.368301 0.160630 0.808422
O O10 0.320175 0.154638 0.553131
O O11 0.328122 0.000000 0.750000
O O12 0.584470 0.500000 0.250000
O O13 0.574447 0.670559 0.148413
O O14 0.097417 0.758162 0.578528
O O15 0.158282 0.737238 0.821319
O O16 0.457443 0.210293 0.822595
O O17 0.250000 0.273058 0.500000
#
# Coordination Sequence:
#
# PCOD9332745 Si02
#       8
#     8   8   8   8   8   4   8   8
#     4  10  18  34  50  72 113 153 189 227 273 336
#     4   9  20  38  57  79 115 145 187 237 290 338
#     4  10  20  38  55  80 117 148 188 239 290 336
#     4  11  20  31  49  78 114 154 193 226 272 337
#     4  10  20  35  55  77 111 144 188 243 278 336
#     4  10  16  32  50  70 106 160 196 216 274 334
#     4  10  20  33  54  80 111 156 192 234 281 336
#     4   9  20  42  66  81 106 150 186 234 304 348
#
# _framework density 18.652654999999999
#
# number of rings (size 3 to 8) (size 9 to 14) (size 15 to 20)
#    0.000    2.133    2.667    2.400    1.867    1.600 
#    2.400   10.000    0.000    0.000    0.000    0.000 
#    0.000    0.000    0.000    0.000    0.000    0.000 
#
# Total GULP energy -167114.657452 kJ/mol
# GULP energy per Si atom -5570.488582 kJ/mol
# Density = 1.861020 g / cm^3
# Si number density = 18.652655 Si / 1000 Ang^3
#
#
#
# Elastic Constant Matrix: (Units=GPa)
#
#
# Indices 1 2 3 4 5 6 
#
# 1 73.8984 -10.6771 15.7003 0.0000 0.0000 0.0000
# 2 -10.6771 56.1759 1.1648 0.0000 0.0000 0.0000
# 3 15.7003 1.1648 109.4554 0.0000 0.0000 0.0000
# 4 0.0000 0.0000 0.0000 11.6324 0.0000 0.0000
# 5 0.0000 0.0000 0.0000 0.0000 5.9745 0.0000
# 6 0.0000 0.0000 0.0000 0.0000 0.0000 4.6932
#
#
#
# Elastic Compliance Matrix: (Units=1/GPa)
#
#
# Indices 1 2 3 4 5 6 
#
# 1 0.014378 0.002776 -0.002092 0.000000 0.000000 0.000000
# 2 0.002776 0.018341 -0.000593 0.000000 0.000000 0.000000
# 3 -0.002092 -0.000593 0.009443 0.000000 0.000000 0.000000
# 4 0.000000 0.000000 0.000000 0.085967 0.000000 0.000000
# 5 0.000000 0.000000 0.000000 0.000000 0.167379 0.000000
# 6 0.000000 0.000000 0.000000 0.000000 0.000000 0.213075
#
#
# Mechanical properties :
#
#
# Convention : Reuss Voigt Hill
#
# Bulk Modulus (GPa) = 23.61668 27.98952 25.80310
# Shear Modulus (GPa) = 9.56910 20.01612 14.79261
#
# Velocity S-wave (km/s) = 2.26744 3.27937 2.81918
# Velocity P-wave (km/s) = 4.42084 5.42008 4.94576
#
# Compressibility (1/GPa) = 0.04234296
#
# Stress axis : x y z
#
# Youngs Moduli (GPa) = 69.55250 54.52211 105.90398
#
# Poissons Ratio (x) = -0.15136 0.22154
# Poissons Ratio (y) = -0.19308 0.06284
# Poissons Ratio (z) = 0.14550 0.03235
#
# Static dielectric constant tensor:
#      x y z
#    x 1.659620 0.000000 0.000000 
#    y 0.000000 1.649580 0.000000 
#    z 0.000000 0.000000 1.658220 
# 
# From -- ./inp_files/16504.got.cif
#   From: 2010.05.17/outbox.cif.g08.bks.cpg/sg24_9_cif.got.tgz:16504.got - 2010.06.04 00:33:39.
