data_PCOD9332254
_publ_section_title
;
Structure prediction by ZEFSAII (Michael W. Deem and Ramdas Pophale) SiO2 
 PCOD9332254
Probable space group: I 2 2 2
;
_chemical_formula_sum "Si O2"
_cell_formula_units_Z 34
_cell_length_a 7.162057
_cell_length_b 15.065806
_cell_length_c 13.621202
_cell_angle_alpha 90.000000
_cell_angle_beta 90.000000
_cell_angle_gamma 90.000000
_cell_volume 1469.757136
_symmetry_space_group_name_H-M "I 2 2 2"
_symmetry_group_IT_number 23
_symmetry_cell_setting 'orthorhombic'
loop_
_space_group_symop_operation_xyz
x,y,z
-x,-y,z
x,-y,-z
-x,y,-z
1/2+x,1/2+y,1/2+z
1/2-x,1/2-y,1/2+z
1/2+x,1/2-y,1/2-z
1/2-x,1/2+y,1/2-z
loop_
_atom_site_type_symbol
_atom_site_label
_atom_site_fract_x
_atom_site_fract_y
_atom_site_fract_z
Si Si1 0.810895 0.632666 0.774783
Si Si2 0.693714 0.538340 0.348750
Si Si3 0.500000 0.000000 0.000000
Si Si4 0.773900 0.396978 0.008138
Si Si5 0.242965 0.677934 0.803679
O O1 0.765750 0.539797 0.723496
O O2 0.725609 0.636620 0.883818
O O3 0.750534 0.717793 0.713192
O O4 0.032899 0.642195 0.788593
O O5 0.500000 0.500000 0.390419
O O6 0.856206 0.553138 0.429357
O O7 0.650982 0.624221 0.282101
O O8 0.722697 0.500000 0.000000
O O9 0.697791 0.346320 0.913665
O O10 0.000000 0.391933 0.000000
#
# Coordination Sequence:
#
# PCOD9332254 Si02
#       5
#     8   8   2   8   8
#     4  11  22  42  68 103 144 184 235 293 352 421
#     4  12  25  46  72 103 138 185 237 297 358 428
#     4  12  26  48  72  96 144 190 234 284 376 428
#     4   9  18  37  70  95 130 186 229 279 346 411
#     4  11  22  42  68 103 144 184 235 293 352 421
#
# _framework density 23.133074000000001
#
# number of rings (size 3 to 8) (size 9 to 14) (size 15 to 20)
#    0.000    1.176    4.706    1.765    0.000    1.882 
#    0.000    9.412    0.000    0.000    0.000    0.000 
#    0.000    0.000    0.000    0.000    0.000    0.000 
#
# Total GULP energy -95115.316025 kJ/mol
# GULP energy per Si atom -5595.018590 kJ/mol
# Density = 2.308042 g / cm^3
# Si number density = 23.133074 Si / 1000 Ang^3
#
#
#
# Elastic Constant Matrix: (Units=GPa)
#
#
# Indices 1 2 3 4 5 6 
#
# 1 110.0074 -10.3264 13.3820 0.0000 0.0000 0.0000
# 2 -10.3264 112.2065 50.4472 0.0000 0.0000 0.0000
# 3 13.3820 50.4472 167.8954 0.0000 0.0000 0.0000
# 4 0.0000 0.0000 0.0000 32.6054 0.0000 0.0000
# 5 0.0000 0.0000 0.0000 0.0000 4.3639 0.0000
# 6 0.0000 0.0000 0.0000 0.0000 0.0000 25.2910
#
#
#
# Elastic Compliance Matrix: (Units=1/GPa)
#
#
# Indices 1 2 3 4 5 6 
#
# 1 0.009362 0.001384 -0.001162 0.000000 0.000000 0.000000
# 2 0.001384 0.010509 -0.003268 0.000000 0.000000 0.000000
# 3 -0.001162 -0.003268 0.007031 0.000000 0.000000 0.000000
# 4 0.000000 0.000000 0.000000 0.030670 0.000000 0.000000
# 5 0.000000 0.000000 0.000000 0.000000 0.229152 0.000000
# 6 0.000000 0.000000 0.000000 0.000000 0.000000 0.039540
#
#
# Mechanical properties :
#
#
# Convention : Reuss Voigt Hill
#
# Bulk Modulus (GPa) = 48.05583 55.23498 51.64541
# Shear Modulus (GPa) = 14.73662 34.89249 24.81455
#
# Velocity S-wave (km/s) = 2.52670 3.88795 3.27874
# Velocity P-wave (km/s) = 5.41581 6.63956 6.05866
#
# Compressibility (1/GPa) = 0.02080913
#
# Stress axis : x y z
#
# Youngs Moduli (GPa) = 106.81974 95.15922 142.23562
#
# Poissons Ratio (x) = -0.13170 0.16528
# Poissons Ratio (y) = -0.14784 0.46480
# Poissons Ratio (z) = 0.12412 0.31096
#
# Static dielectric constant tensor:
#      x y z
#    x 1.954800 0.000000 0.000000 
#    y 0.000000 1.781120 0.000000 
#    z 0.000000 0.000000 1.875490 
# 
# From -- ./inp_files/14309.got.cif
#   From: 2010.05.17/outbox.cif.g08.bks.cpg/sg23_8_cif.got.tgz:14309.got - 2010.06.04 12:02:01.
