data_PCOD9332030
_publ_section_title
;
Structure prediction by ZEFSAII (Michael W. Deem and Ramdas Pophale) SiO2 
 PCOD9332030
Probable space group: I 2 2 2
;
_chemical_formula_sum "Si O2"
_cell_formula_units_Z 34
_cell_length_a 20.045576
_cell_length_b 5.887172
_cell_length_c 12.958480
_cell_angle_alpha 90.000000
_cell_angle_beta 90.000000
_cell_angle_gamma 90.000000
_cell_volume 1529.252951
_symmetry_space_group_name_H-M "I 2 2 2"
_symmetry_group_IT_number 23
_symmetry_cell_setting 'orthorhombic'
loop_
_space_group_symop_operation_xyz
x,y,z
-x,-y,z
x,-y,-z
-x,y,-z
1/2+x,1/2+y,1/2+z
1/2-x,1/2-y,1/2+z
1/2+x,1/2-y,1/2-z
1/2-x,1/2+y,1/2-z
loop_
_atom_site_type_symbol
_atom_site_label
_atom_site_fract_x
_atom_site_fract_y
_atom_site_fract_z
Si Si1 0.353363 0.841008 0.761917
Si Si2 0.500000 0.500000 0.500000
Si Si3 0.776953 0.018415 0.879168
Si Si4 0.475813 0.742695 0.881254
Si Si5 0.102082 0.656820 0.899901
O O1 0.290394 0.960288 0.814757
O O2 0.321629 0.674736 0.675782
O O3 0.397203 0.735043 0.853830
O O4 0.404759 0.998043 0.698672
O O5 0.547160 0.345304 0.427569
O O6 0.826116 0.232809 0.879221
O O7 0.760601 0.000000 0.000000
O O8 0.500000 0.500000 0.832717
O O9 0.500000 0.000000 0.853982
O O10 0.500000 0.729299 0.000000
O O11 0.103849 0.500000 0.000000
#
# Coordination Sequence:
#
# PCOD9332030 Si02
#       5
#     8   2   8   8   8
#     4  12  27  48  81 111 158 207 266 329 411 484
#     4  12  26  48  80 110 158 204 268 352 390 488
#     4  12  26  48  77 115 154 205 263 329 397 483
#     4  10  26  52  75 113 156 209 264 323 402 479
#     4  12  25  49  74 114 154 204 264 325 408 478
#
# _framework density 22.233076000000001
#
# number of rings (size 3 to 8) (size 9 to 14) (size 15 to 20)
#    0.000    0.471    5.882    0.353    6.588    3.765 
#   10.588    0.000    0.000    0.000    0.000    0.000 
#    0.000    0.000    0.000    0.000    0.000    0.000 
#
# Total GULP energy -94786.706237 kJ/mol
# GULP energy per Si atom -5575.688602 kJ/mol
# Density = 2.218247 g / cm^3
# Si number density = 22.233076 Si / 1000 Ang^3
#
#
#
# Elastic Constant Matrix: (Units=GPa)
#
#
# Indices 1 2 3 4 5 6 
#
# 1 129.2699 55.9716 64.9119 0.0000 0.0000 0.0000
# 2 55.9716 127.5503 44.6026 0.0000 0.0000 0.0000
# 3 64.9119 44.6026 159.6208 0.0000 0.0000 0.0000
# 4 0.0000 0.0000 0.0000 0.9457 0.0000 0.0000
# 5 0.0000 0.0000 0.0000 0.0000 67.0341 0.0000
# 6 0.0000 0.0000 0.0000 0.0000 0.0000 3.8266
#
#
#
# Elastic Compliance Matrix: (Units=1/GPa)
#
#
# Indices 1 2 3 4 5 6 
#
# 1 0.011058 -0.003635 -0.003481 0.000000 0.000000 0.000000
# 2 -0.003635 0.009884 -0.001284 0.000000 0.000000 0.000000
# 3 -0.003481 -0.001284 0.008039 0.000000 0.000000 0.000000
# 4 0.000000 0.000000 0.000000 1.057467 0.000000 0.000000
# 5 0.000000 0.000000 0.000000 0.000000 0.014918 0.000000
# 6 0.000000 0.000000 0.000000 0.000000 0.000000 0.261330
#
#
# Mechanical properties :
#
#
# Convention : Reuss Voigt Hill
#
# Bulk Modulus (GPa) = 82.09220 83.04592 82.56906
# Shear Modulus (GPa) = 3.61388 31.09158 17.35273
#
# Velocity S-wave (km/s) = 1.27632 3.74363 2.79676
# Velocity P-wave (km/s) = 6.25904 7.49132 6.90273
#
# Compressibility (1/GPa) = 0.01218143
#
# Stress axis : x y z
#
# Youngs Moduli (GPa) = 90.43537 101.17304 124.39168
#
# Poissons Ratio (x) = 0.36777 0.43301
# Poissons Ratio (y) = 0.32874 0.15968
# Poissons Ratio (z) = 0.31480 0.12987
#
# Static dielectric constant tensor:
#      x y z
#    x 1.611530 0.000000 0.000000 
#    y 0.000000 1.860640 0.000000 
#    z 0.000000 0.000000 2.294890 
# 
# From -- ./inp_files/22255.got.cif
#   From: 2010.05.17/outbox.cif.g08.bks.cpg/sg23_12_cif.got.tgz:22255.got - 2010.06.04 12:02:01.
