data_PCOD9332791
_publ_section_title
;
Structure prediction by ZEFSAII (Michael W. Deem and Ramdas Pophale) SiO2 
 PCOD9332791
Probable space group: I 21 21 21
;
_chemical_formula_sum "Si O2"
_cell_formula_units_Z 36
_cell_length_a 13.869540
_cell_length_b 18.431622
_cell_length_c 5.243881
_cell_angle_alpha 90.000000
_cell_angle_beta 90.000000
_cell_angle_gamma 90.000000
_cell_volume 1340.535873
_symmetry_space_group_name_H-M "I 21 21 21"
_symmetry_group_IT_number 24
_symmetry_cell_setting 'orthorhombic'
loop_
_space_group_symop_operation_xyz
x,y,z
-x,1/2-y,z
x,-y,1/2-z
1/2-x,y,-z
1/2+x,1/2+y,1/2+z
1/2-x,-y,1/2+z
1/2+x,1/2-y,-z
-x,1/2+y,1/2-z
loop_
_atom_site_type_symbol
_atom_site_label
_atom_site_fract_x
_atom_site_fract_y
_atom_site_fract_z
Si Si1 0.423804 0.874741 0.004842
Si Si2 0.147887 0.500000 0.250000
Si Si3 0.882208 0.755728 0.677652
Si Si4 0.362106 0.339088 0.670220
Si Si5 0.188896 0.000000 0.250000
Si Si6 0.521692 0.000000 0.250000
O O1 0.360475 0.816547 0.157674
O O2 0.460402 0.928162 0.226800
O O3 0.519556 0.847201 0.856225
O O4 0.370759 0.928036 0.812505
O O5 0.185948 0.417101 0.263609
O O6 0.085999 0.503185 0.503383
O O7 0.849475 0.779042 0.394182
O O8 0.000000 0.750000 0.670112
O O9 0.843469 0.815505 0.878215
O O10 0.250000 0.986124 0.500000
#
# Coordination Sequence:
#
# PCOD9332791 Si02
#       6
#     8   4   8   8   4   4
#     4  10  21  37  54  72 108 141 191 265 290 321
#     4  10  17  28  42  69 106 132 166 203 243 346
#     4  10  19  29  47  75  98 126 174 225 286 353
#     4  10  19  29  48  75  98 134 173 209 288 360
#     4  12  28  42  56  78 104 160 230 258 278 312
#     4  10  19  28  48  67  86 138 176 209 287 318
#
# _framework density 26.854931000000001
#
# number of rings (size 3 to 8) (size 9 to 14) (size 15 to 20)
#    0.000    1.778    0.000    9.333    0.000    8.889 
#    0.000    0.000    0.000    0.000    0.000    0.000 
#    0.000    0.000    0.000    6.000    0.000   88.222 
#
# Total GULP energy -100668.893462 kJ/mol
# GULP energy per Si atom -5592.716303 kJ/mol
# Density = 2.679381 g / cm^3
# Si number density = 26.854931 Si / 1000 Ang^3
#
#
#
# Elastic Constant Matrix: (Units=GPa)
#
#
# Indices 1 2 3 4 5 6 
#
# 1 61.1481 22.0351 49.5382 0.0000 0.0000 0.0000
# 2 22.0351 166.0038 58.9564 0.0000 0.0000 0.0000
# 3 49.5382 58.9564 225.8517 0.0000 0.0000 0.0000
# 4 0.0000 0.0000 0.0000 63.6432 0.0000 0.0000
# 5 0.0000 0.0000 0.0000 0.0000 37.4566 0.0000
# 6 0.0000 0.0000 0.0000 0.0000 0.0000 20.9975
#
#
#
# Elastic Compliance Matrix: (Units=1/GPa)
#
#
# Indices 1 2 3 4 5 6 
#
# 1 0.020108 -0.001215 -0.004093 0.000000 0.000000 0.000000
# 2 -0.001215 0.006713 -0.001486 0.000000 0.000000 0.000000
# 3 -0.004093 -0.001486 0.005713 0.000000 0.000000 0.000000
# 4 0.000000 0.000000 0.000000 0.015713 0.000000 0.000000
# 5 0.000000 0.000000 0.000000 0.000000 0.026698 0.000000
# 6 0.000000 0.000000 0.000000 0.000000 0.000000 0.047625
#
#
# Mechanical properties :
#
#
# Convention : Reuss Voigt Hill
#
# Bulk Modulus (GPa) = 52.78328 79.34032 66.06180
# Shear Modulus (GPa) = 35.09446 45.91773 40.50609
#
# Velocity S-wave (km/s) = 3.61891 4.13951 3.88794
# Velocity P-wave (km/s) = 6.09587 7.24262 6.69385
#
# Compressibility (1/GPa) = 0.01894539
#
# Stress axis : x y z
#
# Youngs Moduli (GPa) = 49.73214 148.96563 175.02960
#
# Poissons Ratio (x) = 0.18105 0.71642
# Poissons Ratio (y) = 0.06044 0.26005
# Poissons Ratio (z) = 0.20356 0.22133
#
# Static dielectric constant tensor:
#      x y z
#    x 2.283790 0.000000 0.000000 
#    y 0.000000 2.181650 0.000000 
#    z 0.000000 0.000000 1.940580 
# 
# From -- ./inp_files/4660.got.cif
#   From: 2010.05.17/outbox.cif.g08.bks.cpg/sg24_3_cif.got.tgz:4660.got - 2010.06.04 00:33:39.
