data_PCOD9332437
_publ_section_title
;
Structure prediction by ZEFSAII (Michael W. Deem and Ramdas Pophale) SiO2 
 PCOD9332437
Probable space group: I 2 2 2
;
_chemical_formula_sum "Si O2"
_cell_formula_units_Z 40
_cell_length_a 5.801902
_cell_length_b 23.845087
_cell_length_c 11.531409
_cell_angle_alpha 90.000000
_cell_angle_beta 90.000000
_cell_angle_gamma 90.000000
_cell_volume 1595.334203
_symmetry_space_group_name_H-M "I 2 2 2"
_symmetry_group_IT_number 23
_symmetry_cell_setting 'orthorhombic'
loop_
_space_group_symop_operation_xyz
x,y,z
-x,-y,z
x,-y,-z
-x,y,-z
1/2+x,1/2+y,1/2+z
1/2-x,1/2-y,1/2+z
1/2+x,1/2-y,1/2-z
1/2-x,1/2+y,1/2-z
loop_
_atom_site_type_symbol
_atom_site_label
_atom_site_fract_x
_atom_site_fract_y
_atom_site_fract_z
Si Si1 0.747821 0.472185 0.182046
Si Si2 0.247933 0.925175 0.940521
Si Si3 0.879524 0.183785 0.376026
Si Si4 0.469381 0.138493 0.372614
Si Si5 0.269364 0.694493 0.329370
O O1 0.500000 0.500000 0.151530
O O2 0.748667 0.458870 0.319456
O O3 0.000000 0.500000 0.154418
O O4 0.788382 0.410771 0.126367
O O5 0.238680 0.858319 0.914492
O O6 0.500000 0.935346 0.000000
O O7 0.000000 0.937748 0.000000
O O8 0.736642 0.126188 0.351034
O O9 0.766677 0.246027 0.387415
O O10 0.000000 0.176542 0.500000
O O11 0.013682 0.191630 0.255715
O O12 0.500000 0.163956 0.500000
O O13 0.421467 0.180546 0.268649
#
# Coordination Sequence:
#
# PCOD9332437 Si02
#       5
#     8   8   8   8   8
#     4  11  27  48  76 105 143 185 247 318 380 444
#     4  11  26  45  74 107 145 190 240 303 372 445
#     4  12  24  41  72 106 149 206 252 303 371 454
#     4  11  25  45  70 103 142 195 247 306 375 450
#     4  11  25  41  68 105 154 192 248 300 362 440
#
# _framework density 25.073115000000001
#
# number of rings (size 3 to 8) (size 9 to 14) (size 15 to 20)
#    0.000    0.800    4.000    1.800   11.200    5.200 
#    0.000    1.000    0.000    0.000    0.000    0.000 
#    0.000    0.000    0.000    0.000    0.000    0.000 
#
# Total GULP energy -111388.282985 kJ/mol
# GULP energy per Si atom -5569.414149 kJ/mol
# Density = 2.501605 g / cm^3
# Si number density = 25.073115 Si / 1000 Ang^3
#
#
#
# Elastic Constant Matrix: (Units=GPa)
#
#
# Indices 1 2 3 4 5 6 
#
# 1 185.3094 86.4506 45.0762 0.0000 0.0000 0.0000
# 2 86.4506 114.2255 36.4605 0.0000 0.0000 0.0000
# 3 45.0762 36.4605 95.9016 0.0000 0.0000 0.0000
# 4 0.0000 0.0000 0.0000 19.2803 0.0000 0.0000
# 5 0.0000 0.0000 0.0000 0.0000 32.1634 0.0000
# 6 0.0000 0.0000 0.0000 0.0000 0.0000 45.8225
#
#
#
# Elastic Compliance Matrix: (Units=1/GPa)
#
#
# Indices 1 2 3 4 5 6 
#
# 1 0.008602 -0.005941 -0.001785 0.000000 0.000000 0.000000
# 2 -0.005941 0.014066 -0.002556 0.000000 0.000000 0.000000
# 3 -0.001785 -0.002556 0.012238 0.000000 0.000000 0.000000
# 4 0.000000 0.000000 0.000000 0.051867 0.000000 0.000000
# 5 0.000000 0.000000 0.000000 0.000000 0.031091 0.000000
# 6 0.000000 0.000000 0.000000 0.000000 0.000000 0.021823
#
#
# Mechanical properties :
#
#
# Convention : Reuss Voigt Hill
#
# Bulk Modulus (GPa) = 69.71324 81.26788 75.49056
# Shear Modulus (GPa) = 30.29743 34.61650 32.45696
#
# Velocity S-wave (km/s) = 3.47992 3.71970 3.60181
# Velocity P-wave (km/s) = 6.63407 7.13659 6.88991
#
# Compressibility (1/GPa) = 0.01434448
#
# Stress axis : x y z
#
# Youngs Moduli (GPa) = 116.25329 71.09090 81.71427
#
# Poissons Ratio (x) = 0.42233 0.14582
# Poissons Ratio (y) = 0.69062 0.20883
# Poissons Ratio (z) = 0.20746 0.18168
#
# Static dielectric constant tensor:
#      x y z
#    x 2.361000 0.000000 0.000000 
#    y 0.000000 2.054170 0.000000 
#    z 0.000000 0.000000 1.948210 
# 
# From -- ./inp_files/1706.got.cif
#   From: 2010.05.17/outbox.cif.g08.bks.cpg/sg23_1_cif.got.tgz:1706.got - 2010.06.04 12:02:01.
