data_PCOD9332171
_publ_section_title
;
Structure prediction by ZEFSAII (Michael W. Deem and Ramdas Pophale) SiO2 
 PCOD9332171
Probable space group: I 2 2 2
;
_chemical_formula_sum "Si O2"
_cell_formula_units_Z 24
_cell_length_a 15.481277
_cell_length_b 7.282333
_cell_length_c 9.400090
_cell_angle_alpha 90.000000
_cell_angle_beta 90.000000
_cell_angle_gamma 90.000000
_cell_volume 1059.764402
_symmetry_space_group_name_H-M "I 2 2 2"
_symmetry_group_IT_number 23
_symmetry_cell_setting 'orthorhombic'
loop_
_space_group_symop_operation_xyz
x,y,z
-x,-y,z
x,-y,-z
-x,y,-z
1/2+x,1/2+y,1/2+z
1/2-x,1/2-y,1/2+z
1/2+x,1/2-y,1/2-z
1/2-x,1/2+y,1/2-z
loop_
_atom_site_type_symbol
_atom_site_label
_atom_site_fract_x
_atom_site_fract_y
_atom_site_fract_z
Si Si1 0.330581 0.146898 0.334019
Si Si2 0.135698 0.996858 0.336544
Si Si3 0.583566 0.231131 0.398773
O O1 0.358740 0.288272 0.215086
O O2 0.340076 0.253626 0.484791
O O3 0.233186 0.077259 0.323412
O O4 0.393839 0.970593 0.338014
O O5 0.107934 0.000000 0.500000
O O6 0.082520 0.122275 0.226456
O O7 0.500000 0.240193 0.500000
#
# Coordination Sequence:
#
# PCOD9332171 Si02
#       3
#     8   8   8
#     4  11  21  42  70 102 147 195 243 296 369 446
#     4  12  23  40  71 112 143 189 253 305 358 442
#     4  11  25  45  70 103 147 199 244 297 378 446
#
# _framework density 22.646543000000001
#
# number of rings (size 3 to 8) (size 9 to 14) (size 15 to 20)
#    0.000    0.667    6.667    3.000    0.000    5.333 
#    0.000    3.333    0.000    8.000    0.000    0.000 
#    0.000    0.000    0.000    0.000    0.000    0.000 
#
# Total GULP energy -67148.817531 kJ/mol
# GULP energy per Si atom -5595.734794 kJ/mol
# Density = 2.259500 g / cm^3
# Si number density = 22.646543 Si / 1000 Ang^3
#
#
#
# Elastic Constant Matrix: (Units=GPa)
#
#
# Indices 1 2 3 4 5 6 
#
# 1 109.9127 56.2782 58.7391 0.0000 0.0000 0.0000
# 2 56.2782 125.9198 100.9990 0.0000 0.0000 0.0000
# 3 58.7391 100.9990 171.7674 0.0000 0.0000 0.0000
# 4 0.0000 0.0000 0.0000 59.2595 0.0000 0.0000
# 5 0.0000 0.0000 0.0000 0.0000 38.4344 0.0000
# 6 0.0000 0.0000 0.0000 0.0000 0.0000 21.2079
#
#
#
# Elastic Compliance Matrix: (Units=1/GPa)
#
#
# Indices 1 2 3 4 5 6 
#
# 1 0.012089 -0.003950 -0.001811 0.000000 0.000000 0.000000
# 2 -0.003950 0.016321 -0.008246 0.000000 0.000000 0.000000
# 3 -0.001811 -0.008246 0.011290 0.000000 0.000000 0.000000
# 4 0.000000 0.000000 0.000000 0.016875 0.000000 0.000000
# 5 0.000000 0.000000 0.000000 0.000000 0.026018 0.000000
# 6 0.000000 0.000000 0.000000 0.000000 0.000000 0.047152
#
#
# Mechanical properties :
#
#
# Convention : Reuss Voigt Hill
#
# Bulk Modulus (GPa) = 85.58053 93.29249 89.43651
# Shear Modulus (GPa) = 30.93021 36.55261 33.74141
#
# Velocity S-wave (km/s) = 3.69966 4.02188 3.86413
# Velocity P-wave (km/s) = 7.49144 7.92791 7.71276
#
# Compressibility (1/GPa) = 0.01168490
#
# Stress axis : x y z
#
# Youngs Moduli (GPa) = 82.72225 61.27109 88.57540
#
# Poissons Ratio (x) = 0.24202 0.16044
# Poissons Ratio (y) = 0.32675 0.73038
# Poissons Ratio (z) = 0.14984 0.50523
#
# Static dielectric constant tensor:
#      x y z
#    x 1.928320 0.000000 0.000000 
#    y 0.000000 1.848140 0.000000 
#    z 0.000000 0.000000 1.840880 
# 
# From -- ./inp_files/6319.got.cif
#   From: 2010.05.17/outbox.cif.g08.bks.cpg/sg23_4_cif.got.tgz:6319.got - 2010.06.04 12:02:01.
