data_PCOD9332304
_publ_section_title
;
Structure prediction by ZEFSAII (Michael W. Deem and Ramdas Pophale) SiO2 
 PCOD9332304
Probable space group: I 2 2 2
;
_chemical_formula_sum "Si O2"
_cell_formula_units_Z 48
_cell_length_a 17.090089
_cell_length_b 9.073370
_cell_length_c 14.241067
_cell_angle_alpha 90.000000
_cell_angle_beta 90.000000
_cell_angle_gamma 90.000000
_cell_volume 2208.286794
_symmetry_space_group_name_H-M "I 2 2 2"
_symmetry_group_IT_number 23
_symmetry_cell_setting 'orthorhombic'
loop_
_space_group_symop_operation_xyz
x,y,z
-x,-y,z
x,-y,-z
-x,y,-z
1/2+x,1/2+y,1/2+z
1/2-x,1/2-y,1/2+z
1/2+x,1/2-y,1/2-z
1/2-x,1/2+y,1/2-z
loop_
_atom_site_type_symbol
_atom_site_label
_atom_site_fract_x
_atom_site_fract_y
_atom_site_fract_z
Si Si1 0.559595 0.750369 0.625602
Si Si2 0.236400 0.238357 0.361293
Si Si3 0.129401 0.032413 0.602557
Si Si4 0.270868 0.763440 0.356187
Si Si5 0.500000 0.500000 0.243432
Si Si6 0.404114 0.851603 0.561390
Si Si7 0.753739 0.500000 0.500000
O O1 0.641163 0.828590 0.653082
O O2 0.547249 0.609190 0.689399
O O3 0.477088 0.837032 0.631421
O O4 0.577092 0.724490 0.515338
O O5 0.255238 0.261477 0.251875
O O6 0.317601 0.174366 0.402605
O O7 0.212552 0.377299 0.426575
O O8 0.167805 0.119320 0.362695
O O9 0.203598 0.141448 0.593855
O O10 0.062750 0.079352 0.675505
O O11 0.096115 0.000000 0.500000
O O12 0.278872 0.612620 0.417243
O O13 0.410228 0.000000 0.500000
#
# Coordination Sequence:
#
# PCOD9332304 Si02
#       7
#     8   8   8   8   4   8   4
#     4  11  23  41  64 103 142 177 239 299 370 439
#     4  12  24  45  73 107 144 193 250 304 377 450
#     4  12  24  48  72  97 144 193 246 299 373 442
#     4  12  25  43  74 108 145 196 249 311 373 456
#     4  12  27  43  72 106 136 192 250 307 367 450
#     4  11  24  41  68 101 147 190 226 298 385 445
#     4  12  26  44  71 109 144 188 250 316 364 439
#
# _framework density 21.736308999999999
#
# number of rings (size 3 to 8) (size 9 to 14) (size 15 to 20)
#    0.000    0.333    5.000    4.750    2.333    2.000 
#    0.000    1.667    0.000    1.000    0.000    0.000 
#    0.000    0.000    0.000    0.000    0.000    0.000 
#
# Total GULP energy -133618.179284 kJ/mol
# GULP energy per Si atom -5567.424137 kJ/mol
# Density = 2.168684 g / cm^3
# Si number density = 21.736309 Si / 1000 Ang^3
#
#
#
# Elastic Constant Matrix: (Units=GPa)
#
#
# Indices 1 2 3 4 5 6 
#
# 1 115.0339 15.1562 22.1530 0.0000 0.0000 0.0000
# 2 15.1562 67.0798 26.0157 0.0000 0.0000 0.0000
# 3 22.1530 26.0157 124.3865 0.0000 0.0000 0.0000
# 4 0.0000 0.0000 0.0000 25.4309 0.0000 0.0000
# 5 0.0000 0.0000 0.0000 0.0000 46.7594 0.0000
# 6 0.0000 0.0000 0.0000 0.0000 0.0000 22.9433
#
#
#
# Elastic Compliance Matrix: (Units=1/GPa)
#
#
# Indices 1 2 3 4 5 6 
#
# 1 0.009150 -0.001562 -0.001303 0.000000 0.000000 0.000000
# 2 -0.001562 0.016490 -0.003171 0.000000 0.000000 0.000000
# 3 -0.001303 -0.003171 0.008935 0.000000 0.000000 0.000000
# 4 0.000000 0.000000 0.000000 0.039322 0.000000 0.000000
# 5 0.000000 0.000000 0.000000 0.000000 0.021386 0.000000
# 6 0.000000 0.000000 0.000000 0.000000 0.000000 0.043586
#
#
# Mechanical properties :
#
#
# Convention : Reuss Voigt Hill
#
# Bulk Modulus (GPa) = 44.43777 48.12779 46.28278
# Shear Modulus (GPa) = 31.55742 35.23840 33.39791
#
# Velocity S-wave (km/s) = 3.81442 4.03075 3.92408
# Velocity P-wave (km/s) = 6.31571 6.62211 6.47072
#
# Compressibility (1/GPa) = 0.02250338
#
# Stress axis : x y z
#
# Youngs Moduli (GPa) = 109.29207 60.64177 111.92349
#
# Poissons Ratio (x) = 0.09472 0.14582
# Poissons Ratio (y) = 0.17072 0.35489
# Poissons Ratio (z) = 0.14239 0.19228
#
# Static dielectric constant tensor:
#      x y z
#    x 1.857790 0.000000 0.000000 
#    y 0.000000 1.868150 0.000000 
#    z 0.000000 0.000000 1.896600 
# 
# From -- ./inp_files/22050.got.cif
#   From: 2010.05.17/outbox.cif.g08.bks.cpg/sg23_12_cif.got.tgz:22050.got - 2010.06.04 12:02:01.
