data_PCOD9332541
_publ_section_title
;
Structure prediction by ZEFSAII (Michael W. Deem and Ramdas Pophale) SiO2 
 PCOD9332541
Probable space group: I 2 2 2
;
_chemical_formula_sum "Si O2"
_cell_formula_units_Z 38
_cell_length_a 25.804344
_cell_length_b 6.540798
_cell_length_c 10.408831
_cell_angle_alpha 90.000000
_cell_angle_beta 90.000000
_cell_angle_gamma 90.000000
_cell_volume 1756.812922
_symmetry_space_group_name_H-M "I 2 2 2"
_symmetry_group_IT_number 23
_symmetry_cell_setting 'orthorhombic'
loop_
_space_group_symop_operation_xyz
x,y,z
-x,-y,z
x,-y,-z
-x,y,-z
1/2+x,1/2+y,1/2+z
1/2-x,1/2-y,1/2+z
1/2+x,1/2-y,1/2-z
1/2-x,1/2+y,1/2-z
loop_
_atom_site_type_symbol
_atom_site_label
_atom_site_fract_x
_atom_site_fract_y
_atom_site_fract_z
Si Si1 0.708493 0.582019 0.357439
Si Si2 0.824698 0.719053 0.326221
Si Si3 0.621607 0.083824 0.644068
Si Si4 0.454642 0.336118 0.196819
Si Si5 0.125359 0.000000 0.500000
Si Si6 0.000000 0.500000 0.500000
O O1 0.700633 0.500000 0.500000
O O2 0.769398 0.610089 0.334801
O O3 0.686688 0.421268 0.256363
O O4 0.674548 0.785786 0.349548
O O5 0.868175 0.589757 0.251669
O O6 0.841678 0.799483 0.466129
O O7 0.573121 0.224581 0.684416
O O8 0.615585 0.000000 0.500000
O O9 0.500000 0.500000 0.225687
O O10 0.411007 0.461833 0.120992
O O11 0.471367 0.157685 0.096659
#
# Coordination Sequence:
#
# PCOD9332541 Si02
#       6
#     8   8   8   8   4   2
#     4  12  26  44  69 104 156 198 246 302 352 453
#     4  12  27  43  71 113 148 199 247 297 371 438
#     4  12  27  48  75 104 151 203 243 298 375 446
#     4  12  26  48  78 109 140 187 250 323 375 442
#     4  12  25  46  74 108 144 184 246 315 374 432
#     4  12  22  48  82 106 144 172 242 322 396 434
#
# _framework density 21.630075999999999
#
# number of rings (size 3 to 8) (size 9 to 14) (size 15 to 20)
#    0.000    0.000    8.421    1.263    7.368    0.000 
#    0.000    0.526    4.632    0.000    0.000    0.000 
#    0.000    0.000    0.000    0.000    0.000    0.000 
#
# Total GULP energy -106273.436824 kJ/mol
# GULP energy per Si atom -5593.338780 kJ/mol
# Density = 2.158085 g / cm^3
# Si number density = 21.630076 Si / 1000 Ang^3
#
#
#
# Elastic Constant Matrix: (Units=GPa)
#
#
# Indices 1 2 3 4 5 6 
#
# 1 120.3390 53.5531 38.8995 0.0000 0.0000 0.0000
# 2 53.5531 92.2587 24.7239 0.0000 0.0000 0.0000
# 3 38.8995 24.7239 60.1724 0.0000 0.0000 0.0000
# 4 0.0000 0.0000 0.0000 52.2783 0.0000 0.0000
# 5 0.0000 0.0000 0.0000 0.0000 47.7544 0.0000
# 6 0.0000 0.0000 0.0000 0.0000 0.0000 94.2269
#
#
#
# Elastic Compliance Matrix: (Units=1/GPa)
#
#
# Indices 1 2 3 4 5 6 
#
# 1 0.012821 -0.005867 -0.005878 0.000000 0.000000 0.000000
# 2 -0.005867 0.014865 -0.002315 0.000000 0.000000 0.000000
# 3 -0.005878 -0.002315 0.021370 0.000000 0.000000 0.000000
# 4 0.000000 0.000000 0.000000 0.019128 0.000000 0.000000
# 5 0.000000 0.000000 0.000000 0.000000 0.020940 0.000000
# 6 0.000000 0.000000 0.000000 0.000000 0.000000 0.010613
#
#
# Mechanical properties :
#
#
# Convention : Reuss Voigt Hill
#
# Bulk Modulus (GPa) = 47.76346 56.34703 52.05525
# Shear Modulus (GPa) = 37.08245 49.22483 43.15364
#
# Velocity S-wave (km/s) = 4.14501 4.77567 4.47147
# Velocity P-wave (km/s) = 6.71104 7.51773 7.12581
#
# Compressibility (1/GPa) = 0.02093651
#
# Stress axis : x y z
#
# Youngs Moduli (GPa) = 77.99934 67.27209 46.79507
#
# Poissons Ratio (x) = 0.39468 0.27504
# Poissons Ratio (y) = 0.45761 0.10833
# Poissons Ratio (z) = 0.45844 0.15574
#
# Static dielectric constant tensor:
#      x y z
#    x 1.784600 0.000000 0.000000 
#    y 0.000000 1.827890 0.000000 
#    z 0.000000 0.000000 1.592610 
# 
# From -- ./inp_files/13919.got.cif
#   From: 2010.05.17/outbox.cif.g08.bks.cpg/sg23_7_cif.got.tgz:13919.got - 2010.06.04 12:02:01.
