data_PCOD9332628
_publ_section_title
;
Structure prediction by ZEFSAII (Michael W. Deem and Ramdas Pophale) SiO2 
 PCOD9332628
Probable space group: I 2 2 2
;
_chemical_formula_sum "Si O2"
_cell_formula_units_Z 29
_cell_length_a 18.000000
_cell_length_b 18.000000
_cell_length_c 9.000000
_cell_angle_alpha 90.000000
_cell_angle_beta 90.000000
_cell_angle_gamma 90.000000
_cell_volume 2916.000000
_symmetry_space_group_name_H-M "I 2 2 2"
_symmetry_group_IT_number 23
_symmetry_cell_setting 'orthorhombic'
loop_
_space_group_symop_operation_xyz
x,y,z
-x,-y,z
x,-y,-z
-x,y,-z
1/2+x,1/2+y,1/2+z
1/2-x,1/2-y,1/2+z
1/2+x,1/2-y,1/2-z
1/2-x,1/2+y,1/2-z
loop_
_atom_site_type_symbol
_atom_site_label
_atom_site_fract_x
_atom_site_fract_y
_atom_site_fract_z
Si Si1 0.344912 0.363245 0.714354
Si Si2 0.576942 0.656623 0.421641
Si Si3 0.808648 0.277338 0.623689
Si Si4 0.313043 0.087819 0.334981
Si Si5 0.214509 0.422531 0.184130
Si Si6 0.000000 0.000000 0.500000
Si Si7 0.653244 0.769193 0.225348
Si Si8 0.887324 0.971887 0.732621
O O1 0.359779 0.338295 0.547065
O O2 0.359028 0.289763 0.810995
O O3 0.261310 0.391058 0.743939
O O4 0.389187 0.438908 0.750275
O O5 0.500000 0.675750 0.500000
O O6 0.594923 0.707547 0.279318
O O7 0.580589 0.571462 0.371773
O O8 0.813863 0.358108 0.704806
O O9 0.726633 0.252591 0.679074
O O10 0.823887 0.274453 0.447472
O O11 0.295541 0.098142 0.510269
O O12 0.371025 0.149259 0.281484
O O13 0.327277 0.001638 0.301069
O O14 0.302738 0.442119 0.206965
O O15 0.057135 0.953307 0.400774
#
# Coordination Sequence:
#
# PCOD9332628 Si02
#       8
#     8   8   8   8   8   2   8   8
#     4  10  21  38  57  81 116 157 206 254 305 355
#     4  12  25  40  56  81 120 167 211 252 290 363
#     4  11  21  36  61  87 117 156 197 263 320 367
#     4   9  19  34  59  88 119 153 190 253 316 375
#     4  10  19  35  59  90 120 152 197 252 321 375
#     4  12  24  36  54  84 116 180 208 260 266 356
#     4  11  22  36  56  85 117 156 203 251 315 367
#     4  11  23  36  58  80 123 164 218 246 297 352
#
# _framework density 9.9451300000000007
#
# number of rings (size 3 to 8) (size 9 to 14) (size 15 to 20)
#    0.000    1.379    1.379    7.034    1.931    1.103 
#    0.000    0.000    0.000    0.000    0.000    7.724 
#    0.000    6.621    0.000    0.000    0.000    0.000 
#
# Total GULP energy -161668.826014 kJ/mol
# GULP energy per Si atom -5574.787104 kJ/mol
# Density = 0.992249 g / cm^3
# Si number density = 9.945130 Si / 1000 Ang^3
#
#
#
# Elastic Constant Matrix: (Units=GPa)
#
#
# Indices 1 2 3 4 5 6 
#
# 1 25.3624 32.2521 32.8844 0.0000 0.0000 0.0000
# 2 32.2521 167.0587 76.5949 0.0000 0.0000 0.0000
# 3 32.8844 76.5949 154.7003 0.0000 0.0000 0.0000
# 4 0.0000 0.0000 0.0000 41.0935 0.0000 0.0000
# 5 0.0000 0.0000 0.0000 0.0000 23.8153 0.0000
# 6 0.0000 0.0000 0.0000 0.0000 0.0000 11.2512
#
#
#
# Elastic Compliance Matrix: (Units=1/GPa)
#
#
# Indices 1 2 3 4 5 6 
#
# 1 0.060986 -0.007542 -0.009229 0.000000 0.000000 0.000000
# 2 -0.007542 0.008677 -0.002693 0.000000 0.000000 0.000000
# 3 -0.009229 -0.002693 0.009759 0.000000 0.000000 0.000000
# 4 0.000000 0.000000 0.000000 0.024335 0.000000 0.000000
# 5 0.000000 0.000000 0.000000 0.000000 0.041990 0.000000
# 6 0.000000 0.000000 0.000000 0.000000 0.000000 0.088879
#
#
# Mechanical properties :
#
#
# Convention : Reuss Voigt Hill
#
# Bulk Modulus (GPa) = 24.69550 70.06492 47.38021
# Shear Modulus (GPa) = 17.41843 28.92466 23.17155
#
# Velocity S-wave (km/s) = 2.96248 3.81755 3.41687
# Velocity P-wave (km/s) = 4.91371 7.39823 6.28006
#
# Compressibility (1/GPa) = 0.04049321
#
# Stress axis : x y z
#
# Youngs Moduli (GPa) = 16.39714 115.25262 102.46744
#
# Poissons Ratio (x) = 0.86927 0.94572
# Poissons Ratio (y) = 0.12367 0.27591
# Poissons Ratio (z) = 0.15134 0.31034
#
# Static dielectric constant tensor:
#      x y z
#    x 1.718380 0.000000 0.000000 
#    y 0.000000 1.821860 0.000000 
#    z 0.000000 0.000000 1.751240 
# 
# From -- ./inp_files/11282.got.cif
#   From: 2010.05.17/outbox.ucp.g08.bks.cvg/sg23_6_cif.got.tgz:11282.got - 2010.06.11 15:19:07.
