data_PCOD9332334
_publ_section_title
;
Structure prediction by ZEFSAII (Michael W. Deem and Ramdas Pophale) SiO2 
 PCOD9332334
Probable space group: I 2 2 2
;
_chemical_formula_sum "Si O2"
_cell_formula_units_Z 28
_cell_length_a 13.005502
_cell_length_b 8.815880
_cell_length_c 9.438091
_cell_angle_alpha 90.000000
_cell_angle_beta 90.000000
_cell_angle_gamma 90.000000
_cell_volume 1082.123804
_symmetry_space_group_name_H-M "I 2 2 2"
_symmetry_group_IT_number 23
_symmetry_cell_setting 'orthorhombic'
loop_
_space_group_symop_operation_xyz
x,y,z
-x,-y,z
x,-y,-z
-x,y,-z
1/2+x,1/2+y,1/2+z
1/2-x,1/2-y,1/2+z
1/2+x,1/2-y,1/2-z
1/2-x,1/2+y,1/2-z
loop_
_atom_site_type_symbol
_atom_site_label
_atom_site_fract_x
_atom_site_fract_y
_atom_site_fract_z
Si Si1 0.500000 0.716530 0.000000
Si Si2 0.375941 0.588030 0.736230
Si Si3 0.316205 0.279479 0.817231
Si Si4 0.500000 0.229958 0.500000
Si Si5 0.832143 0.500000 0.000000
O O1 0.435224 0.624871 0.881868
O O2 0.591575 0.793171 0.909621
O O3 0.636778 0.591381 0.715269
O O4 0.263122 0.660657 0.744218
O O5 0.436928 0.670462 0.611476
O O6 0.242560 0.388779 0.913223
O O7 0.585161 0.116893 0.428849
#
# Coordination Sequence:
#
# PCOD9332334 Si02
#       5
#     4   8   8   4   4
#     4  12  25  48  75  98 143 196 229 274 365 432
#     4  11  24  44  74 100 138 182 235 283 350 414
#     4  11  23  43  72 100 136 183 232 284 342 422
#     4   9  22  40  73  96 134 179 237 286 336 405
#     4   9  18  41  68  94 132 187 224 267 350 428
#
# _framework density 25.875042000000001
#
# number of rings (size 3 to 8) (size 9 to 14) (size 15 to 20)
#    0.000    1.429    2.857    1.714    4.000    0.000 
#    0.000   11.429    0.000    0.000    0.000    0.000 
#    0.000    0.000    0.000    0.000    0.000    0.000 
#
# Total GULP energy -78304.376450 kJ/mol
# GULP energy per Si atom -5593.169746 kJ/mol
# Density = 2.581615 g / cm^3
# Si number density = 25.875042 Si / 1000 Ang^3
#
#
#
# Elastic Constant Matrix: (Units=GPa)
#
#
# Indices 1 2 3 4 5 6 
#
# 1 238.1861 44.5757 65.8514 0.0000 0.0000 0.0000
# 2 44.5757 56.4344 30.4852 0.0000 0.0000 0.0000
# 3 65.8514 30.4852 109.0561 0.0000 0.0000 0.0000
# 4 0.0000 0.0000 0.0000 25.8853 0.0000 0.0000
# 5 0.0000 0.0000 0.0000 0.0000 74.7063 0.0000
# 6 0.0000 0.0000 0.0000 0.0000 0.0000 60.2393
#
#
#
# Elastic Compliance Matrix: (Units=1/GPa)
#
#
# Indices 1 2 3 4 5 6 
#
# 1 0.005431 -0.002966 -0.002450 0.000000 0.000000 0.000000
# 2 -0.002966 0.022491 -0.004496 0.000000 0.000000 0.000000
# 3 -0.002450 -0.004496 0.011906 0.000000 0.000000 0.000000
# 4 0.000000 0.000000 0.000000 0.038632 0.000000 0.000000
# 5 0.000000 0.000000 0.000000 0.000000 0.013386 0.000000
# 6 0.000000 0.000000 0.000000 0.000000 0.000000 0.016600
#
#
# Mechanical properties :
#
#
# Convention : Reuss Voigt Hill
#
# Bulk Modulus (GPa) = 49.99194 76.16682 63.07938
# Shear Modulus (GPa) = 37.05382 49.68379 43.36880
#
# Velocity S-wave (km/s) = 3.78832 4.38670 4.09844
# Velocity P-wave (km/s) = 6.20465 7.42683 6.84308
#
# Compressibility (1/GPa) = 0.02000322
#
# Stress axis : x y z
#
# Youngs Moduli (GPa) = 184.13126 44.46171 83.99175
#
# Poissons Ratio (x) = 0.13188 0.20580
# Poissons Ratio (y) = 0.54616 0.37764
# Poissons Ratio (z) = 0.45116 0.19990
#
# Static dielectric constant tensor:
#      x y z
#    x 2.072130 0.000000 0.000000 
#    y 0.000000 1.982830 0.000000 
#    z 0.000000 0.000000 2.101180 
# 
# From -- ./inp_files/7776.got.cif
#   From: 2010.05.17/outbox.cif.g08.bks.cpg/sg23_4_cif.got.tgz:7776.got - 2010.06.04 12:02:01.
