data_PCOD9332349
_publ_section_title
;
Structure prediction by ZEFSAII (Michael W. Deem and Ramdas Pophale) SiO2 
 PCOD9332349
Probable space group: I 2 2 2
;
_chemical_formula_sum "Si O2"
_cell_formula_units_Z 28
_cell_length_a 9.709816
_cell_length_b 11.919963
_cell_length_c 10.962078
_cell_angle_alpha 90.000000
_cell_angle_beta 90.000000
_cell_angle_gamma 90.000000
_cell_volume 1268.758005
_symmetry_space_group_name_H-M "I 2 2 2"
_symmetry_group_IT_number 23
_symmetry_cell_setting 'orthorhombic'
loop_
_space_group_symop_operation_xyz
x,y,z
-x,-y,z
x,-y,-z
-x,y,-z
1/2+x,1/2+y,1/2+z
1/2-x,1/2-y,1/2+z
1/2+x,1/2-y,1/2-z
1/2-x,1/2+y,1/2-z
loop_
_atom_site_type_symbol
_atom_site_label
_atom_site_fract_x
_atom_site_fract_y
_atom_site_fract_z
Si Si1 0.763093 0.417726 0.116840
Si Si2 0.000000 0.000000 0.765914
Si Si3 0.000000 0.500000 0.710501
Si Si4 0.635840 0.313909 0.555103
Si Si5 0.693850 0.000000 0.000000
O O1 0.622131 0.450687 0.183296
O O2 0.763506 0.286101 0.087521
O O3 0.897159 0.432581 0.203424
O O4 0.778964 0.500000 0.000000
O O5 0.924687 0.901156 0.844637
O O6 0.105644 0.551385 0.610680
O O7 0.500000 0.258087 0.500000
O O8 0.711161 0.396891 0.459831
#
# Coordination Sequence:
#
# PCOD9332349 Si02
#       5
#     8   4   4   8   4
#     4  12  28  47  71 109 152 195 243 308 376 440
#     4  12  26  50  70 112 148 201 253 298 380 444
#     4  11  23  46  70 106 139 187 250 290 362 441
#     4  12  23  47  77 106 148 194 247 315 362 446
#     4  11  23  44  74 109 138 189 252 297 364 435
#
# _framework density 22.068826000000001
#
# number of rings (size 3 to 8) (size 9 to 14) (size 15 to 20)
#    0.000    0.286    5.714    2.571    4.000    4.571 
#    5.143    0.000    0.000    0.000    0.000    0.000 
#    0.000    0.000    0.000    0.000    0.000    0.000 
#
# Total GULP energy -78053.306226 kJ/mol
# GULP energy per Si atom -5575.236159 kJ/mol
# Density = 2.201860 g / cm^3
# Si number density = 22.068826 Si / 1000 Ang^3
#
#
#
# Elastic Constant Matrix: (Units=GPa)
#
#
# Indices 1 2 3 4 5 6 
#
# 1 129.3972 57.3183 39.4415 0.0000 0.0000 0.0000
# 2 57.3183 153.5457 56.9139 0.0000 0.0000 0.0000
# 3 39.4415 56.9139 100.6242 0.0000 0.0000 0.0000
# 4 0.0000 0.0000 0.0000 20.2192 0.0000 0.0000
# 5 0.0000 0.0000 0.0000 0.0000 54.7116 0.0000
# 6 0.0000 0.0000 0.0000 0.0000 0.0000 31.4087
#
#
#
# Elastic Compliance Matrix: (Units=1/GPa)
#
#
# Indices 1 2 3 4 5 6 
#
# 1 0.009630 -0.002778 -0.002203 0.000000 0.000000 0.000000
# 2 -0.002778 0.009042 -0.004025 0.000000 0.000000 0.000000
# 3 -0.002203 -0.004025 0.013078 0.000000 0.000000 0.000000
# 4 0.000000 0.000000 0.000000 0.049458 0.000000 0.000000
# 5 0.000000 0.000000 0.000000 0.000000 0.018278 0.000000
# 6 0.000000 0.000000 0.000000 0.000000 0.000000 0.031838
#
#
# Mechanical properties :
#
#
# Convention : Reuss Voigt Hill
#
# Bulk Modulus (GPa) = 72.79668 76.76828 74.78248
# Shear Modulus (GPa) = 32.48500 36.59411 34.53956
#
# Velocity S-wave (km/s) = 3.84081 4.07649 3.96041
# Velocity P-wave (km/s) = 7.26133 7.55106 7.40761
#
# Compressibility (1/GPa) = 0.01373689
#
# Stress axis : x y z
#
# Youngs Moduli (GPa) = 103.83737 110.59708 76.46261
#
# Poissons Ratio (x) = 0.30727 0.16848
# Poissons Ratio (y) = 0.28849 0.30777
# Poissons Ratio (z) = 0.22880 0.44517
#
# Static dielectric constant tensor:
#      x y z
#    x 1.892700 0.000000 0.000000 
#    y 0.000000 1.735930 0.000000 
#    z 0.000000 0.000000 1.849380 
# 
# From -- ./inp_files/15232.got.cif
#   From: 2010.05.17/outbox.cif.g08.bks.cpg/sg23_8_cif.got.tgz:15232.got - 2010.06.04 12:02:01.
