data_PCOD9332164
_publ_section_title
;
Structure prediction by ZEFSAII (Michael W. Deem and Ramdas Pophale) SiO2 
 PCOD9332164
Probable space group: I 2 2 2
;
_chemical_formula_sum "Si O2"
_cell_formula_units_Z 24
_cell_length_a 13.304837
_cell_length_b 10.324584
_cell_length_c 7.793393
_cell_angle_alpha 90.000000
_cell_angle_beta 90.000000
_cell_angle_gamma 90.000000
_cell_volume 1070.554293
_symmetry_space_group_name_H-M "I 2 2 2"
_symmetry_group_IT_number 23
_symmetry_cell_setting 'orthorhombic'
loop_
_space_group_symop_operation_xyz
x,y,z
-x,-y,z
x,-y,-z
-x,y,-z
1/2+x,1/2+y,1/2+z
1/2-x,1/2-y,1/2+z
1/2+x,1/2-y,1/2-z
1/2-x,1/2+y,1/2-z
loop_
_atom_site_type_symbol
_atom_site_label
_atom_site_fract_x
_atom_site_fract_y
_atom_site_fract_z
Si Si1 0.875390 0.860233 0.901590
Si Si2 0.254566 0.636583 0.960575
Si Si3 0.044189 0.852027 0.664886
O O1 0.817517 0.758044 0.019303
O O2 0.808381 0.868643 0.725495
O O3 0.983143 0.808447 0.830804
O O4 0.880309 0.000000 0.000000
O O5 0.340247 0.644068 0.110592
O O6 0.201686 0.500000 0.000000
O O7 0.000000 0.778269 0.500000
O O8 0.000000 0.000000 0.663084
#
# Coordination Sequence:
#
# PCOD9332164 Si02
#       3
#     8   8   8
#     4  11  23  39  67 101 129 173 222 268 326 386
#     4  11  21  41  65  99 134 169 219 273 321 385
#     4   9  17  38  64  92 123 170 216 261 309 388
#
# _framework density 22.418293999999999
#
# number of rings (size 3 to 8) (size 9 to 14) (size 15 to 20)
#    0.000    1.667    6.667    2.000    0.000    0.667 
#    0.000    0.000    0.000   29.000    0.000    0.000 
#    0.000    0.000    0.000    0.000    0.000    0.000 
#
# Total GULP energy -66801.098176 kJ/mol
# GULP energy per Si atom -5566.758181 kJ/mol
# Density = 2.236727 g / cm^3
# Si number density = 22.418294 Si / 1000 Ang^3
#
#
#
# Elastic Constant Matrix: (Units=GPa)
#
#
# Indices 1 2 3 4 5 6 
#
# 1 111.8911 66.5964 43.9418 0.0000 0.0000 0.0000
# 2 66.5964 107.0804 42.8122 0.0000 0.0000 0.0000
# 3 43.9418 42.8122 206.6988 0.0000 0.0000 0.0000
# 4 0.0000 0.0000 0.0000 29.6509 0.0000 0.0000
# 5 0.0000 0.0000 0.0000 0.0000 45.1214 0.0000
# 6 0.0000 0.0000 0.0000 0.0000 0.0000 31.6272
#
#
#
# Elastic Compliance Matrix: (Units=1/GPa)
#
#
# Indices 1 2 3 4 5 6 
#
# 1 0.014516 -0.008498 -0.001326 0.000000 0.000000 0.000000
# 2 -0.008498 0.015157 -0.001333 0.000000 0.000000 0.000000
# 3 -0.001326 -0.001333 0.005396 0.000000 0.000000 0.000000
# 4 0.000000 0.000000 0.000000 0.033726 0.000000 0.000000
# 5 0.000000 0.000000 0.000000 0.000000 0.022162 0.000000
# 6 0.000000 0.000000 0.000000 0.000000 0.000000 0.031618
#
#
# Mechanical properties :
#
#
# Convention : Reuss Voigt Hill
#
# Bulk Modulus (GPa) = 78.39669 81.37457 79.88563
# Shear Modulus (GPa) = 33.52577 39.43454 36.48015
#
# Velocity S-wave (km/s) = 3.87132 4.19863 4.03829
# Velocity P-wave (km/s) = 7.41813 7.73833 7.57992
#
# Compressibility (1/GPa) = 0.01275564
#
# Stress axis : x y z
#
# Youngs Moduli (GPa) = 68.89123 65.97799 185.32731
#
# Poissons Ratio (x) = 0.56066 0.24571
# Poissons Ratio (y) = 0.58541 0.24700
# Poissons Ratio (z) = 0.09134 0.08793
#
# Static dielectric constant tensor:
#      x y z
#    x 1.917170 0.000000 0.000000 
#    y 0.000000 1.827890 0.000000 
#    z 0.000000 0.000000 2.073650 
# 
# From -- ./inp_files/6213.got.cif
#   From: 2010.05.17/outbox.cif.g08.bks.cpg/sg23_4_cif.got.tgz:6213.got - 2010.06.04 12:02:01.
