data_PCOD9332904
_publ_section_title
;
Structure prediction by ZEFSAII (Michael W. Deem and Ramdas Pophale) SiO2 
 PCOD9332904
Probable space group: I 21 21 21
;
_chemical_formula_sum "Si O2"
_cell_formula_units_Z 48
_cell_length_a 7.152631
_cell_length_b 18.037340
_cell_length_c 13.854398
_cell_angle_alpha 90.000000
_cell_angle_beta 90.000000
_cell_angle_gamma 90.000000
_cell_volume 1787.417361
_symmetry_space_group_name_H-M "I 21 21 21"
_symmetry_group_IT_number 24
_symmetry_cell_setting 'orthorhombic'
loop_
_space_group_symop_operation_xyz
x,y,z
-x,1/2-y,z
x,-y,1/2-z
1/2-x,y,-z
1/2+x,1/2+y,1/2+z
1/2-x,-y,1/2+z
1/2+x,1/2-y,-z
-x,1/2+y,1/2-z
loop_
_atom_site_type_symbol
_atom_site_label
_atom_site_fract_x
_atom_site_fract_y
_atom_site_fract_z
Si Si1 0.738214 0.298821 0.391432
Si Si2 0.860977 0.472617 0.142522
Si Si3 0.682530 0.142611 0.361762
Si Si4 0.832386 0.846827 0.645103
Si Si5 0.542968 0.995527 0.442599
Si Si6 0.225995 0.811255 0.329514
O O1 0.750000 0.331378 0.500000
O O2 0.798044 0.211908 0.402564
O O3 0.524821 0.322088 0.367590
O O4 0.822723 0.315658 0.285046
O O5 0.912150 0.500000 0.250000
O O6 0.644005 0.494381 0.124251
O O7 0.872130 0.383472 0.127535
O O8 0.971521 0.504263 0.051698
O O9 0.734018 0.130186 0.251307
O O10 0.664134 0.064906 0.411164
O O11 0.711903 0.771777 0.625972
O O12 0.848942 0.919585 0.581092
O O13 0.051553 0.825160 0.656799
#
# Coordination Sequence:
#
# PCOD9332904 Si02
#       6
#     8   8   8   8   8   8
#     4   9  17  27  45  69 100 132 158 196 255 306
#     4  10  19  27  41  78 104 126 159 202 261 305
#     4   9  17  27  43  75 100 125 162 202 252 304
#     4   8  14  28  45  67  95 123 160 204 244 284
#     4  10  18  27  46  72  99 130 159 207 257 293
#     4   8  15  27  43  67 101 122 158 204 239 293
#
# _framework density 26.854386999999999
#
# number of rings (size 3 to 8) (size 9 to 14) (size 15 to 20)
#    0.000    3.000    0.000    5.500    4.667    0.000 
#    0.000    0.000    0.000    0.000   52.000    2.333 
#    0.000    0.000    0.000    0.000    0.000    0.000 
#
# Total GULP energy -134015.815433 kJ/mol
# GULP energy per Si atom -5583.992310 kJ/mol
# Density = 2.679327 g / cm^3
# Si number density = 26.854387 Si / 1000 Ang^3
#
#
#
# Elastic Constant Matrix: (Units=GPa)
#
#
# Indices 1 2 3 4 5 6 
#
# 1 66.5813 41.9505 12.8635 0.0000 0.0000 0.0000
# 2 41.9505 191.9060 40.6481 0.0000 0.0000 0.0000
# 3 12.8635 40.6481 116.7744 0.0000 0.0000 0.0000
# 4 0.0000 0.0000 0.0000 22.9411 0.0000 0.0000
# 5 0.0000 0.0000 0.0000 0.0000 26.0153 0.0000
# 6 0.0000 0.0000 0.0000 0.0000 0.0000 27.5402
#
#
#
# Elastic Compliance Matrix: (Units=1/GPa)
#
#
# Indices 1 2 3 4 5 6 
#
# 1 0.017463 -0.003681 -0.000642 0.000000 0.000000 0.000000
# 2 -0.003681 0.006402 -0.001823 0.000000 0.000000 0.000000
# 3 -0.000642 -0.001823 0.009269 0.000000 0.000000 0.000000
# 4 0.000000 0.000000 0.000000 0.043590 0.000000 0.000000
# 5 0.000000 0.000000 0.000000 0.000000 0.038439 0.000000
# 6 0.000000 0.000000 0.000000 0.000000 0.000000 0.036311
#
#
# Mechanical properties :
#
#
# Convention : Reuss Voigt Hill
#
# Bulk Modulus (GPa) = 47.98348 62.90954 55.44651
# Shear Modulus (GPa) = 29.28906 33.95264 31.62085
#
# Velocity S-wave (km/s) = 3.30610 3.55959 3.43518
# Velocity P-wave (km/s) = 5.69917 6.35384 6.03539
#
# Compressibility (1/GPa) = 0.02084051
#
# Stress axis : x y z
#
# Youngs Moduli (GPa) = 57.26469 156.20804 107.88907
#
# Poissons Ratio (x) = 0.57505 0.06929
# Poissons Ratio (y) = 0.21081 0.19667
# Poissons Ratio (z) = 0.03678 0.28474
#
# Static dielectric constant tensor:
#      x y z
#    x 2.178140 0.000000 0.000000 
#    y 0.000000 2.181590 0.000000 
#    z 0.000000 0.000000 2.055970 
# 
# From -- ./inp_files/19721.got.cif
#   From: 2010.05.17/outbox.cif.g08.bks.cpg/sg24_10_cif.got.tgz:19721.got - 2010.06.04 00:33:39.
