data_PCOD9332731
_publ_section_title
;
Structure prediction by ZEFSAII (Michael W. Deem and Ramdas Pophale) SiO2 
 PCOD9332731
Probable space group: I 21 21 21
;
_chemical_formula_sum "Si O2"
_cell_formula_units_Z 60
_cell_length_a 14.550687
_cell_length_b 18.140135
_cell_length_c 13.066517
_cell_angle_alpha 90.000000
_cell_angle_beta 90.000000
_cell_angle_gamma 90.000000
_cell_volume 3448.925802
_symmetry_space_group_name_H-M "I 21 21 21"
_symmetry_group_IT_number 24
_symmetry_cell_setting 'orthorhombic'
loop_
_space_group_symop_operation_xyz
x,y,z
-x,1/2-y,z
x,-y,1/2-z
1/2-x,y,-z
1/2+x,1/2+y,1/2+z
1/2-x,-y,1/2+z
1/2+x,1/2-y,-z
-x,1/2+y,1/2-z
loop_
_atom_site_type_symbol
_atom_site_label
_atom_site_fract_x
_atom_site_fract_y
_atom_site_fract_z
Si Si1 0.797966 0.500000 0.250000
Si Si2 0.957754 0.482952 0.082970
Si Si3 0.351942 0.863531 0.466722
Si Si4 0.307080 0.844449 0.243250
Si Si5 0.863515 0.730905 0.343696
Si Si6 0.856295 0.734663 0.964846
Si Si7 0.540133 0.133799 0.781491
Si Si8 0.019053 0.359950 0.456602
O O1 0.867408 0.498356 0.153065
O O2 0.736062 0.573024 0.233909
O O3 0.995040 0.554638 0.025444
O O4 0.027416 0.443710 0.162365
O O5 0.926348 0.421596 0.003384
O O6 0.250000 0.893492 0.500000
O O7 0.364346 0.848265 0.347963
O O8 0.356910 0.791899 0.538250
O O9 0.222982 0.792550 0.277305
O O10 0.353893 0.808245 0.144263
O O11 0.883309 0.816064 0.332381
O O12 0.945828 0.679394 0.301466
O O13 0.750000 0.739370 0.000000
O O14 0.922408 0.684425 0.036407
O O15 0.908372 0.814030 0.974124
O O16 0.553731 0.136412 0.660373
#
# Coordination Sequence:
#
# PCOD9332731 Si02
#       8
#     4   8   8   8   8   8   8   8
#     4  12  18  30  54  88 120 146 182 244 316 360
#     4  11  19  32  53  88 113 140 179 252 305 344
#     4   9  18  32  50  78 110 140 180 228 294 360
#     4  11  21  34  51  79 114 151 186 232 293 366
#     4   9  16  30  52  77 105 136 179 227 289 354
#     4  11  23  37  55  79 113 165 197 238 295 359
#     4  10  16  30  53  77 108 139 179 238 297 337
#     4  11  22  35  54  83 117 150 199 241 290 368
#
# _framework density 17.396719999999998
#
# number of rings (size 3 to 8) (size 9 to 14) (size 15 to 20)
#    0.000    1.600    5.333    4.000    1.867    0.533 
#    0.000    5.333    0.000    2.400    0.000   11.200 
#    0.000    0.000    0.000    0.000    0.000    0.000 
#
# Total GULP energy -167032.126658 kJ/mol
# GULP energy per Si atom -5567.737555 kJ/mol
# Density = 1.735712 g / cm^3
# Si number density = 17.396720 Si / 1000 Ang^3
#
#
#
# Elastic Constant Matrix: (Units=GPa)
#
#
# Indices 1 2 3 4 5 6 
#
# 1 52.9809 36.8962 26.1231 0.0000 0.0000 0.0000
# 2 36.8962 88.6177 39.5060 0.0000 0.0000 0.0000
# 3 26.1231 39.5060 87.9570 0.0000 0.0000 0.0000
# 4 0.0000 0.0000 0.0000 25.8542 0.0000 0.0000
# 5 0.0000 0.0000 0.0000 0.0000 17.5044 0.0000
# 6 0.0000 0.0000 0.0000 0.0000 0.0000 29.5944
#
#
#
# Elastic Compliance Matrix: (Units=1/GPa)
#
#
# Indices 1 2 3 4 5 6 
#
# 1 0.027557 -0.009784 -0.003790 0.000000 0.000000 0.000000
# 2 -0.009784 0.017583 -0.004992 0.000000 0.000000 0.000000
# 3 -0.003790 -0.004992 0.014737 0.000000 0.000000 0.000000
# 4 0.000000 0.000000 0.000000 0.038678 0.000000 0.000000
# 5 0.000000 0.000000 0.000000 0.000000 0.057128 0.000000
# 6 0.000000 0.000000 0.000000 0.000000 0.000000 0.033790
#
#
# Mechanical properties :
#
#
# Convention : Reuss Voigt Hill
#
# Bulk Modulus (GPa) = 43.96379 48.28957 46.12668
# Shear Modulus (GPa) = 21.35043 23.05929 22.20486
#
# Velocity S-wave (km/s) = 3.50704 3.64469 3.57652
# Velocity P-wave (km/s) = 6.45951 6.74757 6.60511
#
# Compressibility (1/GPa) = 0.02274599
#
# Stress axis : x y z
#
# Youngs Moduli (GPa) = 36.28849 56.87206 67.85703
#
# Poissons Ratio (x) = 0.55643 0.25717
# Poissons Ratio (y) = 0.35504 0.33873
# Poissons Ratio (z) = 0.13753 0.28389
#
# Static dielectric constant tensor:
#      x y z
#    x 1.616970 0.000000 0.000000 
#    y 0.000000 1.628350 0.000000 
#    z 0.000000 0.000000 1.621420 
# 
# From -- ./inp_files/21017.got.cif
#   From: 2010.05.17/outbox.cif.g08.bks.cpg/sg24_11_cif.got.tgz:21017.got - 2010.06.04 00:33:39.
