data_PCOD9332380
_publ_section_title
;
Structure prediction by ZEFSAII (Michael W. Deem and Ramdas Pophale) SiO2 
 PCOD9332380
Probable space group: I 2 2 2
;
_chemical_formula_sum "Si O2"
_cell_formula_units_Z 28
_cell_length_a 7.131561
_cell_length_b 29.098421
_cell_length_c 5.592382
_cell_angle_alpha 90.000000
_cell_angle_beta 90.000000
_cell_angle_gamma 90.000000
_cell_volume 1160.515255
_symmetry_space_group_name_H-M "I 2 2 2"
_symmetry_group_IT_number 23
_symmetry_cell_setting 'orthorhombic'
loop_
_space_group_symop_operation_xyz
x,y,z
-x,-y,z
x,-y,-z
-x,y,-z
1/2+x,1/2+y,1/2+z
1/2-x,1/2-y,1/2+z
1/2+x,1/2-y,1/2-z
1/2-x,1/2+y,1/2-z
loop_
_atom_site_type_symbol
_atom_site_label
_atom_site_fract_x
_atom_site_fract_y
_atom_site_fract_z
Si Si1 0.000000 0.278225 0.000000
Si Si2 0.727369 0.946536 0.490509
Si Si3 0.708006 0.800703 0.097977
Si Si4 0.772279 0.600136 0.487135
O O1 0.150563 0.241406 0.103471
O O2 0.857950 0.311856 0.135161
O O3 0.500000 0.944569 0.500000
O O4 0.786186 0.923510 0.237881
O O5 0.780454 0.000000 0.500000
O O6 0.788044 0.923495 0.740604
O O7 0.781187 0.846107 0.975659
O O8 0.500000 0.787371 0.000000
O O9 0.000000 0.599926 0.500000
#
# Coordination Sequence:
#
# PCOD9332380 Si02
#       4
#     4   8   8   8
#     4  12  24  42  62  92 122 178 216 276 320 394
#     4   9  16  29  49  79 115 153 199 250 313 377
#     4  11  24  39  62  89 127 164 219 264 326 375
#     4   9  19  30  51  80 116 157 199 259 310 374
#
# _framework density 24.127212
#
# number of rings (size 3 to 8) (size 9 to 14) (size 15 to 20)
#    0.000    2.000    2.857    0.857   10.000    3.429 
#    0.000    0.000    0.000    0.000    0.000    6.000 
#    0.000    0.000    0.000    0.000    0.000    0.000 
#
# Total GULP energy -78031.885048 kJ/mol
# GULP energy per Si atom -5573.706075 kJ/mol
# Density = 2.407230 g / cm^3
# Si number density = 24.127212 Si / 1000 Ang^3
#
#
#
# Elastic Constant Matrix: (Units=GPa)
#
#
# Indices 1 2 3 4 5 6 
#
# 1 115.6235 9.2096 11.9531 -0.0021 -0.0019 0.0020
# 2 9.2096 111.2306 74.0728 0.0009 0.0024 -0.0054
# 3 11.9531 74.0728 154.2663 -0.0168 0.0063 -0.0063
# 4 -0.0021 0.0009 -0.0168 37.7377 0.0013 0.0026
# 5 -0.0019 0.0024 0.0063 0.0013 -6.2213 -0.0033
# 6 0.0020 -0.0054 -0.0063 0.0026 -0.0033 68.6784
#
#
#
# Elastic Compliance Matrix: (Units=1/GPa)
#
#
# Indices 1 2 3 4 5 6 
#
# 1 0.008731 -0.000400 -0.000484 0.000000 -0.000003 0.000000
# 2 -0.000400 0.013235 -0.006324 -0.000003 -0.000001 0.000000
# 3 -0.000484 -0.006324 0.009556 0.000004 0.000007 0.000000
# 4 0.000000 -0.000003 0.000004 0.026499 0.000005 -0.000001
# 5 -0.000003 -0.000001 0.000007 0.000005 -0.160739 -0.000008
# 6 0.000000 0.000000 0.000000 -0.000001 -0.000008 0.014561
#
#
# Mechanical properties :
#
#
# Convention : Reuss Voigt Hill
#
# Bulk Modulus (GPa) = 58.46292 63.51015 60.98654
# Shear Modulus (GPa) = -73.48729 39.09796 -17.19466
#
# Velocity S-wave (km/s) = -5.52489 4.02990 -2.67248
# Velocity P-wave (km/s) = 4.05160 6.93063 3.97607
#
# Compressibility (1/GPa) = 0.01710486
#
# Stress axis : x y z
#
# Youngs Moduli (GPa) = 114.53816 75.55864 104.64337
#
# Poissons Ratio (x) = 0.03025 0.05067
# Poissons Ratio (y) = 0.04586 0.66174
# Poissons Ratio (z) = 0.05546 0.47782
#
# Static dielectric constant tensor:
#      x y z
#    x 1.895550 0.000000 0.000000 
#    y 0.000000 1.848250 0.000000 
#    z 0.000000 0.000000 2.576640 
# 
# From -- ./inp_files/595.got.cif
#   From: 2010.05.17/outbox.cif.g08.bks.cpg/sg23_1_cif.got.tgz:595.got - 2010.06.04 12:02:01.
