data_PCOD9332994
_publ_section_title
;
Structure prediction by ZEFSAII (Michael W. Deem and Ramdas Pophale) SiO2 
 PCOD9332994
Probable space group: I 21 21 21
;
_chemical_formula_sum "Si O2"
_cell_formula_units_Z 52
_cell_length_a 23.062774
_cell_length_b 8.211167
_cell_length_c 14.664570
_cell_angle_alpha 90.000000
_cell_angle_beta 90.000000
_cell_angle_gamma 90.000000
_cell_volume 2777.063185
_symmetry_space_group_name_H-M "I 21 21 21"
_symmetry_group_IT_number 24
_symmetry_cell_setting 'orthorhombic'
loop_
_space_group_symop_operation_xyz
x,y,z
-x,1/2-y,z
x,-y,1/2-z
1/2-x,y,-z
1/2+x,1/2+y,1/2+z
1/2-x,-y,1/2+z
1/2+x,1/2-y,-z
-x,1/2+y,1/2-z
loop_
_atom_site_type_symbol
_atom_site_label
_atom_site_fract_x
_atom_site_fract_y
_atom_site_fract_z
Si Si1 0.305214 0.614663 0.177974
Si Si2 0.596221 0.326882 0.228943
Si Si3 0.243395 0.945046 0.854922
Si Si4 0.606321 0.092197 0.474481
Si Si5 0.567964 0.745810 0.481960
Si Si6 0.000000 0.750000 0.869247
Si Si7 0.348285 0.956893 0.985947
O O1 0.274742 0.500000 0.250000
O O2 0.357167 0.697625 0.236021
O O3 0.261757 0.750094 0.143885
O O4 0.341063 0.545267 0.093865
O O5 0.624822 0.500000 0.250000
O O6 0.576687 0.275328 0.128423
O O7 0.543042 0.339512 0.300108
O O8 0.244381 0.000000 0.750000
O O9 0.302351 0.988820 0.906290
O O10 0.188839 0.992126 0.920676
O O11 0.544161 0.138296 0.426921
O O12 0.627863 0.269336 0.512761
O O13 0.593935 0.916791 0.519479
O O14 0.500000 0.750000 0.500203
O O15 0.599828 0.585451 0.519179
#
# Coordination Sequence:
#
# PCOD9332994 Si02
#       7
#     8   8   8   8   8   4   8
#     4  10  18  31  51  79 111 145 194 236 286 342
#     4  11  19  28  46  76 119 155 190 232 276 360
#     4  10  21  41  63  83 116 158 200 253 306 357
#     4  10  20  34  49  76 122 159 189 238 282 356
#     4  12  21  33  55  83 119 163 199 236 296 362
#     4  10  20  28  46  78 118 156 194 222 290 358
#     4  10  23  41  57  88 124 157 197 253 307 354
#
# _framework density 18.724816000000001
#
# number of rings (size 3 to 8) (size 9 to 14) (size 15 to 20)
#    0.000    1.538    2.308    6.000    0.000    0.000 
#    2.769    1.538    0.000    0.000    6.000    0.000 
#    0.000    0.000    0.000    0.000    0.000    0.000 
#
# Total GULP energy -144745.244376 kJ/mol
# GULP energy per Si atom -5567.124784 kJ/mol
# Density = 1.868220 g / cm^3
# Si number density = 18.724816 Si / 1000 Ang^3
#
#
#
# Elastic Constant Matrix: (Units=GPa)
#
#
# Indices 1 2 3 4 5 6 
#
# 1 90.1529 35.4101 31.6128 0.0000 0.0000 0.0000
# 2 35.4101 96.5354 12.0760 0.0000 0.0000 0.0000
# 3 31.6128 12.0760 50.3473 0.0000 0.0000 0.0000
# 4 0.0000 0.0000 0.0000 9.1822 0.0000 0.0000
# 5 0.0000 0.0000 0.0000 0.0000 17.4905 0.0000
# 6 0.0000 0.0000 0.0000 0.0000 0.0000 19.8035
#
#
#
# Elastic Compliance Matrix: (Units=1/GPa)
#
#
# Indices 1 2 3 4 5 6 
#
# 1 0.016120 -0.004791 -0.008973 0.000000 0.000000 0.000000
# 2 -0.004791 0.012103 0.000105 0.000000 0.000000 0.000000
# 3 -0.008973 0.000105 0.025471 0.000000 0.000000 0.000000
# 4 0.000000 0.000000 0.000000 0.108906 0.000000 0.000000
# 5 0.000000 0.000000 0.000000 0.000000 0.057174 0.000000
# 6 0.000000 0.000000 0.000000 0.000000 0.000000 0.050496
#
#
# Mechanical properties :
#
#
# Convention : Reuss Voigt Hill
#
# Bulk Modulus (GPa) = 37.91126 43.91483 40.91304
# Shear Modulus (GPa) = 16.31964 19.82436 18.07200
#
# Velocity S-wave (km/s) = 2.95541 3.25733 3.11003
# Velocity P-wave (km/s) = 5.65123 6.13601 5.89860
#
# Compressibility (1/GPa) = 0.02637739
#
# Stress axis : x y z
#
# Youngs Moduli (GPa) = 62.03347 82.62411 39.26056
#
# Poissons Ratio (x) = 0.39582 0.35228
# Poissons Ratio (y) = 0.29718 -0.00413
# Poissons Ratio (z) = 0.55662 -0.00868
#
# Static dielectric constant tensor:
#      x y z
#    x 1.710320 0.000000 0.000000 
#    y 0.000000 1.711340 0.000000 
#    z 0.000000 0.000000 1.705560 
# 
# From -- ./inp_files/27815.got.cif
#   From: 2010.05.17/outbox.cif.g08.bks.cpg/sg24_14_cif.got.tgz:27815.got - 2010.06.04 00:33:39.
