data_PCOD9332523
_publ_section_title
;
Structure prediction by ZEFSAII (Michael W. Deem and Ramdas Pophale) SiO2 
 PCOD9332523
Probable space group: I 2 2 2
;
_chemical_formula_sum "Si O2"
_cell_formula_units_Z 38
_cell_length_a 10.949172
_cell_length_b 7.882609
_cell_length_c 18.976129
_cell_angle_alpha 90.000000
_cell_angle_beta 90.000000
_cell_angle_gamma 90.000000
_cell_volume 1637.792534
_symmetry_space_group_name_H-M "I 2 2 2"
_symmetry_group_IT_number 23
_symmetry_cell_setting 'orthorhombic'
loop_
_space_group_symop_operation_xyz
x,y,z
-x,-y,z
x,-y,-z
-x,y,-z
1/2+x,1/2+y,1/2+z
1/2-x,1/2-y,1/2+z
1/2+x,1/2-y,1/2-z
1/2-x,1/2+y,1/2-z
loop_
_atom_site_type_symbol
_atom_site_label
_atom_site_fract_x
_atom_site_fract_y
_atom_site_fract_z
Si Si1 0.617567 0.769408 0.540711
Si Si2 0.854403 0.473185 0.832836
Si Si3 0.000000 0.000000 0.500000
Si Si4 0.247065 0.838974 0.194266
Si Si5 0.653293 0.833129 0.953334
Si Si6 0.500000 0.500000 0.648361
O O1 0.500000 0.831670 0.500000
O O2 0.682654 0.902153 0.591419
O O3 0.711984 0.701599 0.484237
O O4 0.562216 0.635066 0.595983
O O5 0.786190 0.646128 0.819328
O O6 0.816103 0.356887 0.767671
O O7 0.000000 0.500000 0.833892
O O8 0.918211 0.850547 0.459783
O O9 0.330633 0.892153 0.127629
O O10 0.114536 0.930134 0.192528
O O11 0.616410 0.000000 0.000000
#
# Coordination Sequence:
#
# PCOD9332523 Si02
#       6
#     8   8   2   8   8   4
#     4  12  22  46  82 116 143 187 261 330 388 447
#     4  12  27  47  72 110 157 203 248 320 391 465
#     4  12  30  48  68 112 148 212 264 306 384 468
#     4  12  27  48  74 113 149 200 254 319 397 464
#     4  12  25  49  79 108 153 203 261 327 384 464
#     4  12  21  46  79 115 144 181 254 320 397 457
#
# _framework density 23.201962000000002
#
# number of rings (size 3 to 8) (size 9 to 14) (size 15 to 20)
#    0.000    0.000    6.316    3.158    0.000    3.789 
#    3.789    1.053    0.000    0.000    0.000    0.000 
#    0.000    0.000    0.000    0.000    0.000    0.000 
#
# Total GULP energy -106174.142614 kJ/mol
# GULP energy per Si atom -5588.112769 kJ/mol
# Density = 2.314915 g / cm^3
# Si number density = 23.201962 Si / 1000 Ang^3
#
#
#
# Elastic Constant Matrix: (Units=GPa)
#
#
# Indices 1 2 3 4 5 6 
#
# 1 69.6143 1.0183 10.8250 0.0000 0.0000 0.0000
# 2 1.0183 108.8936 5.7276 0.0000 0.0000 0.0000
# 3 10.8250 5.7276 109.4094 0.0000 0.0000 0.0000
# 4 0.0000 0.0000 0.0000 -36.9271 0.0000 0.0000
# 5 0.0000 0.0000 0.0000 0.0000 34.9639 0.0000
# 6 0.0000 0.0000 0.0000 0.0000 0.0000 26.5787
#
#
#
# Elastic Compliance Matrix: (Units=1/GPa)
#
#
# Indices 1 2 3 4 5 6 
#
# 1 0.014590 -0.000061 -0.001440 0.000000 0.000000 0.000000
# 2 -0.000061 0.009209 -0.000476 0.000000 0.000000 0.000000
# 3 -0.001440 -0.000476 0.009307 0.000000 0.000000 0.000000
# 4 0.000000 0.000000 0.000000 -0.027080 0.000000 0.000000
# 5 0.000000 0.000000 0.000000 0.000000 0.028601 0.000000
# 6 0.000000 0.000000 0.000000 0.000000 0.000000 0.037624
#
#
# Mechanical properties :
#
#
# Convention : Reuss Voigt Hill
#
# Bulk Modulus (GPa) = 34.30317 35.89547 35.09932
# Shear Modulus (GPa) = 58.19221 22.94620 40.56920
#
# Velocity S-wave (km/s) = 5.01350 3.14821 4.18607
# Velocity P-wave (km/s) = 6.95200 5.35905 6.20684
#
# Compressibility (1/GPa) = 0.02915182
#
# Stress axis : x y z
#
# Youngs Moduli (GPa) = 68.54141 108.59081 107.44129
#
# Poissons Ratio (x) = 0.00659 0.15475
# Poissons Ratio (y) = 0.00416 0.05115
# Poissons Ratio (z) = 0.09872 0.05170
#
# Static dielectric constant tensor:
#      x y z
#    x 1.920480 0.000000 0.000000 
#    y 0.000000 1.982580 0.000000 
#    z 0.000000 0.000000 1.937350 
# 
# From -- ./inp_files/14478.got.cif
#   From: 2010.05.17/outbox.cif.g08.bks.cpg/sg23_8_cif.got.tgz:14478.got - 2010.06.04 12:02:01.
