data_PCOD9332811
_publ_section_title
;
Structure prediction by ZEFSAII (Michael W. Deem and Ramdas Pophale) SiO2 
 PCOD9332811
Probable space group: I 21 21 21
;
_chemical_formula_sum "Si O2"
_cell_formula_units_Z 40
_cell_length_a 17.793565
_cell_length_b 4.917900
_cell_length_c 23.699745
_cell_angle_alpha 90.000000
_cell_angle_beta 90.000000
_cell_angle_gamma 90.000000
_cell_volume 2073.892953
_symmetry_space_group_name_H-M "I 21 21 21"
_symmetry_group_IT_number 24
_symmetry_cell_setting 'orthorhombic'
loop_
_space_group_symop_operation_xyz
x,y,z
-x,1/2-y,z
x,-y,1/2-z
1/2-x,y,-z
1/2+x,1/2+y,1/2+z
1/2-x,-y,1/2+z
1/2+x,1/2-y,-z
-x,1/2+y,1/2-z
loop_
_atom_site_type_symbol
_atom_site_label
_atom_site_fract_x
_atom_site_fract_y
_atom_site_fract_z
Si Si1 0.182904 0.703423 0.545576
Si Si2 0.393283 0.736497 0.786971
Si Si3 0.801228 0.013440 0.376862
Si Si4 0.107897 0.013009 0.403012
Si Si5 0.919090 0.692140 0.976622
O O1 0.250000 0.745209 0.500000
O O2 0.223483 0.606210 0.602632
O O3 0.128472 0.468327 0.522190
O O4 0.133377 0.970237 0.552855
O O5 0.433472 0.500000 0.750000
O O6 0.319073 0.588119 0.812328
O O7 0.426412 0.863088 0.845406
O O8 0.377415 0.000000 0.750000
O O9 0.865747 0.793226 0.392955
O O10 0.817593 0.296838 0.408765
O O11 0.065761 0.063693 0.460967
O O12 0.000000 0.750000 0.950231
#
# Coordination Sequence:
#
# PCOD9332811 Si02
#       5
#     8   8   8   8   8
#     4  12  20  36  57  78 109 150 196 228 284 348
#     4  10  17  30  50  77 110 136 175 241 288 309
#     4  10  19  29  53  79 100 143 184 225 274 328
#     4  10  18  32  49  76 104 147 182 222 277 325
#     4  12  24  36  53  81 117 154 191 238 279 334
#
# _framework density 19.287400000000002
#
# number of rings (size 3 to 8) (size 9 to 14) (size 15 to 20)
#    1.200    0.000    6.000    2.400    0.000    0.000 
#    0.000    0.000    0.000    1.200    0.000    0.000 
#    0.000    4.800    1.200    0.000    0.000    0.000 
#
# Total GULP energy -111429.465381 kJ/mol
# GULP energy per Si atom -5571.473269 kJ/mol
# Density = 1.924350 g / cm^3
# Si number density = 19.287400 Si / 1000 Ang^3
#
#
#
# Elastic Constant Matrix: (Units=GPa)
#
#
# Indices 1 2 3 4 5 6 
#
# 1 96.2519 34.7662 18.7393 0.0000 0.0000 0.0000
# 2 34.7662 122.6411 10.5387 0.0000 0.0000 0.0000
# 3 18.7393 10.5387 56.4708 0.0000 0.0000 0.0000
# 4 0.0000 0.0000 0.0000 35.1725 0.0000 0.0000
# 5 0.0000 0.0000 0.0000 0.0000 4.6275 0.0000
# 6 0.0000 0.0000 0.0000 0.0000 0.0000 -3.1987
#
#
#
# Elastic Compliance Matrix: (Units=1/GPa)
#
#
# Indices 1 2 3 4 5 6 
#
# 1 0.012205 -0.003163 -0.003460 0.000000 0.000000 0.000000
# 2 -0.003163 0.009106 -0.000650 0.000000 0.000000 0.000000
# 3 -0.003460 -0.000650 0.018978 0.000000 0.000000 0.000000
# 4 0.000000 0.000000 0.000000 0.028431 0.000000 0.000000
# 5 0.000000 0.000000 0.000000 0.000000 0.216100 0.000000
# 6 0.000000 0.000000 0.000000 0.000000 0.000000 -0.312626
#
#
# Mechanical properties :
#
#
# Convention : Reuss Voigt Hill
#
# Bulk Modulus (GPa) = 38.84373 44.82801 41.83587
# Shear Modulus (GPa) = -1068.75895 21.40822 -523.67536
#
# Velocity S-wave (km/s) = -23.56535 3.33522 -16.49549
# Velocity P-wave (km/s) = 26.83750 6.17448 18.46791
#
# Compressibility (1/GPa) = 0.02574418
#
# Stress axis : x y z
#
# Youngs Moduli (GPa) = 81.93104 109.81443 52.69333
#
# Poissons Ratio (x) = 0.34730 0.18232
# Poissons Ratio (y) = 0.25912 0.03425
# Poissons Ratio (z) = 0.28348 0.07137
#
# Static dielectric constant tensor:
#      x y z
#    x 1.708950 0.000000 0.000000 
#    y 0.000000 1.701020 0.000000 
#    z 0.000000 0.000000 1.734900 
# 
# From -- ./inp_files/35733.got.cif
#   From: 2010.05.17/outbox.cif.g08.bks.cpg/sg24_18_cif.got.tgz:35733.got - 2010.06.04 00:33:39.
