data_PCOD9332657
_publ_section_title
;
Structure prediction by ZEFSAII (Michael W. Deem and Ramdas Pophale) SiO2 
 PCOD9332657
Probable space group: I 2 2 2
;
_chemical_formula_sum "Si O2"
_cell_formula_units_Z 32
_cell_length_a 15.000000
_cell_length_b 24.000000
_cell_length_c 9.000000
_cell_angle_alpha 90.000000
_cell_angle_beta 90.000000
_cell_angle_gamma 90.000000
_cell_volume 3240.000000
_symmetry_space_group_name_H-M "I 2 2 2"
_symmetry_group_IT_number 23
_symmetry_cell_setting 'orthorhombic'
loop_
_space_group_symop_operation_xyz
x,y,z
-x,-y,z
x,-y,-z
-x,y,-z
1/2+x,1/2+y,1/2+z
1/2-x,1/2-y,1/2+z
1/2+x,1/2-y,1/2-z
1/2-x,1/2+y,1/2-z
loop_
_atom_site_type_symbol
_atom_site_label
_atom_site_fract_x
_atom_site_fract_y
_atom_site_fract_z
Si Si1 0.602589 0.127422 0.031462
Si Si2 0.762156 0.951591 0.888111
Si Si3 0.533048 0.363719 0.164015
Si Si4 0.552532 0.764241 0.777743
Si Si5 0.843068 0.294177 0.290998
Si Si6 0.314477 0.754458 0.482119
Si Si7 0.601586 0.516790 0.825517
Si Si8 0.096313 0.139433 0.920431
O O1 0.672585 0.087883 0.121149
O O2 0.588692 0.187393 0.113832
O O3 0.500000 0.106533 0.000000
O O4 0.647088 0.146758 0.875426
O O5 0.839660 0.911861 0.954086
O O6 0.817386 0.983963 0.756438
O O7 0.735267 0.000000 0.000000
O O8 0.570755 0.300757 0.182346
O O9 0.598508 0.415726 0.199038
O O10 0.440115 0.365350 0.254595
O O11 0.500000 0.372775 0.000000
O O12 0.445095 0.771362 0.776558
O O13 0.604791 0.773760 0.624132
O O14 0.775230 0.256118 0.387715
O O15 0.804565 0.294099 0.124255
O O16 0.348015 0.694794 0.545544
O O17 0.500000 0.500000 0.773632
O O18 0.606133 0.500000 0.000000
O O19 0.000000 0.141092 0.000000
#
# Coordination Sequence:
#
# PCOD9332657 Si02
#       8
#     8   8   8   8   8   8   8   8
#     4  10  24  48  70  98 133 177 246 299 352 409
#     4  12  26  42  69  97 133 183 234 288 347 399
#     4  12  21  36  66  99 139 192 224 270 348 421
#     4  11  24  42  66  96 135 182 224 282 352 409
#     4  11  22  40  62  94 135 177 223 275 337 425
#     4  12  23  39  63  96 141 178 224 273 342 422
#     4  11  22  42  63  98 143 186 231 275 339 433
#     4  12  22  38  61  95 142 174 220 270 339 418
#
# _framework density 9.8765429999999999
#
# number of rings (size 3 to 8) (size 9 to 14) (size 15 to 20)
#    0.000    0.625    6.250    3.000    0.000    0.250 
#    0.000    2.500    0.000    0.000    0.000    0.875 
#    0.000    0.000    0.000    0.000    0.000    0.000 
#
# Total GULP energy -178558.037318 kJ/mol
# GULP energy per Si atom -5579.938666 kJ/mol
# Density = 0.985406 g / cm^3
# Si number density = 9.876543 Si / 1000 Ang^3
#
#
#
# Elastic Constant Matrix: (Units=GPa)
#
#
# Indices 1 2 3 4 5 6 
#
# 1 131.3641 30.5531 50.1395 0.0000 0.0000 0.0000
# 2 30.5531 98.2480 15.7983 0.0000 0.0000 0.0000
# 3 50.1395 15.7983 108.7067 0.0000 -0.0004 0.0002
# 4 0.0000 0.0000 0.0000 23.3779 -0.0001 0.0001
# 5 0.0000 0.0000 -0.0004 -0.0001 35.1517 0.0000
# 6 0.0000 0.0000 0.0002 0.0001 0.0000 39.6643
#
#
#
# Elastic Compliance Matrix: (Units=1/GPa)
#
#
# Indices 1 2 3 4 5 6 
#
# 1 0.009747 -0.002363 -0.004152 0.000000 0.000000 0.000000
# 2 -0.002363 0.010995 -0.000508 0.000000 0.000000 0.000000
# 3 -0.004152 -0.000508 0.011188 0.000000 0.000000 0.000000
# 4 0.000000 0.000000 0.000000 0.042775 0.000000 0.000000
# 5 0.000000 0.000000 0.000000 0.000000 0.028448 0.000000
# 6 0.000000 0.000000 0.000000 0.000000 0.000000 0.025212
#
#
# Mechanical properties :
#
#
# Convention : Reuss Voigt Hill
#
# Bulk Modulus (GPa) = 55.91866 59.03338 57.47602
# Shear Modulus (GPa) = 33.69889 35.76064 34.72977
#
# Velocity S-wave (km/s) = 4.13486 4.25947 4.19763
# Velocity P-wave (km/s) = 7.15307 7.35808 7.25630
#
# Compressibility (1/GPa) = 0.01788312
#
# Stress axis : x y z
#
# Youngs Moduli (GPa) = 102.59638 90.95080 89.38157
#
# Poissons Ratio (x) = 0.21496 0.37113
# Poissons Ratio (y) = 0.24248 0.04539
# Poissons Ratio (z) = 0.42600 0.04618
#
# Static dielectric constant tensor:
#      x y z
#    x 1.679340 0.000000 0.000000 
#    y 0.000000 1.727530 0.000000 
#    z 0.000000 0.000000 1.630200 
# 
# From -- ./inp_files/10352.got.cif
#   From: 2010.05.17/outbox.ucp.g08.bks.cvg/sg23_6_cif.got.tgz:10352.got - 2010.06.11 15:19:07.
