data_PCOD9332625
_publ_section_title
;
Structure prediction by ZEFSAII (Michael W. Deem and Ramdas Pophale) SiO2 
 PCOD9332625
Probable space group: I 2 2 2
;
_chemical_formula_sum "Si O2"
_cell_formula_units_Z 26
_cell_length_a 18.000000
_cell_length_b 27.000000
_cell_length_c 6.000000
_cell_angle_alpha 90.000000
_cell_angle_beta 90.000000
_cell_angle_gamma 90.000000
_cell_volume 2916.000000
_symmetry_space_group_name_H-M "I 2 2 2"
_symmetry_group_IT_number 23
_symmetry_cell_setting 'orthorhombic'
loop_
_space_group_symop_operation_xyz
x,y,z
-x,-y,z
x,-y,-z
-x,y,-z
1/2+x,1/2+y,1/2+z
1/2-x,1/2-y,1/2+z
1/2+x,1/2-y,1/2-z
1/2-x,1/2+y,1/2-z
loop_
_atom_site_type_symbol
_atom_site_label
_atom_site_fract_x
_atom_site_fract_y
_atom_site_fract_z
Si Si1 0.067105 0.417199 0.173640
Si Si2 0.891289 0.500000 0.500000
Si Si3 0.337102 0.785437 0.651491
Si Si4 0.306055 0.643194 0.156869
Si Si5 0.136618 0.323952 0.350372
Si Si6 0.687625 0.332030 0.655051
Si Si7 0.703703 0.949579 0.373622
O O1 0.064113 0.465456 0.329190
O O2 0.079942 0.369412 0.326002
O O3 0.141612 0.423507 0.027101
O O4 0.000000 0.413589 0.000000
O O5 0.838141 0.535044 0.647729
O O6 0.259263 0.815269 0.653143
O O7 0.370546 0.797041 0.398940
O O8 0.323237 0.727047 0.659073
O O9 0.372945 0.799674 0.898507
O O10 0.342003 0.650398 0.407456
O O11 0.268830 0.589120 0.162947
O O12 0.340143 0.648714 0.902170
O O13 0.223048 0.341750 0.351209
O O14 0.726572 0.000000 0.500000
#
# Coordination Sequence:
#
# PCOD9332625 Si02
#       7
#     8   4   8   8   8   8   8
#     4  11  23  36  49  63  79 116 157 207 254 288
#     4  10  22  37  50  56  78 106 162 206 246 284
#     4  10  17  28  49  69  87 106 127 165 234 295
#     4  10  17  28  43  64  90 105 133 172 220 281
#     4  10  18  31  46  65  89 104 133 175 229 292
#     4  10  17  27  48  69  88 106 128 163 233 295
#     4  10  21  33  47  63  79 116 153 196 240 283
#
# _framework density 8.9163239999999995
#
# number of rings (size 3 to 8) (size 9 to 14) (size 15 to 20)
#    0.000    1.846    3.077    6.462    2.154    4.000 
#    0.000    0.000    0.000    0.000    0.000    0.000 
#    0.000    0.000    0.000    0.000    0.000    0.000 
#
# Total GULP energy -144757.697603 kJ/mol
# GULP energy per Si atom -5567.603754 kJ/mol
# Density = 0.889603 g / cm^3
# Si number density = 8.916324 Si / 1000 Ang^3
#
#
#
# Elastic Constant Matrix: (Units=GPa)
#
#
# Indices 1 2 3 4 5 6 
#
# 1 1.4027 8.5696 2.6967 0.0000 0.0000 0.0000
# 2 8.5696 32.4934 5.8040 0.0000 0.0000 0.0000
# 3 2.6967 5.8040 153.4083 0.0000 0.0000 0.0000
# 4 0.0000 0.0000 0.0000 20.0679 0.0000 0.0000
# 5 0.0000 0.0000 0.0000 0.0000 19.9138 0.0000
# 6 0.0000 0.0000 0.0000 0.0000 0.0000 6.6996
#
#
#
# Elastic Compliance Matrix: (Units=1/GPa)
#
#
# Indices 1 2 3 4 5 6 
#
# 1 -1.154279 0.302845 0.008833 0.000000 0.000000 0.000000
# 2 0.302845 -0.048471 -0.003490 0.000000 0.000000 0.000000
# 3 0.008833 -0.003490 0.006495 0.000000 0.000000 0.000000
# 4 0.000000 0.000000 0.000000 0.049831 0.000000 0.000000
# 5 0.000000 0.000000 0.000000 0.000000 0.050216 0.000000
# 6 0.000000 0.000000 0.000000 0.000000 0.000000 0.149262
#
#
# Mechanical properties :
#
#
# Convention : Reuss Voigt Hill
#
# Bulk Modulus (GPa) = -1.72449 24.60500 11.44025
# Shear Modulus (GPa) = -2.84639 20.68519 8.91940
#
# Velocity S-wave (km/s) = -1.26476 3.40952 2.23888
# Velocity P-wave (km/s) = 1.76124 5.41548 3.62115
#
# Compressibility (1/GPa) = -0.57988013
#
# Stress axis : x y z
#
# Youngs Moduli (GPa) = -0.86634 -20.63069 153.95713
#
# Poissons Ratio (x) = 6.24789 -1.35985
# Poissons Ratio (y) = 0.26237 0.53726
# Poissons Ratio (z) = 0.00765 -0.07199
#
# Static dielectric constant tensor:
#      x y z
#    x 1.599800 0.000000 0.000000 
#    y 0.000000 1.641670 0.000000 
#    z 0.000000 0.000000 1.709220 
# 
# From -- ./inp_files/3452.got.cif
#   From: 2010.05.17/outbox.ucp.g08.bks.cvg/sg23_2_cif.got.tgz:3452.got - 2010.06.11 15:19:07.
