data_PCOD9332493
_publ_section_title
;
Structure prediction by ZEFSAII (Michael W. Deem and Ramdas Pophale) SiO2 
 PCOD9332493
Probable space group: I 2 2 2
;
_chemical_formula_sum "Si O2"
_cell_formula_units_Z 40
_cell_length_a 12.220329
_cell_length_b 11.251721
_cell_length_c 10.532558
_cell_angle_alpha 90.000000
_cell_angle_beta 90.000000
_cell_angle_gamma 90.000000
_cell_volume 1448.223907
_symmetry_space_group_name_H-M "I 2 2 2"
_symmetry_group_IT_number 23
_symmetry_cell_setting 'orthorhombic'
loop_
_space_group_symop_operation_xyz
x,y,z
-x,-y,z
x,-y,-z
-x,y,-z
1/2+x,1/2+y,1/2+z
1/2-x,1/2-y,1/2+z
1/2+x,1/2-y,1/2-z
1/2-x,1/2+y,1/2-z
loop_
_atom_site_type_symbol
_atom_site_label
_atom_site_fract_x
_atom_site_fract_y
_atom_site_fract_z
Si Si1 0.348400 0.223668 0.016949
Si Si2 0.619586 0.532261 0.146345
Si Si3 0.372931 0.640678 0.470905
Si Si4 0.344227 0.934679 0.751167
Si Si5 0.444819 0.805619 0.253298
O O1 0.356911 0.328310 0.122902
O O2 0.225541 0.211472 0.960511
O O3 0.351195 0.104640 0.101764
O O4 0.570809 0.230058 0.103925
O O5 0.500000 0.500000 0.206376
O O6 0.721609 0.459848 0.201937
O O7 0.611560 0.500000 0.000000
O O8 0.353593 0.500000 0.500000
O O9 0.500000 0.653599 0.500000
O O10 0.379322 0.711038 0.336307
O O11 0.432912 0.839932 0.696874
O O12 0.390925 0.065955 0.736732
#
# Coordination Sequence:
#
# PCOD9332493 Si02
#       5
#     8   8   8   8   8
#     4  12  27  54  82 131 181 238 317 388 489 576
#     4  11  29  52  82 130 181 245 324 396 498 573
#     4  11  27  53  82 128 179 240 314 388 482 576
#     4  11  26  51  86 125 180 243 309 395 481 570
#     4  11  26  50  88 128 178 244 314 394 471 587
#
# _framework density 27.620038999999998
#
# number of rings (size 3 to 8) (size 9 to 14) (size 15 to 20)
#    0.000    0.800    2.000    2.400   11.200    1.600 
#   18.000    2.000    0.000    0.000    0.000    0.000 
#    0.000    0.000    0.000    0.000    0.000    0.000 
#
# Total GULP energy -111605.331881 kJ/mol
# GULP energy per Si atom -5580.266594 kJ/mol
# Density = 2.755717 g / cm^3
# Si number density = 27.620039 Si / 1000 Ang^3
#
#
#
# Elastic Constant Matrix: (Units=GPa)
#
#
# Indices 1 2 3 4 5 6 
#
# 1 231.1867 98.7761 44.6831 0.0000 0.0000 0.0000
# 2 98.7761 188.3423 70.3601 0.0000 0.0000 0.0000
# 3 44.6831 70.3601 92.7676 0.0000 0.0000 0.0000
# 4 0.0000 0.0000 0.0000 54.4224 0.0000 0.0000
# 5 0.0000 0.0000 0.0000 0.0000 5.5772 0.0000
# 6 0.0000 0.0000 0.0000 0.0000 0.0000 57.3409
#
#
#
# Elastic Compliance Matrix: (Units=1/GPa)
#
#
# Indices 1 2 3 4 5 6 
#
# 1 0.005603 -0.002694 -0.000656 0.000000 0.000000 0.000000
# 2 -0.002694 0.008703 -0.005304 0.000000 0.000000 0.000000
# 3 -0.000656 -0.005304 0.015118 0.000000 0.000000 0.000000
# 4 0.000000 0.000000 0.000000 0.018375 0.000000 0.000000
# 5 0.000000 0.000000 0.000000 0.000000 0.179302 0.000000
# 6 0.000000 0.000000 0.000000 0.000000 0.000000 0.017440
#
#
# Mechanical properties :
#
#
# Convention : Reuss Voigt Hill
#
# Bulk Modulus (GPa) = 82.51952 104.43725 93.47839
# Shear Modulus (GPa) = 18.80500 43.36658 31.08579
#
# Velocity S-wave (km/s) = 2.61213 3.96676 3.35846
# Velocity P-wave (km/s) = 6.24814 7.67297 6.99692
#
# Compressibility (1/GPa) = 0.01211834
#
# Stress axis : x y z
#
# Youngs Moduli (GPa) = 178.47243 114.89667 66.14508
#
# Poissons Ratio (x) = 0.30948 0.04339
# Poissons Ratio (y) = 0.48072 0.35082
# Poissons Ratio (z) = 0.11706 0.60939
#
# Static dielectric constant tensor:
#      x y z
#    x 2.424230 0.000000 0.000000 
#    y 0.000000 2.233810 0.000000 
#    z 0.000000 0.000000 2.258900 
# 
# From -- ./inp_files/20685.got.cif
#   From: 2010.05.17/outbox.cif.g08.bks.cpg/sg23_11_cif.got.tgz:20685.got - 2010.06.04 12:02:01.
