data_PCOD9332011
_publ_section_title
;
Structure prediction by ZEFSAII (Michael W. Deem and Ramdas Pophale) SiO2 
 PCOD9332011
Probable space group: I 2 2 2
;
_chemical_formula_sum "Si O2"
_cell_formula_units_Z 30
_cell_length_a 17.195467
_cell_length_b 14.831647
_cell_length_c 5.158395
_cell_angle_alpha 90.000000
_cell_angle_beta 90.000000
_cell_angle_gamma 90.000000
_cell_volume 1315.582084
_symmetry_space_group_name_H-M "I 2 2 2"
_symmetry_group_IT_number 23
_symmetry_cell_setting 'orthorhombic'
loop_
_space_group_symop_operation_xyz
x,y,z
-x,-y,z
x,-y,-z
-x,y,-z
1/2+x,1/2+y,1/2+z
1/2-x,1/2-y,1/2+z
1/2+x,1/2-y,1/2-z
1/2-x,1/2+y,1/2-z
loop_
_atom_site_type_symbol
_atom_site_label
_atom_site_fract_x
_atom_site_fract_y
_atom_site_fract_z
Si Si1 0.616799 0.563655 0.748223
Si Si2 0.257080 0.192315 0.083317
Si Si3 0.500000 0.000000 0.500000
Si Si4 0.500000 0.309865 0.500000
Si Si5 0.427710 0.157790 0.190488
O O1 0.611493 0.500000 0.500000
O O2 0.694198 0.623607 0.703969
O O3 0.542496 0.629574 0.716140
O O4 0.617902 0.500000 0.000000
O O5 0.262409 0.272210 0.296802
O O6 0.343889 0.153233 0.064339
O O7 0.445908 0.065364 0.335040
O O8 0.435270 0.242780 0.383589
O O9 0.500000 0.171087 0.000000
#
# Coordination Sequence:
#
# PCOD9332011 Si02
#       5
#     8   8   2   4   8
#     4  12  28  47  74 113 152 195 250 312 370 437
#     4  12  26  50  77 107 147 197 251 300 377 447
#     4  10  26  44  66 122 134 200 246 324 362 438
#     4  11  25  49  71 106 146 206 245 303 377 453
#     4  11  25  46  79 103 151 194 256 304 378 447
#
# _framework density 22.803594
#
# number of rings (size 3 to 8) (size 9 to 14) (size 15 to 20)
#    0.000    0.533    2.667    4.000    9.333    3.200 
#    0.000    0.000    0.000    0.000    0.000    0.000 
#    0.000    0.000    0.000    0.000    0.000    0.000 
#
# Total GULP energy -83983.882427 kJ/mol
# GULP energy per Si atom -5598.925495 kJ/mol
# Density = 2.275169 g / cm^3
# Si number density = 22.803594 Si / 1000 Ang^3
#
#
#
# Elastic Constant Matrix: (Units=GPa)
#
#
# Indices 1 2 3 4 5 6 
#
# 1 124.0564 22.3470 -10.4246 0.0000 0.0000 0.0000
# 2 22.3470 108.4022 26.8726 0.0000 0.0000 0.0000
# 3 -10.4246 26.8726 92.7233 0.0000 0.0000 0.0000
# 4 0.0000 0.0000 0.0000 77.8751 0.0000 0.0000
# 5 0.0000 0.0000 0.0000 0.0000 21.3720 0.0000
# 6 0.0000 0.0000 0.0000 0.0000 0.0000 -28.7181
#
#
#
# Elastic Compliance Matrix: (Units=1/GPa)
#
#
# Indices 1 2 3 4 5 6 
#
# 1 0.008585 -0.002164 0.001592 0.000000 0.000000 0.000000
# 2 -0.002164 0.010485 -0.003282 0.000000 0.000000 0.000000
# 3 0.001592 -0.003282 0.011915 0.000000 0.000000 0.000000
# 4 0.000000 0.000000 0.000000 0.012841 0.000000 0.000000
# 5 0.000000 0.000000 0.000000 0.000000 0.046790 0.000000
# 6 0.000000 0.000000 0.000000 0.000000 0.000000 -0.034821
#
#
# Mechanical properties :
#
#
# Convention : Reuss Voigt Hill
#
# Bulk Modulus (GPa) = 42.96228 44.75244 43.85736
# Shear Modulus (GPa) = 70.16464 33.19826 51.68145
#
# Velocity S-wave (km/s) = 5.55301 3.81968 4.76581
# Velocity P-wave (km/s) = 7.74568 6.25468 7.03977
#
# Compressibility (1/GPa) = 0.02327623
#
# Stress axis : x y z
#
# Youngs Moduli (GPa) = 116.48820 95.37715 83.92804
#
# Poissons Ratio (x) = 0.20644 -0.13365
# Poissons Ratio (y) = 0.25213 0.27545
# Poissons Ratio (z) = -0.18550 0.31302
#
# Static dielectric constant tensor:
#      x y z
#    x 1.665280 0.000000 0.000000 
#    y 0.000000 3.473240 0.000000 
#    z 0.000000 0.000000 1.861840 
# 
# From -- ./inp_files/2953.got.cif
#   From: 2010.05.17/outbox.cif.g08.bks.cpg/sg23_2_cif.got.tgz:2953.got - 2010.06.04 12:02:01.
