data_PCOD9332204
_publ_section_title
;
Structure prediction by ZEFSAII (Michael W. Deem and Ramdas Pophale) SiO2 
 PCOD9332204
Probable space group: I 2 2 2
;
_chemical_formula_sum "Si O2"
_cell_formula_units_Z 64
_cell_length_a 10.121810
_cell_length_b 19.955584
_cell_length_c 16.793388
_cell_angle_alpha 90.000000
_cell_angle_beta 90.000000
_cell_angle_gamma 90.000000
_cell_volume 3392.039843
_symmetry_space_group_name_H-M "I 2 2 2"
_symmetry_group_IT_number 23
_symmetry_cell_setting 'orthorhombic'
loop_
_space_group_symop_operation_xyz
x,y,z
-x,-y,z
x,-y,-z
-x,y,-z
1/2+x,1/2+y,1/2+z
1/2-x,1/2-y,1/2+z
1/2+x,1/2-y,1/2-z
1/2-x,1/2+y,1/2-z
loop_
_atom_site_type_symbol
_atom_site_label
_atom_site_fract_x
_atom_site_fract_y
_atom_site_fract_z
Si Si1 0.976754 0.281378 0.091635
Si Si2 0.722739 0.187462 0.310795
Si Si3 0.467225 0.377680 0.590793
Si Si4 0.967225 0.622320 0.409207
Si Si5 0.523247 0.281379 0.908365
Si Si6 0.777261 0.812538 0.310794
Si Si7 0.783671 0.923158 0.816858
Si Si8 0.783672 0.576843 0.683142
O O1 0.007766 0.201983 0.099108
O O2 0.829870 0.296023 0.121509
O O3 0.079661 0.318010 0.149541
O O4 0.000000 0.299874 0.000000
O O5 0.829870 0.203976 0.378492
O O6 0.722372 0.250000 0.250000
O O7 0.762410 0.122738 0.260322
O O8 0.500000 0.396422 0.500000
O O9 0.569607 0.414033 0.649200
O O10 0.319251 0.395454 0.616725
O O11 0.992234 0.701983 0.400894
O O12 0.069606 0.585968 0.350800
O O13 0.000000 0.603577 0.500000
O O14 0.819251 0.604546 0.383275
O O15 0.420339 0.318009 0.850459
O O16 0.500000 0.299877 0.000000
O O17 0.737590 0.877262 0.260321
O O18 0.749999 1.000000 0.801617
#
# Coordination Sequence:
#
# PCOD9332204 Si02
#       8
#     8   8   8   8   8   8   8   8
#     4  11  22  38  63  91 115 147 195 244 291 336
#     4  12  21  39  63  85 117 154 192 242 286 333
#     4  11  22  38  58  86 121 156 191 229 284 352
#     4  11  22  38  58  86 121 156 191 229 284 352
#     4  11  22  38  63  91 115 147 195 244 291 336
#     4  12  21  39  63  85 117 154 192 242 286 333
#     4  12  25  38  57  86 119 158 194 233 285 343
#     4  12  25  38  57  86 119 158 194 233 285 343
#
# _framework density 18.867704
#
# number of rings (size 3 to 8) (size 9 to 14) (size 15 to 20)
#    0.000    0.500    5.000    4.500    0.000    7.000 
#    0.000    0.000    0.000    4.500    0.000    0.000 
#    0.000    0.000    0.000    0.000    0.000    0.000 
#
# Total GULP energy -179101.297198 kJ/mol
# GULP energy per Si atom -5596.915537 kJ/mol
# Density = 1.882476 g / cm^3
# Si number density = 18.867704 Si / 1000 Ang^3
#
#
#
# Elastic Constant Matrix: (Units=GPa)
#
#
# Indices 1 2 3 4 5 6 
#
# 1 48.9936 -28.7360 -12.4390 0.0000 0.0000 0.0000
# 2 -28.7360 63.9357 17.5324 0.0000 0.0000 0.0000
# 3 -12.4390 17.5324 71.6471 0.0000 0.0000 0.0000
# 4 0.0000 0.0000 0.0000 13.0727 0.0000 0.0000
# 5 0.0000 0.0000 0.0000 0.0000 36.3673 0.0000
# 6 0.0000 0.0000 0.0000 0.0000 0.0000 10.1199
#
#
#
# Elastic Compliance Matrix: (Units=1/GPa)
#
#
# Indices 1 2 3 4 5 6 
#
# 1 0.027959 0.012043 0.001907 0.000000 0.000000 0.000000
# 2 0.012043 0.021953 -0.003281 0.000000 0.000000 0.000000
# 3 0.001907 -0.003281 0.015091 0.000000 0.000000 0.000000
# 4 0.000000 0.000000 0.000000 0.076495 0.000000 0.000000
# 5 0.000000 0.000000 0.000000 0.000000 0.027497 0.000000
# 6 0.000000 0.000000 0.000000 0.000000 0.000000 0.098815
#
#
# Mechanical properties :
#
#
# Convention : Reuss Voigt Hill
#
# Bulk Modulus (GPa) = 11.58197 15.25457 13.41827
# Shear Modulus (GPa) = 18.16509 25.79323 21.97916
#
# Velocity S-wave (km/s) = 3.10620 3.70139 3.41678
# Velocity P-wave (km/s) = 4.36079 5.13513 4.76372
#
# Compressibility (1/GPa) = 0.08634110
#
# Stress axis : x y z
#
# Youngs Moduli (GPa) = 35.76713 45.55120 66.26324
#
# Poissons Ratio (x) = -0.54858 -0.12636
# Poissons Ratio (y) = -0.43075 0.21742
# Poissons Ratio (z) = -0.06821 0.14946
#
# Static dielectric constant tensor:
#      x y z
#    x 1.630830 0.000000 0.000000 
#    y 0.000000 1.645150 0.000000 
#    z 0.000000 0.000000 1.639680 
# 
# From -- ./inp_files/23984.got.cif
#   From: 2010.05.17/outbox.cif.g08.bks.cpg/sg23_12_cif.got.tgz:23984.got - 2010.06.04 12:02:01.
