data_PCOD9332136
_publ_section_title
;
Structure prediction by ZEFSAII (Michael W. Deem and Ramdas Pophale) SiO2 
 PCOD9332136
Probable space group: I 2 2 2
;
_chemical_formula_sum "Si O2"
_cell_formula_units_Z 46
_cell_length_a 12.310860
_cell_length_b 8.956484
_cell_length_c 18.447586
_cell_angle_alpha 90.000000
_cell_angle_beta 90.000000
_cell_angle_gamma 90.000000
_cell_volume 2034.068108
_symmetry_space_group_name_H-M "I 2 2 2"
_symmetry_group_IT_number 23
_symmetry_cell_setting 'orthorhombic'
loop_
_space_group_symop_operation_xyz
x,y,z
-x,-y,z
x,-y,-z
-x,y,-z
1/2+x,1/2+y,1/2+z
1/2-x,1/2-y,1/2+z
1/2+x,1/2-y,1/2-z
1/2-x,1/2+y,1/2-z
loop_
_atom_site_type_symbol
_atom_site_label
_atom_site_fract_x
_atom_site_fract_y
_atom_site_fract_z
Si Si1 0.739362 0.661174 0.535910
Si Si2 0.000000 0.500000 0.000000
Si Si3 0.500000 0.500000 0.766182
Si Si4 0.852847 0.740355 0.684206
Si Si5 0.831927 0.461165 0.783359
Si Si6 0.046428 0.798017 0.854240
Si Si7 0.834508 0.682943 0.904151
O O1 0.753495 0.500000 0.500000
O O2 0.816499 0.709448 0.601760
O O3 0.620003 0.675320 0.574814
O O4 0.747371 0.763187 0.464858
O O5 0.923067 0.406019 0.050172
O O6 0.449884 0.639409 0.809601
O O7 0.578201 0.585578 0.708691
O O8 0.865447 0.576161 0.720374
O O9 0.758102 0.832598 0.726995
O O10 0.927792 0.363596 0.819764
O O11 0.786534 0.572762 0.845101
O O12 0.916856 0.804914 0.869187
#
# Coordination Sequence:
#
# PCOD9332136 Si02
#       7
#     8   2   4   8   8   8   8
#     4  11  24  40  63 101 143 177 214 274 350 416
#     4  12  16  32  50  96 132 166 198 246 344 404
#     4  12  24  42  65  99 136 180 238 286 316 404
#     4  11  25  41  64  98 136 185 229 275 340 401
#     4  11  23  41  64 100 138 176 220 279 343 415
#     4  11  21  38  66 105 138 172 216 279 359 400
#     4  12  20  35  63  95 137 170 210 270 340 409
#
# _framework density 22.614777
#
# number of rings (size 3 to 8) (size 9 to 14) (size 15 to 20)
#    0.000    0.696    5.217    4.174    2.435    0.696 
#    0.000    0.000    0.000    2.087    0.000    0.000 
#    0.000    0.000    0.000    0.000    0.000    0.000 
#
# Total GULP energy -128299.879147 kJ/mol
# GULP energy per Si atom -5578.255615 kJ/mol
# Density = 2.256331 g / cm^3
# Si number density = 22.614777 Si / 1000 Ang^3
#
#
#
# Elastic Constant Matrix: (Units=GPa)
#
#
# Indices 1 2 3 4 5 6 
#
# 1 27.7042 20.9382 23.2127 0.0000 0.0000 0.0000
# 2 20.9382 150.4174 76.7889 0.0000 0.0000 0.0000
# 3 23.2127 76.7889 122.7614 0.0000 0.0000 0.0000
# 4 0.0000 0.0000 0.0000 56.5460 0.0000 0.0000
# 5 0.0000 0.0000 0.0000 0.0000 36.6416 0.0000
# 6 0.0000 0.0000 0.0000 0.0000 0.0000 56.4454
#
#
#
# Elastic Compliance Matrix: (Units=1/GPa)
#
#
# Indices 1 2 3 4 5 6 
#
# 1 0.043644 -0.002736 -0.006541 0.000000 0.000000 0.000000
# 2 -0.002736 0.009939 -0.005699 0.000000 0.000000 0.000000
# 3 -0.006541 -0.005699 0.012948 0.000000 0.000000 0.000000
# 4 0.000000 0.000000 0.000000 0.017685 0.000000 0.000000
# 5 0.000000 0.000000 0.000000 0.000000 0.027291 0.000000
# 6 0.000000 0.000000 0.000000 0.000000 0.000000 0.017716
#
#
# Mechanical properties :
#
#
# Convention : Reuss Voigt Hill
#
# Bulk Modulus (GPa) = 27.33931 60.30696 43.82314
# Shear Modulus (GPa) = 29.17692 41.92280 35.54986
#
# Velocity S-wave (km/s) = 3.59579 4.31022 3.96911
# Velocity P-wave (km/s) = 5.41803 7.17605 6.35809
#
# Compressibility (1/GPa) = 0.03657736
#
# Stress axis : x y z
#
# Youngs Moduli (GPa) = 22.91261 100.61808 77.23332
#
# Poissons Ratio (x) = 0.27529 0.50520
# Poissons Ratio (y) = 0.06269 0.44018
# Poissons Ratio (z) = 0.14988 0.57346
#
# Static dielectric constant tensor:
#      x y z
#    x 1.925140 0.000000 0.000000 
#    y 0.000000 2.012520 0.000000 
#    z 0.000000 0.000000 -5.558890 
# 
# From -- ./inp_files/24701.got.cif
#   From: 2010.05.17/outbox.cif.g08.bks.cpg/sg23_13_cif.got.tgz:24701.got - 2010.06.04 12:02:01.
