data_PCOD9332786
_publ_section_title
;
Structure prediction by ZEFSAII (Michael W. Deem and Ramdas Pophale) SiO2 
 PCOD9332786
Probable space group: I 21 21 21
;
_chemical_formula_sum "Si O2"
_cell_formula_units_Z 56
_cell_length_a 5.639216
_cell_length_b 25.613275
_cell_length_c 15.539216
_cell_angle_alpha 90.000000
_cell_angle_beta 90.000000
_cell_angle_gamma 90.000000
_cell_volume 2244.465560
_symmetry_space_group_name_H-M "I 21 21 21"
_symmetry_group_IT_number 24
_symmetry_cell_setting 'orthorhombic'
loop_
_space_group_symop_operation_xyz
x,y,z
-x,1/2-y,z
x,-y,1/2-z
1/2-x,y,-z
1/2+x,1/2+y,1/2+z
1/2-x,-y,1/2+z
1/2+x,1/2-y,-z
-x,1/2+y,1/2-z
loop_
_atom_site_type_symbol
_atom_site_label
_atom_site_fract_x
_atom_site_fract_y
_atom_site_fract_z
Si Si1 0.999998 0.060695 0.279905
Si Si2 0.500000 0.830831 0.687304
Si Si3 0.500000 0.060938 0.048956
Si Si4 0.000000 0.160269 0.837450
Si Si5 0.499998 0.036533 0.335471
Si Si6 0.500000 0.686125 0.137222
Si Si7 0.500000 0.191556 0.610279
O O1 0.248149 0.065796 0.330346
O O2 1.000000 0.106156 0.207423
O O3 0.751847 0.065796 0.330346
O O4 0.999998 0.000000 0.250000
O O5 0.256972 0.816733 0.639389
O O6 0.500000 0.807074 0.783816
O O7 0.743029 0.816733 0.639389
O O8 0.500000 0.101660 0.127539
O O9 0.500000 0.002416 0.084480
O O10 0.250000 0.069624 0.000000
O O11 0.750000 0.069624 0.000000
O O12 0.000000 0.164524 0.734157
O O13 0.499998 0.000000 0.250000
O O14 0.500000 0.750000 0.144014
O O15 0.258253 0.669747 0.091888
O O16 0.741747 0.669747 0.091888
O O17 0.500000 0.250000 0.574537
#
# Coordination Sequence:
#
# PCOD9332786 Si02
#       7
#     8   8   8   8   8   8   8
#     4  10  17  27  44  66  89 112 149 191 227 264
#     4  10  17  27  46  69  90 118 156 196 235 272
#     4  12  24  37  51  70  95 122 155 195 243 284
#     4  10  18  30  45  63  89 118 151 195 242 280
#     4  10  20  34  51  68  90 119 152 188 227 275
#     4   8  14  24  40  59  79 109 149 191 232 273
#     4   8  14  23  36  59  89 116 146 184 229 278
#
# _framework density 24.950261000000001
#
# number of rings (size 3 to 8) (size 9 to 14) (size 15 to 20)
#    0.000    2.286    0.000    6.000    0.000    0.000 
#    0.000    0.000    0.000    0.857    0.000    0.000 
#    0.000    0.000    0.000    0.000    0.000   14.286 
#
# Total GULP energy -156254.404942 kJ/mol
# GULP energy per Si atom -5580.514462 kJ/mol
# Density = 2.489347 g / cm^3
# Si number density = 24.950261 Si / 1000 Ang^3
#
#
#
# Elastic Constant Matrix: (Units=GPa)
#
#
# Indices 1 2 3 4 5 6 
#
# 1 358.9610 18.4852 41.0131 0.0000 0.0000 0.0000
# 2 18.4852 113.8175 36.2540 0.0000 0.0000 0.0000
# 3 41.0131 36.2540 49.9344 -0.0001 0.0000 0.0000
# 4 0.0000 0.0000 -0.0001 2.5818 0.0000 0.0000
# 5 0.0000 0.0000 0.0000 0.0000 67.9458 0.0000
# 6 0.0000 0.0000 0.0000 0.0000 0.0000 8.8965
#
#
#
# Elastic Compliance Matrix: (Units=1/GPa)
#
#
# Indices 1 2 3 4 5 6 
#
# 1 0.003088 0.000399 -0.002826 0.000000 0.000000 0.000000
# 2 0.000399 0.011481 -0.008663 0.000000 0.000000 0.000000
# 3 -0.002826 -0.008663 0.028637 0.000001 0.000000 0.000000
# 4 0.000000 0.000000 0.000001 0.387322 0.000000 0.000000
# 5 0.000000 0.000000 0.000000 0.000000 0.014718 0.000000
# 6 0.000000 0.000000 0.000000 0.000000 0.000000 0.112403
#
#
# Mechanical properties :
#
#
# Convention : Reuss Voigt Hill
#
# Bulk Modulus (GPa) = 47.56114 79.35750 63.45932
# Shear Modulus (GPa) = 8.52026 44.34888 26.43457
#
# Velocity S-wave (km/s) = 1.84995 4.22060 3.25851
# Velocity P-wave (km/s) = 4.86486 7.45833 6.29657
#
# Compressibility (1/GPa) = 0.02102557
#
# Stress axis : x y z
#
# Youngs Moduli (GPa) = 323.81810 87.10388 34.92043
#
# Poissons Ratio (x) = -0.03471 0.09868
# Poissons Ratio (y) = -0.12905 0.30250
# Poissons Ratio (z) = 0.91504 0.75455
#
# Static dielectric constant tensor:
#      x y z
#    x 2.113150 0.000000 0.000000 
#    y 0.000000 1.987200 0.000000 
#    z 0.000000 0.000000 1.934630 
# 
# From -- ./inp_files/24072.got.cif
#   From: 2010.05.17/outbox.cif.g08.bks.cpg/sg24_13_cif.got.tgz:24072.got - 2010.06.04 00:33:39.
