data_PCOD9332708
_publ_section_title
;
Structure prediction by ZEFSAII (Michael W. Deem and Ramdas Pophale) SiO2 
 PCOD9332708
Probable space group: I 21 21 21
;
_chemical_formula_sum "Si O2"
_cell_formula_units_Z 32
_cell_length_a 5.339194
_cell_length_b 7.300251
_cell_length_c 35.517812
_cell_angle_alpha 90.000000
_cell_angle_beta 90.000000
_cell_angle_gamma 90.000000
_cell_volume 1384.393966
_symmetry_space_group_name_H-M "I 21 21 21"
_symmetry_group_IT_number 24
_symmetry_cell_setting 'orthorhombic'
loop_
_space_group_symop_operation_xyz
x,y,z
-x,1/2-y,z
x,-y,1/2-z
1/2-x,y,-z
1/2+x,1/2+y,1/2+z
1/2-x,-y,1/2+z
1/2+x,1/2-y,-z
-x,1/2+y,1/2-z
loop_
_atom_site_type_symbol
_atom_site_label
_atom_site_fract_x
_atom_site_fract_y
_atom_site_fract_z
Si Si1 0.495039 0.470647 0.979566
Si Si2 0.243036 0.140829 0.782505
Si Si3 0.710498 0.546515 0.366283
Si Si4 0.201122 0.466580 0.104573
O O1 0.500000 0.250000 0.984120
O O2 0.429293 0.497806 0.935748
O O3 0.750000 0.534341 0.000000
O O4 0.250000 0.544135 0.000000
O O5 0.500000 0.250000 0.791101
O O6 0.147426 0.061932 0.822486
O O7 0.000000 0.250000 0.767940
O O8 0.311052 0.000000 0.750000
O O9 0.480714 0.459726 0.389243
O O10 0.752837 0.750363 0.384836
O O11 0.985865 0.461065 0.368127
#
# Coordination Sequence:
#
# PCOD9332708 Si02
#       4
#     8   8   8   8
#     4  10  18  22  31  54  84 122 168 210 248 302
#     4  12  23  40  59  85 114 147 192 256 299 352
#     4  10  17  29  46  66  89 127 182 223 256 326
#     4  10  16  27  44  57  93 127 180 218 256 320
#
# _framework density 23.114805
#
# number of rings (size 3 to 8) (size 9 to 14) (size 15 to 20)
#    0.000    1.500    7.500    2.250    7.000    0.000 
#    0.000    0.000    0.000    0.000    0.000    0.000 
#    0.000    0.000    0.000    0.000    0.000  125.000 
#
# Total GULP energy -89145.926456 kJ/mol
# GULP energy per Si atom -5571.620404 kJ/mol
# Density = 2.306219 g / cm^3
# Si number density = 23.114805 Si / 1000 Ang^3
#
#
#
# Elastic Constant Matrix: (Units=GPa)
#
#
# Indices 1 2 3 4 5 6 
#
# 1 211.3547 7.4809 26.3009 0.0000 0.0000 0.0000
# 2 7.4809 59.1404 11.5324 0.0000 0.0000 0.0000
# 3 26.3009 11.5324 131.5601 0.0000 0.0000 0.0000
# 4 0.0000 0.0000 0.0000 -6.6861 0.0000 0.0000
# 5 0.0000 0.0000 0.0000 0.0000 38.8091 0.0000
# 6 0.0000 0.0000 0.0000 0.0000 0.0000 -15.1610
#
#
#
# Elastic Compliance Matrix: (Units=1/GPa)
#
#
# Indices 1 2 3 4 5 6 
#
# 1 0.004863 -0.000433 -0.000934 0.000000 0.000000 0.000000
# 2 -0.000433 0.017242 -0.001425 0.000000 0.000000 0.000000
# 3 -0.000934 -0.001425 0.007913 0.000000 0.000000 0.000000
# 4 0.000000 0.000000 0.000000 -0.149564 0.000000 0.000000
# 5 0.000000 0.000000 0.000000 0.000000 0.025767 0.000000
# 6 0.000000 0.000000 0.000000 0.000000 0.000000 -0.065959
#
#
# Mechanical properties :
#
#
# Convention : Reuss Voigt Hill
#
# Bulk Modulus (GPa) = 40.92786 54.74262 47.83524
# Shear Modulus (GPa) = -34.24415 27.17515 -3.53450
#
# Velocity S-wave (km/s) = -3.85318 3.43251 -1.23791
# Velocity P-wave (km/s) = 1.43220 6.28043 4.32392
#
# Compressibility (1/GPa) = 0.02443323
#
# Stress axis : x y z
#
# Youngs Moduli (GPa) = 205.63602 57.99950 126.37832
#
# Poissons Ratio (x) = 0.02511 0.11807
# Poissons Ratio (y) = 0.08903 0.18007
# Poissons Ratio (z) = 0.19211 0.08264
#
# Static dielectric constant tensor:
#      x y z
#    x 1.570820 0.000000 0.000000 
#    y 0.000000 1.995750 0.000000 
#    z 0.000000 0.000000 1.900460 
# 
# From -- ./inp_files/37712.got.cif
#   From: 2010.05.17/outbox.cif.g08.bks.cpg/sg24_19_cif.got.tgz:37712.got - 2010.06.04 00:33:39.
