data_PCOD9332573
_publ_section_title
;
Structure prediction by ZEFSAII (Michael W. Deem and Ramdas Pophale) SiO2 
 PCOD9332573
Probable space group: I 2 2 2
;
_chemical_formula_sum "Si O2"
_cell_formula_units_Z 48
_cell_length_a 14.645910
_cell_length_b 5.205981
_cell_length_c 28.630043
_cell_angle_alpha 90.000000
_cell_angle_beta 90.000000
_cell_angle_gamma 90.000000
_cell_volume 2182.935683
_symmetry_space_group_name_H-M "I 2 2 2"
_symmetry_group_IT_number 23
_symmetry_cell_setting 'orthorhombic'
loop_
_space_group_symop_operation_xyz
x,y,z
-x,-y,z
x,-y,-z
-x,y,-z
1/2+x,1/2+y,1/2+z
1/2-x,1/2-y,1/2+z
1/2+x,1/2-y,1/2-z
1/2-x,1/2+y,1/2-z
loop_
_atom_site_type_symbol
_atom_site_label
_atom_site_fract_x
_atom_site_fract_y
_atom_site_fract_z
Si Si1 0.380697 0.633655 0.047035
Si Si2 0.500000 0.000000 0.726022
Si Si3 0.000000 0.500000 0.392350
Si Si4 0.848874 0.144975 0.359668
Si Si5 0.145667 0.530151 0.145572
Si Si6 0.896087 0.045586 0.914910
Si Si7 0.232868 0.000000 0.000000
Si Si8 0.000000 0.000000 0.290350
O O1 0.460826 0.783721 0.073348
O O2 0.344850 0.442175 0.086482
O O3 0.299275 0.813370 0.028794
O O4 0.409518 0.500000 0.000000
O O5 0.586695 0.048990 0.692473
O O6 0.505334 0.749659 0.758211
O O7 0.089225 0.595110 0.363646
O O8 0.746263 0.086827 0.343599
O O9 0.913770 0.988733 0.325023
O O10 0.140921 0.799212 0.115921
O O11 0.101165 0.301226 0.115928
O O12 0.832633 0.104585 0.959355
O O13 0.000000 0.000000 0.930008
#
# Coordination Sequence:
#
# PCOD9332573 Si02
#       8
#     8   4   4   8   8   8   4   4
#     4  12  25  44  66 105 151 204 255 307 366 472
#     4  12  27  52  81 113 147 200 259 338 401 494
#     4  12  25  47  69 106 154 216 257 318 385 457
#     4  12  27  47  76 110 158 202 256 325 398 469
#     4  12  26  49  82 111 152 205 262 324 406 473
#     4  12  24  47  75 113 157 207 257 325 383 467
#     4  12  27  41  70 114 156 202 270 305 381 470
#     4  12  28  50  79 112 156 191 262 332 408 474
#
# _framework density 21.98874
#
# number of rings (size 3 to 8) (size 9 to 14) (size 15 to 20)
#    0.000    0.000    5.000    4.750    0.000    6.333 
#    0.000    1.667    0.000    0.000    0.000    0.000 
#    0.000    0.000    0.000    0.000    0.000    0.000 
#
# Total GULP energy -134092.480120 kJ/mol
# GULP energy per Si atom -5587.186672 kJ/mol
# Density = 2.193869 g / cm^3
# Si number density = 21.988740 Si / 1000 Ang^3
#
#
#
# Elastic Constant Matrix: (Units=GPa)
#
#
# Indices 1 2 3 4 5 6 
#
# 1 135.2784 -4.5106 34.8403 0.0000 0.0000 0.0000
# 2 -4.5106 103.7730 41.7584 0.0000 0.0000 0.0000
# 3 34.8403 41.7584 132.8788 0.0000 0.0000 0.0000
# 4 0.0000 0.0000 0.0000 37.5345 0.0000 0.0000
# 5 0.0000 0.0000 0.0000 0.0000 56.7749 0.0000
# 6 0.0000 0.0000 0.0000 0.0000 0.0000 -27.0936
#
#
#
# Elastic Compliance Matrix: (Units=1/GPa)
#
#
# Indices 1 2 3 4 5 6 
#
# 1 0.008097 0.001381 -0.002557 0.000000 0.000000 0.000000
# 2 0.001381 0.011267 -0.003903 0.000000 0.000000 0.000000
# 3 -0.002557 -0.003903 0.009423 0.000000 0.000000 0.000000
# 4 0.000000 0.000000 0.000000 0.026642 0.000000 0.000000
# 5 0.000000 0.000000 0.000000 0.000000 0.017613 0.000000
# 6 0.000000 0.000000 0.000000 0.000000 0.000000 -0.036909
#
#
# Mechanical properties :
#
#
# Convention : Reuss Voigt Hill
#
# Bulk Modulus (GPa) = 53.68110 57.34514 55.51312
# Shear Modulus (GPa) = 95.23842 33.43263 64.33553
#
# Velocity S-wave (km/s) = 6.58835 3.90352 5.41497
# Velocity P-wave (km/s) = 9.07420 6.81561 8.02476
#
# Compressibility (1/GPa) = 0.01862853
#
# Stress axis : x y z
#
# Youngs Moduli (GPa) = 123.50694 88.75542 106.12856
#
# Poissons Ratio (x) = -0.12256 0.27136
# Poissons Ratio (y) = -0.17054 0.41420
# Poissons Ratio (z) = 0.31579 0.34639
#
# Static dielectric constant tensor:
#      x y z
#    x 1.947350 0.000000 0.000000 
#    y 0.000000 1.876280 0.000000 
#    z 0.000000 0.000000 1.785900 
# 
# From -- ./inp_files/2632.got.cif
#   From: 2010.05.17/outbox.cif.g08.bks.cpg/sg23_2_cif.got.tgz:2632.got - 2010.06.04 12:02:01.
