data_PCOD9332634
_publ_section_title
;
Structure prediction by ZEFSAII (Michael W. Deem and Ramdas Pophale) SiO2 
 PCOD9332634
Probable space group: I 2 2 2
;
_chemical_formula_sum "Si O2"
_cell_formula_units_Z 24
_cell_length_a 18.000000
_cell_length_b 15.000000
_cell_length_c 9.000000
_cell_angle_alpha 90.000000
_cell_angle_beta 90.000000
_cell_angle_gamma 90.000000
_cell_volume 2430.000000
_symmetry_space_group_name_H-M "I 2 2 2"
_symmetry_group_IT_number 23
_symmetry_cell_setting 'orthorhombic'
loop_
_space_group_symop_operation_xyz
x,y,z
-x,-y,z
x,-y,-z
-x,y,-z
1/2+x,1/2+y,1/2+z
1/2-x,1/2-y,1/2+z
1/2+x,1/2-y,1/2-z
1/2-x,1/2+y,1/2-z
loop_
_atom_site_type_symbol
_atom_site_label
_atom_site_fract_x
_atom_site_fract_y
_atom_site_fract_z
Si Si1 0.472407 0.906401 0.671479
Si Si2 0.802856 0.000000 0.500000
Si Si3 0.975197 0.219502 0.825199
Si Si4 0.148104 0.000000 0.000000
Si Si5 0.307614 0.311069 0.599631
Si Si6 0.932027 0.060619 0.294217
Si Si7 0.698603 0.848463 0.358542
O O1 0.500000 0.908791 0.500000
O O2 0.513216 0.819301 0.733301
O O3 0.384116 0.886855 0.672511
O O4 0.500000 0.000000 0.738026
O O5 0.859687 0.944093 0.602986
O O6 0.750532 0.930199 0.413745
O O7 0.888651 0.193266 0.820358
O O8 0.031229 0.155646 0.737780
O O9 0.000000 0.214721 0.000000
O O10 0.194019 0.909213 0.975216
O O11 0.095701 0.018750 0.860369
O O12 0.306742 0.229626 0.482640
O O13 0.240181 0.307399 0.715635
O O14 0.000000 0.000000 0.347262
#
# Coordination Sequence:
#
# PCOD9332634 Si02
#       7
#     8   4   8   4   8   8   8
#     4  10  20  40  65  94 122 176 234 273 306 395
#     4  12  27  40  61 102 146 176 216 296 365 402
#     4  11  19  38  67  97 123 175 233 273 325 409
#     4  12  21  42  60  96 123 176 226 268 335 412
#     4  12  26  42  66 101 135 175 223 285 352 403
#     4  12  21  38  66  95 132 170 224 284 342 412
#     4  12  26  43  66 103 139 178 226 288 348 407
#
# _framework density 9.8765429999999999
#
# number of rings (size 3 to 8) (size 9 to 14) (size 15 to 20)
#    0.000    0.500    8.333    1.500    4.667    0.000 
#    0.000    0.000    0.000    0.000    0.000    0.000 
#    0.000    0.000    0.000    0.000    0.000    0.000 
#
# Total GULP energy -134084.204084 kJ/mol
# GULP energy per Si atom -5586.841837 kJ/mol
# Density = 0.985406 g / cm^3
# Si number density = 9.876543 Si / 1000 Ang^3
#
#
#
# Elastic Constant Matrix: (Units=GPa)
#
#
# Indices 1 2 3 4 5 6 
#
# 1 146.2131 44.0828 34.9907 0.0000 0.0000 0.0000
# 2 44.0828 174.3519 21.2643 0.0000 0.0000 0.0000
# 3 34.9907 21.2643 53.5761 0.0000 0.0000 0.0000
# 4 0.0000 0.0000 0.0000 13.5141 0.0000 0.0000
# 5 0.0000 0.0000 0.0000 0.0000 35.4737 0.0000
# 6 0.0000 0.0000 0.0000 0.0000 0.0000 27.6232
#
#
#
# Elastic Compliance Matrix: (Units=1/GPa)
#
#
# Indices 1 2 3 4 5 6 
#
# 1 0.008484 -0.001544 -0.004928 0.000000 0.000000 0.000000
# 2 -0.001544 0.006308 -0.001495 0.000000 0.000000 0.000000
# 3 -0.004928 -0.001495 0.022477 0.000000 0.000000 0.000000
# 4 0.000000 0.000000 0.000000 0.073997 0.000000 0.000000
# 5 0.000000 0.000000 0.000000 0.000000 0.028190 0.000000
# 6 0.000000 0.000000 0.000000 0.000000 0.000000 0.036201
#
#
# Mechanical properties :
#
#
# Convention : Reuss Voigt Hill
#
# Bulk Modulus (GPa) = 46.87254 63.86853 55.37054
# Shear Modulus (GPa) = 25.16300 33.57576 29.36938
#
# Velocity S-wave (km/s) = 3.57301 4.12730 3.86012
# Velocity P-wave (km/s) = 6.38769 7.42405 6.92528
#
# Compressibility (1/GPa) = 0.02133445
#
# Stress axis : x y z
#
# Youngs Moduli (GPa) = 117.86523 158.52128 44.48954
#
# Poissons Ratio (x) = 0.24477 0.21926
# Poissons Ratio (y) = 0.18199 0.06653
# Poissons Ratio (z) = 0.58087 0.23704
#
# Static dielectric constant tensor:
#      x y z
#    x 1.689880 0.000000 0.000000 
#    y 0.000000 1.742900 0.000000 
#    z 0.000000 0.000000 1.901820 
# 
# From -- ./inp_files/11092.got.cif
#   From: 2010.05.17/outbox.ucp.g08.bks.cvg/sg23_6_cif.got.tgz:11092.got - 2010.06.11 15:19:07.
