data_PCOD9332778
_publ_section_title
;
Structure prediction by ZEFSAII (Michael W. Deem and Ramdas Pophale) SiO2 
 PCOD9332778
Probable space group: I 21 21 21
;
_chemical_formula_sum "Si O2"
_cell_formula_units_Z 64
_cell_length_a 7.671900
_cell_length_b 29.221602
_cell_length_c 21.659318
_cell_angle_alpha 90.000000
_cell_angle_beta 90.000000
_cell_angle_gamma 90.000000
_cell_volume 4855.698719
_symmetry_space_group_name_H-M "I 21 21 21"
_symmetry_group_IT_number 24
_symmetry_cell_setting 'orthorhombic'
loop_
_space_group_symop_operation_xyz
x,y,z
-x,1/2-y,z
x,-y,1/2-z
1/2-x,y,-z
1/2+x,1/2+y,1/2+z
1/2-x,-y,1/2+z
1/2+x,1/2-y,-z
-x,1/2+y,1/2-z
loop_
_atom_site_type_symbol
_atom_site_label
_atom_site_fract_x
_atom_site_fract_y
_atom_site_fract_z
Si Si1 0.209148 0.198270 0.929550
Si Si2 0.709147 0.198270 0.070450
Si Si3 0.500000 0.075207 0.766160
Si Si4 0.500000 0.983270 0.850202
Si Si5 0.201752 0.023357 0.928235
Si Si6 0.793944 0.885524 0.653701
Si Si7 0.798248 0.023357 0.928235
Si Si8 0.293943 0.885524 0.346299
O O1 0.276743 0.250000 0.920030
O O2 0.267618 0.160460 0.880781
O O3 0.000000 0.199735 0.924593
O O4 0.250000 0.184691 0.000000
O O5 0.767618 0.160460 0.119219
O O6 0.750000 0.184691 0.000000
O O7 0.500000 0.059967 0.695153
O O8 0.671282 0.102151 0.788868
O O9 0.328718 0.102151 0.788868
O O10 0.500000 0.028100 0.805948
O O11 0.330732 0.988918 0.893104
O O12 0.669268 0.988918 0.893104
O O13 1.000000 0.010175 0.921747
O O14 0.223502 0.072771 0.895304
O O15 0.250000 0.026857 0.000000
O O16 0.000000 0.882135 0.669278
O O17 0.776498 0.927229 0.604696
O O18 0.750000 0.026857 0.000000
#
# Coordination Sequence:
#
# PCOD9332778 Si02
#       8
#     8   8   8   8   8   8   8   8
#     4   9  17  27  38  55  79 104 133 171 208 237
#     4   9  17  27  38  55  79 104 133 171 208 237
#     4   9  18  30  43  54  74 104 133 167 204 237
#     4   9  18  30  40  58  78  97 130 169 204 241
#     4  10  17  26  41  59  79 101 129 167 204 238
#     4   9  18  28  40  57  76 103 138 169 199 235
#     4  10  17  26  41  59  79 101 129 167 204 238
#     4   9  18  28  40  57  76 103 138 169 199 235
#
# _framework density 13.180389999999999
#
# number of rings (size 3 to 8) (size 9 to 14) (size 15 to 20)
#    0.000    2.750    1.250    0.750    1.750    1.000 
#    0.000    5.000    0.000    0.000    0.000    0.000 
#    0.000    0.000    0.000    0.000    0.000    5.000 
#
# Total GULP energy -178236.492333 kJ/mol
# GULP energy per Si atom -5569.890385 kJ/mol
# Density = 1.315039 g / cm^3
# Si number density = 13.180390 Si / 1000 Ang^3
#
#
#
# Elastic Constant Matrix: (Units=GPa)
#
#
# Indices 1 2 3 4 5 6 
#
# 1 81.0264 32.2637 41.3261 0.0000 0.0000 0.0000
# 2 32.2637 51.6486 29.1064 0.0000 0.0000 0.0000
# 3 41.3261 29.1064 51.2938 0.0000 0.0000 0.0000
# 4 0.0000 0.0000 0.0000 24.5914 0.0000 0.0000
# 5 0.0000 0.0000 0.0000 0.0000 17.8463 0.0000
# 6 0.0000 0.0000 0.0000 0.0000 0.0000 11.1552
#
#
#
# Elastic Compliance Matrix: (Units=1/GPa)
#
#
# Indices 1 2 3 4 5 6 
#
# 1 0.021968 -0.005511 -0.014572 0.000000 0.000000 0.000000
# 2 -0.005511 0.029846 -0.012496 0.000000 0.000000 0.000000
# 3 -0.014572 -0.012496 0.038327 0.000000 0.000000 0.000000
# 4 0.000000 0.000000 0.000000 0.040665 0.000000 0.000000
# 5 0.000000 0.000000 0.000000 0.000000 0.056034 0.000000
# 6 0.000000 0.000000 0.000000 0.000000 0.000000 0.089644
#
#
# Mechanical properties :
#
#
# Convention : Reuss Voigt Hill
#
# Bulk Modulus (GPa) = 40.02721 43.26235 41.64478
# Shear Modulus (GPa) = 14.28693 16.13677 15.21185
#
# Velocity S-wave (km/s) = 3.29592 3.50280 3.40093
# Velocity P-wave (km/s) = 6.70215 7.01812 6.86195
#
# Compressibility (1/GPa) = 0.02498301
#
# Stress axis : x y z
#
# Youngs Moduli (GPa) = 45.52004 33.50495 26.09152
#
# Poissons Ratio (x) = 0.18465 0.38021
# Poissons Ratio (y) = 0.25087 0.32604
# Poissons Ratio (z) = 0.66332 0.41868
#
# Static dielectric constant tensor:
#      x y z
#    x 1.467480 0.000000 0.000000 
#    y 0.000000 1.429130 0.000000 
#    z 0.000000 0.000000 1.405180 
# 
# From -- ./inp_files/33045.got.cif
#   From: 2010.05.17/outbox.cif.g08.bks.cpg/sg24_17_cif.got.tgz:33045.got - 2010.06.04 00:33:39.
