data_PCOD9332308
_publ_section_title
;
Structure prediction by ZEFSAII (Michael W. Deem and Ramdas Pophale) SiO2 
 PCOD9332308
Probable space group: I 2 2 2
;
_chemical_formula_sum "Si O2"
_cell_formula_units_Z 32
_cell_length_a 36.140583
_cell_length_b 4.834185
_cell_length_c 8.266081
_cell_angle_alpha 90.000000
_cell_angle_beta 90.000000
_cell_angle_gamma 90.000000
_cell_volume 1444.169196
_symmetry_space_group_name_H-M "I 2 2 2"
_symmetry_group_IT_number 23
_symmetry_cell_setting 'orthorhombic'
loop_
_space_group_symop_operation_xyz
x,y,z
-x,-y,z
x,-y,-z
-x,y,-z
1/2+x,1/2+y,1/2+z
1/2-x,1/2-y,1/2+z
1/2+x,1/2-y,1/2-z
1/2-x,1/2+y,1/2-z
loop_
_atom_site_type_symbol
_atom_site_label
_atom_site_fract_x
_atom_site_fract_y
_atom_site_fract_z
Si Si1 0.576598 0.619054 0.176936
Si Si2 0.340916 0.260538 0.121116
Si Si3 0.042259 0.394224 0.172896
Si Si4 0.271008 0.623888 0.681153
O O1 0.620632 0.636761 0.201047
O O2 0.563101 0.930276 0.192809
O O3 0.552535 0.423807 0.296466
O O4 0.569984 0.500000 0.000000
O O5 0.309251 0.240682 0.255875
O O6 0.328966 0.500000 0.000000
O O7 0.346702 0.000000 0.000000
O O8 0.000000 0.500000 0.181197
O O9 0.056596 0.500000 0.000000
O O10 0.272662 0.500000 0.500000
O O11 0.258849 0.367165 0.794611
#
# Coordination Sequence:
#
# PCOD9332308 Si02
#       4
#     8   8   8   8
#     4  11  23  41  65  93 124 165 214 264 319 380
#     4  11  23  43  66  92 130 170 212 266 325 383
#     4  11  24  41  62  91 129 169 210 263 323 382
#     4  12  25  42  66  96 129 169 216 266 323 383
#
# _framework density 22.158069999999999
#
# number of rings (size 3 to 8) (size 9 to 14) (size 15 to 20)
#    0.000    0.750    0.000    9.750    0.000    7.000 
#    0.000    0.000    0.000    0.000    0.000    0.000 
#    0.000    0.000    0.000    0.000    0.000    0.000 
#
# Total GULP energy -89384.836626 kJ/mol
# GULP energy per Si atom -5586.552289 kJ/mol
# Density = 2.210764 g / cm^3
# Si number density = 22.158070 Si / 1000 Ang^3
#
#
#
# Elastic Constant Matrix: (Units=GPa)
#
#
# Indices 1 2 3 4 5 6 
#
# 1 84.1780 7.2088 53.8543 0.0000 0.0000 0.0000
# 2 7.2088 105.7465 21.7426 0.0000 0.0000 0.0000
# 3 53.8543 21.7426 72.5708 0.0000 0.0000 0.0000
# 4 0.0000 0.0000 0.0000 39.8495 0.0000 0.0000
# 5 0.0000 0.0000 0.0000 0.0000 15.4708 0.0000
# 6 0.0000 0.0000 0.0000 0.0000 0.0000 32.3148
#
#
#
# Elastic Compliance Matrix: (Units=1/GPa)
#
#
# Indices 1 2 3 4 5 6 
#
# 1 0.023036 0.002072 -0.017716 0.000000 0.000000 0.000000
# 2 0.002072 0.010264 -0.004613 0.000000 0.000000 0.000000
# 3 -0.017716 -0.004613 0.028308 0.000000 0.000000 0.000000
# 4 0.000000 0.000000 0.000000 0.025094 0.000000 0.000000
# 5 0.000000 0.000000 0.000000 0.000000 0.064638 0.000000
# 6 0.000000 0.000000 0.000000 0.000000 0.000000 0.030946
#
#
# Mechanical properties :
#
#
# Convention : Reuss Voigt Hill
#
# Bulk Modulus (GPa) = 47.40362 47.56743 47.48553
# Shear Modulus (GPa) = 21.75514 29.50633 25.63073
#
# Velocity S-wave (km/s) = 3.13679 3.65311 3.40475
# Velocity P-wave (km/s) = 5.87870 6.26957 6.07728
#
# Compressibility (1/GPa) = 0.02109543
#
# Stress axis : x y z
#
# Youngs Moduli (GPa) = 43.41020 97.43018 35.32522
#
# Poissons Ratio (x) = -0.20189 0.62581
# Poissons Ratio (y) = -0.08995 0.16295
# Poissons Ratio (z) = 0.76904 0.44943
#
# Static dielectric constant tensor:
#      x y z
#    x 1.857060 0.000000 0.000000 
#    y 0.000000 1.762400 0.000000 
#    z 0.000000 0.000000 1.946720 
# 
# From -- ./inp_files/13158.got.cif
#   From: 2010.05.17/outbox.cif.g08.bks.cpg/sg23_7_cif.got.tgz:13158.got - 2010.06.04 12:02:01.
