data_PCOD9332351
_publ_section_title
;
Structure prediction by ZEFSAII (Michael W. Deem and Ramdas Pophale) SiO2 
 PCOD9332351
Probable space group: I 2 2 2
;
_chemical_formula_sum "Si O2"
_cell_formula_units_Z 44
_cell_length_a 8.813666
_cell_length_b 8.113941
_cell_length_c 30.109874
_cell_angle_alpha 90.000000
_cell_angle_beta 90.000000
_cell_angle_gamma 90.000000
_cell_volume 2153.264459
_symmetry_space_group_name_H-M "I 2 2 2"
_symmetry_group_IT_number 23
_symmetry_cell_setting 'orthorhombic'
loop_
_space_group_symop_operation_xyz
x,y,z
-x,-y,z
x,-y,-z
-x,y,-z
1/2+x,1/2+y,1/2+z
1/2-x,1/2-y,1/2+z
1/2+x,1/2-y,1/2-z
1/2-x,1/2+y,1/2-z
loop_
_atom_site_type_symbol
_atom_site_label
_atom_site_fract_x
_atom_site_fract_y
_atom_site_fract_z
Si Si1 0.176453 0.534692 0.896397
Si Si2 0.500000 0.000000 0.095627
Si Si3 0.333292 0.764902 0.154298
Si Si4 0.420674 0.660341 0.951903
Si Si5 0.322170 0.706038 0.815123
Si Si6 0.821928 0.970025 0.774412
O O1 0.254064 0.368134 0.877201
O O2 0.248087 0.606549 0.942129
O O3 0.220906 0.665743 0.857984
O O4 0.000000 0.500000 0.900424
O O5 0.365036 0.930862 0.126056
O O6 0.550336 0.839226 0.068564
O O7 0.501796 0.711035 0.170092
O O8 0.233333 0.815520 0.196306
O O9 0.500000 0.500000 0.929360
O O10 0.500000 0.667375 0.000000
O O11 0.298097 0.568519 0.777374
O O12 0.273712 0.875046 0.791614
O O13 0.000000 0.000000 0.781454
#
# Coordination Sequence:
#
# PCOD9332351 Si02
#       6
#     8   4   8   8   8   8
#     4  12  24  43  70 104 141 182 228 295 354 413
#     4  12  21  44  74 104 130 182 244 276 340 427
#     4  12  23  42  68  96 137 188 241 283 345 427
#     4  11  23  44  75 107 135 178 233 283 352 436
#     4  12  23  41  60  91 133 190 240 280 353 421
#     4  12  24  37  57  94 135 182 241 305 342 393
#
# _framework density 20.434090999999999
#
# number of rings (size 3 to 8) (size 9 to 14) (size 15 to 20)
#    0.000    0.182    5.455    5.182    0.000    1.455 
#    0.000    1.818    0.000    0.000    9.455    0.000 
#    0.000    0.000    0.000    0.000    0.000    0.000 
#
# Total GULP energy -122870.898494 kJ/mol
# GULP energy per Si atom -5585.040841 kJ/mol
# Density = 2.038758 g / cm^3
# Si number density = 20.434091 Si / 1000 Ang^3
#
#
#
# Elastic Constant Matrix: (Units=GPa)
#
#
# Indices 1 2 3 4 5 6 
#
# 1 143.1729 35.3800 65.7577 0.0000 0.0000 0.0000
# 2 35.3800 135.0108 44.0614 0.0000 0.0000 0.0000
# 3 65.7577 44.0614 117.1945 0.0000 0.0000 0.0000
# 4 0.0000 0.0000 0.0000 44.5502 0.0000 0.0000
# 5 0.0000 0.0000 0.0000 0.0000 24.2754 0.0000
# 6 0.0000 0.0000 0.0000 0.0000 0.0000 36.8731
#
#
#
# Elastic Compliance Matrix: (Units=1/GPa)
#
#
# Indices 1 2 3 4 5 6 
#
# 1 0.009495 -0.000854 -0.005006 0.000000 0.000000 0.000000
# 2 -0.000854 0.008520 -0.002724 0.000000 0.000000 0.000000
# 3 -0.005006 -0.002724 0.012366 0.000000 0.000000 0.000000
# 4 0.000000 0.000000 0.000000 0.022447 0.000000 0.000000
# 5 0.000000 0.000000 0.000000 0.000000 0.041194 0.000000
# 6 0.000000 0.000000 0.000000 0.000000 0.000000 0.027120
#
#
# Mechanical properties :
#
#
# Convention : Reuss Voigt Hill
#
# Bulk Modulus (GPa) = 75.69111 76.19736 75.94423
# Shear Modulus (GPa) = 35.03503 37.81834 36.42668
#
# Velocity S-wave (km/s) = 4.14519 4.30670 4.22672
# Velocity P-wave (km/s) = 7.74804 7.88039 7.81449
#
# Compressibility (1/GPa) = 0.01321159
#
# Stress axis : x y z
#
# Youngs Moduli (GPa) = 105.31743 117.37643 80.86690
#
# Poissons Ratio (x) = 0.10028 0.40486
# Poissons Ratio (y) = 0.08998 0.22026
# Poissons Ratio (z) = 0.52727 0.31970
#
# Static dielectric constant tensor:
#      x y z
#    x 1.711340 0.000000 0.000000 
#    y 0.000000 1.789270 0.000000 
#    z 0.000000 0.000000 1.785340 
# 
# From -- ./inp_files/13289.got.cif
#   From: 2010.05.17/outbox.cif.g08.bks.cpg/sg23_7_cif.got.tgz:13289.got - 2010.06.04 12:02:01.
