data_PCOD9332525
_publ_section_title
;
Structure prediction by ZEFSAII (Michael W. Deem and Ramdas Pophale) SiO2 
 PCOD9332525
Probable space group: I 2 2 2
;
_chemical_formula_sum "Si O2"
_cell_formula_units_Z 34
_cell_length_a 12.228698
_cell_length_b 5.100924
_cell_length_c 21.828124
_cell_angle_alpha 90.000000
_cell_angle_beta 90.000000
_cell_angle_gamma 90.000000
_cell_volume 1361.587278
_symmetry_space_group_name_H-M "I 2 2 2"
_symmetry_group_IT_number 23
_symmetry_cell_setting 'orthorhombic'
loop_
_space_group_symop_operation_xyz
x,y,z
-x,-y,z
x,-y,-z
-x,y,-z
1/2+x,1/2+y,1/2+z
1/2-x,1/2-y,1/2+z
1/2+x,1/2-y,1/2-z
1/2-x,1/2+y,1/2-z
loop_
_atom_site_type_symbol
_atom_site_label
_atom_site_fract_x
_atom_site_fract_y
_atom_site_fract_z
Si Si1 0.308625 0.633460 0.084619
Si Si2 0.000000 0.000000 0.500000
Si Si3 0.676796 0.695691 0.266709
Si Si4 0.425491 0.747072 0.597922
Si Si5 0.113566 0.609658 0.353583
O O1 0.187721 0.700731 0.061085
O O2 0.324551 0.336351 0.108444
O O3 0.319269 0.841669 0.140083
O O4 0.411145 0.663560 0.039052
O O5 0.732272 0.416837 0.251821
O O6 0.612056 0.719846 0.330476
O O7 0.591937 0.762636 0.211912
O O8 0.500000 0.500000 0.580778
O O9 0.500000 0.000000 0.592138
O O10 0.000000 0.500000 0.377208
#
# Coordination Sequence:
#
# PCOD9332525 Si02
#       5
#     8   2   8   8   8
#     4  12  26  46  75 106 147 188 253 321 385 442
#     4  12  28  54  82 114 136 190 256 340 408 440
#     4  12  22  39  67 104 152 205 250 290 360 447
#     4  12  25  45  70 107 156 206 246 304 368 470
#     4  12  22  42  67 106 148 189 239 309 369 432
#
# _framework density 24.970856000000001
#
# number of rings (size 3 to 8) (size 9 to 14) (size 15 to 20)
#    0.000    0.000    7.059    3.529    0.000    3.765 
#    0.000    0.588    0.000    1.412    0.000    0.000 
#    0.000    0.000    0.000    0.000    0.000    0.000 
#
# Total GULP energy -94871.168685 kJ/mol
# GULP energy per Si atom -5580.656981 kJ/mol
# Density = 2.491402 g / cm^3
# Si number density = 24.970856 Si / 1000 Ang^3
#
#
#
# Elastic Constant Matrix: (Units=GPa)
#
#
# Indices 1 2 3 4 5 6 
#
# 1 198.5901 66.1466 20.8135 0.0000 0.0000 0.0000
# 2 66.1466 165.1125 7.3503 0.0000 0.0000 0.0000
# 3 20.8135 7.3503 60.6113 0.0000 0.0000 0.0000
# 4 0.0000 0.0000 0.0000 26.7502 0.0000 0.0000
# 5 0.0000 0.0000 0.0000 0.0000 13.5880 0.0000
# 6 0.0000 0.0000 0.0000 0.0000 0.0000 54.6599
#
#
#
# Elastic Compliance Matrix: (Units=1/GPa)
#
#
# Indices 1 2 3 4 5 6 
#
# 1 0.005995 -0.002323 -0.001777 0.000000 0.000000 0.000000
# 2 -0.002323 0.006989 -0.000050 0.000000 0.000000 0.000000
# 3 -0.001777 -0.000050 0.017115 0.000000 0.000000 0.000000
# 4 0.000000 0.000000 0.000000 0.037383 0.000000 0.000000
# 5 0.000000 0.000000 0.000000 0.000000 0.073595 0.000000
# 6 0.000000 0.000000 0.000000 0.000000 0.000000 0.018295
#
#
# Mechanical properties :
#
#
# Convention : Reuss Voigt Hill
#
# Bulk Modulus (GPa) = 45.87180 68.10386 56.98783
# Shear Modulus (GPa) = 28.58153 40.99984 34.79068
#
# Velocity S-wave (km/s) = 3.38686 4.05644 3.73668
# Velocity P-wave (km/s) = 5.80555 7.01941 6.44114
#
# Compressibility (1/GPa) = 0.02179989
#
# Stress axis : x y z
#
# Youngs Moduli (GPa) = 166.79426 143.07740 58.42866
#
# Poissons Ratio (x) = 0.33233 0.10383
# Poissons Ratio (y) = 0.38742 0.00292
# Poissons Ratio (z) = 0.29641 0.00715
#
# Static dielectric constant tensor:
#      x y z
#    x 2.162360 0.000000 0.000000 
#    y 0.000000 1.983110 0.000000 
#    z 0.000000 0.000000 2.079990 
# 
# From -- ./inp_files/4294.got.cif
#   From: 2010.05.17/outbox.cif.g08.bks.cpg/sg23_3_cif.got.tgz:4294.got - 2010.06.04 12:02:01.
