data_PCOD9332402
_publ_section_title
;
Structure prediction by ZEFSAII (Michael W. Deem and Ramdas Pophale) SiO2 
 PCOD9332402
Probable space group: I 2 2 2
;
_chemical_formula_sum "Si O2"
_cell_formula_units_Z 32
_cell_length_a 7.878541
_cell_length_b 14.688193
_cell_length_c 11.139811
_cell_angle_alpha 90.000000
_cell_angle_beta 90.000000
_cell_angle_gamma 90.000000
_cell_volume 1289.115981
_symmetry_space_group_name_H-M "I 2 2 2"
_symmetry_group_IT_number 23
_symmetry_cell_setting 'orthorhombic'
loop_
_space_group_symop_operation_xyz
x,y,z
-x,-y,z
x,-y,-z
-x,y,-z
1/2+x,1/2+y,1/2+z
1/2-x,1/2-y,1/2+z
1/2+x,1/2-y,1/2-z
1/2-x,1/2+y,1/2-z
loop_
_atom_site_type_symbol
_atom_site_label
_atom_site_fract_x
_atom_site_fract_y
_atom_site_fract_z
Si Si1 0.255129 0.395118 0.971889
Si Si2 0.266440 0.976223 0.139007
Si Si3 0.435596 0.839514 0.309063
Si Si4 0.446366 0.370528 0.748151
O O1 0.422094 0.391219 0.889286
O O2 0.102277 0.357833 0.888100
O O3 0.220082 0.500000 0.000000
O O4 0.223911 0.345775 0.098537
O O5 0.407908 0.915764 0.206656
O O6 0.102505 0.912136 0.171994
O O7 0.211680 0.072827 0.194215
O O8 0.294231 0.000000 0.000000
O O9 0.440467 0.737181 0.263046
#
# Coordination Sequence:
#
# PCOD9332402 Si02
#       4
#     8   8   8   8
#     4  11  24  46  73 102 144 188 245 301 348 425
#     4  11  26  46  69 106 148 190 234 300 360 428
#     4  11  24  43  75 105 144 193 239 296 362 424
#     4  11  24  43  72 104 144 192 238 289 365 420
#
# _framework density 24.823214
#
# number of rings (size 3 to 8) (size 9 to 14) (size 15 to 20)
#    0.000    1.000    2.500    4.500   10.500    1.000 
#    0.000    3.750    0.000    0.000    0.000    0.000 
#    0.000    0.000    0.000    0.000    0.000    0.000 
#
# Total GULP energy -89493.395421 kJ/mol
# GULP energy per Si atom -5593.337214 kJ/mol
# Density = 2.476672 g / cm^3
# Si number density = 24.823214 Si / 1000 Ang^3
#
#
#
# Elastic Constant Matrix: (Units=GPa)
#
#
# Indices 1 2 3 4 5 6 
#
# 1 104.7337 21.2615 23.1090 0.0000 0.0000 0.0000
# 2 21.2615 219.9135 73.0504 0.0000 0.0000 0.0000
# 3 23.1090 73.0504 217.0958 0.0000 0.0000 0.0001
# 4 0.0000 0.0000 0.0000 19.4294 0.0000 0.0000
# 5 0.0000 0.0000 0.0000 0.0000 15.9809 0.0000
# 6 0.0000 0.0000 0.0001 0.0000 0.0000 37.2349
#
#
#
# Elastic Compliance Matrix: (Units=1/GPa)
#
#
# Indices 1 2 3 4 5 6 
#
# 1 0.009868 -0.000681 -0.000821 0.000000 0.000000 0.000000
# 2 -0.000681 0.005166 -0.001666 0.000000 0.000000 0.000000
# 3 -0.000821 -0.001666 0.005254 0.000000 0.000000 0.000000
# 4 0.000000 0.000000 0.000000 0.051468 0.000000 0.000000
# 5 0.000000 0.000000 0.000000 0.000000 0.062575 0.000000
# 6 0.000000 0.000000 0.000000 0.000000 0.000000 0.026857
#
#
# Mechanical properties :
#
#
# Convention : Reuss Voigt Hill
#
# Bulk Modulus (GPa) = 71.67639 86.28720 78.98179
# Shear Modulus (GPa) = 29.04023 42.81718 35.92871
#
# Velocity S-wave (km/s) = 3.42406 4.15768 3.80858
# Velocity P-wave (km/s) = 6.67606 7.60819 7.15731
#
# Compressibility (1/GPa) = 0.01395160
#
# Stress axis : x y z
#
# Youngs Moduli (GPa) = 101.34278 193.55471 190.32239
#
# Poissons Ratio (x) = 0.13186 0.15628
# Poissons Ratio (y) = 0.06904 0.31707
# Poissons Ratio (z) = 0.08322 0.32245
#
# Static dielectric constant tensor:
#      x y z
#    x 2.190420 0.000000 0.000000 
#    y 0.000000 2.823260 0.000000 
#    z 0.000000 0.000000 1.993200 
# 
# From -- ./inp_files/14252.got.cif
#   From: 2010.05.17/outbox.cif.g08.bks.cpg/sg23_8_cif.got.tgz:14252.got - 2010.06.04 12:02:01.
