data_PCOD9332707
_publ_section_title
;
Structure prediction by ZEFSAII (Michael W. Deem and Ramdas Pophale) SiO2 
 PCOD9332707
Probable space group: I 21 21 21
;
_chemical_formula_sum "Si O2"
_cell_formula_units_Z 48
_cell_length_a 5.030314
_cell_length_b 23.241486
_cell_length_c 28.432088
_cell_angle_alpha 90.000000
_cell_angle_beta 90.000000
_cell_angle_gamma 90.000000
_cell_volume 3324.051488
_symmetry_space_group_name_H-M "I 21 21 21"
_symmetry_group_IT_number 24
_symmetry_cell_setting 'orthorhombic'
loop_
_space_group_symop_operation_xyz
x,y,z
-x,1/2-y,z
x,-y,1/2-z
1/2-x,y,-z
1/2+x,1/2+y,1/2+z
1/2-x,-y,1/2+z
1/2+x,1/2-y,-z
-x,1/2+y,1/2-z
loop_
_atom_site_type_symbol
_atom_site_label
_atom_site_fract_x
_atom_site_fract_y
_atom_site_fract_z
Si Si1 0.747402 0.209546 0.210625
Si Si2 0.388506 0.400762 0.733788
Si Si3 0.499921 0.682628 0.466584
Si Si4 0.426804 0.621374 0.368637
Si Si5 0.122064 0.041445 0.703790
Si Si6 0.443860 0.056823 0.835180
O O1 0.500000 0.250000 0.221344
O O2 0.799139 0.162408 0.251124
O O3 0.688077 0.172723 0.163610
O O4 0.000000 0.250000 0.203698
O O5 0.681827 0.405271 0.712961
O O6 0.423327 0.434351 0.783707
O O7 0.174178 0.433568 0.701375
O O8 0.500000 0.750000 0.451950
O O9 0.750000 0.672138 0.500000
O O10 0.487189 0.643816 0.420507
O O11 0.250000 0.673093 0.500000
O O12 0.703417 0.601420 0.344765
O O13 0.196024 0.572138 0.367960
O O14 0.116096 0.000000 0.750000
O O15 0.277867 0.002747 0.665539
#
# Coordination Sequence:
#
# PCOD9332707 Si02
#       6
#     8   8   8   8   8   8
#     4  11  20  29  40  57  79 104 134 167 205 242
#     4  10  18  27  39  56  77 102 127 155 196 243
#     4  10  21  34  47  61  78 105 138 172 217 268
#     4  11  20  32  45  61  80 100 132 175 219 259
#     4  10  16  27  41  56  77  98 122 154 195 248
#     4  10  19  29  44  63  78  99 127 163 212 256
#
# _framework density 14.440211
#
# number of rings (size 3 to 8) (size 9 to 14) (size 15 to 20)
#    0.000    1.667    0.000   11.000    0.000    2.000 
#    0.000    0.000    0.000    0.000    0.000    0.000 
#    0.000    0.000    0.000    0.000    0.000    0.000 
#
# Total GULP energy -133709.433708 kJ/mol
# GULP energy per Si atom -5571.226405 kJ/mol
# Density = 1.440734 g / cm^3
# Si number density = 14.440211 Si / 1000 Ang^3
#
#
#
# Elastic Constant Matrix: (Units=GPa)
#
#
# Indices 1 2 3 4 5 6 
#
# 1 114.2844 21.4591 22.2268 0.0000 0.0000 0.0000
# 2 21.4591 43.3617 24.4396 0.0000 0.0000 0.0000
# 3 22.2268 24.4396 36.7259 0.0000 0.0000 0.0000
# 4 0.0000 0.0000 0.0000 16.8369 0.0000 0.0000
# 5 0.0000 0.0000 0.0000 0.0000 44.9337 0.0000
# 6 0.0000 0.0000 0.0000 0.0000 0.0000 36.6083
#
#
#
# Elastic Compliance Matrix: (Units=1/GPa)
#
#
# Indices 1 2 3 4 5 6 
#
# 1 0.010081 -0.002481 -0.004451 0.000000 0.000000 0.000000
# 2 -0.002481 0.037513 -0.023462 0.000000 0.000000 0.000000
# 3 -0.004451 -0.023462 0.045536 0.000000 0.000000 0.000000
# 4 0.000000 0.000000 0.000000 0.059393 0.000000 0.000000
# 5 0.000000 0.000000 0.000000 0.000000 0.022255 0.000000
# 6 0.000000 0.000000 0.000000 0.000000 0.000000 0.027316
#
#
# Mechanical properties :
#
#
# Convention : Reuss Voigt Hill
#
# Bulk Modulus (GPa) = 30.91846 36.73590 33.82718
# Shear Modulus (GPa) = 18.27063 28.09221 23.18142
#
# Velocity S-wave (km/s) = 3.56091 4.41547 4.01101
# Velocity P-wave (km/s) = 6.19392 7.17568 6.70280
#
# Compressibility (1/GPa) = 0.03234314
#
# Stress axis : x y z
#
# Youngs Moduli (GPa) = 99.19180 26.65712 21.96089
#
# Poissons Ratio (x) = 0.06613 0.09774
# Poissons Ratio (y) = 0.24607 0.51525
# Poissons Ratio (z) = 0.44145 0.62544
#
# Static dielectric constant tensor:
#      x y z
#    x 1.501880 0.000000 0.000000 
#    y 0.000000 1.505980 0.000000 
#    z 0.000000 0.000000 1.451460 
# 
# From -- ./inp_files/38024.got.cif
#   From: 2010.05.17/outbox.cif.g08.bks.cpg/sg24_20_cif.got.tgz:38024.got - 2010.06.04 00:33:39.
