data_PCOD9332412
_publ_section_title
;
Structure prediction by ZEFSAII (Michael W. Deem and Ramdas Pophale) SiO2 
 PCOD9332412
Probable space group: I 2 2 2
;
_chemical_formula_sum "Si O2"
_cell_formula_units_Z 40
_cell_length_a 16.031070
_cell_length_b 11.437654
_cell_length_c 9.925030
_cell_angle_alpha 90.000000
_cell_angle_beta 90.000000
_cell_angle_gamma 90.000000
_cell_volume 1819.831982
_symmetry_space_group_name_H-M "I 2 2 2"
_symmetry_group_IT_number 23
_symmetry_cell_setting 'orthorhombic'
loop_
_space_group_symop_operation_xyz
x,y,z
-x,-y,z
x,-y,-z
-x,y,-z
1/2+x,1/2+y,1/2+z
1/2-x,1/2-y,1/2+z
1/2+x,1/2-y,1/2-z
1/2-x,1/2+y,1/2-z
loop_
_atom_site_type_symbol
_atom_site_label
_atom_site_fract_x
_atom_site_fract_y
_atom_site_fract_z
Si Si1 0.289467 0.799824 0.455114
Si Si2 0.901594 0.225388 0.727732
Si Si3 0.145825 0.026735 0.635452
Si Si4 0.863513 0.364041 0.470287
Si Si5 0.086882 0.247963 0.800417
O O1 0.336687 0.797729 0.314472
O O2 0.224770 0.905739 0.433099
O O3 0.230531 0.686746 0.474485
O O4 0.357632 0.793732 0.574763
O O5 0.910938 0.286997 0.583037
O O6 0.987655 0.229245 0.810846
O O7 0.859134 0.098224 0.708615
O O8 0.116756 0.122705 0.742808
O O9 0.092462 0.000000 0.500000
O O10 0.868032 0.500000 0.500000
O O11 0.897613 0.337000 0.322397
#
# Coordination Sequence:
#
# PCOD9332412 Si02
#       5
#     8   8   8   8   8
#     4  11  26  43  70 104 144 183 237 297 366 437
#     4  12  25  45  72 103 141 187 237 305 364 433
#     4  11  24  44  72 100 140 185 243 287 360 441
#     4  11  25  44  72  96 141 189 243 285 364 450
#     4  11  25  44  71 106 142 181 241 305 364 426
#
# _framework density 21.980049999999999
#
# number of rings (size 3 to 8) (size 9 to 14) (size 15 to 20)
#    0.000    0.800    4.000    4.200    5.600    2.400 
#    0.000    2.000    0.000    3.600    0.000    0.000 
#    0.000    0.000    0.000    0.000    0.000    0.000 
#
# Total GULP energy -111540.708009 kJ/mol
# GULP energy per Si atom -5577.035400 kJ/mol
# Density = 2.193002 g / cm^3
# Si number density = 21.980050 Si / 1000 Ang^3
#
#
#
# Elastic Constant Matrix: (Units=GPa)
#
#
# Indices 1 2 3 4 5 6 
#
# 1 105.7072 42.9740 32.9047 0.0000 0.0000 0.0000
# 2 42.9740 157.8431 12.5625 0.0000 0.0000 0.0000
# 3 32.9047 12.5625 52.4002 0.0000 0.0000 0.0000
# 4 0.0000 0.0000 0.0000 -2.8682 0.0000 0.0000
# 5 0.0000 0.0000 0.0000 0.0000 13.7034 0.0000
# 6 0.0000 0.0000 0.0000 0.0000 0.0000 -11.7263
#
#
#
# Elastic Compliance Matrix: (Units=1/GPa)
#
#
# Indices 1 2 3 4 5 6 
#
# 1 0.012971 -0.002939 -0.007441 0.000000 0.000000 0.000000
# 2 -0.002939 0.007125 0.000138 0.000000 0.000000 0.000000
# 3 -0.007441 0.000138 0.023723 0.000000 0.000000 0.000000
# 4 0.000000 0.000000 0.000000 -0.348652 0.000000 0.000000
# 5 0.000000 0.000000 0.000000 0.000000 0.072975 0.000000
# 6 0.000000 0.000000 0.000000 0.000000 0.000000 -0.085278
#
#
# Mechanical properties :
#
#
# Convention : Reuss Voigt Hill
#
# Bulk Modulus (GPa) = 42.85480 54.75921 48.80701
# Shear Modulus (GPa) = -17.30860 14.98906 -1.15977
#
# Velocity S-wave (km/s) = -2.80923 2.61423 -0.72718
# Velocity P-wave (km/s) = 3.00285 5.83776 4.64201
#
# Compressibility (1/GPa) = 0.02333461
#
# Stress axis : x y z
#
# Youngs Moduli (GPa) = 77.09422 140.35681 42.15288
#
# Poissons Ratio (x) = 0.41255 0.31364
# Poissons Ratio (y) = 0.22660 -0.00580
# Poissons Ratio (z) = 0.57362 -0.01932
#
# Static dielectric constant tensor:
#      x y z
#    x 1.865720 0.000000 0.000000 
#    y 0.000000 2.084100 0.000000 
#    z 0.000000 0.000000 1.810100 
# 
# From -- ./inp_files/10747.got.cif
#   From: 2010.05.17/outbox.cif.g08.bks.cpg/sg23_6_cif.got.tgz:10747.got - 2010.06.04 12:02:01.
