data_PCOD9332868
_publ_section_title
;
Structure prediction by ZEFSAII (Michael W. Deem and Ramdas Pophale) SiO2 
 PCOD9332868
Probable space group: I 21 21 21
;
_chemical_formula_sum "Si O2"
_cell_formula_units_Z 60
_cell_length_a 16.118176
_cell_length_b 8.803934
_cell_length_c 22.905285
_cell_angle_alpha 90.000000
_cell_angle_beta 90.000000
_cell_angle_gamma 90.000000
_cell_volume 3250.336851
_symmetry_space_group_name_H-M "I 21 21 21"
_symmetry_group_IT_number 24
_symmetry_cell_setting 'orthorhombic'
loop_
_space_group_symop_operation_xyz
x,y,z
-x,1/2-y,z
x,-y,1/2-z
1/2-x,y,-z
1/2+x,1/2+y,1/2+z
1/2-x,-y,1/2+z
1/2+x,1/2-y,-z
-x,1/2+y,1/2-z
loop_
_atom_site_type_symbol
_atom_site_label
_atom_site_fract_x
_atom_site_fract_y
_atom_site_fract_z
Si Si1 0.134086 0.500000 0.750000
Si Si2 0.014877 0.069297 0.105477
Si Si3 0.803746 0.546050 0.343396
Si Si4 0.062975 0.392041 0.870761
Si Si5 0.701301 0.713422 0.442123
Si Si6 0.534580 0.424595 0.024224
Si Si7 0.731380 0.258255 0.727820
Si Si8 0.939975 0.893129 0.198304
O O1 0.083083 0.467550 0.809159
O O2 0.191070 0.352176 0.737308
O O3 0.099311 0.031591 0.140458
O O4 0.000000 0.250000 0.106195
O O5 0.941225 0.989170 0.139523
O O6 0.019752 0.010102 0.039467
O O7 0.762379 0.625777 0.398962
O O8 0.764092 0.386010 0.322970
O O9 0.789267 0.654277 0.287830
O O10 0.147210 0.332180 0.903037
O O11 0.014107 0.489453 0.920034
O O12 0.000000 0.250000 0.859346
O O13 0.750000 0.771982 0.500000
O O14 0.631610 0.595113 0.464337
O O15 0.500000 0.250000 0.020361
O O16 0.651586 0.158241 0.713433
O O17 0.000000 0.750000 0.192891
O O18 0.972505 0.000000 0.250000
#
# Coordination Sequence:
#
# PCOD9332868 Si02
#       8
#     4   8   8   8   8   8   8   8
#     4  12  22  44  66  88 120 158 202 258 308 352
#     4  11  21  33  59  85 118 157 197 238 294 351
#     4  11  21  38  57  88 120 156 198 244 302 351
#     4   9  21  41  62  91 118 148 202 254 300 354
#     4  10  17  34  64  89 114 151 197 248 297 351
#     4   8  18  36  57  88 112 145 200 245 285 358
#     4  11  24  37  57  87 123 158 198 247 295 356
#     4  12  22  36  53  81 122 162 197 236 285 353
#
# _framework density 18.459624999999999
#
# number of rings (size 3 to 8) (size 9 to 14) (size 15 to 20)
#    0.000    1.867    4.667    2.000    0.000    0.000 
#    4.800    0.000    5.867    0.000    0.000    0.000 
#    0.000    0.000    0.000    0.000    0.000    0.000 
#
# Total GULP energy -167239.514496 kJ/mol
# GULP energy per Si atom -5574.650483 kJ/mol
# Density = 1.841761 g / cm^3
# Si number density = 18.459625 Si / 1000 Ang^3
#
#
#
# Elastic Constant Matrix: (Units=GPa)
#
#
# Indices 1 2 3 4 5 6 
#
# 1 58.9531 13.1471 30.7340 0.0000 0.0000 0.0000
# 2 13.1471 44.2180 33.2263 0.0000 0.0000 0.0000
# 3 30.7340 33.2263 143.3941 0.0000 0.0000 0.0000
# 4 0.0000 0.0000 0.0000 5.0036 0.0000 0.0000
# 5 0.0000 0.0000 0.0000 0.0000 17.9135 0.0000
# 6 0.0000 0.0000 0.0000 0.0000 0.0000 9.7365
#
#
#
# Elastic Compliance Matrix: (Units=1/GPa)
#
#
# Indices 1 2 3 4 5 6 
#
# 1 0.019466 -0.003212 -0.003428 0.000000 0.000000 0.000000
# 2 -0.003212 0.027913 -0.005779 0.000000 0.000000 0.000000
# 3 -0.003428 -0.005779 0.009048 0.000000 0.000000 0.000000
# 4 0.000000 0.000000 0.000000 0.199855 0.000000 0.000000
# 5 0.000000 0.000000 0.000000 0.000000 0.055824 0.000000
# 6 0.000000 0.000000 0.000000 0.000000 0.000000 0.102707
#
#
# Mechanical properties :
#
#
# Convention : Reuss Voigt Hill
#
# Bulk Modulus (GPa) = 31.65745 44.53113 38.09429
# Shear Modulus (GPa) = 11.10668 17.82792 14.46730
#
# Velocity S-wave (km/s) = 2.45557 3.11107 2.80255
# Velocity P-wave (km/s) = 5.02260 6.08941 5.58155
#
# Compressibility (1/GPa) = 0.03158814
#
# Stress axis : x y z
#
# Youngs Moduli (GPa) = 51.37161 35.82568 110.52565
#
# Poissons Ratio (x) = 0.11507 0.37888
# Poissons Ratio (y) = 0.16500 0.63877
# Poissons Ratio (z) = 0.17610 0.20705
#
# Static dielectric constant tensor:
#      x y z
#    x 1.661300 0.000000 0.000000 
#    y 0.000000 1.645790 0.000000 
#    z 0.000000 0.000000 1.673250 
# 
# From -- ./inp_files/35837.got.cif
#   From: 2010.05.17/outbox.cif.g08.bks.cpg/sg24_18_cif.got.tgz:35837.got - 2010.06.04 00:33:39.
