data_PCOD9332243
_publ_section_title
;
Structure prediction by ZEFSAII (Michael W. Deem and Ramdas Pophale) SiO2 
 PCOD9332243
Probable space group: I 2 2 2
;
_chemical_formula_sum "Si O2"
_cell_formula_units_Z 48
_cell_length_a 9.717802
_cell_length_b 27.993186
_cell_length_c 7.448969
_cell_angle_alpha 90.000000
_cell_angle_beta 90.000000
_cell_angle_gamma 90.000000
_cell_volume 2026.359715
_symmetry_space_group_name_H-M "I 2 2 2"
_symmetry_group_IT_number 23
_symmetry_cell_setting 'orthorhombic'
loop_
_space_group_symop_operation_xyz
x,y,z
-x,-y,z
x,-y,-z
-x,y,-z
1/2+x,1/2+y,1/2+z
1/2-x,1/2-y,1/2+z
1/2+x,1/2-y,1/2-z
1/2-x,1/2+y,1/2-z
loop_
_atom_site_type_symbol
_atom_site_label
_atom_site_fract_x
_atom_site_fract_y
_atom_site_fract_z
Si Si1 0.557528 0.280865 0.318538
Si Si2 0.686219 0.151386 0.828291
Si Si3 0.827291 0.053206 0.799443
Si Si4 0.395056 0.181344 0.775585
Si Si5 0.845247 0.950500 0.770607
Si Si6 0.867401 0.150050 0.367866
O O1 0.500000 0.257459 0.500000
O O2 0.703663 0.306564 0.307637
O O3 0.570008 0.236705 0.183261
O O4 0.445741 0.323164 0.294653
O O5 0.754546 0.102669 0.755521
O O6 0.541032 0.158246 0.732415
O O7 0.655934 0.154117 0.043484
O O8 0.988713 0.051874 0.752842
O O9 0.781204 0.001865 0.721488
O O10 0.818694 0.052869 0.016468
O O11 0.274265 0.180038 0.626455
O O12 0.809143 0.902909 0.665173
O O13 0.000000 0.149888 0.500000
#
# Coordination Sequence:
#
# PCOD9332243 Si02
#       6
#     8   8   8   8   8   8
#     4  12  24  43  67  90 129 195 248 283 348 440
#     4  11  22  41  66  96 137 179 238 303 361 430
#     4   9  16  34  68  92 124 166 222 292 344 417
#     4  11  26  39  61 100 144 177 237 302 368 424
#     4   9  17  34  62 101 122 163 225 289 354 410
#     4  12  25  41  65  99 142 179 237 299 361 435
#
# _framework density 23.687798000000001
#
# number of rings (size 3 to 8) (size 9 to 14) (size 15 to 20)
#    0.000    1.333    5.000    2.000    4.667    0.000 
#    0.000    2.500    0.000    0.000    0.000    0.000 
#   10.000    0.000    0.000    0.000    0.000    0.000 
#
# Total GULP energy -133779.182008 kJ/mol
# GULP energy per Si atom -5574.132584 kJ/mol
# Density = 2.363388 g / cm^3
# Si number density = 23.687798 Si / 1000 Ang^3
#
#
#
# Elastic Constant Matrix: (Units=GPa)
#
#
# Indices 1 2 3 4 5 6 
#
# 1 140.2066 51.6072 35.2074 0.0066 -0.0013 -0.0043
# 2 51.6072 152.7923 21.4558 -0.0020 -0.0014 0.0016
# 3 35.2074 21.4558 67.6030 0.0233 0.0168 -0.0098
# 4 0.0066 -0.0020 0.0233 15.2164 0.0033 0.0030
# 5 -0.0013 -0.0014 0.0168 0.0033 30.1510 0.0003
# 6 -0.0043 0.0016 -0.0098 0.0030 0.0003 10.7356
#
#
#
# Elastic Compliance Matrix: (Units=1/GPa)
#
#
# Indices 1 2 3 4 5 6 
#
# 1 0.009036 -0.002503 -0.003911 0.000002 0.000002 0.000000
# 2 -0.002503 0.007543 -0.001091 0.000004 0.000001 -0.000003
# 3 -0.003911 -0.001091 0.017175 -0.000025 -0.000010 0.000014
# 4 0.000002 0.000004 -0.000025 0.065719 -0.000007 -0.000019
# 5 0.000002 0.000001 -0.000010 -0.000007 0.033166 -0.000001
# 6 0.000000 -0.000003 0.000014 -0.000019 -0.000001 0.093148
#
#
# Mechanical properties :
#
#
# Convention : Reuss Voigt Hill
#
# Bulk Modulus (GPa) = 53.34804 64.12696 58.73750
# Shear Modulus (GPa) = 20.23917 28.04269 24.14093
#
# Velocity S-wave (km/s) = 2.92621 3.44444 3.19584
# Velocity P-wave (km/s) = 5.82985 6.55358 6.20228
#
# Compressibility (1/GPa) = 0.01874483
#
# Stress axis : x y z
#
# Youngs Moduli (GPa) = 110.67186 132.56819 58.22247
#
# Poissons Ratio (x) = 0.33177 0.22774
# Poissons Ratio (y) = 0.27697 0.06350
# Poissons Ratio (z) = 0.43289 0.14459
#
# Static dielectric constant tensor:
#      x y z
#    x 1.888460 0.000000 -0.000050 
#    y 0.000000 1.955850 0.000000 
#    z -0.000050 0.000000 2.054240 
# 
# From -- ./inp_files/7357.got.cif
#   From: 2010.05.17/outbox.cif.g08.bks.cpg/sg23_4_cif.got.tgz:7357.got - 2010.06.04 12:02:01.
