data_PCOD9332474
_publ_section_title
;
Structure prediction by ZEFSAII (Michael W. Deem and Ramdas Pophale) SiO2 
 PCOD9332474
Probable space group: I 2 2 2
;
_chemical_formula_sum "Si O2"
_cell_formula_units_Z 36
_cell_length_a 23.464208
_cell_length_b 12.701514
_cell_length_c 5.507766
_cell_angle_alpha 90.000000
_cell_angle_beta 90.000000
_cell_angle_gamma 90.000000
_cell_volume 1641.484824
_symmetry_space_group_name_H-M "I 2 2 2"
_symmetry_group_IT_number 23
_symmetry_cell_setting 'orthorhombic'
loop_
_space_group_symop_operation_xyz
x,y,z
-x,-y,z
x,-y,-z
-x,y,-z
1/2+x,1/2+y,1/2+z
1/2-x,1/2-y,1/2+z
1/2+x,1/2-y,1/2-z
1/2-x,1/2+y,1/2-z
loop_
_atom_site_type_symbol
_atom_site_label
_atom_site_fract_x
_atom_site_fract_y
_atom_site_fract_z
Si Si1 0.403946 0.125323 0.041911
Si Si2 0.062370 0.728115 0.947214
Si Si3 0.666169 0.613953 0.608187
Si Si4 0.738274 0.500000 0.000000
Si Si5 0.218854 0.619803 0.603260
O O1 0.422757 0.158119 0.312740
O O2 0.439614 0.168247 0.812046
O O3 0.338961 0.166396 0.995356
O O4 0.402516 0.000000 0.000000
O O5 0.112040 0.812898 0.909897
O O6 0.000000 0.774371 0.000000
O O7 0.650690 0.500000 0.500000
O O8 0.720153 0.666484 0.467351
O O9 0.694920 0.577292 0.858551
O O10 0.780377 0.586625 0.117853
O O11 0.223953 0.500000 0.500000
#
# Coordination Sequence:
#
# PCOD9332474 Si02
#       5
#     8   8   8   4   8
#     4  11  26  45  71  95 132 177 222 283 335 383
#     4  12  28  45  67  98 133 179 237 271 315 398
#     4   9  21  40  68  98 140 166 214 268 346 396
#     4   8  16  36  70 101 133 174 198 278 336 424
#     4   8  18  35  65  99 132 163 215 264 344 405
#
# _framework density 21.931363000000001
#
# number of rings (size 3 to 8) (size 9 to 14) (size 15 to 20)
#    0.000    2.667    0.000    1.333   15.556    4.889 
#    0.000    0.000    0.000    0.000    0.000    0.000 
#    0.000    0.000    0.000    0.000    0.000    0.000 
#
# Total GULP energy -100219.504131 kJ/mol
# GULP energy per Si atom -5567.750229 kJ/mol
# Density = 2.188145 g / cm^3
# Si number density = 21.931363 Si / 1000 Ang^3
#
#
#
# Elastic Constant Matrix: (Units=GPa)
#
#
# Indices 1 2 3 4 5 6 
#
# 1 88.4225 -2.0579 -1.5694 0.0000 0.0000 0.0000
# 2 -2.0579 57.2199 14.2976 0.0000 0.0000 0.0000
# 3 -1.5694 14.2976 85.5813 0.0000 0.0000 0.0000
# 4 0.0000 0.0000 0.0000 12.2395 0.0000 0.0000
# 5 0.0000 0.0000 0.0000 0.0000 24.5475 0.0000
# 6 0.0000 0.0000 0.0000 0.0000 0.0000 -859.2737
#
#
#
# Elastic Compliance Matrix: (Units=1/GPa)
#
#
# Indices 1 2 3 4 5 6 
#
# 1 0.011321 0.000371 0.000146 0.000000 0.000000 0.000000
# 2 0.000371 0.018250 -0.003042 0.000000 0.000000 0.000000
# 3 0.000146 -0.003042 0.012196 0.000000 0.000000 0.000000
# 4 0.000000 0.000000 0.000000 0.081703 0.000000 0.000000
# 5 0.000000 0.000000 0.000000 0.000000 0.040737 0.000000
# 6 0.000000 0.000000 0.000000 0.000000 0.000000 -0.001164
#
#
# Mechanical properties :
#
#
# Convention : Reuss Voigt Hill
#
# Bulk Modulus (GPa) = 27.23701 28.06269 27.64985
# Shear Modulus (GPa) = 27.72660 -149.79380 -61.03360
#
# Velocity S-wave (km/s) = 3.55948 -8.27342 -5.28108
# Velocity P-wave (km/s) = 5.41658 8.85678 4.95495
#
# Compressibility (1/GPa) = 0.03671475
#
# Stress axis : x y z
#
# Youngs Moduli (GPa) = 88.33488 54.79482 81.99611
#
# Poissons Ratio (x) = -0.02032 -0.01194
# Poissons Ratio (y) = -0.03275 0.24944
# Poissons Ratio (z) = -0.01287 0.16669
#
# Static dielectric constant tensor:
#      x y z
#    x 1.812870 0.000000 0.000000 
#    y 0.000000 1.801950 0.000000 
#    z 0.000000 0.000000 4.263820 
# 
# From -- ./inp_files/4284.got.cif
#   From: 2010.05.17/outbox.cif.g08.bks.cpg/sg23_3_cif.got.tgz:4284.got - 2010.06.04 12:02:01.
