data_PCOD9332984
_publ_section_title
;
Structure prediction by ZEFSAII (Michael W. Deem and Ramdas Pophale) SiO2 
 PCOD9332984
Probable space group: I 21 21 21
;
_chemical_formula_sum "Si O2"
_cell_formula_units_Z 48
_cell_length_a 8.788472
_cell_length_b 12.462634
_cell_length_c 21.364007
_cell_angle_alpha 90.000000
_cell_angle_beta 90.000000
_cell_angle_gamma 90.000000
_cell_volume 2339.946489
_symmetry_space_group_name_H-M "I 21 21 21"
_symmetry_group_IT_number 24
_symmetry_cell_setting 'orthorhombic'
loop_
_space_group_symop_operation_xyz
x,y,z
-x,1/2-y,z
x,-y,1/2-z
1/2-x,y,-z
1/2+x,1/2+y,1/2+z
1/2-x,-y,1/2+z
1/2+x,1/2-y,-z
-x,1/2+y,1/2-z
loop_
_atom_site_type_symbol
_atom_site_label
_atom_site_fract_x
_atom_site_fract_y
_atom_site_fract_z
Si Si1 0.250000 0.782340 0.500000
Si Si2 0.560178 0.528155 0.113666
Si Si3 0.901311 0.555591 0.423330
Si Si4 0.066749 0.635678 0.006879
Si Si5 0.667209 0.500000 0.250000
Si Si6 0.356308 0.674111 0.376881
Si Si7 0.866638 0.308010 0.198226
O O1 0.112717 0.861553 0.481037
O O2 0.281131 0.711292 0.440835
O O3 0.728169 0.486116 0.091353
O O4 0.579196 0.542701 0.188543
O O5 0.424354 0.441850 0.113610
O O6 0.509511 0.613503 0.061545
O O7 0.936805 0.628431 0.362517
O O8 0.008037 0.458830 0.446047
O O9 0.000000 0.750000 0.028968
O O10 0.250000 0.636513 0.000000
O O11 0.770544 0.399348 0.231055
O O12 0.500000 0.750000 0.365731
O O13 0.241652 0.710982 0.323488
O O14 0.000000 0.250000 0.235631
#
# Coordination Sequence:
#
# PCOD9332984 Si02
#       7
#     4   8   8   8   4   8   8
#     4  10  18  30  62  94 140 158 196 248 346 390
#     4  11  22  42  67  93 128 175 228 263 333 392
#     4  10  19  40  63  92 133 169 205 276 329 399
#     4  12  26  43  67  97 134 176 225 277 335 406
#     4  10  22  46  68  86 134 182 216 280 326 392
#     4  11  19  36  62  97 128 170 202 265 325 401
#     4  10  23  40  67  95 134 168 221 276 340 388
#
# _framework density 20.513287999999999
#
# number of rings (size 3 to 8) (size 9 to 14) (size 15 to 20)
#    0.000    1.333    6.667    1.000    3.500    4.000 
#    3.000    7.500    0.000    0.000    0.000    0.000 
#    0.000    0.000    0.000    0.000    0.000    0.000 
#
# Total GULP energy -133809.244719 kJ/mol
# GULP energy per Si atom -5575.385197 kJ/mol
# Density = 2.046660 g / cm^3
# Si number density = 20.513288 Si / 1000 Ang^3
#
#
#
# Elastic Constant Matrix: (Units=GPa)
#
#
# Indices 1 2 3 4 5 6 
#
# 1 95.9684 30.0260 10.6652 0.0000 0.0000 0.0000
# 2 30.0260 83.8688 1.6968 0.0000 0.0000 0.0000
# 3 10.6652 1.6968 55.4136 0.0000 0.0000 0.0000
# 4 0.0000 0.0000 0.0000 18.1048 0.0000 0.0000
# 5 0.0000 0.0000 0.0000 0.0000 23.3399 0.0000
# 6 0.0000 0.0000 0.0000 0.0000 0.0000 35.8467
#
#
#
# Elastic Compliance Matrix: (Units=1/GPa)
#
#
# Indices 1 2 3 4 5 6 
#
# 1 0.011992 -0.004249 -0.002178 0.000000 0.000000 0.000000
# 2 -0.004249 0.013436 0.000406 0.000000 0.000000 0.000000
# 3 -0.002178 0.000406 0.018453 0.000000 0.000000 0.000000
# 4 0.000000 0.000000 0.000000 0.055234 0.000000 0.000000
# 5 0.000000 0.000000 0.000000 0.000000 0.042845 0.000000
# 6 0.000000 0.000000 0.000000 0.000000 0.000000 0.027897
#
#
# Mechanical properties :
#
#
# Convention : Reuss Voigt Hill
#
# Bulk Modulus (GPa) = 31.40734 35.55852 33.48293
# Shear Modulus (GPa) = 25.97259 28.31581 27.14420
#
# Velocity S-wave (km/s) = 3.56214 3.71936 3.64160
# Velocity P-wave (km/s) = 5.68000 5.98472 5.83435
#
# Compressibility (1/GPa) = 0.03183969
#
# Stress axis : x y z
#
# Youngs Moduli (GPa) = 83.39210 74.42489 54.19223
#
# Poissons Ratio (x) = 0.31623 0.11802
# Poissons Ratio (y) = 0.35434 -0.02202
# Poissons Ratio (z) = 0.18161 -0.03024
#
# Static dielectric constant tensor:
#      x y z
#    x 1.719540 0.000000 0.000000 
#    y 0.000000 1.662640 0.000000 
#    z 0.000000 0.000000 1.554010 
# 
# From -- ./inp_files/35167.got.cif
#   From: 2010.05.17/outbox.cif.g08.bks.cpg/sg24_18_cif.got.tgz:35167.got - 2010.06.04 00:33:39.
