data_PCOD9332822
_publ_section_title
;
Structure prediction by ZEFSAII (Michael W. Deem and Ramdas Pophale) SiO2 
 PCOD9332822
Probable space group: I 21 21 21
;
_chemical_formula_sum "Si O2"
_cell_formula_units_Z 64
_cell_length_a 11.442591
_cell_length_b 27.583877
_cell_length_c 11.218490
_cell_angle_alpha 90.000000
_cell_angle_beta 90.000000
_cell_angle_gamma 90.000000
_cell_volume 3540.903472
_symmetry_space_group_name_H-M "I 21 21 21"
_symmetry_group_IT_number 24
_symmetry_cell_setting 'orthorhombic'
loop_
_space_group_symop_operation_xyz
x,y,z
-x,1/2-y,z
x,-y,1/2-z
1/2-x,y,-z
1/2+x,1/2+y,1/2+z
1/2-x,-y,1/2+z
1/2+x,1/2-y,-z
-x,1/2+y,1/2-z
loop_
_atom_site_type_symbol
_atom_site_label
_atom_site_fract_x
_atom_site_fract_y
_atom_site_fract_z
Si Si1 0.605813 0.916544 0.871070
Si Si2 0.622905 0.221066 0.980349
Si Si3 0.377605 0.519494 0.548388
Si Si4 0.020142 0.303826 0.769643
Si Si5 0.960916 0.543290 0.674316
Si Si6 0.381331 0.394709 0.355717
Si Si7 0.932195 0.124931 0.133984
Si Si8 0.367204 0.134776 0.066708
O O1 0.742718 0.903915 0.848970
O O2 0.537295 0.885492 0.771696
O O3 0.588174 0.974671 0.866952
O O4 0.580445 0.903921 0.008506
O O5 0.500000 0.250000 0.951005
O O6 0.635123 0.175358 0.890280
O O7 0.750000 0.245901 0.000000
O O8 0.598457 0.201257 0.112490
O O9 0.250000 0.505973 0.500000
O O10 0.467374 0.523239 0.438584
O O11 0.369702 0.573930 0.600486
O O12 0.080779 0.340841 0.681058
O O13 0.000000 0.250000 0.721567
O O14 0.905047 0.327762 0.830122
O O15 0.907886 0.500000 0.750000
O O16 0.053319 0.570847 0.760494
O O17 0.868626 0.582381 0.628963
O O18 0.036374 0.130561 0.038499
O O19 0.250000 0.146314 0.000000
#
# Coordination Sequence:
#
# PCOD9332822 Si02
#       8
#     8   8   8   8   8   8   8   8
#     4  11  19  31  48  78 114 146 168 205 259 330
#     4  10  20  36  56  83 107 139 181 235 290 327
#     4  11  18  29  49  79 110 145 171 208 264 325
#     4   9  19  34  58  79  99 136 177 229 274 319
#     4  10  17  31  51  73 104 139 178 216 254 314
#     4  10  19  32  50  77 111 142 175 207 259 322
#     4  10  21  32  51  78 112 138 176 224 268 324
#     4   9  20  37  55  76 101 133 178 230 275 316
#
# _framework density 18.074483000000001
#
# number of rings (size 3 to 8) (size 9 to 14) (size 15 to 20)
#    0.000    2.000    2.500    3.000    0.000    4.500 
#    0.000    3.125    0.000    3.750    0.000    0.000 
#    0.000    0.000    0.000    0.000    0.000    0.000 
#
# Total GULP energy -178186.847636 kJ/mol
# GULP energy per Si atom -5568.338989 kJ/mol
# Density = 1.803335 g / cm^3
# Si number density = 18.074483 Si / 1000 Ang^3
#
#
#
# Elastic Constant Matrix: (Units=GPa)
#
#
# Indices 1 2 3 4 5 6 
#
# 1 46.8513 37.2390 0.9263 -0.0001 0.0000 0.0000
# 2 37.2390 149.1720 48.7177 0.0000 0.0000 0.0000
# 3 0.9263 48.7177 78.5525 -0.0007 -0.0003 -0.0003
# 4 -0.0001 0.0000 -0.0007 34.6971 -0.0001 -0.0001
# 5 0.0000 0.0000 -0.0003 -0.0001 17.6735 -0.0001
# 6 0.0000 0.0000 -0.0003 -0.0001 -0.0001 3.3019
#
#
#
# Elastic Compliance Matrix: (Units=1/GPa)
#
#
# Indices 1 2 3 4 5 6 
#
# 1 0.028137 -0.008672 0.005047 0.000000 0.000000 0.000001
# 2 -0.008672 0.011079 -0.006769 0.000000 0.000000 -0.000001
# 3 0.005047 -0.006769 0.016869 0.000000 0.000000 0.000002
# 4 0.000000 0.000000 0.000000 0.028821 0.000000 0.000001
# 5 0.000000 0.000000 0.000000 0.000000 0.056582 0.000002
# 6 0.000001 -0.000001 0.000002 0.000001 0.000002 0.302858
#
#
# Mechanical properties :
#
#
# Convention : Reuss Voigt Hill
#
# Bulk Modulus (GPa) = 28.33156 49.81576 39.07366
# Shear Modulus (GPa) = 10.48436 23.64734 17.06585
#
# Velocity S-wave (km/s) = 2.41106 3.62101 3.07611
# Velocity P-wave (km/s) = 4.84354 6.71591 5.85506
#
# Compressibility (1/GPa) = 0.03529633
#
# Stress axis : x y z
#
# Youngs Moduli (GPa) = 35.53981 90.25829 59.28055
#
# Poissons Ratio (x) = 0.78275 -0.29917
# Poissons Ratio (y) = 0.30822 0.40127
# Poissons Ratio (z) = -0.17936 0.61096
#
# Static dielectric constant tensor:
#      x y z
#    x 1.633340 0.000000 0.000000 
#    y 0.000000 1.689800 0.000000 
#    z 0.000000 0.000000 1.630260 
# 
# From -- ./inp_files/20190.got.cif
#   From: 2010.05.17/outbox.cif.g08.bks.cpg/sg24_11_cif.got.tgz:20190.got - 2010.06.04 00:33:39.
