data_PCOD9332604
_publ_section_title
;
Structure prediction by ZEFSAII (Michael W. Deem and Ramdas Pophale) SiO2 
 PCOD9332604
Probable space group: I 2 2 2
;
_chemical_formula_sum "Si O2"
_cell_formula_units_Z 26
_cell_length_a 7.703162
_cell_length_b 5.717444
_cell_length_c 22.579206
_cell_angle_alpha 90.000000
_cell_angle_beta 90.000000
_cell_angle_gamma 90.000000
_cell_volume 994.442363
_symmetry_space_group_name_H-M "I 2 2 2"
_symmetry_group_IT_number 23
_symmetry_cell_setting 'orthorhombic'
loop_
_space_group_symop_operation_xyz
x,y,z
-x,-y,z
x,-y,-z
-x,y,-z
1/2+x,1/2+y,1/2+z
1/2-x,1/2-y,1/2+z
1/2+x,1/2-y,1/2-z
1/2-x,1/2+y,1/2-z
loop_
_atom_site_type_symbol
_atom_site_label
_atom_site_fract_x
_atom_site_fract_y
_atom_site_fract_z
Si Si1 0.500000 0.500000 0.761303
Si Si2 0.760304 0.145715 0.940860
Si Si3 0.000000 0.000000 0.500000
Si Si4 0.219363 0.325421 0.328430
Si Si5 0.500000 0.000000 0.381196
O O1 0.333996 0.534971 0.719306
O O2 0.542997 0.723744 0.801524
O O3 0.928786 0.287443 0.920035
O O4 0.704926 0.975853 0.887768
O O5 0.617221 0.337574 0.958439
O O6 0.788257 0.000000 0.000000
O O7 0.340271 0.099732 0.343666
#
# Coordination Sequence:
#
# PCOD9332604 Si02
#       5
#     4   8   2   8   4
#     4  12  28  57  83 125 172 225 298 356 438 510
#     4  12  29  54  83 123 171 224 287 363 445 517
#     4  12  30  52  80 126 176 228 282 356 442 528
#     4  12  28  55  85 121 170 226 286 366 430 518
#     4  12  26  53  82 122 158 224 281 358 444 508
#
# _framework density 26.145308
#
# number of rings (size 3 to 8) (size 9 to 14) (size 15 to 20)
#    0.000    0.000    3.077    4.154    0.000   16.615 
#    5.538    0.000    0.000    0.000    0.000    0.000 
#    0.000    0.000    0.000    0.000    0.000    0.000 
#
# Total GULP energy -73143.088932 kJ/mol
# GULP energy per Si atom -5626.391456 kJ/mol
# Density = 2.608580 g / cm^3
# Si number density = 26.145308 Si / 1000 Ang^3
#
#
#
# Elastic Constant Matrix: (Units=GPa)
#
#
# Indices 1 2 3 4 5 6 
#
# 1 93.8736 18.9518 47.3693 0.0000 0.0000 0.0000
# 2 18.9518 113.1594 80.5040 0.0000 0.0000 0.0000
# 3 47.3693 80.5040 202.3653 0.0000 0.0000 0.0000
# 4 0.0000 0.0000 0.0000 52.3702 0.0000 0.0000
# 5 0.0000 0.0000 0.0000 0.0000 30.8427 0.0000
# 6 0.0000 0.0000 0.0000 0.0000 0.0000 68.6693
#
#
#
# Elastic Compliance Matrix: (Units=1/GPa)
#
#
# Indices 1 2 3 4 5 6 
#
# 1 0.012079 -0.000016 -0.002821 0.000000 0.000000 0.000000
# 2 -0.000016 0.012325 -0.004899 0.000000 0.000000 0.000000
# 3 -0.002821 -0.004899 0.007551 0.000000 0.000000 0.000000
# 4 0.000000 0.000000 0.000000 0.019095 0.000000 0.000000
# 5 0.000000 0.000000 0.000000 0.000000 0.032423 0.000000
# 6 0.000000 0.000000 0.000000 0.000000 0.000000 0.014563
#
#
# Mechanical properties :
#
#
# Convention : Reuss Voigt Hill
#
# Bulk Modulus (GPa) = 60.67033 78.11650 69.39341
# Shear Modulus (GPa) = 42.01567 47.88133 44.94850
#
# Velocity S-wave (km/s) = 4.01310 4.28408 4.15080
# Velocity P-wave (km/s) = 6.68795 7.37657 7.04068
#
# Compressibility (1/GPa) = 0.01648252
#
# Stress axis : x y z
#
# Youngs Moduli (GPa) = 82.78529 81.13353 132.43251
#
# Poissons Ratio (x) = 0.00130 0.37361
# Poissons Ratio (y) = 0.00133 0.64885
# Poissons Ratio (z) = 0.23355 0.39751
#
# Static dielectric constant tensor:
#      x y z
#    x 2.074760 0.000000 0.000000 
#    y 0.000000 2.055250 0.000000 
#    z 0.000000 0.000000 1.993120 
# 
# From -- ./inp_files/27465.got.cif
#   From: 2010.05.17/outbox.cif.g08.bks.cpg/sg23_14_cif.got.tgz:27465.got - 2010.06.04 12:02:01.
