data_PCOD9332768
_publ_section_title
;
Structure prediction by ZEFSAII (Michael W. Deem and Ramdas Pophale) SiO2 
 PCOD9332768
Probable space group: I 21 21 21
;
_chemical_formula_sum "Si O2"
_cell_formula_units_Z 60
_cell_length_a 23.490907
_cell_length_b 14.812602
_cell_length_c 8.873946
_cell_angle_alpha 90.000000
_cell_angle_beta 90.000000
_cell_angle_gamma 90.000000
_cell_volume 3087.791171
_symmetry_space_group_name_H-M "I 21 21 21"
_symmetry_group_IT_number 24
_symmetry_cell_setting 'orthorhombic'
loop_
_space_group_symop_operation_xyz
x,y,z
-x,1/2-y,z
x,-y,1/2-z
1/2-x,y,-z
1/2+x,1/2+y,1/2+z
1/2-x,-y,1/2+z
1/2+x,1/2-y,-z
-x,1/2+y,1/2-z
loop_
_atom_site_type_symbol
_atom_site_label
_atom_site_fract_x
_atom_site_fract_y
_atom_site_fract_z
Si Si1 0.940111 0.201258 0.187322
Si Si2 0.579485 0.813305 0.330305
Si Si3 0.949048 0.505539 0.487546
Si Si4 0.802640 0.742262 0.608146
Si Si5 0.361049 0.134574 0.843046
Si Si6 0.252826 0.093379 0.320891
Si Si7 0.047336 0.500000 0.250000
Si Si8 0.531900 0.375589 0.280050
O O1 0.893709 0.278053 0.220757
O O2 0.000000 0.250000 0.228928
O O3 0.926395 0.101668 0.254243
O O4 0.940495 0.187593 0.005115
O O5 0.648385 0.813394 0.340986
O O6 0.559857 0.719198 0.258592
O O7 0.537502 0.878196 0.234401
O O8 0.903215 0.554320 0.384977
O O9 0.943970 0.406937 0.559337
O O10 0.950555 0.564280 0.638276
O O11 0.006975 0.506670 0.395177
O O12 0.750000 0.775949 0.500000
O O13 0.833375 0.670770 0.497798
O O14 0.782113 0.682501 0.749864
O O15 0.311478 0.101987 0.736821
O O16 0.250000 0.088524 0.500000
O O17 0.277269 0.000000 0.250000
#
# Coordination Sequence:
#
# PCOD9332768 Si02
#       8
#     8   8   8   8   8   8   4   8
#     4  11  18  36  58  83 121 165 207 242 314 380
#     4  10  16  36  58  80 120 164 204 252 309 373
#     4  11  21  35  54  91 122 157 209 251 306 379
#     4   9  19  35  58  84 108 160 217 244 305 380
#     4  10  20  39  60  81 118 168 200 252 316 373
#     4  11  24  41  57  85 121 154 210 261 311 380
#     4  12  22  36  56  88 128 162 204 256 298 384
#     4  10  19  34  59  85 117 165 206 247 313 386
#
# _framework density 19.431365
#
# number of rings (size 3 to 8) (size 9 to 14) (size 15 to 20)
#    0.000    1.600    6.667    1.200    0.933    2.133 
#    4.800    0.000    0.000    0.000    0.000   24.267 
#    0.000    0.000    0.000    0.000    0.000    0.000 
#
# Total GULP energy -167033.732514 kJ/mol
# GULP energy per Si atom -5567.791084 kJ/mol
# Density = 1.938714 g / cm^3
# Si number density = 19.431365 Si / 1000 Ang^3
#
#
#
# Elastic Constant Matrix: (Units=GPa)
#
#
# Indices 1 2 3 4 5 6 
#
# 1 80.0088 29.4537 7.4586 0.0000 0.0000 0.0000
# 2 29.4537 60.3656 25.8467 0.0000 0.0000 0.0000
# 3 7.4586 25.8467 49.8494 0.0000 0.0000 0.0000
# 4 0.0000 0.0000 0.0000 24.1564 0.0000 0.0000
# 5 0.0000 0.0000 0.0000 0.0000 -7.5102 0.0000
# 6 0.0000 0.0000 0.0000 0.0000 0.0000 14.2867
#
#
#
# Elastic Compliance Matrix: (Units=1/GPa)
#
#
# Indices 1 2 3 4 5 6 
#
# 1 0.015396 -0.008388 0.002045 0.000000 0.000000 0.000000
# 2 -0.008388 0.025863 -0.012155 0.000000 0.000000 0.000000
# 3 0.002045 -0.012155 0.026057 0.000000 0.000000 0.000000
# 4 0.000000 0.000000 0.000000 0.041397 0.000000 0.000000
# 5 0.000000 0.000000 0.000000 0.000000 -0.133151 0.000000
# 6 0.000000 0.000000 0.000000 0.000000 0.000000 0.069995
#
#
# Mechanical properties :
#
#
# Convention : Reuss Voigt Hill
#
# Bulk Modulus (GPa) = 32.98049 35.08244 34.03146
# Shear Modulus (GPa) = 53.96301 14.68423 34.32362
#
# Velocity S-wave (km/s) = 5.27554 2.75198 4.20742
# Velocity P-wave (km/s) = 7.35650 5.30957 6.41521
#
# Compressibility (1/GPa) = 0.03032096
#
# Stress axis : x y z
#
# Youngs Moduli (GPa) = 64.95315 38.66599 38.37814
#
# Poissons Ratio (x) = 0.32432 -0.07850
# Poissons Ratio (y) = 0.54481 0.46647
# Poissons Ratio (z) = -0.13286 0.46997
#
# Static dielectric constant tensor:
#      x y z
#    x 1.751080 0.000000 0.000000 
#    y 0.000000 1.828720 0.000000 
#    z 0.000000 0.000000 1.743650 
# 
# From -- ./inp_files/16013.got.cif
#   From: 2010.05.17/outbox.cif.g08.bks.cpg/sg24_9_cif.got.tgz:16013.got - 2010.06.04 00:33:39.
