data_PCOD9332539
_publ_section_title
;
Structure prediction by ZEFSAII (Michael W. Deem and Ramdas Pophale) SiO2 
 PCOD9332539
Probable space group: I 2 2 2
;
_chemical_formula_sum "Si O2"
_cell_formula_units_Z 24
_cell_length_a 25.650366
_cell_length_b 6.863356
_cell_length_c 7.216386
_cell_angle_alpha 90.000000
_cell_angle_beta 90.000000
_cell_angle_gamma 90.000000
_cell_volume 1270.427388
_symmetry_space_group_name_H-M "I 2 2 2"
_symmetry_group_IT_number 23
_symmetry_cell_setting 'orthorhombic'
loop_
_space_group_symop_operation_xyz
x,y,z
-x,-y,z
x,-y,-z
-x,y,-z
1/2+x,1/2+y,1/2+z
1/2-x,1/2-y,1/2+z
1/2+x,1/2-y,1/2-z
1/2-x,1/2+y,1/2-z
loop_
_atom_site_type_symbol
_atom_site_label
_atom_site_fract_x
_atom_site_fract_y
_atom_site_fract_z
Si Si1 0.000000 0.500000 0.000000
Si Si2 0.432565 0.338716 0.334447
Si Si3 0.500000 0.500000 0.000000
Si Si4 0.239233 0.500000 0.500000
Si Si5 0.818553 0.673116 0.852945
O O1 0.037567 0.357596 0.888680
O O2 0.438940 0.500000 0.500000
O O3 0.460255 0.399364 0.144147
O O4 0.371701 0.290476 0.316171
O O5 0.203928 0.423171 0.667454
O O6 0.275890 0.323574 0.431764
O O7 0.828184 0.500000 0.000000
#
# Coordination Sequence:
#
# PCOD9332539 Si02
#       5
#     2   8   2   4   8
#     4  12  22  46  72  96 138 188 226 278 360 396
#     4  12  26  46  72 105 143 183 234 294 348 411
#     4  12  26  46  72 108 142 172 238 302 332 424
#     4  12  26  44  72 108 138 182 240 288 346 420
#     4  12  26  44  74 104 142 186 234 291 350 414
#
# _framework density 18.891282
#
# number of rings (size 3 to 8) (size 9 to 14) (size 15 to 20)
#    0.000    0.000   10.000    0.000    0.000    8.667 
#    0.000    0.000    0.000    0.000    0.000    0.000 
#    0.000    0.000    0.000    0.000    0.000    0.000 
#
# Total GULP energy -67044.879106 kJ/mol
# GULP energy per Si atom -5587.073259 kJ/mol
# Density = 1.884828 g / cm^3
# Si number density = 18.891282 Si / 1000 Ang^3
#
#
#
# Elastic Constant Matrix: (Units=GPa)
#
#
# Indices 1 2 3 4 5 6 
#
# 1 160.5368 58.5312 90.5398 0.0000 0.0000 0.0000
# 2 58.5312 119.3224 85.6405 0.0000 0.0000 0.0000
# 3 90.5398 85.6405 175.4711 0.0000 0.0000 0.0000
# 4 0.0000 0.0000 0.0000 39.4290 0.0000 0.0000
# 5 0.0000 0.0000 0.0000 0.0000 22.0429 0.0000
# 6 0.0000 0.0000 0.0000 0.0000 0.0000 36.2672
#
#
#
# Elastic Compliance Matrix: (Units=1/GPa)
#
#
# Indices 1 2 3 4 5 6 
#
# 1 0.008996 -0.001664 -0.003829 0.000000 0.000000 0.000000
# 2 -0.001664 0.013207 -0.005587 0.000000 0.000000 0.000000
# 3 -0.003829 -0.005587 0.010402 0.000000 0.000000 0.000000
# 4 0.000000 0.000000 0.000000 0.025362 0.000000 0.000000
# 5 0.000000 0.000000 0.000000 0.000000 0.045366 0.000000
# 6 0.000000 0.000000 0.000000 0.000000 0.000000 0.027573
#
#
# Mechanical properties :
#
#
# Convention : Reuss Voigt Hill
#
# Bulk Modulus (GPa) = 95.75848 102.75038 99.25443
# Shear Modulus (GPa) = 31.93915 34.25573 33.09744
#
# Velocity S-wave (km/s) = 4.11625 4.26292 4.19023
# Velocity P-wave (km/s) = 8.56683 8.87347 8.72150
#
# Compressibility (1/GPa) = 0.01044294
#
# Stress axis : x y z
#
# Youngs Moduli (GPa) = 111.16666 75.71740 96.13875
#
# Poissons Ratio (x) = 0.12601 0.36814
# Poissons Ratio (y) = 0.18500 0.53714
# Poissons Ratio (z) = 0.42569 0.42304
#
# Static dielectric constant tensor:
#      x y z
#    x 1.646600 0.000000 0.000000 
#    y 0.000000 1.641840 0.000000 
#    z 0.000000 0.000000 1.690330 
# 
# From -- ./inp_files/465.got.cif
#   From: 2010.05.17/outbox.cif.g08.bks.cpg/sg23_1_cif.got.tgz:465.got - 2010.06.04 12:02:01.
