data_PCOD9332599
_publ_section_title
;
Structure prediction by ZEFSAII (Michael W. Deem and Ramdas Pophale) SiO2 
 PCOD9332599
Probable space group: I 2 2 2
;
_chemical_formula_sum "Si O2"
_cell_formula_units_Z 32
_cell_length_a 10.673505
_cell_length_b 22.341756
_cell_length_c 5.136584
_cell_angle_alpha 90.000000
_cell_angle_beta 90.000000
_cell_angle_gamma 90.000000
_cell_volume 1224.894704
_symmetry_space_group_name_H-M "I 2 2 2"
_symmetry_group_IT_number 23
_symmetry_cell_setting 'orthorhombic'
loop_
_space_group_symop_operation_xyz
x,y,z
-x,-y,z
x,-y,-z
-x,y,-z
1/2+x,1/2+y,1/2+z
1/2-x,1/2-y,1/2+z
1/2+x,1/2-y,1/2-z
1/2-x,1/2+y,1/2-z
loop_
_atom_site_type_symbol
_atom_site_label
_atom_site_fract_x
_atom_site_fract_y
_atom_site_fract_z
Si Si1 0.000000 0.665151 0.000000
Si Si2 0.867717 0.573297 0.368755
Si Si3 0.705998 0.500000 0.000000
Si Si4 0.679616 0.739050 0.547856
Si Si5 0.620903 0.393082 0.328550
O O1 0.910828 0.621309 0.156025
O O2 0.906347 0.714128 0.880637
O O3 0.757874 0.599281 0.545458
O O4 0.000000 0.560880 0.500000
O O5 0.799420 0.518713 0.228437
O O6 0.631187 0.559891 0.912079
O O7 0.774258 0.726373 0.308510
O O8 0.615275 0.679533 0.673505
O O9 0.500000 0.412377 0.500000
#
# Coordination Sequence:
#
# PCOD9332599 Si02
#       5
#     4   8   4   8   8
#     4  12  26  47  82 120 165 220 282 352 438 524
#     4  12  27  51  80 118 163 217 281 352 422 510
#     4  12  30  54  82 120 166 230 296 346 436 512
#     4  12  26  51  83 126 172 222 283 360 447 530
#     4  12  29  53  82 121 167 225 285 361 430 519
#
# _framework density 26.124694999999999
#
# number of rings (size 3 to 8) (size 9 to 14) (size 15 to 20)
#    0.000    0.000    3.750    5.250    0.000   11.500 
#    0.000    0.000    0.000    0.000    0.000    0.000 
#    0.000    0.000    0.000    0.000    0.000    0.000 
#
# Total GULP energy -89233.556124 kJ/mol
# GULP energy per Si atom -5577.097258 kJ/mol
# Density = 2.606523 g / cm^3
# Si number density = 26.124695 Si / 1000 Ang^3
#
#
#
# Elastic Constant Matrix: (Units=GPa)
#
#
# Indices 1 2 3 4 5 6 
#
# 1 147.7509 41.0560 44.4001 -0.0041 0.0024 -0.0071
# 2 41.0560 125.2911 6.0829 0.0345 -0.0157 -0.0134
# 3 44.4001 6.0829 83.8464 0.0370 -0.0228 -0.0544
# 4 -0.0041 0.0345 0.0370 32.0958 -0.0075 -0.0271
# 5 0.0024 -0.0157 -0.0228 -0.0075 49.5292 0.0169
# 6 -0.0071 -0.0134 -0.0544 -0.0271 0.0169 54.3002
#
#
#
# Elastic Compliance Matrix: (Units=1/GPa)
#
#
# Indices 1 2 3 4 5 6 
#
# 1 0.008867 -0.002687 -0.004501 0.000009 -0.000003 -0.000004
# 2 -0.002687 0.008824 0.000783 -0.000011 0.000003 0.000003
# 3 -0.004501 0.000783 0.014253 -0.000018 0.000007 0.000014
# 4 0.000009 -0.000011 -0.000018 0.031157 0.000005 0.000016
# 5 -0.000003 0.000003 0.000007 0.000005 0.020190 -0.000006
# 6 -0.000004 0.000003 0.000014 0.000016 -0.000006 0.018416
#
#
# Mechanical properties :
#
#
# Convention : Reuss Voigt Hill
#
# Bulk Modulus (GPa) = 52.26216 59.99626 56.12921
# Shear Modulus (GPa) = 41.35800 44.87500 43.11650
#
# Velocity S-wave (km/s) = 3.98314 4.14904 4.06693
# Velocity P-wave (km/s) = 6.41889 6.77996 6.60189
#
# Compressibility (1/GPa) = 0.01913430
#
# Stress axis : x y z
#
# Youngs Moduli (GPa) = 112.77365 113.32783 70.16027
#
# Poissons Ratio (x) = 0.30453 0.31577
# Poissons Ratio (y) = 0.30304 -0.05492
# Poissons Ratio (z) = 0.50756 -0.08871
#
# Static dielectric constant tensor:
#      x y z
#    x 2.222680 -0.000030 -0.000040 
#    y -0.000030 2.278470 0.000020 
#    z -0.000040 0.000020 1.992030 
# 
# From -- ./inp_files/1369.got.cif
#   From: 2010.05.17/outbox.cif.g08.bks.cpg/sg23_1_cif.got.tgz:1369.got - 2010.06.04 12:02:01.
