data_PCOD9332355
_publ_section_title
;
Structure prediction by ZEFSAII (Michael W. Deem and Ramdas Pophale) SiO2 
 PCOD9332355
Probable space group: I 2 2 2
;
_chemical_formula_sum "Si O2"
_cell_formula_units_Z 40
_cell_length_a 22.498423
_cell_length_b 8.510165
_cell_length_c 8.993312
_cell_angle_alpha 90.000000
_cell_angle_beta 90.000000
_cell_angle_gamma 90.000000
_cell_volume 1721.907108
_symmetry_space_group_name_H-M "I 2 2 2"
_symmetry_group_IT_number 23
_symmetry_cell_setting 'orthorhombic'
loop_
_space_group_symop_operation_xyz
x,y,z
-x,-y,z
x,-y,-z
-x,y,-z
1/2+x,1/2+y,1/2+z
1/2-x,1/2-y,1/2+z
1/2+x,1/2-y,1/2-z
1/2-x,1/2+y,1/2-z
loop_
_atom_site_type_symbol
_atom_site_label
_atom_site_fract_x
_atom_site_fract_y
_atom_site_fract_z
Si Si1 0.498732 0.689598 0.320863
Si Si2 0.603939 0.907724 0.354839
Si Si3 0.106596 0.103766 0.364558
Si Si4 0.319041 0.389591 0.357204
Si Si5 0.814229 0.387529 0.640905
O O1 0.500000 0.500000 0.298822
O O2 0.500000 0.706208 0.500000
O O3 0.550597 0.810987 0.275050
O O4 0.440100 0.713876 0.223213
O O5 0.649872 0.771807 0.403124
O O6 0.581359 0.000000 0.500000
O O7 0.642471 0.024664 0.255038
O O8 0.158347 0.222966 0.412322
O O9 0.081361 0.000000 0.500000
O O10 0.137666 0.979613 0.255132
O O11 0.315872 0.500000 0.500000
O O12 0.252487 0.363875 0.297180
O O13 0.810119 0.500000 0.500000
#
# Coordination Sequence:
#
# PCOD9332355 Si02
#       5
#     8   8   8   8   8
#     4  11  24  46  75 101 139 190 243 298 365 441
#     4  12  25  44  75 108 140 187 251 310 357 427
#     4  12  26  46  74 105 143 193 244 294 366 440
#     4  11  23  45  72 102 147 197 241 293 369 444
#     4  11  26  44  66 106 151 189 239 306 363 427
#
# _framework density 23.230056000000001
#
# number of rings (size 3 to 8) (size 9 to 14) (size 15 to 20)
#    0.000    0.600    2.000    6.000    0.000    9.600 
#    0.000    1.000    0.000    0.000    0.000    0.000 
#    0.000    0.000    0.000    0.000    0.000    0.000 
#
# Total GULP energy -111787.417798 kJ/mol
# GULP energy per Si atom -5589.370890 kJ/mol
# Density = 2.317718 g / cm^3
# Si number density = 23.230056 Si / 1000 Ang^3
#
#
#
# Elastic Constant Matrix: (Units=GPa)
#
#
# Indices 1 2 3 4 5 6 
#
# 1 167.0247 58.7446 43.2670 0.0000 0.0000 0.0000
# 2 58.7446 131.5226 17.2158 0.0000 0.0000 0.0000
# 3 43.2670 17.2158 77.0837 0.0000 0.0000 0.0000
# 4 0.0000 0.0000 0.0000 34.9688 0.0000 0.0000
# 5 0.0000 0.0000 0.0000 0.0000 1.5583 0.0000
# 6 0.0000 0.0000 0.0000 0.0000 0.0000 44.9824
#
#
#
# Elastic Compliance Matrix: (Units=1/GPa)
#
#
# Indices 1 2 3 4 5 6 
#
# 1 0.008073 -0.003103 -0.003838 0.000000 0.000000 0.000000
# 2 -0.003103 0.009025 -0.000274 0.000000 0.000000 0.000000
# 3 -0.003838 -0.000274 0.015188 0.000000 0.000000 0.000000
# 4 0.000000 0.000000 0.000000 0.028597 0.000000 0.000000
# 5 0.000000 0.000000 0.000000 0.000000 0.641721 0.000000
# 6 0.000000 0.000000 0.000000 0.000000 0.000000 0.022231
#
#
# Mechanical properties :
#
#
# Convention : Reuss Voigt Hill
#
# Bulk Modulus (GPa) = 56.00398 68.23175 62.11787
# Shear Modulus (GPa) = 6.70945 33.39546 20.05246
#
# Velocity S-wave (km/s) = 1.70133 3.79568 2.94123
# Velocity P-wave (km/s) = 5.29340 6.97463 6.19135
#
# Compressibility (1/GPa) = 0.01785587
#
# Stress axis : x y z
#
# Youngs Moduli (GPa) = 123.87133 110.80077 65.83954
#
# Poissons Ratio (x) = 0.34385 0.25271
# Poissons Ratio (y) = 0.38442 0.01803
# Poissons Ratio (z) = 0.47544 0.03033
#
# Static dielectric constant tensor:
#      x y z
#    x 1.974750 0.000000 0.000000 
#    y 0.000000 2.079810 0.000000 
#    z 0.000000 0.000000 1.882610 
# 
# From -- ./inp_files/12425.got.cif
#   From: 2010.05.17/outbox.cif.g08.bks.cpg/sg23_7_cif.got.tgz:12425.got - 2010.06.04 12:02:01.
