data_PCOD9332433
_publ_section_title
;
Structure prediction by ZEFSAII (Michael W. Deem and Ramdas Pophale) SiO2 
 PCOD9332433
Probable space group: I 2 2 2
;
_chemical_formula_sum "Si O2"
_cell_formula_units_Z 64
_cell_length_a 11.352467
_cell_length_b 28.664920
_cell_length_c 8.764445
_cell_angle_alpha 90.000000
_cell_angle_beta 90.000000
_cell_angle_gamma 90.000000
_cell_volume 2852.104292
_symmetry_space_group_name_H-M "I 2 2 2"
_symmetry_group_IT_number 23
_symmetry_cell_setting 'orthorhombic'
loop_
_space_group_symop_operation_xyz
x,y,z
-x,-y,z
x,-y,-z
-x,y,-z
1/2+x,1/2+y,1/2+z
1/2-x,1/2-y,1/2+z
1/2+x,1/2-y,1/2-z
1/2-x,1/2+y,1/2-z
loop_
_atom_site_type_symbol
_atom_site_label
_atom_site_fract_x
_atom_site_fract_y
_atom_site_fract_z
Si Si1 0.632864 0.211007 0.549168
Si Si2 0.861764 0.986443 0.670813
Si Si3 0.409311 0.883925 0.617208
Si Si4 0.193558 0.238005 0.229476
Si Si5 0.970811 0.151812 0.678902
Si Si6 0.577885 0.831893 0.848829
Si Si7 0.684622 0.609441 0.342475
Si Si8 0.198378 0.077344 0.190143
O O1 0.500000 0.220675 0.500000
O O2 0.663405 0.156266 0.526230
O O3 0.676495 0.225610 0.713766
O O4 0.706586 0.244749 0.441651
O O5 0.830930 0.934511 0.726818
O O6 0.818280 0.000000 0.500000
O O7 0.809045 0.022207 0.792647
O O8 0.000000 0.000000 0.671076
O O9 0.500000 0.908960 0.500000
O O10 0.491937 0.850663 0.717834
O O11 0.323682 0.909480 0.733429
O O12 0.129968 0.281438 0.310688
O O13 0.112365 0.192935 0.257652
O O14 0.087733 0.146213 0.782014
O O15 0.000000 0.158159 0.500000
O O16 0.897671 0.103836 0.704425
O O17 0.687528 0.867266 0.848325
O O18 0.500000 0.832227 0.000000
O O19 0.668910 0.592910 0.518039
#
# Coordination Sequence:
#
# PCOD9332433 Si02
#       8
#     8   8   8   8   8   8   8   8
#     4  11  26  45  66 101 142 193 253 307 370 446
#     4  11  25  47  79 114 150 191 242 311 398 467
#     4  11  24  49  72 101 143 203 246 306 369 457
#     4  12  28  44  72 101 152 197 257 311 374 443
#     4  12  28  44  71 110 151 193 250 308 383 453
#     4  12  27  48  74 102 150 199 252 304 380 444
#     4  12  28  47  78 114 149 194 249 322 378 466
#     4  12  25  49  77 111 151 188 250 314 391 457
#
# _framework density 22.439571999999998
#
# number of rings (size 3 to 8) (size 9 to 14) (size 15 to 20)
#    0.000    0.375    6.250    1.875   10.500    0.500 
#    0.000    0.625    0.000    0.000    0.000    0.000 
#    0.000    0.000    0.000    0.000    0.000    0.000 
#
# Total GULP energy -178860.120292 kJ/mol
# GULP energy per Si atom -5589.378759 kJ/mol
# Density = 2.238850 g / cm^3
# Si number density = 22.439572 Si / 1000 Ang^3
#
#
#
# Elastic Constant Matrix: (Units=GPa)
#
#
# Indices 1 2 3 4 5 6 
#
# 1 91.7420 16.2095 13.2630 0.0003 0.0001 -0.0002
# 2 16.2095 80.8393 -3.4288 0.0002 0.0000 0.0000
# 3 13.2630 -3.4288 96.5862 0.0006 -0.0001 0.0005
# 4 0.0003 0.0002 0.0006 24.3388 -0.0002 0.0002
# 5 0.0001 0.0000 -0.0001 -0.0002 45.3560 -0.0003
# 6 -0.0002 0.0000 0.0005 0.0002 -0.0003 25.2287
#
#
#
# Elastic Compliance Matrix: (Units=1/GPa)
#
#
# Indices 1 2 3 4 5 6 
#
# 1 0.011564 -0.002390 -0.001673 0.000000 0.000000 0.000000
# 2 -0.002390 0.012883 0.000785 0.000000 0.000000 0.000000
# 3 -0.001673 0.000785 0.010611 0.000000 0.000000 0.000000
# 4 0.000000 0.000000 0.000000 0.041087 0.000000 0.000000
# 5 0.000000 0.000000 0.000000 0.000000 0.022048 0.000000
# 6 0.000000 0.000000 0.000000 0.000000 0.000000 0.039637
#
#
# Mechanical properties :
#
#
# Convention : Reuss Voigt Hill
#
# Bulk Modulus (GPa) = 35.08301 35.69499 35.38900
# Shear Modulus (GPa) = 32.49176 35.19296 33.84236
#
# Velocity S-wave (km/s) = 3.80934 3.96453 3.88771
# Velocity P-wave (km/s) = 5.91748 6.07440 5.99645
#
# Compressibility (1/GPa) = 0.02850383
#
# Stress axis : x y z
#
# Youngs Moduli (GPa) = 86.47374 77.62332 94.24155
#
# Poissons Ratio (x) = 0.18550 0.15765
# Poissons Ratio (y) = 0.20665 -0.07403
# Poissons Ratio (z) = 0.14465 -0.06097
#
# Static dielectric constant tensor:
#      x y z
#    x 1.860750 0.000000 0.000000 
#    y 0.000000 1.830200 0.000000 
#    z 0.000000 0.000000 1.944000 
# 
# From -- ./inp_files/8959.got.cif
#   From: 2010.05.17/outbox.cif.g08.bks.cpg/sg23_5_cif.got.tgz:8959.got - 2010.06.04 12:02:01.
