data_PCOD9332512
_publ_section_title
;
Structure prediction by ZEFSAII (Michael W. Deem and Ramdas Pophale) SiO2 
 PCOD9332512
Probable space group: I 2 2 2
;
_chemical_formula_sum "Si O2"
_cell_formula_units_Z 36
_cell_length_a 17.759568
_cell_length_b 13.328211
_cell_length_c 5.755728
_cell_angle_alpha 90.000000
_cell_angle_beta 90.000000
_cell_angle_gamma 90.000000
_cell_volume 1362.399636
_symmetry_space_group_name_H-M "I 2 2 2"
_symmetry_group_IT_number 23
_symmetry_cell_setting 'orthorhombic'
loop_
_space_group_symop_operation_xyz
x,y,z
-x,-y,z
x,-y,-z
-x,y,-z
1/2+x,1/2+y,1/2+z
1/2-x,1/2-y,1/2+z
1/2+x,1/2-y,1/2-z
1/2-x,1/2+y,1/2-z
loop_
_atom_site_type_symbol
_atom_site_label
_atom_site_fract_x
_atom_site_fract_y
_atom_site_fract_z
Si Si1 0.572344 0.340784 0.163750
Si Si2 0.770837 0.500000 0.500000
Si Si3 0.000000 0.000000 0.000000
Si Si4 0.922161 0.369697 0.871432
Si Si5 0.789892 0.733878 0.527413
Si Si6 0.216747 0.500000 0.000000
Si Si7 0.000000 0.500000 0.500000
O O1 0.553558 0.435343 0.327022
O O2 0.582085 0.247958 0.338914
O O3 0.643215 0.315927 0.997691
O O4 0.500000 0.327922 0.000000
O O5 0.806036 0.613403 0.512842
O O6 0.737046 0.499234 0.761340
O O7 0.845858 0.410942 0.982941
O O8 0.944013 0.429701 0.641326
O O9 0.000000 0.389303 0.000000
O O10 0.754534 0.749709 0.782700
#
# Coordination Sequence:
#
# PCOD9332512 Si02
#       7
#     8   4   2   8   8   4   2
#     4  12  29  52  85 121 174 227 302 373 451 534
#     4  12  27  49  83 120 162 218 289 346 448 514
#     4  12  30  54  84 130 170 240 316 372 454 536
#     4  12  23  34  68 108 160 204 251 324 419 506
#     4  12  31  57  88 124 176 237 302 372 451 547
#     4  12  23  40  72 118 164 202 259 338 430 524
#     4  12  20  36  56 114 152 206 226 310 422 498
#
# _framework density 26.423962
#
# number of rings (size 3 to 8) (size 9 to 14) (size 15 to 20)
#    0.000    0.000    6.667    2.333    6.222    0.889 
#    4.000    0.000    0.000    0.000    0.000    0.000 
#    0.000    0.000    0.000    0.000    0.000    0.000 
#
# Total GULP energy -100400.634384 kJ/mol
# GULP energy per Si atom -5577.813021 kJ/mol
# Density = 2.636382 g / cm^3
# Si number density = 26.423962 Si / 1000 Ang^3
#
#
#
# Elastic Constant Matrix: (Units=GPa)
#
#
# Indices 1 2 3 4 5 6 
#
# 1 117.8895 40.1896 80.1360 0.0000 0.0000 0.0000
# 2 40.1896 198.9988 41.4890 0.0000 0.0000 0.0000
# 3 80.1360 41.4890 197.1930 0.0000 0.0000 0.0000
# 4 0.0000 0.0000 0.0000 40.3093 0.0000 0.0000
# 5 0.0000 0.0000 0.0000 0.0000 213.9061 0.0000
# 6 0.0000 0.0000 0.0000 0.0000 0.0000 110.9222
#
#
#
# Elastic Compliance Matrix: (Units=1/GPa)
#
#
# Indices 1 2 3 4 5 6 
#
# 1 0.012127 -0.001487 -0.004615 0.000000 0.000000 0.000000
# 2 -0.001487 0.005438 -0.000540 0.000000 0.000000 0.000000
# 3 -0.004615 -0.000540 0.007060 0.000000 0.000000 0.000000
# 4 0.000000 0.000000 0.000000 0.024808 0.000000 0.000000
# 5 0.000000 0.000000 0.000000 0.000000 0.004675 0.000000
# 6 0.000000 0.000000 0.000000 0.000000 0.000000 0.009015
#
#
# Mechanical properties :
#
#
# Convention : Reuss Voigt Hill
#
# Bulk Modulus (GPa) = 88.17594 93.07894 90.62744
# Shear Modulus (GPa) = 62.35367 96.51198 79.43282
#
# Velocity S-wave (km/s) = 4.86299 6.05010 5.48873
# Velocity P-wave (km/s) = 8.06062 9.17097 8.63366
#
# Compressibility (1/GPa) = 0.01134096
#
# Stress axis : x y z
#
# Youngs Moduli (GPa) = 82.46312 183.89098 141.63654
#
# Poissons Ratio (x) = 0.27342 0.65369
# Poissons Ratio (y) = 0.12261 0.07647
# Poissons Ratio (z) = 0.38059 0.09928
#
# Static dielectric constant tensor:
#      x y z
#    x 2.946590 0.000000 0.000000 
#    y 0.000000 1.929100 0.000000 
#    z 0.000000 0.000000 1.869400 
# 
# From -- ./inp_files/3758.got.cif
#   From: 2010.05.17/outbox.cif.g08.bks.cpg/sg23_2_cif.got.tgz:3758.got - 2010.06.04 12:02:01.
