data_PCOD9332272
_publ_section_title
;
Structure prediction by ZEFSAII (Michael W. Deem and Ramdas Pophale) SiO2 
 PCOD9332272
Probable space group: I 2 2 2
;
_chemical_formula_sum "Si O2"
_cell_formula_units_Z 32
_cell_length_a 10.530842
_cell_length_b 18.548130
_cell_length_c 7.071850
_cell_angle_alpha 90.000000
_cell_angle_beta 90.000000
_cell_angle_gamma 90.000000
_cell_volume 1381.326261
_symmetry_space_group_name_H-M "I 2 2 2"
_symmetry_group_IT_number 23
_symmetry_cell_setting 'orthorhombic'
loop_
_space_group_symop_operation_xyz
x,y,z
-x,-y,z
x,-y,-z
-x,y,-z
1/2+x,1/2+y,1/2+z
1/2-x,1/2-y,1/2+z
1/2+x,1/2-y,1/2-z
1/2-x,1/2+y,1/2-z
loop_
_atom_site_type_symbol
_atom_site_label
_atom_site_fract_x
_atom_site_fract_y
_atom_site_fract_z
Si Si1 0.538958 0.922541 0.720688
Si Si2 0.685921 0.581150 0.069343
Si Si3 0.620904 0.320124 0.627818
Si Si4 0.696960 0.832345 0.216145
O O1 0.500000 0.921144 0.500000
O O2 0.689438 0.919182 0.704986
O O3 0.445197 0.863622 0.805762
O O4 0.500000 0.000000 0.796882
O O5 0.587731 0.621421 0.208834
O O6 0.657248 0.500000 0.000000
O O7 0.730289 0.627725 0.888515
O O8 0.500000 0.298776 0.500000
O O9 0.680419 0.251382 0.733632
O O10 0.722263 0.344151 0.470906
#
# Coordination Sequence:
#
# PCOD9332272 Si02
#       4
#     8   8   8   8
#     4   9  16  37  73 100 133 172 235 307 356 408
#     4  11  22  45  74 104 143 191 242 308 364 424
#     4  12  27  46  70 108 151 194 246 292 363 458
#     4  11  23  44  73 107 142 188 241 303 371 434
#
# _framework density 23.166143000000002
#
# number of rings (size 3 to 8) (size 9 to 14) (size 15 to 20)
#    0.000    1.250    7.500    2.250    0.000    3.000 
#    0.000    5.000    0.000    0.000    0.000    0.000 
#    0.000    0.000    0.000    0.000    0.000    0.000 
#
# Total GULP energy -89398.191751 kJ/mol
# GULP energy per Si atom -5587.386984 kJ/mol
# Density = 2.311342 g / cm^3
# Si number density = 23.166143 Si / 1000 Ang^3
#
#
#
# Elastic Constant Matrix: (Units=GPa)
#
#
# Indices 1 2 3 4 5 6 
#
# 1 45.6422 -2.7505 22.0667 0.0001 -0.0001 0.0000
# 2 -2.7505 108.2072 66.4987 -0.0001 0.0001 0.0000
# 3 22.0667 66.4987 158.1353 -0.0004 0.0002 0.0001
# 4 0.0001 -0.0001 -0.0004 -15.6971 0.0000 0.0001
# 5 -0.0001 0.0001 0.0002 0.0000 23.6779 0.0000
# 6 0.0000 0.0000 0.0001 0.0001 0.0000 24.9289
#
#
#
# Elastic Compliance Matrix: (Units=1/GPa)
#
#
# Indices 1 2 3 4 5 6 
#
# 1 0.024534 0.003678 -0.004970 0.000000 0.000000 0.000000
# 2 0.003678 0.013014 -0.005986 0.000000 0.000000 0.000000
# 3 -0.004970 -0.005986 0.009534 0.000000 0.000000 0.000000
# 4 0.000000 0.000000 0.000000 -0.063706 0.000000 0.000000
# 5 0.000000 0.000000 0.000000 0.000000 0.042234 0.000000
# 6 0.000000 0.000000 0.000000 0.000000 0.000000 0.040114
#
#
# Mechanical properties :
#
#
# Convention : Reuss Voigt Hill
#
# Bulk Modulus (GPa) = 30.74431 53.73494 42.23962
# Shear Modulus (GPa) = 54.87190 21.65993 38.26592
#
# Velocity S-wave (km/s) = 4.87213 3.06106 4.06865
# Velocity P-wave (km/s) = 6.70450 5.97824 6.35175
#
# Compressibility (1/GPa) = 0.03252634
#
# Stress axis : x y z
#
# Youngs Moduli (GPa) = 40.75949 76.84315 104.88391
#
# Poissons Ratio (x) = -0.28264 0.52130
# Poissons Ratio (y) = -0.14992 0.62780
# Poissons Ratio (z) = 0.20259 0.45996
#
# Static dielectric constant tensor:
#      x y z
#    x 2.018860 0.000000 0.000000 
#    y 0.000000 1.876590 0.000000 
#    z 0.000000 0.000000 1.845900 
# 
# From -- ./inp_files/7821.got.cif
#   From: 2010.05.17/outbox.cif.g08.bks.cpg/sg23_4_cif.got.tgz:7821.got - 2010.06.04 12:02:01.
