data_PCOD9332593
_publ_section_title
;
Structure prediction by ZEFSAII (Michael W. Deem and Ramdas Pophale) SiO2 
 PCOD9332593
Probable space group: I 2 2 2
;
_chemical_formula_sum "Si O2"
_cell_formula_units_Z 30
_cell_length_a 32.484972
_cell_length_b 7.387820
_cell_length_c 5.594479
_cell_angle_alpha 90.000000
_cell_angle_beta 90.000000
_cell_angle_gamma 90.000000
_cell_volume 1342.636503
_symmetry_space_group_name_H-M "I 2 2 2"
_symmetry_group_IT_number 23
_symmetry_cell_setting 'orthorhombic'
loop_
_space_group_symop_operation_xyz
x,y,z
-x,-y,z
x,-y,-z
-x,y,-z
1/2+x,1/2+y,1/2+z
1/2-x,1/2-y,1/2+z
1/2+x,1/2-y,1/2-z
1/2-x,1/2+y,1/2-z
loop_
_atom_site_type_symbol
_atom_site_label
_atom_site_fract_x
_atom_site_fract_y
_atom_site_fract_z
Si Si1 0.308511 0.150882 0.676554
Si Si2 0.107089 0.219897 0.287489
Si Si3 0.762853 0.000000 0.000000
Si Si4 0.423737 0.313770 0.279531
Si Si5 0.000000 0.000000 0.000000
O O1 0.346437 0.216119 0.837340
O O2 0.291381 0.330319 0.553587
O O3 0.325405 0.000000 0.500000
O O4 0.268793 0.058581 0.794611
O O5 0.080950 0.275982 0.520319
O O6 0.102224 0.001710 0.255148
O O7 0.092227 0.280733 0.022422
O O8 0.469860 0.379357 0.338119
#
# Coordination Sequence:
#
# PCOD9332593 Si02
#       5
#     8   8   4   8   2
#     4  12  26  43  65  93 132 182 232 298 355 417
#     4   9  20  34  56  85 130 169 214 271 338 396
#     4  12  26  45  66  96 128 180 246 296 356 409
#     4   9  18  34  58  95 130 174 213 275 331 405
#     4   8  16  32  60  98 142 170 224 280 328 404
#
# _framework density 22.344094999999999
#
# number of rings (size 3 to 8) (size 9 to 14) (size 15 to 20)
#    0.000    2.133    2.667    1.600    3.733   12.800 
#    0.000    0.000    0.000    0.000    0.000   14.933 
#    0.000    0.000    0.000    0.000    0.000    0.000 
#
# Total GULP energy -83651.188807 kJ/mol
# GULP energy per Si atom -5576.745920 kJ/mol
# Density = 2.229324 g / cm^3
# Si number density = 22.344095 Si / 1000 Ang^3
#
#
#
# Elastic Constant Matrix: (Units=GPa)
#
#
# Indices 1 2 3 4 5 6 
#
# 1 132.7763 30.6252 41.7567 -0.0001 0.0000 -0.0003
# 2 30.6252 100.3284 19.9483 -0.0002 0.0001 -0.0007
# 3 41.7567 19.9483 169.8145 -0.0002 0.0001 -0.0006
# 4 -0.0001 -0.0002 -0.0002 7.0083 0.0000 -0.0005
# 5 0.0000 0.0001 0.0001 0.0000 26.3548 0.0002
# 6 -0.0003 -0.0007 -0.0006 -0.0005 0.0002 -65.2933
#
#
#
# Elastic Compliance Matrix: (Units=1/GPa)
#
#
# Indices 1 2 3 4 5 6 
#
# 1 0.008639 -0.002268 -0.001858 0.000000 0.000000 0.000000
# 2 -0.002268 0.010801 -0.000711 0.000000 0.000000 0.000000
# 3 -0.001858 -0.000711 0.006429 0.000000 0.000000 0.000000
# 4 0.000000 0.000000 0.000000 0.142689 0.000000 -0.000001
# 5 0.000000 0.000000 0.000000 0.000000 0.037944 0.000000
# 6 0.000000 0.000000 0.000000 -0.000001 0.000000 -0.015315
#
#
# Mechanical properties :
#
#
# Convention : Reuss Voigt Hill
#
# Bulk Modulus (GPa) = 61.74552 65.28659 63.51605
# Shear Modulus (GPa) = 24.24153 14.31988 19.28070
#
# Velocity S-wave (km/s) = 3.29738 2.53431 2.94070
# Velocity P-wave (km/s) = 6.49545 6.15189 6.32600
#
# Compressibility (1/GPa) = 0.01619551
#
# Stress axis : x y z
#
# Youngs Moduli (GPa) = 115.75727 92.58526 155.54124
#
# Poissons Ratio (x) = 0.20994 0.28897
# Poissons Ratio (y) = 0.26249 0.11062
# Poissons Ratio (z) = 0.21506 0.06585
#
# Static dielectric constant tensor:
#      x y z
#    x 1.783520 0.000000 0.000000 
#    y 0.000000 1.843800 0.000000 
#    z 0.000000 0.000000 1.951610 
# 
# From -- ./inp_files/5166.got.cif
#   From: 2010.05.17/outbox.cif.g08.bks.cpg/sg23_3_cif.got.tgz:5166.got - 2010.06.04 12:02:01.
