data_PCOD9332860
_publ_section_title
;
Structure prediction by ZEFSAII (Michael W. Deem and Ramdas Pophale) SiO2 
 PCOD9332860
Probable space group: I 21 21 21
;
_chemical_formula_sum "Si O2"
_cell_formula_units_Z 44
_cell_length_a 17.787610
_cell_length_b 9.259236
_cell_length_c 12.848034
_cell_angle_alpha 90.000000
_cell_angle_beta 90.000000
_cell_angle_gamma 90.000000
_cell_volume 2116.067074
_symmetry_space_group_name_H-M "I 21 21 21"
_symmetry_group_IT_number 24
_symmetry_cell_setting 'orthorhombic'
loop_
_space_group_symop_operation_xyz
x,y,z
-x,1/2-y,z
x,-y,1/2-z
1/2-x,y,-z
1/2+x,1/2+y,1/2+z
1/2-x,-y,1/2+z
1/2+x,1/2-y,-z
-x,1/2+y,1/2-z
loop_
_atom_site_type_symbol
_atom_site_label
_atom_site_fract_x
_atom_site_fract_y
_atom_site_fract_z
Si Si1 0.257126 0.805273 0.723607
Si Si2 0.322989 0.183276 0.431715
Si Si3 0.250000 0.745583 0.500000
Si Si4 0.971059 0.585188 0.040370
Si Si5 0.818628 0.000000 0.250000
Si Si6 0.129912 0.506715 0.018790
Si Si7 0.397146 0.000000 0.750000
O O1 0.198073 0.844620 0.811980
O O2 0.243697 0.840426 0.603633
O O3 0.265875 0.634212 0.726361
O O4 0.339120 0.866840 0.751942
O O5 0.250000 0.146685 0.500000
O O6 0.397300 0.101488 0.469612
O O7 0.336920 0.354612 0.457647
O O8 0.178138 0.637507 0.499329
O O9 0.946346 0.509873 0.147122
O O10 0.000000 0.750000 0.060269
O O11 0.041874 0.501001 0.992777
O O12 0.864072 0.032778 0.355796
#
# Coordination Sequence:
#
# PCOD9332860 Si02
#       7
#     8   8   4   8   4   8   4
#     4  11  22  36  63  89 122 165 203 253 299 370
#     4  11  17  36  59  87 122 162 209 241 298 371
#     4  10  22  38  60  92 122 158 206 254 314 362
#     4  10  22  35  59  92 126 161 205 256 306 365
#     4  10  17  34  58  88 123 156 202 249 306 360
#     4  10  18  34  60  91 120 157 205 258 301 361
#     4  12  23  38  62  94 127 158 196 265 316 358
#
# _framework density 20.793292999999998
#
# number of rings (size 3 to 8) (size 9 to 14) (size 15 to 20)
#    0.000    1.455    4.545    2.727    0.000    2.909 
#    0.000    0.000    0.000   17.455    0.000    0.000 
#    0.000    0.000    0.000    0.000    0.000    0.000 
#
# Total GULP energy -122908.967166 kJ/mol
# GULP energy per Si atom -5586.771235 kJ/mol
# Density = 2.074597 g / cm^3
# Si number density = 20.793293 Si / 1000 Ang^3
#
#
#
# Elastic Constant Matrix: (Units=GPa)
#
#
# Indices 1 2 3 4 5 6 
#
# 1 152.1259 19.5489 57.6968 0.0000 0.0000 0.0000
# 2 19.5489 58.8148 18.2543 0.0000 0.0000 0.0000
# 3 57.6968 18.2543 124.2591 0.0000 0.0000 0.0000
# 4 0.0000 0.0000 0.0000 28.1017 0.0000 0.0000
# 5 0.0000 0.0000 0.0000 0.0000 27.1380 0.0000
# 6 0.0000 0.0000 0.0000 0.0000 0.0000 9.8065
#
#
#
# Elastic Compliance Matrix: (Units=1/GPa)
#
#
# Indices 1 2 3 4 5 6 
#
# 1 0.008120 -0.001602 -0.003535 0.000000 0.000000 0.000000
# 2 -0.001602 0.018131 -0.001920 0.000000 0.000000 0.000000
# 3 -0.003535 -0.001920 0.009971 0.000000 0.000000 0.000000
# 4 0.000000 0.000000 0.000000 0.035585 0.000000 0.000000
# 5 0.000000 0.000000 0.000000 0.000000 0.036849 0.000000
# 6 0.000000 0.000000 0.000000 0.000000 0.000000 0.101973
#
#
# Mechanical properties :
#
#
# Convention : Reuss Voigt Hill
#
# Bulk Modulus (GPa) = 45.23087 58.46662 51.84874
# Shear Modulus (GPa) = 21.54136 28.98924 25.26530
#
# Velocity S-wave (km/s) = 3.22215 3.73790 3.48957
# Velocity P-wave (km/s) = 5.97016 6.84166 6.42071
#
# Compressibility (1/GPa) = 0.02210879
#
# Stress axis : x y z
#
# Youngs Moduli (GPa) = 123.15148 55.15496 100.28943
#
# Poissons Ratio (x) = 0.08835 0.35453
# Poissons Ratio (y) = 0.19726 0.19253
# Poissons Ratio (z) = 0.43535 0.10588
#
# Static dielectric constant tensor:
#      x y z
#    x 1.724330 0.000000 0.000000 
#    y 0.000000 1.827530 0.000000 
#    z 0.000000 0.000000 1.799390 
# 
# From -- ./inp_files/21499.got.cif
#   From: 2010.05.17/outbox.cif.g08.bks.cpg/sg24_11_cif.got.tgz:21499.got - 2010.06.04 00:33:39.
