data_PCOD9332216
_publ_section_title
;
Structure prediction by ZEFSAII (Michael W. Deem and Ramdas Pophale) SiO2 
 PCOD9332216
Probable space group: I 2 2 2
;
_chemical_formula_sum "Si O2"
_cell_formula_units_Z 30
_cell_length_a 36.037789
_cell_length_b 7.612002
_cell_length_c 5.541665
_cell_angle_alpha 90.000000
_cell_angle_beta 90.000000
_cell_angle_gamma 90.000000
_cell_volume 1520.188002
_symmetry_space_group_name_H-M "I 2 2 2"
_symmetry_group_IT_number 23
_symmetry_cell_setting 'orthorhombic'
loop_
_space_group_symop_operation_xyz
x,y,z
-x,-y,z
x,-y,-z
-x,y,-z
1/2+x,1/2+y,1/2+z
1/2-x,1/2-y,1/2+z
1/2+x,1/2-y,1/2-z
1/2-x,1/2+y,1/2-z
loop_
_atom_site_type_symbol
_atom_site_label
_atom_site_fract_x
_atom_site_fract_y
_atom_site_fract_z
Si Si1 0.460006 0.309632 0.109084
Si Si2 0.859040 0.500000 0.000000
Si Si3 0.596325 0.000000 0.000000
Si Si4 0.231021 0.000000 0.500000
Si Si5 0.500000 0.500000 0.500000
Si Si6 0.798664 0.353396 0.300437
O O1 0.429358 0.166335 0.063556
O O2 0.471643 0.364647 0.375508
O O3 0.449870 0.500000 0.000000
O O4 0.500000 0.254911 0.000000
O O5 0.882126 0.461590 0.754720
O O6 0.829719 0.647478 0.908635
O O7 0.206921 0.838990 0.405313
O O8 0.259165 0.918716 0.697242
O O9 0.809216 0.500000 0.500000
#
# Coordination Sequence:
#
# PCOD9332216 Si02
#       6
#     8   4   4   4   2   8
#     4   9  21  41  67 103 130 172 234 294 329 398
#     4  11  28  46  65  96 153 178 232 270 329 436
#     4  12  25  46  68  96 138 199 216 276 347 406
#     4  11  22  38  78  96 135 168 226 284 353 376
#     4   8  18  40  70 106 136 156 230 320 322 392
#     4  11  22  44  65 108 131 174 224 287 336 406
#
# _framework density 19.734400999999998
#
# number of rings (size 3 to 8) (size 9 to 14) (size 15 to 20)
#    0.000    1.867    4.000    0.400    7.467    0.000 
#    2.400    2.667    0.000    0.000    0.000    0.000 
#    0.000    0.000    0.000    0.000    0.000    0.000 
#
# Total GULP energy -83502.323821 kJ/mol
# GULP energy per Si atom -5566.821588 kJ/mol
# Density = 1.968948 g / cm^3
# Si number density = 19.734401 Si / 1000 Ang^3
#
#
#
# Elastic Constant Matrix: (Units=GPa)
#
#
# Indices 1 2 3 4 5 6 
#
# 1 117.2153 77.1959 74.3437 0.0000 0.0000 0.0000
# 2 77.1959 146.8494 66.4387 0.0000 0.0000 0.0000
# 3 74.3437 66.4387 123.5374 0.0000 0.0000 0.0000
# 4 0.0000 0.0000 0.0000 59.2823 0.0000 0.0000
# 5 0.0000 0.0000 0.0000 0.0000 93.0176 0.0000
# 6 0.0000 0.0000 0.0000 0.0000 0.0000 4.9282
#
#
#
# Elastic Compliance Matrix: (Units=1/GPa)
#
#
# Indices 1 2 3 4 5 6 
#
# 1 0.016663 -0.005580 -0.007026 0.000000 0.000000 0.000000
# 2 -0.005580 0.010868 -0.002487 0.000000 0.000000 0.000000
# 3 -0.007026 -0.002487 0.013661 0.000000 0.000000 0.000000
# 4 0.000000 0.000000 0.000000 0.016868 0.000000 0.000000
# 5 0.000000 0.000000 0.000000 0.000000 0.010751 0.000000
# 6 0.000000 0.000000 0.000000 0.000000 0.000000 0.202916
#
#
# Mechanical properties :
#
#
# Convention : Reuss Voigt Hill
#
# Bulk Modulus (GPa) = 90.87145 91.50652 91.18898
# Shear Modulus (GPa) = 16.36221 42.75387 29.55804
#
# Velocity S-wave (km/s) = 2.88257 4.65958 3.87433
# Velocity P-wave (km/s) = 7.56480 8.68439 8.14385
#
# Compressibility (1/GPa) = 0.01100456
#
# Stress axis : x y z
#
# Youngs Moduli (GPa) = 60.01299 92.01073 73.20349
#
# Poissons Ratio (x) = 0.51346 0.51436
# Poissons Ratio (y) = 0.33490 0.18204
# Poissons Ratio (z) = 0.42168 0.22880
#
# Static dielectric constant tensor:
#      x y z
#    x 1.701610 0.000000 0.000000 
#    y 0.000000 1.624210 0.000000 
#    z 0.000000 0.000000 1.805700 
# 
# From -- ./inp_files/5184.got.cif
#   From: 2010.05.17/outbox.cif.g08.bks.cpg/sg23_3_cif.got.tgz:5184.got - 2010.06.04 12:02:01.
