data_PCOD9332832
_publ_section_title
;
Structure prediction by ZEFSAII (Michael W. Deem and Ramdas Pophale) SiO2 
 PCOD9332832
Probable space group: I 21 21 21
;
_chemical_formula_sum "Si O2"
_cell_formula_units_Z 40
_cell_length_a 7.723470
_cell_length_b 11.598171
_cell_length_c 23.345013
_cell_angle_alpha 90.000000
_cell_angle_beta 90.000000
_cell_angle_gamma 90.000000
_cell_volume 2091.202511
_symmetry_space_group_name_H-M "I 21 21 21"
_symmetry_group_IT_number 24
_symmetry_cell_setting 'orthorhombic'
loop_
_space_group_symop_operation_xyz
x,y,z
-x,1/2-y,z
x,-y,1/2-z
1/2-x,y,-z
1/2+x,1/2+y,1/2+z
1/2-x,-y,1/2+z
1/2+x,1/2-y,-z
-x,1/2+y,1/2-z
loop_
_atom_site_type_symbol
_atom_site_label
_atom_site_fract_x
_atom_site_fract_y
_atom_site_fract_z
Si Si1 0.703182 0.224146 0.064674
Si Si2 0.657361 0.421571 0.860669
Si Si3 0.565641 0.572485 0.189886
Si Si4 0.303093 0.750295 0.270625
Si Si5 0.280371 0.462863 0.837350
O O1 0.500000 0.250000 0.067237
O O2 0.816022 0.335455 0.085797
O O3 0.735849 0.122212 0.109738
O O4 0.750000 0.193534 0.000000
O O5 0.816372 0.508649 0.856060
O O6 0.682536 0.334460 0.806970
O O7 0.479786 0.489718 0.850190
O O8 0.572913 0.500000 0.250000
O O9 0.657628 0.691176 0.209480
O O10 0.368007 0.559006 0.168849
O O11 0.500000 0.750000 0.296551
O O12 0.233348 0.622405 0.281786
#
# Coordination Sequence:
#
# PCOD9332832 Si02
#       5
#     8   8   8   8   8
#     4  11  19  32  51  71  98 135 166 204 252 303
#     4  10  19  32  46  69 101 130 167 206 244 297
#     4  10  19  32  47  68  99 138 168 208 248 291
#     4  10  17  32  47  65  96 134 167 203 246 292
#     4  11  19  34  49  69 104 136 166 208 248 300
#
# _framework density 19.127749999999999
#
# number of rings (size 3 to 8) (size 9 to 14) (size 15 to 20)
#    0.000    1.600    6.000    4.800    0.000    2.400 
#    3.600    0.000    0.000    0.000    0.000    0.000 
#    0.000    1.600    0.000    0.000    0.000    0.000 
#
# Total GULP energy -111379.617222 kJ/mol
# GULP energy per Si atom -5568.980861 kJ/mol
# Density = 1.908421 g / cm^3
# Si number density = 19.127750 Si / 1000 Ang^3
#
#
#
# Elastic Constant Matrix: (Units=GPa)
#
#
# Indices 1 2 3 4 5 6 
#
# 1 118.4817 9.7294 9.6534 0.0000 0.0000 0.0000
# 2 9.7294 59.1713 25.9017 0.0000 0.0000 0.0000
# 3 9.6534 25.9017 76.7655 0.0000 0.0000 0.0000
# 4 0.0000 0.0000 0.0000 18.6033 0.0000 0.0000
# 5 0.0000 0.0000 0.0000 0.0000 25.1416 0.0000
# 6 0.0000 0.0000 0.0000 0.0000 0.0000 25.7931
#
#
#
# Elastic Compliance Matrix: (Units=1/GPa)
#
#
# Indices 1 2 3 4 5 6 
#
# 1 0.008588 -0.001102 -0.000708 0.000000 0.000000 0.000000
# 2 -0.001102 0.019970 -0.006600 0.000000 0.000000 0.000000
# 3 -0.000708 -0.006600 0.015343 0.000000 0.000000 0.000000
# 4 0.000000 0.000000 0.000000 0.053754 0.000000 0.000000
# 5 0.000000 0.000000 0.000000 0.000000 0.039775 0.000000
# 6 0.000000 0.000000 0.000000 0.000000 0.000000 0.038770
#
#
# Mechanical properties :
#
#
# Convention : Reuss Voigt Hill
#
# Bulk Modulus (GPa) = 36.92592 38.33196 37.62894
# Shear Modulus (GPa) = 24.74677 27.84987 26.29832
#
# Velocity S-wave (km/s) = 3.60079 3.81989 3.71196
# Velocity P-wave (km/s) = 6.05264 6.28799 6.17144
#
# Compressibility (1/GPa) = 0.02708125
#
# Stress axis : x y z
#
# Youngs Moduli (GPa) = 116.43709 50.07455 65.17833
#
# Poissons Ratio (x) = 0.05519 0.04615
# Poissons Ratio (y) = 0.12834 0.43015
# Poissons Ratio (z) = 0.08245 0.33047
#
# Static dielectric constant tensor:
#      x y z
#    x 1.745640 0.000000 0.000000 
#    y 0.000000 1.768020 0.000000 
#    z 0.000000 0.000000 1.654670 
# 
# From -- ./inp_files/32677.got.cif
#   From: 2010.05.17/outbox.cif.g08.bks.cpg/sg24_17_cif.got.tgz:32677.got - 2010.06.04 00:33:39.
