data_PCOD9332761
_publ_section_title
;
Structure prediction by ZEFSAII (Michael W. Deem and Ramdas Pophale) SiO2 
 PCOD9332761
Probable space group: I 21 21 21
;
_chemical_formula_sum "Si O2"
_cell_formula_units_Z 28
_cell_length_a 13.034999
_cell_length_b 10.234675
_cell_length_c 9.048090
_cell_angle_alpha 90.000000
_cell_angle_beta 90.000000
_cell_angle_gamma 90.000000
_cell_volume 1207.096443
_symmetry_space_group_name_H-M "I 21 21 21"
_symmetry_group_IT_number 24
_symmetry_cell_setting 'orthorhombic'
loop_
_space_group_symop_operation_xyz
x,y,z
-x,1/2-y,z
x,-y,1/2-z
1/2-x,y,-z
1/2+x,1/2+y,1/2+z
1/2-x,-y,1/2+z
1/2+x,1/2-y,-z
-x,1/2+y,1/2-z
loop_
_atom_site_type_symbol
_atom_site_label
_atom_site_fract_x
_atom_site_fract_y
_atom_site_fract_z
Si Si1 0.623078 0.000000 0.750000
Si Si2 0.307897 0.213638 0.781240
Si Si3 0.907231 0.648627 0.599814
Si Si4 0.957525 0.387673 0.474244
O O1 0.687295 0.129398 0.779199
O O2 0.547843 0.043440 0.619062
O O3 0.190631 0.174540 0.798058
O O4 0.365894 0.149988 0.640615
O O5 0.368735 0.173260 0.929449
O O6 0.932418 0.495581 0.593798
O O7 0.000000 0.750000 0.624868
O O8 0.000000 0.250000 0.531227
#
# Coordination Sequence:
#
# PCOD9332761 Si02
#       4
#     4   8   8   8
#     4  10  16  34  58  86 116 158 206 246 296 358
#     4  10  20  31  63  90 119 156 208 252 304 353
#     4  11  19  35  61  91 117 159 202 251 304 363
#     4  10  18  34  62  88 116 157 203 254 294 356
#
# _framework density 23.196156999999999
#
# number of rings (size 3 to 8) (size 9 to 14) (size 15 to 20)
#    0.000    1.714    5.714    0.857    0.000    0.000 
#    0.000    0.000   44.000    0.000    0.000    0.000 
#    0.000    0.000    0.000    0.000    0.000    0.000 
#
# Total GULP energy -78383.173771 kJ/mol
# GULP energy per Si atom -5598.798126 kJ/mol
# Density = 2.314336 g / cm^3
# Si number density = 23.196157 Si / 1000 Ang^3
#
#
#
# Elastic Constant Matrix: (Units=GPa)
#
#
# Indices 1 2 3 4 5 6 
#
# 1 169.3989 109.3114 52.5798 0.0000 0.0000 0.0000
# 2 109.3114 257.9443 70.1576 0.0000 0.0000 0.0000
# 3 52.5798 70.1576 95.9943 0.0000 0.0000 0.0000
# 4 0.0000 0.0000 0.0000 11.4195 0.0000 0.0000
# 5 0.0000 0.0000 0.0000 0.0000 12.6015 0.0000
# 6 0.0000 0.0000 0.0000 0.0000 0.0000 41.7920
#
#
#
# Elastic Compliance Matrix: (Units=1/GPa)
#
#
# Indices 1 2 3 4 5 6 
#
# 1 0.008599 -0.002949 -0.002555 0.000000 0.000000 0.000000
# 2 -0.002949 0.005850 -0.002660 0.000000 0.000000 0.000000
# 3 -0.002555 -0.002660 0.013761 0.000000 0.000000 0.000000
# 4 0.000000 0.000000 0.000000 0.087570 0.000000 0.000000
# 5 0.000000 0.000000 0.000000 0.000000 0.079355 0.000000
# 6 0.000000 0.000000 0.000000 0.000000 0.000000 0.023928
#
#
# Mechanical properties :
#
#
# Convention : Reuss Voigt Hill
#
# Bulk Modulus (GPa) = 84.16118 109.71501 96.93810
# Shear Modulus (GPa) = 20.88969 32.58185 26.73577
#
# Velocity S-wave (km/s) = 3.00420 3.75190 3.39867
# Velocity P-wave (km/s) = 6.95664 8.13452 7.56853
#
# Compressibility (1/GPa) = 0.01188196
#
# Stress axis : x y z
#
# Youngs Moduli (GPa) = 116.28735 170.93345 72.67057
#
# Poissons Ratio (x) = 0.50415 0.18565
# Poissons Ratio (y) = 0.34298 0.19331
# Poissons Ratio (z) = 0.29707 0.45471
#
# Static dielectric constant tensor:
#      x y z
#    x 1.841030 0.000000 0.000000 
#    y 0.000000 1.888850 0.000000 
#    z 0.000000 0.000000 1.876210 
# 
# From -- ./inp_files/19089.got.cif
#   From: 2010.05.17/outbox.cif.g08.bks.cpg/sg24_10_cif.got.tgz:19089.got - 2010.06.04 00:33:39.
