data_PCOD9332468
_publ_section_title
;
Structure prediction by ZEFSAII (Michael W. Deem and Ramdas Pophale) SiO2 
 PCOD9332468
Probable space group: I 2 2 2
;
_chemical_formula_sum "Si O2"
_cell_formula_units_Z 40
_cell_length_a 7.353506
_cell_length_b 22.789287
_cell_length_c 9.349441
_cell_angle_alpha 90.000000
_cell_angle_beta 90.000000
_cell_angle_gamma 90.000000
_cell_volume 1566.790156
_symmetry_space_group_name_H-M "I 2 2 2"
_symmetry_group_IT_number 23
_symmetry_cell_setting 'orthorhombic'
loop_
_space_group_symop_operation_xyz
x,y,z
-x,-y,z
x,-y,-z
-x,y,-z
1/2+x,1/2+y,1/2+z
1/2-x,1/2-y,1/2+z
1/2+x,1/2-y,1/2-z
1/2-x,1/2+y,1/2-z
loop_
_atom_site_type_symbol
_atom_site_label
_atom_site_fract_x
_atom_site_fract_y
_atom_site_fract_z
Si Si1 0.219278 0.002325 0.167486
Si Si2 0.640561 0.688596 0.165670
Si Si3 0.080673 0.405335 0.144576
Si Si4 0.728915 0.366560 0.247717
Si Si5 0.706620 0.194067 0.013477
O O1 0.338319 0.951717 0.243025
O O2 0.246920 0.063074 0.252272
O O3 0.000000 0.000000 0.173156
O O4 0.269532 0.000000 0.000000
O O5 0.743091 0.632413 0.104786
O O6 0.712158 0.698225 0.328887
O O7 0.571074 0.670023 0.829256
O O8 0.694822 0.745187 0.074436
O O9 0.935414 0.355328 0.197186
O O10 0.000000 0.431763 0.000000
O O11 0.688833 0.351316 0.413128
O O12 0.500000 0.171557 0.000000
#
# Coordination Sequence:
#
# PCOD9332468 Si02
#       5
#     8   8   8   8   8
#     4  11  25  50  85 121 162 215 272 338 414 498
#     4  12  28  51  78 117 160 213 273 341 413 485
#     4  12  29  51  82 124 162 213 270 337 414 491
#     4  12  27  48  82 114 159 211 268 337 408 494
#     4  12  27  48  78 114 158 211 271 338 410 490
#
# _framework density 25.529903000000001
#
# number of rings (size 3 to 8) (size 9 to 14) (size 15 to 20)
#    0.000    0.200    4.000    3.600    8.400    2.400 
#    0.000    1.000    0.000    0.000    0.000    0.000 
#    0.000    0.000    0.000    0.000    0.000    0.000 
#
# Total GULP energy -111843.458480 kJ/mol
# GULP energy per Si atom -5592.172924 kJ/mol
# Density = 2.547180 g / cm^3
# Si number density = 25.529903 Si / 1000 Ang^3
#
#
#
# Elastic Constant Matrix: (Units=GPa)
#
#
# Indices 1 2 3 4 5 6 
#
# 1 147.4037 33.0139 66.7389 0.0000 0.0004 0.0000
# 2 33.0139 79.0621 37.0861 0.0002 -0.0007 -0.0001
# 3 66.7389 37.0861 181.4668 -0.0005 0.0012 0.0007
# 4 0.0000 0.0002 -0.0005 43.3678 -0.0001 0.0002
# 5 0.0004 -0.0007 0.0012 -0.0001 95.2943 -0.0004
# 6 0.0000 -0.0001 0.0007 0.0002 -0.0004 27.7302
#
#
#
# Elastic Compliance Matrix: (Units=1/GPa)
#
#
# Indices 1 2 3 4 5 6 
#
# 1 0.008503 -0.002305 -0.002656 0.000000 0.000000 0.000000
# 2 -0.002305 0.014614 -0.002139 0.000000 0.000000 0.000000
# 3 -0.002656 -0.002139 0.006925 0.000000 0.000000 0.000000
# 4 0.000000 0.000000 0.000000 0.023059 0.000000 0.000000
# 5 0.000000 0.000000 0.000000 0.000000 0.010494 0.000000
# 6 0.000000 0.000000 0.000000 0.000000 0.000000 0.036062
#
#
# Mechanical properties :
#
#
# Convention : Reuss Voigt Hill
#
# Bulk Modulus (GPa) = 63.12374 75.73448 69.42911
# Shear Modulus (GPa) = 41.96888 51.35139 46.66014
#
# Velocity S-wave (km/s) = 4.05892 4.48975 4.27976
# Velocity P-wave (km/s) = 6.83707 7.52373 7.18860
#
# Compressibility (1/GPa) = 0.01584190
#
# Stress axis : x y z
#
# Youngs Moduli (GPa) = 117.60761 68.42755 144.41115
#
# Poissons Ratio (x) = 0.15770 0.38358
# Poissons Ratio (y) = 0.27104 0.30891
# Poissons Ratio (z) = 0.31238 0.14637
#
# Static dielectric constant tensor:
#      x y z
#    x 2.503740 0.000000 0.000000 
#    y 0.000000 1.993940 0.000000 
#    z 0.000000 0.000000 2.209060 
# 
# From -- ./inp_files/7072.got.cif
#   From: 2010.05.17/outbox.cif.g08.bks.cpg/sg23_4_cif.got.tgz:7072.got - 2010.06.04 12:02:01.
