data_PCOD9332943
_publ_section_title
;
Structure prediction by ZEFSAII (Michael W. Deem and Ramdas Pophale) SiO2 
 PCOD9332943
Probable space group: I 21 21 21
;
_chemical_formula_sum "Si O2"
_cell_formula_units_Z 36
_cell_length_a 8.782934
_cell_length_b 8.867741
_cell_length_c 22.902984
_cell_angle_alpha 90.000000
_cell_angle_beta 90.000000
_cell_angle_gamma 90.000000
_cell_volume 1783.793960
_symmetry_space_group_name_H-M "I 21 21 21"
_symmetry_group_IT_number 24
_symmetry_cell_setting 'orthorhombic'
loop_
_space_group_symop_operation_xyz
x,y,z
-x,1/2-y,z
x,-y,1/2-z
1/2-x,y,-z
1/2+x,1/2+y,1/2+z
1/2-x,-y,1/2+z
1/2+x,1/2-y,-z
-x,1/2+y,1/2-z
loop_
_atom_site_type_symbol
_atom_site_label
_atom_site_fract_x
_atom_site_fract_y
_atom_site_fract_z
Si Si1 0.724232 0.352502 0.433960
Si Si2 0.000000 0.250000 0.369572
Si Si3 0.821347 0.986943 0.319481
Si Si4 0.913148 0.016609 0.586949
Si Si5 0.500000 0.250000 0.903246
Si Si6 0.250000 0.710064 0.500000
O O1 0.750000 0.393804 0.500000
O O2 0.890501 0.355559 0.406747
O O3 0.661697 0.179190 0.430312
O O4 0.592526 0.456851 0.408374
O O5 0.113075 0.349217 0.333351
O O6 0.929932 0.872935 0.357130
O O7 0.812033 0.000000 0.250000
O O8 0.659697 0.969910 0.351562
O O9 0.862544 0.898067 0.537806
O O10 0.640637 0.284422 0.949422
#
# Coordination Sequence:
#
# PCOD9332943 Si02
#       6
#     8   4   8   8   4   4
#     4  10  18  29  55  90 121 145 183 248 305 362
#     4  10  21  34  58  90 110 147 206 244 296 352
#     4  10  21  40  59  82 118 164 210 253 296 363
#     4   9  19  33  54  84 120 157 193 247 311 358
#     4  10  23  36  62  86 124 169 200 260 322 370
#     4  10  20  38  52  88 128 162 208 248 320 386
#
# _framework density 20.181702999999999
#
# number of rings (size 3 to 8) (size 9 to 14) (size 15 to 20)
#    0.000    2.222    1.111    2.000    6.222    1.778 
#    0.000    1.111    0.000   24.000    0.000    0.000 
#    0.000    0.000    0.000    0.000    0.000    0.000 
#
# Total GULP energy -100217.571661 kJ/mol
# GULP energy per Si atom -5567.642870 kJ/mol
# Density = 2.013577 g / cm^3
# Si number density = 20.181703 Si / 1000 Ang^3
#
#
#
# Elastic Constant Matrix: (Units=GPa)
#
#
# Indices 1 2 3 4 5 6 
#
# 1 132.9676 22.2520 70.0305 0.0000 0.0000 0.0000
# 2 22.2520 43.1061 43.4274 0.0000 0.0000 0.0000
# 3 70.0305 43.4274 189.7667 0.0000 0.0000 0.0000
# 4 0.0000 0.0000 0.0000 25.1882 0.0000 0.0000
# 5 0.0000 0.0000 0.0000 0.0000 15.6809 0.0000
# 6 0.0000 0.0000 0.0000 0.0000 0.0000 35.9505
#
#
#
# Elastic Compliance Matrix: (Units=1/GPa)
#
#
# Indices 1 2 3 4 5 6 
#
# 1 0.009438 -0.001772 -0.003078 0.000000 0.000000 0.000000
# 2 -0.001772 0.030482 -0.006322 0.000000 0.000000 0.000000
# 3 -0.003078 -0.006322 0.007852 0.000000 0.000000 0.000000
# 4 0.000000 0.000000 0.000000 0.039701 0.000000 0.000000
# 5 0.000000 0.000000 0.000000 0.000000 0.063772 0.000000
# 6 0.000000 0.000000 0.000000 0.000000 0.000000 0.027816
#
#
# Mechanical properties :
#
#
# Convention : Reuss Voigt Hill
#
# Bulk Modulus (GPa) = 39.32339 70.80669 55.06504
# Shear Modulus (GPa) = 23.82313 30.70595 27.26454
#
# Velocity S-wave (km/s) = 3.43947 3.90484 3.67952
# Velocity P-wave (km/s) = 5.94140 7.44924 6.73763
#
# Compressibility (1/GPa) = 0.02543016
#
# Stress axis : x y z
#
# Youngs Moduli (GPa) = 105.95530 32.80604 127.35451
#
# Poissons Ratio (x) = 0.05812 0.39194
# Poissons Ratio (y) = 0.18771 0.80513
# Poissons Ratio (z) = 0.32608 0.20740
#
# Static dielectric constant tensor:
#      x y z
#    x 1.515900 0.000000 0.000000 
#    y 0.000000 1.776530 0.000000 
#    z 0.000000 0.000000 1.608350 
# 
# From -- ./inp_files/9110.got.cif
#   From: 2010.05.17/outbox.cif.g08.bks.cpg/sg24_5_cif.got.tgz:9110.got - 2010.06.04 00:33:39.
