data_PCOD9332326
_publ_section_title
;
Structure prediction by ZEFSAII (Michael W. Deem and Ramdas Pophale) SiO2 
 PCOD9332326
Probable space group: I 2 2 2
;
_chemical_formula_sum "Si O2"
_cell_formula_units_Z 40
_cell_length_a 8.727238
_cell_length_b 20.305280
_cell_length_c 10.260055
_cell_angle_alpha 90.000000
_cell_angle_beta 90.000000
_cell_angle_gamma 90.000000
_cell_volume 1818.174202
_symmetry_space_group_name_H-M "I 2 2 2"
_symmetry_group_IT_number 23
_symmetry_cell_setting 'orthorhombic'
loop_
_space_group_symop_operation_xyz
x,y,z
-x,-y,z
x,-y,-z
-x,y,-z
1/2+x,1/2+y,1/2+z
1/2-x,1/2-y,1/2+z
1/2+x,1/2-y,1/2-z
1/2-x,1/2+y,1/2-z
loop_
_atom_site_type_symbol
_atom_site_label
_atom_site_fract_x
_atom_site_fract_y
_atom_site_fract_z
Si Si1 0.895525 0.130936 0.610292
Si Si2 0.558930 0.128142 0.141410
Si Si3 0.000000 0.500000 0.779692
Si Si4 0.418897 0.792089 0.633837
Si Si5 0.754339 0.500000 0.000000
Si Si6 0.086597 0.133958 0.868409
O O1 0.746999 0.174299 0.643539
O O2 0.000000 0.165341 0.500000
O O3 0.992292 0.115848 0.739471
O O4 0.838700 0.063562 0.543895
O O5 0.469675 0.063405 0.191701
O O6 0.522696 0.184241 0.246436
O O7 0.738266 0.110991 0.135636
O O8 0.500000 0.147787 0.000000
O O9 0.861733 0.482929 0.877065
O O10 0.500000 0.814691 0.500000
O O11 0.405707 0.713699 0.630530
O O12 0.000000 0.112568 0.000000
#
# Coordination Sequence:
#
# PCOD9332326 Si02
#       6
#     8   8   4   8   4   8
#     4  12  24  41  69 107 140 181 239 298 358 421
#     4  12  25  44  70  99 139 190 237 288 355 432
#     4  11  23  44  72 100 132 184 240 286 346 444
#     4  11  23  44  70 102 140 192 238 290 355 436
#     4  11  23  42  74 100 136 184 236 296 356 426
#     4  11  26  44  69 105 146 181 236 299 367 421
#
# _framework density 22.000091000000001
#
# number of rings (size 3 to 8) (size 9 to 14) (size 15 to 20)
#    0.000    0.600    2.000    6.600    0.000    6.400 
#    0.000    0.000    0.000    0.000    0.000    0.000 
#    0.000    0.000    0.000    0.000    0.000    0.000 
#
# Total GULP energy -112035.964658 kJ/mol
# GULP energy per Si atom -5601.798233 kJ/mol
# Density = 2.195002 g / cm^3
# Si number density = 22.000091 Si / 1000 Ang^3
#
#
#
# Elastic Constant Matrix: (Units=GPa)
#
#
# Indices 1 2 3 4 5 6 
#
# 1 129.0111 -0.8903 64.2545 0.0000 0.0000 0.0000
# 2 -0.8903 48.4408 9.9339 0.0000 0.0000 0.0000
# 3 64.2545 9.9339 185.5639 0.0000 0.0000 0.0000
# 4 0.0000 0.0000 0.0000 30.4656 0.0000 0.0000
# 5 0.0000 0.0000 0.0000 0.0000 26.4043 0.0000
# 6 0.0000 0.0000 0.0000 0.0000 0.0000 25.4443
#
#
#
# Elastic Compliance Matrix: (Units=1/GPa)
#
#
# Indices 1 2 3 4 5 6 
#
# 1 0.009401 0.000850 -0.003301 0.000000 0.000000 0.000000
# 2 0.000850 0.020950 -0.001416 0.000000 0.000000 0.000000
# 3 -0.003301 -0.001416 0.006608 0.000000 0.000000 0.000000
# 4 0.000000 0.000000 0.000000 0.032824 0.000000 0.000000
# 5 0.000000 0.000000 0.000000 0.000000 0.037873 0.000000
# 6 0.000000 0.000000 0.000000 0.000000 0.000000 0.039301
#
#
# Mechanical properties :
#
#
# Convention : Reuss Voigt Hill
#
# Bulk Modulus (GPa) = 34.21743 56.62357 45.42050
# Shear Modulus (GPa) = 30.40773 35.77734 33.09254
#
# Velocity S-wave (km/s) = 3.72178 4.03704 3.88261
# Velocity P-wave (km/s) = 5.83575 6.89376 6.38670
#
# Compressibility (1/GPa) = 0.02922487
#
# Stress axis : x y z
#
# Youngs Moduli (GPa) = 106.37056 47.73338 151.33825
#
# Poissons Ratio (x) = -0.04056 0.49953
# Poissons Ratio (y) = -0.09038 0.21425
# Poissons Ratio (z) = 0.35110 0.06758
#
# Static dielectric constant tensor:
#      x y z
#    x 1.825910 0.000000 0.000000 
#    y 0.000000 1.807250 0.000000 
#    z 0.000000 0.000000 1.786610 
# 
# From -- ./inp_files/7134.got.cif
#   From: 2010.05.17/outbox.cif.g08.bks.cpg/sg23_4_cif.got.tgz:7134.got - 2010.06.04 12:02:01.
