data_PCOD9332917
_publ_section_title
;
Structure prediction by ZEFSAII (Michael W. Deem and Ramdas Pophale) SiO2 
 PCOD9332917
Probable space group: I 21 21 21
;
_chemical_formula_sum "Si O2"
_cell_formula_units_Z 48
_cell_length_a 9.350625
_cell_length_b 20.776452
_cell_length_c 13.815194
_cell_angle_alpha 90.000000
_cell_angle_beta 90.000000
_cell_angle_gamma 90.000000
_cell_volume 2683.916580
_symmetry_space_group_name_H-M "I 21 21 21"
_symmetry_group_IT_number 24
_symmetry_cell_setting 'orthorhombic'
loop_
_space_group_symop_operation_xyz
x,y,z
-x,1/2-y,z
x,-y,1/2-z
1/2-x,y,-z
1/2+x,1/2+y,1/2+z
1/2-x,-y,1/2+z
1/2+x,1/2-y,-z
-x,1/2+y,1/2-z
loop_
_atom_site_type_symbol
_atom_site_label
_atom_site_fract_x
_atom_site_fract_y
_atom_site_fract_z
Si Si1 0.333819 0.526180 0.899789
Si Si2 0.099050 0.096024 0.458366
Si Si3 0.600449 0.807386 0.056373
Si Si4 0.591261 0.314841 0.726182
Si Si5 0.325660 0.606844 0.709625
Si Si6 0.654447 0.770028 0.279570
O O1 0.501562 0.539320 0.916950
O O2 0.291856 0.579425 0.818302
O O3 0.313372 0.455336 0.857165
O O4 0.250000 0.533671 0.000000
O O5 0.250000 0.075777 0.500000
O O6 0.126220 0.147877 0.372877
O O7 0.997665 0.130555 0.537763
O O8 0.500000 0.750000 0.018275
O O9 0.633060 0.789507 0.166702
O O10 0.750000 0.811550 0.000000
O O11 0.500000 0.250000 0.706451
O O12 0.484401 0.362297 0.783667
O O13 0.732966 0.288806 0.778944
O O14 0.223735 0.665281 0.677876
O O15 0.500000 0.750000 0.318809
#
# Coordination Sequence:
#
# PCOD9332917 Si02
#       6
#     8   8   8   8   8   8
#     4  10  20  35  54  72  98 137 174 205 242 295
#     4  11  19  28  44  70 102 133 166 202 243 300
#     4  11  18  25  41  70 106 136 159 194 247 308
#     4   9  17  29  46  68  99 135 162 194 250 307
#     4   9  19  35  52  73 101 135 169 200 247 307
#     4  10  18  28  47  74  99 125 161 209 254 291
#
# _framework density 17.884312999999999
#
# number of rings (size 3 to 8) (size 9 to 14) (size 15 to 20)
#    0.000    2.000    0.000    8.500    0.000    0.000 
#    0.000    2.500    0.000    9.000    0.000    0.000 
#    0.000    0.000    0.000    0.000    0.000    0.000 
#
# Total GULP energy -133847.360081 kJ/mol
# GULP energy per Si atom -5576.973337 kJ/mol
# Density = 1.784361 g / cm^3
# Si number density = 17.884313 Si / 1000 Ang^3
#
#
#
# Elastic Constant Matrix: (Units=GPa)
#
#
# Indices 1 2 3 4 5 6 
#
# 1 120.2645 51.0994 17.7064 0.0000 0.0000 0.0000
# 2 51.0994 98.0626 20.5584 0.0000 0.0000 0.0000
# 3 17.7064 20.5584 23.4744 0.0000 0.0000 0.0000
# 4 0.0000 0.0000 0.0000 9.2702 0.0000 0.0000
# 5 0.0000 0.0000 0.0000 0.0000 5.3787 0.0000
# 6 0.0000 0.0000 0.0000 0.0000 0.0000 18.3374
#
#
#
# Elastic Compliance Matrix: (Units=1/GPa)
#
#
# Indices 1 2 3 4 5 6 
#
# 1 0.010979 -0.004881 -0.004006 0.000000 0.000000 0.000000
# 2 -0.004881 0.014661 -0.009158 0.000000 0.000000 0.000000
# 3 -0.004006 -0.009158 0.053642 0.000000 0.000000 0.000000
# 4 0.000000 0.000000 0.000000 0.107873 0.000000 0.000000
# 5 0.000000 0.000000 0.000000 0.000000 0.185919 0.000000
# 6 0.000000 0.000000 0.000000 0.000000 0.000000 0.054533
#
#
# Mechanical properties :
#
#
# Convention : Reuss Voigt Hill
#
# Bulk Modulus (GPa) = 23.15309 46.72554 34.93931
# Shear Modulus (GPa) = 10.45817 16.75974 13.60896
#
# Velocity S-wave (km/s) = 2.42082 3.06456 2.76151
# Velocity P-wave (km/s) = 4.55938 6.22136 5.45405
#
# Compressibility (1/GPa) = 0.04319078
#
# Stress axis : x y z
#
# Youngs Moduli (GPa) = 91.08500 68.20839 18.64204
#
# Poissons Ratio (x) = 0.33292 0.07469
# Poissons Ratio (y) = 0.44458 0.17073
# Poissons Ratio (z) = 0.36493 0.62466
#
# Static dielectric constant tensor:
#      x y z
#    x 1.630210 0.000000 0.000000 
#    y 0.000000 1.630380 0.000000 
#    z 0.000000 0.000000 1.616450 
# 
# From -- ./inp_files/12985.got.cif
#   From: 2010.05.17/outbox.cif.g08.bks.cpg/sg24_7_cif.got.tgz:12985.got - 2010.06.04 00:33:39.
