data_PCOD9332180
_publ_section_title
;
Structure prediction by ZEFSAII (Michael W. Deem and Ramdas Pophale) SiO2 
 PCOD9332180
Probable space group: I 2 2 2
;
_chemical_formula_sum "Si O2"
_cell_formula_units_Z 34
_cell_length_a 11.997291
_cell_length_b 11.610563
_cell_length_c 10.664761
_cell_angle_alpha 90.000000
_cell_angle_beta 90.000000
_cell_angle_gamma 90.000000
_cell_volume 1485.551115
_symmetry_space_group_name_H-M "I 2 2 2"
_symmetry_group_IT_number 23
_symmetry_cell_setting 'orthorhombic'
loop_
_space_group_symop_operation_xyz
x,y,z
-x,-y,z
x,-y,-z
-x,y,-z
1/2+x,1/2+y,1/2+z
1/2-x,1/2-y,1/2+z
1/2+x,1/2-y,1/2-z
1/2-x,1/2+y,1/2-z
loop_
_atom_site_type_symbol
_atom_site_label
_atom_site_fract_x
_atom_site_fract_y
_atom_site_fract_z
Si Si1 0.000000 0.500000 0.500000
Si Si2 0.405050 0.726935 0.609293
Si Si3 0.022829 0.136686 0.355827
Si Si4 0.865819 0.515522 0.860247
Si Si5 0.677147 0.844967 0.853664
O O1 0.919638 0.582306 0.420865
O O2 0.500000 0.737130 0.500000
O O3 0.451437 0.670165 0.734387
O O4 0.361967 0.849383 0.661013
O O5 0.292349 0.661122 0.569318
O O6 0.132422 0.215657 0.329065
O O7 0.000000 0.172877 0.500000
O O8 0.000000 0.000000 0.359380
O O9 0.808850 0.421439 0.772263
O O10 0.000000 0.500000 0.858914
O O11 0.820961 0.500000 0.000000
#
# Coordination Sequence:
#
# PCOD9332180 Si02
#       5
#     2   8   8   8   8
#     4  12  24  52  74 112 144 216 276 318 412 488
#     4  12  27  49  79 119 157 206 274 341 408 484
#     4  11  26  48  69 110 157 203 262 329 409 481
#     4  11  21  48  79 111 154 211 268 325 406 495
#     4  12  26  47  82 109 157 213 269 338 406 498
#
# _framework density 22.887129000000002
#
# number of rings (size 3 to 8) (size 9 to 14) (size 15 to 20)
#    0.000    0.471    7.059    0.000    3.294    6.118 
#    0.000    0.000    0.000    0.000    0.000    0.000 
#    0.000    0.000    0.000    0.000    0.000    0.000 
#
# Total GULP energy -94698.822696 kJ/mol
# GULP energy per Si atom -5570.518982 kJ/mol
# Density = 2.283504 g / cm^3
# Si number density = 22.887129 Si / 1000 Ang^3
#
#
#
# Elastic Constant Matrix: (Units=GPa)
#
#
# Indices 1 2 3 4 5 6 
#
# 1 146.9427 58.7987 36.3886 0.0000 0.0000 0.0000
# 2 58.7987 144.7507 64.5379 0.0000 0.0000 0.0000
# 3 36.3886 64.5379 100.8192 0.0000 0.0000 0.0000
# 4 0.0000 0.0000 0.0000 57.0291 0.0000 0.0000
# 5 0.0000 0.0000 0.0000 0.0000 21.0891 0.0000
# 6 0.0000 0.0000 0.0000 0.0000 0.0000 248.6179
#
#
#
# Elastic Compliance Matrix: (Units=1/GPa)
#
#
# Indices 1 2 3 4 5 6 
#
# 1 0.008222 -0.002822 -0.001161 0.000000 0.000000 0.000000
# 2 -0.002822 0.010636 -0.005790 0.000000 0.000000 0.000000
# 3 -0.001161 -0.005790 0.014044 0.000000 0.000000 0.000000
# 4 0.000000 0.000000 0.000000 0.017535 0.000000 0.000000
# 5 0.000000 0.000000 0.000000 0.000000 0.047418 0.000000
# 6 0.000000 0.000000 0.000000 0.000000 0.000000 0.004022
#
#
# Mechanical properties :
#
#
# Convention : Reuss Voigt Hill
#
# Bulk Modulus (GPa) = 74.87214 79.10701 76.98958
# Shear Modulus (GPa) = 39.72145 80.86639 60.29392
#
# Velocity S-wave (km/s) = 4.17050 5.95058 5.13821
# Velocity P-wave (km/s) = 7.48167 9.04718 8.30141
#
# Compressibility (1/GPa) = 0.01335610
#
# Stress axis : x y z
#
# Youngs Moduli (GPa) = 121.62185 94.01676 71.20361
#
# Poissons Ratio (x) = 0.26534 0.08267
# Poissons Ratio (y) = 0.34325 0.41228
# Poissons Ratio (z) = 0.14120 0.54437
#
# Static dielectric constant tensor:
#      x y z
#    x 1.918590 0.000000 0.000000 
#    y 0.000000 1.834900 0.000000 
#    z 0.000000 0.000000 1.183160 
# 
# From -- ./inp_files/15308.got.cif
#   From: 2010.05.17/outbox.cif.g08.bks.cpg/sg23_8_cif.got.tgz:15308.got - 2010.06.04 12:02:01.
