data_PCOD9332286
_publ_section_title
;
Structure prediction by ZEFSAII (Michael W. Deem and Ramdas Pophale) SiO2 
 PCOD9332286
Probable space group: I 2 2 2
;
_chemical_formula_sum "Si O2"
_cell_formula_units_Z 44
_cell_length_a 14.805160
_cell_length_b 15.467167
_cell_length_c 8.372901
_cell_angle_alpha 90.000000
_cell_angle_beta 90.000000
_cell_angle_gamma 90.000000
_cell_volume 1917.343105
_symmetry_space_group_name_H-M "I 2 2 2"
_symmetry_group_IT_number 23
_symmetry_cell_setting 'orthorhombic'
loop_
_space_group_symop_operation_xyz
x,y,z
-x,-y,z
x,-y,-z
-x,y,-z
1/2+x,1/2+y,1/2+z
1/2-x,1/2-y,1/2+z
1/2+x,1/2-y,1/2-z
1/2-x,1/2+y,1/2-z
loop_
_atom_site_type_symbol
_atom_site_label
_atom_site_fract_x
_atom_site_fract_y
_atom_site_fract_z
Si Si1 0.958317 0.311043 0.159442
Si Si2 0.704032 0.924430 0.254161
Si Si3 0.423032 0.919208 0.139478
Si Si4 0.240774 0.690955 0.534747
Si Si5 0.634600 0.674834 0.156841
Si Si6 0.154728 0.000000 0.500000
O O1 0.861375 0.358260 0.152133
O O2 0.946441 0.241652 0.302560
O O3 0.024758 0.389268 0.203937
O O4 0.000000 0.270722 0.000000
O O5 0.755172 0.870148 0.118324
O O6 0.777585 0.968495 0.362274
O O7 0.637602 0.995905 0.173666
O O8 0.500000 0.918584 0.000000
O O9 0.352211 0.844643 0.106157
O O10 0.315987 0.674341 0.668740
O O11 0.209907 0.782532 0.460419
O O12 0.606879 0.583503 0.079900
#
# Coordination Sequence:
#
# PCOD9332286 Si02
#       6
#     8   8   8   8   8   4
#     4  11  25  40  62 100 139 175 212 270 343 407
#     4  11  23  38  65 102 138 171 214 278 348 394
#     4  12  22  38  63  98 138 173 213 267 342 412
#     4  11  24  40  64  96 137 175 218 274 340 410
#     4  11  24  42  64  96 133 183 225 274 332 402
#     4  12  24  42  65  99 130 176 238 282 320 394
#
# _framework density 22.948422000000001
#
# number of rings (size 3 to 8) (size 9 to 14) (size 15 to 20)
#    0.000    0.727    5.455    4.364    5.091    0.727 
#    0.000    0.000    0.000    2.182    0.000    0.000 
#    0.000    0.000    0.000    0.000    0.000    0.000 
#
# Total GULP energy -122779.992279 kJ/mol
# GULP energy per Si atom -5580.908740 kJ/mol
# Density = 2.289619 g / cm^3
# Si number density = 22.948422 Si / 1000 Ang^3
#
#
#
# Elastic Constant Matrix: (Units=GPa)
#
#
# Indices 1 2 3 4 5 6 
#
# 1 23.1955 11.1384 15.2538 0.0000 0.0000 0.0000
# 2 11.1384 126.4943 30.9431 0.0000 0.0000 0.0000
# 3 15.2538 30.9431 73.2210 0.0000 0.0000 0.0000
# 4 0.0000 0.0000 0.0000 35.6025 0.0000 0.0000
# 5 0.0000 0.0000 0.0000 0.0000 47.5283 0.0000
# 6 0.0000 0.0000 0.0000 0.0000 0.0000 14.8149
#
#
#
# Elastic Compliance Matrix: (Units=1/GPa)
#
#
# Indices 1 2 3 4 5 6 
#
# 1 0.050445 -0.002087 -0.009627 0.000000 0.000000 0.000000
# 2 -0.002087 0.008903 -0.003328 0.000000 0.000000 0.000000
# 3 -0.009627 -0.003328 0.017069 0.000000 0.000000 0.000000
# 4 0.000000 0.000000 0.000000 0.028088 0.000000 0.000000
# 5 0.000000 0.000000 0.000000 0.000000 0.021040 0.000000
# 6 0.000000 0.000000 0.000000 0.000000 0.000000 0.067499
#
#
# Mechanical properties :
#
#
# Convention : Reuss Voigt Hill
#
# Bulk Modulus (GPa) = 21.58250 37.50904 29.54577
# Shear Modulus (GPa) = 20.95798 30.62752 25.79275
#
# Velocity S-wave (km/s) = 3.02531 3.65721 3.35616
# Velocity P-wave (km/s) = 4.65065 5.84928 5.28406
#
# Compressibility (1/GPa) = 0.04633383
#
# Stress axis : x y z
#
# Youngs Moduli (GPa) = 19.82368 112.31787 58.58523
#
# Poissons Ratio (x) = 0.23440 0.56400
# Poissons Ratio (y) = 0.04137 0.19496
# Poissons Ratio (z) = 0.19084 0.37377
#
# Static dielectric constant tensor:
#      x y z
#    x 1.855740 0.000000 0.000000 
#    y 0.000000 1.970390 0.000000 
#    z 0.000000 0.000000 1.910530 
# 
# From -- ./inp_files/10969.got.cif
#   From: 2010.05.17/outbox.cif.g08.bks.cpg/sg23_6_cif.got.tgz:10969.got - 2010.06.04 12:02:01.
