data_PCOD9332639
_publ_section_title
;
Structure prediction by ZEFSAII (Michael W. Deem and Ramdas Pophale) SiO2 
 PCOD9332639
Probable space group: I 2 2 2
;
_chemical_formula_sum "Si O2"
_cell_formula_units_Z 32
_cell_length_a 30.000000
_cell_length_b 9.000000
_cell_length_c 12.000000
_cell_angle_alpha 90.000000
_cell_angle_beta 90.000000
_cell_angle_gamma 90.000000
_cell_volume 3240.000000
_symmetry_space_group_name_H-M "I 2 2 2"
_symmetry_group_IT_number 23
_symmetry_cell_setting 'orthorhombic'
loop_
_space_group_symop_operation_xyz
x,y,z
-x,-y,z
x,-y,-z
-x,y,-z
1/2+x,1/2+y,1/2+z
1/2-x,1/2-y,1/2+z
1/2+x,1/2-y,1/2-z
1/2-x,1/2+y,1/2-z
loop_
_atom_site_type_symbol
_atom_site_label
_atom_site_fract_x
_atom_site_fract_y
_atom_site_fract_z
Si Si1 0.120957 0.028736 0.875803
Si Si2 0.542921 0.905577 0.781830
Si Si3 0.026505 0.136737 0.119368
Si Si4 0.786141 0.998022 0.242023
Si Si5 0.818600 0.842095 0.443579
Si Si6 0.290814 0.180502 0.159630
Si Si7 0.609443 0.824536 0.233611
Si Si8 0.402402 0.174358 0.982137
O O1 0.107072 0.193520 0.827359
O O2 0.076960 0.926074 0.882576
O O3 0.162819 0.986361 0.798722
O O4 0.139626 0.000000 0.000000
O O5 0.529652 0.787958 0.687471
O O6 0.557043 0.826310 0.896697
O O7 0.500000 0.000000 0.809109
O O8 0.580769 0.026254 0.744716
O O9 0.000000 0.000000 0.175531
O O10 0.000000 0.157534 0.000000
O O11 0.785236 0.887857 0.347562
O O12 0.747111 0.941418 0.164299
O O13 0.778029 0.166497 0.278154
O O14 0.798189 0.732950 0.534146
O O15 0.864339 0.761150 0.415037
O O16 0.830525 0.000000 0.500000
O O17 0.338428 0.135917 0.213335
O O18 0.593873 0.766682 0.109546
O O19 0.390760 0.000000 0.000000
#
# Coordination Sequence:
#
# PCOD9332639 Si02
#       8
#     8   8   8   8   8   8   8   8
#     4  11  22  41  64  90 122 165 218 270 321 374
#     4  11  23  38  64  94 122 158 213 262 323 383
#     4  11  23  43  65  88 120 169 211 263 318 391
#     4  10  21  35  59  88 122 160 208 261 314 380
#     4   9  18  36  58  83 116 163 210 250 309 388
#     4   9  20  36  57  87 125 165 205 256 320 383
#     4   9  21  41  61  89 129 167 207 266 320 393
#     4   9  19  36  60  89 121 159 199 259 320 380
#
# _framework density 9.8765429999999999
#
# number of rings (size 3 to 8) (size 9 to 14) (size 15 to 20)
#    0.000    2.125    1.250    2.250    0.000    8.500 
#    0.000    1.875    0.000    0.750    0.000    0.000 
#    0.000    0.000    0.000    0.000    0.000    0.000 
#
# Total GULP energy -178208.364070 kJ/mol
# GULP energy per Si atom -5569.011377 kJ/mol
# Density = 0.985406 g / cm^3
# Si number density = 9.876543 Si / 1000 Ang^3
#
#
#
# Elastic Constant Matrix: (Units=GPa)
#
#
# Indices 1 2 3 4 5 6 
#
# 1 92.1223 39.8110 18.1847 0.0000 0.0000 0.0000
# 2 39.8110 38.9685 48.1114 0.0000 0.0000 0.0000
# 3 18.1847 48.1114 56.9634 0.0000 0.0000 0.0000
# 4 0.0000 0.0000 0.0000 27.6447 0.0000 0.0000
# 5 0.0000 0.0000 0.0000 0.0000 -4.2870 0.0000
# 6 0.0000 0.0000 0.0000 0.0000 0.0000 40.3206
#
#
#
# Elastic Compliance Matrix: (Units=1/GPa)
#
#
# Indices 1 2 3 4 5 6 
#
# 1 0.002247 0.032966 -0.028560 0.000000 0.000000 0.000000
# 2 0.032966 -0.116369 0.087762 0.000000 0.000000 0.000000
# 3 -0.028560 0.087762 -0.047451 0.000000 0.000000 0.000000
# 4 0.000000 0.000000 0.000000 0.036173 0.000000 0.000000
# 5 0.000000 0.000000 0.000000 0.000000 -0.233262 0.000000
# 6 0.000000 0.000000 0.000000 0.000000 0.000000 0.024801
#
#
# Mechanical properties :
#
#
# Convention : Reuss Voigt Hill
#
# Bulk Modulus (GPa) = 43.93484 44.47426 44.20455
# Shear Modulus (GPa) = -9.79222 18.19879 4.20328
#
# Velocity S-wave (km/s) = -2.22892 3.03861 1.46032
# Velocity P-wave (km/s) = 3.95805 5.90549 5.02698
#
# Compressibility (1/GPa) = 0.02276098
#
# Stress axis : x y z
#
# Youngs Moduli (GPa) = 445.11748 -8.59334 -21.07417
#
# Poissons Ratio (x) = 0.28328 -0.60188
# Poissons Ratio (y) = -14.67352 1.84951
# Poissons Ratio (z) = 12.71252 0.75417
#
# Static dielectric constant tensor:
#      x y z
#    x 1.766590 0.000000 0.000000 
#    y 0.000000 1.688230 0.000000 
#    z 0.000000 0.000000 1.756500 
# 
# From -- ./inp_files/18796.got.cif
#   From: 2010.05.17/outbox.ucp.g08.bks.cvg/sg23_10_cif.got.tgz:18796.got - 2010.06.11 15:19:07.
