data_PCOD9332440
_publ_section_title
;
Structure prediction by ZEFSAII (Michael W. Deem and Ramdas Pophale) SiO2 
 PCOD9332440
Probable space group: I 2 2 2
;
_chemical_formula_sum "Si O2"
_cell_formula_units_Z 58
_cell_length_a 9.390276
_cell_length_b 16.947735
_cell_length_c 18.498050
_cell_angle_alpha 90.000000
_cell_angle_beta 90.000000
_cell_angle_gamma 90.000000
_cell_volume 2943.851990
_symmetry_space_group_name_H-M "I 2 2 2"
_symmetry_group_IT_number 23
_symmetry_cell_setting 'orthorhombic'
loop_
_space_group_symop_operation_xyz
x,y,z
-x,-y,z
x,-y,-z
-x,y,-z
1/2+x,1/2+y,1/2+z
1/2-x,1/2-y,1/2+z
1/2+x,1/2-y,1/2-z
1/2-x,1/2+y,1/2-z
loop_
_atom_site_type_symbol
_atom_site_label
_atom_site_fract_x
_atom_site_fract_y
_atom_site_fract_z
Si Si1 0.000000 0.500000 0.500000
Si Si2 0.509144 0.627394 0.075276
Si Si3 0.505410 0.242535 0.188634
Si Si4 0.762564 0.997878 0.577746
Si Si5 0.506203 0.406602 0.414088
Si Si6 0.178372 0.396330 0.620652
Si Si7 0.329739 0.999457 0.262127
Si Si8 0.192685 0.160880 0.793178
O O1 0.099651 0.447642 0.556086
O O2 0.468571 0.681563 0.140213
O O3 0.392412 0.558967 0.067873
O O4 0.662708 0.587490 0.086082
O O5 0.500000 0.673520 0.000000
O O6 0.416831 0.177821 0.143500
O O7 0.656147 0.203951 0.204421
O O8 0.415338 0.278478 0.254648
O O9 0.693132 0.020682 0.653703
O O10 0.683279 0.000000 0.500000
O O11 0.500000 0.500000 0.394509
O O12 0.500000 0.402087 0.500000
O O13 0.662271 0.371867 0.399216
O O14 0.381323 0.364508 0.368717
O O15 0.206998 0.444629 0.694848
O O16 0.236057 0.920560 0.247852
O O17 0.500000 0.000000 0.253949
#
# Coordination Sequence:
#
# PCOD9332440 Si02
#       8
#     2   8   8   8   8   8   8   8
#     4  12  24  48  74 100 142 186 242 284 348 428
#     4   9  20  38  64  94 119 168 223 273 333 404
#     4  12  26  42  66 100 141 179 224 297 358 424
#     4   9  20  40  66  94 128 169 228 275 329 419
#     4  11  25  43  70  99 135 184 244 296 350 422
#     4  12  26  42  70 103 138 183 235 296 347 420
#     4  12  23  42  67  97 133 180 236 283 342 423
#     4  12  26  44  66 100 141 185 235 286 366 424
#
# _framework density 19.702078
#
# number of rings (size 3 to 8) (size 9 to 14) (size 15 to 20)
#    0.000    0.966    4.828    2.483    6.759    0.276 
#    0.000    0.000    0.000    0.000    0.000    0.000 
#    0.000    0.000    0.000    0.000    0.000    0.000 
#
# Total GULP energy -161529.107486 kJ/mol
# GULP energy per Si atom -5569.969224 kJ/mol
# Density = 1.965723 g / cm^3
# Si number density = 19.702078 Si / 1000 Ang^3
#
#
#
# Elastic Constant Matrix: (Units=GPa)
#
#
# Indices 1 2 3 4 5 6 
#
# 1 88.9533 12.7536 15.4790 0.0000 0.0000 0.0000
# 2 12.7536 55.9908 19.6995 0.0000 0.0000 0.0000
# 3 15.4790 19.6995 87.2643 0.0000 0.0000 0.0000
# 4 0.0000 0.0000 0.0000 -10.4447 0.0000 0.0000
# 5 0.0000 0.0000 0.0000 0.0000 33.3802 0.0000
# 6 0.0000 0.0000 0.0000 0.0000 0.0000 29.9554
#
#
#
# Elastic Compliance Matrix: (Units=1/GPa)
#
#
# Indices 1 2 3 4 5 6 
#
# 1 0.011828 -0.002125 -0.001618 0.000000 0.000000 0.000000
# 2 -0.002125 0.019783 -0.004089 0.000000 0.000000 0.000000
# 3 -0.001618 -0.004089 0.012670 0.000000 0.000000 0.000000
# 4 0.000000 0.000000 0.000000 -0.095742 0.000000 0.000000
# 5 0.000000 0.000000 0.000000 0.000000 0.029958 0.000000
# 6 0.000000 0.000000 0.000000 0.000000 0.000000 0.033383
#
#
# Mechanical properties :
#
#
# Convention : Reuss Voigt Hill
#
# Bulk Modulus (GPa) = 34.94542 36.45252 35.69897
# Shear Modulus (GPa) = 134.83609 22.86325 78.84967
#
# Velocity S-wave (km/s) = 8.28167 3.41023 6.33308
# Velocity P-wave (km/s) = 10.45101 5.83509 8.46380
#
# Compressibility (1/GPa) = 0.02861606
#
# Stress axis : x y z
#
# Youngs Moduli (GPa) = 84.54429 50.54921 78.92918
#
# Poissons Ratio (x) = 0.10741 0.12774
# Poissons Ratio (y) = 0.17964 0.32274
# Poissons Ratio (z) = 0.13683 0.20669
#
# Static dielectric constant tensor:
#      x y z
#    x 1.735050 0.000000 0.000000 
#    y 0.000000 1.688950 0.000000 
#    z 0.000000 0.000000 1.783670 
# 
# From -- ./inp_files/23902.got.cif
#   From: 2010.05.17/outbox.cif.g08.bks.cpg/sg23_12_cif.got.tgz:23902.got - 2010.06.04 12:02:01.
