data_PCOD9332936
_publ_section_title
;
Structure prediction by ZEFSAII (Michael W. Deem and Ramdas Pophale) SiO2 
 PCOD9332936
Probable space group: I 21 21 21
;
_chemical_formula_sum "Si O2"
_cell_formula_units_Z 56
_cell_length_a 24.674890
_cell_length_b 11.581761
_cell_length_c 10.803109
_cell_angle_alpha 90.000000
_cell_angle_beta 90.000000
_cell_angle_gamma 90.000000
_cell_volume 3087.298216
_symmetry_space_group_name_H-M "I 21 21 21"
_symmetry_group_IT_number 24
_symmetry_cell_setting 'orthorhombic'
loop_
_space_group_symop_operation_xyz
x,y,z
-x,1/2-y,z
x,-y,1/2-z
1/2-x,y,-z
1/2+x,1/2+y,1/2+z
1/2-x,-y,1/2+z
1/2+x,1/2-y,-z
-x,1/2+y,1/2-z
loop_
_atom_site_type_symbol
_atom_site_label
_atom_site_fract_x
_atom_site_fract_y
_atom_site_fract_z
Si Si1 0.145985 0.317210 0.481841
Si Si2 0.093437 0.549166 0.387217
Si Si3 0.186242 0.361279 0.753741
Si Si4 0.925198 0.768598 0.670270
Si Si5 0.050326 0.829086 0.940225
Si Si6 0.194896 0.362583 0.223183
Si Si7 0.493637 0.913711 0.449851
O O1 0.113982 0.440536 0.470000
O O2 0.179259 0.321423 0.610106
O O3 0.102773 0.213908 0.485923
O O4 0.179811 0.309023 0.355856
O O5 0.084299 0.500000 0.250000
O O6 0.143566 0.639133 0.369843
O O7 0.036432 0.593524 0.437967
O O8 0.181570 0.500000 0.750000
O O9 0.136134 0.309772 0.829813
O O10 0.244383 0.326431 0.810372
O O11 0.935448 0.704926 0.799445
O O12 0.946448 0.681304 0.564891
O O13 0.965079 0.879007 0.661591
O O14 0.000000 0.750000 0.980434
O O15 0.032683 0.961091 0.947478
O O16 0.200078 0.500000 0.250000
#
# Coordination Sequence:
#
# PCOD9332936 Si02
#       7
#     8   8   8   8   8   8   8
#     4   9  17  29  47  75  99 134 171 205 262 304
#     4   9  18  32  49  71 102 136 175 207 252 304
#     4  10  18  29  50  76 105 135 167 210 266 310
#     4  10  23  30  49  78 106 139 164 211 263 316
#     4  11  19  29  50  77 102 140 167 211 259 312
#     4   8  17  32  48  73 104 133 170 216 253 303
#     4  11  20  34  48  71 109 138 171 208 258 310
#
# _framework density 18.138838
#
# number of rings (size 3 to 8) (size 9 to 14) (size 15 to 20)
#    0.000    2.571    2.857    1.714    2.000    0.000 
#    0.000    7.857    0.000    0.000    0.000   26.000 
#    0.000    0.000    0.000    0.000    0.000    0.000 
#
# Total GULP energy -155891.948818 kJ/mol
# GULP energy per Si atom -5567.569601 kJ/mol
# Density = 1.809755 g / cm^3
# Si number density = 18.138838 Si / 1000 Ang^3
#
#
#
# Elastic Constant Matrix: (Units=GPa)
#
#
# Indices 1 2 3 4 5 6 
#
# 1 163.4809 59.4735 48.5102 0.0000 0.0000 0.0000
# 2 59.4735 84.0524 24.7524 0.0000 0.0000 0.0000
# 3 48.5102 24.7524 50.6162 0.0000 0.0000 0.0000
# 4 0.0000 0.0000 0.0000 13.2060 0.0000 0.0000
# 5 0.0000 0.0000 0.0000 0.0000 19.5565 0.0000
# 6 0.0000 0.0000 0.0000 0.0000 0.0000 15.1417
#
#
#
# Elastic Compliance Matrix: (Units=1/GPa)
#
#
# Indices 1 2 3 4 5 6 
#
# 1 0.010078 -0.005008 -0.007210 0.000000 0.000000 0.000000
# 2 -0.005008 0.016387 -0.003214 0.000000 0.000000 0.000000
# 3 -0.007210 -0.003214 0.028238 0.000000 0.000000 0.000000
# 4 0.000000 0.000000 0.000000 0.075723 0.000000 0.000000
# 5 0.000000 0.000000 0.000000 0.000000 0.051134 0.000000
# 6 0.000000 0.000000 0.000000 0.000000 0.000000 0.066043
#
#
# Mechanical properties :
#
#
# Convention : Reuss Voigt Hill
#
# Bulk Modulus (GPa) = 41.94679 62.62465 52.28572
# Shear Modulus (GPa) = 17.45722 20.60839 19.03280
#
# Velocity S-wave (km/s) = 3.10566 3.37434 3.24278
# Velocity P-wave (km/s) = 6.00298 7.05561 6.55047
#
# Compressibility (1/GPa) = 0.02383973
#
# Stress axis : x y z
#
# Youngs Moduli (GPa) = 99.22445 61.02276 35.41293
#
# Poissons Ratio (x) = 0.30559 0.25532
# Poissons Ratio (y) = 0.49690 0.11383
# Poissons Ratio (z) = 0.71540 0.19614
#
# Static dielectric constant tensor:
#      x y z
#    x 1.676840 0.000000 0.000000 
#    y 0.000000 1.623990 0.000000 
#    z 0.000000 0.000000 1.685450 
# 
# From -- ./inp_files/22699.got.cif
#   From: 2010.05.17/outbox.cif.g08.bks.cpg/sg24_12_cif.got.tgz:22699.got - 2010.06.04 00:33:39.
