data_PCOD9332989
_publ_section_title
;
Structure prediction by ZEFSAII (Michael W. Deem and Ramdas Pophale) SiO2 
 PCOD9332989
Probable space group: I 21 21 21
;
_chemical_formula_sum "Si O2"
_cell_formula_units_Z 48
_cell_length_a 8.122020
_cell_length_b 21.386981
_cell_length_c 14.865148
_cell_angle_alpha 90.000000
_cell_angle_beta 90.000000
_cell_angle_gamma 90.000000
_cell_volume 2582.157779
_symmetry_space_group_name_H-M "I 21 21 21"
_symmetry_group_IT_number 24
_symmetry_cell_setting 'orthorhombic'
loop_
_space_group_symop_operation_xyz
x,y,z
-x,1/2-y,z
x,-y,1/2-z
1/2-x,y,-z
1/2+x,1/2+y,1/2+z
1/2-x,-y,1/2+z
1/2+x,1/2-y,-z
-x,1/2+y,1/2-z
loop_
_atom_site_type_symbol
_atom_site_label
_atom_site_fract_x
_atom_site_fract_y
_atom_site_fract_z
Si Si1 0.311721 0.085572 0.682933
Si Si2 0.059843 0.947821 0.359413
Si Si3 0.069827 0.181341 0.453599
Si Si4 0.697112 0.071234 0.223955
Si Si5 0.052117 0.588421 0.901245
Si Si6 0.924152 0.055873 0.956886
O O1 0.315213 0.084735 0.790804
O O2 0.404195 0.143597 0.638488
O O3 0.128248 0.084231 0.644272
O O4 0.402012 0.021744 0.650380
O O5 0.881355 0.931991 0.315704
O O6 0.055523 0.931702 0.464671
O O7 0.250000 0.184955 0.500000
O O8 0.958596 0.139125 0.520181
O O9 0.000000 0.250000 0.441638
O O10 0.673818 0.105450 0.318902
O O11 0.576021 0.087398 0.141199
O O12 0.653959 0.000000 0.250000
O O13 0.083654 0.519287 0.940987
O O14 0.750000 0.074174 0.000000
#
# Coordination Sequence:
#
# PCOD9332989 Si02
#       6
#     8   8   8   8   8   8
#     4  10  20  32  46  71 103 132 164 215 256 306
#     4  10  18  31  47  71 103 134 166 203 256 314
#     4  10  22  38  52  73 100 138 181 215 255 304
#     4   9  17  29  45  69  97 131 171 195 244 306
#     4  10  20  33  48  69 103 135 167 212 253 304
#     4   9  18  29  46  70  99 133 167 199 240 306
#
# _framework density 18.589105
#
# number of rings (size 3 to 8) (size 9 to 14) (size 15 to 20)
#    0.000    2.333    3.333    0.000    7.000    2.000 
#    0.000    0.000    0.000    0.000    0.000    1.167 
#    0.000    0.000    0.000    0.000    0.000    0.000 
#
# Total GULP energy -133757.440529 kJ/mol
# GULP energy per Si atom -5573.226689 kJ/mol
# Density = 1.854680 g / cm^3
# Si number density = 18.589105 Si / 1000 Ang^3
#
#
#
# Elastic Constant Matrix: (Units=GPa)
#
#
# Indices 1 2 3 4 5 6 
#
# 1 51.6228 1.4851 12.9111 0.0000 0.0000 0.0000
# 2 1.4851 48.0693 1.3227 0.0000 0.0000 0.0000
# 3 12.9111 1.3227 71.8189 0.0001 0.0000 0.0000
# 4 0.0000 0.0000 0.0001 17.5659 0.0000 0.0000
# 5 0.0000 0.0000 0.0000 0.0000 28.2049 0.0000
# 6 0.0000 0.0000 0.0000 0.0000 0.0000 18.4371
#
#
#
# Elastic Compliance Matrix: (Units=1/GPa)
#
#
# Indices 1 2 3 4 5 6 
#
# 1 0.020297 -0.000527 -0.003639 0.000000 0.000000 0.000000
# 2 -0.000527 0.020828 -0.000289 0.000000 0.000000 0.000000
# 3 -0.003639 -0.000289 0.014583 0.000000 0.000000 0.000000
# 4 0.000000 0.000000 0.000000 0.056929 0.000000 0.000000
# 5 0.000000 0.000000 0.000000 0.000000 0.035455 0.000000
# 6 0.000000 0.000000 0.000000 0.000000 0.000000 0.054239
#
#
# Mechanical properties :
#
#
# Convention : Reuss Voigt Hill
#
# Bulk Modulus (GPa) = 21.36851 22.54986 21.95918
# Shear Modulus (GPa) = 22.04212 23.22772 22.63492
#
# Velocity S-wave (km/s) = 3.44721 3.53871 3.49326
# Velocity P-wave (km/s) = 5.23111 5.37156 5.30180
#
# Compressibility (1/GPa) = 0.04679784
#
# Stress axis : x y z
#
# Youngs Moduli (GPa) = 49.26934 48.01343 68.57094
#
# Poissons Ratio (x) = 0.02530 0.24953
# Poissons Ratio (y) = 0.02596 0.01981
# Poissons Ratio (z) = 0.17929 0.01387
#
# Static dielectric constant tensor:
#      x y z
#    x 1.724430 0.000000 0.000000 
#    y 0.000000 1.585730 0.000000 
#    z 0.000000 0.000000 1.735580 
# 
# From -- ./inp_files/12966.got.cif
#   From: 2010.05.17/outbox.cif.g08.bks.cpg/sg24_7_cif.got.tgz:12966.got - 2010.06.04 00:33:39.
