data_PCOD9332998
_publ_section_title
;
Structure prediction by ZEFSAII (Michael W. Deem and Ramdas Pophale) SiO2 
 PCOD9332998
Probable space group: I 21 21 21
;
_chemical_formula_sum "Si O2"
_cell_formula_units_Z 64
_cell_length_a 8.428143
_cell_length_b 21.389552
_cell_length_c 20.319412
_cell_angle_alpha 90.000000
_cell_angle_beta 90.000000
_cell_angle_gamma 90.000000
_cell_volume 3663.065803
_symmetry_space_group_name_H-M "I 21 21 21"
_symmetry_group_IT_number 24
_symmetry_cell_setting 'orthorhombic'
loop_
_space_group_symop_operation_xyz
x,y,z
-x,1/2-y,z
x,-y,1/2-z
1/2-x,y,-z
1/2+x,1/2+y,1/2+z
1/2-x,-y,1/2+z
1/2+x,1/2-y,-z
-x,1/2+y,1/2-z
loop_
_atom_site_type_symbol
_atom_site_label
_atom_site_fract_x
_atom_site_fract_y
_atom_site_fract_z
Si Si1 0.188788 0.629381 0.428986
Si Si2 0.690470 0.986729 0.070443
Si Si3 0.191691 0.319345 0.792713
Si Si4 0.806472 0.061742 0.709673
Si Si5 0.311212 0.129381 0.928986
Si Si6 0.193528 0.938258 0.790327
Si Si7 0.809530 0.513271 0.929557
Si Si8 0.308309 0.819345 0.292713
O O1 0.250000 0.651938 0.500000
O O2 0.246176 0.557476 0.421723
O O3 0.254921 0.666871 0.367035
O O4 1.000000 0.630863 0.428831
O O5 0.741311 0.947004 0.133881
O O6 0.500000 0.990064 0.069500
O O7 0.750000 0.962907 0.000000
O O8 0.248916 0.375554 0.745878
O O9 0.244166 0.250000 0.772438
O O10 1.000000 0.320711 0.791487
O O11 1.000000 0.062329 0.710962
O O12 0.756604 0.000000 0.750000
O O13 0.245079 0.166871 0.867035
O O14 0.253824 0.057476 0.921723
O O15 0.250000 0.151938 0.000000
O O16 0.241311 0.947004 0.866119
O O17 0.248916 0.875554 0.754122
O O18 0.243396 0.000000 0.750000
O O19 0.750000 0.537093 0.000000
#
# Coordination Sequence:
#
# PCOD9332998 Si02
#       8
#     8   8   8   8   8   8   8   8
#     4  11  21  33  50  73 104 137 171 205 248 297
#     4  10  18  31  52  76 104 132 167 209 253 295
#     4  10  20  35  54  75  99 132 172 210 249 296
#     4   9  16  30  53  76 100 130 165 207 252 296
#     4  11  21  33  50  73 104 137 171 205 248 297
#     4   9  16  30  53  76 100 130 165 207 252 296
#     4  10  18  31  52  76 104 132 167 209 253 295
#     4  10  20  35  54  75  99 132 172 210 249 296
#
# _framework density 17.471703000000002
#
# number of rings (size 3 to 8) (size 9 to 14) (size 15 to 20)
#    0.000    2.000    2.500    4.500    0.000    1.000 
#    0.000    3.750    0.000    0.750    0.000    0.000 
#    0.000    0.000    0.000    0.000    0.000    1.000 
#
# Total GULP energy -178581.146639 kJ/mol
# GULP energy per Si atom -5580.660832 kJ/mol
# Density = 1.743194 g / cm^3
# Si number density = 17.471703 Si / 1000 Ang^3
#
#
#
# Elastic Constant Matrix: (Units=GPa)
#
#
# Indices 1 2 3 4 5 6 
#
# 1 18.9832 18.4364 9.5835 0.0000 0.0000 0.0000
# 2 18.4364 124.0116 81.8102 0.0000 0.0000 0.0000
# 3 9.5835 81.8102 138.8402 0.0000 0.0000 0.0000
# 4 0.0000 0.0000 0.0000 24.6320 0.0000 0.0000
# 5 0.0000 0.0000 0.0000 0.0000 23.1944 0.0000
# 6 0.0000 0.0000 0.0000 0.0000 0.0000 8.5354
#
#
#
# Elastic Compliance Matrix: (Units=1/GPa)
#
#
# Indices 1 2 3 4 5 6 
#
# 1 0.061866 -0.010438 0.001880 0.000000 0.000000 0.000000
# 2 -0.010438 0.014953 -0.008090 0.000000 0.000000 0.000000
# 3 0.001880 -0.008090 0.011840 0.000000 0.000000 0.000000
# 4 0.000000 0.000000 0.000000 0.040598 0.000000 0.000000
# 5 0.000000 0.000000 0.000000 0.000000 0.043114 0.000000
# 6 0.000000 0.000000 0.000000 0.000000 0.000000 0.117159
#
#
# Mechanical properties :
#
#
# Convention : Reuss Voigt Hill
#
# Bulk Modulus (GPa) = 18.06273 55.72170 36.89222
# Shear Modulus (GPa) = 14.65080 22.73937 18.69508
#
# Velocity S-wave (km/s) = 2.89890 3.61154 3.27467
# Velocity P-wave (km/s) = 4.64388 7.02515 5.95476
#
# Compressibility (1/GPa) = 0.05536262
#
# Stress axis : x y z
#
# Youngs Moduli (GPa) = 16.16398 66.87808 84.46065
#
# Poissons Ratio (x) = 0.69805 -0.15878
# Poissons Ratio (y) = 0.16871 0.68330
# Poissons Ratio (z) = -0.03039 0.54106
#
# Static dielectric constant tensor:
#      x y z
#    x 1.595260 0.000000 0.000000 
#    y 0.000000 1.592570 0.000000 
#    z 0.000000 0.000000 1.600680 
# 
# From -- ./inp_files/32959.got.cif
#   From: 2010.05.17/outbox.cif.g08.bks.cpg/sg24_17_cif.got.tgz:32959.got - 2010.06.04 00:33:39.
