data_PCOD9332283
_publ_section_title
;
Structure prediction by ZEFSAII (Michael W. Deem and Ramdas Pophale) SiO2 
 PCOD9332283
Probable space group: I 2 2 2
;
_chemical_formula_sum "Si O2"
_cell_formula_units_Z 64
_cell_length_a 18.269280
_cell_length_b 9.141746
_cell_length_c 21.559107
_cell_angle_alpha 90.000000
_cell_angle_beta 90.000000
_cell_angle_gamma 90.000000
_cell_volume 3600.653668
_symmetry_space_group_name_H-M "I 2 2 2"
_symmetry_group_IT_number 23
_symmetry_cell_setting 'orthorhombic'
loop_
_space_group_symop_operation_xyz
x,y,z
-x,-y,z
x,-y,-z
-x,y,-z
1/2+x,1/2+y,1/2+z
1/2-x,1/2-y,1/2+z
1/2+x,1/2-y,1/2-z
1/2-x,1/2+y,1/2-z
loop_
_atom_site_type_symbol
_atom_site_label
_atom_site_fract_x
_atom_site_fract_y
_atom_site_fract_z
Si Si1 0.088423 0.673683 0.363721
Si Si2 0.914172 0.174665 0.125303
Si Si3 0.410877 0.830765 0.500000
Si Si4 0.414174 0.674666 0.374696
Si Si5 0.328887 0.675521 0.248897
Si Si6 0.828887 0.175522 0.251103
Si Si7 0.585198 0.822370 0.000000
Si Si8 0.411576 0.173683 0.863722
O O1 0.125689 0.763471 0.309266
O O2 0.115261 0.721231 0.432695
O O3 0.103941 0.500000 0.356381
O O4 1.000000 0.689608 0.361859
O O5 0.886497 0.252795 0.063137
O O6 0.870525 0.213260 0.187151
O O7 0.999999 0.211890 0.134019
O O8 0.909628 0.999999 0.116212
O O9 0.500000 0.820914 0.500000
O O10 0.386498 0.752799 0.436861
O O11 0.390421 0.000000 0.500000
O O12 0.370527 0.713259 0.312848
O O13 0.250000 0.749999 0.250000
O O14 0.322989 0.499999 0.245402
O O15 0.374310 0.736527 0.190733
O O16 0.615261 0.778769 0.932696
O O17 0.500000 0.777310 0.000000
O O18 0.585678 0.000000 0.000000
#
# Coordination Sequence:
#
# PCOD9332283 Si02
#       8
#     8   8   8   8   8   8   8   8
#     4   9  17  32  56  82 106 135 172 212 254 303
#     4   9  18  34  55  76 100 133 170 207 252 309
#     4   9  17  29  50  81 108 127 157 207 258 301
#     4   9  18  34  55  76 100 133 170 207 252 309
#     4  11  23  37  52  73 104 140 178 217 258 305
#     4  11  23  37  52  73 104 140 178 217 258 305
#     4   7  12  26  50  79 106 131 163 203 248 303
#     4   9  17  32  56  82 106 135 172 212 254 303
#
# _framework density 17.774549
#
# number of rings (size 3 to 8) (size 9 to 14) (size 15 to 20)
#    0.000    2.750    0.000    3.375    0.000    5.000 
#    0.000    4.375    0.000    5.250    0.000    0.000 
#    0.000    0.000    0.000    0.000    0.000    0.000 
#
# Total GULP energy -178369.024237 kJ/mol
# GULP energy per Si atom -5574.032007 kJ/mol
# Density = 1.773409 g / cm^3
# Si number density = 17.774549 Si / 1000 Ang^3
#
#
#
# Elastic Constant Matrix: (Units=GPa)
#
#
# Indices 1 2 3 4 5 6 
#
# 1 49.7231 41.0106 67.2697 0.0000 0.0000 0.0000
# 2 41.0106 51.4228 83.9295 0.0000 0.0000 0.0000
# 3 67.2697 83.9295 226.2983 0.0000 0.0000 0.0000
# 4 0.0000 0.0000 0.0000 36.4209 0.0000 0.0000
# 5 0.0000 0.0000 0.0000 0.0000 -7.8651 0.0000
# 6 0.0000 0.0000 0.0000 0.0000 0.0000 23.1653
#
#
#
# Elastic Compliance Matrix: (Units=1/GPa)
#
#
# Indices 1 2 3 4 5 6 
#
# 1 0.058771 -0.046512 -0.000220 0.000000 0.000000 0.000000
# 2 -0.046512 0.086083 -0.018100 0.000000 0.000000 0.000000
# 3 -0.000220 -0.018100 0.011197 0.000000 0.000000 0.000000
# 4 0.000000 0.000000 0.000000 0.027457 0.000000 0.000000
# 5 0.000000 0.000000 0.000000 0.000000 -0.127143 0.000000
# 6 0.000000 0.000000 0.000000 0.000000 0.000000 0.043168
#
#
# Mechanical properties :
#
#
# Convention : Reuss Voigt Hill
#
# Bulk Modulus (GPa) = 37.89734 79.09598 58.49666
# Shear Modulus (GPa) = 21.00890 19.35985 20.18437
#
# Velocity S-wave (km/s) = 3.44170 3.30387 3.37349
# Velocity P-wave (km/s) = 6.09600 7.69092 6.93943
#
# Compressibility (1/GPa) = 0.02638707
#
# Stress axis : x y z
#
# Youngs Moduli (GPa) = 17.01507 11.61664 89.30658
#
# Poissons Ratio (x) = 0.54032 0.01965
# Poissons Ratio (y) = 0.79141 1.61648
# Poissons Ratio (z) = 0.00374 0.21026
#
# Static dielectric constant tensor:
#      x y z
#    x 1.587570 0.000000 0.000000 
#    y 0.000000 1.589790 0.000000 
#    z 0.000000 0.000000 1.615580 
# 
# From -- ./inp_files/27194.got.cif
#   From: 2010.05.17/outbox.cif.g08.bks.cpg/sg23_14_cif.got.tgz:27194.got - 2010.06.04 12:02:01.
