data_PCOD9332847
_publ_section_title
;
Structure prediction by ZEFSAII (Michael W. Deem and Ramdas Pophale) SiO2 
 PCOD9332847
Probable space group: I 21 21 21
;
_chemical_formula_sum "Si O2"
_cell_formula_units_Z 44
_cell_length_a 16.380609
_cell_length_b 15.437511
_cell_length_c 9.477810
_cell_angle_alpha 90.000000
_cell_angle_beta 90.000000
_cell_angle_gamma 90.000000
_cell_volume 2396.709086
_symmetry_space_group_name_H-M "I 21 21 21"
_symmetry_group_IT_number 24
_symmetry_cell_setting 'orthorhombic'
loop_
_space_group_symop_operation_xyz
x,y,z
-x,1/2-y,z
x,-y,1/2-z
1/2-x,y,-z
1/2+x,1/2+y,1/2+z
1/2-x,-y,1/2+z
1/2+x,1/2-y,-z
-x,1/2+y,1/2-z
loop_
_atom_site_type_symbol
_atom_site_label
_atom_site_fract_x
_atom_site_fract_y
_atom_site_fract_z
Si Si1 0.000000 0.750000 0.640331
Si Si2 0.747920 0.601194 0.225090
Si Si3 0.876406 0.343816 0.478257
Si Si4 0.489785 0.416834 0.343660
Si Si5 0.683254 0.753311 0.391970
Si Si6 0.831692 0.160432 0.586706
O O1 0.003326 0.833874 0.741815
O O2 0.087851 0.745284 0.563191
O O3 0.753219 0.500000 0.250000
O O4 0.685667 0.620206 0.097483
O O5 0.711476 0.655739 0.353725
O O6 0.834872 0.637585 0.171415
O O7 0.957397 0.395731 0.517723
O O8 0.877790 0.240926 0.508492
O O9 0.512010 0.500000 0.250000
O O10 0.395485 0.416526 0.390525
O O11 0.750000 0.788720 0.500000
O O12 0.688695 0.803459 0.242646
O O13 0.750000 0.141669 0.500000
#
# Coordination Sequence:
#
# PCOD9332847 Si02
#       6
#     4   8   8   8   8   8
#     4  10  20  36  52  76 114 144 190 234 286 358
#     4  10  19  28  48  83 113 144 176 233 293 358
#     4  10  17  33  53  80 113 146 189 232 290 351
#     4  11  20  33  60  87 107 149 197 246 285 347
#     4  10  20  33  53  79 110 151 188 240 297 349
#     4  10  18  39  58  80 109 152 204 238 283 352
#
# _framework density 18.358506999999999
#
# number of rings (size 3 to 8) (size 9 to 14) (size 15 to 20)
#    0.000    1.818    9.091    0.545    2.545    0.000 
#    0.000    5.455    0.000    1.091    0.000    0.000 
#    0.000    0.000    0.000    0.000    0.000    0.000 
#
# Total GULP energy -122532.428174 kJ/mol
# GULP energy per Si atom -5569.655826 kJ/mol
# Density = 1.831672 g / cm^3
# Si number density = 18.358507 Si / 1000 Ang^3
#
#
#
# Elastic Constant Matrix: (Units=GPa)
#
#
# Indices 1 2 3 4 5 6 
#
# 1 131.7756 2.0591 36.5245 0.0000 0.0000 0.0000
# 2 2.0591 44.9716 -1.9530 0.0000 0.0000 0.0000
# 3 36.5245 -1.9530 21.3637 0.0000 0.0000 0.0000
# 4 0.0000 0.0000 0.0000 4.1640 0.0000 0.0000
# 5 0.0000 0.0000 0.0000 0.0000 32.9385 0.0000
# 6 0.0000 0.0000 0.0000 0.0000 0.0000 19.6334
#
#
#
# Elastic Compliance Matrix: (Units=1/GPa)
#
#
# Indices 1 2 3 4 5 6 
#
# 1 0.014560 -0.001755 -0.025053 0.000000 0.000000 0.000000
# 2 -0.001755 0.022536 0.005060 0.000000 0.000000 0.000000
# 3 -0.025053 0.005060 0.090103 0.000000 0.000000 0.000000
# 4 0.000000 0.000000 0.000000 0.240152 0.000000 0.000000
# 5 0.000000 0.000000 0.000000 0.000000 0.030360 0.000000
# 6 0.000000 0.000000 0.000000 0.000000 0.000000 0.050934
#
#
# Mechanical properties :
#
#
# Convention : Reuss Voigt Hill
#
# Bulk Modulus (GPa) = 11.94687 30.15245 21.04966
# Shear Modulus (GPa) = 9.61461 22.11254 15.86358
#
# Velocity S-wave (km/s) = 2.29096 3.47433 2.94275
# Velocity P-wave (km/s) = 3.67691 5.70566 4.79970
#
# Compressibility (1/GPa) = 0.08370392
#
# Stress axis : x y z
#
# Youngs Moduli (GPa) = 68.68100 44.37281 11.09841
#
# Poissons Ratio (x) = 0.07786 0.27805
# Poissons Ratio (y) = 0.12051 -0.05616
# Poissons Ratio (z) = 1.72067 -0.22452
#
# Static dielectric constant tensor:
#      x y z
#    x 1.719710 0.000000 0.000000 
#    y 0.000000 1.641620 0.000000 
#    z 0.000000 0.000000 1.639910 
# 
# From -- ./inp_files/14083.got.cif
#   From: 2010.05.17/outbox.cif.g08.bks.cpg/sg24_8_cif.got.tgz:14083.got - 2010.06.04 00:33:39.
