data_PCOD9332886
_publ_section_title
;
Structure prediction by ZEFSAII (Michael W. Deem and Ramdas Pophale) SiO2 
 PCOD9332886
Probable space group: I 21 21 21
;
_chemical_formula_sum "Si O2"
_cell_formula_units_Z 60
_cell_length_a 19.577210
_cell_length_b 8.605292
_cell_length_c 17.944048
_cell_angle_alpha 90.000000
_cell_angle_beta 90.000000
_cell_angle_gamma 90.000000
_cell_volume 3022.990855
_symmetry_space_group_name_H-M "I 21 21 21"
_symmetry_group_IT_number 24
_symmetry_cell_setting 'orthorhombic'
loop_
_space_group_symop_operation_xyz
x,y,z
-x,1/2-y,z
x,-y,1/2-z
1/2-x,y,-z
1/2+x,1/2+y,1/2+z
1/2-x,-y,1/2+z
1/2+x,1/2-y,-z
-x,1/2+y,1/2-z
loop_
_atom_site_type_symbol
_atom_site_label
_atom_site_fract_x
_atom_site_fract_y
_atom_site_fract_z
Si Si1 0.834235 0.483097 0.166897
Si Si2 0.181577 0.963825 0.827858
Si Si3 0.000000 0.750000 0.838494
Si Si4 0.647250 0.891626 0.178818
Si Si5 0.422803 0.034162 0.445414
Si Si6 0.824331 0.054748 0.983591
Si Si7 0.071964 0.781614 0.437127
Si Si8 0.679296 0.720817 0.960303
O O1 0.861942 0.500000 0.250000
O O2 0.753694 0.449748 0.173721
O O3 0.874770 0.357562 0.119704
O O4 0.833321 0.640583 0.118378
O O5 0.186759 0.774853 0.832466
O O6 0.137779 0.032275 0.894652
O O7 0.145301 0.000000 0.750000
O O8 0.069878 0.676357 0.804757
O O9 0.024262 0.891031 0.890258
O O10 0.666196 0.000000 0.250000
O O11 0.659779 0.989233 0.101007
O O12 0.385111 0.170280 0.490345
O O13 0.449765 0.910464 0.502229
O O14 0.750000 0.135050 0.000000
O O15 0.886833 0.153699 0.015947
O O16 0.817670 0.904073 0.036982
O O17 0.000000 0.750000 0.397665
O O18 0.750000 0.662657 0.000000
#
# Coordination Sequence:
#
# PCOD9332886 Si02
#       8
#     8   8   4   8   8   8   8   8
#     4  10  22  41  67  91 121 156 211 270 333 392
#     4  10  20  36  62  94 123 164 215 257 322 380
#     4  10  20  40  58  88 126 180 218 244 322 394
#     4  11  24  41  61  94 141 172 220 271 324 390
#     4  10  20  36  63  83 125 167 214 255 302 390
#     4  11  23  40  65  94 128 170 218 273 332 378
#     4  11  26  41  61  93 130 161 220 274 328 398
#     4  10  17  37  64  89 117 157 205 259 319 383
#
# _framework density 19.847894
#
# number of rings (size 3 to 8) (size 9 to 14) (size 15 to 20)
#    0.000    1.600    4.000    1.600    3.733    3.200 
#    1.200    2.000    0.000    0.000    0.000    0.000 
#    0.000    0.000    0.000    0.000    0.000    0.000 
#
# Total GULP energy -167037.845000 kJ/mol
# GULP energy per Si atom -5567.928167 kJ/mol
# Density = 1.980272 g / cm^3
# Si number density = 19.847894 Si / 1000 Ang^3
#
#
#
# Elastic Constant Matrix: (Units=GPa)
#
#
# Indices 1 2 3 4 5 6 
#
# 1 92.2967 23.0344 9.1916 0.0000 0.0000 0.0000
# 2 23.0344 47.1366 26.8658 0.0000 0.0000 0.0000
# 3 9.1916 26.8658 106.8537 0.0000 0.0000 0.0000
# 4 0.0000 0.0000 0.0000 8.9365 0.0000 0.0000
# 5 0.0000 0.0000 0.0000 0.0000 6.5665 0.0000
# 6 0.0000 0.0000 0.0000 0.0000 0.0000 10.4403
#
#
#
# Elastic Compliance Matrix: (Units=1/GPa)
#
#
# Indices 1 2 3 4 5 6 
#
# 1 0.012365 -0.006346 0.000532 0.000000 0.000000 0.000000
# 2 -0.006346 0.028020 -0.006499 0.000000 0.000000 0.000000
# 3 0.000532 -0.006499 0.010947 0.000000 0.000000 0.000000
# 4 0.000000 0.000000 0.000000 0.111900 0.000000 0.000000
# 5 0.000000 0.000000 0.000000 0.000000 0.152288 0.000000
# 6 0.000000 0.000000 0.000000 0.000000 0.000000 0.095783
#
#
# Mechanical properties :
#
#
# Convention : Reuss Voigt Hill
#
# Bulk Modulus (GPa) = 37.44435 40.49671 38.97053
# Shear Modulus (GPa) = 11.24021 17.66836 14.45428
#
# Velocity S-wave (km/s) = 2.38232 2.98684 2.70154
# Velocity P-wave (km/s) = 5.14528 5.68707 5.42295
#
# Compressibility (1/GPa) = 0.02670630
#
# Stress axis : x y z
#
# Youngs Moduli (GPa) = 80.87108 35.68865 91.35014
#
# Poissons Ratio (x) = 0.22647 -0.04858
# Poissons Ratio (y) = 0.51319 0.59370
# Poissons Ratio (z) = -0.04301 0.23194
#
# Static dielectric constant tensor:
#      x y z
#    x 1.794030 0.000000 0.000000 
#    y 0.000000 1.713440 0.000000 
#    z 0.000000 0.000000 1.724610 
# 
# From -- ./inp_files/31211.got.cif
#   From: 2010.05.17/outbox.cif.g08.bks.cpg/sg24_16_cif.got.tgz:31211.got - 2010.06.04 00:33:39.
