data_PCOD9332789
_publ_section_title
;
Structure prediction by ZEFSAII (Michael W. Deem and Ramdas Pophale) SiO2 
 PCOD9332789
Probable space group: I 21 21 21
;
_chemical_formula_sum "Si O2"
_cell_formula_units_Z 48
_cell_length_a 9.535016
_cell_length_b 11.603358
_cell_length_c 19.882772
_cell_angle_alpha 90.000000
_cell_angle_beta 90.000000
_cell_angle_gamma 90.000000
_cell_volume 2199.794188
_symmetry_space_group_name_H-M "I 21 21 21"
_symmetry_group_IT_number 24
_symmetry_cell_setting 'orthorhombic'
loop_
_space_group_symop_operation_xyz
x,y,z
-x,1/2-y,z
x,-y,1/2-z
1/2-x,y,-z
1/2+x,1/2+y,1/2+z
1/2-x,-y,1/2+z
1/2+x,1/2-y,-z
-x,1/2+y,1/2-z
loop_
_atom_site_type_symbol
_atom_site_label
_atom_site_fract_x
_atom_site_fract_y
_atom_site_fract_z
Si Si1 0.180507 0.337198 0.271801
Si Si2 0.788434 0.953758 0.895946
Si Si3 0.195785 0.310838 0.111539
Si Si4 0.969524 0.881986 0.007026
Si Si5 0.360020 0.089050 0.696763
Si Si6 0.104887 0.075106 0.072228
O O1 0.266319 0.427462 0.317410
O O2 0.201718 0.310303 0.192989
O O3 0.206309 0.214432 0.307665
O O4 0.019605 0.380202 0.279850
O O5 0.650139 0.915779 0.938141
O O6 0.804567 0.090291 0.909682
O O7 0.910478 0.885452 0.931896
O O8 0.207348 0.185171 0.078293
O O9 0.044370 0.364823 0.091582
O O10 0.000000 0.750000 0.024233
O O11 0.080632 0.987400 0.010798
O O12 0.296880 0.000000 0.750000
O O13 0.361659 0.017772 0.629287
#
# Coordination Sequence:
#
# PCOD9332789 Si02
#       6
#     8   8   8   8   8   8
#     4  11  17  25  44  75 112 134 169 214 279 333
#     4  10  20  31  50  76 106 141 185 217 262 323
#     4  10  17  27  46  75 108 132 171 216 271 328
#     4  10  20  35  51  71 108 146 187 222 254 323
#     4  11  15  23  40  72 105 141 159 203 278 348
#     4  10  17  27  45  73 105 144 166 203 272 327
#
# _framework density 21.820225000000001
#
# number of rings (size 3 to 8) (size 9 to 14) (size 15 to 20)
#    0.000    1.667    6.667    2.500    0.000    0.000 
#    0.000    0.000    0.000   30.000    0.000    2.333 
#   20.000    0.000    0.000    0.000    0.000    0.000 
#
# Total GULP energy -133704.085331 kJ/mol
# GULP energy per Si atom -5571.003555 kJ/mol
# Density = 2.177056 g / cm^3
# Si number density = 21.820225 Si / 1000 Ang^3
#
#
#
# Elastic Constant Matrix: (Units=GPa)
#
#
# Indices 1 2 3 4 5 6 
#
# 1 4.9599 17.1296 13.8764 0.0000 0.0000 0.0000
# 2 17.1296 209.5316 18.2038 0.0000 0.0000 0.0000
# 3 13.8764 18.2038 65.9928 0.0000 0.0000 0.0000
# 4 0.0000 0.0000 0.0000 2.4989 0.0000 0.0000
# 5 0.0000 0.0000 0.0000 0.0000 6.3711 0.0000
# 6 0.0000 0.0000 0.0000 0.0000 0.0000 4.2841
#
#
#
# Elastic Compliance Matrix: (Units=1/GPa)
#
#
# Indices 1 2 3 4 5 6 
#
# 1 0.849709 -0.055267 -0.163424 0.000000 0.000000 0.000000
# 2 -0.055267 0.008484 0.009281 0.000000 0.000000 0.000000
# 3 -0.163424 0.009281 0.046957 0.000000 0.000000 0.000000
# 4 0.000000 0.000000 0.000000 0.400170 0.000000 0.000000
# 5 0.000000 0.000000 0.000000 0.000000 0.156959 0.000000
# 6 0.000000 0.000000 0.000000 0.000000 0.000000 0.233424
#
#
# Mechanical properties :
#
#
# Convention : Reuss Voigt Hill
#
# Bulk Modulus (GPa) = 2.05623 42.10044 22.07833
# Shear Modulus (GPa) = 2.19623 18.04912 10.12267
#
# Velocity S-wave (km/s) = 1.00434 2.87918 2.15620
# Velocity P-wave (km/s) = 1.51305 5.51263 4.04218
#
# Compressibility (1/GPa) = 0.48632794
#
# Stress axis : x y z
#
# Youngs Moduli (GPa) = 1.17687 117.86266 21.29625
#
# Poissons Ratio (x) = 6.51394 3.48033
# Poissons Ratio (y) = 0.06504 -0.19764
# Poissons Ratio (z) = 0.19233 -1.09385
#
# Static dielectric constant tensor:
#      x y z
#    x 1.896200 0.000000 0.000000 
#    y 0.000000 1.868880 0.000000 
#    z 0.000000 0.000000 1.844120 
# 
# From -- ./inp_files/20055.got.cif
#   From: 2010.05.17/outbox.cif.g08.bks.cpg/sg24_11_cif.got.tgz:20055.got - 2010.06.04 00:33:39.
