data_PCOD9332750
_publ_section_title
;
Structure prediction by ZEFSAII (Michael W. Deem and Ramdas Pophale) SiO2 
 PCOD9332750
Probable space group: I 21 21 21
;
_chemical_formula_sum "Si O2"
_cell_formula_units_Z 56
_cell_length_a 17.812622
_cell_length_b 18.287704
_cell_length_c 10.371715
_cell_angle_alpha 90.000000
_cell_angle_beta 90.000000
_cell_angle_gamma 90.000000
_cell_volume 3378.606475
_symmetry_space_group_name_H-M "I 21 21 21"
_symmetry_group_IT_number 24
_symmetry_cell_setting 'orthorhombic'
loop_
_space_group_symop_operation_xyz
x,y,z
-x,1/2-y,z
x,-y,1/2-z
1/2-x,y,-z
1/2+x,1/2+y,1/2+z
1/2-x,-y,1/2+z
1/2+x,1/2-y,-z
-x,1/2+y,1/2-z
loop_
_atom_site_type_symbol
_atom_site_label
_atom_site_fract_x
_atom_site_fract_y
_atom_site_fract_z
Si Si1 0.070264 0.604581 0.922352
Si Si2 0.886414 0.083694 0.290740
Si Si3 0.771375 0.843207 0.856638
Si Si4 0.964473 0.500000 0.750000
Si Si5 0.182278 0.732853 0.595127
Si Si6 0.500000 0.250000 0.316668
Si Si7 0.413341 0.860137 0.374684
Si Si8 0.959129 0.174257 0.061120
O O1 0.156969 0.603805 0.876259
O O2 0.018902 0.547085 0.844701
O O3 0.043883 0.688381 0.896880
O O4 0.070489 0.589519 0.073742
O O5 0.802726 0.114640 0.311435
O O6 0.926428 0.131395 0.181228
O O7 0.882883 0.000000 0.250000
O O8 0.795351 0.789000 0.740779
O O9 0.750000 0.812205 0.000000
O O10 0.911424 0.439242 0.813499
O O11 0.250000 0.713915 0.500000
O O12 0.161438 0.818644 0.583096
O O13 0.108364 0.691108 0.539973
O O14 0.447737 0.199665 0.225857
O O15 0.475251 0.867496 0.486359
O O16 0.000000 0.250000 0.099213
#
# Coordination Sequence:
#
# PCOD9332750 Si02
#       8
#     8   8   8   4   8   4   8   8
#     4  10  21  35  54  79 112 142 183 226 269 326
#     4  11  23  36  49  82 116 148 173 220 280 332
#     4  10  21  36  51  78 115 145 182 218 267 332
#     4  10  20  34  58  80 104 148 178 228 286 314
#     4  11  18  34  58  81 104 145 188 230 267 321
#     4  10  16  32  56  78 100 136 182 226 260 310
#     4  10  18  34  56  82 105 135 187 233 264 332
#     4  10  20  35  56  80 109 142 189 225 265 332
#
# _framework density 16.57488
#
# number of rings (size 3 to 8) (size 9 to 14) (size 15 to 20)
#    0.000    1.714    5.000    1.714    2.000    0.000 
#    5.143    0.000    0.000    0.857    7.429    0.000 
#    0.000    0.000    0.000    0.000    0.000    0.000 
#
# Total GULP energy -155990.334604 kJ/mol
# GULP energy per Si atom -5571.083379 kJ/mol
# Density = 1.653716 g / cm^3
# Si number density = 16.574880 Si / 1000 Ang^3
#
#
#
# Elastic Constant Matrix: (Units=GPa)
#
#
# Indices 1 2 3 4 5 6 
#
# 1 41.8329 10.9779 32.7426 0.0000 0.0000 0.0000
# 2 10.9779 78.7430 39.5013 0.0000 0.0000 0.0000
# 3 32.7426 39.5013 113.8679 0.0000 0.0000 0.0000
# 4 0.0000 0.0000 0.0000 26.7114 0.0000 0.0000
# 5 0.0000 0.0000 0.0000 0.0000 -57.1234 0.0000
# 6 0.0000 0.0000 0.0000 0.0000 0.0000 15.9393
#
#
#
# Elastic Compliance Matrix: (Units=1/GPa)
#
#
# Indices 1 2 3 4 5 6 
#
# 1 0.030849 0.000181 -0.008933 0.000000 0.000000 0.000000
# 2 0.000181 0.015376 -0.005386 0.000000 0.000000 0.000000
# 3 -0.008933 -0.005386 0.013219 0.000000 0.000000 0.000000
# 4 0.000000 0.000000 0.000000 0.037437 0.000000 0.000000
# 5 0.000000 0.000000 0.000000 0.000000 -0.017506 0.000000
# 6 0.000000 0.000000 0.000000 0.000000 0.000000 0.062738
#
#
# Mechanical properties :
#
#
# Convention : Reuss Voigt Hill
#
# Bulk Modulus (GPa) = 32.08484 44.54303 38.31394
# Shear Modulus (GPa) = 27.65781 7.18694 17.42237
#
# Velocity S-wave (km/s) = 4.08935 2.08458 3.24563
# Velocity P-wave (km/s) = 6.45729 5.72067 6.10011
#
# Compressibility (1/GPa) = 0.03116736
#
# Stress axis : x y z
#
# Youngs Moduli (GPa) = 32.41556 65.03537 75.64695
#
# Poissons Ratio (x) = -0.01174 0.67578
# Poissons Ratio (y) = -0.00585 0.40743
# Poissons Ratio (z) = 0.28958 0.35028
#
# Static dielectric constant tensor:
#      x y z
#    x 1.568990 0.000000 0.000000 
#    y 0.000000 1.554320 0.000000 
#    z 0.000000 0.000000 1.582110 
# 
# From -- ./inp_files/15386.got.cif
#   From: 2010.05.17/outbox.cif.g08.bks.cpg/sg24_8_cif.got.tgz:15386.got - 2010.06.04 00:33:39.
