data_PCOD9332088
_publ_section_title
;
Structure prediction by ZEFSAII (Michael W. Deem and Ramdas Pophale) SiO2 
 PCOD9332088
Probable space group: I 2 2 2
;
_chemical_formula_sum "Si O2"
_cell_formula_units_Z 26
_cell_length_a 12.239905
_cell_length_b 16.426026
_cell_length_c 5.045746
_cell_angle_alpha 90.000000
_cell_angle_beta 90.000000
_cell_angle_gamma 90.000000
_cell_volume 1014.462359
_symmetry_space_group_name_H-M "I 2 2 2"
_symmetry_group_IT_number 23
_symmetry_cell_setting 'orthorhombic'
loop_
_space_group_symop_operation_xyz
x,y,z
-x,-y,z
x,-y,-z
-x,y,-z
1/2+x,1/2+y,1/2+z
1/2-x,1/2-y,1/2+z
1/2+x,1/2-y,1/2-z
1/2-x,1/2+y,1/2-z
loop_
_atom_site_type_symbol
_atom_site_label
_atom_site_fract_x
_atom_site_fract_y
_atom_site_fract_z
Si Si1 0.311922 0.114548 0.139948
Si Si2 0.382744 0.796489 0.387647
Si Si3 0.074398 0.108676 0.245551
Si Si4 0.000000 0.500000 0.500000
O O1 0.316367 0.191032 0.341739
O O2 0.196280 0.073413 0.210919
O O3 0.329170 0.148879 0.842516
O O4 0.414345 0.053857 0.167806
O O5 0.500000 0.823990 0.500000
O O6 0.405493 0.706285 0.281849
O O7 0.000000 0.092650 0.500000
O O8 0.000000 0.086135 0.000000
#
# Coordination Sequence:
#
# PCOD9332088 Si02
#       4
#     8   8   8   2
#     4  12  24  42  66 100 145 185 242 283 357 426
#     4  11  20  39  66 102 139 180 232 303 363 420
#     4  11  23  41  68 103 138 180 234 300 368 422
#     4  12  28  46  70 106 144 202 240 286 344 446
#
# _framework density 25.629337
#
# number of rings (size 3 to 8) (size 9 to 14) (size 15 to 20)
#    0.000    0.615    3.077    7.385    0.000    2.462 
#    0.000    0.769    0.000    1.846    0.000    0.000 
#    0.000    0.000    0.000    0.000    0.000    0.000 
#
# Total GULP energy -72658.902617 kJ/mol
# GULP energy per Si atom -5589.146355 kJ/mol
# Density = 2.557100 g / cm^3
# Si number density = 25.629337 Si / 1000 Ang^3
#
#
#
# Elastic Constant Matrix: (Units=GPa)
#
#
# Indices 1 2 3 4 5 6 
#
# 1 271.4700 46.0734 85.1038 0.0000 0.0000 0.0000
# 2 46.0734 103.6120 22.9812 0.0000 0.0000 0.0000
# 3 85.1038 22.9812 187.1357 0.0000 0.0000 0.0000
# 4 0.0000 0.0000 0.0000 68.9493 0.0000 0.0000
# 5 0.0000 0.0000 0.0000 0.0000 -6.8375 0.0000
# 6 0.0000 0.0000 0.0000 0.0000 0.0000 36.3175
#
#
#
# Elastic Compliance Matrix: (Units=1/GPa)
#
#
# Indices 1 2 3 4 5 6 
#
# 1 0.004542 -0.001605 -0.001868 0.000000 0.000000 0.000000
# 2 -0.001605 0.010489 -0.000558 0.000000 0.000000 0.000000
# 3 -0.001868 -0.000558 0.006262 0.000000 0.000000 0.000000
# 4 0.000000 0.000000 0.000000 0.014503 0.000000 0.000000
# 5 0.000000 0.000000 0.000000 0.000000 -0.146252 0.000000
# 6 0.000000 0.000000 0.000000 0.000000 0.000000 0.027535
#
#
# Mechanical properties :
#
#
# Convention : Reuss Voigt Hill
#
# Bulk Modulus (GPa) = 75.58933 96.72606 86.15769
# Shear Modulus (GPa) = -70.97463 46.88982 -12.04241
#
# Velocity S-wave (km/s) = -5.26810 4.28195 -2.17000
# Velocity P-wave (km/s) = 2.72883 7.89108 5.23558
#
# Compressibility (1/GPa) = 0.01322938
#
# Stress axis : x y z
#
# Youngs Moduli (GPa) = 220.17725 95.33827 159.69540
#
# Poissons Ratio (x) = 0.15304 0.29837
# Poissons Ratio (y) = 0.35343 0.08912
# Poissons Ratio (z) = 0.41137 0.05321
#
# Static dielectric constant tensor:
#      x y z
#    x 1.806450 0.000000 0.000000 
#    y 0.000000 2.199220 0.000000 
#    z 0.000000 0.000000 1.850150 
# 
# From -- ./inp_files/1138.got.cif
#   From: 2010.05.17/outbox.cif.g08.bks.cpg/sg23_1_cif.got.tgz:1138.got - 2010.06.04 12:02:01.
