data_PCOD9332423
_publ_section_title
;
Structure prediction by ZEFSAII (Michael W. Deem and Ramdas Pophale) SiO2 
 PCOD9332423
Probable space group: I 2 2 2
;
_chemical_formula_sum "Si O2"
_cell_formula_units_Z 48
_cell_length_a 9.776264
_cell_length_b 14.276206
_cell_length_c 17.316462
_cell_angle_alpha 90.000000
_cell_angle_beta 90.000000
_cell_angle_gamma 90.000000
_cell_volume 2416.823255
_symmetry_space_group_name_H-M "I 2 2 2"
_symmetry_group_IT_number 23
_symmetry_cell_setting 'orthorhombic'
loop_
_space_group_symop_operation_xyz
x,y,z
-x,-y,z
x,-y,-z
-x,y,-z
1/2+x,1/2+y,1/2+z
1/2-x,1/2-y,1/2+z
1/2+x,1/2-y,1/2-z
1/2-x,1/2+y,1/2-z
loop_
_atom_site_type_symbol
_atom_site_label
_atom_site_fract_x
_atom_site_fract_y
_atom_site_fract_z
Si Si1 0.028360 0.740203 0.916563
Si Si2 0.742845 0.854225 0.689243
Si Si3 0.510405 0.386324 0.092166
Si Si4 0.862179 0.950289 0.082452
Si Si5 0.231972 0.293880 0.820996
Si Si6 0.345243 0.031659 0.220732
O O1 0.123598 0.670450 0.869872
O O2 0.102052 0.840672 0.925919
O O3 0.883928 0.751634 0.874278
O O4 0.000000 0.699389 0.000000
O O5 0.719979 0.784430 0.760964
O O6 0.885284 0.845222 0.643116
O O7 0.728493 0.956802 0.724173
O O8 0.500000 0.500000 0.098996
O O9 0.648320 0.342514 0.129005
O O10 0.500000 0.364667 0.000000
O O11 0.739077 0.961409 0.141711
O O12 0.000000 0.000000 0.114103
O O13 0.835849 0.000000 0.000000
O O14 0.161891 0.371657 0.766845
O O15 0.500000 0.000000 0.207321
#
# Coordination Sequence:
#
# PCOD9332423 Si02
#       6
#     8   8   8   8   8   8
#     4  12  24  44  69 102 140 180 232 284 354 420
#     4  12  25  43  70 101 137 185 233 293 345 423
#     4  11  25  46  70 100 138 185 237 292 357 416
#     4  11  24  46  73 101 136 188 236 289 352 417
#     4  12  25  44  70 102 141 182 235 294 340 424
#     4  12  26  45  67 106 144 182 237 289 356 416
#
# _framework density 19.860782
#
# number of rings (size 3 to 8) (size 9 to 14) (size 15 to 20)
#    0.000    0.333    6.667    3.000    2.333    0.333 
#    0.000    0.833    0.000    0.000    0.000    0.000 
#    0.000    0.000    0.000    0.000    0.000    0.000 
#
# Total GULP energy -134199.246524 kJ/mol
# GULP energy per Si atom -5591.635272 kJ/mol
# Density = 1.981558 g / cm^3
# Si number density = 19.860782 Si / 1000 Ang^3
#
#
#
# Elastic Constant Matrix: (Units=GPa)
#
#
# Indices 1 2 3 4 5 6 
#
# 1 106.4114 -17.7463 55.8915 0.0000 0.0000 0.0000
# 2 -17.7463 47.3323 11.6826 0.0000 0.0000 0.0000
# 3 55.8915 11.6826 130.4597 0.0000 0.0000 0.0000
# 4 0.0000 0.0000 0.0000 48.5643 0.0000 0.0000
# 5 0.0000 0.0000 0.0000 0.0000 29.8611 0.0000
# 6 0.0000 0.0000 0.0000 0.0000 0.0000 -487.1272
#
#
#
# Elastic Compliance Matrix: (Units=1/GPa)
#
#
# Indices 1 2 3 4 5 6 
#
# 1 0.014029 0.006896 -0.006628 0.000000 0.000000 0.000000
# 2 0.006896 0.024994 -0.005192 0.000000 0.000000 0.000000
# 3 -0.006628 -0.005192 0.010970 0.000000 0.000000 0.000000
# 4 0.000000 0.000000 0.000000 0.020591 0.000000 0.000000
# 5 0.000000 0.000000 0.000000 0.000000 0.033488 0.000000
# 6 0.000000 0.000000 0.000000 0.000000 0.000000 -0.002053
#
#
# Mechanical properties :
#
#
# Convention : Reuss Voigt Hill
#
# Bulk Modulus (GPa) = 24.91071 42.65100 33.78086
# Shear Modulus (GPa) = 39.92043 -66.11533 -13.09745
#
# Velocity S-wave (km/s) = 4.48818 -5.77595 -2.57079
# Velocity P-wave (km/s) = 6.27919 4.79172 2.86946
#
# Compressibility (1/GPa) = 0.04014337
#
# Stress axis : x y z
#
# Youngs Moduli (GPa) = 71.28322 40.00934 91.16122
#
# Poissons Ratio (x) = -0.27589 0.60418
# Poissons Ratio (y) = -0.49154 0.47335
# Poissons Ratio (z) = 0.47244 0.20775
#
# Static dielectric constant tensor:
#      x y z
#    x 1.685310 0.000000 0.000000 
#    y 0.000000 1.690400 0.000000 
#    z 0.000000 0.000000 2.316230 
# 
# From -- ./inp_files/9924.got.cif
#   From: 2010.05.17/outbox.cif.g08.bks.cpg/sg23_5_cif.got.tgz:9924.got - 2010.06.04 12:02:01.
