data_PCOD9332741
_publ_section_title
;
Structure prediction by ZEFSAII (Michael W. Deem and Ramdas Pophale) SiO2 
 PCOD9332741
Probable space group: I 21 21 21
;
_chemical_formula_sum "Si O2"
_cell_formula_units_Z 44
_cell_length_a 14.646234
_cell_length_b 13.250254
_cell_length_c 8.444700
_cell_angle_alpha 90.000000
_cell_angle_beta 90.000000
_cell_angle_gamma 90.000000
_cell_volume 1638.831858
_symmetry_space_group_name_H-M "I 21 21 21"
_symmetry_group_IT_number 24
_symmetry_cell_setting 'orthorhombic'
loop_
_space_group_symop_operation_xyz
x,y,z
-x,1/2-y,z
x,-y,1/2-z
1/2-x,y,-z
1/2+x,1/2+y,1/2+z
1/2-x,-y,1/2+z
1/2+x,1/2-y,-z
-x,1/2+y,1/2-z
loop_
_atom_site_type_symbol
_atom_site_label
_atom_site_fract_x
_atom_site_fract_y
_atom_site_fract_z
Si Si1 0.988281 0.131175 0.380336
Si Si2 0.195081 0.115962 0.342323
Si Si3 0.250000 0.852692 0.500000
Si Si4 0.790721 0.859625 0.165956
Si Si5 0.628565 0.797050 0.352684
Si Si6 0.965172 0.611648 0.770609
O O1 0.892571 0.101621 0.301527
O O2 0.977148 0.113491 0.568683
O O3 0.000000 0.250000 0.349935
O O4 0.088500 0.086057 0.349775
O O5 0.250000 0.084780 0.500000
O O6 0.197848 0.238401 0.349803
O O7 0.235353 0.907075 0.332704
O O8 0.336285 0.776088 0.489755
O O9 0.711247 0.867103 0.296399
O O10 0.750000 0.898112 0.000000
O O11 0.602447 0.707379 0.225070
O O12 0.536725 0.860781 0.368776
O O13 0.926537 0.500000 0.750000
#
# Coordination Sequence:
#
# PCOD9332741 Si02
#       6
#     8   8   4   8   8   8
#     4  10  16  31  59  96 120 170 228 268 326 400
#     4   9  18  31  59 100 126 168 223 271 330 405
#     4  10  20  38  66  98 136 166 222 278 346 404
#     4   9  14  28  56  85 120 159 214 271 310 385
#     4  10  20  39  59  90 130 175 222 276 341 402
#     4  11  21  37  65  94 134 178 220 283 341 397
#
# _framework density 26.848392
#
# number of rings (size 3 to 8) (size 9 to 14) (size 15 to 20)
#    0.000    2.182    3.636    3.273    0.000    0.000 
#   16.364    1.818   16.000    0.000    0.000    0.000 
#    0.000    0.000    0.000    0.000    0.000    0.000 
#
# Total GULP energy -122884.735074 kJ/mol
# GULP energy per Si atom -5585.669776 kJ/mol
# Density = 2.678728 g / cm^3
# Si number density = 26.848392 Si / 1000 Ang^3
#
#
#
# Elastic Constant Matrix: (Units=GPa)
#
#
# Indices 1 2 3 4 5 6 
#
# 1 221.1506 31.1977 53.8837 0.0000 0.0000 0.0000
# 2 31.1977 111.1888 45.1630 0.0000 0.0000 0.0000
# 3 53.8837 45.1630 124.1169 0.0000 0.0000 0.0000
# 4 0.0000 0.0000 0.0000 29.3973 0.0000 0.0000
# 5 0.0000 0.0000 0.0000 0.0000 31.2390 0.0000
# 6 0.0000 0.0000 0.0000 0.0000 0.0000 -11.3969
#
#
#
# Elastic Compliance Matrix: (Units=1/GPa)
#
#
# Indices 1 2 3 4 5 6 
#
# 1 0.005093 -0.000623 -0.001984 0.000000 0.000000 0.000000
# 2 -0.000623 0.010630 -0.003597 0.000000 0.000000 0.000000
# 3 -0.001984 -0.003597 0.010227 0.000000 0.000000 0.000000
# 4 0.000000 0.000000 0.000000 0.034017 0.000000 0.000000
# 5 0.000000 0.000000 0.000000 0.000000 0.032011 0.000000
# 6 0.000000 0.000000 0.000000 0.000000 0.000000 -0.087743
#
#
# Mechanical properties :
#
#
# Convention : Reuss Voigt Hill
#
# Bulk Modulus (GPa) = 73.85184 79.66058 76.75621
# Shear Modulus (GPa) = 236.31025 31.59533 133.95279
#
# Velocity S-wave (km/s) = 9.39189 3.43418 7.07111
# Velocity P-wave (km/s) = 12.04894 6.74238 9.76311
#
# Compressibility (1/GPa) = 0.01354062
#
# Stress axis : x y z
#
# Youngs Moduli (GPa) = 196.33993 94.07572 97.77605
#
# Poissons Ratio (x) = 0.05861 0.19403
# Poissons Ratio (y) = 0.12232 0.35174
# Poissons Ratio (z) = 0.38963 0.33843
#
# Static dielectric constant tensor:
#      x y z
#    x 2.210310 0.000000 0.000000 
#    y 0.000000 2.095140 0.000000 
#    z 0.000000 0.000000 2.114300 
# 
# From -- ./inp_files/20681.got.cif
#   From: 2010.05.17/outbox.cif.g08.bks.cpg/sg24_11_cif.got.tgz:20681.got - 2010.06.04 00:33:39.
