data_PCOD9332005
_publ_section_title
;
Structure prediction by ZEFSAII (Michael W. Deem and Ramdas Pophale) SiO2 
 PCOD9332005
Probable space group: I 2 2 2
;
_chemical_formula_sum "Si O2"
_cell_formula_units_Z 44
_cell_length_a 26.702840
_cell_length_b 8.354857
_cell_length_c 9.549967
_cell_angle_alpha 90.000000
_cell_angle_beta 90.000000
_cell_angle_gamma 90.000000
_cell_volume 2130.582450
_symmetry_space_group_name_H-M "I 2 2 2"
_symmetry_group_IT_number 23
_symmetry_cell_setting 'orthorhombic'
loop_
_space_group_symop_operation_xyz
x,y,z
-x,-y,z
x,-y,-z
-x,y,-z
1/2+x,1/2+y,1/2+z
1/2-x,1/2-y,1/2+z
1/2+x,1/2-y,1/2-z
1/2-x,1/2+y,1/2-z
loop_
_atom_site_type_symbol
_atom_site_label
_atom_site_fract_x
_atom_site_fract_y
_atom_site_fract_z
Si Si1 0.500000 0.760460 0.000000
Si Si2 0.896912 0.356462 0.168120
Si Si3 0.253551 0.000000 0.000000
Si Si4 0.155970 0.832504 0.936314
Si Si5 0.657539 0.138953 0.167696
Si Si6 0.500000 0.000000 0.752923
Si Si7 0.108034 0.837299 0.433328
O O1 0.548484 0.666118 0.045635
O O2 0.482543 0.866025 0.134168
O O3 0.869674 0.499482 0.248181
O O4 0.886573 0.204374 0.270625
O O5 0.954961 0.415570 0.167885
O O6 0.872311 0.306190 0.022306
O O7 0.215403 0.144175 0.036673
O O8 0.288621 0.931766 0.123092
O O9 0.153497 0.789950 0.773045
O O10 0.135043 0.000000 0.000000
O O11 0.631590 0.193696 0.023989
O O12 0.128512 0.000000 0.500000
#
# Coordination Sequence:
#
# PCOD9332005 Si02
#       7
#     4   8   4   8   8   4   8
#     4   9  17  34  56 100 132 174 218 280 324 410
#     4  11  21  42  68  99 132 181 223 281 338 415
#     4  10  26  42  68  97 127 180 232 278 346 408
#     4  10  26  44  65  95 136 172 227 284 350 401
#     4  12  22  44  65  95 132 173 230 274 337 411
#     4   9  18  34  69  94 134 168 234 266 336 410
#     4  11  21  35  65  96 136 173 221 279 337 398
#
# _framework density 20.651630000000001
#
# number of rings (size 3 to 8) (size 9 to 14) (size 15 to 20)
#    0.545    0.909    3.636    1.909    2.545    0.000 
#    0.000    1.818    0.000    1.091    0.000    0.000 
#    0.000    0.000    0.000    0.000    0.000    0.000 
#
# Total GULP energy -122513.410414 kJ/mol
# GULP energy per Si atom -5568.791382 kJ/mol
# Density = 2.060463 g / cm^3
# Si number density = 20.651630 Si / 1000 Ang^3
#
#
#
# Elastic Constant Matrix: (Units=GPa)
#
#
# Indices 1 2 3 4 5 6 
#
# 1 70.0885 8.0778 34.9280 0.0000 0.0000 0.0000
# 2 8.0778 80.6662 24.7144 0.0000 0.0000 0.0000
# 3 34.9280 24.7144 123.2460 0.0000 0.0000 0.0000
# 4 0.0000 0.0000 0.0000 36.2746 0.0000 0.0000
# 5 0.0000 0.0000 0.0000 0.0000 22.1160 0.0000
# 6 0.0000 0.0000 0.0000 0.0000 0.0000 13.1274
#
#
#
# Elastic Compliance Matrix: (Units=1/GPa)
#
#
# Indices 1 2 3 4 5 6 
#
# 1 0.016618 -0.000236 -0.004662 0.000000 0.000000 0.000000
# 2 -0.000236 0.013212 -0.002583 0.000000 0.000000 0.000000
# 3 -0.004662 -0.002583 0.009953 0.000000 0.000000 0.000000
# 4 0.000000 0.000000 0.000000 0.027567 0.000000 0.000000
# 5 0.000000 0.000000 0.000000 0.000000 0.045216 0.000000
# 6 0.000000 0.000000 0.000000 0.000000 0.000000 0.076177
#
#
# Mechanical properties :
#
#
# Convention : Reuss Voigt Hill
#
# Bulk Modulus (GPa) = 40.28721 45.49347 42.89034
# Shear Modulus (GPa) = 23.58731 28.05563 25.82147
#
# Velocity S-wave (km/s) = 3.38324 3.68981 3.53984
# Velocity P-wave (km/s) = 5.90018 6.34269 6.12543
#
# Compressibility (1/GPa) = 0.02482178
#
# Stress axis : x y z
#
# Youngs Moduli (GPa) = 60.17463 75.69112 100.47175
#
# Poissons Ratio (x) = 0.01784 0.46844
# Poissons Ratio (y) = 0.01418 0.25947
# Poissons Ratio (z) = 0.28056 0.19547
#
# Static dielectric constant tensor:
#      x y z
#    x 1.723960 0.000000 0.000000 
#    y 0.000000 1.808660 0.000000 
#    z 0.000000 0.000000 1.764170 
# 
# From -- ./inp_files/13302.got.cif
#   From: 2010.05.17/outbox.cif.g08.bks.cpg/sg23_7_cif.got.tgz:13302.got - 2010.06.04 12:02:01.
