data_PCOD9332369
_publ_section_title
;
Structure prediction by ZEFSAII (Michael W. Deem and Ramdas Pophale) SiO2 
 PCOD9332369
Probable space group: I 2 2 2
;
_chemical_formula_sum "Si O2"
_cell_formula_units_Z 54
_cell_length_a 30.861129
_cell_length_b 13.620974
_cell_length_c 5.630649
_cell_angle_alpha 90.000000
_cell_angle_beta 90.000000
_cell_angle_gamma 90.000000
_cell_volume 2366.891932
_symmetry_space_group_name_H-M "I 2 2 2"
_symmetry_group_IT_number 23
_symmetry_cell_setting 'orthorhombic'
loop_
_space_group_symop_operation_xyz
x,y,z
-x,-y,z
x,-y,-z
-x,y,-z
1/2+x,1/2+y,1/2+z
1/2-x,1/2-y,1/2+z
1/2+x,1/2-y,1/2-z
1/2-x,1/2+y,1/2-z
loop_
_atom_site_type_symbol
_atom_site_label
_atom_site_fract_x
_atom_site_fract_y
_atom_site_fract_z
Si Si1 0.513064 0.144930 0.247688
Si Si2 0.302678 0.098183 0.844000
Si Si3 0.237000 0.000000 0.500000
Si Si4 0.868905 0.205767 0.117798
Si Si5 0.000000 0.000000 0.500000
Si Si6 0.964114 0.150205 0.179282
Si Si7 0.894470 0.606465 0.094954
Si Si8 0.819116 0.181563 0.613442
O O1 0.500000 0.099780 0.500000
O O2 0.484339 0.244610 0.251546
O O3 0.564929 0.154749 0.267939
O O4 0.500000 0.098378 0.000000
O O5 0.268510 0.073515 0.640223
O O6 0.352363 0.096007 0.757557
O O7 0.295385 0.211598 0.923780
O O8 0.297378 0.000000 0.000000
O O9 0.207469 0.079972 0.365355
O O10 0.915893 0.157364 0.086524
O O11 0.847198 0.174599 0.367272
O O12 0.879696 0.322519 0.119334
O O13 0.842823 0.190692 0.871026
O O14 0.033771 0.076283 0.609028
O O15 0.000000 0.109855 0.000000
O O16 0.907033 0.500000 0.000000
#
# Coordination Sequence:
#
# PCOD9332369 Si02
#       8
#     8   8   4   8   2   8   8   8
#     4  11  24  43  72 100 153 199 243 305 361 433
#     4  11  27  47  85 111 157 200 259 327 393 477
#     4  12  30  55  80 122 152 204 268 324 411 480
#     4  11  26  50  77 109 160 201 252 318 394 449
#     4  12  26  38  76  98 138 196 278 304 372 444
#     4  11  24  46  69 106 146 200 252 314 368 444
#     4  11  23  46  76 113 149 200 261 305 382 454
#     4  11  30  50  83 114 157 205 253 330 392 480
#
# _framework density 22.814729
#
# number of rings (size 3 to 8) (size 9 to 14) (size 15 to 20)
#    0.000    0.889    4.444    1.111   12.444    2.074 
#    2.667    0.741    1.630    0.000    0.000    0.000 
#    0.000    0.000    0.000    0.000    0.000    0.000 
#
# Total GULP energy -150512.376384 kJ/mol
# GULP energy per Si atom -5574.532459 kJ/mol
# Density = 2.276280 g / cm^3
# Si number density = 22.814729 Si / 1000 Ang^3
#
#
#
# Elastic Constant Matrix: (Units=GPa)
#
#
# Indices 1 2 3 4 5 6 
#
# 1 94.8437 40.0793 38.9431 0.0000 -0.0002 0.0001
# 2 40.0793 129.8785 26.0949 0.0005 -0.0002 -0.0001
# 3 38.9431 26.0949 106.3962 0.0033 -0.0017 -0.0002
# 4 0.0000 0.0005 0.0033 -97.0523 -0.0001 -0.0014
# 5 -0.0002 -0.0002 -0.0017 -0.0001 165.5153 -0.0005
# 6 0.0001 -0.0001 -0.0002 -0.0014 -0.0005 -31.7845
#
#
#
# Elastic Compliance Matrix: (Units=1/GPa)
#
#
# Indices 1 2 3 4 5 6 
#
# 1 0.013691 -0.003385 -0.004181 0.000000 0.000000 0.000000
# 2 -0.003385 0.008935 -0.000953 0.000000 0.000000 0.000000
# 3 -0.004181 -0.000953 0.011163 0.000000 0.000000 0.000000
# 4 0.000000 0.000000 0.000000 -0.010304 0.000000 0.000000
# 5 0.000000 0.000000 0.000000 0.000000 0.006042 0.000000
# 6 0.000000 0.000000 0.000000 0.000000 0.000000 -0.031462
#
#
# Mechanical properties :
#
#
# Convention : Reuss Voigt Hill
#
# Bulk Modulus (GPa) = 59.69349 60.15035 59.92192
# Shear Modulus (GPa) = 241.71202 22.40245 132.05723
#
# Velocity S-wave (km/s) = 10.30415 3.13697 7.61631
# Velocity P-wave (km/s) = 12.95333 6.28830 10.18164
#
# Compressibility (1/GPa) = 0.01675225
#
# Stress axis : x y z
#
# Youngs Moduli (GPa) = 73.04221 111.91411 89.58355
#
# Poissons Ratio (x) = 0.37881 0.37454
# Poissons Ratio (y) = 0.24723 0.08534
# Poissons Ratio (z) = 0.30538 0.10661
#
# Static dielectric constant tensor:
#      x y z
#    x 1.976250 0.000000 0.000000 
#    y 0.000000 1.692990 0.000000 
#    z 0.000000 0.000000 1.877560 
# 
# From -- ./inp_files/5375.got.cif
#   From: 2010.05.17/outbox.cif.g08.bks.cpg/sg23_3_cif.got.tgz:5375.got - 2010.06.04 12:02:01.
