data_PCOD9332774
_publ_section_title
;
Structure prediction by ZEFSAII (Michael W. Deem and Ramdas Pophale) SiO2 
 PCOD9332774
Probable space group: I 21 21 21
;
_chemical_formula_sum "Si O2"
_cell_formula_units_Z 48
_cell_length_a 18.545558
_cell_length_b 16.348692
_cell_length_c 6.943827
_cell_angle_alpha 90.000000
_cell_angle_beta 90.000000
_cell_angle_gamma 90.000000
_cell_volume 2105.337903
_symmetry_space_group_name_H-M "I 21 21 21"
_symmetry_group_IT_number 24
_symmetry_cell_setting 'orthorhombic'
loop_
_space_group_symop_operation_xyz
x,y,z
-x,1/2-y,z
x,-y,1/2-z
1/2-x,y,-z
1/2+x,1/2+y,1/2+z
1/2-x,-y,1/2+z
1/2+x,1/2-y,-z
-x,1/2+y,1/2-z
loop_
_atom_site_type_symbol
_atom_site_label
_atom_site_fract_x
_atom_site_fract_y
_atom_site_fract_z
Si Si1 0.644648 0.875806 0.832743
Si Si2 0.524888 0.615901 0.411820
Si Si3 0.106264 0.733016 0.639571
Si Si4 0.793988 0.093440 0.754382
Si Si5 0.011689 0.936875 0.038654
Si Si6 0.080396 0.779391 0.091789
O O1 0.708141 0.913730 0.704000
O O2 0.681609 0.882160 0.040092
O O3 0.565977 0.915941 0.864961
O O4 0.633734 0.779283 0.792155
O O5 0.456499 0.674453 0.444352
O O6 0.593640 0.675360 0.440767
O O7 0.525531 0.533366 0.535029
O O8 0.511583 0.588799 0.188827
O O9 0.173726 0.672116 0.634794
O O10 0.091270 0.753487 0.867531
O O11 0.823656 0.000000 0.750000
O O12 0.074675 0.876431 0.114121
O O13 0.000000 0.750000 0.139907
#
# Coordination Sequence:
#
# PCOD9332774 Si02
#       6
#     8   8   8   8   8   8
#     4   9  16  23  35  53  79 114 129 154 202 241
#     4   9  13  19  34  53  77 108 125 159 196 236
#     4   9  13  21  30  49  79 109 128 151 193 232
#     4  10  17  24  34  51  83 116 135 154 189 251
#     4   9  13  20  35  54  78 102 127 161 198 238
#     4   8  11  21  32  49  76 103 120 158 194 234
#
# _framework density 22.799191
#
# number of rings (size 3 to 8) (size 9 to 14) (size 15 to 20)
#    0.000    3.000    6.667    1.000    0.000    0.000 
#    0.000    0.000    0.000    0.000    0.000    0.000 
#   45.000   88.000  140.000    0.000    0.000    0.000 
#
# Total GULP energy -133625.716743 kJ/mol
# GULP energy per Si atom -5567.738198 kJ/mol
# Density = 2.274730 g / cm^3
# Si number density = 22.799191 Si / 1000 Ang^3
#
#
#
# Elastic Constant Matrix: (Units=GPa)
#
#
# Indices 1 2 3 4 5 6 
#
# 1 83.4165 82.9862 14.0649 0.0000 0.0000 0.0000
# 2 82.9862 245.6016 35.3770 0.0000 0.0000 0.0000
# 3 14.0649 35.3770 69.8344 0.0000 0.0000 0.0000
# 4 0.0000 0.0000 0.0000 35.0477 0.0000 0.0000
# 5 0.0000 0.0000 0.0000 0.0000 20.9914 0.0000
# 6 0.0000 0.0000 0.0000 0.0000 0.0000 -14.7570
#
#
#
# Elastic Compliance Matrix: (Units=1/GPa)
#
#
# Indices 1 2 3 4 5 6 
#
# 1 0.018081 -0.006024 -0.000590 0.000000 0.000000 0.000000
# 2 -0.006024 0.006399 -0.002029 0.000000 0.000000 0.000000
# 3 -0.000590 -0.002029 0.015466 0.000000 0.000000 0.000000
# 4 0.000000 0.000000 0.000000 0.028533 0.000000 0.000000
# 5 0.000000 0.000000 0.000000 0.000000 0.047639 0.000000
# 6 0.000000 0.000000 0.000000 0.000000 0.000000 -0.067764
#
#
# Mechanical properties :
#
#
# Convention : Reuss Voigt Hill
#
# Bulk Modulus (GPa) = 44.12866 73.74542 58.93704
# Shear Modulus (GPa) = 68.31377 26.01803 47.16590
#
# Velocity S-wave (km/s) = 5.47981 3.38180 4.55329
# Velocity P-wave (km/s) = 7.70942 6.90396 7.31778
#
# Compressibility (1/GPa) = 0.02266101
#
# Stress axis : x y z
#
# Youngs Moduli (GPa) = 55.30742 156.26478 64.65809
#
# Poissons Ratio (x) = 0.94140 0.03813
# Poissons Ratio (y) = 0.33319 0.13116
# Poissons Ratio (z) = 0.03261 0.31698
#
# Static dielectric constant tensor:
#      x y z
#    x 1.899150 0.000000 0.000000 
#    y 0.000000 1.927490 0.000000 
#    z 0.000000 0.000000 2.047070 
# 
# From -- ./inp_files/21598.got.cif
#   From: 2010.05.17/outbox.cif.g08.bks.cpg/sg24_11_cif.got.tgz:21598.got - 2010.06.04 00:33:39.
