data_PCOD9332368
_publ_section_title
;
Structure prediction by ZEFSAII (Michael W. Deem and Ramdas Pophale) SiO2 
 PCOD9332368
Probable space group: I 2 2 2
;
_chemical_formula_sum "Si O2"
_cell_formula_units_Z 32
_cell_length_a 19.314818
_cell_length_b 7.827936
_cell_length_c 9.409411
_cell_angle_alpha 90.000000
_cell_angle_beta 90.000000
_cell_angle_gamma 90.000000
_cell_volume 1422.657394
_symmetry_space_group_name_H-M "I 2 2 2"
_symmetry_group_IT_number 23
_symmetry_cell_setting 'orthorhombic'
loop_
_space_group_symop_operation_xyz
x,y,z
-x,-y,z
x,-y,-z
-x,y,-z
1/2+x,1/2+y,1/2+z
1/2-x,1/2-y,1/2+z
1/2+x,1/2-y,1/2-z
1/2-x,1/2+y,1/2-z
loop_
_atom_site_type_symbol
_atom_site_label
_atom_site_fract_x
_atom_site_fract_y
_atom_site_fract_z
Si Si1 0.308384 0.904317 0.628744
Si Si2 0.928629 0.195236 0.443836
Si Si3 0.957977 0.317472 0.129426
Si Si4 0.800956 0.630638 0.392262
O O1 0.380737 0.840071 0.568591
O O2 0.254829 0.759599 0.671793
O O3 0.270959 0.000000 0.500000
O O4 0.328294 0.024069 0.759338
O O5 0.940473 0.216232 0.274723
O O6 0.862645 0.287144 0.514992
O O7 0.000000 0.274385 0.500000
O O8 0.925166 0.000000 0.500000
O O9 0.000000 0.500000 0.156349
O O10 0.000000 0.232877 0.000000
O O11 0.763959 0.500000 0.500000
#
# Coordination Sequence:
#
# PCOD9332368 Si02
#       4
#     8   8   8   8
#     4  12  25  44  72 110 150 192 254 314 377 455
#     4  11  26  47  74 110 150 198 256 314 376 461
#     4  11  23  46  76 108 145 198 255 311 382 455
#     4  12  26  46  74 108 150 205 251 312 383 460
#
# _framework density 22.493117000000002
#
# number of rings (size 3 to 8) (size 9 to 14) (size 15 to 20)
#    0.000    0.500    5.000    3.750    3.500    0.000 
#    0.000    2.500    0.000    0.000    0.000    0.000 
#    0.000    0.000    0.000    0.000    0.000    0.000 
#
# Total GULP energy -89241.156515 kJ/mol
# GULP energy per Si atom -5577.572282 kJ/mol
# Density = 2.244192 g / cm^3
# Si number density = 22.493117 Si / 1000 Ang^3
#
#
#
# Elastic Constant Matrix: (Units=GPa)
#
#
# Indices 1 2 3 4 5 6 
#
# 1 137.8008 36.3370 27.1265 0.0000 0.0000 0.0000
# 2 36.3370 72.8160 46.2939 0.0000 0.0000 0.0000
# 3 27.1265 46.2939 155.7752 0.0000 0.0000 0.0000
# 4 0.0000 0.0000 0.0000 30.6574 0.0000 0.0000
# 5 0.0000 0.0000 0.0000 0.0000 30.4452 0.0000
# 6 0.0000 0.0000 0.0000 0.0000 0.0000 -4.3409
#
#
#
# Elastic Compliance Matrix: (Units=1/GPa)
#
#
# Indices 1 2 3 4 5 6 
#
# 1 0.008365 -0.004005 -0.000266 0.000000 0.000000 0.000000
# 2 -0.004005 0.018850 -0.004904 0.000000 0.000000 0.000000
# 3 -0.000266 -0.004904 0.007923 0.000000 0.000000 0.000000
# 4 0.000000 0.000000 0.000000 0.032619 0.000000 0.000000
# 5 0.000000 0.000000 0.000000 0.000000 0.032846 0.000000
# 6 0.000000 0.000000 0.000000 0.000000 0.000000 -0.230367
#
#
# Mechanical properties :
#
#
# Convention : Reuss Voigt Hill
#
# Bulk Modulus (GPa) = 59.57097 65.10074 62.33586
# Shear Modulus (GPa) = -47.25181 28.46132 -9.39525
#
# Velocity S-wave (km/s) = -4.58834 3.56101 -2.04597
# Velocity P-wave (km/s) = 1.23647 6.77592 4.71085
#
# Compressibility (1/GPa) = 0.01678670
#
# Stress axis : x y z
#
# Youngs Moduli (GPa) = 119.53950 53.05036 126.20784
#
# Poissons Ratio (x) = 0.21247 0.03363
# Poissons Ratio (y) = 0.47877 0.61898
# Poissons Ratio (z) = 0.03185 0.26018
#
# Static dielectric constant tensor:
#      x y z
#    x 1.778860 0.000000 0.000000 
#    y 0.000000 1.738590 0.000000 
#    z 0.000000 0.000000 2.009430 
# 
# From -- ./inp_files/11607.got.cif
#   From: 2010.05.17/outbox.cif.g08.bks.cpg/sg23_6_cif.got.tgz:11607.got - 2010.06.04 12:02:01.
