data_PCOD9332077
_publ_section_title
;
Structure prediction by ZEFSAII (Michael W. Deem and Ramdas Pophale) SiO2 
 PCOD9332077
Probable space group: I 2 2 2
;
_chemical_formula_sum "Si O2"
_cell_formula_units_Z 48
_cell_length_a 21.887539
_cell_length_b 5.253608
_cell_length_c 19.722254
_cell_angle_alpha 90.000000
_cell_angle_beta 90.000000
_cell_angle_gamma 90.000000
_cell_volume 2267.833390
_symmetry_space_group_name_H-M "I 2 2 2"
_symmetry_group_IT_number 23
_symmetry_cell_setting 'orthorhombic'
loop_
_space_group_symop_operation_xyz
x,y,z
-x,-y,z
x,-y,-z
-x,y,-z
1/2+x,1/2+y,1/2+z
1/2-x,1/2-y,1/2+z
1/2+x,1/2-y,1/2-z
1/2-x,1/2+y,1/2-z
loop_
_atom_site_type_symbol
_atom_site_label
_atom_site_fract_x
_atom_site_fract_y
_atom_site_fract_z
Si Si1 0.096403 0.397803 0.310570
Si Si2 0.933043 0.097177 0.225682
Si Si3 0.813229 0.098989 0.164189
Si Si4 0.287317 0.230350 0.182510
Si Si5 0.279699 0.622868 0.068563
Si Si6 0.414670 0.242290 0.958948
O O1 0.067248 0.646535 0.272488
O O2 0.165836 0.494192 0.323833
O O3 0.066259 0.304861 0.380976
O O4 0.095234 0.145577 0.265202
O O5 0.885393 0.136933 0.164465
O O6 0.000000 0.000000 0.207024
O O7 0.792989 0.195287 0.239159
O O8 0.774643 0.230599 0.105573
O O9 0.783690 0.819081 0.165579
O O10 0.306395 0.428867 0.125179
O O11 0.340563 0.763709 0.043505
O O12 0.254452 0.500000 0.000000
O O13 0.430663 0.500000 0.000000
O O14 0.435469 0.000000 0.000000
#
# Coordination Sequence:
#
# PCOD9332077 Si02
#       6
#     8   8   8   8   8   8
#     4  11  21  39  63  87 125 163 204 269 319 382
#     4  11  25  41  62  90 120 161 221 273 322 363
#     4  11  21  34  62  86 130 165 207 258 319 382
#     4  11  20  36  59  94 127 163 203 248 333 381
#     4  11  23  34  54  95 139 168 199 250 314 402
#     4  11  21  35  55  89 129 164 197 237 311 392
#
# _framework density 21.165576000000001
#
# number of rings (size 3 to 8) (size 9 to 14) (size 15 to 20)
#    0.000    1.000    3.333    6.500    2.333    0.000 
#    0.000    0.000    0.000    7.500    0.000    4.667 
#    0.000    0.000    0.000    0.000    0.000    0.000 
#
# Total GULP energy -133936.570905 kJ/mol
# GULP energy per Si atom -5580.690454 kJ/mol
# Density = 2.111740 g / cm^3
# Si number density = 21.165576 Si / 1000 Ang^3
#
#
#
# Elastic Constant Matrix: (Units=GPa)
#
#
# Indices 1 2 3 4 5 6 
#
# 1 139.0941 26.3717 37.9307 0.0000 0.0000 0.0000
# 2 26.3717 112.7550 26.1631 0.0000 0.0000 0.0000
# 3 37.9307 26.1631 77.4923 0.0000 0.0000 0.0000
# 4 0.0000 0.0000 0.0000 33.8621 0.0000 0.0000
# 5 0.0000 0.0000 0.0000 0.0000 7.5580 0.0000
# 6 0.0000 0.0000 0.0000 0.0000 0.0000 63.6628
#
#
#
# Elastic Compliance Matrix: (Units=1/GPa)
#
#
# Indices 1 2 3 4 5 6 
#
# 1 0.008421 -0.001099 -0.003751 0.000000 0.000000 0.000000
# 2 -0.001099 0.009766 -0.002759 0.000000 0.000000 0.000000
# 3 -0.003751 -0.002759 0.015672 0.000000 0.000000 0.000000
# 4 0.000000 0.000000 0.000000 0.029532 0.000000 0.000000
# 5 0.000000 0.000000 0.000000 0.000000 0.132310 0.000000
# 6 0.000000 0.000000 0.000000 0.000000 0.000000 0.015708
#
#
# Mechanical properties :
#
#
# Convention : Reuss Voigt Hill
#
# Bulk Modulus (GPa) = 53.64627 56.69692 55.17159
# Shear Modulus (GPa) = 21.47404 36.94164 29.20784
#
# Velocity S-wave (km/s) = 3.18869 4.18229 3.71882
# Velocity P-wave (km/s) = 6.24164 7.08290 6.67554
#
# Compressibility (1/GPa) = 0.01864062
#
# Stress axis : x y z
#
# Youngs Moduli (GPa) = 118.75712 102.39495 63.80845
#
# Poissons Ratio (x) = 0.11255 0.23932
# Poissons Ratio (y) = 0.13053 0.17606
# Poissons Ratio (z) = 0.44541 0.28253
#
# Static dielectric constant tensor:
#      x y z
#    x 1.843150 0.000000 0.000000 
#    y 0.000000 1.876310 0.000000 
#    z 0.000000 0.000000 1.614770 
# 
# From -- ./inp_files/25342.got.cif
#   From: 2010.05.17/outbox.cif.g08.bks.cpg/sg23_13_cif.got.tgz:25342.got - 2010.06.04 12:02:01.
