data_PCOD9332201
_publ_section_title
;
Structure prediction by ZEFSAII (Michael W. Deem and Ramdas Pophale) SiO2 
 PCOD9332201
Probable space group: I 2 2 2
;
_chemical_formula_sum "Si O2"
_cell_formula_units_Z 48
_cell_length_a 25.182393
_cell_length_b 9.860435
_cell_length_c 10.266740
_cell_angle_alpha 90.000000
_cell_angle_beta 90.000000
_cell_angle_gamma 90.000000
_cell_volume 2549.327529
_symmetry_space_group_name_H-M "I 2 2 2"
_symmetry_group_IT_number 23
_symmetry_cell_setting 'orthorhombic'
loop_
_space_group_symop_operation_xyz
x,y,z
-x,-y,z
x,-y,-z
-x,y,-z
1/2+x,1/2+y,1/2+z
1/2-x,1/2-y,1/2+z
1/2+x,1/2-y,1/2-z
1/2-x,1/2+y,1/2-z
loop_
_atom_site_type_symbol
_atom_site_label
_atom_site_fract_x
_atom_site_fract_y
_atom_site_fract_z
Si Si1 0.125260 0.778621 0.232761
Si Si2 0.798848 0.836313 0.001315
Si Si3 0.559183 0.971027 0.346486
Si Si4 0.438932 0.528003 0.344883
Si Si5 0.172994 0.663528 0.497685
Si Si6 0.626883 0.221622 0.273532
O O1 0.172729 0.778995 0.127556
O O2 0.078754 0.680004 0.181375
O O3 0.146065 0.726732 0.370390
O O4 0.100104 0.927721 0.231853
O O5 0.736176 0.811110 0.004251
O O6 0.827813 0.766777 0.124183
O O7 0.806642 0.000000 0.000000
O O8 0.604171 0.071123 0.292305
O O9 0.500000 0.000000 0.293780
O O10 0.557546 0.000000 0.500000
O O11 0.500000 0.500000 0.314048
O O12 0.431850 0.500000 0.500000
O O13 0.421659 0.678813 0.308469
O O14 0.165222 0.500000 0.500000
O O15 0.148467 0.728595 0.627612
#
# Coordination Sequence:
#
# PCOD9332201 Si02
#       6
#     8   8   8   8   8   8
#     4  12  21  43  63  95 125 165 208 257 312 368
#     4  11  22  43  66  93 123 167 213 259 308 367
#     4  11  22  37  64  94 123 162 213 259 302 366
#     4  11  22  41  70  96 123 162 211 263 312 366
#     4  11  26  41  62  91 135 169 203 253 318 375
#     4  12  21  43  63  95 125 165 208 257 312 368
#
# _framework density 18.828496000000001
#
# number of rings (size 3 to 8) (size 9 to 14) (size 15 to 20)
#    0.000    0.667    6.667    2.000    0.000    3.333 
#    0.000    6.667    0.000    0.000    0.000    0.000 
#    0.000    0.000    0.000    0.000    0.000    0.000 
#
# Total GULP energy -134130.806298 kJ/mol
# GULP energy per Si atom -5588.783596 kJ/mol
# Density = 1.878564 g / cm^3
# Si number density = 18.828496 Si / 1000 Ang^3
#
#
#
# Elastic Constant Matrix: (Units=GPa)
#
#
# Indices 1 2 3 4 5 6 
#
# 1 79.5877 -15.4173 35.2194 0.0000 0.0000 0.0000
# 2 -15.4173 29.1390 1.1870 0.0000 0.0000 0.0000
# 3 35.2194 1.1870 135.1429 0.0000 0.0000 0.0000
# 4 0.0000 0.0000 0.0000 26.0220 0.0000 0.0000
# 5 0.0000 0.0000 0.0000 0.0000 -2.8296 0.0000
# 6 0.0000 0.0000 0.0000 0.0000 0.0000 18.3617
#
#
#
# Elastic Compliance Matrix: (Units=1/GPa)
#
#
# Indices 1 2 3 4 5 6 
#
# 1 0.016150 0.008720 -0.004285 0.000000 0.000000 0.000000
# 2 0.008720 0.039038 -0.002615 0.000000 0.000000 0.000000
# 3 -0.004285 -0.002615 0.008539 0.000000 0.000000 0.000000
# 4 0.000000 0.000000 0.000000 0.038429 0.000000 0.000000
# 5 0.000000 0.000000 0.000000 0.000000 -0.353411 0.000000
# 6 0.000000 0.000000 0.000000 0.000000 0.000000 0.054461
#
#
# Mechanical properties :
#
#
# Convention : Reuss Voigt Hill
#
# Bulk Modulus (GPa) = 14.84432 31.76083 23.30258
# Shear Modulus (GPa) = -28.09379 23.16952 -2.46214
#
# Velocity S-wave (km/s) = -3.86695 3.51173 -1.14477
# Velocity P-wave (km/s) = 3.46938 5.77479 3.26432
#
# Compressibility (1/GPa) = 0.06736581
#
# Stress axis : x y z
#
# Youngs Moduli (GPa) = 61.91828 25.61582 117.10450
#
# Poissons Ratio (x) = -0.22336 0.50185
# Poissons Ratio (y) = -0.53991 0.30626
# Poissons Ratio (z) = 0.26535 0.06699
#
# Static dielectric constant tensor:
#      x y z
#    x 1.644110 0.000000 0.000000 
#    y 0.000000 1.629700 0.000000 
#    z 0.000000 0.000000 1.641490 
# 
# From -- ./inp_files/13323.got.cif
#   From: 2010.05.17/outbox.cif.g08.bks.cpg/sg23_7_cif.got.tgz:13323.got - 2010.06.04 12:02:01.
