data_PCOD9332089
_publ_section_title
;
Structure prediction by ZEFSAII (Michael W. Deem and Ramdas Pophale) SiO2 
 PCOD9332089
Probable space group: I 2 2 2
;
_chemical_formula_sum "Si O2"
_cell_formula_units_Z 40
_cell_length_a 9.472345
_cell_length_b 7.050451
_cell_length_c 23.986383
_cell_angle_alpha 90.000000
_cell_angle_beta 90.000000
_cell_angle_gamma 90.000000
_cell_volume 1601.913901
_symmetry_space_group_name_H-M "I 2 2 2"
_symmetry_group_IT_number 23
_symmetry_cell_setting 'orthorhombic'
loop_
_space_group_symop_operation_xyz
x,y,z
-x,-y,z
x,-y,-z
-x,y,-z
1/2+x,1/2+y,1/2+z
1/2-x,1/2-y,1/2+z
1/2+x,1/2-y,1/2-z
1/2-x,1/2+y,1/2-z
loop_
_atom_site_type_symbol
_atom_site_label
_atom_site_fract_x
_atom_site_fract_y
_atom_site_fract_z
Si Si1 0.345677 0.902401 0.124678
Si Si2 0.904315 0.666795 0.191113
Si Si3 0.338108 0.771726 0.008928
Si Si4 0.389760 0.667676 0.421296
Si Si5 0.138615 0.086833 0.292142
O O1 0.323642 0.787112 0.180363
O O2 0.500000 0.000000 0.121184
O O3 0.233478 0.064546 0.113676
O O4 0.317760 0.752017 0.074688
O O5 0.956114 0.707031 0.127973
O O6 0.897312 0.852972 0.229124
O O7 0.752982 0.569755 0.195067
O O8 0.000000 0.500000 0.216816
O O9 0.200855 0.725506 0.970313
O O10 0.500000 0.704103 0.000000
O O11 0.344121 0.000000 0.000000
O O12 0.500000 0.500000 0.438971
O O13 0.000000 0.000000 0.319597
#
# Coordination Sequence:
#
# PCOD9332089 Si02
#       5
#     8   8   8   8   8
#     4  11  20  39  66  96 132 169 223 275 313 386
#     4  12  25  45  64  96 139 173 219 281 328 394
#     4   9  17  35  63  93 128 166 217 268 311 384
#     4  11  22  39  68  97 130 179 217 266 333 389
#     4  12  25  41  68  98 128 179 224 266 334 390
#
# _framework density 24.970130999999999
#
# number of rings (size 3 to 8) (size 9 to 14) (size 15 to 20)
#    0.000    1.000    4.000    6.000    0.000    3.600 
#    0.000    1.000    0.000    1.200    0.000    0.000 
#    0.000    0.000    0.000    0.000    0.000    0.000 
#
# Total GULP energy -111634.284934 kJ/mol
# GULP energy per Si atom -5581.714247 kJ/mol
# Density = 2.491330 g / cm^3
# Si number density = 24.970131 Si / 1000 Ang^3
#
#
#
# Elastic Constant Matrix: (Units=GPa)
#
#
# Indices 1 2 3 4 5 6 
#
# 1 102.1390 22.2419 -0.6319 0.0000 0.0000 0.0000
# 2 22.2419 71.9498 19.0691 0.0000 0.0000 0.0000
# 3 -0.6319 19.0691 136.2602 0.0000 0.0000 0.0000
# 4 0.0000 0.0000 0.0000 16.8787 0.0000 0.0000
# 5 0.0000 0.0000 0.0000 0.0000 25.4959 0.0000
# 6 0.0000 0.0000 0.0000 0.0000 0.0000 26.4228
#
#
#
# Elastic Compliance Matrix: (Units=1/GPa)
#
#
# Indices 1 2 3 4 5 6 
#
# 1 0.010533 -0.003395 0.000524 0.000000 0.000000 0.000000
# 2 -0.003395 0.015528 -0.002189 0.000000 0.000000 0.000000
# 3 0.000524 -0.002189 0.007648 0.000000 0.000000 0.000000
# 4 0.000000 0.000000 0.000000 0.059246 0.000000 0.000000
# 5 0.000000 0.000000 0.000000 0.000000 0.039222 0.000000
# 6 0.000000 0.000000 0.000000 0.000000 0.000000 0.037846
#
#
# Mechanical properties :
#
#
# Convention : Reuss Voigt Hill
#
# Bulk Modulus (GPa) = 42.39225 43.52301 42.95763
# Shear Modulus (GPa) = 26.59488 31.73748 29.16618
#
# Velocity S-wave (km/s) = 3.26708 3.56900 3.42137
# Velocity P-wave (km/s) = 5.58979 5.86955 5.73138
#
# Compressibility (1/GPa) = 0.02358922
#
# Stress axis : x y z
#
# Youngs Moduli (GPa) = 94.93867 64.39903 130.75910
#
# Poissons Ratio (x) = 0.21863 -0.06851
# Poissons Ratio (y) = 0.32231 0.28621
# Poissons Ratio (z) = -0.04974 0.14096
#
# Static dielectric constant tensor:
#      x y z
#    x 2.038090 0.000000 0.000000 
#    y 0.000000 1.988500 0.000000 
#    z 0.000000 0.000000 2.099800 
# 
# From -- ./inp_files/29165.got.cif
#   From: 2010.05.17/outbox.cif.g08.bks.cpg/sg23_15_cif.got.tgz:29165.got - 2010.06.04 12:02:01.
