data_PCOD9332642
_publ_section_title
;
Structure prediction by ZEFSAII (Michael W. Deem and Ramdas Pophale) SiO2 
 PCOD9332642
Probable space group: I 2 2 2
;
_chemical_formula_sum "Si O2"
_cell_formula_units_Z 26
_cell_length_a 18.000000
_cell_length_b 18.000000
_cell_length_c 9.000000
_cell_angle_alpha 90.000000
_cell_angle_beta 90.000000
_cell_angle_gamma 90.000000
_cell_volume 2916.000000
_symmetry_space_group_name_H-M "I 2 2 2"
_symmetry_group_IT_number 23
_symmetry_cell_setting 'orthorhombic'
loop_
_space_group_symop_operation_xyz
x,y,z
-x,-y,z
x,-y,-z
-x,y,-z
1/2+x,1/2+y,1/2+z
1/2-x,1/2-y,1/2+z
1/2+x,1/2-y,1/2-z
1/2-x,1/2+y,1/2-z
loop_
_atom_site_type_symbol
_atom_site_label
_atom_site_fract_x
_atom_site_fract_y
_atom_site_fract_z
Si Si1 0.810033 0.168318 0.477232
Si Si2 0.189275 0.707141 0.730973
Si Si3 0.536049 0.372267 0.855964
Si Si4 0.290615 0.956366 0.155769
Si Si5 0.617641 0.429476 0.587826
Si Si6 0.753200 0.500000 0.000000
Si Si7 0.062760 0.792192 0.889348
O O1 0.797778 0.225908 0.613188
O O2 0.758899 0.193916 0.339953
O O3 0.894989 0.174557 0.422129
O O4 0.790122 0.080501 0.511729
O O5 0.173508 0.626059 0.660327
O O6 0.121726 0.733218 0.834268
O O7 0.573636 0.426512 0.740201
O O8 0.477639 0.326638 0.755686
O O9 0.500000 0.407584 0.000000
O O10 0.203459 0.940679 0.126332
O O11 0.292555 0.990399 0.329937
O O12 0.314026 0.000000 0.000000
O O13 0.590452 0.500000 0.500000
O O14 0.602213 0.357276 0.486484
O O15 0.000000 0.761421 0.000000
#
# Coordination Sequence:
#
# PCOD9332642 Si02
#       7
#     8   8   8   8   8   4   8
#     4  11  24  38  61  90 120 160 206 260 304 380
#     4  11  22  39  62  89 117 165 215 245 321 365
#     4  11  21  39  51  85 121 155 207 250 300 360
#     4  10  22  39  64  90 126 160 208 271 313 362
#     4  10  21  39  54  80 121 173 204 243 308 369
#     4  10  22  40  55  90 131 160 206 256 314 360
#     4  10  23  37  57  84 126 160 204 253 298 379
#
# _framework density 8.9163239999999995
#
# number of rings (size 3 to 8) (size 9 to 14) (size 15 to 20)
#    0.000    1.538    4.615    0.923    8.615    2.769 
#    2.769    0.000    0.000    0.000    0.000   28.000 
#    0.000    0.000    0.000    0.000    0.000    0.000 
#
# Total GULP energy -144754.724800 kJ/mol
# GULP energy per Si atom -5567.489415 kJ/mol
# Density = 0.889603 g / cm^3
# Si number density = 8.916324 Si / 1000 Ang^3
#
#
#
# Elastic Constant Matrix: (Units=GPa)
#
#
# Indices 1 2 3 4 5 6 
#
# 1 20.7513 13.3368 23.3235 0.0000 0.0000 0.0000
# 2 13.3368 100.6447 60.4659 0.0000 0.0000 0.0000
# 3 23.3235 60.4659 147.8416 0.0000 0.0000 0.0000
# 4 0.0000 0.0000 0.0000 42.8081 0.0000 0.0000
# 5 0.0000 0.0000 0.0000 0.0000 17.5039 0.0000
# 6 0.0000 0.0000 0.0000 0.0000 0.0000 8.8849
#
#
#
# Elastic Compliance Matrix: (Units=1/GPa)
#
#
# Indices 1 2 3 4 5 6 
#
# 1 0.059235 -0.002963 -0.008133 0.000000 0.000000 0.000000
# 2 -0.002963 0.013321 -0.004981 0.000000 0.000000 0.000000
# 3 -0.008133 -0.004981 0.010084 0.000000 0.000000 0.000000
# 4 0.000000 0.000000 0.000000 0.023360 0.000000 0.000000
# 5 0.000000 0.000000 0.000000 0.000000 0.057130 0.000000
# 6 0.000000 0.000000 0.000000 0.000000 0.000000 0.112550
#
#
# Mechanical properties :
#
#
# Convention : Reuss Voigt Hill
#
# Bulk Modulus (GPa) = 19.80727 51.49889 35.65308
# Shear Modulus (GPa) = 15.40057 25.31348 20.35702
#
# Velocity S-wave (km/s) = 2.94192 3.77172 3.38236
# Velocity P-wave (km/s) = 4.76144 6.92167 5.94057
#
# Compressibility (1/GPa) = 0.05048652
#
# Stress axis : x y z
#
# Youngs Moduli (GPa) = 16.88179 75.06987 99.16589
#
# Poissons Ratio (x) = 0.22245 0.80652
# Poissons Ratio (y) = 0.05003 0.49391
# Poissons Ratio (z) = 0.13730 0.37390
#
# Static dielectric constant tensor:
#      x y z
#    x 1.639700 0.000000 0.000000 
#    y 0.000000 1.620700 0.000000 
#    z 0.000000 0.000000 1.684420 
# 
# From -- ./inp_files/11213.got.cif
#   From: 2010.05.17/outbox.ucp.g08.bks.cvg/sg23_6_cif.got.tgz:11213.got - 2010.06.11 15:19:07.
