data_PCOD9332502
_publ_section_title
;
Structure prediction by ZEFSAII (Michael W. Deem and Ramdas Pophale) SiO2 
 PCOD9332502
Probable space group: I 2 2 2
;
_chemical_formula_sum "Si O2"
_cell_formula_units_Z 40
_cell_length_a 8.488362
_cell_length_b 8.518175
_cell_length_c 23.691130
_cell_angle_alpha 90.000000
_cell_angle_beta 90.000000
_cell_angle_gamma 90.000000
_cell_volume 1712.995517
_symmetry_space_group_name_H-M "I 2 2 2"
_symmetry_group_IT_number 23
_symmetry_cell_setting 'orthorhombic'
loop_
_space_group_symop_operation_xyz
x,y,z
-x,-y,z
x,-y,-z
-x,y,-z
1/2+x,1/2+y,1/2+z
1/2-x,1/2-y,1/2+z
1/2+x,1/2-y,1/2-z
1/2-x,1/2+y,1/2-z
loop_
_atom_site_type_symbol
_atom_site_label
_atom_site_fract_x
_atom_site_fract_y
_atom_site_fract_z
Si Si1 0.052092 0.820521 0.692931
Si Si2 0.630209 0.394830 0.599709
Si Si3 0.070330 0.669302 0.192826
Si Si4 0.691673 0.181768 0.500815
Si Si5 0.119078 0.370735 0.594816
O O1 0.240690 0.826464 0.692111
O O2 0.995979 0.723171 0.747315
O O3 0.970775 0.740744 0.638603
O O4 0.000000 0.000000 0.697904
O O5 0.500000 0.500000 0.567771
O O6 0.532802 0.296104 0.644961
O O7 0.719907 0.275690 0.558618
O O8 0.755965 0.514304 0.626060
O O9 0.000000 0.500000 0.177987
O O10 0.500000 0.181313 0.500000
O O11 0.783446 0.272341 0.451309
O O12 0.741908 0.000000 0.500000
O O13 0.000000 0.500000 0.569104
#
# Coordination Sequence:
#
# PCOD9332502 Si02
#       5
#     8   8   8   8   8
#     4  12  29  50  79 118 156 206 262 326 395 467
#     4  12  27  47  78 114 154 212 263 324 392 467
#     4  12  29  50  82 116 159 206 259 323 396 470
#     4  11  27  48  78 114 156 209 266 323 392 466
#     4  12  27  52  78 112 162 203 267 328 392 464
#
# _framework density 23.350905999999998
#
# number of rings (size 3 to 8) (size 9 to 14) (size 15 to 20)
#    0.000    0.200    4.000    3.000   14.000    1.600 
#    0.000    1.000    0.000    0.000    0.000    0.000 
#    0.000    0.000    0.000    0.000    0.000    0.000 
#
# Total GULP energy -111952.572190 kJ/mol
# GULP energy per Si atom -5597.628610 kJ/mol
# Density = 2.329776 g / cm^3
# Si number density = 23.350906 Si / 1000 Ang^3
#
#
#
# Elastic Constant Matrix: (Units=GPa)
#
#
# Indices 1 2 3 4 5 6 
#
# 1 130.4677 77.2832 47.9153 0.0000 0.0000 0.0000
# 2 77.2832 149.1538 31.1007 0.0000 0.0000 0.0000
# 3 47.9153 31.1007 99.5618 0.0000 0.0000 0.0000
# 4 0.0000 0.0000 0.0000 41.7457 0.0000 0.0000
# 5 0.0000 0.0000 0.0000 0.0000 19.7798 0.0000
# 6 0.0000 0.0000 0.0000 0.0000 0.0000 46.1477
#
#
#
# Elastic Compliance Matrix: (Units=1/GPa)
#
#
# Indices 1 2 3 4 5 6 
#
# 1 0.012569 -0.005617 -0.004294 0.000000 0.000000 0.000000
# 2 -0.005617 0.009682 -0.000321 0.000000 0.000000 0.000000
# 3 -0.004294 -0.000321 0.012211 0.000000 0.000000 0.000000
# 4 0.000000 0.000000 0.000000 0.023955 0.000000 0.000000
# 5 0.000000 0.000000 0.000000 0.000000 0.050557 0.000000
# 6 0.000000 0.000000 0.000000 0.000000 0.000000 0.021670
#
#
# Mechanical properties :
#
#
# Convention : Reuss Voigt Hill
#
# Bulk Modulus (GPa) = 71.44459 76.86463 74.15461
# Shear Modulus (GPa) = 32.09775 36.39359 34.24567
#
# Velocity S-wave (km/s) = 3.71156 3.95213 3.83373
# Velocity P-wave (km/s) = 7.00215 7.33583 7.17093
#
# Compressibility (1/GPa) = 0.01399686
#
# Stress axis : x y z
#
# Youngs Moduli (GPa) = 79.55893 103.28466 81.89308
#
# Poissons Ratio (x) = 0.58018 0.35168
# Poissons Ratio (y) = 0.44690 0.02629
# Poissons Ratio (z) = 0.34166 0.03316
#
# Static dielectric constant tensor:
#      x y z
#    x 1.987710 0.000000 0.000000 
#    y 0.000000 1.857400 0.000000 
#    z 0.000000 0.000000 1.852940 
# 
# From -- ./inp_files/27865.got.cif
#   From: 2010.05.17/outbox.cif.g08.bks.cpg/sg23_14_cif.got.tgz:27865.got - 2010.06.04 12:02:01.
