data_PCOD9332247
_publ_section_title
;
Structure prediction by ZEFSAII (Michael W. Deem and Ramdas Pophale) SiO2 
 PCOD9332247
Probable space group: I 2 2 2
;
_chemical_formula_sum "Si O2"
_cell_formula_units_Z 44
_cell_length_a 8.291022
_cell_length_b 9.011465
_cell_length_c 28.359923
_cell_angle_alpha 90.000000
_cell_angle_beta 90.000000
_cell_angle_gamma 90.000000
_cell_volume 2118.890507
_symmetry_space_group_name_H-M "I 2 2 2"
_symmetry_group_IT_number 23
_symmetry_cell_setting 'orthorhombic'
loop_
_space_group_symop_operation_xyz
x,y,z
-x,-y,z
x,-y,-z
-x,y,-z
1/2+x,1/2+y,1/2+z
1/2-x,1/2-y,1/2+z
1/2+x,1/2-y,1/2-z
1/2-x,1/2+y,1/2-z
loop_
_atom_site_type_symbol
_atom_site_label
_atom_site_fract_x
_atom_site_fract_y
_atom_site_fract_z
Si Si1 0.456435 0.823645 0.553664
Si Si2 0.500000 0.000000 0.869208
Si Si3 0.779218 0.216799 0.882657
Si Si4 0.463114 0.326626 0.711743
Si Si5 0.321549 0.749995 0.187641
Si Si6 0.662286 0.451351 0.099571
O O1 0.500000 0.787707 0.500000
O O2 0.558466 0.710351 0.585836
O O3 0.271388 0.835505 0.570424
O O4 0.500000 0.000000 0.559073
O O5 0.371805 0.889920 0.895095
O O6 0.613243 0.898212 0.836687
O O7 0.829458 0.192419 0.828632
O O8 0.737557 0.389020 0.889351
O O9 0.500000 0.500000 0.717069
O O10 0.402810 0.267324 0.761651
O O11 0.628934 0.250276 0.694813
O O12 0.368447 0.623956 0.150134
O O13 0.500000 0.500000 0.073477
#
# Coordination Sequence:
#
# PCOD9332247 Si02
#       6
#     8   4   8   8   8   8
#     4   9  20  42  69 101 133 168 220 279 346 409
#     4  12  24  42  64  93 132 176 221 276 326 398
#     4  11  23  41  66  98 129 174 222 274 337 399
#     4  12  26  41  61  92 132 179 220 274 333 399
#     4  12  26  41  63  92 134 174 227 268 330 398
#     4  11  22  41  70 101 130 171 221 281 336 405
#
# _framework density 20.765584
#
# number of rings (size 3 to 8) (size 9 to 14) (size 15 to 20)
#    0.000    0.909    5.455    1.636    2.545    0.000 
#    0.000    7.273    0.000    6.000    0.000    0.000 
#    0.000    0.000    0.000    0.000    0.000    0.000 
#
# Total GULP energy -122722.695353 kJ/mol
# GULP energy per Si atom -5578.304334 kJ/mol
# Density = 2.071832 g / cm^3
# Si number density = 20.765584 Si / 1000 Ang^3
#
#
#
# Elastic Constant Matrix: (Units=GPa)
#
#
# Indices 1 2 3 4 5 6 
#
# 1 120.4290 19.4826 45.4243 0.0000 0.0000 0.0000
# 2 19.4826 72.0028 24.9301 0.0000 0.0000 0.0000
# 3 45.4243 24.9301 84.9168 0.0000 0.0000 0.0000
# 4 0.0000 0.0000 0.0000 16.4540 0.0000 0.0000
# 5 0.0000 0.0000 0.0000 0.0000 4.4723 0.0000
# 6 0.0000 0.0000 0.0000 0.0000 0.0000 30.7299
#
#
#
# Elastic Compliance Matrix: (Units=1/GPa)
#
#
# Indices 1 2 3 4 5 6 
#
# 1 0.010466 -0.000995 -0.005307 0.000000 0.000000 0.000000
# 2 -0.000995 0.015554 -0.004034 0.000000 0.000000 0.000000
# 3 -0.005307 -0.004034 0.015799 0.000000 0.000000 0.000000
# 4 0.000000 0.000000 0.000000 0.060775 0.000000 0.000000
# 5 0.000000 0.000000 0.000000 0.000000 0.223600 0.000000
# 6 0.000000 0.000000 0.000000 0.000000 0.000000 0.032542
#
#
# Mechanical properties :
#
#
# Convention : Reuss Voigt Hill
#
# Bulk Modulus (GPa) = 47.28474 50.78031 49.03253
# Shear Modulus (GPa) = 12.93804 22.83201 17.88503
#
# Velocity S-wave (km/s) = 2.49881 3.31949 2.93794
# Velocity P-wave (km/s) = 5.58082 6.26092 5.93063
#
# Compressibility (1/GPa) = 0.02114847
#
# Stress axis : x y z
#
# Youngs Moduli (GPa) = 95.54617 64.29073 63.29374
#
# Poissons Ratio (x) = 0.06394 0.33588
# Poissons Ratio (y) = 0.09503 0.25536
# Poissons Ratio (z) = 0.50703 0.25938
#
# Static dielectric constant tensor:
#      x y z
#    x 1.904240 0.000000 0.000000 
#    y 0.000000 1.730830 0.000000 
#    z 0.000000 0.000000 1.698180 
# 
# From -- ./inp_files/30158.got.cif
#   From: 2010.05.17/outbox.cif.g08.bks.cpg/sg23_16_cif.got.tgz:30158.got - 2010.06.04 12:02:01.
