data_PCOD9332478
_publ_section_title
;
Structure prediction by ZEFSAII (Michael W. Deem and Ramdas Pophale) SiO2 
 PCOD9332478
Probable space group: I 2 2 2
;
_chemical_formula_sum "Si O2"
_cell_formula_units_Z 44
_cell_length_a 19.468557
_cell_length_b 14.320697
_cell_length_c 7.281165
_cell_angle_alpha 90.000000
_cell_angle_beta 90.000000
_cell_angle_gamma 90.000000
_cell_volume 2030.012872
_symmetry_space_group_name_H-M "I 2 2 2"
_symmetry_group_IT_number 23
_symmetry_cell_setting 'orthorhombic'
loop_
_space_group_symop_operation_xyz
x,y,z
-x,-y,z
x,-y,-z
-x,y,-z
1/2+x,1/2+y,1/2+z
1/2-x,1/2-y,1/2+z
1/2+x,1/2-y,1/2-z
1/2-x,1/2+y,1/2-z
loop_
_atom_site_type_symbol
_atom_site_label
_atom_site_fract_x
_atom_site_fract_y
_atom_site_fract_z
Si Si1 0.518585 0.894010 0.713414
Si Si2 0.291523 0.675771 0.710505
Si Si3 0.000000 0.247521 0.500000
Si Si4 0.168361 0.449963 0.193373
Si Si5 0.243675 0.121551 0.200343
Si Si6 0.383565 0.604672 0.019152
O O1 0.500000 0.879466 0.500000
O O2 0.480597 0.817828 0.835986
O O3 0.600155 0.895714 0.753182
O O4 0.500000 0.000000 0.761476
O O5 0.227252 0.627346 0.813574
O O6 0.282965 0.786123 0.731601
O O7 0.286128 0.643249 0.500855
O O8 0.356420 0.638215 0.820696
O O9 0.059978 0.180452 0.427049
O O10 0.203036 0.535508 0.304053
O O11 0.151775 0.500000 0.000000
O O12 0.180759 0.101672 0.339746
O O13 0.410930 0.500000 0.000000
#
# Coordination Sequence:
#
# PCOD9332478 Si02
#       6
#     8   8   4   8   8   8
#     4  11  26  47  70 105 146 186 233 291 356 434
#     4  12  24  41  69 104 138 180 229 291 359 424
#     4  12  30  46  74  98 138 204 244 284 356 446
#     4  12  22  44  71 103 144 177 224 296 354 419
#     4  12  24  41  70 106 138 178 229 292 361 422
#     4  12  26  49  68 103 142 186 246 298 355 418
#
# _framework density 21.67474
#
# number of rings (size 3 to 8) (size 9 to 14) (size 15 to 20)
#    0.000    0.182    7.273    2.182    2.545    4.364 
#    0.000    0.000    0.000    3.273    0.000    0.000 
#    0.000    0.000    0.000    0.000    0.000    0.000 
#
# Total GULP energy -123045.873254 kJ/mol
# GULP energy per Si atom -5592.994239 kJ/mol
# Density = 2.162541 g / cm^3
# Si number density = 21.674740 Si / 1000 Ang^3
#
#
#
# Elastic Constant Matrix: (Units=GPa)
#
#
# Indices 1 2 3 4 5 6 
#
# 1 46.8980 16.7434 -3.4714 0.0000 0.0000 0.0000
# 2 16.7434 136.5803 13.4023 0.0000 0.0000 0.0000
# 3 -3.4714 13.4023 97.3603 0.0000 0.0000 0.0000
# 4 0.0000 0.0000 0.0000 22.0065 0.0000 0.0000
# 5 0.0000 0.0000 0.0000 0.0000 4.5138 0.0000
# 6 0.0000 0.0000 0.0000 0.0000 0.0000 34.8685
#
#
#
# Elastic Compliance Matrix: (Units=1/GPa)
#
#
# Indices 1 2 3 4 5 6 
#
# 1 0.022435 -0.002868 0.001195 0.000000 0.000000 0.000000
# 2 -0.002868 0.007788 -0.001174 0.000000 0.000000 0.000000
# 3 0.001195 -0.001174 0.010475 0.000000 0.000000 0.000000
# 4 0.000000 0.000000 0.000000 0.045441 0.000000 0.000000
# 5 0.000000 0.000000 0.000000 0.000000 0.221543 0.000000
# 6 0.000000 0.000000 0.000000 0.000000 0.000000 0.028679
#
#
# Mechanical properties :
#
#
# Convention : Reuss Voigt Hill
#
# Bulk Modulus (GPa) = 28.56786 37.13192 32.84989
# Shear Modulus (GPa) = 14.13527 29.22205 21.67866
#
# Velocity S-wave (km/s) = 2.55650 3.67578 3.16599
# Velocity P-wave (km/s) = 4.68221 5.93159 5.34354
#
# Compressibility (1/GPa) = 0.03500437
#
# Stress axis : x y z
#
# Youngs Moduli (GPa) = 44.57313 128.39487 95.46192
#
# Poissons Ratio (x) = 0.36818 -0.11404
# Poissons Ratio (y) = 0.12782 0.11211
# Poissons Ratio (z) = -0.05325 0.15078
#
# Static dielectric constant tensor:
#      x y z
#    x 1.841060 0.000000 0.000000 
#    y 0.000000 1.795870 0.000000 
#    z 0.000000 0.000000 1.828010 
# 
# From -- ./inp_files/10966.got.cif
#   From: 2010.05.17/outbox.cif.g08.bks.cpg/sg23_6_cif.got.tgz:10966.got - 2010.06.04 12:02:01.
