data_PCOD9332652
_publ_section_title
;
Structure prediction by ZEFSAII (Michael W. Deem and Ramdas Pophale) SiO2 
 PCOD9332652
Probable space group: I 2 2 2
;
_chemical_formula_sum "Si O2"
_cell_formula_units_Z 29
_cell_length_a 9.000000
_cell_length_b 27.000000
_cell_length_c 12.000000
_cell_angle_alpha 90.000000
_cell_angle_beta 90.000000
_cell_angle_gamma 90.000000
_cell_volume 2916.000000
_symmetry_space_group_name_H-M "I 2 2 2"
_symmetry_group_IT_number 23
_symmetry_cell_setting 'orthorhombic'
loop_
_space_group_symop_operation_xyz
x,y,z
-x,-y,z
x,-y,-z
-x,y,-z
1/2+x,1/2+y,1/2+z
1/2-x,1/2-y,1/2+z
1/2+x,1/2-y,1/2-z
1/2-x,1/2+y,1/2-z
loop_
_atom_site_type_symbol
_atom_site_label
_atom_site_fract_x
_atom_site_fract_y
_atom_site_fract_z
Si Si1 0.716791 0.541168 0.811808
Si Si2 0.079239 0.339907 0.320230
Si Si3 0.733358 0.177653 0.940393
Si Si4 0.641933 0.214035 0.420041
Si Si5 0.036332 0.908757 0.876736
Si Si6 0.500000 0.500000 0.000000
Si Si7 0.678200 0.114131 0.510773
Si Si8 0.258247 0.071052 0.726131
O O1 0.647672 0.558994 0.696730
O O2 0.786665 0.487755 0.781993
O O3 0.598921 0.529832 0.911070
O O4 0.798709 0.586730 0.872186
O O5 0.187235 0.327818 0.427528
O O6 0.106237 0.307446 0.205578
O O7 0.113905 0.395964 0.281963
O O8 0.913147 0.335272 0.368166
O O9 0.772869 0.234431 0.914382
O O10 0.873048 0.142505 0.904465
O O11 0.500000 0.223715 0.500000
O O12 0.727341 0.170732 0.489086
O O13 0.888145 0.912291 0.797817
O O14 0.000000 0.928898 0.000000
O O15 0.500000 0.114972 0.500000
O O16 0.748631 0.086262 0.404253
#
# Coordination Sequence:
#
# PCOD9332652 Si02
#       8
#     8   8   8   8   8   2   8   8
#     4  12  23  40  71  97 144 183 236 296 355 419
#     4  10  25  46  67  99 144 178 239 295 348 438
#     4  11  25  46  71  97 140 193 228 293 358 421
#     4  10  24  41  73 103 137 173 236 292 371 420
#     4  12  25  42  67 100 135 190 243 280 346 418
#     4  12  20  44  56 104 136 184 232 300 352 412
#     4  10  23  43  68 106 139 177 228 297 367 432
#     4  11  22  43  65  98 140 183 226 293 342 424
#
# _framework density 9.9451300000000007
#
# number of rings (size 3 to 8) (size 9 to 14) (size 15 to 20)
#    0.000    1.103    4.138    0.414    7.724    3.310 
#    0.000    4.138    0.000    1.655    0.000    0.000 
#    0.000    0.000    0.000    0.000    0.000    0.000 
#
# Total GULP energy -161621.937279 kJ/mol
# GULP energy per Si atom -5573.170251 kJ/mol
# Density = 0.992249 g / cm^3
# Si number density = 9.945130 Si / 1000 Ang^3
#
#
#
# Elastic Constant Matrix: (Units=GPa)
#
#
# Indices 1 2 3 4 5 6 
#
# 1 52.4646 37.1714 39.7164 0.0001 -0.0002 -0.0001
# 2 37.1714 147.5228 69.6141 0.0000 -0.0002 0.0002
# 3 39.7164 69.6141 161.5259 0.0009 0.0019 -0.0030
# 4 0.0001 0.0000 0.0009 42.0947 0.0002 -0.0005
# 5 -0.0002 -0.0002 0.0019 0.0002 48.4841 -0.0003
# 6 -0.0001 0.0002 -0.0030 -0.0005 -0.0003 61.7405
#
#
#
# Elastic Compliance Matrix: (Units=1/GPa)
#
#
# Indices 1 2 3 4 5 6 
#
# 1 0.025460 -0.004345 -0.004388 0.000000 0.000000 0.000000
# 2 -0.004345 0.009251 -0.002918 0.000000 0.000000 0.000000
# 3 -0.004388 -0.002918 0.008528 0.000000 0.000000 0.000000
# 4 0.000000 0.000000 0.000000 0.023756 0.000000 0.000000
# 5 0.000000 0.000000 0.000000 0.000000 0.020625 0.000000
# 6 0.000000 0.000000 0.000000 0.000000 0.000000 0.016197
#
#
# Mechanical properties :
#
#
# Convention : Reuss Voigt Hill
#
# Bulk Modulus (GPa) = 50.15913 72.72411 61.44162
# Shear Modulus (GPa) = 37.37924 44.79794 41.08859
#
# Velocity S-wave (km/s) = 4.33976 4.75094 4.55000
# Velocity P-wave (km/s) = 7.09817 8.16929 7.65250
#
# Compressibility (1/GPa) = 0.01993655
#
# Stress axis : x y z
#
# Youngs Moduli (GPa) = 39.27682 108.10161 117.26568
#
# Poissons Ratio (x) = 0.46967 0.51453
# Poissons Ratio (y) = 0.17065 0.34224
# Poissons Ratio (z) = 0.17234 0.31549
#
# Static dielectric constant tensor:
#      x y z
#    x 1.781020 0.000000 0.000000 
#    y 0.000000 1.760700 0.000000 
#    z 0.000000 0.000000 1.677120 
# 
# From -- ./inp_files/14919.got.cif
#   From: 2010.05.17/outbox.ucp.g08.bks.cvg/sg23_8_cif.got.tgz:14919.got - 2010.06.11 15:19:07.
