data_PCOD9332669
_publ_section_title
;
Structure prediction by ZEFSAII (Michael W. Deem and Ramdas Pophale) SiO2 
 PCOD9332669
Probable space group: I 21 21 21
;
_chemical_formula_sum "Si O2"
_cell_formula_units_Z 52
_cell_length_a 24.947933
_cell_length_b 6.953565
_cell_length_c 13.160447
_cell_angle_alpha 90.000000
_cell_angle_beta 90.000000
_cell_angle_gamma 90.000000
_cell_volume 2283.035835
_symmetry_space_group_name_H-M "I 21 21 21"
_symmetry_group_IT_number 24
_symmetry_cell_setting 'orthorhombic'
loop_
_space_group_symop_operation_xyz
x,y,z
-x,1/2-y,z
x,-y,1/2-z
1/2-x,y,-z
1/2+x,1/2+y,1/2+z
1/2-x,-y,1/2+z
1/2+x,1/2-y,-z
-x,1/2+y,1/2-z
loop_
_atom_site_type_symbol
_atom_site_label
_atom_site_fract_x
_atom_site_fract_y
_atom_site_fract_z
Si Si1 0.250000 0.766208 0.000000
Si Si2 0.281944 0.424648 0.863058
Si Si3 0.106373 0.277954 0.059012
Si Si4 0.437417 0.302471 0.517431
Si Si5 0.346160 0.249554 0.365981
Si Si6 0.331077 0.716544 0.366921
Si Si7 0.936953 0.226243 0.262675
O O1 0.281957 0.618790 0.928286
O O2 0.203749 0.849563 0.926276
O O3 0.274783 0.500000 0.750000
O O4 0.338033 0.329179 0.884983
O O5 0.232840 0.280787 0.886862
O O6 0.071447 0.466218 0.027443
O O7 0.076166 0.179219 0.153861
O O8 0.129054 0.199349 0.951999
O O9 0.500000 0.250000 0.505598
O O10 0.401626 0.223738 0.425496
O O11 0.414332 0.226405 0.625868
O O12 0.338211 0.482880 0.370996
O O13 0.344253 0.211251 0.245865
O O14 0.000000 0.250000 0.275285
O O15 0.924361 0.000000 0.250000
#
# Coordination Sequence:
#
# PCOD9332669 Si02
#       7
#     4   8   8   8   8   8   8
#     4  10  14  20  32  52  80 106 142 168 214 278
#     4  11  14  20  33  56  82 111 139 167 217 288
#     4  10  17  25  39  57  80 116 144 171 224 272
#     4   9  16  26  38  54  77 109 151 177 210 258
#     4   9  15  23  33  52  77 111 144 174 212 263
#     4   9  15  23  34  53  82 110 137 174 218 277
#     4   9  18  30  44  62  83 114 147 187 226 259
#
# _framework density 22.776689999999999
#
# number of rings (size 3 to 8) (size 9 to 14) (size 15 to 20)
#    0.000    2.462    7.692    1.385    0.000    0.000 
#    0.000    0.769    0.000    0.000    0.000    0.000 
#    0.000    0.000   78.462    2.462   52.000   10.615 
#
# Total GULP energy -144852.272116 kJ/mol
# GULP energy per Si atom -5571.241235 kJ/mol
# Density = 2.272485 g / cm^3
# Si number density = 22.776690 Si / 1000 Ang^3
#
#
#
# Elastic Constant Matrix: (Units=GPa)
#
#
# Indices 1 2 3 4 5 6 
#
# 1 114.6261 5.7584 64.5491 0.0000 0.0000 0.0000
# 2 5.7584 72.7376 -6.6859 0.0000 0.0000 0.0000
# 3 64.5491 -6.6859 205.9846 0.0000 0.0000 0.0000
# 4 0.0000 0.0000 0.0000 -27.3115 0.0000 0.0000
# 5 0.0000 0.0000 0.0000 0.0000 41.5400 0.0000
# 6 0.0000 0.0000 0.0000 0.0000 0.0000 6.3379
#
#
#
# Elastic Compliance Matrix: (Units=1/GPa)
#
#
# Indices 1 2 3 4 5 6 
#
# 1 0.010690 -0.001158 -0.003387 0.000000 0.000000 0.000000
# 2 -0.001158 0.013915 0.000814 0.000000 0.000000 0.000000
# 3 -0.003387 0.000814 0.005943 0.000000 0.000000 0.000000
# 4 0.000000 0.000000 0.000000 -0.036615 0.000000 0.000000
# 5 0.000000 0.000000 0.000000 0.000000 0.024073 0.000000
# 6 0.000000 0.000000 0.000000 0.000000 0.000000 0.157780
#
#
# Mechanical properties :
#
#
# Convention : Reuss Voigt Hill
#
# Bulk Modulus (GPa) = 43.31687 57.84350 50.58018
# Shear Modulus (GPa) = 26.18592 26.09506 26.14049
#
# Velocity S-wave (km/s) = 3.39437 3.38848 3.39143
# Velocity P-wave (km/s) = 5.86700 6.38436 6.13114
#
# Compressibility (1/GPa) = 0.02308569
#
# Stress axis : x y z
#
# Youngs Moduli (GPa) = 93.54793 71.86719 168.27456
#
# Poissons Ratio (x) = 0.08320 0.57001
# Poissons Ratio (y) = 0.10829 -0.13704
# Poissons Ratio (z) = 0.31688 -0.05853
#
# Static dielectric constant tensor:
#      x y z
#    x 1.877630 0.000000 0.000000 
#    y 0.000000 2.045590 0.000000 
#    z 0.000000 0.000000 2.167790 
# 
# From -- ./inp_files/27907.got.cif
#   From: 2010.05.17/outbox.cif.g08.bks.cpg/sg24_14_cif.got.tgz:27907.got - 2010.06.04 00:33:39.
