data_PCOD9332496
_publ_section_title
;
Structure prediction by ZEFSAII (Michael W. Deem and Ramdas Pophale) SiO2 
 PCOD9332496
Probable space group: I 2 2 2
;
_chemical_formula_sum "Si O2"
_cell_formula_units_Z 40
_cell_length_a 26.926698
_cell_length_b 5.893720
_cell_length_c 9.441324
_cell_angle_alpha 90.000000
_cell_angle_beta 90.000000
_cell_angle_gamma 90.000000
_cell_volume 1498.323188
_symmetry_space_group_name_H-M "I 2 2 2"
_symmetry_group_IT_number 23
_symmetry_cell_setting 'orthorhombic'
loop_
_space_group_symop_operation_xyz
x,y,z
-x,-y,z
x,-y,-z
-x,y,-z
1/2+x,1/2+y,1/2+z
1/2-x,1/2-y,1/2+z
1/2+x,1/2-y,1/2-z
1/2-x,1/2+y,1/2-z
loop_
_atom_site_type_symbol
_atom_site_label
_atom_site_fract_x
_atom_site_fract_y
_atom_site_fract_z
Si Si1 0.181855 0.742031 0.816758
Si Si2 0.710024 0.862517 0.125484
Si Si3 0.558966 0.002455 0.169258
Si Si4 0.121949 0.900660 0.366161
Si Si5 0.086511 0.252424 0.056479
O O1 0.241657 0.745764 0.813627
O O2 0.177267 0.505593 0.734404
O O3 0.146902 0.738501 0.954351
O O4 0.157914 0.955872 0.736294
O O5 0.666371 0.727934 0.048825
O O6 0.735313 0.000000 0.000000
O O7 0.575804 0.208491 0.273063
O O8 0.500000 0.000000 0.180698
O O9 0.585127 0.767079 0.216800
O O10 0.571041 0.000000 0.000000
O O11 0.092023 0.000000 0.500000
O O12 0.066920 0.500000 0.000000
O O13 0.070292 0.000000 0.000000
#
# Coordination Sequence:
#
# PCOD9332496 Si02
#       5
#     8   8   8   8   8
#     4  12  25  42  69 106 154 210 263 325 403 511
#     4  12  24  40  66 106 147 201 272 330 402 488
#     4  11  26  53  86 119 158 210 287 363 432 515
#     4  12  23  43  75 106 152 207 267 349 420 493
#     4  12  28  52  82 118 168 218 266 343 429 514
#
# _framework density 26.696507
#
# number of rings (size 3 to 8) (size 9 to 14) (size 15 to 20)
#    0.000    0.200    6.000    3.600    0.000    2.800 
#    0.000   17.000    0.000    0.000    0.000    0.000 
#    0.000    0.000    0.000    0.000    0.000    0.000 
#
# Total GULP energy -111384.636632 kJ/mol
# GULP energy per Si atom -5569.231832 kJ/mol
# Density = 2.663574 g / cm^3
# Si number density = 26.696507 Si / 1000 Ang^3
#
#
#
# Elastic Constant Matrix: (Units=GPa)
#
#
# Indices 1 2 3 4 5 6 
#
# 1 129.7449 35.3512 1.7565 0.0000 0.0000 0.0000
# 2 35.3512 116.9576 44.4524 0.0000 0.0000 0.0000
# 3 1.7565 44.4524 94.0957 0.0000 0.0000 0.0000
# 4 0.0000 0.0000 0.0000 60.8789 0.0000 0.0000
# 5 0.0000 0.0000 0.0000 0.0000 29.1430 0.0000
# 6 0.0000 0.0000 0.0000 0.0000 0.0000 24.0883
#
#
#
# Elastic Compliance Matrix: (Units=1/GPa)
#
#
# Indices 1 2 3 4 5 6 
#
# 1 0.008526 -0.003067 0.001290 0.000000 0.000000 0.000000
# 2 -0.003067 0.011525 -0.005387 0.000000 0.000000 0.000000
# 3 0.001290 -0.005387 0.013148 0.000000 0.000000 0.000000
# 4 0.000000 0.000000 0.000000 0.016426 0.000000 0.000000
# 5 0.000000 0.000000 0.000000 0.000000 0.034314 0.000000
# 6 0.000000 0.000000 0.000000 0.000000 0.000000 0.041514
#
#
# Mechanical properties :
#
#
# Convention : Reuss Voigt Hill
#
# Bulk Modulus (GPa) = 52.99505 55.99095 54.49300
# Shear Modulus (GPa) = 34.22985 40.10457 37.16721
#
# Velocity S-wave (km/s) = 3.58465 3.88008 3.73528
# Velocity P-wave (km/s) = 6.08498 6.41031 6.24976
#
# Compressibility (1/GPa) = 0.01886969
#
# Stress axis : x y z
#
# Youngs Moduli (GPa) = 117.29280 86.77002 76.05476
#
# Poissons Ratio (x) = 0.26614 -0.09810
# Poissons Ratio (y) = 0.35976 0.40972
# Poissons Ratio (z) = -0.15129 0.46745
#
# Static dielectric constant tensor:
#      x y z
#    x 1.973980 0.000000 0.000000 
#    y 0.000000 2.624250 0.000000 
#    z 0.000000 0.000000 2.243000 
# 
# From -- ./inp_files/18487.got.cif
#   From: 2010.05.17/outbox.cif.g08.bks.cpg/sg23_10_cif.got.tgz:18487.got - 2010.06.04 12:02:01.
