data_PCOD9332147
_publ_section_title
;
Structure prediction by ZEFSAII (Michael W. Deem and Ramdas Pophale) SiO2 
 PCOD9332147
Probable space group: I 2 2 2
;
_chemical_formula_sum "Si O2"
_cell_formula_units_Z 64
_cell_length_a 17.667568
_cell_length_b 11.417430
_cell_length_c 14.727968
_cell_angle_alpha 90.000000
_cell_angle_beta 90.000000
_cell_angle_gamma 90.000000
_cell_volume 2970.899503
_symmetry_space_group_name_H-M "I 2 2 2"
_symmetry_group_IT_number 23
_symmetry_cell_setting 'orthorhombic'
loop_
_space_group_symop_operation_xyz
x,y,z
-x,-y,z
x,-y,-z
-x,y,-z
1/2+x,1/2+y,1/2+z
1/2-x,1/2-y,1/2+z
1/2+x,1/2-y,1/2-z
1/2-x,1/2+y,1/2-z
loop_
_atom_site_type_symbol
_atom_site_label
_atom_site_fract_x
_atom_site_fract_y
_atom_site_fract_z
Si Si1 0.710583 0.609278 0.231939
Si Si2 0.577429 0.426271 0.216193
Si Si3 0.064679 0.727617 0.831954
Si Si4 0.718269 0.365008 0.970190
Si Si5 0.366995 0.951629 0.190786
Si Si6 0.596780 0.810485 0.277121
Si Si7 0.878833 0.362684 0.019089
Si Si8 0.579070 0.761808 0.947688
O O1 0.646164 0.516390 0.206362
O O2 0.744923 0.638968 0.133817
O O3 0.776574 0.561759 0.296651
O O4 0.665914 0.721584 0.268607
O O5 0.500000 0.500000 0.224736
O O6 0.602154 0.349765 0.304019
O O7 0.574400 0.339278 0.129800
O O8 0.098698 0.618887 0.776816
O O9 0.074717 0.700598 0.938460
O O10 0.984953 0.749354 0.778238
O O11 0.791921 0.319946 0.023210
O O12 0.703387 0.500000 0.000000
O O13 0.645260 0.285586 0.986553
O O14 0.396517 0.881750 0.102955
O O15 0.393604 0.084909 0.205204
O O16 0.591514 0.856582 0.379659
O O17 0.876276 0.500000 0.000000
O O18 0.500000 0.772780 0.000000
#
# Coordination Sequence:
#
# PCOD9332147 Si02
#       8
#     8   8   8   8   8   8   8   8
#     4  12  24  42  72 104 139 186 235 293 363 426
#     4  11  23  43  69 103 137 183 234 289 360 427
#     4  11  23  42  67  99 133 173 228 290 349 413
#     4  11  21  39  65 100 135 175 235 294 345 412
#     4  11  25  43  67 102 141 186 236 289 354 433
#     4  12  25  42  72  98 136 184 226 288 362 431
#     4  11  22  41  65 100 132 171 230 291 344 412
#     4  11  25  41  71 102 143 188 236 300 355 425
#
# _framework density 21.542297000000001
#
# number of rings (size 3 to 8) (size 9 to 14) (size 15 to 20)
#    0.000    0.750    5.000    3.000    5.250    0.500 
#    0.000    1.250    2.750    3.000    0.000    0.000 
#    0.000    0.000    0.000    0.000    0.000    0.000 
#
# Total GULP energy -178660.158731 kJ/mol
# GULP energy per Si atom -5583.129960 kJ/mol
# Density = 2.149327 g / cm^3
# Si number density = 21.542297 Si / 1000 Ang^3
#
#
#
# Elastic Constant Matrix: (Units=GPa)
#
#
# Indices 1 2 3 4 5 6 
#
# 1 67.5973 11.0362 14.0595 0.0000 0.0000 0.0000
# 2 11.0362 52.7940 32.5457 0.0000 0.0000 0.0000
# 3 14.0595 32.5457 58.4829 0.0000 0.0000 0.0000
# 4 0.0000 0.0000 0.0000 23.9790 0.0000 0.0000
# 5 0.0000 0.0000 0.0000 0.0000 30.6457 0.0000
# 6 0.0000 0.0000 0.0000 0.0000 0.0000 -3.3149
#
#
#
# Elastic Compliance Matrix: (Units=1/GPa)
#
#
# Indices 1 2 3 4 5 6 
#
# 1 0.015645 -0.001449 -0.002955 0.000000 0.000000 0.000000
# 2 -0.001449 0.028967 -0.015772 0.000000 0.000000 0.000000
# 3 -0.002955 -0.015772 0.026586 0.000000 0.000000 0.000000
# 4 0.000000 0.000000 0.000000 0.041703 0.000000 0.000000
# 5 0.000000 0.000000 0.000000 0.000000 0.032631 0.000000
# 6 0.000000 0.000000 0.000000 0.000000 0.000000 -0.301669
#
#
# Mechanical properties :
#
#
# Convention : Reuss Voigt Hill
#
# Bulk Modulus (GPa) = 32.41788 32.68411 32.55100
# Shear Modulus (GPa) = -47.39228 18.34415 -14.52407
#
# Velocity S-wave (km/s) = -4.69547 2.92128 -2.59938
# Velocity P-wave (km/s) = 3.78357 5.15592 2.47671
#
# Compressibility (1/GPa) = 0.03084717
#
# Stress axis : x y z
#
# Youngs Moduli (GPa) = 63.91990 34.52162 37.61317
#
# Poissons Ratio (x) = 0.05002 0.11114
# Poissons Ratio (y) = 0.09261 0.59323
# Poissons Ratio (z) = 0.18886 0.54447
#
# Static dielectric constant tensor:
#      x y z
#    x 1.872860 0.000000 0.000000 
#    y 0.000000 1.794800 0.000000 
#    z 0.000000 0.000000 1.842350 
# 
# From -- ./inp_files/22182.got.cif
#   From: 2010.05.17/outbox.cif.g08.bks.cpg/sg23_12_cif.got.tgz:22182.got - 2010.06.04 12:02:01.
