data_PCOD9332835
_publ_section_title
;
Structure prediction by ZEFSAII (Michael W. Deem and Ramdas Pophale) SiO2 
 PCOD9332835
Probable space group: I 21 21 21
;
_chemical_formula_sum "Si O2"
_cell_formula_units_Z 52
_cell_length_a 12.863877
_cell_length_b 16.856953
_cell_length_c 14.047237
_cell_angle_alpha 90.000000
_cell_angle_beta 90.000000
_cell_angle_gamma 90.000000
_cell_volume 3046.083923
_symmetry_space_group_name_H-M "I 21 21 21"
_symmetry_group_IT_number 24
_symmetry_cell_setting 'orthorhombic'
loop_
_space_group_symop_operation_xyz
x,y,z
-x,1/2-y,z
x,-y,1/2-z
1/2-x,y,-z
1/2+x,1/2+y,1/2+z
1/2-x,-y,1/2+z
1/2+x,1/2-y,-z
-x,1/2+y,1/2-z
loop_
_atom_site_type_symbol
_atom_site_label
_atom_site_fract_x
_atom_site_fract_y
_atom_site_fract_z
Si Si1 0.304490 0.773978 0.716517
Si Si2 0.284125 0.544120 0.345489
Si Si3 0.086266 0.313951 0.382054
Si Si4 0.750000 0.083686 0.500000
Si Si5 0.053696 0.091096 0.227675
Si Si6 0.901749 0.196247 0.859306
Si Si7 0.096379 0.654914 0.417921
O O1 0.330102 0.732114 0.816368
O O2 0.336139 0.864577 0.727439
O O3 0.194670 0.750036 0.674355
O O4 0.385571 0.734247 0.642906
O O5 0.247739 0.500000 0.250000
O O6 0.301443 0.474471 0.421307
O O7 0.376364 0.606769 0.321355
O O8 0.194807 0.599401 0.391398
O O9 0.156476 0.364343 0.454621
O O10 0.000000 0.250000 0.419207
O O11 0.020592 0.368701 0.308169
O O12 0.000036 0.107643 0.125870
O O13 0.061917 0.000000 0.250000
O O14 0.000000 0.250000 0.832113
O O15 0.906684 0.178958 0.972582
#
# Coordination Sequence:
#
# PCOD9332835 Si02
#       7
#     8   8   8   4   8   8   8
#     4   9  18  34  50  76 107 144 185 225 275 331
#     4  11  21  34  54  85 111 140 188 239 280 322
#     4   9  20  35  54  81 109 140 186 232 279 332
#     4  12  18  34  60  82 108 142 184 242 286 322
#     4  10  18  30  54  81 109 140 180 229 279 329
#     4  11  21  34  52  78 116 151 185 227 284 352
#     4  10  17  32  52  82 110 139 178 232 290 334
#
# _framework density 17.071099
#
# number of rings (size 3 to 8) (size 9 to 14) (size 15 to 20)
#    0.000    1.846    1.538    7.846    0.000    0.000 
#    0.000    3.846    0.000    1.846    0.000    0.000 
#    0.000    0.000    0.000    0.000    0.000    0.000 
#
# Total GULP energy -144801.325220 kJ/mol
# GULP energy per Si atom -5569.281739 kJ/mol
# Density = 1.703224 g / cm^3
# Si number density = 17.071099 Si / 1000 Ang^3
#
#
#
# Elastic Constant Matrix: (Units=GPa)
#
#
# Indices 1 2 3 4 5 6 
#
# 1 100.9177 64.8922 33.1588 0.0000 0.0000 0.0000
# 2 64.8922 126.6199 28.4824 0.0000 0.0000 0.0000
# 3 33.1588 28.4824 46.6146 0.0000 0.0000 0.0000
# 4 0.0000 0.0000 0.0000 21.1131 0.0000 0.0000
# 5 0.0000 0.0000 0.0000 0.0000 12.7944 0.0000
# 6 0.0000 0.0000 0.0000 0.0000 0.0000 21.3635
#
#
#
# Elastic Compliance Matrix: (Units=1/GPa)
#
#
# Indices 1 2 3 4 5 6 
#
# 1 0.016923 -0.006916 -0.007812 0.000000 0.000000 0.000000
# 2 -0.006916 0.011982 -0.002402 0.000000 0.000000 0.000000
# 3 -0.007812 -0.002402 0.028477 0.000000 0.000000 0.000000
# 4 0.000000 0.000000 0.000000 0.047364 0.000000 0.000000
# 5 0.000000 0.000000 0.000000 0.000000 0.078159 0.000000
# 6 0.000000 0.000000 0.000000 0.000000 0.000000 0.046809
#
#
# Mechanical properties :
#
#
# Convention : Reuss Voigt Hill
#
# Bulk Modulus (GPa) = 43.24778 58.57989 50.91383
# Shear Modulus (GPa) = 18.40388 20.89545 19.64966
#
# Velocity S-wave (km/s) = 3.28696 3.50240 3.39639
# Velocity P-wave (km/s) = 6.30828 7.12359 6.72830
#
# Compressibility (1/GPa) = 0.02312257
#
# Stress axis : x y z
#
# Youngs Moduli (GPa) = 59.09182 83.45743 35.11554
#
# Poissons Ratio (x) = 0.57715 0.27433
# Poissons Ratio (y) = 0.40865 0.08435
# Poissons Ratio (z) = 0.46164 0.20047
#
# Static dielectric constant tensor:
#      x y z
#    x 1.603050 0.000000 0.000000 
#    y 0.000000 1.603090 0.000000 
#    z 0.000000 0.000000 1.589350 
# 
# From -- ./inp_files/25940.got.cif
#   From: 2010.05.17/outbox.cif.g08.bks.cpg/sg24_13_cif.got.tgz:25940.got - 2010.06.04 00:33:39.
