data_PCOD9332235
_publ_section_title
;
Structure prediction by ZEFSAII (Michael W. Deem and Ramdas Pophale) SiO2 
 PCOD9332235
Probable space group: I 2 2 2
;
_chemical_formula_sum "Si O2"
_cell_formula_units_Z 56
_cell_length_a 15.937029
_cell_length_b 7.981714
_cell_length_c 22.555831
_cell_angle_alpha 90.000000
_cell_angle_beta 90.000000
_cell_angle_gamma 90.000000
_cell_volume 2869.210140
_symmetry_space_group_name_H-M "I 2 2 2"
_symmetry_group_IT_number 23
_symmetry_cell_setting 'orthorhombic'
loop_
_space_group_symop_operation_xyz
x,y,z
-x,-y,z
x,-y,-z
-x,y,-z
1/2+x,1/2+y,1/2+z
1/2-x,1/2-y,1/2+z
1/2+x,1/2-y,1/2-z
1/2-x,1/2+y,1/2-z
loop_
_atom_site_type_symbol
_atom_site_label
_atom_site_fract_x
_atom_site_fract_y
_atom_site_fract_z
Si Si1 0.784344 0.019821 0.630078
Si Si2 0.782203 0.500000 0.000000
Si Si3 0.000000 0.500000 0.262382
Si Si4 0.594897 0.307609 0.520191
Si Si5 0.933246 0.850288 0.293068
Si Si6 0.594095 0.567484 0.352047
Si Si7 0.841363 0.654495 0.784288
Si Si8 0.292483 0.313566 0.690081
O O1 0.772344 0.007303 0.560035
O O2 0.748640 0.851340 0.661871
O O3 0.874149 0.082874 0.653463
O O4 0.718879 0.147778 0.659421
O O5 0.841297 0.665486 0.001492
O O6 0.980601 0.669918 0.299395
O O7 0.921640 0.461775 0.219759
O O8 0.613414 0.500000 0.500000
O O9 0.500000 0.269910 0.500000
O O10 0.593397 0.313070 0.591370
O O11 0.868075 0.809091 0.238790
O O12 0.000000 0.000000 0.284160
O O13 0.500000 0.500000 0.347754
O O14 0.621252 0.660859 0.291755
O O15 0.663838 0.424298 0.360199
O O16 0.784988 0.612391 0.727500
#
# Coordination Sequence:
#
# PCOD9332235 Si02
#       8
#     8   4   4   8   8   8   8   8
#     4  11  24  42  64  95 133 168 221 264 326 397
#     4  12  25  44  63  92 130 182 216 268 323 391
#     4  12  22  38  68  95 135 170 208 272 344 382
#     4  11  23  41  60  88 125 168 222 267 313 383
#     4  11  24  44  65  99 134 166 221 277 335 399
#     4  12  23  39  62  88 130 175 216 271 322 385
#     4  11  23  37  60  96 127 167 217 265 327 402
#     4  11  22  40  64  93 133 173 211 275 336 387
#
# _framework density 19.517567
#
# number of rings (size 3 to 8) (size 9 to 14) (size 15 to 20)
#    0.000    0.714    4.286    5.786    2.000    0.000 
#    0.000    0.357    0.000    0.000    0.000    4.000 
#    0.000    0.000    0.000    0.000    0.000    0.000 
#
# Total GULP energy -156056.122891 kJ/mol
# GULP energy per Si atom -5573.432960 kJ/mol
# Density = 1.947314 g / cm^3
# Si number density = 19.517567 Si / 1000 Ang^3
#
#
#
# Elastic Constant Matrix: (Units=GPa)
#
#
# Indices 1 2 3 4 5 6 
#
# 1 99.9038 36.2820 41.3271 0.0000 0.0000 0.0000
# 2 36.2820 97.3915 17.1797 0.0000 0.0000 0.0000
# 3 41.3271 17.1797 101.6428 0.0000 0.0000 0.0000
# 4 0.0000 0.0000 0.0000 22.6309 0.0000 0.0000
# 5 0.0000 0.0000 0.0000 0.0000 21.4123 0.0000
# 6 0.0000 0.0000 0.0000 0.0000 0.0000 38.3714
#
#
#
# Elastic Compliance Matrix: (Units=1/GPa)
#
#
# Indices 1 2 3 4 5 6 
#
# 1 0.013510 -0.004189 -0.004785 0.000000 0.000000 0.000000
# 2 -0.004189 0.011882 -0.000305 0.000000 0.000000 0.000000
# 3 -0.004785 -0.000305 0.011836 0.000000 0.000000 0.000000
# 4 0.000000 0.000000 0.000000 0.044187 0.000000 0.000000
# 5 0.000000 0.000000 0.000000 0.000000 0.046702 0.000000
# 6 0.000000 0.000000 0.000000 0.000000 0.000000 0.026061
#
#
# Mechanical properties :
#
#
# Convention : Reuss Voigt Hill
#
# Bulk Modulus (GPa) = 53.56320 54.27954 53.92137
# Shear Modulus (GPa) = 27.93908 30.09287 29.01597
#
# Velocity S-wave (km/s) = 3.78760 3.93088 3.85991
# Velocity P-wave (km/s) = 6.82869 6.96228 6.89581
#
# Compressibility (1/GPa) = 0.01866953
#
# Stress axis : x y z
#
# Youngs Moduli (GPa) = 74.01667 84.15923 84.49107
#
# Poissons Ratio (x) = 0.35255 0.40431
# Poissons Ratio (y) = 0.31006 0.02578
# Poissons Ratio (z) = 0.35419 0.02568
#
# Static dielectric constant tensor:
#      x y z
#    x 1.689640 0.000000 0.000000 
#    y 0.000000 1.815920 0.000000 
#    z 0.000000 0.000000 1.701610 
# 
# From -- ./inp_files/27021.got.cif
#   From: 2010.05.17/outbox.cif.g08.bks.cpg/sg23_14_cif.got.tgz:27021.got - 2010.06.04 12:02:01.
