data_PCOD9332306
_publ_section_title
;
Structure prediction by ZEFSAII (Michael W. Deem and Ramdas Pophale) SiO2 
 PCOD9332306
Probable space group: I 2 2 2
;
_chemical_formula_sum "Si O2"
_cell_formula_units_Z 40
_cell_length_a 10.642592
_cell_length_b 13.932014
_cell_length_c 11.489823
_cell_angle_alpha 90.000000
_cell_angle_beta 90.000000
_cell_angle_gamma 90.000000
_cell_volume 1703.627547
_symmetry_space_group_name_H-M "I 2 2 2"
_symmetry_group_IT_number 23
_symmetry_cell_setting 'orthorhombic'
loop_
_space_group_symop_operation_xyz
x,y,z
-x,-y,z
x,-y,-z
-x,y,-z
1/2+x,1/2+y,1/2+z
1/2-x,1/2-y,1/2+z
1/2+x,1/2-y,1/2-z
1/2-x,1/2+y,1/2-z
loop_
_atom_site_type_symbol
_atom_site_label
_atom_site_fract_x
_atom_site_fract_y
_atom_site_fract_z
Si Si1 0.262293 0.094687 0.485689
Si Si2 0.073552 0.724282 0.187467
Si Si3 0.885950 0.572869 0.231858
Si Si4 0.672232 0.588750 0.422346
Si Si5 0.632653 0.783279 0.052704
O O1 0.358425 0.142843 0.391735
O O2 0.346811 0.063984 0.597648
O O3 0.167031 0.181536 0.499596
O O4 0.176680 0.000000 0.500000
O O5 0.078176 0.828127 0.125667
O O6 0.143062 0.729886 0.309899
O O7 0.940141 0.681372 0.228820
O O8 0.765444 0.559647 0.314891
O O9 0.000000 0.500000 0.264034
O O10 0.626744 0.500000 0.500000
O O11 0.763747 0.643733 0.510040
O O12 0.500000 0.816293 0.000000
#
# Coordination Sequence:
#
# PCOD9332306 Si02
#       5
#     8   8   8   8   8
#     4  11  24  41  65  96 131 171 228 290 347 418
#     4  11  23  41  65 100 138 174 222 295 355 413
#     4  12  22  40  72 100 131 180 236 292 348 415
#     4  11  25  41  66 106 142 181 231 292 358 427
#     4  11  23  41  66  98 135 179 229 288 357 423
#
# _framework density 23.479310999999999
#
# number of rings (size 3 to 8) (size 9 to 14) (size 15 to 20)
#    0.000    0.800    6.000    1.800    0.000    0.400 
#    0.000    0.000    0.000    9.600    0.000    0.000 
#    0.000    0.000    0.000    0.000    0.000    0.000 
#
# Total GULP energy -111476.180921 kJ/mol
# GULP energy per Si atom -5573.809046 kJ/mol
# Density = 2.342587 g / cm^3
# Si number density = 23.479311 Si / 1000 Ang^3
#
#
#
# Elastic Constant Matrix: (Units=GPa)
#
#
# Indices 1 2 3 4 5 6 
#
# 1 63.9866 36.8073 12.6408 0.0000 0.0000 0.0000
# 2 36.8073 134.9685 22.5147 0.0000 0.0000 0.0000
# 3 12.6408 22.5147 113.5998 0.0001 0.0000 0.0000
# 4 0.0000 0.0000 0.0001 29.7214 0.0000 0.0000
# 5 0.0000 0.0000 0.0000 0.0000 102.8866 -0.0001
# 6 0.0000 0.0000 0.0000 0.0000 -0.0001 -44.2527
#
#
#
# Elastic Compliance Matrix: (Units=1/GPa)
#
#
# Indices 1 2 3 4 5 6 
#
# 1 0.018669 -0.004907 -0.001105 0.000000 0.000000 0.000000
# 2 -0.004907 0.008952 -0.001228 0.000000 0.000000 0.000000
# 3 -0.001105 -0.001228 0.009169 0.000000 0.000000 0.000000
# 4 0.000000 0.000000 0.000000 0.033646 0.000000 0.000000
# 5 0.000000 0.000000 0.000000 0.000000 0.009719 0.000000
# 6 0.000000 0.000000 0.000000 0.000000 0.000000 -0.022597
#
#
# Mechanical properties :
#
#
# Convention : Reuss Voigt Hill
#
# Bulk Modulus (GPa) = 44.82210 50.72006 47.77108
# Shear Modulus (GPa) = 62.91253 33.71052 48.31152
#
# Velocity S-wave (km/s) = 5.18199 3.79325 4.54102
# Velocity P-wave (km/s) = 7.41185 6.39014 6.91988
#
# Compressibility (1/GPa) = 0.02231042
#
# Stress axis : x y z
#
# Youngs Moduli (GPa) = 53.56410 111.70430 109.06066
#
# Poissons Ratio (x) = 0.54813 0.12050
# Poissons Ratio (y) = 0.26284 0.13395
# Poissons Ratio (z) = 0.05918 0.13720
#
# Static dielectric constant tensor:
#      x y z
#    x 2.091900 0.000000 0.000000 
#    y 0.000000 -0.496550 0.000000 
#    z 0.000000 0.000000 2.887610 
# 
# From -- ./inp_files/15520.got.cif
#   From: 2010.05.17/outbox.cif.g08.bks.cpg/sg23_8_cif.got.tgz:15520.got - 2010.06.04 12:02:01.
