data_PCOD9332564
_publ_section_title
;
Structure prediction by ZEFSAII (Michael W. Deem and Ramdas Pophale) SiO2 
 PCOD9332564
Probable space group: I 2 2 2
;
_chemical_formula_sum "Si O2"
_cell_formula_units_Z 34
_cell_length_a 6.258104
_cell_length_b 9.385427
_cell_length_c 26.734579
_cell_angle_alpha 90.000000
_cell_angle_beta 90.000000
_cell_angle_gamma 90.000000
_cell_volume 1570.254916
_symmetry_space_group_name_H-M "I 2 2 2"
_symmetry_group_IT_number 23
_symmetry_cell_setting 'orthorhombic'
loop_
_space_group_symop_operation_xyz
x,y,z
-x,-y,z
x,-y,-z
-x,y,-z
1/2+x,1/2+y,1/2+z
1/2-x,1/2-y,1/2+z
1/2+x,1/2-y,1/2-z
1/2-x,1/2+y,1/2-z
loop_
_atom_site_type_symbol
_atom_site_label
_atom_site_fract_x
_atom_site_fract_y
_atom_site_fract_z
Si Si1 0.621717 0.853003 0.549857
Si Si2 0.000000 0.000000 0.500000
Si Si3 0.508767 0.660608 0.363379
Si Si4 0.628854 0.637228 0.821549
Si Si5 0.662769 0.121589 0.780647
O O1 0.500000 0.795778 0.500000
O O2 0.854016 0.899672 0.533282
O O3 0.621033 0.753650 0.597166
O O4 0.500000 0.000000 0.562735
O O5 0.500000 0.500000 0.384630
O O6 0.727634 0.752331 0.354670
O O7 0.380353 0.637688 0.311866
O O8 0.500000 0.500000 0.843326
O O9 0.457130 0.731952 0.791754
O O10 0.785718 0.588055 0.776843
O O11 0.500000 0.000000 0.799669
#
# Coordination Sequence:
#
# PCOD9332564 Si02
#       5
#     8   2   8   8   8
#     4   9  22  44  73 101 133 170 225 285 349 425
#     4   8  18  48  76 104 132 164 224 292 344 422
#     4  12  26  45  67 102 143 184 233 291 360 424
#     4  12  26  42  68  99 142 191 242 293 349 420
#     4  12  24  44  65  97 143 191 232 294 349 414
#
# _framework density 21.652536999999999
#
# number of rings (size 3 to 8) (size 9 to 14) (size 15 to 20)
#    0.000    1.176    4.706    2.118    3.294    4.235 
#    2.118    0.000    0.000    0.000    0.000    0.000 
#    0.000    0.000    0.000    0.000    0.000    0.000 
#
# Total GULP energy -94862.031546 kJ/mol
# GULP energy per Si atom -5580.119503 kJ/mol
# Density = 2.160326 g / cm^3
# Si number density = 21.652537 Si / 1000 Ang^3
#
#
#
# Elastic Constant Matrix: (Units=GPa)
#
#
# Indices 1 2 3 4 5 6 
#
# 1 108.7969 60.7807 16.4605 0.0000 0.0000 0.0000
# 2 60.7807 135.5831 40.7743 0.0000 0.0000 0.0000
# 3 16.4605 40.7743 65.4440 0.0000 0.0000 0.0000
# 4 0.0000 0.0000 0.0000 -44.4214 0.0000 0.0000
# 5 0.0000 0.0000 0.0000 0.0000 -158.2133 0.0000
# 6 0.0000 0.0000 0.0000 0.0000 0.0000 40.0511
#
#
#
# Elastic Compliance Matrix: (Units=1/GPa)
#
#
# Indices 1 2 3 4 5 6 
#
# 1 0.012272 -0.005628 0.000420 0.000000 0.000000 0.000000
# 2 -0.005628 0.011657 -0.005847 0.000000 0.000000 0.000000
# 3 0.000420 -0.005847 0.018818 0.000000 0.000000 0.000000
# 4 0.000000 0.000000 0.000000 -0.022512 0.000000 0.000000
# 5 0.000000 0.000000 0.000000 0.000000 -0.006321 0.000000
# 6 0.000000 0.000000 0.000000 0.000000 0.000000 0.024968
#
#
# Mechanical properties :
#
#
# Convention : Reuss Voigt Hill
#
# Bulk Modulus (GPa) = 48.45894 60.65055 54.55475
# Shear Modulus (GPa) = 73.66887 -19.72949 26.96969
#
# Velocity S-wave (km/s) = 5.83927 -3.02186 3.53309
# Velocity P-wave (km/s) = 8.23964 3.98699 6.47255
#
# Compressibility (1/GPa) = 0.02063603
#
# Stress axis : x y z
#
# Youngs Moduli (GPa) = 81.48734 85.78706 53.14129
#
# Poissons Ratio (x) = 0.48277 -0.02230
# Poissons Ratio (y) = 0.45857 0.31073
# Poissons Ratio (z) = -0.03419 0.50162
#
# Static dielectric constant tensor:
#      x y z
#    x 1.795860 0.000000 0.000000 
#    y 0.000000 1.847990 0.000000 
#    z 0.000000 0.000000 1.787370 
# 
# From -- ./inp_files/830.got.cif
#   From: 2010.05.17/outbox.cif.g08.bks.cpg/sg23_1_cif.got.tgz:830.got - 2010.06.04 12:02:01.
