data_PCOD9332289
_publ_section_title
;
Structure prediction by ZEFSAII (Michael W. Deem and Ramdas Pophale) SiO2 
 PCOD9332289
Probable space group: I 2 2 2
;
_chemical_formula_sum "Si O2"
_cell_formula_units_Z 32
_cell_length_a 7.811763
_cell_length_b 8.558216
_cell_length_c 19.236814
_cell_angle_alpha 90.000000
_cell_angle_beta 90.000000
_cell_angle_gamma 90.000000
_cell_volume 1286.072489
_symmetry_space_group_name_H-M "I 2 2 2"
_symmetry_group_IT_number 23
_symmetry_cell_setting 'orthorhombic'
loop_
_space_group_symop_operation_xyz
x,y,z
-x,-y,z
x,-y,-z
-x,y,-z
1/2+x,1/2+y,1/2+z
1/2-x,1/2-y,1/2+z
1/2+x,1/2-y,1/2-z
1/2-x,1/2+y,1/2-z
loop_
_atom_site_type_symbol
_atom_site_label
_atom_site_fract_x
_atom_site_fract_y
_atom_site_fract_z
Si Si1 0.905117 0.166565 0.271213
Si Si2 0.537149 0.816091 0.900094
Si Si3 0.788622 0.188176 0.989621
Si Si4 0.452917 0.821545 0.357915
O O1 0.722286 0.171917 0.310582
O O2 0.019507 0.275372 0.320658
O O3 0.917453 0.231585 0.193388
O O4 0.000000 0.000000 0.271736
O O5 0.374735 0.753437 0.942934
O O6 0.500000 0.000000 0.907803
O O7 0.711281 0.760239 0.935956
O O8 0.933395 0.239689 0.934138
O O9 0.801744 0.000000 0.000000
O O10 0.500000 0.000000 0.370702
#
# Coordination Sequence:
#
# PCOD9332289 Si02
#       4
#     8   8   8   8
#     4  11  23  39  66 100 138 184 231 285 345 409
#     4   8  15  33  63  98 132 172 223 270 329 410
#     4   8  16  34  65 101 133 172 218 274 340 408
#     4  11  23  42  69 103 138 180 237 293 346 410
#
# _framework density 24.881958999999998
#
# number of rings (size 3 to 8) (size 9 to 14) (size 15 to 20)
#    0.000    2.500    0.000    3.750    0.000    4.000 
#    0.000   10.000    0.000   26.250    0.000    1.750 
#    0.000    0.000    0.000    0.000    0.000    0.000 
#
# Total GULP energy -89225.623917 kJ/mol
# GULP energy per Si atom -5576.601495 kJ/mol
# Density = 2.482533 g / cm^3
# Si number density = 24.881959 Si / 1000 Ang^3
#
#
#
# Elastic Constant Matrix: (Units=GPa)
#
#
# Indices 1 2 3 4 5 6 
#
# 1 105.8514 10.1065 28.5365 0.0000 0.0000 0.0000
# 2 10.1065 46.1306 30.4146 0.0000 0.0000 0.0000
# 3 28.5365 30.4146 220.6036 0.0000 0.0000 0.0000
# 4 0.0000 0.0000 0.0000 54.8398 0.0000 0.0000
# 5 0.0000 0.0000 0.0000 0.0000 20.1478 0.0000
# 6 0.0000 0.0000 0.0000 0.0000 0.0000 12.8993
#
#
#
# Elastic Compliance Matrix: (Units=1/GPa)
#
#
# Indices 1 2 3 4 5 6 
#
# 1 0.009876 -0.001454 -0.001077 0.000000 0.000000 0.000000
# 2 -0.001454 0.024059 -0.003129 0.000000 0.000000 0.000000
# 3 -0.001077 -0.003129 0.005104 0.000000 0.000000 0.000000
# 4 0.000000 0.000000 0.000000 0.018235 0.000000 0.000000
# 5 0.000000 0.000000 0.000000 0.000000 0.049633 0.000000
# 6 0.000000 0.000000 0.000000 0.000000 0.000000 0.077523
#
#
# Mechanical properties :
#
#
# Convention : Reuss Voigt Hill
#
# Bulk Modulus (GPa) = 36.07540 56.74453 46.40997
# Shear Modulus (GPa) = 24.39145 37.81260 31.10202
#
# Velocity S-wave (km/s) = 3.13435 3.90254 3.53935
# Velocity P-wave (km/s) = 5.25633 6.56973 5.94938
#
# Compressibility (1/GPa) = 0.02771972
#
# Stress axis : x y z
#
# Youngs Moduli (GPa) = 101.25161 41.56441 195.93433
#
# Poissons Ratio (x) = 0.06042 0.21105
# Poissons Ratio (y) = 0.14718 0.61308
# Poissons Ratio (z) = 0.10907 0.13005
#
# Static dielectric constant tensor:
#      x y z
#    x 2.237880 0.000000 0.000000 
#    y 0.000000 1.914210 0.000000 
#    z 0.000000 0.000000 1.960750 
# 
# From -- ./inp_files/25929.got.cif
#   From: 2010.05.17/outbox.cif.g08.bks.cpg/sg23_13_cif.got.tgz:25929.got - 2010.06.04 12:02:01.
