data_PCOD9332222
_publ_section_title
;
Structure prediction by ZEFSAII (Michael W. Deem and Ramdas Pophale) SiO2 
 PCOD9332222
Probable space group: I 2 2 2
;
_chemical_formula_sum "Si O2"
_cell_formula_units_Z 58
_cell_length_a 23.250197
_cell_length_b 16.062641
_cell_length_c 6.848612
_cell_angle_alpha 90.000000
_cell_angle_beta 90.000000
_cell_angle_gamma 90.000000
_cell_volume 2557.679676
_symmetry_space_group_name_H-M "I 2 2 2"
_symmetry_group_IT_number 23
_symmetry_cell_setting 'orthorhombic'
loop_
_space_group_symop_operation_xyz
x,y,z
-x,-y,z
x,-y,-z
-x,y,-z
1/2+x,1/2+y,1/2+z
1/2-x,1/2-y,1/2+z
1/2+x,1/2-y,1/2-z
1/2-x,1/2+y,1/2-z
loop_
_atom_site_type_symbol
_atom_site_label
_atom_site_fract_x
_atom_site_fract_y
_atom_site_fract_z
Si Si1 0.640706 0.577887 0.238711
Si Si2 0.629441 0.218745 0.200017
Si Si3 0.710358 0.145901 0.673715
Si Si4 0.919859 0.644063 0.905488
Si Si5 0.748800 0.167207 0.228392
Si Si6 0.330080 0.401809 0.775728
Si Si7 0.948240 0.210439 0.358566
Si Si8 0.500000 0.000000 0.500000
O O1 0.698263 0.611787 0.342363
O O2 0.634428 0.481637 0.292295
O O3 0.584741 0.635166 0.249328
O O4 0.658252 0.591541 0.010128
O O5 0.596372 0.169543 0.370649
O O6 0.687392 0.173477 0.122724
O O7 0.649822 0.309421 0.284158
O O8 0.591455 0.242463 0.016616
O O9 0.643078 0.129197 0.689889
O O10 0.726252 0.143457 0.443022
O O11 0.724302 0.240567 0.734069
O O12 0.761580 0.089484 0.758818
O O13 0.955252 0.719076 0.805569
O O14 0.957899 0.562082 0.886660
O O15 0.000000 0.181620 0.500000
#
# Coordination Sequence:
#
# PCOD9332222 Si02
#       8
#     8   8   8   8   8   8   8   2
#     4   9  16  31  55  88 123 159 200 247 304 363
#     4   9  20  38  62  91 121 161 203 252 308 372
#     4   9  17  30  56  86 117 156 192 244 311 369
#     4  11  23  42  63  84 119 158 208 255 307 362
#     4   9  16  29  55  87 118 152 197 244 304 374
#     4   8  16  31  56  92 127 151 193 253 308 368
#     4  11  22  39  63  87 117 169 209 244 303 367
#     4  12  28  44  62  88 114 158 224 264 292 352
#
# _framework density 22.676803
#
# number of rings (size 3 to 8) (size 9 to 14) (size 15 to 20)
#    0.000    2.483    1.379    1.655    0.000    3.310 
#    0.000    9.310    0.000    0.000    0.000    8.690 
#    0.000    0.000    0.000    0.000    0.000    0.000 
#
# Total GULP energy -161715.657010 kJ/mol
# GULP energy per Si atom -5576.401966 kJ/mol
# Density = 2.262519 g / cm^3
# Si number density = 22.676803 Si / 1000 Ang^3
#
#
#
# Elastic Constant Matrix: (Units=GPa)
#
#
# Indices 1 2 3 4 5 6 
#
# 1 108.9706 33.2326 1.7310 0.0000 0.0000 0.0000
# 2 33.2326 96.4985 -19.0971 0.0000 0.0000 0.0000
# 3 1.7310 -19.0971 43.4596 0.0000 0.0000 0.0000
# 4 0.0000 0.0000 0.0000 18.2369 0.0000 0.0000
# 5 0.0000 0.0000 0.0000 0.0000 43.4439 0.0000
# 6 0.0000 0.0000 0.0000 0.0000 0.0000 37.5412
#
#
#
# Elastic Compliance Matrix: (Units=1/GPa)
#
#
# Indices 1 2 3 4 5 6 
#
# 1 0.010440 -0.004028 -0.002186 0.000000 0.000000 0.000000
# 2 -0.004028 0.012904 0.005831 0.000000 0.000000 0.000000
# 3 -0.002186 0.005831 0.025659 0.000000 0.000000 0.000000
# 4 0.000000 0.000000 0.000000 0.054834 0.000000 0.000000
# 5 0.000000 0.000000 0.000000 0.000000 0.023018 0.000000
# 6 0.000000 0.000000 0.000000 0.000000 0.000000 0.026637
#
#
# Mechanical properties :
#
#
# Convention : Reuss Voigt Hill
#
# Bulk Modulus (GPa) = 20.73103 31.18465 25.95784
# Shear Modulus (GPa) = 29.35353 35.38187 32.36770
#
# Velocity S-wave (km/s) = 3.60172 3.95431 3.78213
# Velocity P-wave (km/s) = 5.14377 5.88476 5.52669
#
# Compressibility (1/GPa) = 0.04823688
#
# Stress axis : x y z
#
# Youngs Moduli (GPa) = 95.78646 77.49600 38.97257
#
# Poissons Ratio (x) = 0.31215 0.08518
# Poissons Ratio (y) = 0.38582 -0.22724
# Poissons Ratio (z) = 0.20937 -0.45185
#
# Static dielectric constant tensor:
#      x y z
#    x 1.884730 0.000000 0.000000 
#    y 0.000000 1.833130 0.000000 
#    z 0.000000 0.000000 1.981920 
# 
# From -- ./inp_files/12695.got.cif
#   From: 2010.05.17/outbox.cif.g08.bks.cpg/sg23_7_cif.got.tgz:12695.got - 2010.06.04 12:02:01.
