data_PCOD9332177
_publ_section_title
;
Structure prediction by ZEFSAII (Michael W. Deem and Ramdas Pophale) SiO2 
 PCOD9332177
Probable space group: I 2 2 2
;
_chemical_formula_sum "Si O2"
_cell_formula_units_Z 38
_cell_length_a 17.139561
_cell_length_b 7.531052
_cell_length_c 13.871474
_cell_angle_alpha 90.000000
_cell_angle_beta 90.000000
_cell_angle_gamma 90.000000
_cell_volume 1790.514954
_symmetry_space_group_name_H-M "I 2 2 2"
_symmetry_group_IT_number 23
_symmetry_cell_setting 'orthorhombic'
loop_
_space_group_symop_operation_xyz
x,y,z
-x,-y,z
x,-y,-z
-x,y,-z
1/2+x,1/2+y,1/2+z
1/2-x,1/2-y,1/2+z
1/2+x,1/2-y,1/2-z
1/2-x,1/2+y,1/2-z
loop_
_atom_site_type_symbol
_atom_site_label
_atom_site_fract_x
_atom_site_fract_y
_atom_site_fract_z
Si Si1 0.596043 0.225794 0.153650
Si Si2 0.000000 0.500000 0.500000
Si Si3 0.197076 0.619442 0.318388
Si Si4 0.727551 0.693304 0.984192
Si Si5 0.000000 0.000000 0.212522
Si Si6 0.338154 0.396125 0.348147
O O1 0.660855 0.337820 0.096055
O O2 0.540658 0.346572 0.220754
O O3 0.646274 0.059696 0.195905
O O4 0.546457 0.128417 0.071322
O O5 0.188961 0.711983 0.423105
O O6 0.288184 0.566959 0.315543
O O7 0.174247 0.753628 0.236023
O O8 0.793562 0.821360 0.941095
O O9 0.762914 0.500000 0.000000
O O10 0.070747 0.930431 0.147468
#
# Coordination Sequence:
#
# PCOD9332177 Si02
#       6
#     8   2   8   8   4   8
#     4  11  23  37  60  95 136 168 207 266 338 399
#     4  12  20  34  56  96 140 160 194 276 342 388
#     4  11  21  45  66  95 126 176 221 267 328 409
#     4  11  23  42  67  95 123 174 225 269 326 405
#     4  12  26  39  61 100 132 176 210 274 336 392
#     4  11  23  41  66  92 132 167 219 270 330 396
#
# _framework density 21.222944999999999
#
# number of rings (size 3 to 8) (size 9 to 14) (size 15 to 20)
#    0.000    0.842    2.105    8.211    2.947    0.000 
#    0.000    2.105    0.000    1.263    0.000    0.000 
#    0.000    0.000    0.000    0.000    0.000    0.000 
#
# Total GULP energy -106171.830168 kJ/mol
# GULP energy per Si atom -5587.991061 kJ/mol
# Density = 2.117464 g / cm^3
# Si number density = 21.222945 Si / 1000 Ang^3
#
#
#
# Elastic Constant Matrix: (Units=GPa)
#
#
# Indices 1 2 3 4 5 6 
#
# 1 121.0695 24.8946 -1.2381 0.0000 0.0000 0.0000
# 2 24.8946 72.8117 24.0536 0.0000 0.0000 0.0000
# 3 -1.2381 24.0536 43.5073 0.0000 0.0000 0.0000
# 4 0.0000 0.0000 0.0000 29.2740 0.0000 0.0000
# 5 0.0000 0.0000 0.0000 0.0000 6.0559 0.0000
# 6 0.0000 0.0000 0.0000 0.0000 0.0000 28.1352
#
#
#
# Elastic Compliance Matrix: (Units=1/GPa)
#
#
# Indices 1 2 3 4 5 6 
#
# 1 0.009088 -0.003906 0.002418 0.000000 0.000000 0.000000
# 2 -0.003906 0.018482 -0.010329 0.000000 0.000000 0.000000
# 3 0.002418 -0.010329 0.028764 0.000000 0.000000 0.000000
# 4 0.000000 0.000000 0.000000 0.034160 0.000000 0.000000
# 5 0.000000 0.000000 0.000000 0.000000 0.165128 0.000000
# 6 0.000000 0.000000 0.000000 0.000000 0.000000 0.035543
#
#
# Mechanical properties :
#
#
# Convention : Reuss Voigt Hill
#
# Bulk Modulus (GPa) = 30.58146 36.97872 33.78009
# Shear Modulus (GPa) = 15.35168 25.33826 20.34497
#
# Velocity S-wave (km/s) = 2.69244 3.45905 3.09954
# Velocity P-wave (km/s) = 4.90984 5.78058 5.36291
#
# Compressibility (1/GPa) = 0.03269955
#
# Stress axis : x y z
#
# Youngs Moduli (GPa) = 110.04026 54.10756 34.76574
#
# Poissons Ratio (x) = 0.21134 -0.08406
# Poissons Ratio (y) = 0.42980 0.35909
# Poissons Ratio (z) = -0.26608 0.55888
#
# Static dielectric constant tensor:
#      x y z
#    x 1.781090 0.000000 0.000000 
#    y 0.000000 1.784860 0.000000 
#    z 0.000000 0.000000 1.789000 
# 
# From -- ./inp_files/17275.got.cif
#   From: 2010.05.17/outbox.cif.g08.bks.cpg/sg23_9_cif.got.tgz:17275.got - 2010.06.04 12:02:01.
