data_PCOD9332276
_publ_section_title
;
Structure prediction by ZEFSAII (Michael W. Deem and Ramdas Pophale) SiO2 
 PCOD9332276
Probable space group: I 2 2 2
;
_chemical_formula_sum "Si O2"
_cell_formula_units_Z 40
_cell_length_a 14.256088
_cell_length_b 5.071572
_cell_length_c 21.808287
_cell_angle_alpha 90.000000
_cell_angle_beta 90.000000
_cell_angle_gamma 90.000000
_cell_volume 1576.756089
_symmetry_space_group_name_H-M "I 2 2 2"
_symmetry_group_IT_number 23
_symmetry_cell_setting 'orthorhombic'
loop_
_space_group_symop_operation_xyz
x,y,z
-x,-y,z
x,-y,-z
-x,y,-z
1/2+x,1/2+y,1/2+z
1/2-x,1/2-y,1/2+z
1/2+x,1/2-y,1/2-z
1/2-x,1/2+y,1/2-z
loop_
_atom_site_type_symbol
_atom_site_label
_atom_site_fract_x
_atom_site_fract_y
_atom_site_fract_z
Si Si1 0.736396 0.638426 0.352043
Si Si2 0.347911 0.132993 0.692943
Si Si3 0.857942 0.498910 0.934612
Si Si4 0.161212 0.686568 0.441808
Si Si5 0.500000 0.000000 0.206135
Si Si6 0.500000 0.500000 0.882845
O O1 0.736443 0.923158 0.319931
O O2 0.690195 0.428184 0.306811
O O3 0.825880 0.506410 0.382973
O O4 0.914928 0.090963 0.426811
O O5 0.402136 0.121915 0.627014
O O6 0.410995 0.031660 0.747817
O O7 0.828854 0.789239 0.910860
O O8 0.760960 0.335569 0.945580
O O9 0.904726 0.500000 0.000000
O O10 0.141170 0.500000 0.500000
O O11 0.495266 0.744641 0.163586
#
# Coordination Sequence:
#
# PCOD9332276 Si02
#       6
#     8   8   8   8   4   4
#     4   9  19  36  72 106 128 181 244 290 386 424
#     4   9  20  38  71  97 137 199 235 303 368 425
#     4   9  18  36  71 107 136 176 235 302 372 443
#     4  11  22  46  75 103 145 178 236 311 385 457
#     4  12  26  52  64  98 158 198 260 300 360 444
#     4  12  32  44  75 102 143 206 248 296 378 464
#
# _framework density 25.368541
#
# number of rings (size 3 to 8) (size 9 to 14) (size 15 to 20)
#    1.200    0.800    2.000    1.200    2.800    0.000 
#    0.000   16.500    4.400    0.000   10.400    0.000 
#    0.000    0.000    0.000    0.000    0.000    0.000 
#
# Total GULP energy -111643.530178 kJ/mol
# GULP energy per Si atom -5582.176509 kJ/mol
# Density = 2.531080 g / cm^3
# Si number density = 25.368541 Si / 1000 Ang^3
#
#
#
# Elastic Constant Matrix: (Units=GPa)
#
#
# Indices 1 2 3 4 5 6 
#
# 1 91.8572 42.7695 56.4545 0.0000 0.0000 0.0000
# 2 42.7695 195.2885 57.4528 0.0000 0.0000 0.0000
# 3 56.4545 57.4528 196.9819 0.0000 0.0000 0.0000
# 4 0.0000 0.0000 0.0000 40.5204 0.0000 0.0000
# 5 0.0000 0.0000 0.0000 0.0000 70.9853 0.0000
# 6 0.0000 0.0000 0.0000 0.0000 0.0000 -10.4382
#
#
#
# Elastic Compliance Matrix: (Units=1/GPa)
#
#
# Indices 1 2 3 4 5 6 
#
# 1 0.013927 -0.002052 -0.003393 0.000000 0.000000 0.000000
# 2 -0.002052 0.005904 -0.001134 0.000000 0.000000 0.000000
# 3 -0.003393 -0.001134 0.006380 0.000000 0.000000 0.000000
# 4 0.000000 0.000000 0.000000 0.024679 0.000000 0.000000
# 5 0.000000 0.000000 0.000000 0.000000 0.014087 0.000000
# 6 0.000000 0.000000 0.000000 0.000000 0.000000 -0.095802
#
#
# Mechanical properties :
#
#
# Convention : Reuss Voigt Hill
#
# Bulk Modulus (GPa) = 76.61080 88.60903 82.60992
# Shear Modulus (GPa) = -375.47577 42.04354 -166.71612
#
# Velocity S-wave (km/s) = -12.17907 4.07542 -8.11544
# Velocity P-wave (km/s) = 12.94250 7.55976 7.42827
#
# Compressibility (1/GPa) = 0.01305299
#
# Stress axis : x y z
#
# Youngs Moduli (GPa) = 71.80209 169.38899 156.74658
#
# Poissons Ratio (x) = 0.34758 0.53184
# Poissons Ratio (y) = 0.14733 0.17772
# Poissons Ratio (z) = 0.24363 0.19205
#
# Static dielectric constant tensor:
#      x y z
#    x 2.086920 0.000000 0.000000 
#    y 0.000000 1.959200 0.000000 
#    z 0.000000 0.000000 2.107570 
# 
# From -- ./inp_files/27120.got.cif
#   From: 2010.05.17/outbox.cif.g08.bks.cpg/sg23_14_cif.got.tgz:27120.got - 2010.06.04 12:02:01.
