data_PCOD9332226
_publ_section_title
;
Structure prediction by ZEFSAII (Michael W. Deem and Ramdas Pophale) SiO2 
 PCOD9332226
Probable space group: I 2 2 2
;
_chemical_formula_sum "Si O2"
_cell_formula_units_Z 50
_cell_length_a 7.834957
_cell_length_b 14.694912
_cell_length_c 19.979226
_cell_angle_alpha 90.000000
_cell_angle_beta 90.000000
_cell_angle_gamma 90.000000
_cell_volume 2300.288279
_symmetry_space_group_name_H-M "I 2 2 2"
_symmetry_group_IT_number 23
_symmetry_cell_setting 'orthorhombic'
loop_
_space_group_symop_operation_xyz
x,y,z
-x,-y,z
x,-y,-z
-x,y,-z
1/2+x,1/2+y,1/2+z
1/2-x,1/2-y,1/2+z
1/2+x,1/2-y,1/2-z
1/2-x,1/2+y,1/2-z
loop_
_atom_site_type_symbol
_atom_site_label
_atom_site_fract_x
_atom_site_fract_y
_atom_site_fract_z
Si Si1 0.865820 0.349428 0.707422
Si Si2 0.000000 0.500000 0.500000
Si Si3 0.678784 0.462055 0.284103
Si Si4 0.295638 0.990474 0.575601
Si Si5 0.687369 0.666927 0.832223
Si Si6 0.817554 0.365165 0.395078
Si Si7 0.786417 0.826019 0.651858
O O1 0.792935 0.449946 0.708678
O O2 0.754893 0.271210 0.669929
O O3 0.845874 0.318030 0.785692
O O4 0.032466 0.361071 0.661164
O O5 0.886827 0.430099 0.454249
O O6 0.500000 0.500000 0.258933
O O7 0.751143 0.391683 0.230210
O O8 0.664276 0.413855 0.355658
O O9 0.232247 0.075450 0.618915
O O10 0.500000 0.000000 0.577018
O O11 0.234591 0.000000 0.500000
O O12 0.235915 0.893989 0.604869
O O13 0.482426 0.675832 0.822675
O O14 0.771220 0.257880 0.400973
#
# Coordination Sequence:
#
# PCOD9332226 Si02
#       7
#     8   2   8   8   8   8   8
#     4  11  22  39  66  99 124 166 222 273 339 384
#     4  12  24  48  66  92 146 192 244 252 344 436
#     4  12  21  38  63  99 131 158 216 281 336 387
#     4  11  26  43  62  91 132 175 214 262 332 404
#     4  11  23  38  65  96 129 162 216 278 334 396
#     4  11  26  42  69  97 133 183 221 279 329 409
#     4  11  23  41  68 101 127 170 222 281 340 392
#
# _framework density 21.736407
#
# number of rings (size 3 to 8) (size 9 to 14) (size 15 to 20)
#    0.000    0.800    6.400    0.480    2.240    5.120 
#    0.000    0.400    0.000    0.000    0.000    0.000 
#    0.000    0.000    0.000    0.000    0.000    0.000 
#
# Total GULP energy -139418.569534 kJ/mol
# GULP energy per Si atom -5576.742781 kJ/mol
# Density = 2.168693 g / cm^3
# Si number density = 21.736407 Si / 1000 Ang^3
#
#
#
# Elastic Constant Matrix: (Units=GPa)
#
#
# Indices 1 2 3 4 5 6 
#
# 1 29.7320 -0.9956 2.2905 0.0000 0.0000 0.0000
# 2 -0.9956 150.5872 33.0942 0.0000 0.0000 0.0000
# 3 2.2905 33.0942 101.8584 0.0000 0.0000 0.0000
# 4 0.0000 0.0000 0.0000 30.3035 0.0000 0.0000
# 5 0.0000 0.0000 0.0000 0.0000 10.9777 0.0000
# 6 0.0000 0.0000 0.0000 0.0000 0.0000 24.1140
#
#
#
# Elastic Compliance Matrix: (Units=1/GPa)
#
#
# Indices 1 2 3 4 5 6 
#
# 1 0.033717 0.000419 -0.000894 0.000000 0.000000 0.000000
# 2 0.000419 0.007157 -0.002335 0.000000 0.000000 0.000000
# 3 -0.000894 -0.002335 0.010596 0.000000 0.000000 0.000000
# 4 0.000000 0.000000 0.000000 0.033000 0.000000 0.000000
# 5 0.000000 0.000000 0.000000 0.000000 0.091094 0.000000
# 6 0.000000 0.000000 0.000000 0.000000 0.000000 0.041470
#
#
# Mechanical properties :
#
#
# Convention : Reuss Voigt Hill
#
# Bulk Modulus (GPa) = 21.81011 38.99507 30.40259
# Shear Modulus (GPa) = 21.01411 29.59825 25.30618
#
# Velocity S-wave (km/s) = 3.11267 3.69411 3.41578
# Velocity P-wave (km/s) = 4.79311 6.01450 5.43821
#
# Compressibility (1/GPa) = 0.04585029
#
# Stress axis : x y z
#
# Youngs Moduli (GPa) = 29.65882 139.73275 94.37351
#
# Poissons Ratio (x) = -0.05862 0.08442
# Poissons Ratio (y) = -0.01244 0.22033
# Poissons Ratio (z) = 0.02653 0.32622
#
# Static dielectric constant tensor:
#      x y z
#    x 1.883020 0.000000 0.000000 
#    y 0.000000 1.858050 0.000000 
#    z 0.000000 0.000000 1.785970 
# 
# From -- ./inp_files/23763.got.cif
#   From: 2010.05.17/outbox.cif.g08.bks.cpg/sg23_12_cif.got.tgz:23763.got - 2010.06.04 12:02:01.
