data_PCOD9332250
_publ_section_title
;
Structure prediction by ZEFSAII (Michael W. Deem and Ramdas Pophale) SiO2 
 PCOD9332250
Probable space group: I 2 2 2
;
_chemical_formula_sum "Si O2"
_cell_formula_units_Z 44
_cell_length_a 18.035084
_cell_length_b 7.936008
_cell_length_c 13.662980
_cell_angle_alpha 90.000000
_cell_angle_beta 90.000000
_cell_angle_gamma 90.000000
_cell_volume 1955.535476
_symmetry_space_group_name_H-M "I 2 2 2"
_symmetry_group_IT_number 23
_symmetry_cell_setting 'orthorhombic'
loop_
_space_group_symop_operation_xyz
x,y,z
-x,-y,z
x,-y,-z
-x,y,-z
1/2+x,1/2+y,1/2+z
1/2-x,1/2-y,1/2+z
1/2+x,1/2-y,1/2-z
1/2-x,1/2+y,1/2-z
loop_
_atom_site_type_symbol
_atom_site_label
_atom_site_fract_x
_atom_site_fract_y
_atom_site_fract_z
Si Si1 0.500000 0.000000 0.232598
Si Si2 0.362080 0.799263 0.262376
Si Si3 0.782946 0.871891 0.623306
Si Si4 0.381879 0.539247 0.612181
Si Si5 0.053422 0.152794 0.706261
Si Si6 0.271950 0.764079 0.081755
O O1 0.424524 0.937561 0.286386
O O2 0.521578 0.831732 0.174846
O O3 0.278955 0.823171 0.300008
O O4 0.383262 0.627805 0.319316
O O5 0.345178 0.802554 0.145849
O O6 0.865376 0.873228 0.663878
O O7 0.781392 0.737699 0.535081
O O8 0.760561 0.063934 0.598982
O O9 0.402710 0.500000 0.500000
O O10 0.436625 0.657673 0.675077
O O11 0.300456 0.626009 0.607787
O O12 0.000000 0.000000 0.678109
#
# Coordination Sequence:
#
# PCOD9332250 Si02
#       6
#     4   8   8   8   8   8
#     4  12  28  46  78 102 148 198 238 302 382 430
#     4  12  23  46  69 108 143 189 244 302 366 438
#     4  11  24  42  74 107 143 191 249 298 363 451
#     4  12  24  42  72 104 143 183 242 302 357 436
#     4  12  25  50  70 106 152 190 242 305 367 440
#     4  11  22  41  72 109 137 191 243 298 362 432
#
# _framework density 22.500230999999999
#
# number of rings (size 3 to 8) (size 9 to 14) (size 15 to 20)
#    0.000    0.364    7.273    1.091    2.545    0.364 
#    0.000    8.182    0.000    0.000    0.000    0.000 
#    0.000    0.000    0.000    0.000    0.000    0.000 
#
# Total GULP energy -122758.248290 kJ/mol
# GULP energy per Si atom -5579.920377 kJ/mol
# Density = 2.244902 g / cm^3
# Si number density = 22.500231 Si / 1000 Ang^3
#
#
#
# Elastic Constant Matrix: (Units=GPa)
#
#
# Indices 1 2 3 4 5 6 
#
# 1 154.6006 57.8679 32.3731 0.0000 0.0000 0.0000
# 2 57.8679 131.9840 15.1923 0.0000 0.0000 0.0000
# 3 32.3731 15.1923 68.7665 0.0000 0.0000 0.0000
# 4 0.0000 0.0000 0.0000 18.3555 0.0000 0.0000
# 5 0.0000 0.0000 0.0000 0.0000 7.9549 0.0000
# 6 0.0000 0.0000 0.0000 0.0000 0.0000 37.2695
#
#
#
# Elastic Compliance Matrix: (Units=1/GPa)
#
#
# Indices 1 2 3 4 5 6 
#
# 1 0.008378 -0.003303 -0.003214 0.000000 0.000000 0.000000
# 2 -0.003303 0.009077 -0.000450 0.000000 0.000000 0.000000
# 3 -0.003214 -0.000450 0.016155 0.000000 0.000000 0.000000
# 4 0.000000 0.000000 0.000000 0.054480 0.000000 0.000000
# 5 0.000000 0.000000 0.000000 0.000000 0.125709 0.000000
# 6 0.000000 0.000000 0.000000 0.000000 0.000000 0.026832
#
#
# Mechanical properties :
#
#
# Convention : Reuss Voigt Hill
#
# Bulk Modulus (GPa) = 50.82912 62.91308 56.87110
# Shear Modulus (GPa) = 19.14810 29.37717 24.26263
#
# Velocity S-wave (km/s) = 2.92039 3.61728 3.28735
# Velocity P-wave (km/s) = 5.83190 6.74300 6.30393
#
# Compressibility (1/GPa) = 0.01967376
#
# Stress axis : x y z
#
# Youngs Moduli (GPa) = 119.36396 110.17115 61.90199
#
# Poissons Ratio (x) = 0.36392 0.19897
# Poissons Ratio (y) = 0.39428 0.02787
# Poissons Ratio (z) = 0.38366 0.04960
#
# Static dielectric constant tensor:
#      x y z
#    x 1.834700 0.000000 0.000000 
#    y 0.000000 1.879240 0.000000 
#    z 0.000000 0.000000 1.918570 
# 
# From -- ./inp_files/21956.got.cif
#   From: 2010.05.17/outbox.cif.g08.bks.cpg/sg23_11_cif.got.tgz:21956.got - 2010.06.04 12:02:01.
