data_PCOD9332857
_publ_section_title
;
Structure prediction by ZEFSAII (Michael W. Deem and Ramdas Pophale) SiO2 
 PCOD9332857
Probable space group: I 21 21 21
;
_chemical_formula_sum "Si O2"
_cell_formula_units_Z 64
_cell_length_a 22.503538
_cell_length_b 8.788561
_cell_length_c 19.300753
_cell_angle_alpha 90.000000
_cell_angle_beta 90.000000
_cell_angle_gamma 90.000000
_cell_volume 3817.181651
_symmetry_space_group_name_H-M "I 21 21 21"
_symmetry_group_IT_number 24
_symmetry_cell_setting 'orthorhombic'
loop_
_space_group_symop_operation_xyz
x,y,z
-x,1/2-y,z
x,-y,1/2-z
1/2-x,y,-z
1/2+x,1/2+y,1/2+z
1/2-x,-y,1/2+z
1/2+x,1/2-y,-z
-x,1/2+y,1/2-z
loop_
_atom_site_type_symbol
_atom_site_label
_atom_site_fract_x
_atom_site_fract_y
_atom_site_fract_z
Si Si1 0.520575 0.075299 0.464072
Si Si2 0.659311 0.009142 0.475395
Si Si3 0.138060 0.277763 0.856778
Si Si4 0.240304 0.938443 0.675932
Si Si5 0.902769 0.572729 0.520714
Si Si6 0.198208 0.244942 0.056446
Si Si7 0.300645 0.156057 0.444135
Si Si8 0.474135 0.417835 0.182910
O O1 0.500000 0.250000 0.471867
O O2 0.588452 0.039429 0.485460
O O3 0.469343 0.971913 0.499096
O O4 0.517640 0.023779 0.383687
O O5 0.668772 0.889373 0.412518
O O6 0.686619 0.924851 0.542863
O O7 0.688257 0.165299 0.450808
O O8 0.182167 0.168575 0.816006
O O9 0.099428 0.171138 0.908661
O O10 0.095907 0.381257 0.810847
O O11 0.282604 0.829876 0.628969
O O12 0.261630 0.000000 0.750000
O O13 0.221272 0.081082 0.627484
O O14 0.863768 0.667552 0.466464
O O15 0.862792 0.424770 0.536522
O O16 0.250000 0.205034 0.000000
O O17 0.250000 0.119089 0.500000
O O18 0.500000 0.250000 0.176112
O O19 0.498937 0.500000 0.250000
#
# Coordination Sequence:
#
# PCOD9332857 Si02
#       8
#     8   8   8   8   8   8   8   8
#     4  11  21  34  49  80 108 138 186 235 278 317
#     4  10  21  31  60  78 111 142 183 242 272 326
#     4   9  20  35  48  71  98 147 181 223 267 311
#     4  11  22  36  55  79 112 145 185 231 283 347
#     4  10  17  34  56  71 110 132 186 229 262 328
#     4  11  18  37  57  79 104 148 189 229 284 335
#     4  11  19  34  56  84 103 145 185 221 280 326
#     4  11  22  34  46  65 100 150 191 222 265 317
#
# _framework density 16.766297000000002
#
# number of rings (size 3 to 8) (size 9 to 14) (size 15 to 20)
#    0.000    1.500    7.500    0.750    0.000    2.500 
#    0.000    0.000    0.000    0.000    0.000    0.000 
#   11.250    0.000    0.000    0.000    0.000    0.000 
#
# Total GULP energy -178207.077215 kJ/mol
# GULP energy per Si atom -5568.971163 kJ/mol
# Density = 1.672814 g / cm^3
# Si number density = 16.766297 Si / 1000 Ang^3
#
#
#
# Elastic Constant Matrix: (Units=GPa)
#
#
# Indices 1 2 3 4 5 6 
#
# 1 68.1532 18.2887 22.4752 0.0000 0.0000 0.0000
# 2 18.2887 110.3260 21.4879 0.0000 0.0000 0.0000
# 3 22.4752 21.4879 57.6880 0.0000 0.0000 0.0000
# 4 0.0000 0.0000 0.0000 18.6190 0.0000 0.0000
# 5 0.0000 0.0000 0.0000 0.0000 11.0624 0.0000
# 6 0.0000 0.0000 0.0000 0.0000 0.0000 16.3887
#
#
#
# Elastic Compliance Matrix: (Units=1/GPa)
#
#
# Indices 1 2 3 4 5 6 
#
# 1 0.017113 -0.001659 -0.006049 0.000000 0.000000 0.000000
# 2 -0.001659 0.009934 -0.003054 0.000000 0.000000 0.000000
# 3 -0.006049 -0.003054 0.020829 0.000000 0.000000 0.000000
# 4 0.000000 0.000000 0.000000 0.053709 0.000000 0.000000
# 5 0.000000 0.000000 0.000000 0.000000 0.090396 0.000000
# 6 0.000000 0.000000 0.000000 0.000000 0.000000 0.061018
#
#
# Mechanical properties :
#
#
# Convention : Reuss Voigt Hill
#
# Bulk Modulus (GPa) = 37.94808 40.07452 39.01130
# Shear Modulus (GPa) = 17.64876 20.80838 19.22857
#
# Velocity S-wave (km/s) = 3.24795 3.52672 3.39020
# Velocity P-wave (km/s) = 6.06203 6.36690 6.21634
#
# Compressibility (1/GPa) = 0.02635180
#
# Stress axis : x y z
#
# Youngs Moduli (GPa) = 58.43570 100.66637 48.00989
#
# Poissons Ratio (x) = 0.16696 0.29043
# Poissons Ratio (y) = 0.09692 0.14662
# Poissons Ratio (z) = 0.35350 0.30744
#
# Static dielectric constant tensor:
#      x y z
#    x 1.631280 0.000000 0.000000 
#    y 0.000000 1.616410 0.000000 
#    z 0.000000 0.000000 1.553070 
# 
# From -- ./inp_files/34206.got.cif
#   From: 2010.05.17/outbox.cif.g08.bks.cpg/sg24_18_cif.got.tgz:34206.got - 2010.06.04 00:33:39.
