data_PCOD9332208
_publ_section_title
;
Structure prediction by ZEFSAII (Michael W. Deem and Ramdas Pophale) SiO2 
 PCOD9332208
Probable space group: I 2 2 2
;
_chemical_formula_sum "Si O2"
_cell_formula_units_Z 48
_cell_length_a 23.689537
_cell_length_b 8.975114
_cell_length_c 10.476033
_cell_angle_alpha 90.000000
_cell_angle_beta 90.000000
_cell_angle_gamma 90.000000
_cell_volume 2227.375325
_symmetry_space_group_name_H-M "I 2 2 2"
_symmetry_group_IT_number 23
_symmetry_cell_setting 'orthorhombic'
loop_
_space_group_symop_operation_xyz
x,y,z
-x,-y,z
x,-y,-z
-x,y,-z
1/2+x,1/2+y,1/2+z
1/2-x,1/2-y,1/2+z
1/2+x,1/2-y,1/2-z
1/2-x,1/2+y,1/2-z
loop_
_atom_site_type_symbol
_atom_site_label
_atom_site_fract_x
_atom_site_fract_y
_atom_site_fract_z
Si Si1 0.934768 0.324737 0.981402
Si Si2 0.211503 0.886049 0.622200
Si Si3 0.088040 0.149444 0.262357
Si Si4 0.609331 0.318984 0.728569
Si Si5 0.485730 0.839758 0.854561
Si Si6 0.774044 0.076504 0.138960
O O1 0.904456 0.259658 0.857133
O O2 0.934449 0.500000 0.000000
O O3 0.901158 0.261719 0.098028
O O4 0.000000 0.274166 0.000000
O O5 0.144230 0.860393 0.650789
O O6 0.235185 0.718083 0.604386
O O7 0.218469 0.000000 0.500000
O O8 0.241713 0.952503 0.752299
O O9 0.030141 0.214243 0.315660
O O10 0.079620 0.979370 0.222898
O O11 0.577553 0.217207 0.831682
O O12 0.674845 0.353254 0.723133
O O13 0.500000 0.000000 0.788483
O O14 0.500000 0.858831 0.000000
O O15 0.788732 0.000000 0.000000
#
# Coordination Sequence:
#
# PCOD9332208 Si02
#       6
#     8   8   8   8   8   8
#     4  11  22  38  62  96 134 173 226 282 345 410
#     4  11  26  47  73 105 144 188 242 299 359 426
#     4  11  24  41  66  98 135 179 233 282 347 418
#     4  11  23  40  68  95 132 176 228 282 343 413
#     4  11  25  42  61  95 137 181 232 281 346 419
#     4  11  25  48  73 107 142 186 244 299 359 426
#
# _framework density 21.550027
#
# number of rings (size 3 to 8) (size 9 to 14) (size 15 to 20)
#    0.000    1.000    1.667    5.000    4.667    4.667 
#    3.000    0.000    0.000    0.000    0.000    0.000 
#    0.000    0.000    0.000    0.000    0.000    0.000 
#
# Total GULP energy -133643.292240 kJ/mol
# GULP energy per Si atom -5568.470510 kJ/mol
# Density = 2.150098 g / cm^3
# Si number density = 21.550027 Si / 1000 Ang^3
#
#
#
# Elastic Constant Matrix: (Units=GPa)
#
#
# Indices 1 2 3 4 5 6 
#
# 1 53.9097 32.6316 13.4310 0.0000 0.0000 0.0000
# 2 32.6316 85.0736 21.6414 0.0000 0.0000 0.0000
# 3 13.4310 21.6414 99.7699 0.0000 0.0000 0.0000
# 4 0.0000 0.0000 0.0000 32.1012 0.0000 0.0000
# 5 0.0000 0.0000 0.0000 0.0000 28.8039 0.0000
# 6 0.0000 0.0000 0.0000 0.0000 0.0000 53.6795
#
#
#
# Elastic Compliance Matrix: (Units=1/GPa)
#
#
# Indices 1 2 3 4 5 6 
#
# 1 0.024323 -0.008993 -0.001324 0.000000 0.000000 0.000000
# 2 -0.008993 0.015766 -0.002209 0.000000 0.000000 0.000000
# 3 -0.001324 -0.002209 0.010680 0.000000 0.000000 0.000000
# 4 0.000000 0.000000 0.000000 0.031151 0.000000 0.000000
# 5 0.000000 0.000000 0.000000 0.000000 0.034718 0.000000
# 6 0.000000 0.000000 0.000000 0.000000 0.000000 0.018629
#
#
# Mechanical properties :
#
#
# Convention : Reuss Voigt Hill
#
# Bulk Modulus (GPa) = 38.88366 41.57348 40.22857
# Shear Modulus (GPa) = 29.60495 34.32021 31.96258
#
# Velocity S-wave (km/s) = 3.71047 3.99505 3.85539
# Velocity P-wave (km/s) = 6.03651 6.37291 6.20699
#
# Compressibility (1/GPa) = 0.02571774
#
# Stress axis : x y z
#
# Youngs Moduli (GPa) = 41.11405 63.42824 93.62889
#
# Poissons Ratio (x) = 0.57039 0.12393
# Poissons Ratio (y) = 0.36973 0.20685
# Poissons Ratio (z) = 0.05442 0.14013
#
# Static dielectric constant tensor:
#      x y z
#    x 1.678240 0.000000 0.000000 
#    y 0.000000 1.757580 0.000000 
#    z 0.000000 0.000000 2.045820 
# 
# From -- ./inp_files/18283.got.cif
#   From: 2010.05.17/outbox.cif.g08.bks.cpg/sg23_10_cif.got.tgz:18283.got - 2010.06.04 12:02:01.
