data_PCOD9332470
_publ_section_title
;
Structure prediction by ZEFSAII (Michael W. Deem and Ramdas Pophale) SiO2 
 PCOD9332470
Probable space group: I 2 2 2
;
_chemical_formula_sum "Si O2"
_cell_formula_units_Z 26
_cell_length_a 17.330700
_cell_length_b 7.523302
_cell_length_c 7.175710
_cell_angle_alpha 90.000000
_cell_angle_beta 90.000000
_cell_angle_gamma 90.000000
_cell_volume 935.598418
_symmetry_space_group_name_H-M "I 2 2 2"
_symmetry_group_IT_number 23
_symmetry_cell_setting 'orthorhombic'
loop_
_space_group_symop_operation_xyz
x,y,z
-x,-y,z
x,-y,-z
-x,y,-z
1/2+x,1/2+y,1/2+z
1/2-x,1/2-y,1/2+z
1/2+x,1/2-y,1/2-z
1/2-x,1/2+y,1/2-z
loop_
_atom_site_type_symbol
_atom_site_label
_atom_site_fract_x
_atom_site_fract_y
_atom_site_fract_z
Si Si1 0.158824 0.954148 0.717889
Si Si2 0.500000 0.000000 0.500000
Si Si3 0.954697 0.752861 0.693875
Si Si4 0.667494 0.039235 0.275573
O O1 0.243646 0.011141 0.782961
O O2 0.087038 0.074411 0.780361
O O3 0.159786 0.000000 0.500000
O O4 0.153882 0.746031 0.745420
O O5 0.508757 0.152887 0.339115
O O6 0.115540 0.390650 0.674316
O O7 0.000000 0.783387 0.500000
O O8 0.654270 0.000000 0.500000
#
# Coordination Sequence:
#
# PCOD9332470 Si02
#       4
#     8   2   8   8
#     4  11  27  50  88 131 173 233 307 375 453 537
#     4  12  30  56  82 122 178 240 292 362 460 554
#     4  12  29  54  85 127 184 234 296 374 461 547
#     4  11  25  54  86 132 173 235 303 382 445 545
#
# _framework density 27.789702999999999
#
# number of rings (size 3 to 8) (size 9 to 14) (size 15 to 20)
#    0.000    0.615    4.615    0.462    8.615    3.077 
#    0.000    1.538    0.000    0.000    0.000    0.000 
#    0.000    0.000    0.000    0.000    0.000    0.000 
#
# Total GULP energy -72743.259291 kJ/mol
# GULP energy per Si atom -5595.635330 kJ/mol
# Density = 2.772645 g / cm^3
# Si number density = 27.789703 Si / 1000 Ang^3
#
#
#
# Elastic Constant Matrix: (Units=GPa)
#
#
# Indices 1 2 3 4 5 6 
#
# 1 207.6191 126.3911 33.5072 0.0000 0.0000 0.0000
# 2 126.3911 306.7148 74.3513 0.0000 0.0000 0.0000
# 3 33.5072 74.3513 142.4500 0.0000 0.0000 0.0000
# 4 0.0000 0.0000 0.0000 -40.8950 0.0000 0.0000
# 5 0.0000 0.0000 0.0000 0.0000 7.4826 0.0000
# 6 0.0000 0.0000 0.0000 0.0000 0.0000 52.6752
#
#
#
# Elastic Compliance Matrix: (Units=1/GPa)
#
#
# Indices 1 2 3 4 5 6 
#
# 1 0.006432 -0.002615 -0.000148 0.000000 0.000000 0.000000
# 2 -0.002615 0.004795 -0.001888 0.000000 0.000000 0.000000
# 3 -0.000148 -0.001888 0.008040 0.000000 0.000000 0.000000
# 4 0.000000 0.000000 0.000000 -0.024453 0.000000 0.000000
# 5 0.000000 0.000000 0.000000 0.000000 0.133644 0.000000
# 6 0.000000 0.000000 0.000000 0.000000 0.000000 0.018984
#
#
# Mechanical properties :
#
#
# Convention : Reuss Voigt Hill
#
# Bulk Modulus (GPa) = 100.33941 125.03145 112.68543
# Shear Modulus (GPa) = 31.23698 32.02151 31.62924
#
# Velocity S-wave (km/s) = 3.35632 3.39821 3.37733
# Velocity P-wave (km/s) = 7.15576 7.77732 7.47301
#
# Compressibility (1/GPa) = 0.00996617
#
# Stress axis : x y z
#
# Youngs Moduli (GPa) = 155.46976 208.53117 124.37343
#
# Poissons Ratio (x) = 0.54523 0.01844
# Poissons Ratio (y) = 0.40649 0.23481
# Poissons Ratio (z) = 0.02305 0.39370
#
# Static dielectric constant tensor:
#      x y z
#    x 16.206040 0.000000 0.000000 
#    y 0.000000 2.087620 0.000000 
#    z 0.000000 0.000000 2.176350 
# 
# From -- ./inp_files/14199.got.cif
#   From: 2010.05.17/outbox.cif.g08.bks.cpg/sg23_8_cif.got.tgz:14199.got - 2010.06.04 12:02:01.
