data_PCOD9332049
_publ_section_title
;
Structure prediction by ZEFSAII (Michael W. Deem and Ramdas Pophale) SiO2 
 PCOD9332049
Probable space group: I 2 2 2
;
_chemical_formula_sum "Si O2"
_cell_formula_units_Z 46
_cell_length_a 9.841551
_cell_length_b 11.826416
_cell_length_c 24.075101
_cell_angle_alpha 90.000000
_cell_angle_beta 90.000000
_cell_angle_gamma 90.000000
_cell_volume 2802.107655
_symmetry_space_group_name_H-M "I 2 2 2"
_symmetry_group_IT_number 23
_symmetry_cell_setting 'orthorhombic'
loop_
_space_group_symop_operation_xyz
x,y,z
-x,-y,z
x,-y,-z
-x,y,-z
1/2+x,1/2+y,1/2+z
1/2-x,1/2-y,1/2+z
1/2+x,1/2-y,1/2-z
1/2-x,1/2+y,1/2-z
loop_
_atom_site_type_symbol
_atom_site_label
_atom_site_fract_x
_atom_site_fract_y
_atom_site_fract_z
Si Si1 0.328778 0.802220 0.776511
Si Si2 0.817577 0.367601 0.850026
Si Si3 0.032508 0.635514 0.061701
Si Si4 0.000000 0.000000 0.500000
Si Si5 0.500000 0.000000 0.258669
Si Si6 0.674102 0.412143 0.098935
Si Si7 0.446412 0.372123 0.785388
O O1 0.268165 0.737603 0.828965
O O2 0.440656 0.709194 0.758046
O O3 0.199566 0.836952 0.739388
O O4 0.414647 0.916007 0.779338
O O5 0.899187 0.429775 0.799687
O O6 0.724298 0.465146 0.877596
O O7 0.927116 0.321947 0.893218
O O8 0.185355 0.650270 0.083544
O O9 0.000000 0.500000 0.060768
O O10 0.000000 0.677547 0.000000
O O11 0.093157 0.071280 0.458043
O O12 0.581759 0.361273 0.148113
O O13 0.500000 0.500000 0.775974
#
# Coordination Sequence:
#
# PCOD9332049 Si02
#       7
#     8   8   8   2   4   8   8
#     4  12  23  35  56  77 112 160 194 231 283 329
#     4  11  18  35  53  76 111 150 189 229 274 337
#     4   9  17  29  51  76 108 148 184 221 281 347
#     4  12  20  28  50  76 116 154 172 226 282 344
#     4  12  20  36  53  80 110 157 194 228 272 334
#     4  11  19  33  50  79 116 145 187 225 281 342
#     4  12  23  38  54  82 114 155 193 235 280 339
#
# _framework density 16.416214
#
# number of rings (size 3 to 8) (size 9 to 14) (size 15 to 20)
#    0.000    0.870    8.696    2.087    0.000    0.000 
#    0.000    0.000    0.000    0.000    0.000    0.000 
#    0.000   43.826    0.000    0.000    0.000    0.000 
#
# Total GULP energy -128097.783749 kJ/mol
# GULP energy per Si atom -5569.468859 kJ/mol
# Density = 1.637885 g / cm^3
# Si number density = 16.416214 Si / 1000 Ang^3
#
#
#
# Elastic Constant Matrix: (Units=GPa)
#
#
# Indices 1 2 3 4 5 6 
#
# 1 115.0977 45.4006 34.7528 0.0000 0.0000 0.0000
# 2 45.4006 64.7309 38.5965 0.0000 0.0000 0.0000
# 3 34.7528 38.5965 63.2379 0.0000 0.0000 0.0000
# 4 0.0000 0.0000 0.0000 -24.6050 0.0000 0.0000
# 5 0.0000 0.0000 0.0000 0.0000 36.5960 0.0000
# 6 0.0000 0.0000 0.0000 0.0000 0.0000 35.9973
#
#
#
# Elastic Compliance Matrix: (Units=1/GPa)
#
#
# Indices 1 2 3 4 5 6 
#
# 1 0.012227 -0.007183 -0.002335 0.000000 0.000000 0.000000
# 2 -0.007183 0.028507 -0.013451 0.000000 0.000000 0.000000
# 3 -0.002335 -0.013451 0.025307 0.000000 0.000000 0.000000
# 4 0.000000 0.000000 0.000000 -0.040642 0.000000 0.000000
# 5 0.000000 0.000000 0.000000 0.000000 0.027325 0.000000
# 6 0.000000 0.000000 0.000000 0.000000 0.000000 0.027780
#
#
# Mechanical properties :
#
#
# Convention : Reuss Voigt Hill
#
# Bulk Modulus (GPa) = 49.74888 53.39625 51.57256
# Shear Modulus (GPa) = 37.55341 17.88544 27.71943
#
# Velocity S-wave (km/s) = 4.78805 3.30434 4.11364
# Velocity P-wave (km/s) = 7.80627 6.86697 7.35164
#
# Compressibility (1/GPa) = 0.02010096
#
# Stress axis : x y z
#
# Youngs Moduli (GPa) = 81.78767 35.07876 39.51548
#
# Poissons Ratio (x) = 0.25198 0.09227
# Poissons Ratio (y) = 0.58750 0.53154
# Poissons Ratio (z) = 0.19098 0.47186
#
# Static dielectric constant tensor:
#      x y z
#    x 1.636790 0.000000 0.000000 
#    y 0.000000 1.538330 0.000000 
#    z 0.000000 0.000000 1.561830 
# 
# From -- ./inp_files/29236.got.cif
#   From: 2010.05.17/outbox.cif.g08.bks.cpg/sg23_15_cif.got.tgz:29236.got - 2010.06.04 12:02:01.
