data_PCOD9332435
_publ_section_title
;
Structure prediction by ZEFSAII (Michael W. Deem and Ramdas Pophale) SiO2 
 PCOD9332435
Probable space group: I 2 2 2
;
_chemical_formula_sum "Si O2"
_cell_formula_units_Z 48
_cell_length_a 22.686124
_cell_length_b 7.593412
_cell_length_c 14.111748
_cell_angle_alpha 90.000000
_cell_angle_beta 90.000000
_cell_angle_gamma 90.000000
_cell_volume 2430.961486
_symmetry_space_group_name_H-M "I 2 2 2"
_symmetry_group_IT_number 23
_symmetry_cell_setting 'orthorhombic'
loop_
_space_group_symop_operation_xyz
x,y,z
-x,-y,z
x,-y,-z
-x,y,-z
1/2+x,1/2+y,1/2+z
1/2-x,1/2-y,1/2+z
1/2+x,1/2-y,1/2-z
1/2-x,1/2+y,1/2-z
loop_
_atom_site_type_symbol
_atom_site_label
_atom_site_fract_x
_atom_site_fract_y
_atom_site_fract_z
Si Si1 0.624225 0.092381 0.343900
Si Si2 0.250536 0.669706 0.937879
Si Si3 0.032916 0.664421 0.101889
Si Si4 0.214743 0.856909 0.124991
Si Si5 0.913119 0.018307 0.886491
Si Si6 0.811951 0.610755 0.706827
O O1 0.690145 0.140962 0.378600
O O2 0.587150 0.276201 0.354258
O O3 0.596817 0.931279 0.405811
O O4 0.631118 0.001851 0.239932
O O5 0.304367 0.734040 0.871155
O O6 0.266527 0.500000 0.000000
O O7 0.230178 0.806705 0.018345
O O8 0.000000 0.500000 0.153220
O O9 0.043918 0.856852 0.146372
O O10 0.000000 0.683478 0.000000
O O11 0.210789 0.692048 0.195001
O O12 0.152485 0.952850 0.135023
O O13 0.265883 0.974915 0.165808
O O14 0.920276 0.000000 0.000000
#
# Coordination Sequence:
#
# PCOD9332435 Si02
#       6
#     8   8   8   8   8   8
#     4  12  24  38  61  85 127 175 221 277 338 397
#     4  12  22  36  59  87 125 175 224 271 337 406
#     4  11  25  38  56  82 120 165 225 279 319 391
#     4  12  20  35  56  84 123 166 219 266 327 397
#     4  12  21  35  58  83 115 168 224 262 326 396
#     4  12  22  37  57  90 125 172 227 277 328 412
#
# _framework density 19.745273000000001
#
# number of rings (size 3 to 8) (size 9 to 14) (size 15 to 20)
#    0.000    0.167    8.333    2.500    2.333    3.000 
#    0.000    0.000    0.000    0.000    0.000    0.000 
#    0.000    2.667    0.000    5.167    0.000    0.000 
#
# Total GULP energy -133714.332353 kJ/mol
# GULP energy per Si atom -5571.430515 kJ/mol
# Density = 1.970033 g / cm^3
# Si number density = 19.745273 Si / 1000 Ang^3
#
#
#
# Elastic Constant Matrix: (Units=GPa)
#
#
# Indices 1 2 3 4 5 6 
#
# 1 55.2207 39.5057 25.5752 0.0000 0.0000 0.0000
# 2 39.5057 174.5064 37.6822 0.0000 0.0000 0.0000
# 3 25.5752 37.6822 64.9908 0.0000 0.0000 0.0000
# 4 0.0000 0.0000 0.0000 48.8191 0.0000 0.0000
# 5 0.0000 0.0000 0.0000 0.0000 29.9782 0.0000
# 6 0.0000 0.0000 0.0000 0.0000 0.0000 40.3392
#
#
#
# Elastic Compliance Matrix: (Units=1/GPa)
#
#
# Indices 1 2 3 4 5 6 
#
# 1 0.024291 -0.003927 -0.007282 0.000000 0.000000 0.000000
# 2 -0.003927 0.007185 -0.002621 0.000000 0.000000 0.000000
# 3 -0.007282 -0.002621 0.019772 0.000000 0.000000 0.000000
# 4 0.000000 0.000000 0.000000 0.020484 0.000000 0.000000
# 5 0.000000 0.000000 0.000000 0.000000 0.033358 0.000000
# 6 0.000000 0.000000 0.000000 0.000000 0.000000 0.024790
#
#
# Mechanical properties :
#
#
# Convention : Reuss Voigt Hill
#
# Bulk Modulus (GPa) = 42.39296 55.58268 48.98782
# Shear Modulus (GPa) = 30.22930 36.62427 33.42678
#
# Velocity S-wave (km/s) = 3.91700 4.31145 4.11895
# Velocity P-wave (km/s) = 6.47871 7.27982 6.89092
#
# Compressibility (1/GPa) = 0.02358882
#
# Stress axis : x y z
#
# Youngs Moduli (GPa) = 41.16735 139.17247 50.57617
#
# Poissons Ratio (x) = 0.54648 0.36831
# Poissons Ratio (y) = 0.16165 0.13256
# Poissons Ratio (z) = 0.29979 0.36476
#
# Static dielectric constant tensor:
#      x y z
#    x 1.784970 0.000000 0.000000 
#    y 0.000000 1.885190 0.000000 
#    z 0.000000 0.000000 1.695590 
# 
# From -- ./inp_files/22318.got.cif
#   From: 2010.05.17/outbox.cif.g08.bks.cpg/sg23_12_cif.got.tgz:22318.got - 2010.06.04 12:02:01.
