data_PCOD9332442
_publ_section_title
;
Structure prediction by ZEFSAII (Michael W. Deem and Ramdas Pophale) SiO2 
 PCOD9332442
Probable space group: I 2 2 2
;
_chemical_formula_sum "Si O2"
_cell_formula_units_Z 24
_cell_length_a 8.376600
_cell_length_b 8.942233
_cell_length_c 12.453829
_cell_angle_alpha 90.000000
_cell_angle_beta 90.000000
_cell_angle_gamma 90.000000
_cell_volume 932.860400
_symmetry_space_group_name_H-M "I 2 2 2"
_symmetry_group_IT_number 23
_symmetry_cell_setting 'orthorhombic'
loop_
_space_group_symop_operation_xyz
x,y,z
-x,-y,z
x,-y,-z
-x,y,-z
1/2+x,1/2+y,1/2+z
1/2-x,1/2-y,1/2+z
1/2+x,1/2-y,1/2-z
1/2-x,1/2+y,1/2-z
loop_
_atom_site_type_symbol
_atom_site_label
_atom_site_fract_x
_atom_site_fract_y
_atom_site_fract_z
Si Si1 0.944291 0.276816 0.115144
Si Si2 0.000000 0.301508 0.500000
Si Si3 0.273060 0.500000 0.500000
Si Si4 0.627767 0.366807 0.204203
O O1 0.816819 0.377150 0.180105
O O2 0.089233 0.238839 0.194512
O O3 0.867117 0.113820 0.077529
O O4 0.000000 0.337660 0.000000
O O5 0.142166 0.394692 0.556611
O O6 0.076329 0.206502 0.407503
O O7 0.500000 0.500000 0.216349
#
# Coordination Sequence:
#
# PCOD9332442 Si02
#       4
#     8   4   4   8
#     4  11  25  44  76 107 142 190 251 293 356 441
#     4   9  21  40  70 108 135 191 232 288 350 427
#     4   9  19  42  74  96 138 182 246 276 338 438
#     4  11  25  43  74 104 151 188 239 300 369 419
#
# _framework density 25.727322000000001
#
# number of rings (size 3 to 8) (size 9 to 14) (size 15 to 20)
#    0.000    1.667    0.000    3.000   14.000    0.000 
#    0.000    0.000    7.333    0.000    0.000    0.000 
#    0.000    0.000    0.000    0.000    0.000    0.000 
#
# Total GULP energy -66942.886332 kJ/mol
# GULP energy per Si atom -5578.573861 kJ/mol
# Density = 2.566877 g / cm^3
# Si number density = 25.727322 Si / 1000 Ang^3
#
#
#
# Elastic Constant Matrix: (Units=GPa)
#
#
# Indices 1 2 3 4 5 6 
#
# 1 135.4033 27.5411 58.8166 0.0000 0.0000 0.0000
# 2 27.5411 77.3899 16.0484 0.0000 0.0000 0.0000
# 3 58.8166 16.0484 170.2636 0.0000 0.0000 0.0000
# 4 0.0000 0.0000 0.0000 -81.8038 0.0000 0.0000
# 5 0.0000 0.0000 0.0000 0.0000 41.4697 0.0000
# 6 0.0000 0.0000 0.0000 0.0000 0.0000 19.4298
#
#
#
# Elastic Compliance Matrix: (Units=1/GPa)
#
#
# Indices 1 2 3 4 5 6 
#
# 1 0.009199 -0.002667 -0.002926 0.000000 0.000000 0.000000
# 2 -0.002667 0.013952 -0.000394 0.000000 0.000000 0.000000
# 3 -0.002926 -0.000394 0.006921 0.000000 0.000000 0.000000
# 4 0.000000 0.000000 0.000000 -0.012224 0.000000 0.000000
# 5 0.000000 0.000000 0.000000 0.000000 0.024114 0.000000
# 6 0.000000 0.000000 0.000000 0.000000 0.000000 0.051467
#
#
# Mechanical properties :
#
#
# Convention : Reuss Voigt Hill
#
# Bulk Modulus (GPa) = 55.25337 65.31877 60.28607
# Shear Modulus (GPa) = 44.86864 14.52917 29.69891
#
# Velocity S-wave (km/s) = 4.18066 2.37900 3.40129
# Velocity P-wave (km/s) = 6.69530 5.74371 6.23768
#
# Compressibility (1/GPa) = 0.01809845
#
# Stress axis : x y z
#
# Youngs Moduli (GPa) = 108.70836 71.67271 144.48234
#
# Poissons Ratio (x) = 0.19114 0.42281
# Poissons Ratio (y) = 0.28991 0.05690
# Poissons Ratio (z) = 0.31812 0.02823
#
# Static dielectric constant tensor:
#      x y z
#    x 2.599520 0.000000 0.000000 
#    y 0.000000 2.174960 0.000000 
#    z 0.000000 0.000000 1.948200 
# 
# From -- ./inp_files/14148.got.cif
#   From: 2010.05.17/outbox.cif.g08.bks.cpg/sg23_8_cif.got.tgz:14148.got - 2010.06.04 12:02:01.
