data_PCOD9332157
_publ_section_title
;
Structure prediction by ZEFSAII (Michael W. Deem and Ramdas Pophale) SiO2 
 PCOD9332157
Probable space group: I 2 2 2
;
_chemical_formula_sum "Si O2"
_cell_formula_units_Z 40
_cell_length_a 23.531464
_cell_length_b 9.210453
_cell_length_c 8.993242
_cell_angle_alpha 90.000000
_cell_angle_beta 90.000000
_cell_angle_gamma 90.000000
_cell_volume 1949.154291
_symmetry_space_group_name_H-M "I 2 2 2"
_symmetry_group_IT_number 23
_symmetry_cell_setting 'orthorhombic'
loop_
_space_group_symop_operation_xyz
x,y,z
-x,-y,z
x,-y,-z
-x,y,-z
1/2+x,1/2+y,1/2+z
1/2-x,1/2-y,1/2+z
1/2+x,1/2-y,1/2-z
1/2-x,1/2+y,1/2-z
loop_
_atom_site_type_symbol
_atom_site_label
_atom_site_fract_x
_atom_site_fract_y
_atom_site_fract_z
Si Si1 0.061962 0.934747 0.657775
Si Si2 0.341424 0.155633 0.572285
Si Si3 0.850747 0.096674 0.127861
Si Si4 0.789371 0.160065 0.425285
Si Si5 0.616371 0.852591 0.907570
O O1 0.065457 0.762940 0.623966
O O2 0.081130 0.000000 0.500000
O O3 0.103771 0.995660 0.784879
O O4 0.000000 0.000000 0.687693
O O5 0.375148 0.267438 0.465602
O O6 0.275921 0.207766 0.568596
O O7 0.360471 0.130413 0.740662
O O8 0.343769 0.000000 0.500000
O O9 0.808233 0.148748 0.254331
O O10 0.823015 0.000000 0.000000
O O11 0.833733 0.266985 0.504657
O O12 0.791917 0.000000 0.500000
O O13 0.603373 0.000000 0.000000
#
# Coordination Sequence:
#
# PCOD9332157 Si02
#       5
#     8   8   8   8   8
#     4  11  24  47  75  97 124 179 237 283 353 421
#     4  11  25  37  61 101 140 185 226 276 345 395
#     4  12  21  40  68  96 136 171 232 291 329 405
#     4  11  21  40  62  94 140 191 228 263 332 428
#     4  12  23  43  67  97 139 175 227 293 339 414
#
# _framework density 20.521720999999999
#
# number of rings (size 3 to 8) (size 9 to 14) (size 15 to 20)
#    0.000    0.600    6.000    2.400    0.000    6.800 
#    0.000    2.000    0.000    1.200    0.000    0.000 
#    0.000    0.000    0.000    0.000    0.000    0.000 
#
# Total GULP energy -111585.952991 kJ/mol
# GULP energy per Si atom -5579.297650 kJ/mol
# Density = 2.047501 g / cm^3
# Si number density = 20.521721 Si / 1000 Ang^3
#
#
#
# Elastic Constant Matrix: (Units=GPa)
#
#
# Indices 1 2 3 4 5 6 
#
# 1 54.7606 38.0997 23.6571 0.0000 0.0000 0.0000
# 2 38.0997 154.6397 62.6131 0.0000 0.0000 0.0000
# 3 23.6571 62.6131 177.9857 0.0000 0.0000 0.0000
# 4 0.0000 0.0000 0.0000 50.7368 0.0000 0.0000
# 5 0.0000 0.0000 0.0000 0.0000 69.9531 0.0000
# 6 0.0000 0.0000 0.0000 0.0000 0.0000 8.6861
#
#
#
# Elastic Compliance Matrix: (Units=1/GPa)
#
#
# Indices 1 2 3 4 5 6 
#
# 1 0.022257 -0.004998 -0.001200 0.000000 0.000000 0.000000
# 2 -0.004998 0.008663 -0.002383 0.000000 0.000000 0.000000
# 3 -0.001200 -0.002383 0.006616 0.000000 0.000000 0.000000
# 4 0.000000 0.000000 0.000000 0.019710 0.000000 0.000000
# 5 0.000000 0.000000 0.000000 0.000000 0.014295 0.000000
# 6 0.000000 0.000000 0.000000 0.000000 0.000000 0.115127
#
#
# Mechanical properties :
#
#
# Convention : Reuss Voigt Hill
#
# Bulk Modulus (GPa) = 49.08210 70.68067 59.88139
# Shear Modulus (GPa) = 23.73929 43.40960 33.57444
#
# Velocity S-wave (km/s) = 3.40485 4.60423 4.04919
# Velocity P-wave (km/s) = 6.27904 7.92350 7.14872
#
# Compressibility (1/GPa) = 0.02037403
#
# Stress axis : x y z
#
# Youngs Moduli (GPa) = 44.92986 115.43457 151.14081
#
# Poissons Ratio (x) = 0.57690 0.18140
# Poissons Ratio (y) = 0.22454 0.36020
# Poissons Ratio (z) = 0.05392 0.27511
#
# Static dielectric constant tensor:
#      x y z
#    x 1.749380 0.000000 0.000000 
#    y 0.000000 1.792620 0.000000 
#    z 0.000000 0.000000 1.718910 
# 
# From -- ./inp_files/6893.got.cif
#   From: 2010.05.17/outbox.cif.g08.bks.cpg/sg23_4_cif.got.tgz:6893.got - 2010.06.04 12:02:01.
