data_PCOD9332451
_publ_section_title
;
Structure prediction by ZEFSAII (Michael W. Deem and Ramdas Pophale) SiO2 
 PCOD9332451
Probable space group: I 2 2 2
;
_chemical_formula_sum "Si O2"
_cell_formula_units_Z 54
_cell_length_a 14.579108
_cell_length_b 14.906293
_cell_length_c 11.304430
_cell_angle_alpha 90.000000
_cell_angle_beta 90.000000
_cell_angle_gamma 90.000000
_cell_volume 2456.683877
_symmetry_space_group_name_H-M "I 2 2 2"
_symmetry_group_IT_number 23
_symmetry_cell_setting 'orthorhombic'
loop_
_space_group_symop_operation_xyz
x,y,z
-x,-y,z
x,-y,-z
-x,y,-z
1/2+x,1/2+y,1/2+z
1/2-x,1/2-y,1/2+z
1/2+x,1/2-y,1/2-z
1/2-x,1/2+y,1/2-z
loop_
_atom_site_type_symbol
_atom_site_label
_atom_site_fract_x
_atom_site_fract_y
_atom_site_fract_z
Si Si1 0.813312 0.200536 0.948837
Si Si2 0.278785 0.439830 0.767518
Si Si3 0.000000 0.000000 0.000000
Si Si4 0.000000 0.308147 0.000000
Si Si5 0.519504 0.733765 0.163726
Si Si6 0.871313 0.888480 0.832159
Si Si7 0.063485 0.415188 0.766151
Si Si8 0.350147 0.681909 0.031401
O O1 0.805951 0.128898 0.841347
O O2 0.912373 0.249382 0.955755
O O3 0.799438 0.154379 0.077455
O O4 0.731710 0.272578 0.956231
O O5 0.323481 0.537191 0.748727
O O6 0.169222 0.443087 0.768922
O O7 0.311824 0.399567 0.892312
O O8 0.062755 0.057659 0.917479
O O9 0.033458 0.370314 0.891001
O O10 0.562568 0.687049 0.278440
O O11 0.551044 0.836524 0.169076
O O12 0.411803 0.733176 0.132632
O O13 0.573120 0.673169 0.068342
O O14 0.000000 0.500000 0.741741
#
# Coordination Sequence:
#
# PCOD9332451 Si02
#       8
#     8   8   2   4   8   8   8   8
#     4  12  24  45  76 106 148 196 252 306 373 445
#     4  12  25  47  73 113 148 191 251 315 367 447
#     4  12  22  40  66 118 140 180 242 308 358 434
#     4  12  24  48  76 106 148 200 249 303 375 441
#     4  11  25  48  73 103 149 204 241 305 382 449
#     4  12  25  42  73 109 147 189 249 305 375 430
#     4  12  27  47  71 107 147 193 248 308 372 444
#     4  11  25  46  73 104 147 198 248 297 383 450
#
# _framework density 21.98085
#
# number of rings (size 3 to 8) (size 9 to 14) (size 15 to 20)
#    0.000    0.296    5.926    2.444    2.074    1.778 
#    2.667    2.963    0.000    0.000    0.000    0.000 
#    0.000    0.000    0.000    0.000    0.000    0.000 
#
# Total GULP energy -150675.714728 kJ/mol
# GULP energy per Si atom -5580.582027 kJ/mol
# Density = 2.193082 g / cm^3
# Si number density = 21.980850 Si / 1000 Ang^3
#
#
#
# Elastic Constant Matrix: (Units=GPa)
#
#
# Indices 1 2 3 4 5 6 
#
# 1 142.7403 45.6465 8.4472 0.0000 0.0000 0.0000
# 2 45.6465 96.5028 15.0795 0.0000 0.0000 0.0000
# 3 8.4472 15.0795 59.0443 0.0000 0.0000 0.0000
# 4 0.0000 0.0000 0.0000 1.2189 0.0000 0.0000
# 5 0.0000 0.0000 0.0000 0.0000 39.1184 0.0000
# 6 0.0000 0.0000 0.0000 0.0000 0.0000 -58.7793
#
#
#
# Elastic Compliance Matrix: (Units=1/GPa)
#
#
# Indices 1 2 3 4 5 6 
#
# 1 0.008256 -0.003875 -0.000191 0.000000 0.000000 0.000000
# 2 -0.003875 0.012612 -0.002667 0.000000 0.000000 0.000000
# 3 -0.000191 -0.002667 0.017645 0.000000 0.000000 0.000000
# 4 0.000000 0.000000 0.000000 0.820417 0.000000 0.000000
# 5 0.000000 0.000000 0.000000 0.000000 0.025563 0.000000
# 6 0.000000 0.000000 0.000000 0.000000 0.000000 -0.017013
#
#
# Mechanical properties :
#
#
# Convention : Reuss Voigt Hill
#
# Bulk Modulus (GPa) = 39.92582 48.51487 44.22035
# Shear Modulus (GPa) = 5.62242 11.58587 8.60414
#
# Velocity S-wave (km/s) = 1.60107 2.29833 1.98063
# Velocity P-wave (km/s) = 4.64986 5.40023 5.03903
#
# Compressibility (1/GPa) = 0.02504645
#
# Stress axis : x y z
#
# Youngs Moduli (GPa) = 121.11872 79.28849 56.67373
#
# Poissons Ratio (x) = 0.30727 0.01085
# Poissons Ratio (y) = 0.46938 0.15113
# Poissons Ratio (z) = 0.02319 0.21143
#
# Static dielectric constant tensor:
#      x y z
#    x 1.801460 0.000000 0.000000 
#    y 0.000000 1.785540 0.000000 
#    z 0.000000 0.000000 1.923930 
# 
# From -- ./inp_files/16825.got.cif
#   From: 2010.05.17/outbox.cif.g08.bks.cpg/sg23_9_cif.got.tgz:16825.got - 2010.06.04 12:02:01.
