data_PCOD9332044
_publ_section_title
;
Structure prediction by ZEFSAII (Michael W. Deem and Ramdas Pophale) SiO2 
 PCOD9332044
Probable space group: I 2 2 2
;
_chemical_formula_sum "Si O2"
_cell_formula_units_Z 56
_cell_length_a 16.304501
_cell_length_b 5.840019
_cell_length_c 25.209354
_cell_angle_alpha 90.000000
_cell_angle_beta 90.000000
_cell_angle_gamma 90.000000
_cell_volume 2400.399285
_symmetry_space_group_name_H-M "I 2 2 2"
_symmetry_group_IT_number 23
_symmetry_cell_setting 'orthorhombic'
loop_
_space_group_symop_operation_xyz
x,y,z
-x,-y,z
x,-y,-z
-x,y,-z
1/2+x,1/2+y,1/2+z
1/2-x,1/2-y,1/2+z
1/2+x,1/2-y,1/2-z
1/2-x,1/2+y,1/2-z
loop_
_atom_site_type_symbol
_atom_site_label
_atom_site_fract_x
_atom_site_fract_y
_atom_site_fract_z
Si Si1 0.794113 0.682670 0.372079
Si Si2 0.382418 0.324091 0.265009
Si Si3 0.862084 0.046240 0.442893
Si Si4 0.225819 0.544381 0.795211
Si Si5 0.072729 0.680681 0.346328
Si Si6 0.817542 0.252980 0.970551
Si Si7 0.640503 0.417032 0.364904
O O1 0.846894 0.479839 0.347910
O O2 0.701179 0.616377 0.384766
O O3 0.836611 0.795765 0.422106
O O4 0.783923 0.885526 0.330519
O O5 0.287264 0.395015 0.252140
O O6 0.429431 0.318183 0.209400
O O7 0.410539 0.464099 0.316843
O O8 0.361924 0.063134 0.279920
O O9 0.917936 0.162676 0.398203
O O10 0.776922 0.193869 0.450655
O O11 0.899850 0.000000 0.500000
O O12 0.198196 0.746907 0.832485
O O13 0.000000 0.500000 0.349389
O O14 0.878643 0.215780 0.919508
O O15 0.837376 0.500000 0.000000
O O16 0.818883 0.000000 0.000000
#
# Coordination Sequence:
#
# PCOD9332044 Si02
#       7
#     8   8   8   8   8   8   8
#     4  11  19  37  56  79 112 146 207 263 330 383
#     4  11  20  33  56  84 111 150 200 260 328 389
#     4  11  23  38  59  77 109 153 213 276 333 379
#     4  11  18  31  56  85 110 139 192 255 310 398
#     4  12  26  42  56  77 114 163 221 281 334 382
#     4  11  22  36  60  90 125 163 201 257 332 397
#     4  11  20  32  57  87 118 150 200 252 320 408
#
# _framework density 23.329450000000001
#
# number of rings (size 3 to 8) (size 9 to 14) (size 15 to 20)
#    0.000    0.857    7.143    2.571    2.000    0.571 
#    0.000    2.143    0.000    0.000    0.000    0.000 
#    0.000    0.000    0.000    3.857    2.000    2.000 
#
# Total GULP energy -155977.525016 kJ/mol
# GULP energy per Si atom -5570.625893 kJ/mol
# Density = 2.327635 g / cm^3
# Si number density = 23.329450 Si / 1000 Ang^3
#
#
#
# Elastic Constant Matrix: (Units=GPa)
#
#
# Indices 1 2 3 4 5 6 
#
# 1 41.8100 17.1911 34.7919 0.0000 0.0000 0.0000
# 2 17.1911 98.3298 65.8446 0.0000 0.0000 0.0000
# 3 34.7919 65.8446 200.0551 0.0000 0.0000 0.0000
# 4 0.0000 0.0000 0.0000 44.8204 0.0000 0.0000
# 5 0.0000 0.0000 0.0000 0.0000 -2.2840 0.0000
# 6 0.0000 0.0000 0.0000 0.0000 0.0000 11.0422
#
#
#
# Elastic Compliance Matrix: (Units=1/GPa)
#
#
# Indices 1 2 3 4 5 6 
#
# 1 0.028305 -0.002119 -0.004225 0.000000 0.000000 0.000000
# 2 -0.002119 0.013204 -0.003977 0.000000 0.000000 0.000000
# 3 -0.004225 -0.003977 0.007042 0.000000 0.000000 0.000000
# 4 0.000000 0.000000 0.000000 0.022311 0.000000 0.000000
# 5 0.000000 0.000000 0.000000 0.000000 -0.437834 0.000000
# 6 0.000000 0.000000 0.000000 0.000000 0.000000 0.090561
#
#
# Mechanical properties :
#
#
# Convention : Reuss Voigt Hill
#
# Bulk Modulus (GPa) = 35.83215 63.98334 49.90774
# Shear Modulus (GPa) = -20.28692 25.54022 2.62665
#
# Velocity S-wave (km/s) = -2.95207 3.31231 1.06223
# Velocity P-wave (km/s) = 1.94240 6.48953 4.78994
#
# Compressibility (1/GPa) = 0.02790790
#
# Stress axis : x y z
#
# Youngs Moduli (GPa) = 35.32949 75.73687 141.99694
#
# Poissons Ratio (x) = 0.16052 0.59994
# Poissons Ratio (y) = 0.07488 0.56474
# Poissons Ratio (z) = 0.14927 0.30122
#
# Static dielectric constant tensor:
#      x y z
#    x 1.921880 0.000000 0.000000 
#    y 0.000000 2.003020 0.000000 
#    z 0.000000 0.000000 2.075200 
# 
# From -- ./inp_files/28684.got.cif
#   From: 2010.05.17/outbox.cif.g08.bks.cpg/sg23_15_cif.got.tgz:28684.got - 2010.06.04 12:02:01.
