data_PCOD9332054
_publ_section_title
;
Structure prediction by ZEFSAII (Michael W. Deem and Ramdas Pophale) SiO2 
 PCOD9332054
Probable space group: I 2 2 2
;
_chemical_formula_sum "Si O2"
_cell_formula_units_Z 42
_cell_length_a 17.378794
_cell_length_b 10.638540
_cell_length_c 9.033961
_cell_angle_alpha 90.000000
_cell_angle_beta 90.000000
_cell_angle_gamma 90.000000
_cell_volume 1670.243835
_symmetry_space_group_name_H-M "I 2 2 2"
_symmetry_group_IT_number 23
_symmetry_cell_setting 'orthorhombic'
loop_
_space_group_symop_operation_xyz
x,y,z
-x,-y,z
x,-y,-z
-x,y,-z
1/2+x,1/2+y,1/2+z
1/2-x,1/2-y,1/2+z
1/2+x,1/2-y,1/2-z
1/2-x,1/2+y,1/2-z
loop_
_atom_site_type_symbol
_atom_site_label
_atom_site_fract_x
_atom_site_fract_y
_atom_site_fract_z
Si Si1 0.647727 0.688385 0.424916
Si Si2 0.355357 0.552942 0.853334
Si Si3 0.804823 0.444834 0.210337
Si Si4 0.324383 0.817236 0.005247
Si Si5 0.600880 0.180372 0.309736
Si Si6 0.500000 0.000000 0.500000
O O1 0.609512 0.597316 0.303733
O O2 0.650642 0.832938 0.370897
O O3 0.738956 0.658497 0.429715
O O4 0.613475 0.697055 0.589277
O O5 0.286607 0.453191 0.816885
O O6 0.397763 0.500000 0.000000
O O7 0.322976 0.687037 0.912883
O O8 0.831706 0.421510 0.377781
O O9 0.831235 0.580417 0.159054
O O10 0.388380 0.802849 0.133757
O O11 0.531922 0.101527 0.379147
#
# Coordination Sequence:
#
# PCOD9332054 Si02
#       6
#     8   8   8   8   8   2
#     4  11  20  34  59  89 136 172 209 279 345 409
#     4  11  21  34  55  92 135 171 206 269 360 414
#     4  11  19  35  55  87 135 168 204 267 336 417
#     4  11  22  33  59  94 133 174 215 283 341 405
#     4  12  22  42  59  91 127 178 236 262 341 409
#     4  12  28  44  70  84 142 204 218 286 328 412
#
# _framework density 25.14603
#
# number of rings (size 3 to 8) (size 9 to 14) (size 15 to 20)
#    0.000    0.762    7.619    1.714    0.000    0.000 
#    0.000    1.905    0.000    0.000    0.000    4.000 
#    0.000    0.000    0.000    0.000    0.000    0.000 
#
# Total GULP energy -117027.712254 kJ/mol
# GULP energy per Si atom -5572.748203 kJ/mol
# Density = 2.508880 g / cm^3
# Si number density = 25.146030 Si / 1000 Ang^3
#
#
#
# Elastic Constant Matrix: (Units=GPa)
#
#
# Indices 1 2 3 4 5 6 
#
# 1 17.3816 5.6633 24.4231 0.0000 0.0000 0.0000
# 2 5.6633 84.0642 50.4838 0.0000 0.0000 0.0000
# 3 24.4231 50.4838 221.0738 0.0000 0.0000 0.0000
# 4 0.0000 0.0000 0.0000 69.8459 0.0000 0.0000
# 5 0.0000 0.0000 0.0000 0.0000 19.3447 0.0000
# 6 0.0000 0.0000 0.0000 0.0000 0.0000 12.0015
#
#
#
# Elastic Compliance Matrix: (Units=1/GPa)
#
#
# Indices 1 2 3 4 5 6 
#
# 1 0.068104 -0.000081 -0.007505 0.000000 0.000000 0.000000
# 2 -0.000081 0.013786 -0.003139 0.000000 0.000000 0.000000
# 3 -0.007505 -0.003139 0.006069 0.000000 0.000000 0.000000
# 4 0.000000 0.000000 0.000000 0.014317 0.000000 0.000000
# 5 0.000000 0.000000 0.000000 0.000000 0.051694 0.000000
# 6 0.000000 0.000000 0.000000 0.000000 0.000000 0.083323
#
#
# Mechanical properties :
#
#
# Convention : Reuss Voigt Hill
#
# Bulk Modulus (GPa) = 15.03551 53.74000 34.38776
# Shear Modulus (GPa) = 17.79897 36.36837 27.08367
#
# Velocity S-wave (km/s) = 2.66338 3.80713 3.28541
# Velocity P-wave (km/s) = 3.93070 6.38304 5.30064
#
# Compressibility (1/GPa) = 0.06650920
#
# Stress axis : x y z
#
# Youngs Moduli (GPa) = 14.68334 72.53536 164.76064
#
# Poissons Ratio (x) = 0.00586 1.23659
# Poissons Ratio (y) = 0.00119 0.51723
# Poissons Ratio (z) = 0.11020 0.22771
#
# Static dielectric constant tensor:
#      x y z
#    x 1.984560 0.000000 0.000000 
#    y 0.000000 2.046950 0.000000 
#    z 0.000000 0.000000 2.144590 
# 
# From -- ./inp_files/12532.got.cif
#   From: 2010.05.17/outbox.cif.g08.bks.cpg/sg23_7_cif.got.tgz:12532.got - 2010.06.04 12:02:01.
