data_PCOD9332686
_publ_section_title
;
Structure prediction by ZEFSAII (Michael W. Deem and Ramdas Pophale) SiO2 
 PCOD9332686
Probable space group: I 21 21 21
;
_chemical_formula_sum "Si O2"
_cell_formula_units_Z 52
_cell_length_a 11.152521
_cell_length_b 9.098785
_cell_length_c 30.539776
_cell_angle_alpha 90.000000
_cell_angle_beta 90.000000
_cell_angle_gamma 90.000000
_cell_volume 3099.005164
_symmetry_space_group_name_H-M "I 21 21 21"
_symmetry_group_IT_number 24
_symmetry_cell_setting 'orthorhombic'
loop_
_space_group_symop_operation_xyz
x,y,z
-x,1/2-y,z
x,-y,1/2-z
1/2-x,y,-z
1/2+x,1/2+y,1/2+z
1/2-x,-y,1/2+z
1/2+x,1/2-y,-z
-x,1/2+y,1/2-z
loop_
_atom_site_type_symbol
_atom_site_label
_atom_site_fract_x
_atom_site_fract_y
_atom_site_fract_z
Si Si1 0.868121 0.680392 0.530114
Si Si2 0.210757 0.731620 0.701620
Si Si3 0.331384 0.931325 0.173208
Si Si4 0.500000 0.750000 0.233081
Si Si5 0.051200 0.093578 0.581555
Si Si6 0.613002 0.662955 0.769335
Si Si7 0.385306 0.351011 0.117860
O O1 0.750000 0.692486 0.500000
O O2 0.895446 0.511936 0.544029
O O3 0.837675 0.765278 0.575498
O O4 0.000000 0.750000 0.516078
O O5 0.105185 0.693420 0.735392
O O6 0.331239 0.742420 0.729326
O O7 0.202870 0.633999 0.658468
O O8 0.186091 0.896966 0.683645
O O9 0.442753 0.873053 0.201935
O O10 0.356890 0.897910 0.122556
O O11 0.215232 0.854626 0.194025
O O12 0.000000 0.250000 0.567339
O O13 0.940030 0.002970 0.602029
O O14 0.500000 0.750000 0.786576
O O15 0.588007 0.500000 0.750000
O O16 0.500000 0.250000 0.132224
#
# Coordination Sequence:
#
# PCOD9332686 Si02
#       7
#     8   8   8   4   8   8   8
#     4   9  19  37  63  87 110 142 177 230 284 349
#     4  10  16  30  48  70 100 137 180 219 270 302
#     4  10  17  29  49  69 104 140 175 218 269 312
#     4  10  16  22  42  80 100 128 164 218 260 324
#     4  10  18  32  53  84 114 138 165 219 287 334
#     4   9  20  34  46  61  98 148 189 224 258 313
#     4   9  16  30  54  76 107 129 171 224 267 325
#
# _framework density 16.779578000000001
#
# number of rings (size 3 to 8) (size 9 to 14) (size 15 to 20)
#    0.000    2.769    4.615    1.385    0.000    0.000 
#    2.769    6.923    0.000    0.923    0.000    0.000 
#    0.000    0.000    0.000    0.000    0.000    0.000 
#
# Total GULP energy -144777.413551 kJ/mol
# GULP energy per Si atom -5568.362060 kJ/mol
# Density = 1.674139 g / cm^3
# Si number density = 16.779578 Si / 1000 Ang^3
#
#
#
# Elastic Constant Matrix: (Units=GPa)
#
#
# Indices 1 2 3 4 5 6 
#
# 1 79.0322 27.4081 41.4843 0.0000 0.0000 0.0000
# 2 27.4081 51.8061 12.6914 0.0000 0.0000 0.0000
# 3 41.4843 12.6914 65.8907 0.0000 0.0000 0.0000
# 4 0.0000 0.0000 0.0000 16.3712 0.0000 0.0000
# 5 0.0000 0.0000 0.0000 0.0000 14.5461 0.0000
# 6 0.0000 0.0000 0.0000 0.0000 0.0000 18.2661
#
#
#
# Elastic Compliance Matrix: (Units=1/GPa)
#
#
# Indices 1 2 3 4 5 6 
#
# 1 0.022087 -0.008689 -0.012232 0.000000 0.000000 0.000000
# 2 -0.008689 0.023677 0.000910 0.000000 0.000000 0.000000
# 3 -0.012232 0.000910 0.022703 0.000000 0.000000 0.000000
# 4 0.000000 0.000000 0.000000 0.061083 0.000000 0.000000
# 5 0.000000 0.000000 0.000000 0.000000 0.068747 0.000000
# 6 0.000000 0.000000 0.000000 0.000000 0.000000 0.054746
#
#
# Mechanical properties :
#
#
# Convention : Reuss Voigt Hill
#
# Bulk Modulus (GPa) = 35.15638 39.98851 37.57244
# Shear Modulus (GPa) = 16.52641 17.51302 17.01972
#
# Velocity S-wave (km/s) = 3.14174 3.23416 3.18828
# Velocity P-wave (km/s) = 5.84449 6.15059 5.99949
#
# Compressibility (1/GPa) = 0.02844434
#
# Stress axis : x y z
#
# Youngs Moduli (GPa) = 45.27549 42.23584 44.04755
#
# Poissons Ratio (x) = 0.36697 0.53880
# Poissons Ratio (y) = 0.39338 -0.04008
# Poissons Ratio (z) = 0.55382 -0.03843
#
# Static dielectric constant tensor:
#      x y z
#    x 1.575390 0.000000 0.000000 
#    y 0.000000 1.619350 0.000000 
#    z 0.000000 0.000000 1.575360 
# 
# From -- ./inp_files/38563.got.cif
#   From: 2010.05.17/outbox.cif.g08.bks.cpg/sg24_20_cif.got.tgz:38563.got - 2010.06.04 00:33:39.
