data_PCOD9332429
_publ_section_title
;
Structure prediction by ZEFSAII (Michael W. Deem and Ramdas Pophale) SiO2 
 PCOD9332429
Probable space group: I 2 2 2
;
_chemical_formula_sum "Si O2"
_cell_formula_units_Z 36
_cell_length_a 13.627983
_cell_length_b 4.929366
_cell_length_c 21.178221
_cell_angle_alpha 90.000000
_cell_angle_beta 90.000000
_cell_angle_gamma 90.000000
_cell_volume 1422.696045
_symmetry_space_group_name_H-M "I 2 2 2"
_symmetry_group_IT_number 23
_symmetry_cell_setting 'orthorhombic'
loop_
_space_group_symop_operation_xyz
x,y,z
-x,-y,z
x,-y,-z
-x,y,-z
1/2+x,1/2+y,1/2+z
1/2-x,1/2-y,1/2+z
1/2+x,1/2-y,1/2-z
1/2-x,1/2+y,1/2-z
loop_
_atom_site_type_symbol
_atom_site_label
_atom_site_fract_x
_atom_site_fract_y
_atom_site_fract_z
Si Si1 0.291172 0.640662 0.142539
Si Si2 0.928929 0.236988 0.753012
Si Si3 0.600834 0.125919 0.899425
Si Si4 0.902359 0.670958 0.110562
Si Si5 0.500000 0.500000 0.500000
Si Si6 0.500000 0.500000 0.000000
O O1 0.329469 0.867774 0.093517
O O2 0.185102 0.545239 0.119459
O O3 0.347077 0.353469 0.141229
O O4 0.433655 0.298939 0.040816
O O5 0.831578 0.264580 0.709157
O O6 0.895582 0.158707 0.824322
O O7 0.000000 0.500000 0.756585
O O8 0.000000 0.000000 0.729449
O O9 0.500000 0.000000 0.873345
O O10 0.000000 0.500000 0.114423
O O11 0.924834 0.838201 0.046805
#
# Coordination Sequence:
#
# PCOD9332429 Si02
#       6
#     8   8   8   8   2   2
#     4  12  27  46  82 120 160 211 278 342 429 494
#     4  11  24  47  83 122 165 207 263 356 436 504
#     4  12  25  48  72 115 163 210 265 342 417 506
#     4  11  29  54  82 118 166 223 286 352 411 499
#     4  12  26  64  82 110 182 234 304 348 416 490
#     4  12  26  48  76 108 180 212 270 330 418 512
#
# _framework density 25.304072000000001
#
# number of rings (size 3 to 8) (size 9 to 14) (size 15 to 20)
#    0.000    0.444    3.333    4.000    3.111    5.333 
#    8.000    0.000    0.000    0.000    0.000    0.000 
#    0.000    0.000    0.000    0.000    0.000    0.000 
#
# Total GULP energy -100513.984404 kJ/mol
# GULP energy per Si atom -5584.110245 kJ/mol
# Density = 2.524648 g / cm^3
# Si number density = 25.304072 Si / 1000 Ang^3
#
#
#
# Elastic Constant Matrix: (Units=GPa)
#
#
# Indices 1 2 3 4 5 6 
#
# 1 177.8236 81.1580 87.4953 0.0000 0.0000 0.0000
# 2 81.1580 164.5496 46.8806 0.0000 0.0000 0.0000
# 3 87.4953 46.8806 160.9233 0.0000 0.0000 0.0000
# 4 0.0000 0.0000 0.0000 41.1706 0.0000 0.0000
# 5 0.0000 0.0000 0.0000 0.0000 16.5821 0.0000
# 6 0.0000 0.0000 0.0000 0.0000 0.0000 54.9264
#
#
#
# Elastic Compliance Matrix: (Units=1/GPa)
#
#
# Indices 1 2 3 4 5 6 
#
# 1 0.009115 -0.003363 -0.003976 0.000000 0.000000 0.000000
# 2 -0.003363 0.007868 -0.000464 0.000000 0.000000 0.000000
# 3 -0.003976 -0.000464 0.008511 0.000000 0.000000 0.000000
# 4 0.000000 0.000000 0.000000 0.024289 0.000000 0.000000
# 5 0.000000 0.000000 0.000000 0.000000 0.060306 0.000000
# 6 0.000000 0.000000 0.000000 0.000000 0.000000 0.018206
#
#
# Mechanical properties :
#
#
# Convention : Reuss Voigt Hill
#
# Bulk Modulus (GPa) = 101.12743 103.81826 102.47284
# Shear Modulus (GPa) = 33.96827 41.71997 37.84412
#
# Velocity S-wave (km/s) = 3.66786 4.06488 3.87146
# Velocity P-wave (km/s) = 7.61506 7.94659 7.78259
#
# Compressibility (1/GPa) = 0.00988851
#
# Stress axis : x y z
#
# Youngs Moduli (GPa) = 109.71392 127.09982 117.49404
#
# Poissons Ratio (x) = 0.42739 0.46716
# Poissons Ratio (y) = 0.36893 0.05449
# Poissons Ratio (z) = 0.43623 0.05895
#
# Static dielectric constant tensor:
#      x y z
#    x 2.040140 0.000000 0.000000 
#    y 0.000000 2.039080 0.000000 
#    z 0.000000 0.000000 2.127950 
# 
# From -- ./inp_files/28205.got.cif
#   From: 2010.05.17/outbox.cif.g08.bks.cpg/sg23_15_cif.got.tgz:28205.got - 2010.06.04 12:02:01.
