data_PCOD9332264
_publ_section_title
;
Structure prediction by ZEFSAII (Michael W. Deem and Ramdas Pophale) SiO2 
 PCOD9332264
Probable space group: I 2 2 2
;
_chemical_formula_sum "Si O2"
_cell_formula_units_Z 58
_cell_length_a 30.524828
_cell_length_b 8.706751
_cell_length_c 9.583823
_cell_angle_alpha 90.000000
_cell_angle_beta 90.000000
_cell_angle_gamma 90.000000
_cell_volume 2547.112542
_symmetry_space_group_name_H-M "I 2 2 2"
_symmetry_group_IT_number 23
_symmetry_cell_setting 'orthorhombic'
loop_
_space_group_symop_operation_xyz
x,y,z
-x,-y,z
x,-y,-z
-x,y,-z
1/2+x,1/2+y,1/2+z
1/2-x,1/2-y,1/2+z
1/2+x,1/2-y,1/2-z
1/2-x,1/2+y,1/2-z
loop_
_atom_site_type_symbol
_atom_site_label
_atom_site_fract_x
_atom_site_fract_y
_atom_site_fract_z
Si Si1 0.500000 0.000000 0.500000
Si Si2 0.665254 0.769217 0.439881
Si Si3 0.806993 0.075920 0.299953
Si Si4 0.160953 0.239894 0.435309
Si Si5 0.493973 0.329604 0.166491
Si Si6 0.925555 0.340819 0.172892
Si Si7 0.797489 0.423626 0.797755
Si Si8 0.928945 0.391901 0.628999
O O1 0.532655 0.107047 0.585684
O O2 0.680570 0.619854 0.356919
O O3 0.613016 0.779911 0.423317
O O4 0.682434 0.797715 0.594959
O O5 0.684992 0.913719 0.352873
O O6 0.825358 0.205784 0.406183
O O7 0.754718 0.072632 0.312023
O O8 0.827410 0.917205 0.353927
O O9 0.187796 0.373468 0.356355
O O10 0.110110 0.283880 0.422764
O O11 0.500000 0.500000 0.225767
O O12 0.446211 0.274593 0.214245
O O13 0.531875 0.204944 0.197923
O O14 0.500000 0.338783 0.000000
O O15 0.909981 0.491173 0.256601
O O16 0.944644 0.500000 0.500000
#
# Coordination Sequence:
#
# PCOD9332264 Si02
#       8
#     2   8   8   8   8   8   8   8
#     4  12  24  40  72  92 128 188 226 270 316 400
#     4  11  24  41  69  97 135 173 226 282 334 402
#     4  11  24  43  65  98 139 175 219 285 345 394
#     4  11  25  40  66  98 131 175 222 276 336 402
#     4  11  25  41  70  99 132 167 208 281 346 396
#     4  12  24  43  67  99 130 176 231 271 329 399
#     4  11  22  44  67  97 130 182 227 274 331 412
#     4  12  23  43  68  98 130 168 225 276 334 404
#
# _framework density 22.770883000000001
#
# number of rings (size 3 to 8) (size 9 to 14) (size 15 to 20)
#    0.000    0.690    4.138    4.966    1.931    1.655 
#    0.000    3.103    3.034    0.000    0.000    0.000 
#    0.000    0.000    0.000    0.000    0.000    0.000 
#
# Total GULP energy -162290.179414 kJ/mol
# GULP energy per Si atom -5596.213083 kJ/mol
# Density = 2.271906 g / cm^3
# Si number density = 22.770883 Si / 1000 Ang^3
#
#
#
# Elastic Constant Matrix: (Units=GPa)
#
#
# Indices 1 2 3 4 5 6 
#
# 1 163.8469 31.3533 20.0699 0.0000 0.0000 0.0000
# 2 31.3533 65.6407 17.5572 0.0000 0.0000 0.0000
# 3 20.0699 17.5572 66.3403 0.0000 0.0000 0.0000
# 4 0.0000 0.0000 0.0000 32.7860 0.0000 0.0000
# 5 0.0000 0.0000 0.0000 0.0000 31.2966 0.0000
# 6 0.0000 0.0000 0.0000 0.0000 0.0000 20.6124
#
#
#
# Elastic Compliance Matrix: (Units=1/GPa)
#
#
# Indices 1 2 3 4 5 6 
#
# 1 0.006819 -0.002911 -0.001292 0.000000 0.000000 0.000000
# 2 -0.002911 0.017638 -0.003787 0.000000 0.000000 0.000000
# 3 -0.001292 -0.003787 0.016467 0.000000 0.000000 0.000000
# 4 0.000000 0.000000 0.000000 0.030501 0.000000 0.000000
# 5 0.000000 0.000000 0.000000 0.000000 0.031952 0.000000
# 6 0.000000 0.000000 0.000000 0.000000 0.000000 0.048515
#
#
# Mechanical properties :
#
#
# Convention : Reuss Voigt Hill
#
# Bulk Modulus (GPa) = 40.09297 48.19875 44.14586
# Shear Modulus (GPa) = 28.37891 32.06216 30.22053
#
# Velocity S-wave (km/s) = 3.53410 3.75645 3.64697
# Velocity P-wave (km/s) = 5.85649 6.32671 6.09614
#
# Compressibility (1/GPa) = 0.02494203
#
# Stress axis : x y z
#
# Youngs Moduli (GPa) = 146.65653 56.69572 60.72728
#
# Poissons Ratio (x) = 0.16506 0.07848
# Poissons Ratio (y) = 0.42696 0.22999
# Poissons Ratio (z) = 0.18953 0.21472
#
# Static dielectric constant tensor:
#      x y z
#    x 1.809420 0.000000 0.000000 
#    y 0.000000 1.882640 0.000000 
#    z 0.000000 0.000000 1.969510 
# 
# From -- ./inp_files/18610.got.cif
#   From: 2010.05.17/outbox.cif.g08.bks.cpg/sg23_10_cif.got.tgz:18610.got - 2010.06.04 12:02:01.
