data_PCOD9332480
_publ_section_title
;
Structure prediction by ZEFSAII (Michael W. Deem and Ramdas Pophale) SiO2 
 PCOD9332480
Probable space group: I 2 2 2
;
_chemical_formula_sum "Si O2"
_cell_formula_units_Z 32
_cell_length_a 9.930156
_cell_length_b 16.474183
_cell_length_c 7.752116
_cell_angle_alpha 90.000000
_cell_angle_beta 90.000000
_cell_angle_gamma 90.000000
_cell_volume 1268.178015
_symmetry_space_group_name_H-M "I 2 2 2"
_symmetry_group_IT_number 23
_symmetry_cell_setting 'orthorhombic'
loop_
_space_group_symop_operation_xyz
x,y,z
-x,-y,z
x,-y,-z
-x,y,-z
1/2+x,1/2+y,1/2+z
1/2-x,1/2-y,1/2+z
1/2+x,1/2-y,1/2-z
1/2-x,1/2+y,1/2-z
loop_
_atom_site_type_symbol
_atom_site_label
_atom_site_fract_x
_atom_site_fract_y
_atom_site_fract_z
Si Si1 0.541337 0.184139 0.299026
Si Si2 0.297946 0.410554 0.151351
Si Si3 0.075710 0.867190 0.722499
Si Si4 0.674203 0.943316 0.163360
O O1 0.500000 0.184880 0.500000
O O2 0.697290 0.159234 0.288543
O O3 0.530637 0.273958 0.224544
O O4 0.446635 0.117047 0.209713
O O5 0.438764 0.416594 0.251357
O O6 0.210714 0.491195 0.187232
O O7 0.354043 0.388676 0.961049
O O8 0.192609 0.888038 0.857279
O O9 0.650988 0.000000 0.000000
#
# Coordination Sequence:
#
# PCOD9332480 Si02
#       4
#     8   8   8   8
#     4  12  27  49  81 117 167 216 268 336 416 489
#     4  11  26  47  80 113 162 209 273 325 406 477
#     4  11  26  49  78 116 160 215 268 330 403 488
#     4  12  28  50  84 121 162 208 274 339 410 487
#
# _framework density 25.233049999999999
#
# number of rings (size 3 to 8) (size 9 to 14) (size 15 to 20)
#    0.000    0.500    2.500    3.750    3.500   10.000 
#    0.000    0.000    0.000    0.000    0.000    0.000 
#    0.000    0.000    0.000    0.000    0.000    0.000 
#
# Total GULP energy -89612.628677 kJ/mol
# GULP energy per Si atom -5600.789292 kJ/mol
# Density = 2.517562 g / cm^3
# Si number density = 25.233050 Si / 1000 Ang^3
#
#
#
# Elastic Constant Matrix: (Units=GPa)
#
#
# Indices 1 2 3 4 5 6 
#
# 1 171.9975 47.8987 42.9182 0.0000 0.0000 0.0000
# 2 47.8987 162.2404 62.6359 0.0000 0.0000 0.0000
# 3 42.9182 62.6359 140.8608 -0.0002 0.0001 0.0001
# 4 0.0000 0.0000 -0.0002 43.3937 0.0000 0.0001
# 5 0.0000 0.0000 0.0001 0.0000 18.4771 0.0000
# 6 0.0000 0.0000 0.0001 0.0001 0.0000 54.0417
#
#
#
# Elastic Compliance Matrix: (Units=1/GPa)
#
#
# Indices 1 2 3 4 5 6 
#
# 1 0.006547 -0.001404 -0.001371 0.000000 0.000000 0.000000
# 2 -0.001404 0.007742 -0.003015 0.000000 0.000000 0.000000
# 3 -0.001371 -0.003015 0.008857 0.000000 0.000000 0.000000
# 4 0.000000 0.000000 0.000000 0.023045 0.000000 0.000000
# 5 0.000000 0.000000 0.000000 0.000000 0.054121 0.000000
# 6 0.000000 0.000000 0.000000 0.000000 0.000000 0.018504
#
#
# Mechanical properties :
#
#
# Convention : Reuss Voigt Hill
#
# Bulk Modulus (GPa) = 86.44544 86.88936 86.66740
# Shear Modulus (GPa) = 37.24370 44.62559 40.93464
#
# Velocity S-wave (km/s) = 3.84603 4.20996 4.03210
# Velocity P-wave (km/s) = 7.35226 7.62504 7.48989
#
# Compressibility (1/GPa) = 0.01156799
#
# Stress axis : x y z
#
# Youngs Moduli (GPa) = 152.74276 129.16393 112.89954
#
# Poissons Ratio (x) = 0.18131 0.15474
# Poissons Ratio (y) = 0.21441 0.34039
# Poissons Ratio (z) = 0.20934 0.38942
#
# Static dielectric constant tensor:
#      x y z
#    x 2.016250 0.000000 0.000000 
#    y 0.000000 1.973130 0.000000 
#    z 0.000000 0.000000 2.093620 
# 
# From -- ./inp_files/8104.got.cif
#   From: 2010.05.17/outbox.cif.g08.bks.cpg/sg23_5_cif.got.tgz:8104.got - 2010.06.04 12:02:01.
