data_PCOD9332154
_publ_section_title
;
Structure prediction by ZEFSAII (Michael W. Deem and Ramdas Pophale) SiO2 
 PCOD9332154
Probable space group: I 2 2 2
;
_chemical_formula_sum "Si O2"
_cell_formula_units_Z 40
_cell_length_a 25.548179
_cell_length_b 9.399473
_cell_length_c 7.176439
_cell_angle_alpha 90.000000
_cell_angle_beta 90.000000
_cell_angle_gamma 90.000000
_cell_volume 1723.345890
_symmetry_space_group_name_H-M "I 2 2 2"
_symmetry_group_IT_number 23
_symmetry_cell_setting 'orthorhombic'
loop_
_space_group_symop_operation_xyz
x,y,z
-x,-y,z
x,-y,-z
-x,y,-z
1/2+x,1/2+y,1/2+z
1/2-x,1/2-y,1/2+z
1/2+x,1/2-y,1/2-z
1/2-x,1/2+y,1/2-z
loop_
_atom_site_type_symbol
_atom_site_label
_atom_site_fract_x
_atom_site_fract_y
_atom_site_fract_z
Si Si1 0.095788 0.324090 0.716583
Si Si2 0.286945 0.871643 0.132074
Si Si3 0.103340 0.648409 0.732970
Si Si4 0.189362 0.874155 0.366482
Si Si5 0.493369 0.337762 0.772796
O O1 0.096469 0.484709 0.790263
O O2 0.095519 0.340613 0.491532
O O3 0.144748 0.216422 0.739607
O O4 0.043011 0.253581 0.787334
O O5 0.335002 0.826250 0.265850
O O6 0.234536 0.925086 0.228711
O O7 0.280124 0.736110 0.000698
O O8 0.306102 0.000000 0.000000
O O9 0.060322 0.763230 0.792932
O O10 0.167781 0.000000 0.500000
O O11 0.500000 0.500000 0.714189
O O12 0.500000 0.337974 0.000000
#
# Coordination Sequence:
#
# PCOD9332154 Si02
#       5
#     8   8   8   8   8
#     4   9  17  30  46  73 106 144 182 225 289 338
#     4  11  21  40  54  84 118 155 198 236 293 350
#     4   9  16  31  48  68 110 144 178 231 283 341
#     4  11  23  34  60  82 119 156 195 245 286 344
#     4   9  17  25  44  74 106 136 179 229 290 338
#
# _framework density 23.210661999999999
#
# number of rings (size 3 to 8) (size 9 to 14) (size 15 to 20)
#    0.000    2.200    4.000    1.800    8.400    2.400 
#    0.000    0.000    0.000    0.000    0.000    1.400 
#    0.000    0.000    0.000    0.000    0.000    0.000 
#
# Total GULP energy -111574.418234 kJ/mol
# GULP energy per Si atom -5578.720912 kJ/mol
# Density = 2.315783 g / cm^3
# Si number density = 23.210662 Si / 1000 Ang^3
#
#
#
# Elastic Constant Matrix: (Units=GPa)
#
#
# Indices 1 2 3 4 5 6 
#
# 1 148.7208 55.5425 5.9737 0.0000 0.0000 0.0000
# 2 55.5425 117.3117 7.4209 0.0000 0.0000 0.0000
# 3 5.9737 7.4209 59.5820 0.0000 0.0000 0.0000
# 4 0.0000 0.0000 0.0000 -9.0040 0.0000 0.0000
# 5 0.0000 0.0000 0.0000 0.0000 -11.5614 0.0000
# 6 0.0000 0.0000 0.0000 0.0000 0.0000 35.5680
#
#
#
# Elastic Compliance Matrix: (Units=1/GPa)
#
#
# Indices 1 2 3 4 5 6 
#
# 1 0.008175 -0.003849 -0.000340 0.000000 0.000000 0.000000
# 2 -0.003849 0.010404 -0.000910 0.000000 0.000000 0.000000
# 3 -0.000340 -0.000910 0.016931 0.000000 0.000000 0.000000
# 4 0.000000 0.000000 0.000000 -0.111062 0.000000 0.000000
# 5 0.000000 0.000000 0.000000 0.000000 -0.086495 0.000000
# 6 0.000000 0.000000 0.000000 0.000000 0.000000 0.028115
#
#
# Mechanical properties :
#
#
# Convention : Reuss Voigt Hill
#
# Bulk Modulus (GPa) = 39.50706 51.49875 45.50291
# Shear Modulus (GPa) = -43.36689 20.11236 -11.62727
#
# Velocity S-wave (km/s) = -4.32719 2.94685 -2.24061
# Velocity P-wave (km/s) = 2.81213 5.81501 3.59904
#
# Compressibility (1/GPa) = 0.02531193
#
# Stress axis : x y z
#
# Youngs Moduli (GPa) = 122.32124 96.11447 59.06308
#
# Poissons Ratio (x) = 0.36996 0.02010
# Poissons Ratio (y) = 0.47083 0.05374
# Poissons Ratio (z) = 0.04162 0.08746
#
# Static dielectric constant tensor:
#      x y z
#    x 1.874270 0.000000 0.000000 
#    y 0.000000 1.904970 0.000000 
#    z 0.000000 0.000000 1.959990 
# 
# From -- ./inp_files/12894.got.cif
#   From: 2010.05.17/outbox.cif.g08.bks.cpg/sg23_7_cif.got.tgz:12894.got - 2010.06.04 12:02:01.
