data_PCOD9332447
_publ_section_title
;
Structure prediction by ZEFSAII (Michael W. Deem and Ramdas Pophale) SiO2 
 PCOD9332447
Probable space group: I 2 2 2
;
_chemical_formula_sum "Si O2"
_cell_formula_units_Z 40
_cell_length_a 7.243042
_cell_length_b 9.279545
_cell_length_c 22.655451
_cell_angle_alpha 90.000000
_cell_angle_beta 90.000000
_cell_angle_gamma 90.000000
_cell_volume 1522.721212
_symmetry_space_group_name_H-M "I 2 2 2"
_symmetry_group_IT_number 23
_symmetry_cell_setting 'orthorhombic'
loop_
_space_group_symop_operation_xyz
x,y,z
-x,-y,z
x,-y,-z
-x,y,-z
1/2+x,1/2+y,1/2+z
1/2-x,1/2-y,1/2+z
1/2+x,1/2-y,1/2-z
1/2-x,1/2+y,1/2-z
loop_
_atom_site_type_symbol
_atom_site_label
_atom_site_fract_x
_atom_site_fract_y
_atom_site_fract_z
Si Si1 0.323535 0.244915 0.117586
Si Si2 0.275091 0.668453 0.506442
Si Si3 0.801269 0.004067 0.183730
Si Si4 0.342609 0.671688 0.196107
Si Si5 0.922902 0.640059 0.898912
O O1 0.332082 0.081284 0.140335
O O2 0.108501 0.286287 0.124111
O O3 0.271099 0.837808 0.200177
O O4 0.336051 0.246410 0.046328
O O5 0.227519 0.500000 0.500000
O O6 0.500000 0.675563 0.500000
O O7 0.965487 0.827418 0.659907
O O8 0.837998 0.904439 0.240971
O O9 0.192114 0.589873 0.157051
O O10 0.000000 0.000000 0.151933
O O11 0.224487 0.742872 0.067394
O O12 0.000000 0.500000 0.933046
#
# Coordination Sequence:
#
# PCOD9332447 Si02
#       5
#     8   8   8   8   8
#     4  11  25  45  74 108 148 200 257 308 380 467
#     4   9  20  42  75 108 149 196 247 307 375 454
#     4  12  26  47  72 107 151 200 253 321 384 450
#     4  12  28  47  75 110 150 200 259 318 385 457
#     4  11  26  46  77 113 152 198 250 319 388 450
#
# _framework density 26.268761000000001
#
# number of rings (size 3 to 8) (size 9 to 14) (size 15 to 20)
#    0.000    1.000    2.000    3.000    8.400    4.400 
#    0.000    1.000    0.000    7.200    0.000    0.000 
#    0.000    0.000    0.000    0.000    0.000    0.000 
#
# Total GULP energy -111785.397454 kJ/mol
# GULP energy per Si atom -5589.269873 kJ/mol
# Density = 2.620897 g / cm^3
# Si number density = 26.268761 Si / 1000 Ang^3
#
#
#
# Elastic Constant Matrix: (Units=GPa)
#
#
# Indices 1 2 3 4 5 6 
#
# 1 142.4246 36.9140 47.5506 0.0000 0.0000 0.0000
# 2 36.9140 153.9077 32.8533 0.0000 0.0000 0.0000
# 3 47.5506 32.8533 123.1463 0.0000 0.0000 0.0000
# 4 0.0000 0.0000 0.0000 20.8521 0.0000 0.0000
# 5 0.0000 0.0000 0.0000 0.0000 36.3225 0.0000
# 6 0.0000 0.0000 0.0000 0.0000 0.0000 41.7540
#
#
#
# Elastic Compliance Matrix: (Units=1/GPa)
#
#
# Indices 1 2 3 4 5 6 
#
# 1 0.008332 -0.001391 -0.002846 0.000000 0.000000 0.000000
# 2 -0.001391 0.007122 -0.001363 0.000000 0.000000 0.000000
# 3 -0.002846 -0.001363 0.009583 0.000000 0.000000 0.000000
# 4 0.000000 0.000000 0.000000 0.047957 0.000000 0.000000
# 5 0.000000 0.000000 0.000000 0.000000 0.027531 0.000000
# 6 0.000000 0.000000 0.000000 0.000000 0.000000 0.023950
#
#
# Mechanical properties :
#
#
# Convention : Reuss Voigt Hill
#
# Bulk Modulus (GPa) = 72.27010 72.67938 72.47474
# Shear Modulus (GPa) = 35.64124 39.92977 37.78551
#
# Velocity S-wave (km/s) = 3.68746 3.90301 3.79677
# Velocity P-wave (km/s) = 6.76028 6.93102 6.84618
#
# Compressibility (1/GPa) = 0.01383698
#
# Stress axis : x y z
#
# Youngs Moduli (GPa) = 120.01949 140.41150 104.35105
#
# Poissons Ratio (x) = 0.19529 0.29700
# Poissons Ratio (y) = 0.16693 0.14223
# Poissons Ratio (z) = 0.34160 0.19138
#
# Static dielectric constant tensor:
#      x y z
#    x 2.047090 0.000000 0.000000 
#    y 0.000000 2.145570 0.000000 
#    z 0.000000 0.000000 2.067350 
# 
# From -- ./inp_files/26094.got.cif
#   From: 2010.05.17/outbox.cif.g08.bks.cpg/sg23_14_cif.got.tgz:26094.got - 2010.06.04 12:02:01.
