data_PCOD9332942
_publ_section_title
;
Structure prediction by ZEFSAII (Michael W. Deem and Ramdas Pophale) SiO2 
 PCOD9332942
Probable space group: I 21 21 21
;
_chemical_formula_sum "Si O2"
_cell_formula_units_Z 40
_cell_length_a 8.614354
_cell_length_b 16.640974
_cell_length_c 14.755442
_cell_angle_alpha 90.000000
_cell_angle_beta 90.000000
_cell_angle_gamma 90.000000
_cell_volume 2115.210921
_symmetry_space_group_name_H-M "I 21 21 21"
_symmetry_group_IT_number 24
_symmetry_cell_setting 'orthorhombic'
loop_
_space_group_symop_operation_xyz
x,y,z
-x,1/2-y,z
x,-y,1/2-z
1/2-x,y,-z
1/2+x,1/2+y,1/2+z
1/2-x,-y,1/2+z
1/2+x,1/2-y,-z
-x,1/2+y,1/2-z
loop_
_atom_site_type_symbol
_atom_site_label
_atom_site_fract_x
_atom_site_fract_y
_atom_site_fract_z
Si Si1 0.806795 0.091774 0.726117
Si Si2 0.320170 0.848090 0.594492
Si Si3 0.109593 0.825979 0.763932
Si Si4 0.320681 0.275743 0.600529
Si Si5 0.171400 0.345489 0.091871
O O1 0.705034 0.138730 0.651380
O O2 0.772174 0.134239 0.821529
O O3 0.986421 0.108562 0.701057
O O4 0.774670 0.000000 0.750000
O O5 0.250000 0.878637 0.500000
O O6 0.208427 0.859948 0.680165
O O7 0.496618 0.876889 0.605696
O O8 0.333145 0.751163 0.586058
O O9 0.223803 0.788790 0.839339
O O10 0.000000 0.750000 0.736447
O O11 0.500000 0.250000 0.599016
O O12 0.250000 0.278909 0.500000
O O13 0.250000 0.376252 0.000000
#
# Coordination Sequence:
#
# PCOD9332942 Si02
#       5
#     8   8   8   8   8
#     4  11  23  38  58  86 122 156 189 243 308 357
#     4  10  18  29  55  85 110 141 183 231 273 332
#     4  10  19  35  56  82 113 150 196 241 284 347
#     4  11  22  41  67  90 114 157 213 257 293 348
#     4  10  19  32  54  82 113 146 180 224 280 340
#
# _framework density 18.910643
#
# number of rings (size 3 to 8) (size 9 to 14) (size 15 to 20)
#    0.000    1.600    4.000    4.200    2.800    0.800 
#    0.000    4.000    0.000    4.800    0.000    0.000 
#    0.000    0.000    0.000    0.000    0.000    0.000 
#
# Total GULP energy -111516.663351 kJ/mol
# GULP energy per Si atom -5575.833168 kJ/mol
# Density = 1.886760 g / cm^3
# Si number density = 18.910643 Si / 1000 Ang^3
#
#
#
# Elastic Constant Matrix: (Units=GPa)
#
#
# Indices 1 2 3 4 5 6 
#
# 1 142.0408 37.2619 60.9264 0.0000 0.0000 0.0000
# 2 37.2619 56.2817 36.2622 0.0000 0.0000 0.0000
# 3 60.9264 36.2622 137.0860 0.0000 0.0000 0.0000
# 4 0.0000 0.0000 0.0000 1.1175 0.0000 0.0000
# 5 0.0000 0.0000 0.0000 0.0000 27.1779 0.0000
# 6 0.0000 0.0000 0.0000 0.0000 0.0000 3.8287
#
#
#
# Elastic Compliance Matrix: (Units=1/GPa)
#
#
# Indices 1 2 3 4 5 6 
#
# 1 0.009489 -0.004297 -0.003080 0.000000 0.000000 0.000000
# 2 -0.004297 0.023364 -0.004270 0.000000 0.000000 0.000000
# 3 -0.003080 -0.004270 0.009793 0.000000 0.000000 0.000000
# 4 0.000000 0.000000 0.000000 0.894817 0.000000 0.000000
# 5 0.000000 0.000000 0.000000 0.000000 0.036795 0.000000
# 6 0.000000 0.000000 0.000000 0.000000 0.000000 0.261185
#
#
# Mechanical properties :
#
#
# Convention : Reuss Voigt Hill
#
# Bulk Modulus (GPa) = 51.67975 67.14550 59.41262
# Shear Modulus (GPa) = 3.95198 19.82205 11.88701
#
# Velocity S-wave (km/s) = 1.44719 3.24110 2.50989
# Velocity P-wave (km/s) = 5.49365 7.04202 6.31547
#
# Compressibility (1/GPa) = 0.01934994
#
# Stress axis : x y z
#
# Youngs Moduli (GPa) = 105.38600 42.80026 102.10980
#
# Poissons Ratio (x) = 0.18393 0.31455
# Poissons Ratio (y) = 0.45290 0.43605
# Poissons Ratio (z) = 0.32464 0.18277
#
# Static dielectric constant tensor:
#      x y z
#    x 1.692070 0.000000 0.000000 
#    y 0.000000 1.746050 0.000000 
#    z 0.000000 0.000000 1.645580 
# 
# From -- ./inp_files/14003.got.cif
#   From: 2010.05.17/outbox.cif.g08.bks.cpg/sg24_8_cif.got.tgz:14003.got - 2010.06.04 00:33:39.
