data_PCOD9332636
_publ_section_title
;
Structure prediction by ZEFSAII (Michael W. Deem and Ramdas Pophale) SiO2 
 PCOD9332636
Probable space group: I 2 2 2
;
_chemical_formula_sum "Si O2"
_cell_formula_units_Z 27
_cell_length_a 15.000000
_cell_length_b 30.000000
_cell_length_c 6.000000
_cell_angle_alpha 90.000000
_cell_angle_beta 90.000000
_cell_angle_gamma 90.000000
_cell_volume 2700.000000
_symmetry_space_group_name_H-M "I 2 2 2"
_symmetry_group_IT_number 23
_symmetry_cell_setting 'orthorhombic'
loop_
_space_group_symop_operation_xyz
x,y,z
-x,-y,z
x,-y,-z
-x,y,-z
1/2+x,1/2+y,1/2+z
1/2-x,1/2-y,1/2+z
1/2+x,1/2-y,1/2-z
1/2-x,1/2+y,1/2-z
loop_
_atom_site_type_symbol
_atom_site_label
_atom_site_fract_x
_atom_site_fract_y
_atom_site_fract_z
Si Si1 0.385065 0.525267 0.752368
Si Si2 0.424738 0.078932 0.195063
Si Si3 0.000000 0.500000 0.000000
Si Si4 0.661965 0.150496 0.489039
Si Si5 0.259101 0.909355 0.102999
Si Si6 0.845855 0.848554 0.229358
Si Si7 0.500000 0.402220 0.000000
Si Si8 0.801855 0.749930 0.108875
O O1 0.397978 0.500000 0.500000
O O2 0.291323 0.550667 0.725547
O O3 0.457019 0.564427 0.812335
O O4 0.383755 0.500000 0.000000
O O5 0.447450 0.035075 0.341094
O O6 0.407772 0.122628 0.355502
O O7 0.329641 0.072516 0.075356
O O8 0.500000 0.085009 0.000000
O O9 0.756496 0.151618 0.619684
O O10 0.645868 0.202685 0.425442
O O11 0.683812 0.121561 0.269828
O O12 0.183379 0.879792 0.978335
O O13 0.925913 0.871220 0.373101
O O14 0.854987 0.796825 0.147136
O O15 0.749445 0.744795 0.358416
#
# Coordination Sequence:
#
# PCOD9332636 Si02
#       8
#     8   8   2   8   8   8   4   8
#     4  12  29  48  69 105 145 199 251 302 358 430
#     4  11  26  46  74 103 142 188 238 311 385 446
#     4  12  26  52  68 106 136 194 242 312 394 444
#     4  10  21  43  73 107 141 189 242 300 368 452
#     4  11  23  46  71 102 137 189 245 300 369 442
#     4  10  22  41  72 108 144 195 242 302 362 436
#     4  12  25  48  70 106 156 196 250 311 368 422
#     4  10  20  40  74 112 142 187 248 297 363 443
#
# _framework density 10.0
#
# number of rings (size 3 to 8) (size 9 to 14) (size 15 to 20)
#    0.000    1.185    2.963    2.222    2.074    6.519 
#    1.333    0.000    4.889    5.333    3.852    0.000 
#    0.000    0.000    0.000    0.000    0.000    0.000 
#
# Total GULP energy -150461.387094 kJ/mol
# GULP energy per Si atom -5572.643966 kJ/mol
# Density = 0.997724 g / cm^3
# Si number density = 10.000000 Si / 1000 Ang^3
#
#
#
# Elastic Constant Matrix: (Units=GPa)
#
#
# Indices 1 2 3 4 5 6 
#
# 1 86.1888 65.2283 39.8828 -0.0071 -0.0175 0.0010
# 2 65.2283 183.7059 73.0196 -0.0105 0.0130 0.0017
# 3 39.8828 73.0196 144.8282 0.0058 -0.1263 -0.0091
# 4 -0.0071 -0.0105 0.0058 52.4956 0.0099 -0.0013
# 5 -0.0175 0.0130 -0.1263 0.0099 45.8545 0.0038
# 6 0.0010 0.0017 -0.0091 -0.0013 0.0038 36.1617
#
#
#
# Elastic Compliance Matrix: (Units=1/GPa)
#
#
# Indices 1 2 3 4 5 6 
#
# 1 0.016301 -0.005007 -0.001964 0.000001 0.000002 -0.000001
# 2 -0.005007 0.008346 -0.002829 0.000001 -0.000012 -0.000001
# 3 -0.001964 -0.002829 0.008872 -0.000002 0.000024 0.000002
# 4 0.000001 0.000001 -0.000002 0.019049 -0.000004 0.000001
# 5 0.000002 -0.000012 0.000024 -0.000004 0.021808 -0.000002
# 6 -0.000001 -0.000001 0.000002 0.000001 -0.000002 0.027654
#
#
# Mechanical properties :
#
#
# Convention : Reuss Voigt Hill
#
# Bulk Modulus (GPa) = 71.85094 85.66493 78.75793
# Shear Modulus (GPa) = 39.59770 42.67516 41.13643
#
# Velocity S-wave (km/s) = 4.45442 4.62427 4.54014
# Velocity P-wave (km/s) = 7.90312 8.45206 8.18219
#
# Compressibility (1/GPa) = 0.01391770
#
# Stress axis : x y z
#
# Youngs Moduli (GPa) = 61.34637 119.82058 112.71382
#
# Poissons Ratio (x) = 0.59996 0.22142
# Poissons Ratio (y) = 0.30717 0.31886
# Poissons Ratio (z) = 0.12051 0.33897
#
# Static dielectric constant tensor:
#      x y z
#    x 1.718410 0.000000 0.000010 
#    y 0.000000 1.734640 -0.000020 
#    z 0.000010 -0.000020 1.773850 
# 
# From -- ./inp_files/2771.got.cif
#   From: 2010.05.17/outbox.ucp.g08.bks.cvg/sg23_2_cif.got.tgz:2771.got - 2010.06.11 15:19:07.
