data_PCOD9332284
_publ_section_title
;
Structure prediction by ZEFSAII (Michael W. Deem and Ramdas Pophale) SiO2 
 PCOD9332284
Probable space group: I 2 2 2
;
_chemical_formula_sum "Si O2"
_cell_formula_units_Z 56
_cell_length_a 8.482252
_cell_length_b 16.329503
_cell_length_c 19.457322
_cell_angle_alpha 90.000000
_cell_angle_beta 90.000000
_cell_angle_gamma 90.000000
_cell_volume 2695.052339
_symmetry_space_group_name_H-M "I 2 2 2"
_symmetry_group_IT_number 23
_symmetry_cell_setting 'orthorhombic'
loop_
_space_group_symop_operation_xyz
x,y,z
-x,-y,z
x,-y,-z
-x,y,-z
1/2+x,1/2+y,1/2+z
1/2-x,1/2-y,1/2+z
1/2+x,1/2-y,1/2-z
1/2-x,1/2+y,1/2-z
loop_
_atom_site_type_symbol
_atom_site_label
_atom_site_fract_x
_atom_site_fract_y
_atom_site_fract_z
Si Si1 0.324080 0.904831 0.147780
Si Si2 0.682187 0.828550 0.711419
Si Si3 0.189290 0.905684 0.424103
Si Si4 0.000000 0.099560 0.919105
Si Si5 0.310710 0.594316 0.075897
Si Si6 0.324080 0.904831 0.852220
Si Si7 0.682187 0.171449 0.711419
O O1 0.303806 0.898098 0.229905
O O2 0.500000 0.868890 0.131792
O O3 0.165016 0.869488 0.113570
O O4 0.330870 1.000000 0.127240
O O5 0.761970 0.852134 0.640472
O O6 0.500000 0.814823 0.697182
O O7 0.750000 0.749999 0.750000
O O8 0.244324 0.878004 0.500000
O O9 0.000000 0.907414 0.425789
O O10 0.243868 1.000000 0.414361
O O11 0.834984 0.130512 0.886430
O O12 0.000000 0.000000 0.908911
O O13 0.000000 0.115561 0.000000
O O14 0.261970 0.647866 0.140472
O O15 0.303807 0.898099 0.770095
#
# Coordination Sequence:
#
# PCOD9332284 Si02
#       7
#     8   8   8   8   8   8   8
#     4   9  19  35  55  81 111 145 190 241 293 349
#     4  11  23  37  56  83 116 154 197 241 296 354
#     4   9  19  37  62  91 121 155 196 245 301 359
#     4   9  18  32  54  82 107 139 182 228 281 338
#     4   9  19  37  62  91 121 155 196 245 301 359
#     4   9  19  35  55  81 111 145 190 241 293 349
#     4  11  23  37  56  83 116 154 197 241 296 354
#
# _framework density 20.778815000000002
#
# number of rings (size 3 to 8) (size 9 to 14) (size 15 to 20)
#    0.000    2.429    0.000    2.571    4.000    2.857 
#    0.000    5.714    0.000    1.714    0.000    0.000 
#    0.000    0.000    0.000    0.000    0.000    0.000 
#
# Total GULP energy -156119.955311 kJ/mol
# GULP energy per Si atom -5575.712690 kJ/mol
# Density = 2.073152 g / cm^3
# Si number density = 20.778815 Si / 1000 Ang^3
#
#
#
# Elastic Constant Matrix: (Units=GPa)
#
#
# Indices 1 2 3 4 5 6 
#
# 1 136.6004 23.7273 91.3130 0.0000 0.0000 0.0000
# 2 23.7273 37.4040 37.5785 0.0000 0.0000 0.0000
# 3 91.3130 37.5785 164.9888 0.0000 0.0000 0.0000
# 4 0.0000 0.0000 0.0000 22.0318 0.0000 0.0000
# 5 0.0000 0.0000 0.0000 0.0000 32.4863 0.0000
# 6 0.0000 0.0000 0.0000 0.0000 0.0000 15.8235
#
#
#
# Elastic Compliance Matrix: (Units=1/GPa)
#
#
# Indices 1 2 3 4 5 6 
#
# 1 0.011660 -0.001184 -0.006183 0.000000 0.000000 0.000000
# 2 -0.001184 0.034788 -0.007268 0.000000 0.000000 0.000000
# 3 -0.006183 -0.007268 0.011139 0.000000 0.000000 0.000000
# 4 0.000000 0.000000 0.000000 0.045389 0.000000 0.000000
# 5 0.000000 0.000000 0.000000 0.000000 0.030782 0.000000
# 6 0.000000 0.000000 0.000000 0.000000 0.000000 0.063197
#
#
# Mechanical properties :
#
#
# Convention : Reuss Voigt Hill
#
# Bulk Modulus (GPa) = 35.31659 71.58121 53.44890
# Shear Modulus (GPa) = 21.21660 26.49328 23.85494
#
# Velocity S-wave (km/s) = 3.19888 3.57461 3.39195
# Velocity P-wave (km/s) = 5.53870 7.18060 6.41242
#
# Compressibility (1/GPa) = 0.02831530
#
# Stress axis : x y z
#
# Youngs Moduli (GPa) = 85.76575 28.74527 89.77785
#
# Poissons Ratio (x) = 0.03404 0.55513
# Poissons Ratio (y) = 0.10156 0.65252
# Poissons Ratio (z) = 0.53032 0.20893
#
# Static dielectric constant tensor:
#      x y z
#    x 1.766000 0.000000 0.000000 
#    y 0.000000 1.741210 0.000000 
#    z 0.000000 0.000000 1.675060 
# 
# From -- ./inp_files/23955.got.cif
#   From: 2010.05.17/outbox.cif.g08.bks.cpg/sg23_12_cif.got.tgz:23955.got - 2010.06.04 12:02:01.
