data_PCOD9332873
_publ_section_title
;
Structure prediction by ZEFSAII (Michael W. Deem and Ramdas Pophale) SiO2 
 PCOD9332873
Probable space group: I 21 21 21
;
_chemical_formula_sum "Si O2"
_cell_formula_units_Z 56
_cell_length_a 19.819521
_cell_length_b 17.704741
_cell_length_c 9.610974
_cell_angle_alpha 90.000000
_cell_angle_beta 90.000000
_cell_angle_gamma 90.000000
_cell_volume 3372.485837
_symmetry_space_group_name_H-M "I 21 21 21"
_symmetry_group_IT_number 24
_symmetry_cell_setting 'orthorhombic'
loop_
_space_group_symop_operation_xyz
x,y,z
-x,1/2-y,z
x,-y,1/2-z
1/2-x,y,-z
1/2+x,1/2+y,1/2+z
1/2-x,-y,1/2+z
1/2+x,1/2-y,-z
-x,1/2+y,1/2-z
loop_
_atom_site_type_symbol
_atom_site_label
_atom_site_fract_x
_atom_site_fract_y
_atom_site_fract_z
Si Si1 0.868265 0.824807 0.752218
Si Si2 0.430074 0.797899 0.067163
Si Si3 0.484917 0.565071 0.142077
Si Si4 0.759629 0.917600 0.218127
Si Si5 0.076093 0.268642 0.278224
Si Si6 0.819574 0.192071 0.054198
Si Si7 0.402197 0.559938 0.873084
O O1 0.883380 0.743389 0.819575
O O2 0.930180 0.878784 0.789462
O O3 0.799537 0.859616 0.815309
O O4 0.859068 0.825654 0.586675
O O5 0.500000 0.750000 0.069237
O O6 0.451625 0.883129 0.098700
O O7 0.404630 0.782661 0.910886
O O8 0.502286 0.500000 0.250000
O O9 0.444874 0.535649 0.006348
O O10 0.795491 0.881183 0.356021
O O11 0.821006 0.931397 0.111302
O O12 0.729922 0.000000 0.250000
O O13 0.131719 0.263488 0.158183
O O14 0.074864 0.355610 0.331387
O O15 0.000000 0.250000 0.231927
O O16 0.750000 0.229322 0.000000
O O17 0.412152 0.500000 0.750000
#
# Coordination Sequence:
#
# PCOD9332873 Si02
#       7
#     8   8   8   8   8   8   8
#     4  10  19  35  50  73 106 148 185 222 278 317
#     4   9  18  37  52  71 104 145 191 227 268 334
#     4  11  22  33  52  78 111 144 186 235 284 325
#     4   9  19  33  48  70 111 148 180 216 254 334
#     4  10  17  35  56  69 101 158 189 223 271 331
#     4   9  20  34  47  75 108 139 187 231 262 324
#     4  10  20  35  50  75 112 147 188 222 265 340
#
# _framework density 16.604960999999999
#
# number of rings (size 3 to 8) (size 9 to 14) (size 15 to 20)
#    0.000    2.286    4.286    0.429    6.000    2.286 
#    7.714    0.000    0.000    0.000    0.000    0.000 
#    0.000   30.857    0.000    0.000    0.000    0.000 
#
# Total GULP energy -156004.513392 kJ/mol
# GULP energy per Si atom -5571.589764 kJ/mol
# Density = 1.656717 g / cm^3
# Si number density = 16.604961 Si / 1000 Ang^3
#
#
#
# Elastic Constant Matrix: (Units=GPa)
#
#
# Indices 1 2 3 4 5 6 
#
# 1 55.5440 34.9928 33.1667 0.0000 0.0000 0.0000
# 2 34.9928 71.5672 42.2580 0.0000 0.0000 0.0000
# 3 33.1667 42.2580 111.7601 0.0000 0.0000 0.0000
# 4 0.0000 0.0000 0.0000 22.5464 0.0000 0.0000
# 5 0.0000 0.0000 0.0000 0.0000 24.0333 0.0000
# 6 0.0000 0.0000 0.0000 0.0000 0.0000 26.2427
#
#
#
# Elastic Compliance Matrix: (Units=1/GPa)
#
#
# Indices 1 2 3 4 5 6 
#
# 1 0.027298 -0.011025 -0.003932 0.000000 0.000000 0.000000
# 2 -0.011025 0.022442 -0.005214 0.000000 0.000000 0.000000
# 3 -0.003932 -0.005214 0.012086 0.000000 0.000000 0.000000
# 4 0.000000 0.000000 0.000000 0.044353 0.000000 0.000000
# 5 0.000000 0.000000 0.000000 0.000000 0.041609 0.000000
# 6 0.000000 0.000000 0.000000 0.000000 0.000000 0.038106
#
#
# Mechanical properties :
#
#
# Convention : Reuss Voigt Hill
#
# Bulk Modulus (GPa) = 46.54762 51.07850 48.81306
# Shear Modulus (GPa) = 21.42264 23.12807 22.27535
#
# Velocity S-wave (km/s) = 3.59574 3.73613 3.66661
# Velocity P-wave (km/s) = 6.73293 7.03131 6.88374
#
# Compressibility (1/GPa) = 0.02148337
#
# Stress axis : x y z
#
# Youngs Moduli (GPa) = 36.63295 44.55868 82.73983
#
# Poissons Ratio (x) = 0.49128 0.32535
# Poissons Ratio (y) = 0.40389 0.43138
# Poissons Ratio (z) = 0.14405 0.23232
#
# Static dielectric constant tensor:
#      x y z
#    x 1.584120 0.000000 0.000000 
#    y 0.000000 1.553100 0.000000 
#    z 0.000000 0.000000 1.619190 
# 
# From -- ./inp_files/15364.got.cif
#   From: 2010.05.17/outbox.cif.g08.bks.cpg/sg24_8_cif.got.tgz:15364.got - 2010.06.04 00:33:39.
