data_PCOD9332146
_publ_section_title
;
Structure prediction by ZEFSAII (Michael W. Deem and Ramdas Pophale) SiO2 
 PCOD9332146
Probable space group: I 2 2 2
;
_chemical_formula_sum "Si O2"
_cell_formula_units_Z 64
_cell_length_a 9.154483
_cell_length_b 17.828791
_cell_length_c 19.736602
_cell_angle_alpha 90.000000
_cell_angle_beta 90.000000
_cell_angle_gamma 90.000000
_cell_volume 3221.277209
_symmetry_space_group_name_H-M "I 2 2 2"
_symmetry_group_IT_number 23
_symmetry_cell_setting 'orthorhombic'
loop_
_space_group_symop_operation_xyz
x,y,z
-x,-y,z
x,-y,-z
-x,y,-z
1/2+x,1/2+y,1/2+z
1/2-x,1/2-y,1/2+z
1/2+x,1/2-y,1/2-z
1/2-x,1/2+y,1/2-z
loop_
_atom_site_type_symbol
_atom_site_label
_atom_site_fract_x
_atom_site_fract_y
_atom_site_fract_z
Si Si1 0.464447 0.083390 0.622411
Si Si2 0.884419 0.057088 0.231900
Si Si3 0.379070 0.949975 0.762976
Si Si4 0.703470 0.324030 0.921082
Si Si5 0.958719 0.915908 0.371150
Si Si6 0.209092 0.322491 0.924305
Si Si7 0.277099 0.203975 0.814039
Si Si8 0.867412 0.293448 0.310852
O O1 0.528955 0.081095 0.698562
O O2 0.298965 0.111023 0.616323
O O3 0.544978 0.149080 0.582362
O O4 0.500000 0.000000 0.594978
O O5 0.978039 0.091651 0.294648
O O6 0.800195 0.122603 0.192104
O O7 0.755025 0.002516 0.258672
O O8 0.000000 0.000000 0.196720
O O9 0.323653 0.880143 0.805461
O O10 0.500000 0.000000 0.801177
O O11 0.542088 0.357108 0.917690
O O12 0.695665 0.249363 0.876059
O O13 0.749813 0.315194 0.997921
O O14 0.794646 0.889995 0.384453
O O15 0.000000 0.000000 0.391522
O O16 0.237839 0.247252 0.882759
O O17 0.203663 0.251452 0.753278
O O18 0.454259 0.206124 0.808142
#
# Coordination Sequence:
#
# PCOD9332146 Si02
#       8
#     8   8   8   8   8   8   8   8
#     4  11  23  40  60  89 132 173 212 252 307 381
#     4  11  23  39  65  99 129 158 210 267 322 376
#     4  11  21  39  64  93 126 164 210 267 319 373
#     4  12  25  41  60  91 129 171 215 258 309 376
#     4  11  22  38  58  88 130 170 208 246 304 380
#     4  12  25  40  62  90 129 174 211 255 315 373
#     4  12  24  42  64  95 126 167 212 267 317 374
#     4  12  25  40  65  92 126 167 215 267 317 372
#
# _framework density 19.867896999999999
#
# number of rings (size 3 to 8) (size 9 to 14) (size 15 to 20)
#    0.000    0.500    5.000    5.250    1.750    3.000 
#    0.000    0.000    0.000    0.750    0.000    0.875 
#    0.000    0.000    0.000    0.000    0.000    0.000 
#
# Total GULP energy -178687.771415 kJ/mol
# GULP energy per Si atom -5583.992857 kJ/mol
# Density = 1.982268 g / cm^3
# Si number density = 19.867897 Si / 1000 Ang^3
#
#
#
# Elastic Constant Matrix: (Units=GPa)
#
#
# Indices 1 2 3 4 5 6 
#
# 1 73.2712 18.0036 3.6052 0.0000 0.0000 0.0000
# 2 18.0036 121.4591 54.3324 0.0000 0.0000 0.0000
# 3 3.6052 54.3324 70.6622 0.0000 0.0000 0.0000
# 4 0.0000 0.0000 0.0000 8.7919 0.0000 0.0000
# 5 0.0000 0.0000 0.0000 0.0000 15.0942 0.0000
# 6 0.0000 0.0000 0.0000 0.0000 0.0000 37.0508
#
#
#
# Elastic Compliance Matrix: (Units=1/GPa)
#
#
# Indices 1 2 3 4 5 6 
#
# 1 0.014250 -0.002724 0.001367 0.000000 0.000000 0.000000
# 2 -0.002724 0.013070 -0.009911 0.000000 0.000000 0.000000
# 3 0.001367 -0.009911 0.021703 0.000000 0.000000 0.000000
# 4 0.000000 0.000000 0.000000 0.113742 0.000000 0.000000
# 5 0.000000 0.000000 0.000000 0.000000 0.066251 0.000000
# 6 0.000000 0.000000 0.000000 0.000000 0.000000 0.026990
#
#
# Mechanical properties :
#
#
# Convention : Reuss Voigt Hill
#
# Bulk Modulus (GPa) = 37.75279 46.36386 42.05833
# Shear Modulus (GPa) = 17.39920 24.81744 21.10832
#
# Velocity S-wave (km/s) = 2.96251 3.53813 3.26304
# Velocity P-wave (km/s) = 5.54483 6.33071 5.95075
#
# Compressibility (1/GPa) = 0.02648811
#
# Stress axis : x y z
#
# Youngs Moduli (GPa) = 70.17569 76.50840 46.07732
#
# Poissons Ratio (x) = 0.20840 -0.06301
# Poissons Ratio (y) = 0.19115 0.45667
# Poissons Ratio (z) = -0.09596 0.75827
#
# Static dielectric constant tensor:
#      x y z
#    x 1.730190 0.000000 0.000000 
#    y 0.000000 1.736620 0.000000 
#    z 0.000000 0.000000 1.684570 
# 
# From -- ./inp_files/26352.got.cif
#   From: 2010.05.17/outbox.cif.g08.bks.cpg/sg23_14_cif.got.tgz:26352.got - 2010.06.04 12:02:01.
