data_PCOD9332772
_publ_section_title
;
Structure prediction by ZEFSAII (Michael W. Deem and Ramdas Pophale) SiO2 
 PCOD9332772
Probable space group: I 21 21 21
;
_chemical_formula_sum "Si O2"
_cell_formula_units_Z 48
_cell_length_a 8.316357
_cell_length_b 33.374697
_cell_length_c 7.137705
_cell_angle_alpha 90.000000
_cell_angle_beta 90.000000
_cell_angle_gamma 90.000000
_cell_volume 1981.112100
_symmetry_space_group_name_H-M "I 21 21 21"
_symmetry_group_IT_number 24
_symmetry_cell_setting 'orthorhombic'
loop_
_space_group_symop_operation_xyz
x,y,z
-x,1/2-y,z
x,-y,1/2-z
1/2-x,y,-z
1/2+x,1/2+y,1/2+z
1/2-x,-y,1/2+z
1/2+x,1/2-y,-z
-x,1/2+y,1/2-z
loop_
_atom_site_type_symbol
_atom_site_label
_atom_site_fract_x
_atom_site_fract_y
_atom_site_fract_z
Si Si1 0.088323 0.545731 0.278127
Si Si2 0.244021 0.070106 0.773715
Si Si3 0.574172 0.793436 0.728406
Si Si4 0.919722 0.179049 0.797637
Si Si5 0.240141 0.836401 0.272665
Si Si6 0.595714 0.918183 0.299282
O O1 0.136477 0.500000 0.250000
O O2 0.236577 0.571643 0.202741
O O3 0.087357 0.562357 0.492405
O O4 0.906396 0.549802 0.204495
O O5 0.256797 0.116954 0.730350
O O6 0.062565 0.061623 0.708713
O O7 0.250000 0.065267 0.000000
O O8 0.500000 0.750000 0.765055
O O9 0.755236 0.804092 0.791227
O O10 0.577949 0.801109 0.503561
O O11 0.432334 0.822249 0.795877
O O12 0.912458 0.130310 0.817372
O O13 0.096718 0.186028 0.709818
O O14 0.250000 0.832763 0.500000
#
# Coordination Sequence:
#
# PCOD9332772 Si02
#       6
#     8   8   8   8   8   8
#     4  10  17  24  40  59  72  89 120 161 196 226
#     4   8  14  26  40  49  63  90 120 151 186 226
#     4  10  17  19  28  45  65  82 112 159 188 197
#     4   9  17  25  35  43  61 100 123 144 185 216
#     4   8  14  23  33  42  55  82 115 139 179 214
#     4   9  17  31  41  50  75 102 127 154 193 230
#
# _framework density 24.228814
#
# number of rings (size 3 to 8) (size 9 to 14) (size 15 to 20)
#    0.000    3.000    0.000    6.000    7.000    0.667 
#    0.000    0.000    0.000    0.000    0.000    0.000 
#    0.000    0.000    0.000    0.000    0.000    0.000 
#
# Total GULP energy -133741.179816 kJ/mol
# GULP energy per Si atom -5572.549159 kJ/mol
# Density = 2.417367 g / cm^3
# Si number density = 24.228814 Si / 1000 Ang^3
#
#
#
# Elastic Constant Matrix: (Units=GPa)
#
#
# Indices 1 2 3 4 5 6 
#
# 1 198.9939 12.5994 -16.0383 0.0056 0.0004 0.0006
# 2 12.5994 47.2151 -12.4678 0.0198 0.0040 -0.0058
# 3 -16.0383 -12.4678 104.9880 0.0272 0.0025 -0.0021
# 4 0.0056 0.0198 0.0272 -21.9401 0.0075 -0.0139
# 5 0.0004 0.0040 0.0025 0.0075 -34.8851 -0.0028
# 6 0.0006 -0.0058 -0.0021 -0.0139 -0.0028 44.3732
#
#
#
# Elastic Compliance Matrix: (Units=1/GPa)
#
#
# Indices 1 2 3 4 5 6 
#
# 1 0.005153 -0.001205 0.000644 0.000001 0.000000 0.000000
# 2 -0.001205 0.022147 0.002446 0.000023 0.000003 0.000003
# 3 0.000644 0.002446 0.009914 0.000015 0.000001 0.000001
# 4 0.000001 0.000023 0.000015 -0.045579 -0.000010 -0.000014
# 5 0.000000 0.000003 0.000001 -0.000010 -0.028666 -0.000002
# 6 0.000000 0.000003 0.000001 -0.000014 -0.000002 0.022536
#
#
# Mechanical properties :
#
#
# Convention : Reuss Voigt Hill
#
# Bulk Modulus (GPa) = 24.39952 35.48706 29.94329
# Shear Modulus (GPa) = -1086.44087 21.98319 -532.22884
#
# Velocity S-wave (km/s) = -21.19863 3.01544 -14.83727
# Velocity P-wave (km/s) = 24.27105 5.17709 16.76725
#
# Compressibility (1/GPa) = 0.04098442
#
# Stress axis : x y z
#
# Youngs Moduli (GPa) = 194.04295 45.15254 100.86983
#
# Poissons Ratio (x) = 0.05441 -0.06498
# Poissons Ratio (y) = 0.23384 -0.24672
# Poissons Ratio (z) = -0.12499 -0.11044
#
# Static dielectric constant tensor:
#      x y z
#    x 2.057050 0.000000 0.000010 
#    y 0.000000 1.924290 0.000060 
#    z 0.000010 0.000060 2.184910 
# 
# From -- ./inp_files/18828.got.cif
#   From: 2010.05.17/outbox.cif.g08.bks.cpg/sg24_10_cif.got.tgz:18828.got - 2010.06.04 00:33:39.
