data_PCOD9332506
_publ_section_title
;
Structure prediction by ZEFSAII (Michael W. Deem and Ramdas Pophale) SiO2 
 PCOD9332506
Probable space group: I 2 2 2
;
_chemical_formula_sum "Si O2"
_cell_formula_units_Z 40
_cell_length_a 8.314876
_cell_length_b 18.159328
_cell_length_c 11.068233
_cell_angle_alpha 90.000000
_cell_angle_beta 90.000000
_cell_angle_gamma 90.000000
_cell_volume 1671.220842
_symmetry_space_group_name_H-M "I 2 2 2"
_symmetry_group_IT_number 23
_symmetry_cell_setting 'orthorhombic'
loop_
_space_group_symop_operation_xyz
x,y,z
-x,-y,z
x,-y,-z
-x,y,-z
1/2+x,1/2+y,1/2+z
1/2-x,1/2-y,1/2+z
1/2+x,1/2-y,1/2-z
1/2-x,1/2+y,1/2-z
loop_
_atom_site_type_symbol
_atom_site_label
_atom_site_fract_x
_atom_site_fract_y
_atom_site_fract_z
Si Si1 0.633067 0.206524 0.646722
Si Si2 0.081630 0.579050 0.804271
Si Si3 0.372967 0.668416 0.341408
Si Si4 0.558789 0.416517 0.873007
Si Si5 0.327055 0.163677 0.942530
O O1 0.555965 0.126833 0.629387
O O2 0.483586 0.261279 0.636958
O O3 0.711228 0.198150 0.778681
O O4 0.769576 0.251978 0.576793
O O5 0.248450 0.578932 0.875978
O O6 0.145126 0.619788 0.681910
O O7 0.000000 0.500000 0.779359
O O8 0.474221 0.622178 0.242682
O O9 0.308929 0.631838 0.465356
O O10 0.500000 0.500000 0.867051
O O11 0.500000 0.383416 0.000000
O O12 0.500000 0.161602 0.000000
#
# Coordination Sequence:
#
# PCOD9332506 Si02
#       5
#     8   8   8   8   8
#     4  12  24  46  74 115 157 205 265 324 395 473
#     4  12  27  54  81 118 166 211 268 331 408 478
#     4  12  23  46  77 116 153 209 268 330 394 471
#     4  11  27  51  76 111 162 213 268 323 397 487
#     4  12  26  48  79 121 160 208 268 337 400 465
#
# _framework density 23.934595999999999
#
# number of rings (size 3 to 8) (size 9 to 14) (size 15 to 20)
#    0.000    0.200    6.000    1.800    0.000    6.000 
#    0.000    8.000    0.000    0.000    0.000    0.000 
#    0.000    0.000    0.000    0.000    0.000    0.000 
#
# Total GULP energy -111758.277602 kJ/mol
# GULP energy per Si atom -5587.913880 kJ/mol
# Density = 2.388012 g / cm^3
# Si number density = 23.934596 Si / 1000 Ang^3
#
#
#
# Elastic Constant Matrix: (Units=GPa)
#
#
# Indices 1 2 3 4 5 6 
#
# 1 145.7601 44.2321 38.4513 0.0000 0.0000 0.0000
# 2 44.2321 122.8833 43.3574 0.0001 0.0000 0.0000
# 3 38.4513 43.3574 104.5836 0.0000 0.0000 0.0000
# 4 0.0000 0.0001 0.0000 -14.8844 0.0000 0.0000
# 5 0.0000 0.0000 0.0000 0.0000 35.3497 0.0000
# 6 0.0000 0.0000 0.0000 0.0000 0.0000 45.8945
#
#
#
# Elastic Compliance Matrix: (Units=1/GPa)
#
#
# Indices 1 2 3 4 5 6 
#
# 1 0.008065 -0.002175 -0.002064 0.000000 0.000000 0.000000
# 2 -0.002175 0.010119 -0.003395 0.000000 0.000000 0.000000
# 3 -0.002064 -0.003395 0.011728 0.000000 0.000000 0.000000
# 4 0.000000 0.000000 0.000000 -0.067184 0.000000 0.000000
# 5 0.000000 0.000000 0.000000 0.000000 0.028289 0.000000
# 6 0.000000 0.000000 0.000000 0.000000 0.000000 0.021789
#
#
# Mechanical properties :
#
#
# Convention : Reuss Voigt Hill
#
# Bulk Modulus (GPa) = 68.28654 69.47874 68.88264
# Shear Modulus (GPa) = 151.72727 29.75103 90.73915
#
# Velocity S-wave (km/s) = 7.97058 3.52946 6.16389
# Velocity P-wave (km/s) = 10.64421 6.76026 8.91628
#
# Compressibility (1/GPa) = 0.01464417
#
# Stress axis : x y z
#
# Youngs Moduli (GPa) = 123.99358 98.82752 85.26610
#
# Poissons Ratio (x) = 0.21494 0.17595
# Poissons Ratio (y) = 0.26968 0.28950
# Poissons Ratio (z) = 0.25586 0.33555
#
# Static dielectric constant tensor:
#      x y z
#    x 1.963160 0.000000 0.000000 
#    y 0.000000 1.896030 0.000000 
#    z 0.000000 0.000000 2.027830 
# 
# From -- ./inp_files/14452.got.cif
#   From: 2010.05.17/outbox.cif.g08.bks.cpg/sg23_8_cif.got.tgz:14452.got - 2010.06.04 12:02:01.
