data_PCOD9332141
_publ_section_title
;
Structure prediction by ZEFSAII (Michael W. Deem and Ramdas Pophale) SiO2 
 PCOD9332141
Probable space group: I 2 2 2
;
_chemical_formula_sum "Si O2"
_cell_formula_units_Z 58
_cell_length_a 18.029108
_cell_length_b 9.688662
_cell_length_c 16.699065
_cell_angle_alpha 90.000000
_cell_angle_beta 90.000000
_cell_angle_gamma 90.000000
_cell_volume 2916.958167
_symmetry_space_group_name_H-M "I 2 2 2"
_symmetry_group_IT_number 23
_symmetry_cell_setting 'orthorhombic'
loop_
_space_group_symop_operation_xyz
x,y,z
-x,-y,z
x,-y,-z
-x,y,-z
1/2+x,1/2+y,1/2+z
1/2-x,1/2-y,1/2+z
1/2+x,1/2-y,1/2-z
1/2-x,1/2+y,1/2-z
loop_
_atom_site_type_symbol
_atom_site_label
_atom_site_fract_x
_atom_site_fract_y
_atom_site_fract_z
Si Si1 0.616216 0.336109 0.779971
Si Si2 0.019360 0.360599 0.271534
Si Si3 0.749210 0.173801 0.583499
Si Si4 0.592325 0.392132 0.137989
Si Si5 0.345272 0.974808 0.315630
Si Si6 0.258896 0.538520 0.664876
Si Si7 0.000000 0.000000 0.500000
Si Si8 0.755436 0.245056 0.398899
O O1 0.556652 0.221958 0.751737
O O2 0.574282 0.467911 0.815116
O O3 0.669760 0.403899 0.713450
O O4 0.666818 0.276340 0.852190
O O5 0.069304 0.246564 0.316376
O O6 0.070807 0.427643 0.201973
O O7 0.000000 0.500000 0.321092
O O8 0.820020 0.097941 0.621346
O O9 0.760787 0.329941 0.612308
O O10 0.753488 0.181568 0.487806
O O11 0.677720 0.098311 0.623315
O O12 0.550808 0.403110 0.054179
O O13 0.303090 0.000923 0.231243
O O14 0.304670 0.840344 0.349491
O O15 0.267415 0.404709 0.609529
#
# Coordination Sequence:
#
# PCOD9332141 Si02
#       8
#     8   8   8   8   8   8   2   8
#     4  11  23  41  68  92 134 182 226 272 342 416
#     4  12  24  42  63  99 131 173 225 276 334 400
#     4  12  23  39  63  98 134 173 216 282 337 393
#     4  12  23  39  62  90 132 179 219 261 333 426
#     4  11  22  41  66  90 132 175 230 273 325 403
#     4  11  21  39  62  95 129 170 222 278 329 392
#     4  12  24  40  58  92 136 184 206 252 352 436
#     4  11  23  39  65  98 130 173 224 280 337 402
#
# _framework density 19.883728000000001
#
# number of rings (size 3 to 8) (size 9 to 14) (size 15 to 20)
#    0.000    0.552    5.517    5.793    0.000    0.000 
#    0.000    0.345    0.000    5.793    0.000    3.862 
#    0.000    0.000    0.000    0.000    0.000    0.000 
#
# Total GULP energy -161827.227083 kJ/mol
# GULP energy per Si atom -5580.249210 kJ/mol
# Density = 1.983847 g / cm^3
# Si number density = 19.883728 Si / 1000 Ang^3
#
#
#
# Elastic Constant Matrix: (Units=GPa)
#
#
# Indices 1 2 3 4 5 6 
#
# 1 120.2139 39.3698 48.7331 0.0000 0.0000 0.0000
# 2 39.3698 150.6020 30.5401 0.0000 0.0000 0.0000
# 3 48.7331 30.5401 55.7371 0.0000 0.0000 0.0000
# 4 0.0000 0.0000 0.0000 31.3489 0.0000 0.0000
# 5 0.0000 0.0000 0.0000 0.0000 17.4010 0.0000
# 6 0.0000 0.0000 0.0000 0.0000 0.0000 35.5446
#
#
#
# Elastic Compliance Matrix: (Units=1/GPa)
#
#
# Indices 1 2 3 4 5 6 
#
# 1 0.013088 -0.001238 -0.010765 0.000000 0.000000 0.000000
# 2 -0.001238 0.007587 -0.003074 0.000000 0.000000 0.000000
# 3 -0.010765 -0.003074 0.029038 0.000000 0.000000 0.000000
# 4 0.000000 0.000000 0.000000 0.031899 0.000000 0.000000
# 5 0.000000 0.000000 0.000000 0.000000 0.057468 0.000000
# 6 0.000000 0.000000 0.000000 0.000000 0.000000 0.028134
#
#
# Mechanical properties :
#
#
# Convention : Reuss Voigt Hill
#
# Bulk Modulus (GPa) = 51.13026 62.64879 56.88952
# Shear Modulus (GPa) = 24.52323 30.71957 27.62140
#
# Velocity S-wave (km/s) = 3.51569 3.93486 3.73117
# Velocity P-wave (km/s) = 6.50004 7.22635 6.87280
#
# Compressibility (1/GPa) = 0.01955789
#
# Stress axis : x y z
#
# Youngs Moduli (GPa) = 76.40614 131.80040 34.43774
#
# Poissons Ratio (x) = 0.16323 0.37071
# Poissons Ratio (y) = 0.09463 0.10588
# Poissons Ratio (z) = 0.82249 0.40521
#
# Static dielectric constant tensor:
#      x y z
#    x 0.557420 0.000000 0.000000 
#    y 0.000000 1.724290 0.000000 
#    z 0.000000 0.000000 1.726750 
# 
# From -- ./inp_files/23891.got.cif
#   From: 2010.05.17/outbox.cif.g08.bks.cpg/sg23_12_cif.got.tgz:23891.got - 2010.06.04 12:02:01.
