data_PCOD9332019
_publ_section_title
;
Structure prediction by ZEFSAII (Michael W. Deem and Ramdas Pophale) SiO2 
 PCOD9332019
Probable space group: I 2 2 2
;
_chemical_formula_sum "Si O2"
_cell_formula_units_Z 38
_cell_length_a 16.050284
_cell_length_b 16.592208
_cell_length_c 6.140985
_cell_angle_alpha 90.000000
_cell_angle_beta 90.000000
_cell_angle_gamma 90.000000
_cell_volume 1635.403570
_symmetry_space_group_name_H-M "I 2 2 2"
_symmetry_group_IT_number 23
_symmetry_cell_setting 'orthorhombic'
loop_
_space_group_symop_operation_xyz
x,y,z
-x,-y,z
x,-y,-z
-x,y,-z
1/2+x,1/2+y,1/2+z
1/2-x,1/2-y,1/2+z
1/2+x,1/2-y,1/2-z
1/2-x,1/2+y,1/2-z
loop_
_atom_site_type_symbol
_atom_site_label
_atom_site_fract_x
_atom_site_fract_y
_atom_site_fract_z
Si Si1 0.000000 0.000000 0.500000
Si Si2 0.588310 0.574626 0.621294
Si Si3 0.210176 0.641236 0.730819
Si Si4 0.347644 0.000000 0.500000
Si Si5 0.920571 0.373774 0.345287
Si Si6 0.865291 0.237742 0.068888
O O1 0.062841 0.946740 0.638282
O O2 0.634599 0.500000 0.500000
O O3 0.500000 0.578134 0.500000
O O4 0.618575 0.663499 0.591178
O O5 0.211004 0.554094 0.844494
O O6 0.160539 0.632825 0.503226
O O7 0.159323 0.691783 0.907000
O O8 0.293289 0.694249 0.708898
O O9 0.402725 0.943420 0.664058
O O10 0.000000 0.390404 0.500000
O O11 0.928408 0.285518 0.228626
#
# Coordination Sequence:
#
# PCOD9332019 Si02
#       6
#     2   8   8   4   8   8
#     4   8  18  44  62  98 130 184 216 298 344 428
#     4   9  21  40  64 100 135 167 230 280 345 428
#     4  11  24  46  71 105 144 187 241 304 360 441
#     4  10  26  47  77 108 146 190 250 296 381 445
#     4  11  26  47  76 109 148 197 244 312 373 446
#     4  11  24  45  69 106 143 188 242 296 367 440
#
# _framework density 23.235854
#
# number of rings (size 3 to 8) (size 9 to 14) (size 15 to 20)
#    0.000    1.895    2.105    0.632    2.947   10.105 
#    1.895    2.105    2.316    0.000    0.000    0.000 
#    0.000    0.000    0.000    0.000    0.000    0.000 
#
# Total GULP energy -105907.894568 kJ/mol
# GULP energy per Si atom -5574.099714 kJ/mol
# Density = 2.318297 g / cm^3
# Si number density = 23.235854 Si / 1000 Ang^3
#
#
#
# Elastic Constant Matrix: (Units=GPa)
#
#
# Indices 1 2 3 4 5 6 
#
# 1 32.2294 18.1556 31.2463 0.0000 0.0000 0.0000
# 2 18.1556 149.6069 66.6503 0.0000 0.0000 0.0000
# 3 31.2463 66.6503 113.2527 0.0000 0.0000 0.0000
# 4 0.0000 0.0000 0.0000 66.8637 0.0000 0.0000
# 5 0.0000 0.0000 0.0000 0.0000 30.4619 0.0000
# 6 0.0000 0.0000 0.0000 0.0000 0.0000 22.3367
#
#
#
# Elastic Compliance Matrix: (Units=1/GPa)
#
#
# Indices 1 2 3 4 5 6 
#
# 1 0.042358 0.000089 -0.011739 0.000000 0.000000 0.000000
# 2 0.000089 0.009060 -0.005356 0.000000 0.000000 0.000000
# 3 -0.011739 -0.005356 0.015221 0.000000 0.000000 0.000000
# 4 0.000000 0.000000 0.000000 0.014956 0.000000 0.000000
# 5 0.000000 0.000000 0.000000 0.000000 0.032828 0.000000
# 6 0.000000 0.000000 0.000000 0.000000 0.000000 0.044769
#
#
# Mechanical properties :
#
#
# Convention : Reuss Voigt Hill
#
# Bulk Modulus (GPa) = 30.64984 58.57703 44.61344
# Shear Modulus (GPa) = 24.50023 35.86827 30.18425
#
# Velocity S-wave (km/s) = 3.25070 3.93321 3.60813
# Velocity P-wave (km/s) = 5.22578 6.77431 6.04980
#
# Compressibility (1/GPa) = 0.03262659
#
# Stress axis : x y z
#
# Youngs Moduli (GPa) = 23.60808 110.38035 65.69908
#
# Poissons Ratio (x) = -0.00988 0.77126
# Poissons Ratio (y) = -0.00211 0.35191
# Poissons Ratio (z) = 0.27714 0.59123
#
# Static dielectric constant tensor:
#      x y z
#    x 1.765230 0.000000 0.000000 
#    y 0.000000 1.408020 0.000000 
#    z 0.000000 0.000000 1.691920 
# 
# From -- ./inp_files/3123.got.cif
#   From: 2010.05.17/outbox.cif.g08.bks.cpg/sg23_2_cif.got.tgz:3123.got - 2010.06.04 12:02:01.
