data_PCOD9332689
_publ_section_title
;
Structure prediction by ZEFSAII (Michael W. Deem and Ramdas Pophale) SiO2 
 PCOD9332689
Probable space group: I 21 21 21
;
_chemical_formula_sum "Si O2"
_cell_formula_units_Z 40
_cell_length_a 13.650784
_cell_length_b 9.413448
_cell_length_c 12.689378
_cell_angle_alpha 90.000000
_cell_angle_beta 90.000000
_cell_angle_gamma 90.000000
_cell_volume 1630.597069
_symmetry_space_group_name_H-M "I 21 21 21"
_symmetry_group_IT_number 24
_symmetry_cell_setting 'orthorhombic'
loop_
_space_group_symop_operation_xyz
x,y,z
-x,1/2-y,z
x,-y,1/2-z
1/2-x,y,-z
1/2+x,1/2+y,1/2+z
1/2-x,-y,1/2+z
1/2+x,1/2-y,-z
-x,1/2+y,1/2-z
loop_
_atom_site_type_symbol
_atom_site_label
_atom_site_fract_x
_atom_site_fract_y
_atom_site_fract_z
Si Si1 0.250000 0.776789 0.500000
Si Si2 0.218174 0.500000 0.250000
Si Si3 0.395754 0.522560 0.538489
Si Si4 0.615574 0.747147 0.091215
Si Si5 0.921876 0.622252 0.120307
Si Si6 0.745863 0.318588 0.229131
O O1 0.345904 0.673676 0.512864
O O2 0.241611 0.863241 0.608249
O O3 0.155817 0.470978 0.354272
O O4 0.268536 0.352567 0.224890
O O5 0.367964 0.413448 0.443582
O O6 0.509700 0.507961 0.576771
O O7 0.500000 0.750000 0.110796
O O8 0.663748 0.656321 0.184112
O O9 0.637891 0.668192 0.982214
O O10 0.848969 0.635842 0.218967
O O11 0.000000 0.750000 0.136954
#
# Coordination Sequence:
#
# PCOD9332689 Si02
#       6
#     4   4   8   8   8   8
#     4  10  22  30  50  82 118 138 166 230 302 324
#     4  10  16  24  48  70 108 122 162 218 282 300
#     4   9  17  29  43  77 104 136 169 222 277 325
#     4   9  17  29  48  72 102 135 178 223 269 315
#     4   9  17  28  48  73 103 139 182 222 265 329
#     4  11  18  30  48  76 106 143 171 224 284 333
#
# _framework density 24.530892999999999
#
# number of rings (size 3 to 8) (size 9 to 14) (size 15 to 20)
#    0.000    2.800    4.000    3.000    0.000    0.000 
#    0.000    1.000    0.000    0.000    0.000   12.600 
#    0.000    5.000    0.000    0.000    0.000    0.000 
#
# Total GULP energy -111410.112851 kJ/mol
# GULP energy per Si atom -5570.505643 kJ/mol
# Density = 2.447506 g / cm^3
# Si number density = 24.530893 Si / 1000 Ang^3
#
#
#
# Elastic Constant Matrix: (Units=GPa)
#
#
# Indices 1 2 3 4 5 6 
#
# 1 101.8705 22.5167 64.7495 0.0000 0.0000 0.0000
# 2 22.5167 91.9364 26.1822 0.0000 0.0000 0.0000
# 3 64.7495 26.1822 215.1835 0.0000 0.0000 0.0000
# 4 0.0000 0.0000 0.0000 19.1412 0.0000 0.0000
# 5 0.0000 0.0000 0.0000 0.0000 -318.1790 0.0000
# 6 0.0000 0.0000 0.0000 0.0000 0.0000 0.0135
#
#
#
# Elastic Compliance Matrix: (Units=1/GPa)
#
#
# Indices 1 2 3 4 5 6 
#
# 1 0.012504 -0.002062 -0.003512 0.000000 0.000000 0.000000
# 2 -0.002062 0.011608 -0.000792 0.000000 0.000000 0.000000
# 3 -0.003512 -0.000792 0.005800 0.000000 0.000000 0.000000
# 4 0.000000 0.000000 0.000000 0.052243 0.000000 0.000000
# 5 0.000000 0.000000 0.000000 0.000000 -0.003143 0.000000
# 6 0.000000 0.000000 0.000000 0.000000 0.000000 73.858836
#
#
# Mechanical properties :
#
#
# Convention : Reuss Voigt Hill
#
# Bulk Modulus (GPa) = 58.20551 70.65412 64.42982
# Shear Modulus (GPa) = 0.06761 -40.10204 -20.01722
#
# Velocity S-wave (km/s) = 0.16619 -4.04760 -2.85967
# Velocity P-wave (km/s) = 4.88014 2.64963 3.92660
#
# Compressibility (1/GPa) = 0.01718050
#
# Stress axis : x y z
#
# Youngs Moduli (GPa) = 79.97276 86.14984 172.40798
#
# Poissons Ratio (x) = 0.17768 0.60543
# Poissons Ratio (y) = 0.16494 0.13651
# Poissons Ratio (z) = 0.28083 0.06821
#
# Static dielectric constant tensor:
#      x y z
#    x 2.021450 0.000000 0.000000 
#    y 0.000000 2.053530 0.000000 
#    z 0.000000 0.000000 2.050380 
# 
# From -- ./inp_files/20534.got.cif
#   From: 2010.05.17/outbox.cif.g08.bks.cpg/sg24_11_cif.got.tgz:20534.got - 2010.06.04 00:33:39.
