data_PCOD9332417
_publ_section_title
;
Structure prediction by ZEFSAII (Michael W. Deem and Ramdas Pophale) SiO2 
 PCOD9332417
Probable space group: I 2 2 2
;
_chemical_formula_sum "Si O2"
_cell_formula_units_Z 36
_cell_length_a 11.761868
_cell_length_b 21.412393
_cell_length_c 6.189852
_cell_angle_alpha 90.000000
_cell_angle_beta 90.000000
_cell_angle_gamma 90.000000
_cell_volume 1558.912617
_symmetry_space_group_name_H-M "I 2 2 2"
_symmetry_group_IT_number 23
_symmetry_cell_setting 'orthorhombic'
loop_
_space_group_symop_operation_xyz
x,y,z
-x,-y,z
x,-y,-z
-x,y,-z
1/2+x,1/2+y,1/2+z
1/2-x,1/2-y,1/2+z
1/2+x,1/2-y,1/2-z
1/2-x,1/2+y,1/2-z
loop_
_atom_site_type_symbol
_atom_site_label
_atom_site_fract_x
_atom_site_fract_y
_atom_site_fract_z
Si Si1 0.500000 0.000000 0.000000
Si Si2 0.814811 0.591415 0.337518
Si Si3 0.381619 0.217083 0.085807
Si Si4 0.000000 0.000000 0.500000
Si Si5 0.890881 0.091608 0.851433
Si Si6 0.258409 0.831218 0.550204
O O1 0.417503 0.956553 0.141258
O O2 0.854491 0.658199 0.433433
O O3 0.708787 0.570471 0.485205
O O4 0.776679 0.608548 0.097603
O O5 0.372404 0.188850 0.325484
O O6 0.500000 0.242656 0.000000
O O7 0.290456 0.272481 0.078052
O O8 0.072205 0.043054 0.334677
O O9 0.835577 0.150415 0.729154
O O10 0.000000 0.105854 0.000000
#
# Coordination Sequence:
#
# PCOD9332417 Si02
#       6
#     2   8   8   2   8   8
#     4  12  28  52  78 104 162 216 268 314 376 492
#     4  11  26  50  72 110 153 210 263 315 390 478
#     4  11  24  45  72 109 149 197 256 319 399 469
#     4  12  26  48  74 108 148 200 238 338 398 462
#     4  11  27  45  75 111 149 193 254 323 398 470
#     4  11  25  46  76 111 150 198 254 327 397 470
#
# _framework density 23.093021
#
# number of rings (size 3 to 8) (size 9 to 14) (size 15 to 20)
#    0.000    0.889    3.333    1.667   10.889    0.889 
#    0.000    4.444    0.000    0.000    0.000    0.000 
#    0.000    0.000    0.000    0.000    0.000    0.000 
#
# Total GULP energy -100683.687998 kJ/mol
# GULP energy per Si atom -5593.538222 kJ/mol
# Density = 2.304046 g / cm^3
# Si number density = 23.093021 Si / 1000 Ang^3
#
#
#
# Elastic Constant Matrix: (Units=GPa)
#
#
# Indices 1 2 3 4 5 6 
#
# 1 128.3164 46.2903 61.0519 0.0021 -0.0009 -0.0003
# 2 46.2903 99.5231 37.6106 -0.0010 -0.0004 0.0001
# 3 61.0519 37.6106 126.4628 0.0048 0.0016 0.0048
# 4 0.0021 -0.0010 0.0048 20.7305 0.0000 0.0017
# 5 -0.0009 -0.0004 0.0016 0.0000 27.3726 -0.0007
# 6 -0.0003 0.0001 0.0048 0.0017 -0.0007 40.1531
#
#
#
# Elastic Compliance Matrix: (Units=1/GPa)
#
#
# Indices 1 2 3 4 5 6 
#
# 1 0.011126 -0.003543 -0.004317 0.000000 0.000001 0.000001
# 2 -0.003543 0.012449 -0.001992 0.000001 0.000000 0.000000
# 3 -0.004317 -0.001992 0.010584 -0.000002 -0.000001 -0.000001
# 4 0.000000 0.000001 -0.000002 0.048238 0.000000 -0.000002
# 5 0.000001 0.000000 -0.000001 0.000000 0.036533 0.000001
# 6 0.000001 0.000000 -0.000001 -0.000002 0.000001 0.024905
#
#
# Mechanical properties :
#
#
# Convention : Reuss Voigt Hill
#
# Bulk Modulus (GPa) = 69.18593 71.57866 70.38230
# Shear Modulus (GPa) = 29.69893 31.60788 30.65340
#
# Velocity S-wave (km/s) = 3.59005 3.70364 3.64729
# Velocity P-wave (km/s) = 6.87091 7.02512 6.94844
#
# Compressibility (1/GPa) = 0.01445381
#
# Stress axis : x y z
#
# Youngs Moduli (GPa) = 89.88291 80.33010 94.48170
#
# Poissons Ratio (x) = 0.28463 0.40790
# Poissons Ratio (y) = 0.31847 0.18818
# Poissons Ratio (z) = 0.38805 0.16000
#
# Static dielectric constant tensor:
#      x y z
#    x 1.883500 0.000000 -0.000010 
#    y 0.000000 1.833360 0.000000 
#    z -0.000010 0.000000 1.906240 
# 
# From -- ./inp_files/1606.got.cif
#   From: 2010.05.17/outbox.cif.g08.bks.cpg/sg23_1_cif.got.tgz:1606.got - 2010.06.04 12:02:01.
