data_PCOD9332646
_publ_section_title
;
Structure prediction by ZEFSAII (Michael W. Deem and Ramdas Pophale) SiO2 
 PCOD9332646
Probable space group: I 2 2 2
;
_chemical_formula_sum "Si O2"
_cell_formula_units_Z 24
_cell_length_a 9.000000
_cell_length_b 30.000000
_cell_length_c 9.000000
_cell_angle_alpha 90.000000
_cell_angle_beta 90.000000
_cell_angle_gamma 90.000000
_cell_volume 2430.000000
_symmetry_space_group_name_H-M "I 2 2 2"
_symmetry_group_IT_number 23
_symmetry_cell_setting 'orthorhombic'
loop_
_space_group_symop_operation_xyz
x,y,z
-x,-y,z
x,-y,-z
-x,y,-z
1/2+x,1/2+y,1/2+z
1/2-x,1/2-y,1/2+z
1/2+x,1/2-y,1/2-z
1/2-x,1/2+y,1/2-z
loop_
_atom_site_type_symbol
_atom_site_label
_atom_site_fract_x
_atom_site_fract_y
_atom_site_fract_z
Si Si1 0.207520 0.207580 0.370411
Si Si2 0.623581 0.385636 0.112750
Si Si3 0.637282 0.712313 0.208885
Si Si4 0.901461 0.121490 0.133375
Si Si5 0.842817 0.549524 0.062107
Si Si6 0.341110 0.047803 0.921814
O O1 0.229676 0.154876 0.337091
O O2 0.309817 0.244570 0.297815
O O3 0.212002 0.212844 0.547454
O O4 0.039767 0.215580 0.313071
O O5 0.519758 0.400846 0.250305
O O6 0.500000 0.365671 0.000000
O O7 0.714027 0.420883 0.014074
O O8 0.670338 0.664499 0.286600
O O9 0.784680 0.086005 0.067260
O O10 0.000000 0.139920 0.000000
O O11 0.853472 0.545212 0.241268
O O12 0.822468 0.500000 0.000000
O O13 0.000000 0.566861 0.000000
O O14 0.500000 0.059385 0.000000
O O15 0.300385 0.000000 0.000000
#
# Coordination Sequence:
#
# PCOD9332646 Si02
#       6
#     8   8   8   8   8   8
#     4  10  21  42  64  92 131 164 216 263 325 384
#     4  11  21  47  67  92 131 175 222 278 326 395
#     4  10  22  42  63  93 127 170 210 268 320 391
#     4  11  25  43  68  95 133 174 223 279 340 396
#     4  11  24  43  69  95 130 177 225 270 333 403
#     4  11  24  45  65  96 137 171 217 280 338 398
#
# _framework density 9.8765429999999999
#
# number of rings (size 3 to 8) (size 9 to 14) (size 15 to 20)
#    0.000    1.333    5.000    2.000    9.333    0.667 
#    9.000    0.000    0.000    0.000    0.000    0.000 
#    0.000    0.000    0.000    0.000    0.000    0.000 
#
# Total GULP energy -133834.431707 kJ/mol
# GULP energy per Si atom -5576.434654 kJ/mol
# Density = 0.985406 g / cm^3
# Si number density = 9.876543 Si / 1000 Ang^3
#
#
#
# Elastic Constant Matrix: (Units=GPa)
#
#
# Indices 1 2 3 4 5 6 
#
# 1 63.4812 62.1796 45.7340 0.0006 -0.0002 -0.0002
# 2 62.1796 112.3606 42.1448 0.0007 0.0003 -0.0001
# 3 45.7340 42.1448 87.7936 0.0018 0.0020 0.0007
# 4 0.0006 0.0007 0.0018 41.2401 0.0001 -0.0004
# 5 -0.0002 0.0003 0.0020 0.0001 42.4545 0.0005
# 6 -0.0002 -0.0001 0.0007 -0.0004 0.0005 38.8989
#
#
#
# Elastic Compliance Matrix: (Units=1/GPa)
#
#
# Indices 1 2 3 4 5 6 
#
# 1 0.045261 -0.019762 -0.014091 0.000000 0.000001 0.000000
# 2 -0.019762 0.019483 0.000942 0.000000 0.000000 0.000000
# 3 -0.014091 0.000942 0.018279 -0.000001 -0.000001 0.000000
# 4 0.000000 0.000000 -0.000001 0.024248 0.000000 0.000000
# 5 0.000001 0.000000 -0.000001 0.000000 0.023555 0.000000
# 6 0.000000 0.000000 0.000000 0.000000 0.000000 0.025708
#
#
# Mechanical properties :
#
#
# Convention : Reuss Voigt Hill
#
# Bulk Modulus (GPa) = 58.13853 62.63911 60.38882
# Shear Modulus (GPa) = 21.92136 32.09052 27.00594
#
# Velocity S-wave (km/s) = 3.33493 4.03498 3.70155
# Velocity P-wave (km/s) = 6.65775 7.31355 6.99334
#
# Compressibility (1/GPa) = 0.01720030
#
# Stress axis : x y z
#
# Youngs Moduli (GPa) = 22.09412 51.32782 54.70863
#
# Poissons Ratio (x) = 1.01432 0.77091
# Poissons Ratio (y) = 0.43662 -0.05153
# Poissons Ratio (z) = 0.31133 -0.04834
#
# Static dielectric constant tensor:
#      x y z
#    x 1.707400 0.000000 0.000000 
#    y 0.000000 1.699390 0.000000 
#    z 0.000000 0.000000 1.735660 
# 
# From -- ./inp_files/7374.got.cif
#   From: 2010.05.17/outbox.ucp.g08.bks.cvg/sg23_4_cif.got.tgz:7374.got - 2010.06.11 15:19:07.
