data_PCOD9332773
_publ_section_title
;
Structure prediction by ZEFSAII (Michael W. Deem and Ramdas Pophale) SiO2 
 PCOD9332773
Probable space group: I 21 21 21
;
_chemical_formula_sum "Si O2"
_cell_formula_units_Z 44
_cell_length_a 26.024931
_cell_length_b 9.642598
_cell_length_c 7.062216
_cell_angle_alpha 90.000000
_cell_angle_beta 90.000000
_cell_angle_gamma 90.000000
_cell_volume 1772.248611
_symmetry_space_group_name_H-M "I 21 21 21"
_symmetry_group_IT_number 24
_symmetry_cell_setting 'orthorhombic'
loop_
_space_group_symop_operation_xyz
x,y,z
-x,1/2-y,z
x,-y,1/2-z
1/2-x,y,-z
1/2+x,1/2+y,1/2+z
1/2-x,-y,1/2+z
1/2+x,1/2-y,-z
-x,1/2+y,1/2-z
loop_
_atom_site_type_symbol
_atom_site_label
_atom_site_fract_x
_atom_site_fract_y
_atom_site_fract_z
Si Si1 0.977095 0.404584 0.436660
Si Si2 0.918191 0.002335 0.481757
Si Si3 0.659120 0.772541 0.458897
Si Si4 0.138017 0.967637 0.022221
Si Si5 0.250000 0.450443 0.000000
Si Si6 0.328304 0.309148 0.589045
O O1 0.972170 0.500000 0.250000
O O2 0.920023 0.414695 0.521614
O O3 0.000000 0.250000 0.393747
O O4 0.024309 0.473369 0.547279
O O5 0.879195 0.128748 0.508267
O O6 0.920048 0.000000 0.250000
O O7 0.891254 0.867008 0.567458
O O8 0.651029 0.611272 0.419006
O O9 0.665784 0.783139 0.687554
O O10 0.711129 0.847839 0.384942
O O11 0.138444 0.000000 0.250000
O O12 0.178201 0.841587 0.997654
O O13 0.289700 0.564081 0.922491
#
# Coordination Sequence:
#
# PCOD9332773 Si02
#       6
#     8   8   8   8   4   8
#     4  10  17  22  35  57  81 112 143 161 185 234
#     4   8  14  23  36  51  80 105 134 158 185 231
#     4   9  18  29  41  59  80 107 140 178 207 240
#     4   9  17  26  39  57  84 109 138 170 202 233
#     4  10  18  28  44  54  72 110 144 176 210 248
#     4   9  16  29  41  58  78 108 137 175 206 242
#
# _framework density 24.827217000000001
#
# number of rings (size 3 to 8) (size 9 to 14) (size 15 to 20)
#    0.000    2.909    1.818    1.636    7.636    0.727 
#    0.000    0.000    0.000    0.000    0.000    0.000 
#    0.000    0.000    0.000  104.727    0.000   11.636 
#
# Total GULP energy -122656.768614 kJ/mol
# GULP energy per Si atom -5575.307664 kJ/mol
# Density = 2.477071 g / cm^3
# Si number density = 24.827217 Si / 1000 Ang^3
#
#
#
# Elastic Constant Matrix: (Units=GPa)
#
#
# Indices 1 2 3 4 5 6 
#
# 1 138.8989 93.4949 6.7097 0.0000 0.0000 0.0000
# 2 93.4949 241.1361 15.1220 0.0000 0.0000 0.0000
# 3 6.7097 15.1220 90.1807 0.0000 0.0000 0.0000
# 4 0.0000 0.0000 0.0000 3.1829 0.0000 0.0000
# 5 0.0000 0.0000 0.0000 0.0000 8.6445 0.0000
# 6 0.0000 0.0000 0.0000 0.0000 0.0000 -22.9671
#
#
#
# Elastic Compliance Matrix: (Units=1/GPa)
#
#
# Indices 1 2 3 4 5 6 
#
# 1 0.009743 -0.003772 -0.000092 0.000000 0.000000 0.000000
# 2 -0.003772 0.005651 -0.000667 0.000000 0.000000 0.000000
# 3 -0.000092 -0.000667 0.011208 0.000000 0.000000 0.000000
# 4 0.000000 0.000000 0.000000 0.314175 0.000000 0.000000
# 5 0.000000 0.000000 0.000000 0.000000 0.115680 0.000000
# 6 0.000000 0.000000 0.000000 0.000000 0.000000 -0.043540
#
#
# Mechanical properties :
#
#
# Convention : Reuss Voigt Hill
#
# Bulk Modulus (GPa) = 57.01491 77.87430 67.44461
# Shear Modulus (GPa) = 11.68701 21.43135 16.55918
#
# Velocity S-wave (km/s) = 2.17199 2.94125 2.58539
# Velocity P-wave (km/s) = 5.41337 6.55509 6.01140
#
# Compressibility (1/GPa) = 0.01753927
#
# Stress axis : x y z
#
# Youngs Moduli (GPa) = 102.64046 176.95159 89.22540
#
# Poissons Ratio (x) = 0.66741 0.00825
# Poissons Ratio (y) = 0.38713 0.05951
# Poissons Ratio (z) = 0.00949 0.11803
#
# Static dielectric constant tensor:
#      x y z
#    x 1.993900 0.000000 0.000000 
#    y 0.000000 1.900790 0.000000 
#    z 0.000000 0.000000 2.155970 
# 
# From -- ./inp_files/16342.got.cif
#   From: 2010.05.17/outbox.cif.g08.bks.cpg/sg24_9_cif.got.tgz:16342.got - 2010.06.04 00:33:39.
