data_PCOD9332195
_publ_section_title
;
Structure prediction by ZEFSAII (Michael W. Deem and Ramdas Pophale) SiO2 
 PCOD9332195
Probable space group: I 2 2 2
;
_chemical_formula_sum "Si O2"
_cell_formula_units_Z 64
_cell_length_a 30.059198
_cell_length_b 13.169855
_cell_length_c 8.322893
_cell_angle_alpha 90.000000
_cell_angle_beta 90.000000
_cell_angle_gamma 90.000000
_cell_volume 3294.827589
_symmetry_space_group_name_H-M "I 2 2 2"
_symmetry_group_IT_number 23
_symmetry_cell_setting 'orthorhombic'
loop_
_space_group_symop_operation_xyz
x,y,z
-x,-y,z
x,-y,-z
-x,y,-z
1/2+x,1/2+y,1/2+z
1/2-x,1/2-y,1/2+z
1/2+x,1/2-y,1/2-z
1/2-x,1/2+y,1/2-z
loop_
_atom_site_type_symbol
_atom_site_label
_atom_site_fract_x
_atom_site_fract_y
_atom_site_fract_z
Si Si1 0.711064 0.848573 0.690171
Si Si2 0.716782 0.778085 0.327868
Si Si3 0.645631 0.494227 0.307198
Si Si4 0.748077 0.474566 0.313194
Si Si5 0.948608 0.612045 0.304657
Si Si6 0.878094 0.213504 0.303919
Si Si7 0.375022 0.271776 0.810226
Si Si8 0.551359 0.883512 0.195971
O O1 0.718980 0.818575 0.507536
O O2 0.753366 0.820495 0.800950
O O3 0.668670 0.788694 0.753719
O O4 0.712770 0.968754 0.715048
O O5 0.740831 0.857308 0.211765
O O6 0.666827 0.755267 0.276578
O O7 0.646381 0.500000 0.500000
O O8 0.697545 0.492853 0.251909
O O9 0.620604 0.594219 0.241825
O O10 0.625309 0.386270 0.255754
O O11 0.750879 0.500000 0.500000
O O12 0.916318 0.702573 0.253498
O O13 0.948017 0.614123 0.500330
O O14 0.934113 0.497868 0.254064
O O15 0.999811 0.627857 0.254887
O O16 0.874562 0.221666 0.496561
O O17 0.918005 0.289207 0.252867
#
# Coordination Sequence:
#
# PCOD9332195 Si02
#       8
#     8   8   8   8   8   8   8   8
#     4  12  24  38  56  82 116 155 195 239 287 344
#     4  12  24  38  56  82 116 155 195 239 287 344
#     4  11  23  39  58  78 114 160 200 244 290 341
#     4  11  23  39  57  78 110 155 201 244 287 337
#     4   8  16  34  60  90 120 148 183 233 291 348
#     4  11  22  36  60  89 117 152 196 242 290 348
#     4  11  22  36  60  89 117 152 196 242 290 348
#     4   8  16  34  60  90 120 148 183 233 291 348
#
# _framework density 19.424384
#
# number of rings (size 3 to 8) (size 9 to 14) (size 15 to 20)
#    0.000    1.500    2.500    4.500    1.750    1.000 
#    0.000    0.625    0.000    6.750    0.000    7.000 
#    0.000    0.000    0.000    0.000    0.000    0.000 
#
# Total GULP energy -178616.659103 kJ/mol
# GULP energy per Si atom -5581.770597 kJ/mol
# Density = 1.938017 g / cm^3
# Si number density = 19.424384 Si / 1000 Ang^3
#
#
#
# Elastic Constant Matrix: (Units=GPa)
#
#
# Indices 1 2 3 4 5 6 
#
# 1 100.6284 75.3762 14.5813 0.0000 0.0000 0.0000
# 2 75.3762 151.4138 22.8136 0.0000 0.0000 0.0000
# 3 14.5813 22.8136 56.6050 0.0000 0.0000 0.0000
# 4 0.0000 0.0000 0.0000 29.1942 0.0000 0.0000
# 5 0.0000 0.0000 0.0000 0.0000 17.4519 0.0000
# 6 0.0000 0.0000 0.0000 0.0000 0.0000 38.0362
#
#
#
# Elastic Compliance Matrix: (Units=1/GPa)
#
#
# Indices 1 2 3 4 5 6 
#
# 1 0.015896 -0.007768 -0.000964 0.000000 0.000000 0.000000
# 2 -0.007768 0.010827 -0.002363 0.000000 0.000000 0.000000
# 3 -0.000964 -0.002363 0.018867 0.000000 0.000000 0.000000
# 4 0.000000 0.000000 0.000000 0.034253 0.000000 0.000000
# 5 0.000000 0.000000 0.000000 0.000000 0.057300 0.000000
# 6 0.000000 0.000000 0.000000 0.000000 0.000000 0.026291
#
#
# Mechanical properties :
#
#
# Convention : Reuss Voigt Hill
#
# Bulk Modulus (GPa) = 42.73381 59.35438 51.04410
# Shear Modulus (GPa) = 25.84990 29.99487 27.92239
#
# Velocity S-wave (km/s) = 3.65197 3.93388 3.79554
# Velocity P-wave (km/s) = 6.31113 7.15939 6.74860
#
# Compressibility (1/GPa) = 0.02340067
#
# Stress axis : x y z
#
# Youngs Moduli (GPa) = 62.90939 92.35793 53.00294
#
# Poissons Ratio (x) = 0.71743 0.05109
# Poissons Ratio (y) = 0.48868 0.12523
# Poissons Ratio (z) = 0.06064 0.21822
#
# Static dielectric constant tensor:
#      x y z
#    x 1.670440 0.000000 0.000000 
#    y 0.000000 1.699460 0.000000 
#    z 0.000000 0.000000 1.670150 
# 
# From -- ./inp_files/13506.got.cif
#   From: 2010.05.17/outbox.cif.g08.bks.cpg/sg23_7_cif.got.tgz:13506.got - 2010.06.04 12:02:01.
