data_PCOD9332543
_publ_section_title
;
Structure prediction by ZEFSAII (Michael W. Deem and Ramdas Pophale) SiO2 
 PCOD9332543
Probable space group: I 2 2 2
;
_chemical_formula_sum "Si O2"
_cell_formula_units_Z 30
_cell_length_a 7.347724
_cell_length_b 24.670956
_cell_length_c 6.882134
_cell_angle_alpha 90.000000
_cell_angle_beta 90.000000
_cell_angle_gamma 90.000000
_cell_volume 1247.561425
_symmetry_space_group_name_H-M "I 2 2 2"
_symmetry_group_IT_number 23
_symmetry_cell_setting 'orthorhombic'
loop_
_space_group_symop_operation_xyz
x,y,z
-x,-y,z
x,-y,-z
-x,y,-z
1/2+x,1/2+y,1/2+z
1/2-x,1/2-y,1/2+z
1/2+x,1/2-y,1/2-z
1/2-x,1/2+y,1/2-z
loop_
_atom_site_type_symbol
_atom_site_label
_atom_site_fract_x
_atom_site_fract_y
_atom_site_fract_z
Si Si1 0.255516 0.179212 0.192607
Si Si2 0.000000 0.000000 0.000000
Si Si3 0.500000 0.093879 0.000000
Si Si4 0.221909 0.463926 0.185008
Si Si5 0.500000 0.621664 0.000000
Si Si6 0.000000 0.734725 0.000000
O O1 0.102744 0.157213 0.339209
O O2 0.424981 0.199412 0.321984
O O3 0.165803 0.227492 0.070562
O O4 0.328643 0.131589 0.055385
O O5 0.842877 0.998545 0.832240
O O6 0.443199 0.060240 0.810409
O O7 0.349457 0.414963 0.107332
O O8 0.181907 0.500000 0.000000
#
# Coordination Sequence:
#
# PCOD9332543 Si02
#       6
#     8   2   4   8   4   4
#     4  12  25  46  74 110 148 195 242 313 369 460
#     4  12  22  52  72 110 132 210 246 312 378 428
#     4  12  28  48  74 114 150 196 258 311 377 440
#     4  12  26  50  76 107 151 204 255 313 375 444
#     4  12  23  49  72 104 150 198 252 301 377 436
#     4  12  24  45  74 110 148 192 246 298 391 446
#
# _framework density 24.04691
#
# number of rings (size 3 to 8) (size 9 to 14) (size 15 to 20)
#    0.000    0.000    2.667    8.000    0.000    0.533 
#    4.800    0.000    0.000    0.000    0.000    0.000 
#    0.000    0.000    0.000    0.000    0.000    0.000 
#
# Total GULP energy -83951.088300 kJ/mol
# GULP energy per Si atom -5596.739220 kJ/mol
# Density = 2.399218 g / cm^3
# Si number density = 24.046910 Si / 1000 Ang^3
#
#
#
# Elastic Constant Matrix: (Units=GPa)
#
#
# Indices 1 2 3 4 5 6 
#
# 1 104.9817 18.2783 47.9826 0.0745 -0.0005 -0.0008
# 2 18.2783 83.1168 47.6376 0.0782 -0.0004 -0.0007
# 3 47.9826 47.6376 174.8011 0.3369 -0.0023 0.0036
# 4 0.0745 0.0782 0.3369-1732.4873 0.0442 0.0094
# 5 -0.0005 -0.0004 -0.0023 0.0442 77.5540 -0.0006
# 6 -0.0008 -0.0007 0.0036 0.0094 -0.0006 -7.4446
#
#
#
# Elastic Compliance Matrix: (Units=1/GPa)
#
#
# Indices 1 2 3 4 5 6 
#
# 1 0.010938 -0.000811 -0.002781 0.000000 0.000000 -0.000002
# 2 -0.000811 0.014319 -0.003679 0.000000 0.000000 -0.000003
# 3 -0.002781 -0.003679 0.007487 0.000001 0.000000 0.000004
# 4 0.000000 0.000000 0.000001 -0.000577 0.000000 -0.000001
# 5 0.000000 0.000000 0.000000 0.000000 0.012894 -0.000001
# 6 -0.000002 -0.000003 0.000004 -0.000001 -0.000001 -0.134325
#
#
# Mechanical properties :
#
#
# Convention : Reuss Voigt Hill
#
# Bulk Modulus (GPa) = 54.94716 65.63298 60.29007
# Shear Modulus (GPa) = -72.82941 -315.87552 -194.35247
#
# Velocity S-wave (km/s) = -5.50928 -11.47359 -8.99987
# Velocity P-wave (km/s) = 4.19165 12.17256 9.10333
#
# Compressibility (1/GPa) = 0.01819930
#
# Stress axis : x y z
#
# Youngs Moduli (GPa) = 91.42471 69.83964 133.56465
#
# Poissons Ratio (x) = 0.05666 0.37149
# Poissons Ratio (y) = 0.07417 0.49145
# Poissons Ratio (z) = 0.25429 0.25697
#
# Static dielectric constant tensor:
#      x y z
#    x 2.306120 0.000040 -0.000070 
#    y 0.000040 1.946530 0.000000 
#    z -0.000070 0.000000 1.774060 
# 
# From -- ./inp_files/780.got.cif
#   From: 2010.05.17/outbox.cif.g08.bks.cpg/sg23_1_cif.got.tgz:780.got - 2010.06.04 12:02:01.
