data_PCOD9332514
_publ_section_title
;
Structure prediction by ZEFSAII (Michael W. Deem and Ramdas Pophale) SiO2 
 PCOD9332514
Probable space group: I 2 2 2
;
_chemical_formula_sum "Si O2"
_cell_formula_units_Z 46
_cell_length_a 8.785104
_cell_length_b 11.942569
_cell_length_c 16.906196
_cell_angle_alpha 90.000000
_cell_angle_beta 90.000000
_cell_angle_gamma 90.000000
_cell_volume 1773.742475
_symmetry_space_group_name_H-M "I 2 2 2"
_symmetry_group_IT_number 23
_symmetry_cell_setting 'orthorhombic'
loop_
_space_group_symop_operation_xyz
x,y,z
-x,-y,z
x,-y,-z
-x,y,-z
1/2+x,1/2+y,1/2+z
1/2-x,1/2-y,1/2+z
1/2+x,1/2-y,1/2-z
1/2-x,1/2+y,1/2-z
loop_
_atom_site_type_symbol
_atom_site_label
_atom_site_fract_x
_atom_site_fract_y
_atom_site_fract_z
Si Si1 0.982285 0.751038 0.341982
Si Si2 0.073945 0.765686 0.832095
Si Si3 0.671143 0.032267 0.377284
Si Si4 0.276337 0.656181 0.596590
Si Si5 0.284627 0.945187 0.804056
Si Si6 0.000000 0.000000 0.383713
Si Si7 0.000000 0.000000 0.000000
O O1 0.895308 0.735914 0.258839
O O2 0.872490 0.731435 0.417113
O O3 0.024041 0.881917 0.338994
O O4 0.111586 0.657913 0.333102
O O5 0.158912 0.668095 0.879259
O O6 0.122863 0.895244 0.832350
O O7 0.897540 0.767951 0.855758
O O8 0.500000 0.000000 0.404360
O O9 0.688194 0.979169 0.287410
O O10 0.827510 0.990795 0.417594
O O11 0.198890 0.556977 0.646812
O O12 0.378108 0.591233 0.534033
#
# Coordination Sequence:
#
# PCOD9332514 Si02
#       7
#     8   8   8   8   8   4   2
#     4  12  23  37  63 102 150 185 230 304 384 444
#     4  12  21  36  61  96 147 187 227 295 375 447
#     4  12  22  34  56  94 145 192 227 285 379 449
#     4  12  25  45  68  98 137 195 248 299 361 437
#     4  12  21  38  59  95 144 184 232 295 365 439
#     4  12  24  35  56  94 143 186 230 282 370 450
#     4  12  28  50  74  96 142 206 262 298 348 442
#
# _framework density 25.933865999999998
#
# number of rings (size 3 to 8) (size 9 to 14) (size 15 to 20)
#    0.000    0.000    8.696    3.652    0.000    0.000 
#    0.000    1.739    0.000    0.000    0.000   20.087 
#    0.000    0.000    0.000    0.000    0.000    0.000 
#
# Total GULP energy -128141.949253 kJ/mol
# GULP energy per Si atom -5571.389098 kJ/mol
# Density = 2.587484 g / cm^3
# Si number density = 25.933866 Si / 1000 Ang^3
#
#
#
# Elastic Constant Matrix: (Units=GPa)
#
#
# Indices 1 2 3 4 5 6 
#
# 1 142.6658 25.7133 13.4363 0.0000 0.0000 0.0000
# 2 25.7133 163.4782 9.0303 0.0000 0.0000 0.0000
# 3 13.4363 9.0303 36.1176 0.0000 0.0000 0.0000
# 4 0.0000 0.0000 0.0000 4.5732 0.0000 0.0000
# 5 0.0000 0.0000 0.0000 0.0000 46.4407 0.0000
# 6 0.0000 0.0000 0.0000 0.0000 0.0000 59.1900
#
#
#
# Elastic Compliance Matrix: (Units=1/GPa)
#
#
# Indices 1 2 3 4 5 6 
#
# 1 0.007431 -0.001030 -0.002507 0.000000 0.000000 0.000000
# 2 -0.001030 0.006346 -0.001203 0.000000 0.000000 0.000000
# 3 -0.002507 -0.001203 0.028921 0.000000 0.000000 0.000000
# 4 0.000000 0.000000 0.000000 0.218663 0.000000 0.000000
# 5 0.000000 0.000000 0.000000 0.000000 0.021533 0.000000
# 6 0.000000 0.000000 0.000000 0.000000 0.000000 0.016895
#
#
# Mechanical properties :
#
#
# Convention : Reuss Voigt Hill
#
# Bulk Modulus (GPa) = 30.10549 48.73570 39.42060
# Shear Modulus (GPa) = 15.60834 41.64625 28.62729
#
# Velocity S-wave (km/s) = 2.45593 4.01167 3.32604
# Velocity P-wave (km/s) = 4.43575 6.34753 5.47572
#
# Compressibility (1/GPa) = 0.03321653
#
# Stress axis : x y z
#
# Youngs Moduli (GPa) = 134.56788 157.59069 34.57723
#
# Poissons Ratio (x) = 0.16238 0.08668
# Poissons Ratio (y) = 0.13865 0.04160
# Poissons Ratio (z) = 0.33735 0.18962
#
# Static dielectric constant tensor:
#      x y z
#    x 2.159140 0.000000 0.000000 
#    y 0.000000 2.018280 0.000000 
#    z 0.000000 0.000000 2.064080 
# 
# From -- ./inp_files/12626.got.cif
#   From: 2010.05.17/outbox.cif.g08.bks.cpg/sg23_7_cif.got.tgz:12626.got - 2010.06.04 12:02:01.
