data_PCOD9332977
_publ_section_title
;
Structure prediction by ZEFSAII (Michael W. Deem and Ramdas Pophale) SiO2 
 PCOD9332977
Probable space group: I 21 21 21
;
_chemical_formula_sum "Si O2"
_cell_formula_units_Z 52
_cell_length_a 8.957579
_cell_length_b 29.508201
_cell_length_c 10.838075
_cell_angle_alpha 90.000000
_cell_angle_beta 90.000000
_cell_angle_gamma 90.000000
_cell_volume 2864.742111
_symmetry_space_group_name_H-M "I 21 21 21"
_symmetry_group_IT_number 24
_symmetry_cell_setting 'orthorhombic'
loop_
_space_group_symop_operation_xyz
x,y,z
-x,1/2-y,z
x,-y,1/2-z
1/2-x,y,-z
1/2+x,1/2+y,1/2+z
1/2-x,-y,1/2+z
1/2+x,1/2-y,-z
-x,1/2+y,1/2-z
loop_
_atom_site_type_symbol
_atom_site_label
_atom_site_fract_x
_atom_site_fract_y
_atom_site_fract_z
Si Si1 0.210063 0.119744 0.141248
Si Si2 0.784431 0.860543 0.142722
Si Si3 0.250000 0.182316 0.500000
Si Si4 0.847060 0.520454 0.374267
Si Si5 0.047443 0.798175 0.224692
Si Si6 0.088416 0.549452 0.044172
Si Si7 0.539999 0.615238 0.158630
O O1 0.116044 0.073230 0.146371
O O2 0.135472 0.164925 0.194383
O O3 0.353918 0.107684 0.225168
O O4 0.250000 0.127566 0.000000
O O5 0.871499 0.908497 0.134242
O O6 0.621120 0.865924 0.200858
O O7 0.893505 0.823166 0.192895
O O8 0.750000 0.849855 0.000000
O O9 0.151861 0.208573 0.397597
O O10 0.131583 0.150237 0.571808
O O11 0.772298 0.500000 0.250000
O O12 0.750000 0.517785 0.500000
O O13 0.989766 0.489014 0.396471
O O14 0.000000 0.750000 0.279386
O O15 0.250000 0.532454 0.000000
O O16 0.000175 0.572467 0.928822
#
# Coordination Sequence:
#
# PCOD9332977 Si02
#       7
#     8   8   4   8   8   8   8
#     4  10  23  42  55  80 116 157 209 244 278 343
#     4   9  17  34  55  89 125 144 181 233 304 364
#     4  10  18  30  58  90 116 144 176 234 296 350
#     4  11  22  35  59  87 116 154 203 250 290 354
#     4  11  22  36  60  88 118 151 188 240 297 356
#     4   9  18  34  57  88 121 150 186 238 306 358
#     4   9  18  34  61  83 116 156 182 239 300 346
#
# _framework density 18.151721999999999
#
# number of rings (size 3 to 8) (size 9 to 14) (size 15 to 20)
#    0.000    2.462    3.077    1.846    4.308    0.000 
#    0.000   14.615    0.000    0.000    0.000    0.000 
#    0.000    0.000    0.000    0.000    0.000    0.000 
#
# Total GULP energy -144874.884395 kJ/mol
# GULP energy per Si atom -5572.110938 kJ/mol
# Density = 1.811041 g / cm^3
# Si number density = 18.151722 Si / 1000 Ang^3
#
#
#
# Elastic Constant Matrix: (Units=GPa)
#
#
# Indices 1 2 3 4 5 6 
#
# 1 107.1108 65.4033 29.9726 0.0003 0.0001 0.0000
# 2 65.4033 111.2414 41.1813 0.0000 0.0000 0.0000
# 3 29.9726 41.1813 73.6767 0.0047 0.0008 0.0006
# 4 0.0003 0.0000 0.0047 15.7006 0.0008 0.0003
# 5 0.0001 0.0000 0.0008 0.0008 9.2935 0.0000
# 6 0.0000 0.0000 0.0006 0.0003 0.0000 13.3026
#
#
#
# Elastic Compliance Matrix: (Units=1/GPa)
#
#
# Indices 1 2 3 4 5 6 
#
# 1 0.014687 -0.008099 -0.001448 0.000000 0.000000 0.000000
# 2 -0.008099 0.015801 -0.005537 0.000002 0.000001 0.000000
# 3 -0.001448 -0.005537 0.017257 -0.000005 -0.000002 -0.000001
# 4 0.000000 0.000002 -0.000005 0.063692 -0.000005 -0.000002
# 5 0.000000 0.000001 -0.000002 -0.000005 0.107602 0.000000
# 6 0.000000 0.000000 -0.000001 -0.000002 0.000000 0.075173
#
#
# Mechanical properties :
#
#
# Convention : Reuss Voigt Hill
#
# Bulk Modulus (GPa) = 56.89393 62.79369 59.84381
# Shear Modulus (GPa) = 15.14061 18.02413 16.58237
#
# Velocity S-wave (km/s) = 2.89124 3.15456 3.02577
# Velocity P-wave (km/s) = 6.52359 6.92367 6.72661
#
# Compressibility (1/GPa) = 0.01757657
#
# Stress axis : x y z
#
# Youngs Moduli (GPa) = 68.08968 63.28759 57.94821
#
# Poissons Ratio (x) = 0.51255 0.08390
# Poissons Ratio (y) = 0.55144 0.32087
# Poissons Ratio (z) = 0.09859 0.35043
#
# Static dielectric constant tensor:
#      x y z
#    x 1.647980 0.000000 0.000000 
#    y 0.000000 1.625850 0.000000 
#    z 0.000000 0.000000 1.642290 
# 
# From -- ./inp_files/18844.got.cif
#   From: 2010.05.17/outbox.cif.g08.bks.cpg/sg24_10_cif.got.tgz:18844.got - 2010.06.04 00:33:39.
