data_PCOD9332104
_publ_section_title
;
Structure prediction by ZEFSAII (Michael W. Deem and Ramdas Pophale) SiO2 
 PCOD9332104
Probable space group: I 2 2 2
;
_chemical_formula_sum "Si O2"
_cell_formula_units_Z 38
_cell_length_a 18.803502
_cell_length_b 14.838284
_cell_length_c 6.540005
_cell_angle_alpha 90.000000
_cell_angle_beta 90.000000
_cell_angle_gamma 90.000000
_cell_volume 1824.737932
_symmetry_space_group_name_H-M "I 2 2 2"
_symmetry_group_IT_number 23
_symmetry_cell_setting 'orthorhombic'
loop_
_space_group_symop_operation_xyz
x,y,z
-x,-y,z
x,-y,-z
-x,y,-z
1/2+x,1/2+y,1/2+z
1/2-x,1/2-y,1/2+z
1/2+x,1/2-y,1/2-z
1/2-x,1/2+y,1/2-z
loop_
_atom_site_type_symbol
_atom_site_label
_atom_site_fract_x
_atom_site_fract_y
_atom_site_fract_z
Si Si1 0.295977 0.500000 0.000000
Si Si2 0.420920 0.803238 0.985329
Si Si3 0.606485 0.628149 0.270002
Si Si4 0.666994 0.744556 0.627688
Si Si5 0.702648 0.866903 0.276839
Si Si6 0.500000 0.500000 0.500000
O O1 0.343496 0.576704 0.891957
O O2 0.248090 0.455218 0.822929
O O3 0.425420 0.716640 0.836033
O O4 0.360733 0.867588 0.886254
O O5 0.500000 0.842535 0.000000
O O6 0.389455 0.763721 0.195555
O O7 0.645860 0.665122 0.471877
O O8 0.547707 0.560800 0.352950
O O9 0.672644 0.834773 0.494784
O O10 0.742767 0.713451 0.716329
#
# Coordination Sequence:
#
# PCOD9332104 Si02
#       6
#     4   8   8   8   8   2
#     4  12  24  41  62 103 130 174 214 288 326 386
#     4  11  24  42  67  93 128 175 220 270 328 402
#     4  11  25  38  62  94 139 168 212 262 338 407
#     4  11  20  44  65  95 123 175 222 262 321 403
#     4  11  22  39  67  95 128 167 224 272 322 395
#     4  12  24  38  56 100 142 174 190 270 344 416
#
# _framework density 20.824909000000002
#
# number of rings (size 3 to 8) (size 9 to 14) (size 15 to 20)
#    0.000    0.842    4.211    3.789    2.947    2.526 
#    0.000    0.000    0.000    3.789    0.000    0.000 
#    0.000    0.000    0.000    0.000    0.000    0.000 
#
# Total GULP energy -106224.854031 kJ/mol
# GULP energy per Si atom -5590.781791 kJ/mol
# Density = 2.077751 g / cm^3
# Si number density = 20.824909 Si / 1000 Ang^3
#
#
#
# Elastic Constant Matrix: (Units=GPa)
#
#
# Indices 1 2 3 4 5 6 
#
# 1 115.6618 -2.0313 30.1235 0.0000 0.0000 0.0000
# 2 -2.0313 22.6023 -11.0055 0.0000 0.0000 0.0000
# 3 30.1235 -11.0055 85.6535 0.0000 0.0000 0.0000
# 4 0.0000 0.0000 0.0000 9.3320 0.0000 0.0000
# 5 0.0000 0.0000 0.0000 0.0000 25.6402 0.0000
# 6 0.0000 0.0000 0.0000 0.0000 0.0000 19.9489
#
#
#
# Elastic Compliance Matrix: (Units=1/GPa)
#
#
# Indices 1 2 3 4 5 6 
#
# 1 0.009532 -0.000827 -0.003459 0.000000 0.000000 0.000000
# 2 -0.000827 0.047268 0.006364 0.000000 0.000000 0.000000
# 3 -0.003459 0.006364 0.013709 0.000000 0.000000 0.000000
# 4 0.000000 0.000000 0.000000 0.107158 0.000000 0.000000
# 5 0.000000 0.000000 0.000000 0.000000 0.039001 0.000000
# 6 0.000000 0.000000 0.000000 0.000000 0.000000 0.050128
#
#
# Mechanical properties :
#
#
# Convention : Reuss Voigt Hill
#
# Bulk Modulus (GPa) = 13.39305 28.67680 21.03492
# Shear Modulus (GPa) = 17.38960 24.77296 21.08128
#
# Velocity S-wave (km/s) = 2.89284 3.45277 3.18513
# Velocity P-wave (km/s) = 4.19562 5.44939 4.86308
#
# Compressibility (1/GPa) = 0.07466558
#
# Stress axis : x y z
#
# Youngs Moduli (GPa) = 104.90798 21.15602 72.94432
#
# Poissons Ratio (x) = 0.01751 0.25229
# Poissons Ratio (y) = 0.08681 -0.46424
# Poissons Ratio (z) = 0.36284 -0.13464
#
# Static dielectric constant tensor:
#      x y z
#    x 1.801570 0.000000 0.000000 
#    y 0.000000 1.752070 0.000000 
#    z 0.000000 0.000000 1.880570 
# 
# From -- ./inp_files/3138.got.cif
#   From: 2010.05.17/outbox.cif.g08.bks.cpg/sg23_2_cif.got.tgz:3138.got - 2010.06.04 12:02:01.
