data_PCOD9332387
_publ_section_title
;
Structure prediction by ZEFSAII (Michael W. Deem and Ramdas Pophale) SiO2 
 PCOD9332387
Probable space group: I 2 2 2
;
_chemical_formula_sum "Si O2"
_cell_formula_units_Z 48
_cell_length_a 23.156605
_cell_length_b 8.594402
_cell_length_c 11.253466
_cell_angle_alpha 90.000000
_cell_angle_beta 90.000000
_cell_angle_gamma 90.000000
_cell_volume 2239.632982
_symmetry_space_group_name_H-M "I 2 2 2"
_symmetry_group_IT_number 23
_symmetry_cell_setting 'orthorhombic'
loop_
_space_group_symop_operation_xyz
x,y,z
-x,-y,z
x,-y,-z
-x,y,-z
1/2+x,1/2+y,1/2+z
1/2-x,1/2-y,1/2+z
1/2+x,1/2-y,1/2-z
1/2-x,1/2+y,1/2-z
loop_
_atom_site_type_symbol
_atom_site_label
_atom_site_fract_x
_atom_site_fract_y
_atom_site_fract_z
Si Si1 0.347671 0.644666 0.084700
Si Si2 0.250000 0.486760 0.235501
Si Si3 0.977710 0.679081 0.872353
Si Si4 0.250000 0.308676 0.563028
Si Si5 0.477710 0.679081 0.127648
Si Si6 0.652330 0.855337 0.415297
O O1 0.306759 0.571599 0.184815
O O2 0.408668 0.702991 0.129401
O O3 0.362428 0.500000 0.000000
O O4 0.307140 0.761716 0.010647
O O5 0.250002 0.523186 0.374891
O O6 0.250001 0.317674 0.174256
O O7 0.193239 0.571592 0.184822
O O8 0.908668 0.702993 0.870600
O O9 0.000000 0.500000 0.871266
O O10 1.000000 0.749999 0.750000
O O11 0.000000 0.743856 0.000000
O O12 0.307137 0.261707 0.489349
O O13 0.500000 0.500000 0.128735
O O14 0.500000 0.743855 0.000000
O O15 0.637572 0.000000 0.500000
#
# Coordination Sequence:
#
# PCOD9332387 Si02
#       6
#     8   8   8   8   8   8
#     4   9  18  37  57  83 116 161 204 241 308 379
#     4   9  19  31  60  82 112 153 196 252 296 364
#     4  11  24  41  66  91 125 169 211 258 317 372
#     4   9  19  35  60  86 116 155 204 250 314 361
#     4  11  24  41  66  91 125 169 211 258 317 372
#     4   9  18  37  57  83 116 161 204 241 308 379
#
# _framework density 21.432084
#
# number of rings (size 3 to 8) (size 9 to 14) (size 15 to 20)
#    0.000    2.333    3.333    2.000    4.667    0.667 
#    0.000    3.333    7.333    0.000    0.000    0.000 
#    0.000    0.000    0.000    0.000    0.000    0.000 
#
# Total GULP energy -133963.725170 kJ/mol
# GULP energy per Si atom -5581.821882 kJ/mol
# Density = 2.138330 g / cm^3
# Si number density = 21.432084 Si / 1000 Ang^3
#
#
#
# Elastic Constant Matrix: (Units=GPa)
#
#
# Indices 1 2 3 4 5 6 
#
# 1 190.9545 34.0456 66.0713 0.0000 0.0000 0.0000
# 2 34.0456 63.7696 41.2636 0.0000 0.0000 0.0000
# 3 66.0713 41.2636 143.8474 0.0000 0.0000 0.0000
# 4 0.0000 0.0000 0.0000 42.8509 0.0000 0.0000
# 5 0.0000 0.0000 0.0000 0.0000 -16.8515 0.0000
# 6 0.0000 0.0000 0.0000 0.0000 0.0000 13.3349
#
#
#
# Elastic Compliance Matrix: (Units=1/GPa)
#
#
# Indices 1 2 3 4 5 6 
#
# 1 0.006401 -0.001860 -0.002407 0.000000 0.000000 0.000000
# 2 -0.001860 0.019796 -0.004824 0.000000 0.000000 0.000000
# 3 -0.002407 -0.004824 0.009441 0.000000 0.000000 0.000000
# 4 0.000000 0.000000 0.000000 0.023337 0.000000 0.000000
# 5 0.000000 0.000000 0.000000 0.000000 -0.059342 0.000000
# 6 0.000000 0.000000 0.000000 0.000000 0.000000 0.074991
#
#
# Mechanical properties :
#
#
# Convention : Reuss Voigt Hill
#
# Bulk Modulus (GPa) = 57.28564 75.70362 66.49463
# Shear Modulus (GPa) = 50.69677 25.01292 37.85485
#
# Velocity S-wave (km/s) = 4.86888 3.41996 4.20726
# Velocity P-wave (km/s) = 7.64166 7.14101 7.39557
#
# Compressibility (1/GPa) = 0.01745638
#
# Stress axis : x y z
#
# Youngs Moduli (GPa) = 156.22076 50.51455 105.92068
#
# Poissons Ratio (x) = 0.09397 0.25490
# Poissons Ratio (y) = 0.29062 0.51099
# Poissons Ratio (z) = 0.37595 0.24369
#
# Static dielectric constant tensor:
#      x y z
#    x 1.745940 0.000000 0.000000 
#    y 0.000000 1.848490 0.000000 
#    z 0.000000 0.000000 1.822830 
# 
# From -- ./inp_files/18307.got.cif
#   From: 2010.05.17/outbox.cif.g08.bks.cpg/sg23_10_cif.got.tgz:18307.got - 2010.06.04 12:02:01.
