data_PCOD9332871
_publ_section_title
;
Structure prediction by ZEFSAII (Michael W. Deem and Ramdas Pophale) SiO2 
 PCOD9332871
Probable space group: I 21 21 21
;
_chemical_formula_sum "Si O2"
_cell_formula_units_Z 52
_cell_length_a 19.270363
_cell_length_b 8.270731
_cell_length_c 14.729006
_cell_angle_alpha 90.000000
_cell_angle_beta 90.000000
_cell_angle_gamma 90.000000
_cell_volume 2347.508809
_symmetry_space_group_name_H-M "I 21 21 21"
_symmetry_group_IT_number 24
_symmetry_cell_setting 'orthorhombic'
loop_
_space_group_symop_operation_xyz
x,y,z
-x,1/2-y,z
x,-y,1/2-z
1/2-x,y,-z
1/2+x,1/2+y,1/2+z
1/2-x,-y,1/2+z
1/2+x,1/2-y,-z
-x,1/2+y,1/2-z
loop_
_atom_site_type_symbol
_atom_site_label
_atom_site_fract_x
_atom_site_fract_y
_atom_site_fract_z
Si Si1 0.500000 0.250000 0.504254
Si Si2 0.240902 0.839641 0.890437
Si Si3 0.740007 0.314014 0.891543
Si Si4 0.696381 0.998552 0.412785
Si Si5 0.461592 0.408192 0.037634
Si Si6 0.900116 0.833490 0.352783
Si Si7 0.385458 0.300550 0.655326
O O1 0.499504 0.419449 0.450706
O O2 0.433445 0.255030 0.570885
O O3 0.194510 0.680793 0.874678
O O4 0.315500 0.800085 0.847442
O O5 0.224523 0.021165 0.859210
O O6 0.250000 0.851151 0.000000
O O7 0.657374 0.299115 0.878198
O O8 0.773192 0.149194 0.854026
O O9 0.750000 0.308670 0.000000
O O10 0.750000 0.012294 0.500000
O O11 0.618861 0.938927 0.436611
O O12 0.500000 0.250000 0.077704
O O13 0.455907 0.370958 0.929627
O O14 0.923307 0.788984 0.251902
O O15 0.864525 0.011009 0.350283
#
# Coordination Sequence:
#
# PCOD9332871 Si02
#       7
#     4   8   8   8   8   8   8
#     4  10  22  36  46  68 110 154 194 218 252 320
#     4  10  19  31  53  73  94 136 183 226 284 313
#     4  10  18  31  55  75  94 134 186 226 282 310
#     4  10  17  35  54  71  99 139 183 235 280 308
#     4  11  23  35  55  76 110 153 195 224 269 324
#     4  10  19  36  50  75 111 149 188 231 261 325
#     4  10  21  34  51  74 108 154 186 224 273 316
#
# _framework density 22.151142
#
# number of rings (size 3 to 8) (size 9 to 14) (size 15 to 20)
#    0.000    1.846    4.615    2.769    3.231    1.846 
#    0.000    0.000    0.000    0.000    0.000    0.000 
#    0.000    0.000   34.000    0.000    1.231    0.000 
#
# Total GULP energy -144844.860966 kJ/mol
# GULP energy per Si atom -5570.956191 kJ/mol
# Density = 2.210072 g / cm^3
# Si number density = 22.151142 Si / 1000 Ang^3
#
#
#
# Elastic Constant Matrix: (Units=GPa)
#
#
# Indices 1 2 3 4 5 6 
#
# 1 58.0052 49.3764 -3.6710 0.0000 0.0000 0.0000
# 2 49.3764 201.2884 -0.3047 0.0000 0.0000 0.0000
# 3 -3.6710 -0.3047 18.9086 0.0000 0.0000 0.0000
# 4 0.0000 0.0000 0.0000 -21.8814 0.0000 0.0000
# 5 0.0000 0.0000 0.0000 0.0000 8.6536 0.0000
# 6 0.0000 0.0000 0.0000 0.0000 0.0000 31.4539
#
#
#
# Elastic Compliance Matrix: (Units=1/GPa)
#
#
# Indices 1 2 3 4 5 6 
#
# 1 0.022119 -0.005420 0.004207 0.000000 0.000000 0.000000
# 2 -0.005420 0.006296 -0.000951 0.000000 0.000000 0.000000
# 3 0.004207 -0.000951 0.053687 0.000000 0.000000 0.000000
# 4 0.000000 0.000000 0.000000 -0.045701 0.000000 0.000000
# 5 0.000000 0.000000 0.000000 0.000000 0.115559 0.000000
# 6 0.000000 0.000000 0.000000 0.000000 0.000000 0.031793
#
#
# Mechanical properties :
#
#
# Convention : Reuss Voigt Hill
#
# Bulk Modulus (GPa) = 12.85740 41.00041 26.92891
# Shear Modulus (GPa) = 23.36386 19.16531 21.26458
#
# Velocity S-wave (km/s) = 3.25121 2.94463 3.10171
# Velocity P-wave (km/s) = 4.46215 5.48732 5.00108
#
# Compressibility (1/GPa) = 0.07777622
#
# Stress axis : x y z
#
# Youngs Moduli (GPa) = 45.20914 158.83142 18.62635
#
# Poissons Ratio (x) = 0.86080 -0.07836
# Poissons Ratio (y) = 0.24501 0.01771
# Poissons Ratio (z) = -0.19020 0.15101
#
# Static dielectric constant tensor:
#      x y z
#    x 1.849130 0.000000 0.000000 
#    y 0.000000 1.916640 0.000000 
#    z 0.000000 0.000000 1.860910 
# 
# From -- ./inp_files/33703.got.cif
#   From: 2010.05.17/outbox.cif.g08.bks.cpg/sg24_17_cif.got.tgz:33703.got - 2010.06.04 00:33:39.
