data_PCOD9332422
_publ_section_title
;
Structure prediction by ZEFSAII (Michael W. Deem and Ramdas Pophale) SiO2 
 PCOD9332422
Probable space group: I 2 2 2
;
_chemical_formula_sum "Si O2"
_cell_formula_units_Z 48
_cell_length_a 9.519583
_cell_length_b 8.593662
_cell_length_c 25.942133
_cell_angle_alpha 90.000000
_cell_angle_beta 90.000000
_cell_angle_gamma 90.000000
_cell_volume 2122.276058
_symmetry_space_group_name_H-M "I 2 2 2"
_symmetry_group_IT_number 23
_symmetry_cell_setting 'orthorhombic'
loop_
_space_group_symop_operation_xyz
x,y,z
-x,-y,z
x,-y,-z
-x,y,-z
1/2+x,1/2+y,1/2+z
1/2-x,1/2-y,1/2+z
1/2+x,1/2-y,1/2-z
1/2-x,1/2+y,1/2-z
loop_
_atom_site_type_symbol
_atom_site_label
_atom_site_fract_x
_atom_site_fract_y
_atom_site_fract_z
Si Si1 0.446732 0.334722 0.421436
Si Si2 0.787799 0.346796 0.876891
Si Si3 0.001143 0.677126 0.400014
Si Si4 0.750761 0.335658 0.677070
Si Si5 0.782250 0.117756 0.546563
Si Si6 0.165440 0.510577 0.228069
O O1 0.500000 0.500000 0.440856
O O2 0.574300 0.227343 0.402244
O O3 0.352102 0.368022 0.370590
O O4 0.344468 0.240682 0.459748
O O5 0.655704 0.236911 0.887996
O O6 0.757878 0.512008 0.904296
O O7 0.804654 0.384298 0.816777
O O8 0.000000 0.500000 0.418708
O O9 0.904175 0.681903 0.348825
O O10 0.923218 0.789728 0.440163
O O11 0.753443 0.469196 0.719816
O O12 0.706541 0.177376 0.705380
O O13 0.795673 0.000000 0.500000
O O14 0.000000 0.500000 0.238617
#
# Coordination Sequence:
#
# PCOD9332422 Si02
#       6
#     8   8   8   8   8   8
#     4  11  24  46  71 108 145 190 240 302 369 434
#     4  12  23  44  72 101 145 187 246 306 357 441
#     4  11  25  46  70 107 147 191 238 300 369 441
#     4  11  26  42  67 101 149 199 248 293 364 423
#     4  11  25  49  76 106 139 191 242 298 371 446
#     4  12  25  43  63 106 147 194 256 304 350 428
#
# _framework density 22.617225999999999
#
# number of rings (size 3 to 8) (size 9 to 14) (size 15 to 20)
#    0.000    0.667    5.000    3.500    7.000    2.667 
#    0.000    5.000    0.000    0.000    0.000    0.000 
#    0.000    0.000    0.000    0.000    0.000    0.000 
#
# Total GULP energy -134539.941602 kJ/mol
# GULP energy per Si atom -5605.830900 kJ/mol
# Density = 2.256575 g / cm^3
# Si number density = 22.617226 Si / 1000 Ang^3
#
#
#
# Elastic Constant Matrix: (Units=GPa)
#
#
# Indices 1 2 3 4 5 6 
#
# 1 112.4276 27.6016 21.9028 0.0000 0.0000 0.0000
# 2 27.6016 119.3963 41.7803 0.0000 0.0000 0.0000
# 3 21.9028 41.7803 97.0032 0.0000 0.0000 0.0000
# 4 0.0000 0.0000 0.0000 37.7273 0.0000 0.0000
# 5 0.0000 0.0000 0.0000 0.0000 9.1576 0.0000
# 6 0.0000 0.0000 0.0000 0.0000 0.0000 47.7840
#
#
#
# Elastic Compliance Matrix: (Units=1/GPa)
#
#
# Indices 1 2 3 4 5 6 
#
# 1 0.009594 -0.001719 -0.001426 0.000000 0.000000 0.000000
# 2 -0.001719 0.010170 -0.003992 0.000000 0.000000 0.000000
# 3 -0.001426 -0.003992 0.012350 0.000000 0.000000 0.000000
# 4 0.000000 0.000000 0.000000 0.026506 0.000000 0.000000
# 5 0.000000 0.000000 0.000000 0.000000 0.109199 0.000000
# 6 0.000000 0.000000 0.000000 0.000000 0.000000 0.020928
#
#
# Mechanical properties :
#
#
# Convention : Reuss Voigt Hill
#
# Bulk Modulus (GPa) = 56.05247 56.82184 56.43716
# Shear Modulus (GPa) = 23.92711 34.76994 29.34853
#
# Velocity S-wave (km/s) = 3.25609 3.92512 3.60615
# Velocity P-wave (km/s) = 6.24284 6.76165 6.50742
#
# Compressibility (1/GPa) = 0.01784043
#
# Stress axis : x y z
#
# Youngs Moduli (GPa) = 104.22698 98.33020 80.96936
#
# Poissons Ratio (x) = 0.16903 0.11546
# Poissons Ratio (y) = 0.17917 0.32324
# Poissons Ratio (z) = 0.14862 0.39254
#
# Static dielectric constant tensor:
#      x y z
#    x 1.806680 0.000000 0.000000 
#    y 0.000000 1.849470 0.000000 
#    z 0.000000 0.000000 1.851130 
# 
# From -- ./inp_files/30248.got.cif
#   From: 2010.05.17/outbox.cif.g08.bks.cpg/sg23_16_cif.got.tgz:30248.got - 2010.06.04 12:02:01.
