data_PCOD9332181
_publ_section_title
;
Structure prediction by ZEFSAII (Michael W. Deem and Ramdas Pophale) SiO2 
 PCOD9332181
Probable space group: I 2 2 2
;
_chemical_formula_sum "Si O2"
_cell_formula_units_Z 42
_cell_length_a 4.886533
_cell_length_b 24.858532
_cell_length_c 19.584159
_cell_angle_alpha 90.000000
_cell_angle_beta 90.000000
_cell_angle_gamma 90.000000
_cell_volume 2378.927686
_symmetry_space_group_name_H-M "I 2 2 2"
_symmetry_group_IT_number 23
_symmetry_cell_setting 'orthorhombic'
loop_
_space_group_symop_operation_xyz
x,y,z
-x,-y,z
x,-y,-z
-x,y,-z
1/2+x,1/2+y,1/2+z
1/2-x,1/2-y,1/2+z
1/2+x,1/2-y,1/2-z
1/2-x,1/2+y,1/2-z
loop_
_atom_site_type_symbol
_atom_site_label
_atom_site_fract_x
_atom_site_fract_y
_atom_site_fract_z
Si Si1 0.247135 0.724605 0.952478
Si Si2 0.866483 0.946104 0.386102
Si Si3 0.534178 0.212218 0.830049
Si Si4 0.500000 0.000000 0.500000
Si Si5 0.538943 0.322323 0.741073
Si Si6 0.147596 0.623214 0.859656
O O1 0.363604 0.771402 0.904155
O O2 0.122514 0.678297 0.902556
O O3 0.500000 0.704876 0.000000
O O4 0.000000 0.742600 0.000000
O O5 0.637445 0.908324 0.349917
O O6 0.134173 0.911675 0.402087
O O7 0.698297 0.966116 0.451266
O O8 0.000000 0.000000 0.351977
O O9 0.533136 0.268574 0.788012
O O10 0.231487 0.189786 0.823429
O O11 0.736529 0.172698 0.788688
O O12 0.689931 0.364991 0.789307
#
# Coordination Sequence:
#
# PCOD9332181 Si02
#       6
#     8   8   8   2   8   8
#     4  11  22  31  46  73 100 127 160 202 246 287
#     4  12  24  37  49  65  90 126 168 206 260 288
#     4   9  17  31  48  65  94 121 150 196 245 290
#     4  12  26  36  50  60  90 140 158 200 248 316
#     4   9  17  32  50  67  85 117 161 203 243 276
#     4  11  23  34  52  70  89 122 173 221 240 278
#
# _framework density 17.655013
#
# number of rings (size 3 to 8) (size 9 to 14) (size 15 to 20)
#    0.000    1.524    1.905    3.714    4.000    6.095 
#    0.000    0.000    0.000    0.000    0.000    0.000 
#    0.000    0.000    0.000    0.000    0.000  200.000 
#
# Total GULP energy -117069.621105 kJ/mol
# GULP energy per Si atom -5574.743862 kJ/mol
# Density = 1.761483 g / cm^3
# Si number density = 17.655013 Si / 1000 Ang^3
#
#
#
# Elastic Constant Matrix: (Units=GPa)
#
#
# Indices 1 2 3 4 5 6 
#
# 1 92.7098 5.5345 -0.4320 0.0000 0.0000 0.0000
# 2 5.5345 27.8457 11.2306 0.0000 0.0000 0.0000
# 3 -0.4320 11.2306 35.3903 0.0000 0.0000 0.0000
# 4 0.0000 0.0000 0.0000 14.5959 0.0000 0.0000
# 5 0.0000 0.0000 0.0000 0.0000 20.5557 0.0000
# 6 0.0000 0.0000 0.0000 0.0000 0.0000 27.3234
#
#
#
# Elastic Compliance Matrix: (Units=1/GPa)
#
#
# Indices 1 2 3 4 5 6 
#
# 1 0.010943 -0.002556 0.000945 0.000000 0.000000 0.000000
# 2 -0.002556 0.041780 -0.013289 0.000000 0.000000 0.000000
# 3 0.000945 -0.013289 0.032485 0.000000 0.000000 0.000000
# 4 0.000000 0.000000 0.000000 0.068513 0.000000 0.000000
# 5 0.000000 0.000000 0.000000 0.000000 0.048648 0.000000
# 6 0.000000 0.000000 0.000000 0.000000 0.000000 0.036599
#
#
# Mechanical properties :
#
#
# Convention : Reuss Voigt Hill
#
# Bulk Modulus (GPa) = 18.04833 20.95691 19.50262
# Shear Modulus (GPa) = 17.40714 21.80251 19.60483
#
# Velocity S-wave (km/s) = 3.14341 3.51795 3.33594
# Velocity P-wave (km/s) = 4.83938 5.32891 5.09004
#
# Compressibility (1/GPa) = 0.05540679
#
# Stress axis : x y z
#
# Youngs Moduli (GPa) = 91.37983 23.93485 30.78343
#
# Poissons Ratio (x) = 0.06118 -0.02908
# Poissons Ratio (y) = 0.23357 0.40909
# Poissons Ratio (z) = -0.08633 0.31808
#
# Static dielectric constant tensor:
#      x y z
#    x 1.632000 0.000000 0.000000 
#    y 0.000000 1.659700 0.000000 
#    z 0.000000 0.000000 1.629540 
# 
# From -- ./inp_files/23165.got.cif
#   From: 2010.05.17/outbox.cif.g08.bks.cpg/sg23_12_cif.got.tgz:23165.got - 2010.06.04 12:02:01.
