data_PCOD9332458
_publ_section_title
;
Structure prediction by ZEFSAII (Michael W. Deem and Ramdas Pophale) SiO2 
 PCOD9332458
Probable space group: I 2 2 2
;
_chemical_formula_sum "Si O2"
_cell_formula_units_Z 48
_cell_length_a 13.893769
_cell_length_b 19.504011
_cell_length_c 8.242031
_cell_angle_alpha 90.000000
_cell_angle_beta 90.000000
_cell_angle_gamma 90.000000
_cell_volume 2233.460370
_symmetry_space_group_name_H-M "I 2 2 2"
_symmetry_group_IT_number 23
_symmetry_cell_setting 'orthorhombic'
loop_
_space_group_symop_operation_xyz
x,y,z
-x,-y,z
x,-y,-z
-x,y,-z
1/2+x,1/2+y,1/2+z
1/2-x,1/2-y,1/2+z
1/2+x,1/2-y,1/2-z
1/2-x,1/2+y,1/2-z
loop_
_atom_site_type_symbol
_atom_site_label
_atom_site_fract_x
_atom_site_fract_y
_atom_site_fract_z
Si Si1 0.300784 0.000000 0.000000
Si Si2 0.893227 0.465400 0.844101
Si Si3 0.784585 0.354515 0.025067
Si Si4 0.899707 0.777106 0.953115
Si Si5 0.330096 0.399069 0.661427
Si Si6 0.000000 0.000000 0.271543
Si Si7 0.581039 0.638448 0.129983
O O1 0.233528 0.934627 0.974832
O O2 0.356868 0.016477 0.834550
O O3 0.865875 0.388581 0.905048
O O4 0.000000 0.500000 0.843621
O O5 0.841877 0.500000 0.000000
O O6 0.825902 0.282606 0.087419
O O7 0.688047 0.344359 0.923440
O O8 0.739254 0.393620 0.181894
O O9 0.861666 0.824934 0.098706
O O10 0.926341 0.827139 0.804845
O O11 0.000000 0.742811 0.000000
O O12 0.422661 0.448803 0.686800
O O13 0.933493 0.056261 0.360376
O O14 0.500000 0.662190 0.000000
#
# Coordination Sequence:
#
# PCOD9332458 Si02
#       7
#     4   8   8   8   8   4   8
#     4  12  25  43  76 112 144 186 248 323 397 454
#     4  11  25  47  73 103 146 192 252 315 375 451
#     4  12  26  46  73 103 145 205 247 309 381 467
#     4  12  26  46  68 101 151 201 250 308 379 471
#     4  12  25  43  71 109 147 189 244 319 392 454
#     4  12  23  43  72 110 146 184 240 319 401 442
#     4  12  25  44  74 107 147 190 252 321 394 463
#
# _framework density 21.491313999999999
#
# number of rings (size 3 to 8) (size 9 to 14) (size 15 to 20)
#    0.000    0.167    5.000    4.500    2.333    0.667 
#    0.000    1.667    0.000    0.000    0.000    0.000 
#    0.000    0.000    0.000    0.000    0.000    0.000 
#
# Total GULP energy -133731.226303 kJ/mol
# GULP energy per Si atom -5572.134429 kJ/mol
# Density = 2.144240 g / cm^3
# Si number density = 21.491314 Si / 1000 Ang^3
#
#
#
# Elastic Constant Matrix: (Units=GPa)
#
#
# Indices 1 2 3 4 5 6 
#
# 1 132.1997 61.1776 48.8736 0.0000 0.0000 0.0000
# 2 61.1776 83.6192 29.8884 0.0000 0.0000 0.0000
# 3 48.8736 29.8884 111.5534 0.0000 0.0000 0.0000
# 4 0.0000 0.0000 0.0000 26.1255 0.0000 0.0000
# 5 0.0000 0.0000 0.0000 0.0000 46.9747 0.0000
# 6 0.0000 0.0000 0.0000 0.0000 0.0000 32.5076
#
#
#
# Elastic Compliance Matrix: (Units=1/GPa)
#
#
# Indices 1 2 3 4 5 6 
#
# 1 0.012467 -0.007928 -0.003338 0.000000 0.000000 0.000000
# 2 -0.007928 0.018267 -0.001421 0.000000 0.000000 0.000000
# 3 -0.003338 -0.001421 0.010807 0.000000 0.000000 0.000000
# 4 0.000000 0.000000 0.000000 0.038277 0.000000 0.000000
# 5 0.000000 0.000000 0.000000 0.000000 0.021288 0.000000
# 6 0.000000 0.000000 0.000000 0.000000 0.000000 0.030762
#
#
# Mechanical properties :
#
#
# Convention : Reuss Voigt Hill
#
# Bulk Modulus (GPa) = 61.85066 67.47238 64.66152
# Shear Modulus (GPa) = 30.74424 33.61708 32.18066
#
# Velocity S-wave (km/s) = 3.78635 3.95931 3.87380
# Velocity P-wave (km/s) = 6.92511 7.23636 7.08244
#
# Compressibility (1/GPa) = 0.01616798
#
# Stress axis : x y z
#
# Youngs Moduli (GPa) = 80.21024 54.74265 92.52909
#
# Poissons Ratio (x) = 0.43401 0.30886
# Poissons Ratio (y) = 0.63592 0.13147
# Poissons Ratio (z) = 0.26774 0.07778
#
# Static dielectric constant tensor:
#      x y z
#    x 1.760570 0.000000 0.000000 
#    y 0.000000 1.861070 0.000000 
#    z 0.000000 0.000000 1.881180 
# 
# From -- ./inp_files/9994.got.cif
#   From: 2010.05.17/outbox.cif.g08.bks.cpg/sg23_5_cif.got.tgz:9994.got - 2010.06.04 12:02:01.
