data_PCOD9332245
_publ_section_title
;
Structure prediction by ZEFSAII (Michael W. Deem and Ramdas Pophale) SiO2 
 PCOD9332245
Probable space group: I 2 2 2
;
_chemical_formula_sum "Si O2"
_cell_formula_units_Z 40
_cell_length_a 8.046759
_cell_length_b 12.559348
_cell_length_c 17.197830
_cell_angle_alpha 90.000000
_cell_angle_beta 90.000000
_cell_angle_gamma 90.000000
_cell_volume 1738.047896
_symmetry_space_group_name_H-M "I 2 2 2"
_symmetry_group_IT_number 23
_symmetry_cell_setting 'orthorhombic'
loop_
_space_group_symop_operation_xyz
x,y,z
-x,-y,z
x,-y,-z
-x,y,-z
1/2+x,1/2+y,1/2+z
1/2-x,1/2-y,1/2+z
1/2+x,1/2-y,1/2-z
1/2-x,1/2+y,1/2-z
loop_
_atom_site_type_symbol
_atom_site_label
_atom_site_fract_x
_atom_site_fract_y
_atom_site_fract_z
Si Si1 0.766012 0.200851 0.656843
Si Si2 0.158015 0.227589 0.682486
Si Si3 0.798625 0.982382 0.590743
Si Si4 0.176333 0.446168 0.609413
Si Si5 0.176224 0.135374 0.959722
O O1 0.683647 0.269403 0.725349
O O2 0.708510 0.251616 0.576314
O O3 0.962629 0.220445 0.664825
O O4 0.731156 0.075499 0.647593
O O5 0.236391 0.132433 0.630804
O O6 0.221348 0.345917 0.661508
O O7 0.746391 0.000000 0.500000
O O8 0.000000 0.000000 0.590355
O O9 0.185459 0.392990 0.523829
O O10 0.304029 0.543383 0.604537
O O11 0.000000 0.500000 0.627889
O O12 0.000000 0.129109 0.000000
#
# Coordination Sequence:
#
# PCOD9332245 Si02
#       5
#     8   8   8   8   8
#     4  11  25  43  69  99 139 184 234 284 354 416
#     4  11  25  42  69 100 140 183 232 291 344 423
#     4   9  20  43  69  95 131 185 235 280 341 419
#     4  11  22  41  69 100 133 176 227 291 352 414
#     4  11  24  42  68 104 135 178 229 294 349 418
#
# _framework density 23.014324999999999
#
# number of rings (size 3 to 8) (size 9 to 14) (size 15 to 20)
#    0.000    1.400    2.000    3.600    5.600    1.600 
#    0.000    0.000    0.000    0.000    0.000    0.000 
#    0.000    0.000    0.000    0.000    0.000    0.000 
#
# Total GULP energy -111658.247231 kJ/mol
# GULP energy per Si atom -5582.912362 kJ/mol
# Density = 2.296194 g / cm^3
# Si number density = 23.014325 Si / 1000 Ang^3
#
#
#
# Elastic Constant Matrix: (Units=GPa)
#
#
# Indices 1 2 3 4 5 6 
#
# 1 55.2442 9.0598 0.2477 0.0000 0.0000 0.0000
# 2 9.0598 124.7678 37.0008 0.0000 0.0000 0.0000
# 3 0.2477 37.0008 76.7329 0.0000 0.0000 0.0000
# 4 0.0000 0.0000 0.0000 42.2874 0.0000 0.0000
# 5 0.0000 0.0000 0.0000 0.0000-1514.8105 0.0000
# 6 0.0000 0.0000 0.0000 0.0000 0.0000 -3.1123
#
#
#
# Elastic Compliance Matrix: (Units=1/GPa)
#
#
# Indices 1 2 3 4 5 6 
#
# 1 0.018350 -0.001534 0.000681 0.000000 0.000000 0.000000
# 2 -0.001534 0.009481 -0.004567 0.000000 0.000000 0.000000
# 3 0.000681 -0.004567 0.015232 0.000000 0.000000 0.000000
# 4 0.000000 0.000000 0.000000 0.023648 0.000000 0.000000
# 5 0.000000 0.000000 0.000000 0.000000 -0.000660 0.000000
# 6 0.000000 0.000000 0.000000 0.000000 0.000000 -0.321311
#
#
# Mechanical properties :
#
#
# Convention : Reuss Voigt Hill
#
# Bulk Modulus (GPa) = 31.03467 38.81796 34.92631
# Shear Modulus (GPa) = -21.39687 -281.09798 -151.24742
#
# Velocity S-wave (km/s) = -3.05244 -11.06371 -8.11551
# Velocity P-wave (km/s) = 1.04453 12.09562 8.52094
#
# Compressibility (1/GPa) = 0.03222203
#
# Stress axis : x y z
#
# Youngs Moduli (GPa) = 54.49588 105.47902 65.65102
#
# Poissons Ratio (x) = 0.16184 -0.04468
# Poissons Ratio (y) = 0.08361 0.29980
# Poissons Ratio (z) = -0.03709 0.48168
#
# Static dielectric constant tensor:
#      x y z
#    x 1.854720 0.000000 0.000000 
#    y 0.000000 2.028700 0.000000 
#    z 0.000000 0.000000 2.016130 
# 
# From -- ./inp_files/17251.got.cif
#   From: 2010.05.17/outbox.cif.g08.bks.cpg/sg23_9_cif.got.tgz:17251.got - 2010.06.04 12:02:01.
