data_PCOD9332170
_publ_section_title
;
Structure prediction by ZEFSAII (Michael W. Deem and Ramdas Pophale) SiO2 
 PCOD9332170
Probable space group: I 2 2 2
;
_chemical_formula_sum "Si O2"
_cell_formula_units_Z 48
_cell_length_a 15.903873
_cell_length_b 15.074984
_cell_length_c 9.491369
_cell_angle_alpha 90.000000
_cell_angle_beta 90.000000
_cell_angle_gamma 90.000000
_cell_volume 2275.561707
_symmetry_space_group_name_H-M "I 2 2 2"
_symmetry_group_IT_number 23
_symmetry_cell_setting 'orthorhombic'
loop_
_space_group_symop_operation_xyz
x,y,z
-x,-y,z
x,-y,-z
-x,y,-z
1/2+x,1/2+y,1/2+z
1/2-x,1/2-y,1/2+z
1/2+x,1/2-y,1/2-z
1/2-x,1/2+y,1/2-z
loop_
_atom_site_type_symbol
_atom_site_label
_atom_site_fract_x
_atom_site_fract_y
_atom_site_fract_z
Si Si1 0.658588 0.500000 0.500000
Si Si2 0.591493 0.692951 0.554558
Si Si3 0.084885 0.211381 0.593285
Si Si4 0.810622 0.768514 0.319573
Si Si5 0.216473 0.908976 0.271806
Si Si6 0.359986 0.833977 0.663228
Si Si7 0.334483 0.000000 0.500000
O O1 0.607347 0.589734 0.528175
O O2 0.708759 0.475210 0.640902
O O3 0.500000 0.715770 0.500000
O O4 0.611972 0.712925 0.715473
O O5 0.646254 0.758946 0.458786
O O6 0.156243 0.231253 0.477393
O O7 0.124105 0.125855 0.675865
O O8 0.086268 0.291201 0.709044
O O9 0.000000 0.199939 0.500000
O O10 0.768056 0.676427 0.278971
O O11 0.737603 0.840578 0.290158
O O12 0.271782 0.948993 0.395697
O O13 0.385309 0.926402 0.590615
#
# Coordination Sequence:
#
# PCOD9332170 Si02
#       7
#     4   8   8   8   8   8   4
#     4  12  25  42  68 106 143 176 238 286 363 434
#     4  12  24  43  66  99 141 181 229 293 362 425
#     4  11  23  43  69 102 145 185 228 288 371 423
#     4  11  21  42  69  94 138 185 234 285 344 429
#     4  11  25  41  71 104 132 191 234 295 346 423
#     4  11  22  43  69  99 134 187 237 289 348 419
#     4  12  22  44  70 104 132 178 256 288 338 420
#
# _framework density 21.093693999999999
#
# number of rings (size 3 to 8) (size 9 to 14) (size 15 to 20)
#    0.000    0.667    6.667    3.250    2.333    0.000 
#    0.000    0.833    0.000    1.000    0.000    0.000 
#    0.000    0.000    0.000    0.000    0.000    0.000 
#
# Total GULP energy -133974.675374 kJ/mol
# GULP energy per Si atom -5582.278141 kJ/mol
# Density = 2.104568 g / cm^3
# Si number density = 21.093694 Si / 1000 Ang^3
#
#
#
# Elastic Constant Matrix: (Units=GPa)
#
#
# Indices 1 2 3 4 5 6 
#
# 1 55.6146 18.0727 17.3211 0.0000 0.0000 0.0000
# 2 18.0727 110.4234 44.1423 0.0000 0.0000 0.0000
# 3 17.3211 44.1423 131.8948 0.0000 0.0000 0.0000
# 4 0.0000 0.0000 0.0000 49.8213 0.0000 0.0000
# 5 0.0000 0.0000 0.0000 0.0000 35.9347 0.0000
# 6 0.0000 0.0000 0.0000 0.0000 0.0000 -1.5545
#
#
#
# Elastic Compliance Matrix: (Units=1/GPa)
#
#
# Indices 1 2 3 4 5 6 
#
# 1 0.019318 -0.002479 -0.001707 0.000000 0.000000 0.000000
# 2 -0.002479 0.010773 -0.003280 0.000000 0.000000 0.000000
# 3 -0.001707 -0.003280 0.008904 0.000000 0.000000 0.000000
# 4 0.000000 0.000000 0.000000 0.020072 0.000000 0.000000
# 5 0.000000 0.000000 0.000000 0.000000 0.027828 0.000000
# 6 0.000000 0.000000 0.000000 0.000000 0.000000 -0.643306
#
#
# Mechanical properties :
#
#
# Convention : Reuss Voigt Hill
#
# Bulk Modulus (GPa) = 41.55901 50.77835 46.16868
# Shear Modulus (GPa) = -9.37281 31.40008 11.01364
#
# Velocity S-wave (km/s) = -2.11023 3.86242 2.28749
# Velocity P-wave (km/s) = 3.71584 6.63446 5.37697
#
# Compressibility (1/GPa) = 0.02406217
#
# Stress axis : x y z
#
# Youngs Moduli (GPa) = 51.76441 92.82484 112.31284
#
# Poissons Ratio (x) = 0.23014 0.19174
# Poissons Ratio (y) = 0.12834 0.36837
# Poissons Ratio (z) = 0.08837 0.30445
#
# Static dielectric constant tensor:
#      x y z
#    x 1.840090 0.000000 0.000000 
#    y 0.000000 1.783490 0.000000 
#    z 0.000000 0.000000 1.802340 
# 
# From -- ./inp_files/11084.got.cif
#   From: 2010.05.17/outbox.cif.g08.bks.cpg/sg23_6_cif.got.tgz:11084.got - 2010.06.04 12:02:01.
