data_PCOD9332236
_publ_section_title
;
Structure prediction by ZEFSAII (Michael W. Deem and Ramdas Pophale) SiO2 
 PCOD9332236
Probable space group: I 2 2 2
;
_chemical_formula_sum "Si O2"
_cell_formula_units_Z 56
_cell_length_a 6.580390
_cell_length_b 30.891821
_cell_length_c 14.267956
_cell_angle_alpha 90.000000
_cell_angle_beta 90.000000
_cell_angle_gamma 90.000000
_cell_volume 2900.393377
_symmetry_space_group_name_H-M "I 2 2 2"
_symmetry_group_IT_number 23
_symmetry_cell_setting 'orthorhombic'
loop_
_space_group_symop_operation_xyz
x,y,z
-x,-y,z
x,-y,-z
-x,y,-z
1/2+x,1/2+y,1/2+z
1/2-x,1/2-y,1/2+z
1/2+x,1/2-y,1/2-z
1/2-x,1/2+y,1/2-z
loop_
_atom_site_type_symbol
_atom_site_label
_atom_site_fract_x
_atom_site_fract_y
_atom_site_fract_z
Si Si1 0.483275 0.352871 0.891048
Si Si2 0.911563 0.895537 0.909748
Si Si3 0.471583 0.051337 0.890041
Si Si4 0.877296 0.320224 0.774410
Si Si5 0.636027 0.215808 0.577736
Si Si6 0.737570 0.110968 0.765799
Si Si7 0.201598 0.693493 0.560814
O O1 0.690800 0.340192 0.835344
O O2 0.338308 0.310282 0.895301
O O3 0.359840 0.388781 0.831760
O O4 0.500000 0.365558 0.000000
O O5 0.745486 0.927135 0.863695
O O6 0.806243 0.852751 0.951060
O O7 0.084032 0.878308 0.839925
O O8 0.000000 0.920093 0.000000
O O9 0.632583 0.070622 0.816713
O O10 0.500000 0.000000 0.887887
O O11 0.500000 0.064876 0.000000
O O12 0.816031 0.303057 0.673206
O O13 0.988246 0.282927 0.833457
O O14 0.053227 0.355469 0.751109
O O15 0.500000 0.190987 0.500000
O O16 0.694461 0.261598 0.534423
O O17 0.000000 0.691282 0.500000
#
# Coordination Sequence:
#
# PCOD9332236 Si02
#       7
#     8   8   8   8   8   8   8
#     4  11  22  43  67  90 127 171 226 287 331 381
#     4  12  22  40  64  90 133 176 218 261 323 398
#     4  11  23  41  64  99 140 175 214 260 321 405
#     4  11  24  41  62  91 126 169 223 285 328 391
#     4  11  25  39  60  89 126 172 232 278 332 379
#     4  11  22  40  65  95 126 170 219 270 327 390
#     4  12  25  39  61  87 132 178 218 272 336 391
#
# _framework density 19.307727
#
# number of rings (size 3 to 8) (size 9 to 14) (size 15 to 20)
#    0.000    0.714    5.714    2.143    2.000    0.571 
#    0.000    0.000    0.000    0.000    0.000   14.000 
#    0.000    0.000    0.000    0.000    0.000    0.000 
#
# Total GULP energy -156059.357839 kJ/mol
# GULP energy per Si atom -5573.548494 kJ/mol
# Density = 1.926378 g / cm^3
# Si number density = 19.307727 Si / 1000 Ang^3
#
#
#
# Elastic Constant Matrix: (Units=GPa)
#
#
# Indices 1 2 3 4 5 6 
#
# 1 134.1376 44.7587 57.9420 0.0000 0.0000 0.0000
# 2 44.7587 75.5743 14.4265 0.0000 0.0000 0.0000
# 3 57.9420 14.4265 111.6514 0.0000 0.0000 0.0000
# 4 0.0000 0.0000 0.0000 3.0211 0.0000 0.0000
# 5 0.0000 0.0000 0.0000 0.0000 55.0324 0.0000
# 6 0.0000 0.0000 0.0000 0.0000 0.0000 9.5542
#
#
#
# Elastic Compliance Matrix: (Units=1/GPa)
#
#
# Indices 1 2 3 4 5 6 
#
# 1 0.011734 -0.005933 -0.005323 0.000000 0.000000 0.000000
# 2 -0.005933 0.016567 0.000939 0.000000 0.000000 0.000000
# 3 -0.005323 0.000939 0.011597 0.000000 0.000000 0.000000
# 4 0.000000 0.000000 0.000000 0.331002 0.000000 0.000000
# 5 0.000000 0.000000 0.000000 0.000000 0.018171 0.000000
# 6 0.000000 0.000000 0.000000 0.000000 0.000000 0.104666
#
#
# Mechanical properties :
#
#
# Convention : Reuss Voigt Hill
#
# Bulk Modulus (GPa) = 51.91260 61.73529 56.82395
# Shear Modulus (GPa) = 9.60072 27.13727 18.36900
#
# Velocity S-wave (km/s) = 2.23232 3.75309 3.08779
# Velocity P-wave (km/s) = 5.79566 7.12914 6.49671
#
# Compressibility (1/GPa) = 0.01926314
#
# Stress axis : x y z
#
# Youngs Moduli (GPa) = 85.22158 60.36133 86.22564
#
# Poissons Ratio (x) = 0.35815 0.45896
# Poissons Ratio (y) = 0.50566 -0.08093
# Poissons Ratio (z) = 0.45362 -0.05665
#
# Static dielectric constant tensor:
#      x y z
#    x 1.810330 0.000000 0.000000 
#    y 0.000000 1.655010 0.000000 
#    z 0.000000 0.000000 1.727190 
# 
# From -- ./inp_files/19334.got.cif
#   From: 2010.05.17/outbox.cif.g08.bks.cpg/sg23_10_cif.got.tgz:19334.got - 2010.06.04 12:02:01.
