data_PCOD9332638
_publ_section_title
;
Structure prediction by ZEFSAII (Michael W. Deem and Ramdas Pophale) SiO2 
 PCOD9332638
Probable space group: I 2 2 2
;
_chemical_formula_sum "Si O2"
_cell_formula_units_Z 17
_cell_length_a 6.000000
_cell_length_b 30.000000
_cell_length_c 9.000000
_cell_angle_alpha 90.000000
_cell_angle_beta 90.000000
_cell_angle_gamma 90.000000
_cell_volume 1620.000000
_symmetry_space_group_name_H-M "I 2 2 2"
_symmetry_group_IT_number 23
_symmetry_cell_setting 'orthorhombic'
loop_
_space_group_symop_operation_xyz
x,y,z
-x,-y,z
x,-y,-z
-x,y,-z
1/2+x,1/2+y,1/2+z
1/2-x,1/2-y,1/2+z
1/2+x,1/2-y,1/2-z
1/2-x,1/2+y,1/2-z
loop_
_atom_site_type_symbol
_atom_site_label
_atom_site_fract_x
_atom_site_fract_y
_atom_site_fract_z
Si Si1 0.000000 0.101127 0.000000
Si Si2 0.500000 0.000000 0.500000
Si Si3 0.000000 0.869409 0.500000
Si Si4 0.293756 0.928326 0.279673
Si Si5 0.176151 0.358187 0.741096
Si Si6 0.489777 0.767549 0.313945
O O1 0.834378 0.132196 0.900850
O O2 0.151445 0.072970 0.877724
O O3 0.649791 0.028538 0.382080
O O4 0.850896 0.898691 0.609018
O O5 0.831729 0.846677 0.384223
O O6 0.530305 0.903240 0.256812
O O7 0.002458 0.317731 0.747444
O O8 0.500000 0.764669 0.500000
O O9 0.236714 0.751009 0.254686
#
# Coordination Sequence:
#
# PCOD9332638 Si02
#       6
#     4   2   4   8   8   8
#     4  10  26  44  77 105 144 200 247 312 394 451
#     4  12  24  46  78 110 150 194 262 310 380 466
#     4  10  20  41  76 102 132 196 244 300 376 461
#     4  11  23  45  73 107 143 190 250 314 376 458
#     4  11  24  47  74 107 149 199 256 309 390 464
#     4  12  30  49  78 117 160 206 263 329 394 468
#
# _framework density 10.493827
#
# number of rings (size 3 to 8) (size 9 to 14) (size 15 to 20)
#    0.000    0.941    2.353    2.824   11.529    2.353 
#    0.000    3.529    0.000    0.000    0.000    0.000 
#    0.000    0.000    0.000    0.000    0.000    0.000 
#
# Total GULP energy -94659.331496 kJ/mol
# GULP energy per Si atom -5568.195970 kJ/mol
# Density = 1.046994 g / cm^3
# Si number density = 10.493827 Si / 1000 Ang^3
#
#
#
# Elastic Constant Matrix: (Units=GPa)
#
#
# Indices 1 2 3 4 5 6 
#
# 1 115.2484 22.3513 49.6102 0.0000 0.0000 0.0000
# 2 22.3513 77.2349 29.8993 0.0000 0.0000 0.0000
# 3 49.6102 29.8993 179.9968 0.0000 0.0000 0.0000
# 4 0.0000 0.0000 0.0000 26.3384 0.0000 0.0000
# 5 0.0000 0.0000 0.0000 0.0000 63.7108 0.0000
# 6 0.0000 0.0000 0.0000 0.0000 0.0000 18.5040
#
#
#
# Elastic Compliance Matrix: (Units=1/GPa)
#
#
# Indices 1 2 3 4 5 6 
#
# 1 0.010119 -0.001976 -0.002461 0.000000 0.000000 0.000000
# 2 -0.001976 0.014223 -0.001818 0.000000 0.000000 0.000000
# 3 -0.002461 -0.001818 0.006536 0.000000 0.000000 0.000000
# 4 0.000000 0.000000 0.000000 0.037967 0.000000 0.000000
# 5 0.000000 0.000000 0.000000 0.000000 0.015696 0.000000
# 6 0.000000 0.000000 0.000000 0.000000 0.000000 0.054042
#
#
# Mechanical properties :
#
#
# Convention : Reuss Voigt Hill
#
# Bulk Modulus (GPa) = 54.43972 64.02242 59.23107
# Shear Modulus (GPa) = 31.80330 39.75194 35.77762
#
# Velocity S-wave (km/s) = 3.89695 4.35680 4.13328
# Velocity P-wave (km/s) = 6.80026 7.47529 7.14575
#
# Compressibility (1/GPa) = 0.01836894
#
# Stress axis : x y z
#
# Youngs Moduli (GPa) = 98.81992 70.30813 153.00092
#
# Poissons Ratio (x) = 0.13892 0.37652
# Poissons Ratio (y) = 0.19525 0.27816
# Poissons Ratio (z) = 0.24318 0.12782
#
# Static dielectric constant tensor:
#      x y z
#    x 1.855140 0.000000 0.000000 
#    y 0.000000 1.807020 0.000000 
#    z 0.000000 0.000000 1.772640 
# 
# From -- ./inp_files/5797.got.cif
#   From: 2010.05.17/outbox.ucp.g08.bks.cvg/sg23_3_cif.got.tgz:5797.got - 2010.06.11 15:19:07.
