data_PCOD9332595
_publ_section_title
;
Structure prediction by ZEFSAII (Michael W. Deem and Ramdas Pophale) SiO2 
 PCOD9332595
Probable space group: I 2 2 2
;
_chemical_formula_sum "Si O2"
_cell_formula_units_Z 22
_cell_length_a 6.350310
_cell_length_b 7.318888
_cell_length_c 21.953520
_cell_angle_alpha 90.000000
_cell_angle_beta 90.000000
_cell_angle_gamma 90.000000
_cell_volume 1020.338308
_symmetry_space_group_name_H-M "I 2 2 2"
_symmetry_group_IT_number 23
_symmetry_cell_setting 'orthorhombic'
loop_
_space_group_symop_operation_xyz
x,y,z
-x,-y,z
x,-y,-z
-x,y,-z
1/2+x,1/2+y,1/2+z
1/2-x,1/2-y,1/2+z
1/2+x,1/2-y,1/2-z
1/2-x,1/2+y,1/2-z
loop_
_atom_site_type_symbol
_atom_site_label
_atom_site_fract_x
_atom_site_fract_y
_atom_site_fract_z
Si Si1 0.118284 0.311212 0.060948
Si Si2 0.500000 0.500000 0.772190
Si Si3 0.184870 0.361704 0.670190
Si Si4 0.000000 0.000000 0.500000
O O1 0.148548 0.176673 0.116664
O O2 0.000000 0.500000 0.079182
O O3 0.349368 0.373968 0.040040
O O4 0.000000 0.243114 0.000000
O O5 0.308314 0.437475 0.728819
O O6 0.578471 0.330397 0.811907
O O7 0.000000 0.500000 0.651880
#
# Coordination Sequence:
#
# PCOD9332595 Si02
#       4
#     8   4   8   2
#     4   9  21  40  71 103 140 185 234 288 348 416
#     4  12  27  44  67 107 140 189 238 290 350 418
#     4  12  26  45  71 103 144 186 237 292 351 419
#     4   8  16  40  66 102 136 184 222 288 352 398
#
# _framework density 21.561477
#
# number of rings (size 3 to 8) (size 9 to 14) (size 15 to 20)
#    0.000    1.818    3.636    1.091    5.091    5.818 
#    0.000    5.455    0.000    2.182    0.000    0.000 
#    0.000    0.000    0.000    0.000    0.000    0.000 
#
# Total GULP energy -61536.659294 kJ/mol
# GULP energy per Si atom -5594.241754 kJ/mol
# Density = 2.151240 g / cm^3
# Si number density = 21.561477 Si / 1000 Ang^3
#
#
#
# Elastic Constant Matrix: (Units=GPa)
#
#
# Indices 1 2 3 4 5 6 
#
# 1 98.5418 46.2425 35.6619 0.0000 0.0000 0.0000
# 2 46.2425 134.0022 66.1081 0.0000 -0.0001 0.0000
# 3 35.6619 66.1081 123.4537 0.0000 0.0000 0.0000
# 4 0.0000 0.0000 0.0000 -14.1603 -0.0001 0.0000
# 5 0.0000 -0.0001 0.0000 -0.0001 -841.5376 0.0000
# 6 0.0000 0.0000 0.0000 0.0000 0.0000 34.5977
#
#
#
# Elastic Compliance Matrix: (Units=1/GPa)
#
#
# Indices 1 2 3 4 5 6 
#
# 1 0.012381 -0.003409 -0.001751 0.000000 0.000000 0.000000
# 2 -0.003409 0.011080 -0.004949 0.000000 0.000000 0.000000
# 3 -0.001751 -0.004949 0.011256 0.000000 0.000000 0.000000
# 4 0.000000 0.000000 0.000000 -0.070620 0.000000 0.000000
# 5 0.000000 0.000000 0.000000 0.000000 -0.001188 0.000000
# 6 0.000000 0.000000 0.000000 0.000000 0.000000 0.028904
#
#
# Mechanical properties :
#
#
# Convention : Reuss Voigt Hill
#
# Bulk Modulus (GPa) = 68.96381 72.44697 70.70539
# Shear Modulus (GPa) = 296.49839 -150.35436 73.07201
#
# Velocity S-wave (km/s) = 11.73932 -8.35968 5.82783
# Velocity P-wave (km/s) = 14.69023 7.71400 8.84017
#
# Compressibility (1/GPa) = 0.01450036
#
# Stress axis : x y z
#
# Youngs Moduli (GPa) = 80.76666 90.25095 88.84118
#
# Poissons Ratio (x) = 0.30764 0.15558
# Poissons Ratio (y) = 0.27531 0.43965
# Poissons Ratio (z) = 0.14144 0.44662
#
# Static dielectric constant tensor:
#      x y z
#    x 1.786680 0.000000 0.000000 
#    y 0.000000 1.775550 0.000000 
#    z 0.000000 0.000000 1.802400 
# 
# From -- ./inp_files/28787.got.cif
#   From: 2010.05.17/outbox.cif.g08.bks.cpg/sg23_15_cif.got.tgz:28787.got - 2010.06.04 12:02:01.
