data_PCOD9332112
_publ_section_title
;
Structure prediction by ZEFSAII (Michael W. Deem and Ramdas Pophale) SiO2 
 PCOD9332112
Probable space group: I 2 2 2
;
_chemical_formula_sum "Si O2"
_cell_formula_units_Z 32
_cell_length_a 7.388829
_cell_length_b 17.238321
_cell_length_c 13.552120
_cell_angle_alpha 90.000000
_cell_angle_beta 90.000000
_cell_angle_gamma 90.000000
_cell_volume 1726.147159
_symmetry_space_group_name_H-M "I 2 2 2"
_symmetry_group_IT_number 23
_symmetry_cell_setting 'orthorhombic'
loop_
_space_group_symop_operation_xyz
x,y,z
-x,-y,z
x,-y,-z
-x,y,-z
1/2+x,1/2+y,1/2+z
1/2-x,1/2-y,1/2+z
1/2+x,1/2-y,1/2-z
1/2-x,1/2+y,1/2-z
loop_
_atom_site_type_symbol
_atom_site_label
_atom_site_fract_x
_atom_site_fract_y
_atom_site_fract_z
Si Si1 0.559026 0.241577 0.103877
Si Si2 0.116327 0.355127 0.903619
Si Si3 0.789643 0.992725 0.620120
Si Si4 0.212412 0.676978 0.796195
O O1 0.695369 0.311973 0.075009
O O2 0.381708 0.276133 0.159017
O O3 0.672339 0.189723 0.180899
O O4 0.500000 0.204560 0.000000
O O5 0.173067 0.433163 0.846431
O O6 0.978705 0.299534 0.846029
O O7 0.000000 0.375544 0.000000
O O8 0.732821 0.911795 0.668080
O O9 0.777589 0.000000 0.500000
O O10 0.000000 0.000000 0.644682
#
# Coordination Sequence:
#
# PCOD9332112 Si02
#       4
#     8   8   8   8
#     4  12  24  41  62  94 133 170 215 259 319 396
#     4  12  22  37  63  94 129 168 208 264 328 373
#     4  11  21  35  59  93 129 160 206 267 322 376
#     4  12  24  38  60  95 128 171 210 263 327 379
#
# _framework density 18.538395000000001
#
# number of rings (size 3 to 8) (size 9 to 14) (size 15 to 20)
#    0.000    0.250   10.000    0.750    0.000    0.000 
#    0.000    0.000    0.000    3.000    0.000    1.750 
#    0.000    0.000    0.000    0.000    0.000    0.000 
#
# Total GULP energy -89163.811154 kJ/mol
# GULP energy per Si atom -5572.738197 kJ/mol
# Density = 1.849620 g / cm^3
# Si number density = 18.538395 Si / 1000 Ang^3
#
#
#
# Elastic Constant Matrix: (Units=GPa)
#
#
# Indices 1 2 3 4 5 6 
#
# 1 137.2458 25.9378 48.1026 0.0000 0.0000 0.0000
# 2 25.9378 58.9167 44.1593 0.0000 0.0000 0.0000
# 3 48.1026 44.1593 115.2136 0.0000 0.0000 0.0000
# 4 0.0000 0.0000 0.0000 22.5798 0.0000 0.0000
# 5 0.0000 0.0000 0.0000 0.0000 27.9608 0.0000
# 6 0.0000 0.0000 0.0000 0.0000 0.0000 29.6506
#
#
#
# Elastic Compliance Matrix: (Units=1/GPa)
#
#
# Indices 1 2 3 4 5 6 
#
# 1 0.008634 -0.001542 -0.003014 0.000000 0.000000 0.000000
# 2 -0.001542 0.024090 -0.008589 0.000000 0.000000 0.000000
# 3 -0.003014 -0.008589 0.013230 0.000000 0.000000 0.000000
# 4 0.000000 0.000000 0.000000 0.044287 0.000000 0.000000
# 5 0.000000 0.000000 0.000000 0.000000 0.035764 0.000000
# 6 0.000000 0.000000 0.000000 0.000000 0.000000 0.033726
#
#
# Mechanical properties :
#
#
# Convention : Reuss Voigt Hill
#
# Bulk Modulus (GPa) = 50.85615 60.86395 55.86005
# Shear Modulus (GPa) = 25.96369 28.91665 27.44017
#
# Velocity S-wave (km/s) = 3.74643 3.95375 3.85149
# Velocity P-wave (km/s) = 6.79756 7.33112 7.06938
#
# Compressibility (1/GPa) = 0.01966331
#
# Stress axis : x y z
#
# Youngs Moduli (GPa) = 115.82266 41.51101 75.58650
#
# Poissons Ratio (x) = 0.06402 0.22779
# Poissons Ratio (y) = 0.17863 0.64924
# Poissons Ratio (z) = 0.34904 0.35655
#
# Static dielectric constant tensor:
#      x y z
#    x 1.709720 0.000000 0.000000 
#    y 0.000000 1.665220 0.000000 
#    z 0.000000 0.000000 1.712210 
# 
# From -- ./inp_files/6599.got.cif
#   From: 2010.05.17/outbox.cif.g08.bks.cpg/sg23_4_cif.got.tgz:6599.got - 2010.06.04 12:02:01.
