data_PCOD9332690
_publ_section_title
;
Structure prediction by ZEFSAII (Michael W. Deem and Ramdas Pophale) SiO2 
 PCOD9332690
Probable space group: I 21 21 21
;
_chemical_formula_sum "Si O2"
_cell_formula_units_Z 52
_cell_length_a 26.479921
_cell_length_b 5.512797
_cell_length_c 20.575447
_cell_angle_alpha 90.000000
_cell_angle_beta 90.000000
_cell_angle_gamma 90.000000
_cell_volume 3003.571430
_symmetry_space_group_name_H-M "I 21 21 21"
_symmetry_group_IT_number 24
_symmetry_cell_setting 'orthorhombic'
loop_
_space_group_symop_operation_xyz
x,y,z
-x,1/2-y,z
x,-y,1/2-z
1/2-x,y,-z
1/2+x,1/2+y,1/2+z
1/2-x,-y,1/2+z
1/2+x,1/2-y,-z
-x,1/2+y,1/2-z
loop_
_atom_site_type_symbol
_atom_site_label
_atom_site_fract_x
_atom_site_fract_y
_atom_site_fract_z
Si Si1 0.609995 0.303582 0.845626
Si Si2 0.362616 0.303921 0.641133
Si Si3 0.214638 0.245437 0.935325
Si Si4 0.058866 0.297956 0.475716
Si Si5 0.500000 0.750000 0.708984
Si Si6 0.754044 0.755891 0.078509
Si Si7 0.606214 0.299357 0.000362
O O1 0.630198 0.557849 0.819648
O O2 0.550418 0.284574 0.832957
O O3 0.635805 0.057808 0.822164
O O4 0.620385 0.306669 0.923472
O O5 0.411050 0.307532 0.592664
O O6 0.311912 0.283373 0.599204
O O7 0.225128 0.500544 0.900374
O O8 0.157259 0.227556 0.959104
O O9 0.231368 0.000666 0.898751
O O10 0.250000 0.254159 0.000000
O O11 0.071633 0.558714 0.507837
O O12 0.000000 0.250000 0.465119
O O13 0.080412 0.060051 0.512486
O O14 0.494136 0.500000 0.750000
O O15 0.750000 0.746816 0.000000
#
# Coordination Sequence:
#
# PCOD9332690 Si02
#       7
#     8   8   8   8   4   8   8
#     4  10  20  32  48  56  77  90 121 166 196 254
#     4  10  19  28  44  65  76  96 127 142 198 245
#     4  10  16  25  39  54  82 102 116 141 173 226
#     4  10  18  25  36  50  75  91 122 160 186 222
#     4  12  26  40  50  62  74 100 136 174 238 278
#     4  10  16  25  39  58  82 102 114 141 171 230
#     4  10  19  28  40  61  72  98 129 146 196 247
#
# _framework density 17.312722000000001
#
# number of rings (size 3 to 8) (size 9 to 14) (size 15 to 20)
#    0.000    1.846    0.000   10.615    8.615    0.000 
#    0.000    0.000    0.000    0.000    0.000    0.000 
#    0.000    0.000    0.000    0.000    0.000    0.000 
#
# Total GULP energy -144988.136302 kJ/mol
# GULP energy per Si atom -5576.466781 kJ/mol
# Density = 1.727332 g / cm^3
# Si number density = 17.312722 Si / 1000 Ang^3
#
#
#
# Elastic Constant Matrix: (Units=GPa)
#
#
# Indices 1 2 3 4 5 6 
#
# 1 44.8480 -5.7446 5.9073 0.0000 0.0000 0.0000
# 2 -5.7446 168.5459 -2.7980 0.0000 0.0000 0.0000
# 3 5.9073 -2.7980 9.4320 0.0000 0.0000 0.0000
# 4 0.0000 0.0000 0.0000 -3.4126 0.0000 0.0000
# 5 0.0000 0.0000 0.0000 0.0000 -14.5733 0.0000
# 6 0.0000 0.0000 0.0000 0.0000 0.0000 33.8036
#
#
#
# Elastic Compliance Matrix: (Units=1/GPa)
#
#
# Indices 1 2 3 4 5 6 
#
# 1 0.024359 0.000580 -0.015084 0.000000 0.000000 0.000000
# 2 0.000580 0.005976 0.001410 0.000000 0.000000 0.000000
# 3 -0.015084 0.001410 0.115887 0.000000 0.000000 0.000000
# 4 0.000000 0.000000 0.000000 -0.293028 0.000000 0.000000
# 5 0.000000 0.000000 0.000000 0.000000 -0.068618 0.000000
# 6 0.000000 0.000000 0.000000 0.000000 0.000000 0.029583
#
#
# Mechanical properties :
#
#
# Convention : Reuss Voigt Hill
#
# Bulk Modulus (GPa) = 8.33101 24.17282 16.25192
# Shear Modulus (GPa) = -41.79149 18.19427 -11.79861
#
# Velocity S-wave (km/s) = -4.91849 3.24531 -2.61339
# Velocity P-wave (km/s) = 5.23764 5.29485 0.54887
#
# Compressibility (1/GPa) = 0.12003340
#
# Stress axis : x y z
#
# Youngs Moduli (GPa) = 41.05315 167.32857 8.62907
#
# Poissons Ratio (x) = -0.09702 0.13016
# Poissons Ratio (y) = -0.02380 -0.01216
# Poissons Ratio (z) = 0.61925 -0.23589
#
# Static dielectric constant tensor:
#      x y z
#    x 1.573300 0.000000 0.000000 
#    y 0.000000 1.775180 0.000000 
#    z 0.000000 0.000000 1.543770 
# 
# From -- ./inp_files/31641.got.cif
#   From: 2010.05.17/outbox.cif.g08.bks.cpg/sg24_16_cif.got.tgz:31641.got - 2010.06.04 00:33:39.
