data_PCOD9332878
_publ_section_title
;
Structure prediction by ZEFSAII (Michael W. Deem and Ramdas Pophale) SiO2 
 PCOD9332878
Probable space group: I 21 21 21
;
_chemical_formula_sum "Si O2"
_cell_formula_units_Z 64
_cell_length_a 19.210656
_cell_length_b 14.959715
_cell_length_c 9.654574
_cell_angle_alpha 90.000000
_cell_angle_beta 90.000000
_cell_angle_gamma 90.000000
_cell_volume 2774.588812
_symmetry_space_group_name_H-M "I 21 21 21"
_symmetry_group_IT_number 24
_symmetry_cell_setting 'orthorhombic'
loop_
_space_group_symop_operation_xyz
x,y,z
-x,1/2-y,z
x,-y,1/2-z
1/2-x,y,-z
1/2+x,1/2+y,1/2+z
1/2-x,-y,1/2+z
1/2+x,1/2-y,-z
-x,1/2+y,1/2-z
loop_
_atom_site_type_symbol
_atom_site_label
_atom_site_fract_x
_atom_site_fract_y
_atom_site_fract_z
Si Si1 0.700310 0.501653 0.892361
Si Si2 0.919369 0.281915 0.712999
Si Si3 0.029980 0.442904 0.392477
Si Si4 0.636882 0.842830 0.429844
Si Si5 0.859493 0.311050 0.126403
Si Si6 0.523107 0.608163 0.458403
Si Si7 0.598096 0.340566 0.590831
Si Si8 0.813913 0.978088 0.083214
O O1 0.740957 0.500000 0.750000
O O2 0.682792 0.399156 0.915602
O O3 0.631718 0.560917 0.880967
O O4 0.750000 0.545976 0.000000
O O5 0.868397 0.206378 0.780485
O O6 0.931671 0.362859 0.824227
O O7 0.890945 0.311275 0.565292
O O8 0.000000 0.250000 0.693610
O O9 0.026126 0.500000 0.250000
O O10 0.111443 0.428484 0.419667
O O11 0.993844 0.504589 0.511509
O O12 0.984040 0.354782 0.385931
O O13 0.665139 0.770627 0.536661
O O14 0.554006 0.852244 0.453719
O O15 0.670732 0.935091 0.481964
O O16 0.864019 0.286846 0.287449
O O17 0.936361 0.343863 0.082284
O O18 0.800797 0.000000 0.250000
O O19 0.750000 0.933519 0.000000
#
# Coordination Sequence:
#
# PCOD9332878 Si02
#       8
#     8   8   8   8   8   8   8   8
#     4  10  22  37  54  81 124 165 206 251 301 364
#     4   9  20  35  51  90 127 157 193 249 320 367
#     4  10  17  35  62  89 120 160 208 258 314 366
#     4   9  20  38  61  84 123 161 200 245 319 385
#     4  10  18  34  59  87 117 160 202 253 300 368
#     4   9  16  33  54  79 117 155 193 239 299 366
#     4  11  20  35  57  91 131 155 209 262 305 369
#     4  10  23  45  67  92 121 165 219 272 328 388
#
# _framework density 23.066483000000002
#
# number of rings (size 3 to 8) (size 9 to 14) (size 15 to 20)
#    0.000    2.250    2.500    1.500    0.000    4.000 
#    6.750    1.250    0.000    0.750    0.000    0.000 
#    0.000    0.000    0.000    0.000    0.000    0.000 
#
# Total GULP energy -178302.830404 kJ/mol
# GULP energy per Si atom -5571.963450 kJ/mol
# Density = 2.301398 g / cm^3
# Si number density = 23.066483 Si / 1000 Ang^3
#
#
#
# Elastic Constant Matrix: (Units=GPa)
#
#
# Indices 1 2 3 4 5 6 
#
# 1 61.9044 -7.1278 28.9302 0.0000 0.0000 0.0000
# 2 -7.1278 40.2812 5.9034 0.0000 0.0000 0.0000
# 3 28.9302 5.9034 135.0502 0.0000 0.0000 0.0000
# 4 0.0000 0.0000 0.0000 22.1567 0.0000 0.0000
# 5 0.0000 0.0000 0.0000 0.0000 -163.4354 0.0000
# 6 0.0000 0.0000 0.0000 0.0000 0.0000 0.2643
#
#
#
# Elastic Compliance Matrix: (Units=1/GPa)
#
#
# Indices 1 2 3 4 5 6 
#
# 1 0.018537 0.003887 -0.004141 0.000000 0.000000 0.000000
# 2 0.003887 0.025801 -0.001960 0.000000 0.000000 0.000000
# 3 -0.004141 -0.001960 0.008377 0.000000 0.000000 0.000000
# 4 0.000000 0.000000 0.000000 0.045133 0.000000 0.000000
# 5 0.000000 0.000000 0.000000 0.000000 -0.006119 0.000000
# 6 0.000000 0.000000 0.000000 0.000000 0.000000 3.783561
#
#
# Mechanical properties :
#
#
# Convention : Reuss Voigt Hill
#
# Bulk Modulus (GPa) = 20.70998 32.51639 26.61318
# Shear Modulus (GPa) = 1.28343 -14.23420 -6.47539
#
# Velocity S-wave (km/s) = 0.74673 -2.48683 -1.67731
# Velocity P-wave (km/s) = 3.12111 2.42521 2.79490
#
# Compressibility (1/GPa) = 0.04828591
#
# Stress axis : x y z
#
# Youngs Moduli (GPa) = 53.94724 38.75884 119.36904
#
# Poissons Ratio (x) = -0.15065 0.49428
# Poissons Ratio (y) = -0.20969 0.23402
# Poissons Ratio (z) = 0.22338 0.07599
#
# Static dielectric constant tensor:
#      x y z
#    x 1.861160 0.000000 0.000000 
#    y 0.000000 2.276300 0.000000 
#    z 0.000000 0.000000 1.924970 
# 
# From -- ./inp_files/15406.got.cif
#   From: 2010.05.17/outbox.cif.g08.bks.cpg/sg24_8_cif.got.tgz:15406.got - 2010.06.04 00:33:39.
