data_PCOD9332335
_publ_section_title
;
Structure prediction by ZEFSAII (Michael W. Deem and Ramdas Pophale) SiO2 
 PCOD9332335
Probable space group: I 2 2 2
;
_chemical_formula_sum "Si O2"
_cell_formula_units_Z 30
_cell_length_a 12.127935
_cell_length_b 9.458463
_cell_length_c 11.919379
_cell_angle_alpha 90.000000
_cell_angle_beta 90.000000
_cell_angle_gamma 90.000000
_cell_volume 1367.291328
_symmetry_space_group_name_H-M "I 2 2 2"
_symmetry_group_IT_number 23
_symmetry_cell_setting 'orthorhombic'
loop_
_space_group_symop_operation_xyz
x,y,z
-x,-y,z
x,-y,-z
-x,y,-z
1/2+x,1/2+y,1/2+z
1/2-x,1/2-y,1/2+z
1/2+x,1/2-y,1/2-z
1/2-x,1/2+y,1/2-z
loop_
_atom_site_type_symbol
_atom_site_label
_atom_site_fract_x
_atom_site_fract_y
_atom_site_fract_z
Si Si1 0.616181 0.129249 0.563034
Si Si2 0.000000 0.000000 0.794662
Si Si3 0.207526 0.875120 0.934522
Si Si4 0.000000 0.500000 0.500000
Si Si5 0.408228 0.209649 0.191926
O O1 0.500000 0.143396 0.500000
O O2 0.677234 0.272100 0.535209
O O3 0.594507 0.119315 0.693404
O O4 0.674283 0.000000 0.500000
O O5 0.957112 0.864469 0.722828
O O6 0.100282 0.940293 0.872528
O O7 0.281025 0.788216 0.848114
O O8 0.271729 0.000000 0.000000
O O9 0.033062 0.378817 0.595009
#
# Coordination Sequence:
#
# PCOD9332335 Si02
#       5
#     8   4   8   2   8
#     4  11  23  43  73 108 148 201 262 318 377 467
#     4  12  27  49  82 112 160 207 267 326 388 482
#     4  12  24  48  76 115 153 202 263 326 392 470
#     4  12  28  54  66 110 164 202 264 334 400 476
#     4  12  28  46  78 108 159 209 259 329 401 464
#
# _framework density 21.941191
#
# number of rings (size 3 to 8) (size 9 to 14) (size 15 to 20)
#    0.000    0.267    6.667    2.000    3.733    2.667 
#    0.000    0.000    0.000    0.000    0.000    0.000 
#    0.000    0.000    0.000    0.000    0.000    0.000 
#
# Total GULP energy -83586.297070 kJ/mol
# GULP energy per Si atom -5572.419805 kJ/mol
# Density = 2.189125 g / cm^3
# Si number density = 21.941191 Si / 1000 Ang^3
#
#
#
# Elastic Constant Matrix: (Units=GPa)
#
#
# Indices 1 2 3 4 5 6 
#
# 1 -46.1142 23.3084 58.5473 0.0000 0.0000 0.0000
# 2 23.3084 173.0723 69.1444 0.0000 0.0000 0.0000
# 3 58.5473 69.1444 202.0215 0.0000 0.0000 0.0000
# 4 0.0000 0.0000 0.0000 49.7111 0.0000 0.0000
# 5 0.0000 0.0000 0.0000 0.0000 29.9778 0.0000
# 6 0.0000 0.0000 0.0000 0.0000 0.0000 26.7151
#
#
#
# Elastic Compliance Matrix: (Units=1/GPa)
#
#
# Indices 1 2 3 4 5 6 
#
# 1 -0.015835 0.000347 0.004470 0.000000 0.000000 0.000000
# 2 0.000347 0.006686 -0.002389 0.000000 0.000000 0.000000
# 3 0.004470 -0.002389 0.004472 0.000000 0.000000 0.000000
# 4 0.000000 0.000000 0.000000 0.020116 0.000000 0.000000
# 5 0.000000 0.000000 0.000000 0.000000 0.033358 0.000000
# 6 0.000000 0.000000 0.000000 0.000000 0.000000 0.037432
#
#
# Mechanical properties :
#
#
# Convention : Reuss Voigt Hill
#
# Bulk Modulus (GPa) = 5570.77457 70.10886 2820.44172
# Shear Modulus (GPa) = 61.40053 33.14612 47.27332
#
# Velocity S-wave (km/s) = 5.29574 3.89096 4.64675
# Velocity P-wave (km/s) = 50.81203 7.22555 36.29098
#
# Compressibility (1/GPa) = 0.00017951
#
# Stress axis : x y z
#
# Youngs Moduli (GPa) = -63.15317 149.57631 223.61481
#
# Poissons Ratio (x) = -0.05184 -0.99964
# Poissons Ratio (y) = 0.02189 0.53414
# Poissons Ratio (z) = 0.28232 0.35728
#
# Static dielectric constant tensor:
#      x y z
#    x 1.920410 0.000000 0.000000 
#    y 0.000000 1.973540 0.000000 
#    z 0.000000 0.000000 1.794260 
# 
# From -- ./inp_files/7841.got.cif
#   From: 2010.05.17/outbox.cif.g08.bks.cpg/sg23_4_cif.got.tgz:7841.got - 2010.06.04 12:02:01.
