data_PCOD9332364
_publ_section_title
;
Structure prediction by ZEFSAII (Michael W. Deem and Ramdas Pophale) SiO2 
 PCOD9332364
Probable space group: I 2 2 2
;
_chemical_formula_sum "Si O2"
_cell_formula_units_Z 28
_cell_length_a 9.929655
_cell_length_b 14.569760
_cell_length_c 7.741671
_cell_angle_alpha 90.000000
_cell_angle_beta 90.000000
_cell_angle_gamma 90.000000
_cell_volume 1120.008370
_symmetry_space_group_name_H-M "I 2 2 2"
_symmetry_group_IT_number 23
_symmetry_cell_setting 'orthorhombic'
loop_
_space_group_symop_operation_xyz
x,y,z
-x,-y,z
x,-y,-z
-x,y,-z
1/2+x,1/2+y,1/2+z
1/2-x,1/2-y,1/2+z
1/2+x,1/2-y,1/2-z
1/2-x,1/2+y,1/2-z
loop_
_atom_site_type_symbol
_atom_site_label
_atom_site_fract_x
_atom_site_fract_y
_atom_site_fract_z
Si Si1 0.000000 0.500000 0.000000
Si Si2 0.663708 0.841891 0.672291
Si Si3 0.000000 0.000000 0.500000
Si Si4 0.653742 0.608226 0.480359
Si Si5 0.671864 0.663901 0.832807
O O1 0.080855 0.432054 0.125950
O O2 0.787115 0.867637 0.796068
O O3 0.595579 0.758541 0.779823
O O4 0.723502 0.815375 0.484651
O O5 0.088915 0.927091 0.610614
O O6 0.649911 0.500000 0.500000
O O7 0.500000 0.641691 0.500000
O O8 0.737376 0.640645 0.648022
#
# Coordination Sequence:
#
# PCOD9332364 Si02
#       5
#     2   8   2   8   8
#     4  12  30  52  74 120 180 202 250 338 418 486
#     4  12  27  50  77 111 162 208 258 331 406 481
#     4  12  26  48  82 112 152 202 270 340 386 464
#     4  11  23  45  78 111 148 205 275 333 384 462
#     4  12  25  49  77 110 151 206 272 323 389 473
#
# _framework density 24.999815000000002
#
# number of rings (size 3 to 8) (size 9 to 14) (size 15 to 20)
#    0.000    0.286    2.857    7.714    2.000    2.286 
#    5.143    1.429    0.000    0.000    0.000    0.000 
#    0.000    0.000    0.000    0.000    0.000    0.000 
#
# Total GULP energy -78227.663410 kJ/mol
# GULP energy per Si atom -5587.690244 kJ/mol
# Density = 2.494291 g / cm^3
# Si number density = 24.999815 Si / 1000 Ang^3
#
#
#
# Elastic Constant Matrix: (Units=GPa)
#
#
# Indices 1 2 3 4 5 6 
#
# 1 67.4997 62.6494 55.7953 0.0000 0.0000 0.0000
# 2 62.6494 196.1444 61.1399 0.0000 0.0000 0.0000
# 3 55.7953 61.1399 184.6133 0.0000 0.0000 0.0000
# 4 0.0000 0.0000 0.0000 64.0719 0.0000 0.0000
# 5 0.0000 0.0000 0.0000 0.0000 7.7558 0.0000
# 6 0.0000 0.0000 0.0000 0.0000 0.0000 21.9858
#
#
#
# Elastic Compliance Matrix: (Units=1/GPa)
#
#
# Indices 1 2 3 4 5 6 
#
# 1 0.025288 -0.006350 -0.005540 0.000000 0.000000 0.000000
# 2 -0.006350 0.007280 -0.000492 0.000000 0.000000 0.000000
# 3 -0.005540 -0.000492 0.007254 0.000000 0.000000 0.000000
# 4 0.000000 0.000000 0.000000 0.015607 0.000000 0.000000
# 5 0.000000 0.000000 0.000000 0.000000 0.128937 0.000000
# 6 0.000000 0.000000 0.000000 0.000000 0.000000 0.045484
#
#
# Mechanical properties :
#
#
# Convention : Reuss Voigt Hill
#
# Bulk Modulus (GPa) = 66.40848 89.71409 78.06129
# Shear Modulus (GPa) = 19.25800 36.67421 27.96611
#
# Velocity S-wave (km/s) = 2.77849 3.83427 3.34825
# Velocity P-wave (km/s) = 6.07574 7.45426 6.80002
#
# Compressibility (1/GPa) = 0.01505832
#
# Stress axis : x y z
#
# Youngs Moduli (GPa) = 39.54448 137.36505 137.85882
#
# Poissons Ratio (x) = 0.87231 0.76369
# Poissons Ratio (y) = 0.25112 0.06778
# Poissons Ratio (z) = 0.21906 0.06754
#
# Static dielectric constant tensor:
#      x y z
#    x 2.041370 0.000000 0.000000 
#    y 0.000000 2.181230 0.000000 
#    z 0.000000 0.000000 1.965420 
# 
# From -- ./inp_files/7762.got.cif
#   From: 2010.05.17/outbox.cif.g08.bks.cpg/sg23_4_cif.got.tgz:7762.got - 2010.06.04 12:02:01.
