data_PCOD9332324
_publ_section_title
;
Structure prediction by ZEFSAII (Michael W. Deem and Ramdas Pophale) SiO2 
 PCOD9332324
Probable space group: I 2 2 2
;
_chemical_formula_sum "Si O2"
_cell_formula_units_Z 26
_cell_length_a 23.127192
_cell_length_b 7.099246
_cell_length_c 6.979361
_cell_angle_alpha 90.000000
_cell_angle_beta 90.000000
_cell_angle_gamma 90.000000
_cell_volume 1145.910750
_symmetry_space_group_name_H-M "I 2 2 2"
_symmetry_group_IT_number 23
_symmetry_cell_setting 'orthorhombic'
loop_
_space_group_symop_operation_xyz
x,y,z
-x,-y,z
x,-y,-z
-x,y,-z
1/2+x,1/2+y,1/2+z
1/2-x,1/2-y,1/2+z
1/2+x,1/2-y,1/2-z
1/2-x,1/2+y,1/2-z
loop_
_atom_site_type_symbol
_atom_site_label
_atom_site_fract_x
_atom_site_fract_y
_atom_site_fract_z
Si Si1 0.500000 0.000000 0.500000
Si Si2 0.305544 0.827094 0.350449
Si Si3 0.590879 0.312459 0.593469
Si Si4 0.678466 0.718404 0.061319
O O1 0.544447 0.144259 0.600087
O O2 0.356253 0.706492 0.442614
O O3 0.241236 0.738908 0.343783
O O4 0.304545 0.000000 0.500000
O O5 0.324950 0.844719 0.130172
O O6 0.563055 0.500000 0.500000
O O7 0.624779 0.290533 0.794660
O O8 0.683389 0.500000 0.000000
#
# Coordination Sequence:
#
# PCOD9332324 Si02
#       4
#     2   8   8   8
#     4  12  30  56  74 110 154 216 266 328 388 490
#     4  11  23  42  72 120 161 195 252 330 403 476
#     4  12  25  49  79 106 156 203 269 327 392 475
#     4  11  23  42  77 118 156 205 256 325 415 474
#
# _framework density 22.689375999999999
#
# number of rings (size 3 to 8) (size 9 to 14) (size 15 to 20)
#    0.000    0.615    7.692    0.462    0.000    1.231 
#    0.000    3.077    0.000    0.000    0.000    0.000 
#    0.000    0.000    0.000    0.000    0.000    0.000 
#
# Total GULP energy -72448.830113 kJ/mol
# GULP energy per Si atom -5572.986932 kJ/mol
# Density = 2.263773 g / cm^3
# Si number density = 22.689376 Si / 1000 Ang^3
#
#
#
# Elastic Constant Matrix: (Units=GPa)
#
#
# Indices 1 2 3 4 5 6 
#
# 1 161.9935 59.0886 53.5467 0.0000 0.0000 0.0000
# 2 59.0886 103.8117 63.2629 0.0000 0.0000 0.0000
# 3 53.5467 63.2629 182.1227 0.0000 0.0000 0.0000
# 4 0.0000 0.0000 0.0000 35.5731 0.0000 0.0000
# 5 0.0000 0.0000 0.0000 0.0000 -347.0455 0.0000
# 6 0.0000 0.0000 0.0000 0.0000 0.0000 111.9315
#
#
#
# Elastic Compliance Matrix: (Units=1/GPa)
#
#
# Indices 1 2 3 4 5 6 
#
# 1 0.007923 -0.003920 -0.000968 0.000000 0.000000 0.000000
# 2 -0.003920 0.014159 -0.003766 0.000000 0.000000 0.000000
# 3 -0.000968 -0.003766 0.007083 0.000000 0.000000 0.000000
# 4 0.000000 0.000000 0.000000 0.028111 0.000000 0.000000
# 5 0.000000 0.000000 0.000000 0.000000 -0.002881 0.000000
# 6 0.000000 0.000000 0.000000 0.000000 0.000000 0.008934
#
#
# Mechanical properties :
#
#
# Convention : Reuss Voigt Hill
#
# Bulk Modulus (GPa) = 84.32941 88.85826 86.59384
# Shear Modulus (GPa) = 59.10986 -21.77286 18.66850
#
# Velocity S-wave (km/s) = 5.10963 -3.10111 2.87154
# Velocity P-wave (km/s) = 8.48874 5.14057 7.01727
#
# Compressibility (1/GPa) = 0.01185826
#
# Stress axis : x y z
#
# Youngs Moduli (GPa) = 126.21844 70.62750 141.17402
#
# Poissons Ratio (x) = 0.27684 0.13663
# Poissons Ratio (y) = 0.49475 0.53163
# Poissons Ratio (z) = 0.12216 0.26597
#
# Static dielectric constant tensor:
#      x y z
#    x 1.820960 0.000000 0.000000 
#    y 0.000000 2.791890 0.000000 
#    z 0.000000 0.000000 1.850360 
# 
# From -- ./inp_files/4177.got.cif
#   From: 2010.05.17/outbox.cif.g08.bks.cpg/sg23_3_cif.got.tgz:4177.got - 2010.06.04 12:02:01.
