data_PCOD9332589
_publ_section_title
;
Structure prediction by ZEFSAII (Michael W. Deem and Ramdas Pophale) SiO2 
 PCOD9332589
Probable space group: I 2 2 2
;
_chemical_formula_sum "Si O2"
_cell_formula_units_Z 32
_cell_length_a 4.872228
_cell_length_b 10.754402
_cell_length_c 26.776097
_cell_angle_alpha 90.000000
_cell_angle_beta 90.000000
_cell_angle_gamma 90.000000
_cell_volume 1403.011214
_symmetry_space_group_name_H-M "I 2 2 2"
_symmetry_group_IT_number 23
_symmetry_cell_setting 'orthorhombic'
loop_
_space_group_symop_operation_xyz
x,y,z
-x,-y,z
x,-y,-z
-x,y,-z
1/2+x,1/2+y,1/2+z
1/2-x,1/2-y,1/2+z
1/2+x,1/2-y,1/2-z
1/2-x,1/2+y,1/2-z
loop_
_atom_site_type_symbol
_atom_site_label
_atom_site_fract_x
_atom_site_fract_y
_atom_site_fract_z
Si Si1 0.751503 0.411780 0.624580
Si Si2 0.216593 0.268541 0.783221
Si Si3 0.243313 0.268630 0.965505
Si Si4 0.000000 0.000000 0.335811
Si Si5 0.000000 0.500000 0.094820
O O1 0.500000 0.500000 0.611114
O O2 0.671354 0.321777 0.670007
O O3 0.829435 0.327697 0.577260
O O4 0.000000 0.500000 0.640213
O O5 0.432268 0.207772 0.744759
O O6 0.361665 0.392652 0.803272
O O7 0.120784 0.389806 0.938478
O O8 0.500000 0.301447 0.000000
O O9 0.000000 0.215713 0.000000
O O10 0.751655 0.048226 0.370969
#
# Coordination Sequence:
#
# PCOD9332589 Si02
#       5
#     8   8   8   4   4
#     4  12  28  50  74 105 149 193 247 301 360 438
#     4  12  28  48  75 110 147 194 249 302 368 434
#     4  12  27  48  75 110 144 193 245 299 370 434
#     4  12  26  48  77 106 154 192 239 310 368 430
#     4  12  25  48  76 108 154 184 242 304 373 430
#
# _framework density 22.808084000000001
#
# number of rings (size 3 to 8) (size 9 to 14) (size 15 to 20)
#    0.000    0.000    2.500    6.375    8.750    4.000 
#    0.000    0.000    0.000    0.000    0.000    0.000 
#    0.000    0.000    0.000    0.000    0.000    0.000 
#
# Total GULP energy -89765.683515 kJ/mol
# GULP energy per Si atom -5610.355220 kJ/mol
# Density = 2.275617 g / cm^3
# Si number density = 22.808084 Si / 1000 Ang^3
#
#
#
# Elastic Constant Matrix: (Units=GPa)
#
#
# Indices 1 2 3 4 5 6 
#
# 1 99.9138 -3.1466 12.1372 0.0000 0.0000 0.0000
# 2 -3.1466 93.9702 25.7061 0.0000 0.0000 0.0000
# 3 12.1372 25.7061 100.3309 0.0000 0.0000 0.0000
# 4 0.0000 0.0000 0.0000 19.6892 0.0000 0.0000
# 5 0.0000 0.0000 0.0000 0.0000 66.1633 0.0000
# 6 0.0000 0.0000 0.0000 0.0000 0.0000 28.1715
#
#
#
# Elastic Compliance Matrix: (Units=1/GPa)
#
#
# Indices 1 2 3 4 5 6 
#
# 1 0.010204 0.000731 -0.001422 0.000000 0.000000 0.000000
# 2 0.000731 0.011496 -0.003034 0.000000 0.000000 0.000000
# 3 -0.001422 -0.003034 0.010916 0.000000 0.000000 0.000000
# 4 0.000000 0.000000 0.000000 0.050789 0.000000 0.000000
# 5 0.000000 0.000000 0.000000 0.000000 0.015114 0.000000
# 6 0.000000 0.000000 0.000000 0.000000 0.000000 0.035497
#
#
# Mechanical properties :
#
#
# Convention : Reuss Voigt Hill
#
# Bulk Modulus (GPa) = 39.73463 40.40093 40.06778
# Shear Modulus (GPa) = 33.36545 40.10602 36.73573
#
# Velocity S-wave (km/s) = 3.82891 4.19789 4.01764
# Velocity P-wave (km/s) = 6.08330 6.42248 6.25519
#
# Compressibility (1/GPa) = 0.02516696
#
# Stress axis : x y z
#
# Youngs Moduli (GPa) = 97.99765 86.98639 91.60609
#
# Poissons Ratio (x) = -0.06355 0.13023
# Poissons Ratio (y) = -0.07160 0.27792
# Poissons Ratio (z) = 0.13932 0.26390
#
# Static dielectric constant tensor:
#      x y z
#    x 1.810570 0.000000 0.000000 
#    y 0.000000 1.798620 0.000000 
#    z 0.000000 0.000000 1.847260 
# 
# From -- ./inp_files/5202.got.cif
#   From: 2010.05.17/outbox.cif.g08.bks.cpg/sg23_3_cif.got.tgz:5202.got - 2010.06.04 12:02:01.
