data_PCOD9332055
_publ_section_title
;
Structure prediction by ZEFSAII (Michael W. Deem and Ramdas Pophale) SiO2 
 PCOD9332055
Probable space group: I 2 2 2
;
_chemical_formula_sum "Si O2"
_cell_formula_units_Z 56
_cell_length_a 11.931096
_cell_length_b 22.615695
_cell_length_c 11.238190
_cell_angle_alpha 90.000000
_cell_angle_beta 90.000000
_cell_angle_gamma 90.000000
_cell_volume 3032.401124
_symmetry_space_group_name_H-M "I 2 2 2"
_symmetry_group_IT_number 23
_symmetry_cell_setting 'orthorhombic'
loop_
_space_group_symop_operation_xyz
x,y,z
-x,-y,z
x,-y,-z
-x,y,-z
1/2+x,1/2+y,1/2+z
1/2-x,1/2-y,1/2+z
1/2+x,1/2-y,1/2-z
1/2-x,1/2+y,1/2-z
loop_
_atom_site_type_symbol
_atom_site_label
_atom_site_fract_x
_atom_site_fract_y
_atom_site_fract_z
Si Si1 0.717357 0.146492 0.373318
Si Si2 0.935663 0.774918 0.626974
Si Si3 0.569300 0.262102 0.377460
Si Si4 0.874495 0.552380 0.675819
Si Si5 0.784843 0.660981 0.569990
Si Si6 0.626335 0.061223 0.547186
Si Si7 0.869260 0.581892 0.354673
O O1 0.839790 0.174883 0.361457
O O2 0.631007 0.200011 0.357970
O O3 0.698564 0.115859 0.500943
O O4 0.679386 0.099458 0.273840
O O5 0.873611 0.711142 0.611056
O O6 0.000000 0.783675 0.500000
O O7 0.005796 0.775216 0.751655
O O8 0.500000 0.256474 0.500000
O O9 0.665043 0.308986 0.413476
O O10 0.786235 0.602675 0.649380
O O11 0.886526 0.550017 0.815328
O O12 0.843017 0.487828 0.627117
O O13 0.995490 0.577983 0.634593
O O14 0.820073 0.631810 0.443231
O O15 0.500000 0.069884 0.500000
O O16 0.675514 0.000000 0.500000
#
# Coordination Sequence:
#
# PCOD9332055 Si02
#       7
#     8   8   8   8   8   8   8
#     4  11  22  36  66  85 121 163 196 250 314 362
#     4  11  25  42  60  89 123 160 211 256 300 361
#     4  11  25  42  61  88 121 163 208 253 302 360
#     4  11  21  34  62  92 126 155 193 253 315 368
#     4  11  24  38  63  86 121 161 201 247 311 368
#     4  11  19  35  56  94 125 152 195 248 306 371
#     4  11  20  39  58  96 124 155 194 251 315 373
#
# _framework density 18.467213999999998
#
# number of rings (size 3 to 8) (size 9 to 14) (size 15 to 20)
#    0.000    1.000    2.857    5.571    4.000    3.429 
#    0.000    0.000    0.000    8.143    0.000    0.000 
#    0.000    0.000    0.000    0.000    0.000    0.000 
#
# Total GULP energy -156054.871930 kJ/mol
# GULP energy per Si atom -5573.388283 kJ/mol
# Density = 1.842518 g / cm^3
# Si number density = 18.467214 Si / 1000 Ang^3
#
#
#
# Elastic Constant Matrix: (Units=GPa)
#
#
# Indices 1 2 3 4 5 6 
#
# 1 90.4181 51.3492 46.9194 0.0000 0.0000 0.0000
# 2 51.3492 88.0315 25.5378 0.0000 0.0000 0.0000
# 3 46.9194 25.5378 135.4977 0.0000 0.0000 0.0000
# 4 0.0000 0.0000 0.0000 29.5028 0.0000 0.0000
# 5 0.0000 0.0000 0.0000 0.0000 19.0570 0.0000
# 6 0.0000 0.0000 0.0000 0.0000 0.0000 25.9801
#
#
#
# Elastic Compliance Matrix: (Units=1/GPa)
#
#
# Indices 1 2 3 4 5 6 
#
# 1 0.019062 -0.009737 -0.004766 0.000000 0.000000 0.000000
# 2 -0.009737 0.016990 0.000169 0.000000 0.000000 0.000000
# 3 -0.004766 0.000169 0.008998 0.000000 0.000000 0.000000
# 4 0.000000 0.000000 0.000000 0.033895 0.000000 0.000000
# 5 0.000000 0.000000 0.000000 0.000000 0.052474 0.000000
# 6 0.000000 0.000000 0.000000 0.000000 0.000000 0.038491
#
#
# Mechanical properties :
#
#
# Convention : Reuss Voigt Hill
#
# Bulk Modulus (GPa) = 61.03207 62.39558 61.71382
# Shear Modulus (GPa) = 24.50524 27.58404 26.04464
#
# Velocity S-wave (km/s) = 3.64670 3.86900 3.75949
# Velocity P-wave (km/s) = 7.13105 7.33618 7.23434
#
# Compressibility (1/GPa) = 0.01638483
#
# Stress axis : x y z
#
# Youngs Moduli (GPa) = 52.45988 58.85873 111.12965
#
# Poissons Ratio (x) = 0.57308 0.52961
# Poissons Ratio (y) = 0.51078 -0.01882
# Poissons Ratio (z) = 0.25001 -0.00997
#
# Static dielectric constant tensor:
#      x y z
#    x 1.625500 0.000000 0.000000 
#    y 0.000000 1.657990 0.000000 
#    z 0.000000 0.000000 1.742220 
# 
# From -- ./inp_files/15919.got.cif
#   From: 2010.05.17/outbox.cif.g08.bks.cpg/sg23_8_cif.got.tgz:15919.got - 2010.06.04 12:02:01.
