data_PCOD9332471
_publ_section_title
;
Structure prediction by ZEFSAII (Michael W. Deem and Ramdas Pophale) SiO2 
 PCOD9332471
Probable space group: I 2 2 2
;
_chemical_formula_sum "Si O2"
_cell_formula_units_Z 40
_cell_length_a 8.320919
_cell_length_b 19.422750
_cell_length_c 11.148819
_cell_angle_alpha 90.000000
_cell_angle_beta 90.000000
_cell_angle_gamma 90.000000
_cell_volume 1801.817827
_symmetry_space_group_name_H-M "I 2 2 2"
_symmetry_group_IT_number 23
_symmetry_cell_setting 'orthorhombic'
loop_
_space_group_symop_operation_xyz
x,y,z
-x,-y,z
x,-y,-z
-x,y,-z
1/2+x,1/2+y,1/2+z
1/2-x,1/2-y,1/2+z
1/2+x,1/2-y,1/2-z
1/2-x,1/2+y,1/2-z
loop_
_atom_site_type_symbol
_atom_site_label
_atom_site_fract_x
_atom_site_fract_y
_atom_site_fract_z
Si Si1 0.304679 0.579309 0.764273
Si Si2 0.309355 0.214116 0.629285
Si Si3 0.816491 0.083706 0.000000
Si Si4 0.804679 0.920691 0.264273
Si Si5 0.190643 0.285884 0.870714
O O1 0.238798 0.634337 0.856430
O O2 0.245686 0.600241 0.629877
O O3 0.259884 0.500000 0.787312
O O4 0.500000 0.582174 0.762195
O O5 0.249998 0.250000 0.749999
O O6 0.247200 0.240536 0.499999
O O7 0.499999 0.221165 0.628173
O O8 0.745686 0.100241 0.870123
O O9 0.000000 0.110659 0.000000
O O10 0.826321 0.000000 0.000000
O O11 0.738796 0.865663 0.356429
#
# Coordination Sequence:
#
# PCOD9332471 Si02
#       5
#     8   8   8   8   8
#     4   9  18  35  62  94 127 163 204 251 304 365
#     4  11  26  45  64  89 124 166 209 258 315 371
#     4   7  12  26  51  85 121 155 190 233 288 347
#     4   9  18  35  62  94 127 163 204 251 304 365
#     4  11  26  45  64  89 124 166 209 258 315 371
#
# _framework density 22.199801999999998
#
# number of rings (size 3 to 8) (size 9 to 14) (size 15 to 20)
#    0.000    2.600    0.000    3.600    2.800    4.800 
#    0.000    4.000    0.000    3.600    0.000    0.000 
#    0.000    0.000    0.000    0.000    0.000    0.000 
#
# Total GULP energy -111631.931891 kJ/mol
# GULP energy per Si atom -5581.596595 kJ/mol
# Density = 2.214927 g / cm^3
# Si number density = 22.199802 Si / 1000 Ang^3
#
#
#
# Elastic Constant Matrix: (Units=GPa)
#
#
# Indices 1 2 3 4 5 6 
#
# 1 23.5418 15.9605 35.5049 0.0000 0.0000 0.0000
# 2 15.9605 93.1840 65.4041 0.0001 0.0000 -0.0001
# 3 35.5049 65.4041 183.1835 0.0000 0.0000 0.0000
# 4 0.0000 0.0001 0.0000 37.9501 0.0000 0.0000
# 5 0.0000 0.0000 0.0000 0.0000 21.1523 0.0000
# 6 0.0000 -0.0001 0.0000 0.0000 0.0000 26.2462
#
#
#
# Elastic Compliance Matrix: (Units=1/GPa)
#
#
# Indices 1 2 3 4 5 6 
#
# 1 0.060585 -0.002849 -0.010725 0.000000 0.000000 0.000000
# 2 -0.002849 0.014454 -0.004609 0.000000 0.000000 0.000000
# 3 -0.010725 -0.004609 0.009183 0.000000 0.000000 0.000000
# 4 0.000000 0.000000 0.000000 0.026350 0.000000 0.000000
# 5 0.000000 0.000000 0.000000 0.000000 0.047276 0.000000
# 6 0.000000 0.000000 0.000000 0.000000 0.000000 0.038101
#
#
# Mechanical properties :
#
#
# Convention : Reuss Voigt Hill
#
# Bulk Modulus (GPa) = 20.89589 59.29425 40.09507
# Shear Modulus (GPa) = 20.13960 29.27238 24.70599
#
# Velocity S-wave (km/s) = 3.01524 3.63518 3.33962
# Velocity P-wave (km/s) = 4.64277 6.66233 5.74204
#
# Compressibility (1/GPa) = 0.04785630
#
# Stress axis : x y z
#
# Youngs Moduli (GPa) = 16.50582 69.18476 108.89386
#
# Poissons Ratio (x) = 0.19710 1.16793
# Poissons Ratio (y) = 0.04702 0.50184
# Poissons Ratio (z) = 0.17703 0.31884
#
# Static dielectric constant tensor:
#      x y z
#    x 1.766950 0.000000 0.000000 
#    y 0.000000 1.845670 0.000000 
#    z 0.000000 0.000000 1.843420 
# 
# From -- ./inp_files/14604.got.cif
#   From: 2010.05.17/outbox.cif.g08.bks.cpg/sg23_8_cif.got.tgz:14604.got - 2010.06.04 12:02:01.
