data_PCOD9332101
_publ_section_title
;
Structure prediction by ZEFSAII (Michael W. Deem and Ramdas Pophale) SiO2 
 PCOD9332101
Probable space group: I 2 2 2
;
_chemical_formula_sum "Si O2"
_cell_formula_units_Z 34
_cell_length_a 9.995132
_cell_length_b 8.409944
_cell_length_c 18.378637
_cell_angle_alpha 90.000000
_cell_angle_beta 90.000000
_cell_angle_gamma 90.000000
_cell_volume 1544.880665
_symmetry_space_group_name_H-M "I 2 2 2"
_symmetry_group_IT_number 23
_symmetry_cell_setting 'orthorhombic'
loop_
_space_group_symop_operation_xyz
x,y,z
-x,-y,z
x,-y,-z
-x,y,-z
1/2+x,1/2+y,1/2+z
1/2-x,1/2-y,1/2+z
1/2+x,1/2-y,1/2-z
1/2-x,1/2+y,1/2-z
loop_
_atom_site_type_symbol
_atom_site_label
_atom_site_fract_x
_atom_site_fract_y
_atom_site_fract_z
Si Si1 0.000000 0.500000 0.500000
Si Si2 0.152359 0.196908 0.999378
Si Si3 0.282943 0.309016 0.338991
Si Si4 0.485966 0.687255 0.234290
Si Si5 0.317196 0.848117 0.879006
O O1 0.909264 0.401167 0.446263
O O2 0.224068 0.244312 0.923659
O O3 0.212007 0.255149 0.076095
O O4 0.000000 0.246726 0.000000
O O5 0.152637 0.000000 0.000000
O O6 0.433059 0.277736 0.309332
O O7 0.254656 0.499117 0.343339
O O8 0.164898 0.241738 0.286506
O O9 0.500000 0.500000 0.224612
O O10 0.583792 0.769554 0.176694
#
# Coordination Sequence:
#
# PCOD9332101 Si02
#       5
#     2   8   8   8   8
#     4  12  16  40  68  84 116 164 228 266 300 372
#     4   9  19  35  67  93 113 157 224 271 298 360
#     4  11  23  41  64  95 129 170 213 260 320 384
#     4  12  26  39  62  98 137 169 205 266 329 383
#     4  11  20  41  68  91 121 168 223 265 310 379
#
# _framework density 22.008172999999999
#
# number of rings (size 3 to 8) (size 9 to 14) (size 15 to 20)
#    0.000    1.176    5.882    1.412    9.882    0.000 
#    0.000    5.294    0.000    1.412    0.000    0.000 
#    0.000    0.000    0.000    0.000    0.000    0.000 
#
# Total GULP energy -94789.861783 kJ/mol
# GULP energy per Si atom -5575.874223 kJ/mol
# Density = 2.195808 g / cm^3
# Si number density = 22.008173 Si / 1000 Ang^3
#
#
#
# Elastic Constant Matrix: (Units=GPa)
#
#
# Indices 1 2 3 4 5 6 
#
# 1 113.8827 5.3244 21.6599 0.0000 0.0000 0.0000
# 2 5.3244 15.6757 23.0928 0.0000 0.0000 0.0000
# 3 21.6599 23.0928 81.7916 0.0000 0.0000 0.0000
# 4 0.0000 0.0000 0.0000 19.0131 0.0000 0.0000
# 5 0.0000 0.0000 0.0000 0.0000 37.5845 0.0000
# 6 0.0000 0.0000 0.0000 0.0000 0.0000 6.2047
#
#
#
# Elastic Compliance Matrix: (Units=1/GPa)
#
#
# Indices 1 2 3 4 5 6 
#
# 1 0.009253 0.000799 -0.002676 0.000000 0.000000 0.000000
# 2 0.000799 0.109290 -0.031068 0.000000 0.000000 0.000000
# 3 -0.002676 -0.031068 0.021707 0.000000 0.000000 0.000000
# 4 0.000000 0.000000 0.000000 0.052595 0.000000 0.000000
# 5 0.000000 0.000000 0.000000 0.000000 0.026607 0.000000
# 6 0.000000 0.000000 0.000000 0.000000 0.000000 0.161168
#
#
# Mechanical properties :
#
#
# Convention : Reuss Voigt Hill
#
# Bulk Modulus (GPa) = 13.44820 34.61159 24.02989
# Shear Modulus (GPa) = 10.60905 23.31198 16.96052
#
# Velocity S-wave (km/s) = 2.19795 3.25813 2.77906
# Velocity P-wave (km/s) = 3.54473 5.46944 4.60868
#
# Compressibility (1/GPa) = 0.07435940
#
# Stress axis : x y z
#
# Youngs Moduli (GPa) = 108.07846 9.14995 46.06898
#
# Poissons Ratio (x) = -0.00731 0.12328
# Poissons Ratio (y) = -0.08639 1.43129
# Poissons Ratio (z) = 0.28921 0.28427
#
# Static dielectric constant tensor:
#      x y z
#    x 1.440900 0.000000 0.000000 
#    y 0.000000 1.800200 0.000000 
#    z 0.000000 0.000000 1.944750 
# 
# From -- ./inp_files/14424.got.cif
#   From: 2010.05.17/outbox.cif.g08.bks.cpg/sg23_8_cif.got.tgz:14424.got - 2010.06.04 12:02:01.
