data_PCOD9332771
_publ_section_title
;
Structure prediction by ZEFSAII (Michael W. Deem and Ramdas Pophale) SiO2 
 PCOD9332771
Probable space group: I 21 21 21
;
_chemical_formula_sum "Si O2"
_cell_formula_units_Z 48
_cell_length_a 9.927725
_cell_length_b 32.184778
_cell_length_c 7.208175
_cell_angle_alpha 90.000000
_cell_angle_beta 90.000000
_cell_angle_gamma 90.000000
_cell_volume 2303.167791
_symmetry_space_group_name_H-M "I 21 21 21"
_symmetry_group_IT_number 24
_symmetry_cell_setting 'orthorhombic'
loop_
_space_group_symop_operation_xyz
x,y,z
-x,1/2-y,z
x,-y,1/2-z
1/2-x,y,-z
1/2+x,1/2+y,1/2+z
1/2-x,-y,1/2+z
1/2+x,1/2-y,-z
-x,1/2+y,1/2-z
loop_
_atom_site_type_symbol
_atom_site_label
_atom_site_fract_x
_atom_site_fract_y
_atom_site_fract_z
Si Si1 0.767817 0.143146 0.274971
Si Si2 0.265038 0.951394 0.219933
Si Si3 0.537910 0.392087 0.719011
Si Si4 0.254694 0.179185 0.726128
Si Si5 0.973341 0.382521 0.731296
Si Si6 0.156573 0.264625 0.315381
O O1 0.750000 0.142965 0.500000
O O2 0.623407 0.127778 0.205299
O O3 0.821161 0.189773 0.228637
O O4 0.885521 0.111759 0.218514
O O5 0.123567 0.931584 0.284792
O O6 0.388943 0.923241 0.291333
O O7 0.281452 0.000000 0.250000
O O8 0.250000 0.945001 0.000000
O O9 0.625975 0.352218 0.776975
O O10 0.528099 0.387889 0.493889
O O11 0.250000 0.180344 0.500000
O O12 0.116904 0.157333 0.781074
O O13 0.281997 0.225408 0.792190
O O14 0.250000 0.267107 0.500000
O O15 0.000000 0.250000 0.353029
#
# Coordination Sequence:
#
# PCOD9332771 Si02
#       6
#     8   8   8   8   8   8
#     4   9  15  21  32  49  74 106 142 169 197 236
#     4   9  17  30  47  63  80 104 136 173 211 252
#     4   8  13  24  36  51  73 103 134 164 201 246
#     4   8  13  20  29  41  69 102 138 166 193 229
#     4   8  15  24  36  52  73 105 134 168 204 249
#     4  10  17  19  26  44  72 107 146 179 196 228
#
# _framework density 20.840859999999999
#
# number of rings (size 3 to 8) (size 9 to 14) (size 15 to 20)
#    0.000    3.333    1.667    2.000    7.000    0.000 
#    0.000    0.833    0.000    0.000    0.000    0.000 
#    0.000    0.000    0.000   24.000    0.000   26.667 
#
# Total GULP energy -133647.875904 kJ/mol
# GULP energy per Si atom -5568.661496 kJ/mol
# Density = 2.079342 g / cm^3
# Si number density = 20.840860 Si / 1000 Ang^3
#
#
#
# Elastic Constant Matrix: (Units=GPa)
#
#
# Indices 1 2 3 4 5 6 
#
# 1 231.2135 97.9798 6.3303 0.0004 0.0007 0.0001
# 2 97.9798 143.8675 -9.9944 0.0009 0.0013 0.0004
# 3 6.3303 -9.9944 76.4175 0.0052 0.0007 -0.0012
# 4 0.0004 0.0009 0.0052 0.1251 -0.0001 0.0009
# 5 0.0007 0.0013 0.0007 -0.0001 -16.7905 0.0006
# 6 0.0001 0.0004 -0.0012 0.0009 0.0006 14.6504
#
#
#
# Elastic Compliance Matrix: (Units=1/GPa)
#
#
# Indices 1 2 3 4 5 6 
#
# 1 0.006165 -0.004273 -0.001070 0.000056 0.000000 0.000000
# 2 -0.004273 0.009976 0.001659 -0.000127 0.000001 0.000000
# 3 -0.001070 0.001659 0.013392 -0.000565 0.000001 0.000001
# 4 0.000056 -0.000127 -0.000565 7.992327 -0.000030 -0.000484
# 5 0.000000 0.000001 0.000001 -0.000030 -0.059557 0.000003
# 6 0.000000 0.000000 0.000001 -0.000484 0.000003 0.068257
#
#
# Mechanical properties :
#
#
# Convention : Reuss Voigt Hill
#
# Bulk Modulus (GPa) = 45.11576 71.12553 58.12064
# Shear Modulus (GPa) = 0.62148 23.40919 12.01533
#
# Velocity S-wave (km/s) = 0.54667 3.35511 2.40370
# Velocity P-wave (km/s) = 4.70034 7.01505 5.97094
#
# Compressibility (1/GPa) = 0.02216520
#
# Stress axis : x y z
#
# Youngs Moduli (GPa) = 162.20598 100.23939 74.67372
#
# Poissons Ratio (x) = 0.42832 0.07987
# Poissons Ratio (y) = 0.69309 -0.12386
# Poissons Ratio (z) = 0.17349 -0.16627
#
# Static dielectric constant tensor:
#      x y z
#    x 1.784440 0.000000 0.000000 
#    y 0.000000 1.749820 0.000020 
#    z 0.000000 0.000020 1.901480 
# 
# From -- ./inp_files/11553.got.cif
#   From: 2010.05.17/outbox.cif.g08.bks.cpg/sg24_6_cif.got.tgz:11553.got - 2010.06.04 00:33:39.
