data_PCOD9332167
_publ_section_title
;
Structure prediction by ZEFSAII (Michael W. Deem and Ramdas Pophale) SiO2 
 PCOD9332167
Probable space group: I 2 2 2
;
_chemical_formula_sum "Si O2"
_cell_formula_units_Z 34
_cell_length_a 13.547179
_cell_length_b 4.944796
_cell_length_c 22.728479
_cell_angle_alpha 90.000000
_cell_angle_beta 90.000000
_cell_angle_gamma 90.000000
_cell_volume 1522.536182
_symmetry_space_group_name_H-M "I 2 2 2"
_symmetry_group_IT_number 23
_symmetry_cell_setting 'orthorhombic'
loop_
_space_group_symop_operation_xyz
x,y,z
-x,-y,z
x,-y,-z
-x,y,-z
1/2+x,1/2+y,1/2+z
1/2-x,1/2-y,1/2+z
1/2+x,1/2-y,1/2-z
1/2-x,1/2+y,1/2-z
loop_
_atom_site_type_symbol
_atom_site_label
_atom_site_fract_x
_atom_site_fract_y
_atom_site_fract_z
Si Si1 0.244813 0.990897 0.712020
Si Si2 0.500000 0.500000 0.000000
Si Si3 0.661776 0.349717 0.905743
Si Si4 0.435781 0.262806 0.350085
Si Si5 0.781039 0.137045 0.062803
O O1 0.218003 0.776553 0.762410
O O2 0.340019 0.843630 0.684134
O O3 0.161122 0.043234 0.662011
O O4 0.571318 0.651800 0.047463
O O5 0.740767 0.558691 0.934101
O O6 0.704748 0.049635 0.900971
O O7 0.500000 0.500000 0.321188
O O8 0.388157 0.382224 0.409159
O O9 0.500000 0.000000 0.361934
O O10 0.778858 0.000000 0.000000
#
# Coordination Sequence:
#
# PCOD9332167 Si02
#       5
#     8   2   8   8   8
#     4  11  23  46  70  93 137 183 232 284 365 417
#     4  12  24  46  72 110 154 166 264 284 352 450
#     4  11  24  41  70 102 135 191 217 296 352 415
#     4  11  23  41  67  97 128 170 226 287 336 407
#     4  11  21  42  65  95 137 177 216 262 363 413
#
# _framework density 22.331159
#
# number of rings (size 3 to 8) (size 9 to 14) (size 15 to 20)
#    0.000    0.941    2.353    7.059    0.000    2.353 
#    6.353    3.529    0.000    0.000    0.000    0.000 
#    0.000    0.000    0.000    0.000    0.000    0.000 
#
# Total GULP energy -94824.465792 kJ/mol
# GULP energy per Si atom -5577.909752 kJ/mol
# Density = 2.228033 g / cm^3
# Si number density = 22.331159 Si / 1000 Ang^3
#
#
#
# Elastic Constant Matrix: (Units=GPa)
#
#
# Indices 1 2 3 4 5 6 
#
# 1 90.6150 24.0569 11.3184 0.0000 0.0000 0.0000
# 2 24.0569 103.6531 19.3648 0.0000 0.0000 0.0000
# 3 11.3184 19.3648 101.3397 0.0000 0.0000 0.0000
# 4 0.0000 0.0000 0.0000 27.8044 0.0000 0.0000
# 5 0.0000 0.0000 0.0000 0.0000 32.7847 0.0000
# 6 0.0000 0.0000 0.0000 0.0000 0.0000 31.2201
#
#
#
# Elastic Compliance Matrix: (Units=1/GPa)
#
#
# Indices 1 2 3 4 5 6 
#
# 1 0.011827 -0.002591 -0.000826 0.000000 0.000000 0.000000
# 2 -0.002591 0.010572 -0.001731 0.000000 0.000000 0.000000
# 3 -0.000826 -0.001731 0.010291 0.000000 0.000000 0.000000
# 4 0.000000 0.000000 0.000000 0.035965 0.000000 0.000000
# 5 0.000000 0.000000 0.000000 0.000000 0.030502 0.000000
# 6 0.000000 0.000000 0.000000 0.000000 0.000000 0.032031
#
#
# Mechanical properties :
#
#
# Convention : Reuss Voigt Hill
#
# Bulk Modulus (GPa) = 44.65285 45.00976 44.83131
# Shear Modulus (GPa) = 33.56890 34.41968 33.99429
#
# Velocity S-wave (km/s) = 3.88136 3.93024 3.90587
# Velocity P-wave (km/s) = 6.33449 6.38710 6.36085
#
# Compressibility (1/GPa) = 0.02239499
#
# Stress axis : x y z
#
# Youngs Moduli (GPa) = 84.55515 94.58788 97.17425
#
# Poissons Ratio (x) = 0.24503 0.08025
# Poissons Ratio (y) = 0.21904 0.16820
# Poissons Ratio (z) = 0.06983 0.16372
#
# Static dielectric constant tensor:
#      x y z
#    x 1.810900 0.000000 0.000000 
#    y 0.000000 1.816570 0.000000 
#    z 0.000000 0.000000 1.978070 
# 
# From -- ./inp_files/4300.got.cif
#   From: 2010.05.17/outbox.cif.g08.bks.cpg/sg23_3_cif.got.tgz:4300.got - 2010.06.04 12:02:01.
