data_PCOD9332046
_publ_section_title
;
Structure prediction by ZEFSAII (Michael W. Deem and Ramdas Pophale) SiO2 
 PCOD9332046
Probable space group: I 2 2 2
;
_chemical_formula_sum "Si O2"
_cell_formula_units_Z 54
_cell_length_a 11.017221
_cell_length_b 22.695661
_cell_length_c 12.515131
_cell_angle_alpha 90.000000
_cell_angle_beta 90.000000
_cell_angle_gamma 90.000000
_cell_volume 3129.322315
_symmetry_space_group_name_H-M "I 2 2 2"
_symmetry_group_IT_number 23
_symmetry_cell_setting 'orthorhombic'
loop_
_space_group_symop_operation_xyz
x,y,z
-x,-y,z
x,-y,-z
-x,y,-z
1/2+x,1/2+y,1/2+z
1/2-x,1/2-y,1/2+z
1/2+x,1/2-y,1/2-z
1/2-x,1/2+y,1/2-z
loop_
_atom_site_type_symbol
_atom_site_label
_atom_site_fract_x
_atom_site_fract_y
_atom_site_fract_z
Si Si1 0.340075 0.182457 0.601698
Si Si2 0.089545 0.847016 0.602704
Si Si3 0.500000 0.000000 0.500000
Si Si4 0.612541 0.699329 0.238392
Si Si5 0.500000 0.160098 0.000000
Si Si6 0.823193 0.405732 0.092514
Si Si7 0.754470 0.268592 0.553201
Si Si8 0.948717 0.664814 0.728181
O O1 0.212435 0.172922 0.659114
O O2 0.359095 0.135341 0.508624
O O3 0.329929 0.245852 0.543776
O O4 0.438657 0.176175 0.692968
O O5 0.176084 0.904253 0.594155
O O6 0.182438 0.791520 0.596789
O O7 0.000000 0.843443 0.500000
O O8 0.009793 0.835672 0.708848
O O9 0.406999 0.962367 0.573402
O O10 0.671145 0.701695 0.356230
O O11 0.594852 0.768200 0.206758
O O12 0.627411 0.194660 0.019287
O O13 0.480262 0.133042 0.117133
O O14 0.858792 0.374099 0.202453
#
# Coordination Sequence:
#
# PCOD9332046 Si02
#       8
#     8   8   2   8   4   8   8   8
#     4  11  19  33  50  82 115 156 202 235 282 356
#     4  11  18  34  52  80 122 163 193 237 295 366
#     4  12  24  48  66  86 100 152 208 290 314 354
#     4  12  19  28  52  77 127 166 193 219 286 368
#     4  12  20  30  48  77 122 161 190 224 278 350
#     4  11  24  39  61  83 112 150 208 260 314 338
#     4  11  19  28  45  77 115 171 195 222 271 349
#     4  12  21  32  50  83 116 161 197 238 282 371
#
# _framework density 17.256133999999999
#
# number of rings (size 3 to 8) (size 9 to 14) (size 15 to 20)
#    0.000    0.593   12.593    0.000    0.000    0.000 
#    0.000    0.370    0.000    0.444    0.000    0.000 
#    0.000    0.000    0.889    0.000    0.000    0.000 
#
# Total GULP energy -150301.462463 kJ/mol
# GULP energy per Si atom -5566.720832 kJ/mol
# Density = 1.721686 g / cm^3
# Si number density = 17.256134 Si / 1000 Ang^3
#
#
#
# Elastic Constant Matrix: (Units=GPa)
#
#
# Indices 1 2 3 4 5 6 
#
# 1 96.0082 22.5614 43.6295 0.0000 0.0000 0.0000
# 2 22.5614 29.6255 10.4488 0.0001 0.0000 0.0000
# 3 43.6295 10.4488 121.5118 0.0001 0.0000 0.0000
# 4 0.0000 0.0001 0.0001 6.6904 0.0000 0.0000
# 5 0.0000 0.0000 0.0000 0.0000 42.3175 0.0000
# 6 0.0000 0.0000 0.0000 0.0000 0.0000 21.2094
#
#
#
# Elastic Compliance Matrix: (Units=1/GPa)
#
#
# Indices 1 2 3 4 5 6 
#
# 1 0.014700 -0.009625 -0.004450 0.000000 0.000000 0.000000
# 2 -0.009625 0.041113 -0.000079 -0.000001 0.000000 0.000000
# 3 -0.004450 -0.000079 0.009834 0.000000 0.000000 0.000000
# 4 0.000000 -0.000001 0.000000 0.149469 0.000000 0.000000
# 5 0.000000 0.000000 0.000000 0.000000 0.023631 0.000000
# 6 0.000000 0.000000 0.000000 0.000000 0.000000 0.047149
#
#
# Mechanical properties :
#
#
# Convention : Reuss Voigt Hill
#
# Bulk Modulus (GPa) = 26.78287 44.49165 35.63726
# Shear Modulus (GPa) = 15.30681 25.41050 20.35866
#
# Velocity S-wave (km/s) = 2.98155 3.84154 3.43854
# Velocity P-wave (km/s) = 5.23520 6.74653 6.03833
#
# Compressibility (1/GPa) = 0.03733730
#
# Stress axis : x y z
#
# Youngs Moduli (GPa) = 68.02667 24.32332 101.68346
#
# Poissons Ratio (x) = 0.23412 0.45254
# Poissons Ratio (y) = 0.65477 0.00806
# Poissons Ratio (z) = 0.30275 0.00193
#
# Static dielectric constant tensor:
#      x y z
#    x 1.662410 0.000000 0.000000 
#    y 0.000000 1.588840 0.000000 
#    z 0.000000 0.000000 1.640570 
# 
# From -- ./inp_files/15945.got.cif
#   From: 2010.05.17/outbox.cif.g08.bks.cpg/sg23_8_cif.got.tgz:15945.got - 2010.06.04 12:02:01.
