data_PCOD9332090
_publ_section_title
;
Structure prediction by ZEFSAII (Michael W. Deem and Ramdas Pophale) SiO2 
 PCOD9332090
Probable space group: I 2 2 2
;
_chemical_formula_sum "Si O2"
_cell_formula_units_Z 40
_cell_length_a 16.883223
_cell_length_b 9.448336
_cell_length_c 11.409665
_cell_angle_alpha 90.000000
_cell_angle_beta 90.000000
_cell_angle_gamma 90.000000
_cell_volume 1820.051091
_symmetry_space_group_name_H-M "I 2 2 2"
_symmetry_group_IT_number 23
_symmetry_cell_setting 'orthorhombic'
loop_
_space_group_symop_operation_xyz
x,y,z
-x,-y,z
x,-y,-z
-x,y,-z
1/2+x,1/2+y,1/2+z
1/2-x,1/2-y,1/2+z
1/2+x,1/2-y,1/2-z
1/2-x,1/2+y,1/2-z
loop_
_atom_site_type_symbol
_atom_site_label
_atom_site_fract_x
_atom_site_fract_y
_atom_site_fract_z
Si Si1 0.595312 0.980749 0.129890
Si Si2 0.535219 0.660139 0.620234
Si Si3 0.689728 0.506038 0.133809
Si Si4 0.682925 0.778771 0.724068
Si Si5 0.457572 0.685404 0.870491
O O1 0.603438 0.814629 0.147807
O O2 0.500000 0.000000 0.128859
O O3 0.632547 0.095675 0.214153
O O4 0.628068 0.000000 0.000000
O O5 0.500000 0.500000 0.615359
O O6 0.500000 0.727260 0.500000
O O7 0.628165 0.702622 0.624398
O O8 0.508854 0.700114 0.752577
O O9 0.701933 0.353631 0.192141
O O10 0.740343 0.632091 0.188958
O O11 0.596092 0.545202 0.135230
O O12 0.714609 0.500000 0.000000
O O13 0.500000 0.698049 0.000000
#
# Coordination Sequence:
#
# PCOD9332090 Si02
#       5
#     8   8   8   8   8
#     4  11  20  39  70 109 139 180 248 307 363 429
#     4  11  24  44  71 104 140 187 241 300 367 437
#     4  12  28  47  72 105 149 197 243 311 381 447
#     4  12  26  48  69 106 149 193 243 304 382 452
#     4  12  23  44  77 110 144 188 252 310 358 442
#
# _framework density 21.977406999999999
#
# number of rings (size 3 to 8) (size 9 to 14) (size 15 to 20)
#    0.000    0.400    6.000    3.600    0.000    3.200 
#    3.600    1.000    0.000    0.000    0.000    0.000 
#    0.000    0.000    0.000    0.000    0.000    0.000 
#
# Total GULP energy -111422.194350 kJ/mol
# GULP energy per Si atom -5571.109718 kJ/mol
# Density = 2.192739 g / cm^3
# Si number density = 21.977407 Si / 1000 Ang^3
#
#
#
# Elastic Constant Matrix: (Units=GPa)
#
#
# Indices 1 2 3 4 5 6 
#
# 1 81.6132 35.0597 52.1389 0.0000 0.0000 0.0000
# 2 35.0597 130.7481 50.2593 0.0000 0.0000 0.0000
# 3 52.1389 50.2593 135.6080 0.0000 0.0000 0.0000
# 4 0.0000 0.0000 0.0000 21.6777 0.0000 0.0000
# 5 0.0000 0.0000 0.0000 0.0000 -0.3079 0.0000
# 6 0.0000 0.0000 0.0000 0.0000 0.0000 -4.8270
#
#
#
# Elastic Compliance Matrix: (Units=1/GPa)
#
#
# Indices 1 2 3 4 5 6 
#
# 1 0.016847 -0.002364 -0.005601 0.000000 0.000000 0.000000
# 2 -0.002364 0.009251 -0.002519 0.000000 0.000000 0.000000
# 3 -0.005601 -0.002519 0.010461 0.000000 0.000000 0.000000
# 4 0.000000 0.000000 0.000000 0.046130 0.000000 0.000000
# 5 0.000000 0.000000 0.000000 0.000000 -3.247310 0.000000
# 6 0.000000 0.000000 0.000000 0.000000 0.000000 -0.207170
#
#
# Mechanical properties :
#
#
# Convention : Reuss Voigt Hill
#
# Bulk Modulus (GPa) = 64.14655 69.20947 66.67801
# Shear Modulus (GPa) = -1.49449 17.34264 7.92408
#
# Velocity S-wave (km/s) = -0.82552 2.81216 1.90089
# Velocity P-wave (km/s) = 5.32374 6.48875 5.93490
#
# Compressibility (1/GPa) = 0.01558930
#
# Stress axis : x y z
#
# Youngs Moduli (GPa) = 59.35814 108.09888 95.58885
#
# Poissons Ratio (x) = 0.25559 0.53540
# Poissons Ratio (y) = 0.14035 0.24083
# Poissons Ratio (z) = 0.33247 0.27235
#
# Static dielectric constant tensor:
#      x y z
#    x 1.931290 0.000000 0.000000 
#    y 0.000000 2.030200 0.000000 
#    z 0.000000 0.000000 1.809960 
# 
# From -- ./inp_files/17245.got.cif
#   From: 2010.05.17/outbox.cif.g08.bks.cpg/sg23_9_cif.got.tgz:17245.got - 2010.06.04 12:02:01.
