data_PCOD9332094
_publ_section_title
;
Structure prediction by ZEFSAII (Michael W. Deem and Ramdas Pophale) SiO2 
 PCOD9332094
Probable space group: I 2 2 2
;
_chemical_formula_sum "Si O2"
_cell_formula_units_Z 48
_cell_length_a 15.768020
_cell_length_b 8.374627
_cell_length_c 18.405179
_cell_angle_alpha 90.000000
_cell_angle_beta 90.000000
_cell_angle_gamma 90.000000
_cell_volume 2430.427557
_symmetry_space_group_name_H-M "I 2 2 2"
_symmetry_group_IT_number 23
_symmetry_cell_setting 'orthorhombic'
loop_
_space_group_symop_operation_xyz
x,y,z
-x,-y,z
x,-y,-z
-x,y,-z
1/2+x,1/2+y,1/2+z
1/2-x,1/2-y,1/2+z
1/2+x,1/2-y,1/2-z
1/2-x,1/2+y,1/2-z
loop_
_atom_site_type_symbol
_atom_site_label
_atom_site_fract_x
_atom_site_fract_y
_atom_site_fract_z
Si Si1 0.690609 0.300827 0.846035
Si Si2 0.587238 0.404454 0.359650
Si Si3 0.802063 0.871332 0.264896
Si Si4 0.760081 0.148282 0.105781
Si Si5 0.589355 0.950719 0.083666
Si Si6 0.334466 0.829488 0.466518
O O1 0.726406 0.163439 0.792256
O O2 0.678017 0.452860 0.794685
O O3 0.612418 0.229115 0.891624
O O4 0.763131 0.348206 0.903991
O O5 0.500000 0.500000 0.356436
O O6 0.615368 0.322520 0.283136
O O7 0.661209 0.535551 0.372898
O O8 0.594352 0.276894 0.425499
O O9 0.768795 0.774744 0.334067
O O10 0.675555 0.045302 0.098653
O O11 0.789621 0.231017 0.031136
O O12 0.500000 0.000000 0.119580
O O13 0.579862 0.000000 0.000000
O O14 0.361256 0.000000 0.500000
#
# Coordination Sequence:
#
# PCOD9332094 Si02
#       6
#     8   8   8   8   8   8
#     4  11  20  40  65  96 126 171 220 281 344 418
#     4  11  25  44  67  99 143 185 233 292 359 429
#     4  11  22  38  70  92 129 177 228 278 344 419
#     4  12  21  41  66  95 130 180 230 281 352 415
#     4  11  22  38  63  96 130 170 223 277 341 415
#     4  11  22  39  72  97 130 178 235 287 352 418
#
# _framework density 19.749611999999999
#
# number of rings (size 3 to 8) (size 9 to 14) (size 15 to 20)
#    0.000    0.833    8.333    0.500    0.000    2.667 
#    0.000    1.667    0.000    3.000    0.000    0.000 
#    0.000    0.000    0.000    0.000    0.000    0.000 
#
# Total GULP energy -133612.328229 kJ/mol
# GULP energy per Si atom -5567.180343 kJ/mol
# Density = 1.970466 g / cm^3
# Si number density = 19.749612 Si / 1000 Ang^3
#
#
#
# Elastic Constant Matrix: (Units=GPa)
#
#
# Indices 1 2 3 4 5 6 
#
# 1 90.9780 18.1441 5.0168 0.0000 0.0000 0.0000
# 2 18.1441 87.4328 32.9323 0.0000 0.0000 0.0000
# 3 5.0168 32.9323 112.9506 0.0000 0.0000 0.0000
# 4 0.0000 0.0000 0.0000 46.8578 0.0000 0.0000
# 5 0.0000 0.0000 0.0000 0.0000 -18.8500 0.0000
# 6 0.0000 0.0000 0.0000 0.0000 0.0000 14.6533
#
#
#
# Elastic Compliance Matrix: (Units=1/GPa)
#
#
# Indices 1 2 3 4 5 6 
#
# 1 0.011471 -0.002458 0.000207 0.000000 0.000000 0.000000
# 2 -0.002458 0.013375 -0.003791 0.000000 0.000000 0.000000
# 3 0.000207 -0.003791 0.009949 0.000000 0.000000 0.000000
# 4 0.000000 0.000000 0.000000 0.021341 0.000000 0.000000
# 5 0.000000 0.000000 0.000000 0.000000 -0.053050 0.000000
# 6 0.000000 0.000000 0.000000 0.000000 0.000000 0.068244
#
#
# Mechanical properties :
#
#
# Convention : Reuss Voigt Hill
#
# Bulk Modulus (GPa) = 44.02990 44.83865 44.43427
# Shear Modulus (GPa) = 54.95481 24.21678 39.58579
#
# Velocity S-wave (km/s) = 5.28074 3.50550 4.48189
# Velocity P-wave (km/s) = 7.71518 6.25600 7.02359
#
# Compressibility (1/GPa) = 0.02271184
#
# Stress axis : x y z
#
# Youngs Moduli (GPa) = 87.17991 74.76475 100.50846
#
# Poissons Ratio (x) = 0.18381 -0.02084
# Poissons Ratio (y) = 0.21433 0.38098
# Poissons Ratio (z) = -0.01807 0.28340
#
# Static dielectric constant tensor:
#      x y z
#    x 1.744460 0.000000 0.000000 
#    y 0.000000 2.060070 0.000000 
#    z 0.000000 0.000000 1.705190 
# 
# From -- ./inp_files/22031.got.cif
#   From: 2010.05.17/outbox.cif.g08.bks.cpg/sg23_12_cif.got.tgz:22031.got - 2010.06.04 12:02:01.
