data_PCOD9332548
_publ_section_title
;
Structure prediction by ZEFSAII (Michael W. Deem and Ramdas Pophale) SiO2 
 PCOD9332548
Probable space group: I 2 2 2
;
_chemical_formula_sum "Si O2"
_cell_formula_units_Z 34
_cell_length_a 19.465742
_cell_length_b 18.371841
_cell_length_c 4.924792
_cell_angle_alpha 90.000000
_cell_angle_beta 90.000000
_cell_angle_gamma 90.000000
_cell_volume 1761.211586
_symmetry_space_group_name_H-M "I 2 2 2"
_symmetry_group_IT_number 23
_symmetry_cell_setting 'orthorhombic'
loop_
_space_group_symop_operation_xyz
x,y,z
-x,-y,z
x,-y,-z
-x,y,-z
1/2+x,1/2+y,1/2+z
1/2-x,1/2-y,1/2+z
1/2+x,1/2-y,1/2-z
1/2-x,1/2+y,1/2-z
loop_
_atom_site_type_symbol
_atom_site_label
_atom_site_fract_x
_atom_site_fract_y
_atom_site_fract_z
Si Si1 0.000000 0.000000 0.500000
Si Si2 0.077442 0.210393 0.082928
Si Si3 0.788408 0.287326 0.741923
Si Si4 0.750462 0.951399 0.730743
Si Si5 0.894710 0.888262 0.591926
O O1 0.050181 0.050820 0.672192
O O2 0.132479 0.268454 0.189835
O O3 0.079410 0.147810 0.313483
O O4 0.108055 0.174128 0.814615
O O5 0.000000 0.233028 0.000000
O O6 0.758971 0.240469 0.491386
O O7 0.782509 0.373661 0.694547
O O8 0.821271 0.926010 0.586678
O O9 0.713383 0.000000 0.500000
O O10 0.761494 0.000000 0.000000
#
# Coordination Sequence:
#
# PCOD9332548 Si02
#       5
#     2   8   8   8   8
#     4  12  24  34  52  90 132 170 188 234 320 390
#     4  12  23  41  60  90 122 168 218 261 313 377
#     4  12  23  41  66  91 125 172 223 272 318 386
#     4  12  24  39  61  91 128 168 215 269 331 384
#     4  12  24  36  58  86 129 171 205 246 306 399
#
# _framework density 19.304893
#
# number of rings (size 3 to 8) (size 9 to 14) (size 15 to 20)
#    0.000    0.000    8.235    2.824    0.000    0.941 
#    0.000    0.000    0.000    0.706    0.000    1.647 
#    0.000    0.000    0.000    0.000    0.000    0.000 
#
# Total GULP energy -94955.751166 kJ/mol
# GULP energy per Si atom -5585.632422 kJ/mol
# Density = 1.926095 g / cm^3
# Si number density = 19.304893 Si / 1000 Ang^3
#
#
#
# Elastic Constant Matrix: (Units=GPa)
#
#
# Indices 1 2 3 4 5 6 
#
# 1 96.0487 60.7072 19.0630 0.0000 0.0000 0.0000
# 2 60.7072 121.1196 22.3175 0.0000 0.0000 0.0000
# 3 19.0630 22.3175 108.0977 0.0000 0.0000 0.0000
# 4 0.0000 0.0000 0.0000 14.4773 0.0000 0.0000
# 5 0.0000 0.0000 0.0000 0.0000 17.6148 0.0000
# 6 0.0000 0.0000 0.0000 0.0000 0.0000 39.7941
#
#
#
# Elastic Compliance Matrix: (Units=1/GPa)
#
#
# Indices 1 2 3 4 5 6 
#
# 1 0.015379 -0.007493 -0.001165 0.000000 0.000000 0.000000
# 2 -0.007493 0.012234 -0.001204 0.000000 0.000000 0.000000
# 3 -0.001165 -0.001204 0.009705 0.000000 0.000000 0.000000
# 4 0.000000 0.000000 0.000000 0.069074 0.000000 0.000000
# 5 0.000000 0.000000 0.000000 0.000000 0.056770 0.000000
# 6 0.000000 0.000000 0.000000 0.000000 0.000000 0.025129
#
#
# Mechanical properties :
#
#
# Convention : Reuss Voigt Hill
#
# Bulk Modulus (GPa) = 56.84301 58.82682 57.83492
# Shear Modulus (GPa) = 23.37749 29.25579 26.31664
#
# Velocity S-wave (km/s) = 3.48366 3.89711 3.69617
# Velocity P-wave (km/s) = 6.75944 7.12662 6.94545
#
# Compressibility (1/GPa) = 0.01759231
#
# Stress axis : x y z
#
# Youngs Moduli (GPa) = 65.02449 81.73901 103.03989
#
# Poissons Ratio (x) = 0.61251 0.12004
# Poissons Ratio (y) = 0.48726 0.12409
# Poissons Ratio (z) = 0.07575 0.09844
#
# Static dielectric constant tensor:
#      x y z
#    x 1.733780 0.000000 0.000000 
#    y 0.000000 1.720670 0.000000 
#    z 0.000000 0.000000 1.599840 
# 
# From -- ./inp_files/3735.got.cif
#   From: 2010.05.17/outbox.cif.g08.bks.cpg/sg23_2_cif.got.tgz:3735.got - 2010.06.04 12:02:01.
