data_PCOD9332881
_publ_section_title
;
Structure prediction by ZEFSAII (Michael W. Deem and Ramdas Pophale) SiO2 
 PCOD9332881
Probable space group: I 21 21 21
;
_chemical_formula_sum "Si O2"
_cell_formula_units_Z 60
_cell_length_a 23.905645
_cell_length_b 13.859046
_cell_length_c 9.794915
_cell_angle_alpha 90.000000
_cell_angle_beta 90.000000
_cell_angle_gamma 90.000000
_cell_volume 3245.147742
_symmetry_space_group_name_H-M "I 21 21 21"
_symmetry_group_IT_number 24
_symmetry_cell_setting 'orthorhombic'
loop_
_space_group_symop_operation_xyz
x,y,z
-x,1/2-y,z
x,-y,1/2-z
1/2-x,y,-z
1/2+x,1/2+y,1/2+z
1/2-x,-y,1/2+z
1/2+x,1/2-y,-z
-x,1/2+y,1/2-z
loop_
_atom_site_type_symbol
_atom_site_label
_atom_site_fract_x
_atom_site_fract_y
_atom_site_fract_z
Si Si1 0.623748 0.558228 0.386377
Si Si2 0.723469 0.762520 0.852413
Si Si3 0.638486 0.163904 0.864185
Si Si4 0.479953 0.143907 0.648268
Si Si5 0.352880 0.925325 0.876585
Si Si6 0.061414 0.500000 0.250000
Si Si7 0.954325 0.682257 0.451804
Si Si8 0.798956 0.741338 0.597212
O O1 0.613656 0.500000 0.250000
O O2 0.656557 0.488716 0.489353
O O3 0.567539 0.594537 0.459632
O O4 0.657476 0.657262 0.369624
O O5 0.674622 0.822036 0.774081
O O6 0.694056 0.656721 0.861217
O O7 0.772483 0.768976 0.740771
O O8 0.750000 0.787477 0.000000
O O9 0.597574 0.254916 0.893508
O O10 0.600819 0.072139 0.835805
O O11 0.676380 0.172934 0.001261
O O12 0.500000 0.250000 0.599320
O O13 0.415907 0.119482 0.610127
O O14 0.481529 0.146760 0.813136
O O15 0.525168 0.059025 0.635728
O O16 0.353482 0.000000 0.750000
O O17 0.000000 0.750000 0.523774
O O18 0.750000 0.699215 0.500000
#
# Coordination Sequence:
#
# PCOD9332881 Si02
#       8
#     8   8   8   8   8   4   8   8
#     4  11  22  33  50  83 121 154 200 246 306 372
#     4  11  22  37  56  80 121 161 196 250 311 347
#     4  10  20  35  58  87 111 149 203 241 294 370
#     4  11  19  33  58  93 117 144 192 257 303 345
#     4  12  20  33  55  87 116 147 207 255 287 366
#     4  12  18  32  64  94 116 148 196 258 304 338
#     4  10  17  36  57  82 116 159 196 241 300 363
#     4   9  20  38  54  77 116 162 204 241 298 369
#
# _framework density 18.489142000000001
#
# number of rings (size 3 to 8) (size 9 to 14) (size 15 to 20)
#    0.000    1.333    6.000    2.400    0.000    3.200 
#    0.000    2.667    0.000    4.800    0.000    0.000 
#    0.000    0.000    0.000    0.000    0.000    0.000 
#
# Total GULP energy -167044.748459 kJ/mol
# GULP energy per Si atom -5568.158282 kJ/mol
# Density = 1.844706 g / cm^3
# Si number density = 18.489142 Si / 1000 Ang^3
#
#
#
# Elastic Constant Matrix: (Units=GPa)
#
#
# Indices 1 2 3 4 5 6 
#
# 1 72.7859 22.5040 27.8457 0.0000 0.0000 0.0000
# 2 22.5040 61.0309 20.1245 0.0000 0.0000 0.0000
# 3 27.8457 20.1245 101.3794 0.0000 0.0000 0.0000
# 4 0.0000 0.0000 0.0000 7.0063 0.0000 0.0000
# 5 0.0000 0.0000 0.0000 0.0000 5.3623 0.0000
# 6 0.0000 0.0000 0.0000 0.0000 0.0000 23.2394
#
#
#
# Elastic Compliance Matrix: (Units=1/GPa)
#
#
# Indices 1 2 3 4 5 6 
#
# 1 0.016643 -0.004954 -0.003588 0.000000 0.000000 0.000000
# 2 -0.004954 0.019007 -0.002412 0.000000 0.000000 0.000000
# 3 -0.003588 -0.002412 0.011328 0.000000 0.000000 0.000000
# 4 0.000000 0.000000 0.000000 0.142728 0.000000 0.000000
# 5 0.000000 0.000000 0.000000 0.000000 0.186486 0.000000
# 6 0.000000 0.000000 0.000000 0.000000 0.000000 0.043030
#
#
# Mechanical properties :
#
#
# Convention : Reuss Voigt Hill
#
# Bulk Modulus (GPa) = 39.88768 41.79384 40.84076
# Shear Modulus (GPa) = 11.12375 18.10308 14.61341
#
# Velocity S-wave (km/s) = 2.45549 3.13248 2.81442
# Velocity P-wave (km/s) = 5.44607 5.97803 5.71824
#
# Compressibility (1/GPa) = 0.02507040
#
# Stress axis : x y z
#
# Youngs Moduli (GPa) = 60.08466 52.61157 88.27431
#
# Poissons Ratio (x) = 0.26062 0.31673
# Poissons Ratio (y) = 0.29764 0.21296
# Poissons Ratio (z) = 0.21558 0.12692
#
# Static dielectric constant tensor:
#      x y z
#    x 1.732960 0.000000 0.000000 
#    y 0.000000 1.673560 0.000000 
#    z 0.000000 0.000000 1.636850 
# 
# From -- ./inp_files/16007.got.cif
#   From: 2010.05.17/outbox.cif.g08.bks.cpg/sg24_9_cif.got.tgz:16007.got - 2010.06.04 00:33:39.
