data_PCOD9332925
_publ_section_title
;
Structure prediction by ZEFSAII (Michael W. Deem and Ramdas Pophale) SiO2 
 PCOD9332925
Probable space group: I 21 21 21
;
_chemical_formula_sum "Si O2"
_cell_formula_units_Z 56
_cell_length_a 11.066342
_cell_length_b 28.926250
_cell_length_c 7.149637
_cell_angle_alpha 90.000000
_cell_angle_beta 90.000000
_cell_angle_gamma 90.000000
_cell_volume 2288.654394
_symmetry_space_group_name_H-M "I 21 21 21"
_symmetry_group_IT_number 24
_symmetry_cell_setting 'orthorhombic'
loop_
_space_group_symop_operation_xyz
x,y,z
-x,1/2-y,z
x,-y,1/2-z
1/2-x,y,-z
1/2+x,1/2+y,1/2+z
1/2-x,-y,1/2+z
1/2+x,1/2-y,-z
-x,1/2+y,1/2-z
loop_
_atom_site_type_symbol
_atom_site_label
_atom_site_fract_x
_atom_site_fract_y
_atom_site_fract_z
Si Si1 0.467791 0.156107 0.748002
Si Si2 0.770627 0.074222 0.725932
Si Si3 0.868760 0.638008 0.865238
Si Si4 0.259731 0.676724 0.773389
Si Si5 0.246540 0.778132 0.771199
Si Si6 0.001253 0.552794 0.232757
Si Si7 0.472520 0.048769 0.290660
O O1 0.467167 0.152046 0.519600
O O2 0.601794 0.171941 0.793586
O O3 0.370135 0.196020 0.789856
O O4 0.446540 0.101951 0.806344
O O5 0.750000 0.072875 0.500000
O O6 0.795302 0.127460 0.781478
O O7 0.642132 0.055154 0.795480
O O8 0.891632 0.048518 0.787645
O O9 0.850877 0.682266 0.735734
O O10 0.896146 0.593584 0.742328
O O11 0.750000 0.629401 0.000000
O O12 0.217090 0.726888 0.706379
O O13 0.250000 0.677380 0.000000
O O14 0.250000 0.775307 0.000000
O O15 0.954009 0.500000 0.250000
O O16 0.990641 0.556704 0.009990
O O17 0.412828 0.000000 0.250000
#
# Coordination Sequence:
#
# PCOD9332925 Si02
#       7
#     8   8   8   8   8   8   8
#     4   8  14  23  35  52  77 104 132 166 199 235
#     4   8  15  25  38  60  87 109 131 166 207 245
#     4   8  15  27  36  51  79 107 134 168 205 236
#     4   9  13  19  34  55  79 106 130 154 198 253
#     4   8  14  22  33  51  77 107 134 161 197 241
#     4   9  16  27  42  61  86 112 136 166 206 242
#     4  10  18  29  44  60  82 111 140 169 204 242
#
# _framework density 24.468525
#
# number of rings (size 3 to 8) (size 9 to 14) (size 15 to 20)
#    0.000    3.714    0.000    3.429    0.000    0.000 
#    0.000    8.571    0.000    0.000    0.000    0.000 
#    0.000   13.714    0.000    0.000    0.000    0.000 
#
# Total GULP energy -155882.012385 kJ/mol
# GULP energy per Si atom -5567.214728 kJ/mol
# Density = 2.441283 g / cm^3
# Si number density = 24.468525 Si / 1000 Ang^3
#
#
#
# Elastic Constant Matrix: (Units=GPa)
#
#
# Indices 1 2 3 4 5 6 
#
# 1 19.1321 21.3496 -5.6539 -0.0047 0.0022 0.0000
# 2 21.3496 217.7904 -3.6973 -0.0035 0.0028 0.0011
# 3 -5.6539 -3.6973 83.9738 -0.0233 0.0122 0.0030
# 4 -0.0047 -0.0035 -0.0233 5.4677 0.0053 0.0025
# 5 0.0022 0.0028 0.0122 0.0053 -11.4479 0.0000
# 6 0.0000 0.0011 0.0030 0.0025 0.0000 25.5839
#
#
#
# Elastic Compliance Matrix: (Units=1/GPa)
#
#
# Indices 1 2 3 4 5 6 
#
# 1 0.059860 -0.005804 0.003775 0.000064 0.000014 0.000000
# 2 -0.005804 0.005158 -0.000164 -0.000002 0.000000 0.000000
# 3 0.003775 -0.000164 0.012155 0.000055 0.000014 -0.000001
# 4 0.000064 -0.000002 0.000055 0.182894 0.000085 -0.000018
# 5 0.000014 0.000000 0.000014 0.000085 -0.087353 0.000000
# 6 0.000000 0.000000 -0.000001 -0.000018 0.000000 0.039087
#
#
# Mechanical properties :
#
#
# Convention : Reuss Voigt Hill
#
# Bulk Modulus (GPa) = 13.73853 38.32146 26.02999
# Shear Modulus (GPa) = 20.79429 24.51392 22.65410
#
# Velocity S-wave (km/s) = 2.91836 3.16864 3.04607
# Velocity P-wave (km/s) = 4.12101 5.39283 4.79924
#
# Compressibility (1/GPa) = 0.07278799
#
# Stress axis : x y z
#
# Youngs Moduli (GPa) = 16.70552 193.88330 82.26774
#
# Poissons Ratio (x) = 1.12529 -0.31054
# Poissons Ratio (y) = 0.09696 0.01347
# Poissons Ratio (z) = -0.06306 0.03173
#
# Static dielectric constant tensor:
#      x y z
#    x 2.001740 0.000000 0.000000 
#    y 0.000000 2.027830 0.000000 
#    z 0.000000 0.000000 2.020590 
# 
# From -- ./inp_files/20103.got.cif
#   From: 2010.05.17/outbox.cif.g08.bks.cpg/sg24_11_cif.got.tgz:20103.got - 2010.06.04 00:33:39.
