data_PCOD9332552
_publ_section_title
;
Structure prediction by ZEFSAII (Michael W. Deem and Ramdas Pophale) SiO2 
 PCOD9332552
Probable space group: I 2 2 2
;
_chemical_formula_sum "Si O2"
_cell_formula_units_Z 40
_cell_length_a 20.541866
_cell_length_b 6.525114
_cell_length_c 13.241827
_cell_angle_alpha 90.000000
_cell_angle_beta 90.000000
_cell_angle_gamma 90.000000
_cell_volume 1774.908238
_symmetry_space_group_name_H-M "I 2 2 2"
_symmetry_group_IT_number 23
_symmetry_cell_setting 'orthorhombic'
loop_
_space_group_symop_operation_xyz
x,y,z
-x,-y,z
x,-y,-z
-x,y,-z
1/2+x,1/2+y,1/2+z
1/2-x,1/2-y,1/2+z
1/2+x,1/2-y,1/2-z
1/2-x,1/2+y,1/2-z
loop_
_atom_site_type_symbol
_atom_site_label
_atom_site_fract_x
_atom_site_fract_y
_atom_site_fract_z
Si Si1 0.268594 0.000000 0.500000
Si Si2 0.435530 0.630753 0.670991
Si Si3 0.313398 0.348300 0.638172
Si Si4 0.300449 0.825181 0.136874
Si Si5 0.430420 0.979821 0.823524
Si Si6 0.500000 0.000000 0.365352
O O1 0.312118 0.836685 0.440519
O O2 0.222425 0.868530 0.573045
O O3 0.500000 0.500000 0.688199
O O4 0.376010 0.494632 0.635370
O O5 0.458637 0.812205 0.592866
O O6 0.416851 0.755059 0.774732
O O7 0.302867 0.246890 0.747333
O O8 0.251594 0.495511 0.620805
O O9 0.371659 0.919230 0.118745
O O10 0.500000 0.000000 0.877530
O O11 0.447994 0.094940 0.716342
#
# Coordination Sequence:
#
# PCOD9332552 Si02
#       6
#     4   8   8   8   8   4
#     4  12  30  42  70 108 144 186 248 302 344 434
#     4   9  18  35  67 109 138 178 237 290 352 441
#     4  12  24  43  72 102 146 190 241 296 363 419
#     4  12  23  45  68 105 142 191 236 294 360 423
#     4   7  17  35  65 106 135 174 236 283 345 430
#     4   6  16  30  56 106 135 167 236 282 332 435
#
# _framework density 22.536377999999999
#
# number of rings (size 3 to 8) (size 9 to 14) (size 15 to 20)
#    1.800    0.000    2.000    4.200    0.000    0.000 
#    0.000    0.000    0.000    7.200    2.600    0.000 
#    0.000    0.000    0.000    0.000    0.000    0.000 
#
# Total GULP energy -111446.725855 kJ/mol
# GULP energy per Si atom -5572.336293 kJ/mol
# Density = 2.248508 g / cm^3
# Si number density = 22.536378 Si / 1000 Ang^3
#
#
#
# Elastic Constant Matrix: (Units=GPa)
#
#
# Indices 1 2 3 4 5 6 
#
# 1 137.8301 86.8460 26.9450 0.0000 0.0000 0.0000
# 2 86.8460 173.2892 48.4611 0.0000 0.0000 0.0000
# 3 26.9450 48.4611 83.9173 0.0000 0.0000 0.0000
# 4 0.0000 0.0000 0.0000 20.9369 0.0000 0.0000
# 5 0.0000 0.0000 0.0000 0.0000 1.7069 0.0000
# 6 0.0000 0.0000 0.0000 0.0000 0.0000 27.5628
#
#
#
# Elastic Compliance Matrix: (Units=1/GPa)
#
#
# Indices 1 2 3 4 5 6 
#
# 1 0.010615 -0.005208 -0.000401 0.000000 0.000000 0.000000
# 2 -0.005208 0.009437 -0.003778 0.000000 0.000000 0.000000
# 3 -0.000401 -0.003778 0.014227 0.000000 0.000000 0.000000
# 4 0.000000 0.000000 0.000000 0.047763 0.000000 0.000000
# 5 0.000000 0.000000 0.000000 0.000000 0.585859 0.000000
# 6 0.000000 0.000000 0.000000 0.000000 0.000000 0.036281
#
#
# Mechanical properties :
#
#
# Convention : Reuss Voigt Hill
#
# Bulk Modulus (GPa) = 64.49035 79.94900 72.21968
# Shear Modulus (GPa) = 6.86697 25.56027 16.21362
#
# Velocity S-wave (km/s) = 1.74748 3.37141 2.68515
# Velocity P-wave (km/s) = 5.72274 7.12094 6.45978
#
# Compressibility (1/GPa) = 0.01550619
#
# Stress axis : x y z
#
# Youngs Moduli (GPa) = 94.20577 105.96537 70.28995
#
# Poissons Ratio (x) = 0.55184 0.02819
# Poissons Ratio (y) = 0.49060 0.26553
# Poissons Ratio (z) = 0.03778 0.40030
#
# Static dielectric constant tensor:
#      x y z
#    x 1.897810 0.000000 0.000000 
#    y 0.000000 1.878320 0.000000 
#    z 0.000000 0.000000 1.918000 
# 
# From -- ./inp_files/25186.got.cif
#   From: 2010.05.17/outbox.cif.g08.bks.cpg/sg23_13_cif.got.tgz:25186.got - 2010.06.04 12:02:01.
