data_PCOD9332536
_publ_section_title
;
Structure prediction by ZEFSAII (Michael W. Deem and Ramdas Pophale) SiO2 
 PCOD9332536
Probable space group: I 2 2 2
;
_chemical_formula_sum "Si O2"
_cell_formula_units_Z 30
_cell_length_a 8.750549
_cell_length_b 21.846072
_cell_length_c 7.272242
_cell_angle_alpha 90.000000
_cell_angle_beta 90.000000
_cell_angle_gamma 90.000000
_cell_volume 1390.199040
_symmetry_space_group_name_H-M "I 2 2 2"
_symmetry_group_IT_number 23
_symmetry_cell_setting 'orthorhombic'
loop_
_space_group_symop_operation_xyz
x,y,z
-x,-y,z
x,-y,-z
-x,y,-z
1/2+x,1/2+y,1/2+z
1/2-x,1/2-y,1/2+z
1/2+x,1/2-y,1/2-z
1/2-x,1/2+y,1/2-z
loop_
_atom_site_type_symbol
_atom_site_label
_atom_site_fract_x
_atom_site_fract_y
_atom_site_fract_z
Si Si1 0.705145 0.205769 0.174535
Si Si2 0.000000 0.500000 0.500000
Si Si3 0.462460 0.667707 0.196980
Si Si4 0.500000 0.155004 0.500000
Si Si5 0.188873 0.610483 0.342864
O O1 0.651760 0.275520 0.151491
O O2 0.613266 0.188391 0.358600
O O3 0.885127 0.195029 0.209892
O O4 0.661079 0.162689 0.001145
O O5 0.116021 0.546797 0.402111
O O6 0.369606 0.618431 0.313662
O O7 0.500000 0.639690 0.000000
O O8 0.609134 0.121666 0.646082
#
# Coordination Sequence:
#
# PCOD9332536 Si02
#       5
#     8   2   8   4   8
#     4  12  25  44  71 117 156 193 246 317 390 455
#     4  12  28  54  78 100 158 208 270 308 368 462
#     4  12  25  43  75 113 159 195 249 316 391 458
#     4  12  22  45  74 106 146 195 248 294 386 446
#     4  12  27  48  74 108 146 208 255 313 373 446
#
# _framework density 21.579642
#
# number of rings (size 3 to 8) (size 9 to 14) (size 15 to 20)
#    0.000    0.000    5.333    5.600    3.733    0.533 
#    0.000    2.667    0.000    1.600    0.000    0.000 
#    0.000    0.000    0.000    0.000    0.000    0.000 
#
# Total GULP energy -83748.473872 kJ/mol
# GULP energy per Si atom -5583.231591 kJ/mol
# Density = 2.153053 g / cm^3
# Si number density = 21.579642 Si / 1000 Ang^3
#
#
#
# Elastic Constant Matrix: (Units=GPa)
#
#
# Indices 1 2 3 4 5 6 
#
# 1 165.8124 30.8761 29.9997 0.0028 0.0003 -0.0001
# 2 30.8761 85.0716 37.3553 0.0006 0.0002 -0.0001
# 3 29.9997 37.3553 136.5234 0.0093 -0.0024 0.0001
# 4 0.0028 0.0006 0.0093 -532.6240 -0.0159 0.0021
# 5 0.0003 0.0002 -0.0024 -0.0159 46.9691 0.0001
# 6 -0.0001 -0.0001 0.0001 0.0021 0.0001 37.1162
#
#
#
# Elastic Compliance Matrix: (Units=1/GPa)
#
#
# Indices 1 2 3 4 5 6 
#
# 1 0.006564 -0.001988 -0.000898 0.000000 0.000000 0.000000
# 2 -0.001988 0.013962 -0.003383 0.000000 0.000000 0.000000
# 3 -0.000898 -0.003383 0.008448 0.000000 0.000000 0.000000
# 4 0.000000 0.000000 0.000000 -0.001877 -0.000001 0.000000
# 5 0.000000 0.000000 0.000000 -0.000001 0.021291 0.000000
# 6 0.000000 0.000000 0.000000 0.000000 0.000000 0.026942
#
#
# Mechanical properties :
#
#
# Convention : Reuss Voigt Hill
#
# Bulk Modulus (GPa) = 60.84836 64.87441 62.86138
# Shear Modulus (GPa) = 53.56401 -70.42932 -8.43265
#
# Velocity S-wave (km/s) = 4.98753 -5.71907 -1.97893
# Velocity P-wave (km/s) = 7.83745 3.67183 4.89608
#
# Compressibility (1/GPa) = 0.01643430
#
# Stress axis : x y z
#
# Youngs Moduli (GPa) = 152.35560 71.62334 118.37201
#
# Poissons Ratio (x) = 0.14237 0.10635
# Poissons Ratio (y) = 0.30284 0.40051
# Poissons Ratio (z) = 0.13688 0.24233
#
# Static dielectric constant tensor:
#      x y z
#    x 1.895570 0.000000 0.000000 
#    y 0.000000 1.764230 0.000000 
#    z 0.000000 0.000000 1.822600 
# 
# From -- ./inp_files/6626.got.cif
#   From: 2010.05.17/outbox.cif.g08.bks.cpg/sg23_4_cif.got.tgz:6626.got - 2010.06.04 12:02:01.
