data_PCOD9332413
_publ_section_title
;
Structure prediction by ZEFSAII (Michael W. Deem and Ramdas Pophale) SiO2 
 PCOD9332413
Probable space group: I 2 2 2
;
_chemical_formula_sum "Si O2"
_cell_formula_units_Z 32
_cell_length_a 12.291712
_cell_length_b 4.666825
_cell_length_c 26.092549
_cell_angle_alpha 90.000000
_cell_angle_beta 90.000000
_cell_angle_gamma 90.000000
_cell_volume 1496.753903
_symmetry_space_group_name_H-M "I 2 2 2"
_symmetry_group_IT_number 23
_symmetry_cell_setting 'orthorhombic'
loop_
_space_group_symop_operation_xyz
x,y,z
-x,-y,z
x,-y,-z
-x,y,-z
1/2+x,1/2+y,1/2+z
1/2-x,1/2-y,1/2+z
1/2+x,1/2-y,1/2-z
1/2-x,1/2+y,1/2-z
loop_
_atom_site_type_symbol
_atom_site_label
_atom_site_fract_x
_atom_site_fract_y
_atom_site_fract_z
Si Si1 0.379934 0.579065 0.940166
Si Si2 0.774442 0.593252 0.388177
Si Si3 0.264985 0.136163 0.284315
Si Si4 0.425751 0.758262 0.352287
O O1 0.500000 0.500000 0.920134
O O2 0.282128 0.392533 0.916878
O O3 0.356895 0.897247 0.920338
O O4 0.380680 0.500000 0.000000
O O5 0.796815 0.690232 0.329406
O O6 0.662177 0.419515 0.385025
O O7 0.300252 0.387934 0.245547
O O8 0.360572 0.951536 0.311017
O O9 0.500000 0.500000 0.330687
O O10 0.500000 0.000000 0.379438
#
# Coordination Sequence:
#
# PCOD9332413 Si02
#       4
#     8   8   8   8
#     4  11  24  44  72 104 136 177 228 281 356 425
#     4  12  22  43  70  97 136 179 223 283 335 412
#     4  12  22  41  67  94 139 175 229 288 332 401
#     4  12  22  41  69  96 126 185 229 264 336 415
#
# _framework density 21.379601999999998
#
# number of rings (size 3 to 8) (size 9 to 14) (size 15 to 20)
#    0.000    0.250    7.500    1.500    0.000    2.000 
#    0.000    6.250    0.000   11.250    0.000    0.000 
#    0.000    0.000    0.000    0.000    0.000    0.000 
#
# Total GULP energy -89087.545502 kJ/mol
# GULP energy per Si atom -5567.971594 kJ/mol
# Density = 2.133094 g / cm^3
# Si number density = 21.379602 Si / 1000 Ang^3
#
#
#
# Elastic Constant Matrix: (Units=GPa)
#
#
# Indices 1 2 3 4 5 6 
#
# 1 63.3804 24.9275 18.8036 0.0000 0.0000 0.0000
# 2 24.9275 146.0896 29.3617 0.0000 0.0000 0.0000
# 3 18.8036 29.3617 73.1254 0.0000 0.0000 0.0000
# 4 0.0000 0.0000 0.0000 26.1452 0.0000 0.0000
# 5 0.0000 0.0000 0.0000 0.0000 20.3979 0.0000
# 6 0.0000 0.0000 0.0000 0.0000 0.0000 46.4601
#
#
#
# Elastic Compliance Matrix: (Units=1/GPa)
#
#
# Indices 1 2 3 4 5 6 
#
# 1 0.017763 -0.002298 -0.003645 0.000000 0.000000 0.000000
# 2 -0.002298 0.007743 -0.002518 0.000000 0.000000 0.000000
# 3 -0.003645 -0.002518 0.015623 0.000000 0.000000 0.000000
# 4 0.000000 0.000000 0.000000 0.038248 0.000000 0.000000
# 5 0.000000 0.000000 0.000000 0.000000 0.049025 0.000000
# 6 0.000000 0.000000 0.000000 0.000000 0.000000 0.021524
#
#
# Mechanical properties :
#
#
# Convention : Reuss Voigt Hill
#
# Bulk Modulus (GPa) = 41.30989 47.64233 44.47611
# Shear Modulus (GPa) = 28.58479 32.56746 30.57613
#
# Velocity S-wave (km/s) = 3.66048 3.90718 3.78584
# Velocity P-wave (km/s) = 6.10160 6.53354 6.32126
#
# Compressibility (1/GPa) = 0.02420728
#
# Stress axis : x y z
#
# Youngs Moduli (GPa) = 56.29674 129.14215 64.00627
#
# Poissons Ratio (x) = 0.29682 0.23329
# Poissons Ratio (y) = 0.12939 0.16118
# Poissons Ratio (z) = 0.20519 0.32520
#
# Static dielectric constant tensor:
#      x y z
#    x 1.868130 0.000000 0.000000 
#    y 0.000000 1.801690 0.000000 
#    z 0.000000 0.000000 1.842950 
# 
# From -- ./inp_files/29341.got.cif
#   From: 2010.05.17/outbox.cif.g08.bks.cpg/sg23_15_cif.got.tgz:29341.got - 2010.06.04 12:02:01.
