data_PCOD9332887
_publ_section_title
;
Structure prediction by ZEFSAII (Michael W. Deem and Ramdas Pophale) SiO2 
 PCOD9332887
Probable space group: I 21 21 21
;
_chemical_formula_sum "Si O2"
_cell_formula_units_Z 48
_cell_length_a 13.071821
_cell_length_b 14.497932
_cell_length_c 10.154651
_cell_angle_alpha 90.000000
_cell_angle_beta 90.000000
_cell_angle_gamma 90.000000
_cell_volume 1924.452307
_symmetry_space_group_name_H-M "I 21 21 21"
_symmetry_group_IT_number 24
_symmetry_cell_setting 'orthorhombic'
loop_
_space_group_symop_operation_xyz
x,y,z
-x,1/2-y,z
x,-y,1/2-z
1/2-x,y,-z
1/2+x,1/2+y,1/2+z
1/2-x,-y,1/2+z
1/2+x,1/2-y,-z
-x,1/2+y,1/2-z
loop_
_atom_site_type_symbol
_atom_site_label
_atom_site_fract_x
_atom_site_fract_y
_atom_site_fract_z
Si Si1 0.436710 0.103217 0.394654
Si Si2 0.750000 0.613847 0.500000
Si Si3 0.697453 0.152892 0.643384
Si Si4 0.470623 0.098893 0.980526
Si Si5 0.228077 0.000000 0.750000
Si Si6 0.500000 0.250000 0.607874
Si Si7 0.432071 0.500000 0.750000
Si Si8 0.384015 0.607202 0.299700
O O1 0.453210 0.169388 0.516391
O O2 0.522282 0.135347 0.293175
O O3 0.454473 0.999158 0.444641
O O4 0.333538 0.086949 0.314093
O O5 0.865530 0.655085 0.511301
O O6 0.723785 0.547059 0.623790
O O7 0.750000 0.168119 0.500000
O O8 0.602358 0.217527 0.677640
O O9 0.499117 0.072207 0.831180
O O10 0.782782 0.158243 0.754314
O O11 0.642302 0.947236 0.852123
O O12 0.575121 0.127897 0.054878
O O13 0.367070 0.500000 0.250000
#
# Coordination Sequence:
#
# PCOD9332887 Si02
#       8
#     8   4   8   8   4   4   4   8
#     4  10  18  38  62  94 136 174 226 296 345 432
#     4  10  18  34  60  96 140 178 228 288 356 412
#     4  12  24  40  65 100 142 184 228 301 370 425
#     4  10  20  36  62 102 134 177 229 302 343 419
#     4  10  19  35  62 100 134 186 239 285 350 424
#     4  12  24  40  62 104 146 172 230 296 376 436
#     4  12  23  37  68 110 140 168 253 311 346 416
#     4  10  17  37  67  94 129 175 242 294 347 416
#
# _framework density 24.942163000000001
#
# number of rings (size 3 to 8) (size 9 to 14) (size 15 to 20)
#    0.000    1.333    8.333    1.500    0.000    0.000 
#    6.000    0.000    0.000    1.000    4.333    0.000 
#    0.000    0.000    0.000    0.000    0.000    0.000 
#
# Total GULP energy -133816.601497 kJ/mol
# GULP energy per Si atom -5575.691729 kJ/mol
# Density = 2.488539 g / cm^3
# Si number density = 24.942163 Si / 1000 Ang^3
#
#
#
# Elastic Constant Matrix: (Units=GPa)
#
#
# Indices 1 2 3 4 5 6 
#
# 1 158.9184 17.5311 45.2414 0.0000 0.0000 0.0000
# 2 17.5311 40.6332 -6.9833 0.0000 0.0000 0.0000
# 3 45.2414 -6.9833 94.2639 0.0000 0.0000 0.0000
# 4 0.0000 0.0000 0.0000 3.6740 0.0000 0.0000
# 5 0.0000 0.0000 0.0000 0.0000 47.5226 0.0000
# 6 0.0000 0.0000 0.0000 0.0000 0.0000 27.3224
#
#
#
# Elastic Compliance Matrix: (Units=1/GPa)
#
#
# Indices 1 2 3 4 5 6 
#
# 1 0.007916 -0.004120 -0.004104 0.000000 0.000000 0.000000
# 2 -0.004120 0.027073 0.003983 0.000000 0.000000 0.000000
# 3 -0.004104 0.003983 0.012873 0.000000 0.000000 0.000000
# 4 0.000000 0.000000 0.000000 0.272183 0.000000 0.000000
# 5 0.000000 0.000000 0.000000 0.000000 0.021043 0.000000
# 6 0.000000 0.000000 0.000000 0.000000 0.000000 0.036600
#
#
# Mechanical properties :
#
#
# Convention : Reuss Voigt Hill
#
# Bulk Modulus (GPa) = 25.39446 45.04375 35.21911
# Shear Modulus (GPa) = 12.52203 31.57221 22.04712
#
# Velocity S-wave (km/s) = 2.24306 3.56169 2.97632
# Velocity P-wave (km/s) = 4.11240 5.91715 5.09532
#
# Compressibility (1/GPa) = 0.03937866
#
# Stress axis : x y z
#
# Youngs Moduli (GPa) = 126.33433 36.93748 77.67944
#
# Poissons Ratio (x) = 0.15220 0.31882
# Poissons Ratio (y) = 0.52056 -0.30942
# Poissons Ratio (z) = 0.51851 -0.14713
#
# Static dielectric constant tensor:
#      x y z
#    x 2.063140 0.000000 0.000000 
#    y 0.000000 1.809810 0.000000 
#    z 0.000000 0.000000 2.140190 
# 
# From -- ./inp_files/19781.got.cif
#   From: 2010.05.17/outbox.cif.g08.bks.cpg/sg24_10_cif.got.tgz:19781.got - 2010.06.04 00:33:39.
