data_PCOD9332115
_publ_section_title
;
Structure prediction by ZEFSAII (Michael W. Deem and Ramdas Pophale) SiO2 
 PCOD9332115
Probable space group: I 2 2 2
;
_chemical_formula_sum "Si O2"
_cell_formula_units_Z 32
_cell_length_a 4.947516
_cell_length_b 17.049458
_cell_length_c 19.672704
_cell_angle_alpha 90.000000
_cell_angle_beta 90.000000
_cell_angle_gamma 90.000000
_cell_volume 1659.441100
_symmetry_space_group_name_H-M "I 2 2 2"
_symmetry_group_IT_number 23
_symmetry_cell_setting 'orthorhombic'
loop_
_space_group_symop_operation_xyz
x,y,z
-x,-y,z
x,-y,-z
-x,y,-z
1/2+x,1/2+y,1/2+z
1/2-x,1/2-y,1/2+z
1/2+x,1/2-y,1/2-z
1/2-x,1/2+y,1/2-z
loop_
_atom_site_type_symbol
_atom_site_label
_atom_site_fract_x
_atom_site_fract_y
_atom_site_fract_z
Si Si1 0.234647 0.053813 0.741136
Si Si2 0.364739 0.276018 0.207705
Si Si3 0.107098 0.317441 0.569994
Si Si4 0.116514 0.083078 0.899215
O O1 0.253832 0.136299 0.702807
O O2 0.142028 0.077654 0.817485
O O3 0.500000 0.000000 0.745488
O O4 0.000000 0.000000 0.710757
O O5 0.636949 0.273995 0.252658
O O6 0.430637 0.237590 0.135373
O O7 0.411068 0.349805 0.575717
O O8 0.000000 0.280057 0.500000
O O9 0.913339 0.393305 0.577295
O O10 0.000000 0.000000 0.922127
#
# Coordination Sequence:
#
# PCOD9332115 Si02
#       4
#     8   8   8   8
#     4  11  21  36  61  89 120 154 206 258 309 359
#     4  12  22  40  62  88 120 162 204 257 305 359
#     4  12  24  39  58  88 123 166 205 248 304 367
#     4  11  22  37  58  86 126 164 201 241 297 370
#
# _framework density 19.283601999999998
#
# number of rings (size 3 to 8) (size 9 to 14) (size 15 to 20)
#    0.000    0.500    5.000    6.000    0.000    3.000 
#    0.000    0.000    0.000    0.750    0.000    1.750 
#    0.000    0.000    0.000    0.000    0.000    0.000 
#
# Total GULP energy -89397.507284 kJ/mol
# GULP energy per Si atom -5587.344205 kJ/mol
# Density = 1.923971 g / cm^3
# Si number density = 19.283602 Si / 1000 Ang^3
#
#
#
# Elastic Constant Matrix: (Units=GPa)
#
#
# Indices 1 2 3 4 5 6 
#
# 1 98.0345 22.6671 24.7050 0.0000 0.0000 0.0000
# 2 22.6671 92.6059 49.6525 0.0000 0.0000 0.0000
# 3 24.7050 49.6525 122.4946 0.0000 0.0000 0.0000
# 4 0.0000 0.0000 0.0000 9.7288 0.0000 0.0000
# 5 0.0000 0.0000 0.0000 0.0000 14.4735 0.0000
# 6 0.0000 0.0000 0.0000 0.0000 0.0000 23.2172
#
#
#
# Elastic Compliance Matrix: (Units=1/GPa)
#
#
# Indices 1 2 3 4 5 6 
#
# 1 0.011008 -0.001922 -0.001441 0.000000 0.000000 0.000000
# 2 -0.001922 0.014132 -0.005341 0.000000 0.000000 0.000000
# 3 -0.001441 -0.005341 0.010619 0.000000 0.000000 0.000000
# 4 0.000000 0.000000 0.000000 0.102787 0.000000 0.000000
# 5 0.000000 0.000000 0.000000 0.000000 0.069092 0.000000
# 6 0.000000 0.000000 0.000000 0.000000 0.000000 0.043072
#
#
# Mechanical properties :
#
#
# Convention : Reuss Voigt Hill
#
# Bulk Modulus (GPa) = 54.48989 56.35382 55.42186
# Shear Modulus (GPa) = 18.23251 23.89125 21.06188
#
# Velocity S-wave (km/s) = 3.07822 3.52368 3.30846
# Velocity P-wave (km/s) = 6.39941 6.77069 6.58766
#
# Compressibility (1/GPa) = 0.01835203
#
# Stress axis : x y z
#
# Youngs Moduli (GPa) = 90.84304 70.75895 94.16895
#
# Poissons Ratio (x) = 0.13598 0.13571
# Poissons Ratio (y) = 0.17457 0.50295
# Poissons Ratio (z) = 0.13092 0.37792
#
# Static dielectric constant tensor:
#      x y z
#    x 1.686040 0.000000 0.000000 
#    y 0.000000 1.707040 0.000000 
#    z 0.000000 0.000000 1.704470 
# 
# From -- ./inp_files/2182.got.cif
#   From: 2010.05.17/outbox.cif.g08.bks.cpg/sg23_2_cif.got.tgz:2182.got - 2010.06.04 12:02:01.
