data_PCOD9332477
_publ_section_title
;
Structure prediction by ZEFSAII (Michael W. Deem and Ramdas Pophale) SiO2 
 PCOD9332477
Probable space group: I 2 2 2
;
_chemical_formula_sum "Si O2"
_cell_formula_units_Z 26
_cell_length_a 9.151039
_cell_length_b 9.078887
_cell_length_c 11.866889
_cell_angle_alpha 90.000000
_cell_angle_beta 90.000000
_cell_angle_gamma 90.000000
_cell_volume 985.915960
_symmetry_space_group_name_H-M "I 2 2 2"
_symmetry_group_IT_number 23
_symmetry_cell_setting 'orthorhombic'
loop_
_space_group_symop_operation_xyz
x,y,z
-x,-y,z
x,-y,-z
-x,y,-z
1/2+x,1/2+y,1/2+z
1/2-x,1/2-y,1/2+z
1/2+x,1/2-y,1/2-z
1/2-x,1/2+y,1/2-z
loop_
_atom_site_type_symbol
_atom_site_label
_atom_site_fract_x
_atom_site_fract_y
_atom_site_fract_z
Si Si1 0.349384 0.694870 0.803816
Si Si2 0.000000 0.500000 0.654380
Si Si3 0.760067 0.500000 0.500000
Si Si4 0.000000 0.000000 0.500000
Si Si5 0.445497 0.737361 0.386769
O O1 0.400768 0.867371 0.798800
O O2 0.410623 0.604692 0.911760
O O3 0.430784 0.656987 0.687255
O O4 0.174161 0.676632 0.810818
O O5 0.876769 0.417389 0.579250
O O6 0.658704 0.384150 0.440660
O O7 0.500000 0.819918 0.500000
#
# Coordination Sequence:
#
# PCOD9332477 Si02
#       5
#     8   4   4   2   8
#     4  11  27  47  77 107 156 189 253 306 375 429
#     4   9  20  46  75 104 148 209 232 295 366 454
#     4   9  19  40  74 104 144 188 252 286 360 442
#     4  12  28  46  76 116 144 190 254 326 356 434
#     4  11  26  46  75 111 148 201 247 304 371 451
#
# _framework density 26.371417000000001
#
# number of rings (size 3 to 8) (size 9 to 14) (size 15 to 20)
#    0.000    1.538    0.000    4.154   12.923    2.462 
#    0.000    0.000    0.000    0.000    0.000    0.000 
#    0.000    0.000    0.000    0.000    0.000    0.000 
#
# Total GULP energy -72457.932644 kJ/mol
# GULP energy per Si atom -5573.687126 kJ/mol
# Density = 2.631139 g / cm^3
# Si number density = 26.371417 Si / 1000 Ang^3
#
#
#
# Elastic Constant Matrix: (Units=GPa)
#
#
# Indices 1 2 3 4 5 6 
#
# 1 166.3620 -1.0914 65.0961 0.0000 0.0000 0.0000
# 2 -1.0914 90.2242 13.7546 0.0000 0.0000 0.0000
# 3 65.0961 13.7546 167.0507 0.0000 0.0000 0.0000
# 4 0.0000 0.0000 0.0000 34.2483 0.0000 0.0000
# 5 0.0000 0.0000 0.0000 0.0000 33.1635 0.0000
# 6 0.0000 0.0000 0.0000 0.0000 0.0000 21.6918
#
#
#
# Elastic Compliance Matrix: (Units=1/GPa)
#
#
# Indices 1 2 3 4 5 6 
#
# 1 0.007116 0.000515 -0.002815 0.000000 0.000000 0.000000
# 2 0.000515 0.011262 -0.001128 0.000000 0.000000 0.000000
# 3 -0.002815 -0.001128 0.007176 0.000000 0.000000 0.000000
# 4 0.000000 0.000000 0.000000 0.029199 0.000000 0.000000
# 5 0.000000 0.000000 0.000000 0.000000 0.030154 0.000000
# 6 0.000000 0.000000 0.000000 0.000000 0.000000 0.046100
#
#
# Mechanical properties :
#
#
# Convention : Reuss Voigt Hill
#
# Bulk Modulus (GPa) = 53.48289 64.35062 58.91676
# Shear Modulus (GPa) = 34.69927 40.87923 37.78925
#
# Velocity S-wave (km/s) = 3.63132 3.94145 3.78956
# Velocity P-wave (km/s) = 6.15684 6.72071 6.44494
#
# Compressibility (1/GPa) = 0.01869757
#
# Stress axis : x y z
#
# Youngs Moduli (GPa) = 140.52828 88.79654 139.34987
#
# Poissons Ratio (x) = -0.04575 0.39232
# Poissons Ratio (y) = -0.07241 0.15719
# Poissons Ratio (z) = 0.39564 0.10017
#
# Static dielectric constant tensor:
#      x y z
#    x 2.096710 0.000000 0.000000 
#    y 0.000000 2.235290 0.000000 
#    z 0.000000 0.000000 2.606810 
# 
# From -- ./inp_files/7663.got.cif
#   From: 2010.05.17/outbox.cif.g08.bks.cpg/sg23_4_cif.got.tgz:7663.got - 2010.06.04 12:02:01.
