data_PCOD9332802
_publ_section_title
;
Structure prediction by ZEFSAII (Michael W. Deem and Ramdas Pophale) SiO2 
 PCOD9332802
Probable space group: I 21 21 21
;
_chemical_formula_sum "Si O2"
_cell_formula_units_Z 32
_cell_length_a 19.138891
_cell_length_b 10.200176
_cell_length_c 8.536218
_cell_angle_alpha 90.000000
_cell_angle_beta 90.000000
_cell_angle_gamma 90.000000
_cell_volume 1666.440961
_symmetry_space_group_name_H-M "I 21 21 21"
_symmetry_group_IT_number 24
_symmetry_cell_setting 'orthorhombic'
loop_
_space_group_symop_operation_xyz
x,y,z
-x,1/2-y,z
x,-y,1/2-z
1/2-x,y,-z
1/2+x,1/2+y,1/2+z
1/2-x,-y,1/2+z
1/2+x,1/2-y,-z
-x,1/2+y,1/2-z
loop_
_atom_site_type_symbol
_atom_site_label
_atom_site_fract_x
_atom_site_fract_y
_atom_site_fract_z
Si Si1 0.102957 0.960205 0.571507
Si Si2 0.323929 0.293550 0.933867
Si Si3 0.696338 0.377630 0.639400
Si Si4 0.527635 0.893154 0.615362
O O1 0.152293 0.835592 0.532031
O O2 0.023904 0.924736 0.527955
O O3 0.110611 0.000000 0.750000
O O4 0.127361 0.072108 0.449831
O O5 0.314476 0.242275 0.756144
O O6 0.391598 0.385376 0.934969
O O7 0.250000 0.342334 0.000000
O O8 0.719380 0.500000 0.750000
O O9 0.750000 0.352555 0.500000
O O10 0.500000 0.750000 0.671264
O O11 0.518975 0.000000 0.750000
#
# Coordination Sequence:
#
# PCOD9332802 Si02
#       4
#     8   8   8   8
#     4  10  18  32  56  84 112 144 191 243 283 325
#     4  10  20  35  54  79 116 152 185 230 285 341
#     4  10  17  29  53  84 113 143 186 237 284 332
#     4  10  21  40  61  83 113 153 193 234 284 336
#
# _framework density 19.202601000000001
#
# number of rings (size 3 to 8) (size 9 to 14) (size 15 to 20)
#    0.000    2.000    0.000    9.000    0.000    0.000 
#    0.000   16.250    0.000    0.000    0.000    0.000 
#    0.000    0.000    0.000    0.000    0.000    0.000 
#
# Total GULP energy -89304.639379 kJ/mol
# GULP energy per Si atom -5581.539961 kJ/mol
# Density = 1.915890 g / cm^3
# Si number density = 19.202601 Si / 1000 Ang^3
#
#
#
# Elastic Constant Matrix: (Units=GPa)
#
#
# Indices 1 2 3 4 5 6 
#
# 1 159.1764 22.2269 46.2336 0.0000 0.0000 0.0000
# 2 22.2269 29.0576 30.7306 0.0000 0.0000 0.0000
# 3 46.2336 30.7306 131.3828 0.0000 0.0000 0.0000
# 4 0.0000 0.0000 0.0000 8.0774 0.0000 0.0000
# 5 0.0000 0.0000 0.0000 0.0000 1.6992 0.0000
# 6 0.0000 0.0000 0.0000 0.0000 0.0000 11.6628
#
#
#
# Elastic Compliance Matrix: (Units=1/GPa)
#
#
# Indices 1 2 3 4 5 6 
#
# 1 0.007302 -0.003811 -0.001678 0.000000 0.000000 0.000000
# 2 -0.003811 0.047714 -0.009819 0.000000 0.000000 0.000000
# 3 -0.001678 -0.009819 0.010499 0.000000 0.000000 0.000000
# 4 0.000000 0.000000 0.000000 0.123803 0.000000 0.000000
# 5 0.000000 0.000000 0.000000 0.000000 0.588521 0.000000
# 6 0.000000 0.000000 0.000000 0.000000 0.000000 0.085742
#
#
# Mechanical properties :
#
#
# Convention : Reuss Voigt Hill
#
# Bulk Modulus (GPa) = 28.65484 57.55544 43.10514
# Shear Modulus (GPa) = 5.51980 18.98293 12.25136
#
# Velocity S-wave (km/s) = 1.69728 3.14755 2.52862
# Velocity P-wave (km/s) = 4.33541 6.57626 5.56969
#
# Compressibility (1/GPa) = 0.03489812
#
# Stress axis : x y z
#
# Youngs Moduli (GPa) = 136.95098 20.95826 95.24998
#
# Poissons Ratio (x) = 0.07986 0.15985
# Poissons Ratio (y) = 0.52185 0.93530
# Poissons Ratio (z) = 0.22984 0.20580
#
# Static dielectric constant tensor:
#      x y z
#    x 1.714060 0.000000 0.000000 
#    y 0.000000 1.684320 0.000000 
#    z 0.000000 0.000000 1.629930 
# 
# From -- ./inp_files/8944.got.cif
#   From: 2010.05.17/outbox.cif.g08.bks.cpg/sg24_5_cif.got.tgz:8944.got - 2010.06.04 00:33:39.
