data_PCOD9332911
_publ_section_title
;
Structure prediction by ZEFSAII (Michael W. Deem and Ramdas Pophale) SiO2 
 PCOD9332911
Probable space group: I 21 21 21
;
_chemical_formula_sum "Si O2"
_cell_formula_units_Z 48
_cell_length_a 7.766183
_cell_length_b 22.068027
_cell_length_c 15.668017
_cell_angle_alpha 90.000000
_cell_angle_beta 90.000000
_cell_angle_gamma 90.000000
_cell_volume 2685.252692
_symmetry_space_group_name_H-M "I 21 21 21"
_symmetry_group_IT_number 24
_symmetry_cell_setting 'orthorhombic'
loop_
_space_group_symop_operation_xyz
x,y,z
-x,1/2-y,z
x,-y,1/2-z
1/2-x,y,-z
1/2+x,1/2+y,1/2+z
1/2-x,-y,1/2+z
1/2+x,1/2-y,-z
-x,1/2+y,1/2-z
loop_
_atom_site_type_symbol
_atom_site_label
_atom_site_fract_x
_atom_site_fract_y
_atom_site_fract_z
Si Si1 0.538088 0.928819 0.745168
Si Si2 0.657104 0.291204 0.918748
Si Si3 0.589560 0.899754 0.552129
Si Si4 0.391191 0.563367 0.196384
Si Si5 0.095651 0.993435 0.559611
Si Si6 0.679127 0.384147 0.193177
O O1 0.617060 0.912965 0.651716
O O2 0.693246 0.915739 0.810598
O O3 0.354158 0.895896 0.747099
O O4 0.497831 0.000000 0.750000
O O5 0.500000 0.250000 0.884706
O O6 0.563090 0.351639 0.953195
O O7 0.792040 0.319478 0.852121
O O8 0.750000 0.262029 0.000000
O O9 0.750000 0.875568 0.500000
O O10 0.534741 0.960222 0.503912
O O11 0.381003 0.500000 0.250000
O O12 0.495443 0.543880 0.112793
O O13 0.509483 0.609024 0.250266
O O14 0.250000 0.015854 0.500000
O O15 0.164614 0.940186 0.624415
#
# Coordination Sequence:
#
# PCOD9332911 Si02
#       6
#     8   8   8   8   8   8
#     4  10  18  28  43  68  91 125 166 188 241 300
#     4  11  21  34  46  66  94 127 175 215 253 287
#     4  11  19  29  49  66  97 128 166 209 244 295
#     4   9  19  29  46  66  95 125 166 200 239 305
#     4  11  17  32  47  72  96 132 167 206 252 300
#     4  10  18  33  49  61  95 131 163 204 243 295
#
# _framework density 17.875412000000001
#
# number of rings (size 3 to 8) (size 9 to 14) (size 15 to 20)
#    0.000    1.667    5.000    5.000    0.000    0.000 
#    0.000    0.000    0.000    0.000    0.000    0.000 
#    0.000    0.000   11.333    0.000    0.000    3.333 
#
# Total GULP energy -133775.160941 kJ/mol
# GULP energy per Si atom -5573.965039 kJ/mol
# Density = 1.783473 g / cm^3
# Si number density = 17.875412 Si / 1000 Ang^3
#
#
#
# Elastic Constant Matrix: (Units=GPa)
#
#
# Indices 1 2 3 4 5 6 
#
# 1 67.7639 9.1293 8.5466 0.0000 0.0000 0.0000
# 2 9.1293 35.2514 5.1872 0.0000 0.0000 0.0000
# 3 8.5466 5.1872 21.4989 0.0000 0.0000 0.0000
# 4 0.0000 0.0000 0.0000 7.8639 0.0000 0.0000
# 5 0.0000 0.0000 0.0000 0.0000 31.7181 0.0000
# 6 0.0000 0.0000 0.0000 0.0000 0.0000 7.0497
#
#
#
# Elastic Compliance Matrix: (Units=1/GPa)
#
#
# Indices 1 2 3 4 5 6 
#
# 1 0.015899 -0.003305 -0.005523 0.000000 0.000000 0.000000
# 2 -0.003305 0.030099 -0.005948 0.000000 0.000000 0.000000
# 3 -0.005523 -0.005948 0.050145 0.000000 0.000000 0.000000
# 4 0.000000 0.000000 0.000000 0.127164 0.000000 0.000000
# 5 0.000000 0.000000 0.000000 0.000000 0.031528 0.000000
# 6 0.000000 0.000000 0.000000 0.000000 0.000000 0.141851
#
#
# Mechanical properties :
#
#
# Convention : Reuss Voigt Hill
#
# Bulk Modulus (GPa) = 15.01721 18.91559 16.96640
# Shear Modulus (GPa) = 11.14992 16.10308 13.62650
#
# Velocity S-wave (km/s) = 2.50022 3.00467 2.76398
# Velocity P-wave (km/s) = 4.09318 4.75839 4.43826
#
# Compressibility (1/GPa) = 0.06659028
#
# Stress axis : x y z
#
# Youngs Moduli (GPa) = 62.89728 33.22397 19.94220
#
# Poissons Ratio (x) = 0.10980 0.11014
# Poissons Ratio (y) = 0.20786 0.11862
# Poissons Ratio (z) = 0.34739 0.19763
#
# Static dielectric constant tensor:
#      x y z
#    x 1.728550 0.000000 0.000000 
#    y 0.000000 1.609410 0.000000 
#    z 0.000000 0.000000 1.664240 
# 
# From -- ./inp_files/14329.got.cif
#   From: 2010.05.17/outbox.cif.g08.bks.cpg/sg24_8_cif.got.tgz:14329.got - 2010.06.04 00:33:39.
