data_PCOD9332500
_publ_section_title
;
Structure prediction by ZEFSAII (Michael W. Deem and Ramdas Pophale) SiO2 
 PCOD9332500
Probable space group: I 2 2 2
;
_chemical_formula_sum "Si O2"
_cell_formula_units_Z 34
_cell_length_a 7.937044
_cell_length_b 8.270457
_cell_length_c 22.826527
_cell_angle_alpha 90.000000
_cell_angle_beta 90.000000
_cell_angle_gamma 90.000000
_cell_volume 1498.401281
_symmetry_space_group_name_H-M "I 2 2 2"
_symmetry_group_IT_number 23
_symmetry_cell_setting 'orthorhombic'
loop_
_space_group_symop_operation_xyz
x,y,z
-x,-y,z
x,-y,-z
-x,y,-z
1/2+x,1/2+y,1/2+z
1/2-x,1/2-y,1/2+z
1/2+x,1/2-y,1/2-z
1/2-x,1/2+y,1/2-z
loop_
_atom_site_type_symbol
_atom_site_label
_atom_site_fract_x
_atom_site_fract_y
_atom_site_fract_z
Si Si1 0.683521 0.058746 0.305035
Si Si2 0.692015 0.065945 0.060578
Si Si3 0.311416 0.446860 0.921608
Si Si4 0.500000 0.000000 0.500000
Si Si5 0.313603 0.440918 0.684759
O O1 0.703800 0.248967 0.313278
O O2 0.500000 0.000000 0.322274
O O3 0.801344 0.967758 0.351453
O O4 0.705872 0.015190 0.237253
O O5 0.705170 0.259198 0.061337
O O6 0.500000 0.000000 0.061836
O O7 0.772299 0.001550 0.120031
O O8 0.769104 0.000000 0.000000
O O9 0.500000 0.500000 0.938602
O O10 0.151627 0.541674 0.951375
O O11 0.500000 0.500000 0.698996
#
# Coordination Sequence:
#
# PCOD9332500 Si02
#       5
#     8   8   8   2   8
#     4  12  25  47  74 107 147 191 256 309 372 449
#     4  11  27  47  72 107 150 196 248 305 379 445
#     4  12  27  49  79 110 154 199 250 310 373 447
#     4  12  30  44  78 114 148 196 250 300 372 450
#     4  12  26  45  72 105 146 197 246 312 380 442
#
# _framework density 22.690850999999999
#
# number of rings (size 3 to 8) (size 9 to 14) (size 15 to 20)
#    0.000    0.235    1.176    7.412    9.882    0.471 
#    0.000    0.000    0.000    0.000    0.000    0.000 
#    0.000    0.000    0.000    0.000    0.000    0.000 
#
# Total GULP energy -94930.758581 kJ/mol
# GULP energy per Si atom -5584.162269 kJ/mol
# Density = 2.263921 g / cm^3
# Si number density = 22.690851 Si / 1000 Ang^3
#
#
#
# Elastic Constant Matrix: (Units=GPa)
#
#
# Indices 1 2 3 4 5 6 
#
# 1 118.2107 3.7706 29.8340 0.0000 0.0000 0.0000
# 2 3.7706 169.0360 63.2580 0.0000 0.0000 0.0000
# 3 29.8340 63.2580 178.9099 0.0000 0.0000 0.0000
# 4 0.0000 0.0000 0.0000 27.3533 0.0000 0.0000
# 5 0.0000 0.0000 0.0000 0.0000 18.2904 0.0000
# 6 0.0000 0.0000 0.0000 0.0000 0.0000 13.5738
#
#
#
# Elastic Compliance Matrix: (Units=1/GPa)
#
#
# Indices 1 2 3 4 5 6 
#
# 1 0.008856 0.000409 -0.001621 0.000000 0.000000 0.000000
# 2 0.000409 0.006837 -0.002486 0.000000 0.000000 0.000000
# 3 -0.001621 -0.002486 0.006739 0.000000 0.000000 0.000000
# 4 0.000000 0.000000 0.000000 0.036559 0.000000 0.000000
# 5 0.000000 0.000000 0.000000 0.000000 0.054674 0.000000
# 6 0.000000 0.000000 0.000000 0.000000 0.000000 0.073671
#
#
# Mechanical properties :
#
#
# Convention : Reuss Voigt Hill
#
# Bulk Modulus (GPa) = 66.50864 73.32021 69.91442
# Shear Modulus (GPa) = 25.03228 36.46309 30.74769
#
# Velocity S-wave (km/s) = 3.32503 4.01303 3.68512
# Velocity P-wave (km/s) = 6.64195 7.33862 6.99896
#
# Compressibility (1/GPa) = 0.01503564
#
# Stress axis : x y z
#
# Youngs Moduli (GPa) = 112.92257 146.26383 148.39803
#
# Poissons Ratio (x) = -0.05986 0.24061
# Poissons Ratio (y) = -0.04621 0.36886
# Poissons Ratio (z) = 0.18309 0.36356
#
# Static dielectric constant tensor:
#      x y z
#    x 2.093770 0.000000 0.000000 
#    y 0.000000 1.811800 0.000000 
#    z 0.000000 0.000000 1.866970 
# 
# From -- ./inp_files/11681.got.cif
#   From: 2010.05.17/outbox.cif.g08.bks.cpg/sg23_6_cif.got.tgz:11681.got - 2010.06.04 12:02:01.
