data_PCOD9332783
_publ_section_title
;
Structure prediction by ZEFSAII (Michael W. Deem and Ramdas Pophale) SiO2 
 PCOD9332783
Probable space group: I 21 21 21
;
_chemical_formula_sum "Si O2"
_cell_formula_units_Z 40
_cell_length_a 21.493881
_cell_length_b 5.181988
_cell_length_c 21.647311
_cell_angle_alpha 90.000000
_cell_angle_beta 90.000000
_cell_angle_gamma 90.000000
_cell_volume 2411.099870
_symmetry_space_group_name_H-M "I 21 21 21"
_symmetry_group_IT_number 24
_symmetry_cell_setting 'orthorhombic'
loop_
_space_group_symop_operation_xyz
x,y,z
-x,1/2-y,z
x,-y,1/2-z
1/2-x,y,-z
1/2+x,1/2+y,1/2+z
1/2-x,-y,1/2+z
1/2+x,1/2-y,-z
-x,1/2+y,1/2-z
loop_
_atom_site_type_symbol
_atom_site_label
_atom_site_fract_x
_atom_site_fract_y
_atom_site_fract_z
Si Si1 0.500000 0.250000 0.207704
Si Si2 0.376154 0.000807 0.996499
Si Si3 0.797205 0.225744 0.590710
Si Si4 0.273267 0.221129 0.928668
Si Si5 0.910217 0.897603 0.604976
Si Si6 0.500000 0.750000 0.025143
O O1 0.500075 0.500000 0.250000
O O2 0.440105 0.257218 0.162996
O O3 0.383026 0.199036 0.054299
O O4 0.328721 0.780791 0.022718
O O5 0.444338 0.882717 0.987435
O O6 0.344759 0.140006 0.938411
O O7 0.764492 0.495809 0.606691
O O8 0.745615 0.002784 0.593420
O O9 0.857369 0.104073 0.624220
O O10 0.250000 0.215982 0.000000
O O11 0.965319 0.047870 0.569654
#
# Coordination Sequence:
#
# PCOD9332783 Si02
#       6
#     4   8   8   8   8   4
#     4  12  27  38  50  64  84 114 170 222 248 279
#     4  10  19  27  48  61  93 111 150 182 231 293
#     4  10  19  28  46  63  87 106 138 178 242 283
#     4  10  17  27  41  70  85 107 132 182 227 264
#     4  11  20  35  47  62  83 119 151 196 256 282
#     4  10  19  30  46  66  82 128 152 184 226 293
#
# _framework density 16.589938
#
# number of rings (size 3 to 8) (size 9 to 14) (size 15 to 20)
#    0.000    1.600    6.000    2.400    5.600    0.000 
#    0.000    0.000    0.000    0.000    0.000    0.000 
#    0.000    0.000    0.000    0.000    0.000    0.000 
#
# Total GULP energy -111383.350070 kJ/mol
# GULP energy per Si atom -5569.167504 kJ/mol
# Density = 1.655218 g / cm^3
# Si number density = 16.589938 Si / 1000 Ang^3
#
#
#
# Elastic Constant Matrix: (Units=GPa)
#
#
# Indices 1 2 3 4 5 6 
#
# 1 99.8036 40.4485 18.5546 0.0000 0.0000 0.0000
# 2 40.4485 108.3940 13.3546 0.0000 0.0000 0.0000
# 3 18.5546 13.3546 15.7030 0.0000 0.0000 0.0000
# 4 0.0000 0.0000 0.0000 12.9480 0.0000 0.0000
# 5 0.0000 0.0000 0.0000 0.0000 8.7235 0.0000
# 6 0.0000 0.0000 0.0000 0.0000 0.0000 37.0782
#
#
#
# Elastic Compliance Matrix: (Units=1/GPa)
#
#
# Indices 1 2 3 4 5 6 
#
# 1 0.013965 -0.003550 -0.013482 0.000000 0.000000 0.000000
# 2 -0.003550 0.011208 -0.005337 0.000000 0.000000 0.000000
# 3 -0.013482 -0.005337 0.084150 0.000000 0.000000 0.000000
# 4 0.000000 0.000000 0.000000 0.077232 0.000000 0.000000
# 5 0.000000 0.000000 0.000000 0.000000 0.114633 0.000000
# 6 0.000000 0.000000 0.000000 0.000000 0.000000 0.026970
#
#
# Mechanical properties :
#
#
# Convention : Reuss Voigt Hill
#
# Bulk Modulus (GPa) = 15.48324 40.95733 28.22029
# Shear Modulus (GPa) = 12.67672 21.85280 17.26476
#
# Velocity S-wave (km/s) = 2.76727 3.63331 3.22945
# Velocity P-wave (km/s) = 4.42307 6.50714 5.56356
#
# Compressibility (1/GPa) = 0.06458597
#
# Stress axis : x y z
#
# Youngs Moduli (GPa) = 71.60831 89.22260 11.88350
#
# Poissons Ratio (x) = 0.31676 0.16021
# Poissons Ratio (y) = 0.25422 0.06342
# Poissons Ratio (z) = 0.96539 0.47617
#
# Static dielectric constant tensor:
#      x y z
#    x 1.659860 0.000000 0.000000 
#    y 0.000000 1.656320 0.000000 
#    z 0.000000 0.000000 1.524180 
# 
# From -- ./inp_files/34040.got.cif
#   From: 2010.05.17/outbox.cif.g08.bks.cpg/sg24_18_cif.got.tgz:34040.got - 2010.06.04 00:33:39.
