data_PCOD9332296
_publ_section_title
;
Structure prediction by ZEFSAII (Michael W. Deem and Ramdas Pophale) SiO2 
 PCOD9332296
Probable space group: I 2 2 2
;
_chemical_formula_sum "Si O2"
_cell_formula_units_Z 36
_cell_length_a 13.845346
_cell_length_b 5.320097
_cell_length_c 22.922999
_cell_angle_alpha 90.000000
_cell_angle_beta 90.000000
_cell_angle_gamma 90.000000
_cell_volume 1688.475641
_symmetry_space_group_name_H-M "I 2 2 2"
_symmetry_group_IT_number 23
_symmetry_cell_setting 'orthorhombic'
loop_
_space_group_symop_operation_xyz
x,y,z
-x,-y,z
x,-y,-z
-x,y,-z
1/2+x,1/2+y,1/2+z
1/2-x,1/2-y,1/2+z
1/2+x,1/2-y,1/2-z
1/2-x,1/2+y,1/2-z
loop_
_atom_site_type_symbol
_atom_site_label
_atom_site_fract_x
_atom_site_fract_y
_atom_site_fract_z
Si Si1 0.651718 0.667740 0.717641
Si Si2 0.229103 0.549089 0.933358
Si Si3 0.646478 0.647848 0.173469
Si Si4 0.500000 0.000000 0.234766
Si Si5 0.890376 0.950429 0.900102
O O1 0.647854 0.589345 0.784420
O O2 0.760608 0.701868 0.697556
O O3 0.582987 0.906751 0.720794
O O4 0.610015 0.476178 0.670334
O O5 0.322831 0.570546 0.891383
O O6 0.159377 0.314661 0.915789
O O7 0.172160 0.813110 0.924469
O O8 0.255832 0.500000 0.000000
O O9 0.551477 0.800260 0.191432
O O10 0.000000 0.000000 0.920491
#
# Coordination Sequence:
#
# PCOD9332296 Si02
#       5
#     8   8   8   4   8
#     4  11  23  40  67 104 140 175 222 284 359 421
#     4  11  26  44  67  97 137 191 236 287 338 398
#     4  11  23  41  69  98 144 179 232 280 354 410
#     4  12  24  40  70 107 137 186 222 286 354 434
#     4  11  24  40  69 102 139 180 228 285 351 424
#
# _framework density 21.321007999999999
#
# number of rings (size 3 to 8) (size 9 to 14) (size 15 to 20)
#    0.000    0.889    2.222    4.667   12.444    2.667 
#    0.000    0.000    0.000    4.000    0.000    0.000 
#    0.000    0.000    0.000    0.000    0.000    0.000 
#
# Total GULP energy -100467.743889 kJ/mol
# GULP energy per Si atom -5581.541327 kJ/mol
# Density = 2.127248 g / cm^3
# Si number density = 21.321008 Si / 1000 Ang^3
#
#
#
# Elastic Constant Matrix: (Units=GPa)
#
#
# Indices 1 2 3 4 5 6 
#
# 1 64.0591 13.2395 41.0883 0.0000 0.0000 0.0000
# 2 13.2395 88.7199 20.4250 0.0000 0.0000 0.0000
# 3 41.0883 20.4250 140.5964 0.0000 0.0000 0.0000
# 4 0.0000 0.0000 0.0000 27.7460 0.0000 0.0000
# 5 0.0000 0.0000 0.0000 0.0000 6.6467 0.0000
# 6 0.0000 0.0000 0.0000 0.0000 0.0000 27.1461
#
#
#
# Elastic Compliance Matrix: (Units=1/GPa)
#
#
# Indices 1 2 3 4 5 6 
#
# 1 0.019442 -0.001648 -0.005442 0.000000 0.000000 0.000000
# 2 -0.001648 0.011801 -0.001233 0.000000 0.000000 0.000000
# 3 -0.005442 -0.001233 0.008882 0.000000 0.000000 0.000000
# 4 0.000000 0.000000 0.000000 0.036041 0.000000 0.000000
# 5 0.000000 0.000000 0.000000 0.000000 0.150450 0.000000
# 6 0.000000 0.000000 0.000000 0.000000 0.000000 0.036838
#
#
# Mechanical properties :
#
#
# Convention : Reuss Voigt Hill
#
# Bulk Modulus (GPa) = 42.59201 49.20900 45.90051
# Shear Modulus (GPa) = 17.36549 26.88261 22.12405
#
# Velocity S-wave (km/s) = 2.85700 3.55470 3.22477
# Velocity P-wave (km/s) = 5.55906 6.32282 5.95320
#
# Compressibility (1/GPa) = 0.02347858
#
# Stress axis : x y z
#
# Youngs Moduli (GPa) = 51.43490 84.73717 112.58580
#
# Poissons Ratio (x) = 0.13968 0.61273
# Poissons Ratio (y) = 0.08478 0.13878
# Poissons Ratio (z) = 0.27993 0.10445
#
# Static dielectric constant tensor:
#      x y z
#    x 1.881310 0.000000 0.000000 
#    y 0.000000 2.063970 0.000000 
#    z 0.000000 0.000000 1.785470 
# 
# From -- ./inp_files/4359.got.cif
#   From: 2010.05.17/outbox.cif.g08.bks.cpg/sg23_3_cif.got.tgz:4359.got - 2010.06.04 12:02:01.
