data_PCOD9332068
_publ_section_title
;
Structure prediction by ZEFSAII (Michael W. Deem and Ramdas Pophale) SiO2 
 PCOD9332068
Probable space group: I 2 2 2
;
_chemical_formula_sum "Si O2"
_cell_formula_units_Z 34
_cell_length_a 6.456989
_cell_length_b 21.836245
_cell_length_c 9.564735
_cell_angle_alpha 90.000000
_cell_angle_beta 90.000000
_cell_angle_gamma 90.000000
_cell_volume 1348.593142
_symmetry_space_group_name_H-M "I 2 2 2"
_symmetry_group_IT_number 23
_symmetry_cell_setting 'orthorhombic'
loop_
_space_group_symop_operation_xyz
x,y,z
-x,-y,z
x,-y,-z
-x,y,-z
1/2+x,1/2+y,1/2+z
1/2-x,1/2-y,1/2+z
1/2+x,1/2-y,1/2-z
1/2-x,1/2+y,1/2-z
loop_
_atom_site_type_symbol
_atom_site_label
_atom_site_fract_x
_atom_site_fract_y
_atom_site_fract_z
Si Si1 0.831925 0.720112 0.110146
Si Si2 0.008118 0.888952 0.344642
Si Si3 0.861453 0.555650 0.281518
Si Si4 0.623926 0.169425 0.817660
Si Si5 0.500000 0.000000 0.500000
O O1 0.974946 0.720441 0.247390
O O2 0.657739 0.669239 0.129529
O O3 0.749124 0.787854 0.075700
O O4 0.000000 0.698472 0.000000
O O5 0.115589 0.932109 0.226526
O O6 0.000000 0.918355 0.500000
O O7 0.792358 0.863460 0.283973
O O8 0.966296 0.615118 0.347098
O O9 0.000000 0.500000 0.339468
O O10 0.897072 0.545494 0.113484
#
# Coordination Sequence:
#
# PCOD9332068 Si02
#       5
#     8   8   8   8   2
#     4  11  22  35  55  86 120 148 196 232 280 354
#     4  11  20  33  57  81 117 157 179 229 291 335
#     4   9  21  35  51  80 117 149 189 234 273 354
#     4  11  21  36  54  82 119 153 185 236 288 341
#     4   8  16  36  50  80 116 136 184 236 268 356
#
# _framework density 25.211459999999999
#
# number of rings (size 3 to 8) (size 9 to 14) (size 15 to 20)
#    0.706    0.941    4.706    1.412    3.294    0.941 
#    0.000    0.000    0.000    0.000    0.000    4.941 
#    0.000    0.000    0.000    0.000    0.000    0.000 
#
# Total GULP energy -94651.778834 kJ/mol
# GULP energy per Si atom -5567.751696 kJ/mol
# Density = 2.515408 g / cm^3
# Si number density = 25.211460 Si / 1000 Ang^3
#
#
#
# Elastic Constant Matrix: (Units=GPa)
#
#
# Indices 1 2 3 4 5 6 
#
# 1 101.2813 29.1040 20.6163 0.0000 0.0000 0.0000
# 2 29.1040 127.3538 1.3222 0.0000 0.0000 0.0000
# 3 20.6163 1.3222 51.8901 0.0000 0.0000 0.0000
# 4 0.0000 0.0000 0.0000 18.2171 0.0000 0.0000
# 5 0.0000 0.0000 0.0000 0.0000 4.7722 0.0000
# 6 0.0000 0.0000 0.0000 0.0000 0.0000 16.4107
#
#
#
# Elastic Compliance Matrix: (Units=1/GPa)
#
#
# Indices 1 2 3 4 5 6 
#
# 1 0.011537 -0.002590 -0.004518 0.000000 0.000000 0.000000
# 2 -0.002590 0.008436 0.000814 0.000000 0.000000 0.000000
# 3 -0.004518 0.000814 0.021046 0.000000 0.000000 0.000000
# 4 0.000000 0.000000 0.000000 0.054894 0.000000 0.000000
# 5 0.000000 0.000000 0.000000 0.000000 0.209549 0.000000
# 6 0.000000 0.000000 0.000000 0.000000 0.000000 0.060936
#
#
# Mechanical properties :
#
#
# Convention : Reuss Voigt Hill
#
# Bulk Modulus (GPa) = 35.17246 42.51226 38.84236
# Shear Modulus (GPa) = 12.87131 23.17883 18.02507
#
# Velocity S-wave (km/s) = 2.26195 3.03541 2.67677
# Velocity P-wave (km/s) = 4.56105 5.40221 4.99935
#
# Compressibility (1/GPa) = 0.02843134
#
# Stress axis : x y z
#
# Youngs Moduli (GPa) = 86.67545 118.54645 47.51554
#
# Poissons Ratio (x) = 0.30700 0.21467
# Poissons Ratio (y) = 0.22446 -0.03868
# Poissons Ratio (z) = 0.39159 -0.09649
#
# Static dielectric constant tensor:
#      x y z
#    x 2.092380 0.000000 0.000000 
#    y 0.000000 2.002560 0.000000 
#    z 0.000000 0.000000 2.184240 
# 
# From -- ./inp_files/1560.got.cif
#   From: 2010.05.17/outbox.cif.g08.bks.cpg/sg23_1_cif.got.tgz:1560.got - 2010.06.04 12:02:01.
