data_PCOD9332568
_publ_section_title
;
Structure prediction by ZEFSAII (Michael W. Deem and Ramdas Pophale) SiO2 
 PCOD9332568
Probable space group: I 2 2 2
;
_chemical_formula_sum "Si O2"
_cell_formula_units_Z 18
_cell_length_a 21.857095
_cell_length_b 6.628485
_cell_length_c 4.983011
_cell_angle_alpha 90.000000
_cell_angle_beta 90.000000
_cell_angle_gamma 90.000000
_cell_volume 721.935775
_symmetry_space_group_name_H-M "I 2 2 2"
_symmetry_group_IT_number 23
_symmetry_cell_setting 'orthorhombic'
loop_
_space_group_symop_operation_xyz
x,y,z
-x,-y,z
x,-y,-z
-x,y,-z
1/2+x,1/2+y,1/2+z
1/2-x,1/2-y,1/2+z
1/2+x,1/2-y,1/2-z
1/2-x,1/2+y,1/2-z
loop_
_atom_site_type_symbol
_atom_site_label
_atom_site_fract_x
_atom_site_fract_y
_atom_site_fract_z
Si Si1 0.922660 0.643597 0.250993
Si Si2 0.000000 0.000000 0.500000
Si Si3 0.290123 0.713991 0.118104
O O1 0.934541 0.500000 0.500000
O O2 0.850168 0.688672 0.256107
O O3 0.936090 0.500000 0.000000
O O4 0.959296 0.851004 0.311108
O O5 0.241112 0.686862 0.356335
O O6 0.310114 0.500000 0.000000
#
# Coordination Sequence:
#
# PCOD9332568 Si02
#       3
#     8   2   8
#     4  12  28  52  83 123 164 220 284 343 415 496
#     4  12  30  58  84 124 172 226 286 340 412 504
#     4  12  24  45  77 119 167 214 273 344 417 499
#
# _framework density 24.932964999999999
#
# number of rings (size 3 to 8) (size 9 to 14) (size 15 to 20)
#    0.000    0.000    2.222    8.667    0.000    7.111 
#    0.000    0.000    0.000    0.000    0.000    0.000 
#    0.000    0.000    0.000    0.000    0.000    0.000 
#
# Total GULP energy -50432.282272 kJ/mol
# GULP energy per Si atom -5603.586919 kJ/mol
# Density = 2.487622 g / cm^3
# Si number density = 24.932965 Si / 1000 Ang^3
#
#
#
# Elastic Constant Matrix: (Units=GPa)
#
#
# Indices 1 2 3 4 5 6 
#
# 1 192.1037 75.7761 61.4862 0.0000 0.0000 0.0000
# 2 75.7761 172.1667 85.5396 0.0000 0.0000 0.0000
# 3 61.4862 85.5396 216.5718 0.0000 0.0000 0.0000
# 4 0.0000 0.0000 0.0000 50.5197 0.0000 0.0000
# 5 0.0000 0.0000 0.0000 0.0000 29.3542 0.0000
# 6 0.0000 0.0000 0.0000 0.0000 0.0000 61.8213
#
#
#
# Elastic Compliance Matrix: (Units=1/GPa)
#
#
# Indices 1 2 3 4 5 6 
#
# 1 0.006431 -0.002393 -0.000881 0.000000 0.000000 0.000000
# 2 -0.002393 0.008117 -0.002527 0.000000 0.000000 0.000000
# 3 -0.000881 -0.002527 0.005865 0.000000 0.000000 0.000000
# 4 0.000000 0.000000 0.000000 0.019794 0.000000 0.000000
# 5 0.000000 0.000000 0.000000 0.000000 0.034067 0.000000
# 6 0.000000 0.000000 0.000000 0.000000 0.000000 0.016176
#
#
# Mechanical properties :
#
#
# Convention : Reuss Voigt Hill
#
# Bulk Modulus (GPa) = 113.46909 114.04956 113.75933
# Shear Modulus (GPa) = 47.62427 52.20841 49.91634
#
# Velocity S-wave (km/s) = 4.37520 4.58094 4.47925
# Velocity P-wave (km/s) = 8.43396 8.59196 8.51332
#
# Compressibility (1/GPa) = 0.00881297
#
# Stress axis : x y z
#
# Youngs Moduli (GPa) = 155.48788 123.20020 170.49289
#
# Poissons Ratio (x) = 0.29483 0.15016
# Poissons Ratio (y) = 0.37209 0.43075
# Poissons Ratio (z) = 0.13694 0.31127
#
# Static dielectric constant tensor:
#      x y z
#    x 2.021920 0.000000 0.000000 
#    y 0.000000 2.029110 0.000000 
#    z 0.000000 0.000000 1.837640 
# 
# From -- ./inp_files/4138.got.cif
#   From: 2010.05.17/outbox.cif.g08.bks.cpg/sg23_3_cif.got.tgz:4138.got - 2010.06.04 12:02:01.
