data_PCOD9332485
_publ_section_title
;
Structure prediction by ZEFSAII (Michael W. Deem and Ramdas Pophale) SiO2 
 PCOD9332485
Probable space group: I 2 2 2
;
_chemical_formula_sum "Si O2"
_cell_formula_units_Z 30
_cell_length_a 20.609408
_cell_length_b 4.996473
_cell_length_c 10.963733
_cell_angle_alpha 90.000000
_cell_angle_beta 90.000000
_cell_angle_gamma 90.000000
_cell_volume 1128.983286
_symmetry_space_group_name_H-M "I 2 2 2"
_symmetry_group_IT_number 23
_symmetry_cell_setting 'orthorhombic'
loop_
_space_group_symop_operation_xyz
x,y,z
-x,-y,z
x,-y,-z
-x,y,-z
1/2+x,1/2+y,1/2+z
1/2-x,1/2-y,1/2+z
1/2+x,1/2-y,1/2-z
1/2-x,1/2+y,1/2-z
loop_
_atom_site_type_symbol
_atom_site_label
_atom_site_fract_x
_atom_site_fract_y
_atom_site_fract_z
Si Si1 0.655123 0.000000 0.500000
Si Si2 0.887268 0.181097 0.614602
Si Si3 0.246640 0.349538 0.332610
Si Si4 0.574390 0.397427 0.368326
Si Si5 0.500000 0.000000 0.000000
O O1 0.704842 0.207645 0.570093
O O2 0.603991 0.098212 0.392852
O O3 0.826457 0.373335 0.621070
O O4 0.895557 0.019223 0.740146
O O5 0.954419 0.327669 0.587330
O O6 0.874396 0.000000 0.500000
O O7 0.261410 0.641096 0.280147
O O8 0.500000 0.500000 0.361865
O O9 0.596205 0.500000 0.500000
#
# Coordination Sequence:
#
# PCOD9332485 Si02
#       5
#     4   8   8   8   2
#     4  12  26  47  80 119 166 220 276 348 416 501
#     4  12  27  51  80 118 165 220 276 345 418 498
#     4  12  28  51  84 121 169 220 283 346 422 496
#     4  11  26  49  78 112 166 211 278 331 422 490
#     4  12  30  48  84 120 172 212 280 346 426 492
#
# _framework density 26.572578
#
# number of rings (size 3 to 8) (size 9 to 14) (size 15 to 20)
#    0.000    0.267    4.000    3.600    3.733    8.533 
#    0.000    0.000    0.000    0.000    0.000    0.000 
#    0.000    0.000    0.000    0.000    0.000    0.000 
#
# Total GULP energy -83797.096312 kJ/mol
# GULP energy per Si atom -5586.473087 kJ/mol
# Density = 2.651210 g / cm^3
# Si number density = 26.572578 Si / 1000 Ang^3
#
#
#
# Elastic Constant Matrix: (Units=GPa)
#
#
# Indices 1 2 3 4 5 6 
#
# 1 177.4875 9.4597 22.4531 0.0000 0.0000 0.0000
# 2 9.4597 56.7560 22.0123 0.0000 0.0000 0.0000
# 3 22.4531 22.0123 186.7723 0.0000 0.0000 0.0000
# 4 0.0000 0.0000 0.0000 73.5996 0.0000 0.0000
# 5 0.0000 0.0000 0.0000 0.0000 142.1014 0.0000
# 6 0.0000 0.0000 0.0000 0.0000 0.0000-2346.4136
#
#
#
# Elastic Compliance Matrix: (Units=1/GPa)
#
#
# Indices 1 2 3 4 5 6 
#
# 1 0.005749 -0.000723 -0.000606 0.000000 0.000000 0.000000
# 2 -0.000723 0.018554 -0.002100 0.000000 0.000000 0.000000
# 3 -0.000606 -0.002100 0.005674 0.000000 0.000000 0.000000
# 4 0.000000 0.000000 0.000000 0.013587 0.000000 0.000000
# 5 0.000000 0.000000 0.000000 0.000000 0.007037 0.000000
# 6 0.000000 0.000000 0.000000 0.000000 0.000000 -0.000426
#
#
# Mechanical properties :
#
#
# Convention : Reuss Voigt Hill
#
# Bulk Modulus (GPa) = 43.25245 58.76290 51.00767
# Shear Modulus (GPa) = 77.23109 -401.66979 -162.21935
#
# Velocity S-wave (km/s) = 5.39697 -12.30803 -7.82178
# Velocity P-wave (km/s) = 7.42623 13.40975 7.89533
#
# Compressibility (1/GPa) = 0.02312008
#
# Stress axis : x y z
#
# Youngs Moduli (GPa) = 173.93117 53.89612 176.22919
#
# Poissons Ratio (x) = 0.03898 0.10678
# Poissons Ratio (y) = 0.12580 0.37004
# Poissons Ratio (z) = 0.10539 0.11317
#
# Static dielectric constant tensor:
#      x y z
#    x 1.945530 0.000000 0.000000 
#    y 0.000000 2.514950 0.000000 
#    z 0.000000 0.000000 2.417200 
# 
# From -- ./inp_files/1401.got.cif
#   From: 2010.05.17/outbox.cif.g08.bks.cpg/sg23_1_cif.got.tgz:1401.got - 2010.06.04 12:02:01.
