data_PCOD9332374
_publ_section_title
;
Structure prediction by ZEFSAII (Michael W. Deem and Ramdas Pophale) SiO2 
 PCOD9332374
Probable space group: I 2 2 2
;
_chemical_formula_sum "Si O2"
_cell_formula_units_Z 36
_cell_length_a 5.917173
_cell_length_b 12.437175
_cell_length_c 21.485310
_cell_angle_alpha 90.000000
_cell_angle_beta 90.000000
_cell_angle_gamma 90.000000
_cell_volume 1581.166616
_symmetry_space_group_name_H-M "I 2 2 2"
_symmetry_group_IT_number 23
_symmetry_cell_setting 'orthorhombic'
loop_
_space_group_symop_operation_xyz
x,y,z
-x,-y,z
x,-y,-z
-x,y,-z
1/2+x,1/2+y,1/2+z
1/2-x,1/2-y,1/2+z
1/2+x,1/2-y,1/2-z
1/2-x,1/2+y,1/2-z
loop_
_atom_site_type_symbol
_atom_site_label
_atom_site_fract_x
_atom_site_fract_y
_atom_site_fract_z
Si Si1 0.000000 0.000000 0.500000
Si Si2 0.997144 0.344653 0.603476
Si Si3 0.625880 0.197407 0.670773
Si Si4 0.170414 0.332235 0.056948
Si Si5 0.000000 0.500000 0.500000
Si Si6 0.332022 0.399438 0.712143
O O1 0.842782 0.073878 0.458203
O O2 0.184661 0.274897 0.567428
O O3 0.141401 0.401145 0.658436
O O4 0.822923 0.263244 0.635462
O O5 0.883275 0.421651 0.551316
O O6 0.470762 0.144911 0.618592
O O7 0.475590 0.289523 0.703929
O O8 0.717608 0.113649 0.720781
O O9 0.000000 0.319806 0.000000
O O10 0.500000 0.500000 0.707248
#
# Coordination Sequence:
#
# PCOD9332374 Si02
#       6
#     2   8   8   8   2   8
#     4  12  24  48  68 104 140 180 244 306 376 468
#     4  11  24  45  71 108 145 192 244 312 373 447
#     4  11  23  48  72 104 151 190 247 316 368 449
#     4  11  25  46  71  98 144 190 243 307 374 447
#     4  12  22  40  78 102 140 186 240 300 366 450
#     4  11  24  45  73 107 147 197 250 306 379 447
#
# _framework density 22.767999
#
# number of rings (size 3 to 8) (size 9 to 14) (size 15 to 20)
#    0.000    0.889    2.222    5.000    0.000    1.778 
#   12.000    6.667    0.000    0.000    0.000    0.000 
#    0.000    0.000    0.000    0.000    0.000    0.000 
#
# Total GULP energy -100772.677248 kJ/mol
# GULP energy per Si atom -5598.482069 kJ/mol
# Density = 2.271618 g / cm^3
# Si number density = 22.767999 Si / 1000 Ang^3
#
#
#
# Elastic Constant Matrix: (Units=GPa)
#
#
# Indices 1 2 3 4 5 6 
#
# 1 123.3661 53.4303 75.6273 0.0000 0.0000 0.0000
# 2 53.4303 90.7353 72.9768 0.0000 0.0000 0.0000
# 3 75.6273 72.9768 172.4290 0.0000 0.0000 0.0000
# 4 0.0000 0.0000 0.0000 12.4976 0.0000 0.0000
# 5 0.0000 0.0000 0.0000 0.0000 -18.6035 0.0000
# 6 0.0000 0.0000 0.0000 0.0000 0.0000 14.4949
#
#
#
# Elastic Compliance Matrix: (Units=1/GPa)
#
#
# Indices 1 2 3 4 5 6 
#
# 1 0.012117 -0.004337 -0.003479 0.000000 0.000000 0.000000
# 2 -0.004337 0.018261 -0.005826 0.000000 0.000000 0.000000
# 3 -0.003479 -0.005826 0.009791 0.000000 0.000000 0.000000
# 4 0.000000 0.000000 0.000000 0.080016 0.000000 0.000000
# 5 0.000000 0.000000 0.000000 0.000000 -0.053753 0.000000
# 6 0.000000 0.000000 0.000000 0.000000 0.000000 0.068990
#
#
# Mechanical properties :
#
#
# Convention : Reuss Voigt Hill
#
# Bulk Modulus (GPa) = 77.61276 87.84435 82.72856
# Shear Modulus (GPa) = 29.93990 13.97753 21.95872
#
# Velocity S-wave (km/s) = 3.63023 2.48041 3.10894
# Velocity P-wave (km/s) = 7.19263 6.84612 7.02151
#
# Compressibility (1/GPa) = 0.01288448
#
# Stress axis : x y z
#
# Youngs Moduli (GPa) = 82.52791 54.76133 102.13269
#
# Poissons Ratio (x) = 0.23751 0.35531
# Poissons Ratio (y) = 0.35794 0.59505
# Poissons Ratio (z) = 0.28711 0.31905
#
# Static dielectric constant tensor:
#      x y z
#    x 1.816600 0.000000 0.000000 
#    y 0.000000 1.856120 0.000000 
#    z 0.000000 0.000000 1.839810 
# 
# From -- ./inp_files/25614.got.cif
#   From: 2010.05.17/outbox.cif.g08.bks.cpg/sg23_13_cif.got.tgz:25614.got - 2010.06.04 12:02:01.
