data_PCOD9332056
_publ_section_title
;
Structure prediction by ZEFSAII (Michael W. Deem and Ramdas Pophale) SiO2 
 PCOD9332056
Probable space group: I 2 2 2
;
_chemical_formula_sum "Si O2"
_cell_formula_units_Z 40
_cell_length_a 5.550993
_cell_length_b 18.314219
_cell_length_c 17.592855
_cell_angle_alpha 90.000000
_cell_angle_beta 90.000000
_cell_angle_gamma 90.000000
_cell_volume 1788.526610
_symmetry_space_group_name_H-M "I 2 2 2"
_symmetry_group_IT_number 23
_symmetry_cell_setting 'orthorhombic'
loop_
_space_group_symop_operation_xyz
x,y,z
-x,-y,z
x,-y,-z
-x,y,-z
1/2+x,1/2+y,1/2+z
1/2-x,1/2-y,1/2+z
1/2+x,1/2-y,1/2-z
1/2-x,1/2+y,1/2-z
loop_
_atom_site_type_symbol
_atom_site_label
_atom_site_fract_x
_atom_site_fract_y
_atom_site_fract_z
Si Si1 0.441661 0.117916 0.921745
Si Si2 0.328908 0.230974 0.429204
Si Si3 0.747545 0.955666 0.768211
Si Si4 0.504256 0.340927 0.176332
Si Si5 0.289128 0.696951 0.324813
O O1 0.311587 0.193789 0.945481
O O2 0.297084 0.082117 0.851240
O O3 0.698098 0.140027 0.886469
O O4 0.500000 0.077604 0.000000
O O5 0.500000 0.211997 0.500000
O O6 0.150540 0.165978 0.402205
O O7 0.490475 0.256711 0.357931
O O8 0.796388 0.897833 0.698981
O O9 0.500000 0.000000 0.753892
O O10 0.000000 0.000000 0.771627
O O11 0.678893 0.347253 0.248132
O O12 0.411507 0.258240 0.185649
#
# Coordination Sequence:
#
# PCOD9332056 Si02
#       5
#     8   8   8   8   8
#     4  11  23  40  63  99 146 185 228 296 361 438
#     4  11  22  37  67 106 142 178 222 296 397 441
#     4  12  28  46  66  96 140 205 266 289 333 419
#     4  11  22  38  65  97 138 184 238 303 354 433
#     4  11  19  36  66  99 135 174 220 288 379 435
#
# _framework density 22.364778000000001
#
# number of rings (size 3 to 8) (size 9 to 14) (size 15 to 20)
#    0.000    0.800    6.000    2.400    2.800    0.400 
#    0.000    3.000    0.000    0.000    0.000    4.200 
#    0.000    0.000    0.000    0.000    0.000    0.000 
#
# Total GULP energy -111525.422298 kJ/mol
# GULP energy per Si atom -5576.271115 kJ/mol
# Density = 2.231387 g / cm^3
# Si number density = 22.364778 Si / 1000 Ang^3
#
#
#
# Elastic Constant Matrix: (Units=GPa)
#
#
# Indices 1 2 3 4 5 6 
#
# 1 106.5720 47.3473 49.7737 0.0000 0.0000 0.0000
# 2 47.3473 88.8743 53.0245 0.0000 0.0000 0.0000
# 3 49.7737 53.0245 114.3735 0.0000 0.0000 0.0000
# 4 0.0000 0.0000 0.0000 0.9623 0.0000 0.0000
# 5 0.0000 0.0000 0.0000 0.0000 50.6834 0.0000
# 6 0.0000 0.0000 0.0000 0.0000 0.0000 39.4819
#
#
#
# Elastic Compliance Matrix: (Units=1/GPa)
#
#
# Indices 1 2 3 4 5 6 
#
# 1 0.013202 -0.004984 -0.003435 0.000000 0.000000 0.000000
# 2 -0.004984 0.017436 -0.005914 0.000000 0.000000 0.000000
# 3 -0.003435 -0.005914 0.012980 0.000000 0.000000 0.000000
# 4 0.000000 0.000000 0.000000 1.039131 0.000000 0.000000
# 5 0.000000 0.000000 0.000000 0.000000 0.019730 0.000000
# 6 0.000000 0.000000 0.000000 0.000000 0.000000 0.025328
#
#
# Mechanical properties :
#
#
# Convention : Reuss Voigt Hill
#
# Bulk Modulus (GPa) = 66.88319 67.79009 67.33664
# Shear Modulus (GPa) = 4.30494 28.87049 16.58772
#
# Velocity S-wave (km/s) = 1.38890 3.59679 2.72635
# Velocity P-wave (km/s) = 5.70461 6.90117 6.33122
#
# Compressibility (1/GPa) = 0.01495144
#
# Stress axis : x y z
#
# Youngs Moduli (GPa) = 75.74800 57.35361 77.04211
#
# Poissons Ratio (x) = 0.28585 0.26461
# Poissons Ratio (y) = 0.37753 0.45566
# Poissons Ratio (z) = 0.26016 0.33921
#
# Static dielectric constant tensor:
#      x y z
#    x 1.932680 0.000000 0.000000 
#    y 0.000000 1.856390 0.000000 
#    z 0.000000 0.000000 1.921050 
# 
# From -- ./inp_files/3804.got.cif
#   From: 2010.05.17/outbox.cif.g08.bks.cpg/sg23_2_cif.got.tgz:3804.got - 2010.06.04 12:02:01.
