data_PCOD9332547
_publ_section_title
;
Structure prediction by ZEFSAII (Michael W. Deem and Ramdas Pophale) SiO2 
 PCOD9332547
Probable space group: I 2 2 2
;
_chemical_formula_sum "Si O2"
_cell_formula_units_Z 30
_cell_length_a 5.539653
_cell_length_b 7.424577
_cell_length_c 33.102231
_cell_angle_alpha 90.000000
_cell_angle_beta 90.000000
_cell_angle_gamma 90.000000
_cell_volume 1361.480866
_symmetry_space_group_name_H-M "I 2 2 2"
_symmetry_group_IT_number 23
_symmetry_cell_setting 'orthorhombic'
loop_
_space_group_symop_operation_xyz
x,y,z
-x,-y,z
x,-y,-z
-x,y,-z
1/2+x,1/2+y,1/2+z
1/2-x,1/2-y,1/2+z
1/2+x,1/2-y,1/2-z
1/2-x,1/2+y,1/2-z
loop_
_atom_site_type_symbol
_atom_site_label
_atom_site_fract_x
_atom_site_fract_y
_atom_site_fract_z
Si Si1 0.827052 0.654678 0.192108
Si Si2 0.000000 0.500000 0.000000
Si Si3 0.288675 0.712629 0.893860
Si Si4 0.282334 0.193157 0.425887
Si Si5 0.500000 0.500000 0.738300
O O1 0.667881 0.720040 0.154277
O O2 0.706146 0.558639 0.230428
O O3 0.000000 0.500000 0.175015
O O4 0.950090 0.830232 0.210288
O O5 0.842209 0.631284 0.971534
O O6 0.523913 0.784228 0.917487
O O7 0.256590 0.501974 0.905033
O O8 0.023042 0.784173 0.907063
#
# Coordination Sequence:
#
# PCOD9332547 Si02
#       5
#     8   2   8   8   4
#     4  12  23  41  59  87 123 165 211 281 319 395
#     4   8  16  26  48  82 132 144 208 258 302 382
#     4   9  18  30  50  70 111 162 194 233 325 362
#     4   9  16  28  47  80 107 166 186 244 315 362
#     4  12  26  38  64  90 116 164 228 268 342 370
#
# _framework density 22.034829999999999
#
# number of rings (size 3 to 8) (size 9 to 14) (size 15 to 20)
#    0.000    2.133    5.333    1.600    0.000    8.533 
#    0.000    0.000    0.000    0.000    0.000    0.000 
#    0.000   17.067   38.400    0.000    0.000    0.000 
#
# Total GULP energy -83567.591117 kJ/mol
# GULP energy per Si atom -5571.172741 kJ/mol
# Density = 2.198468 g / cm^3
# Si number density = 22.034830 Si / 1000 Ang^3
#
#
#
# Elastic Constant Matrix: (Units=GPa)
#
#
# Indices 1 2 3 4 5 6 
#
# 1 164.4662 25.9536 42.3980 0.0000 0.0000 0.0000
# 2 25.9536 78.5066 17.3770 0.0000 0.0000 0.0000
# 3 42.3980 17.3770 149.2437 0.0000 0.0000 0.0000
# 4 0.0000 0.0000 0.0000 -4.3995 0.0000 0.0000
# 5 0.0000 0.0000 0.0000 0.0000 32.4370 0.0000
# 6 0.0000 0.0000 0.0000 0.0000 0.0000 6.8018
#
#
#
# Elastic Compliance Matrix: (Units=1/GPa)
#
#
# Indices 1 2 3 4 5 6 
#
# 1 0.006819 -0.001874 -0.001719 0.000000 0.000000 0.000000
# 2 -0.001874 0.013590 -0.001050 0.000000 0.000000 0.000000
# 3 -0.001719 -0.001050 0.007311 0.000000 0.000000 0.000000
# 4 0.000000 0.000000 0.000000 -0.227301 0.000000 0.000000
# 5 0.000000 0.000000 0.000000 0.000000 0.030829 0.000000
# 6 0.000000 0.000000 0.000000 0.000000 0.000000 0.147019
#
#
# Mechanical properties :
#
#
# Convention : Reuss Voigt Hill
#
# Bulk Modulus (GPa) = 54.24712 62.63041 58.43877
# Shear Modulus (GPa) = -793.35733 27.40041 -382.97846
#
# Velocity S-wave (km/s) = -18.99549 3.53016 -13.19785
# Velocity P-wave (km/s) = 21.36428 6.71574 14.34105
#
# Compressibility (1/GPa) = 0.01843416
#
# Stress axis : x y z
#
# Youngs Moduli (GPa) = 146.64628 73.58533 136.77915
#
# Poissons Ratio (x) = 0.13789 0.23513
# Poissons Ratio (y) = 0.27479 0.14361
# Poissons Ratio (z) = 0.25209 0.07726
#
# Static dielectric constant tensor:
#      x y z
#    x 1.932320 0.000000 0.000000 
#    y 0.000000 1.737220 0.000000 
#    z 0.000000 0.000000 1.838210 
# 
# From -- ./inp_files/29805.got.cif
#   From: 2010.05.17/outbox.cif.g08.bks.cpg/sg23_15_cif.got.tgz:29805.got - 2010.06.04 12:02:01.
