data_PCOD9332700
_publ_section_title
;
Structure prediction by ZEFSAII (Michael W. Deem and Ramdas Pophale) SiO2 
 PCOD9332700
Probable space group: I 21 21 21
;
_chemical_formula_sum "Si O2"
_cell_formula_units_Z 48
_cell_length_a 11.807218
_cell_length_b 19.940884
_cell_length_c 9.260195
_cell_angle_alpha 90.000000
_cell_angle_beta 90.000000
_cell_angle_gamma 90.000000
_cell_volume 2180.279247
_symmetry_space_group_name_H-M "I 21 21 21"
_symmetry_group_IT_number 24
_symmetry_cell_setting 'orthorhombic'
loop_
_space_group_symop_operation_xyz
x,y,z
-x,1/2-y,z
x,-y,1/2-z
1/2-x,y,-z
1/2+x,1/2+y,1/2+z
1/2-x,-y,1/2+z
1/2+x,1/2-y,-z
-x,1/2+y,1/2-z
loop_
_atom_site_type_symbol
_atom_site_label
_atom_site_fract_x
_atom_site_fract_y
_atom_site_fract_z
Si Si1 0.000000 0.750000 0.725560
Si Si2 0.084788 0.189309 0.325213
Si Si3 0.385014 0.854067 0.498105
Si Si4 0.750000 0.155118 0.000000
Si Si5 0.593207 0.907832 0.877434
Si Si6 0.569010 0.050727 0.960042
Si Si7 0.737410 0.209894 0.307968
O O1 0.063437 0.804421 0.622988
O O2 0.101718 0.714871 0.814938
O O3 0.078482 0.172985 0.155137
O O4 0.207092 0.219995 0.355128
O O5 0.000000 0.250000 0.353006
O O6 0.028556 0.126875 0.405986
O O7 0.250000 0.857649 0.500000
O O8 0.444086 0.927353 0.491201
O O9 0.649112 0.104496 0.038113
O O10 0.731238 0.200521 0.861565
O O11 0.586987 0.932386 0.710072
O O12 0.692209 0.852094 0.876136
O O13 0.604077 0.973565 0.976015
#
# Coordination Sequence:
#
# PCOD9332700 Si02
#       7
#     4   8   8   4   8   8   8
#     4  12  18  24  40  72 106 120 136 188 254 296
#     4   9  15  24  40  62  91 118 151 189 227 270
#     4  11  18  24  40  65  98 125 146 188 237 289
#     4  10  16  26  44  66  94 122 150 194 228 280
#     4   8  17  29  42  59  90 129 166 190 212 279
#     4   9  17  29  42  62  88 131 166 187 220 273
#     4  10  17  25  41  68  97 119 149 190 244 280
#
# _framework density 22.015526999999999
#
# number of rings (size 3 to 8) (size 9 to 14) (size 15 to 20)
#    0.000    2.333    4.167    2.000    0.000    0.000 
#    0.000    0.000    0.000    2.000    0.000    0.000 
#   30.000    0.000    0.000    0.000    0.000    0.000 
#
# Total GULP energy -133877.009342 kJ/mol
# GULP energy per Si atom -5578.208723 kJ/mol
# Density = 2.196542 g / cm^3
# Si number density = 22.015527 Si / 1000 Ang^3
#
#
#
# Elastic Constant Matrix: (Units=GPa)
#
#
# Indices 1 2 3 4 5 6 
#
# 1 166.9615 63.6010 16.9141 0.0000 0.0000 0.0000
# 2 63.6010 117.5306 18.4091 0.0000 0.0000 0.0000
# 3 16.9141 18.4091 58.8512 0.0008 -0.0006 -0.0001
# 4 0.0000 0.0000 0.0008 4.3480 -0.0001 0.0000
# 5 0.0000 0.0000 -0.0006 -0.0001 10.4046 0.0000
# 6 0.0000 0.0000 -0.0001 0.0000 0.0000 16.4780
#
#
#
# Elastic Compliance Matrix: (Units=1/GPa)
#
#
# Indices 1 2 3 4 5 6 
#
# 1 0.007594 -0.003962 -0.000943 0.000000 0.000000 0.000000
# 2 -0.003962 0.011014 -0.002307 0.000000 0.000000 0.000000
# 3 -0.000943 -0.002307 0.017985 -0.000003 0.000001 0.000000
# 4 0.000000 0.000000 -0.000003 0.229993 0.000003 0.000001
# 5 0.000000 0.000000 0.000001 0.000003 0.096111 0.000000
# 6 0.000000 0.000000 0.000000 0.000001 0.000000 0.060687
#
#
# Mechanical properties :
#
#
# Convention : Reuss Voigt Hill
#
# Bulk Modulus (GPa) = 45.10774 60.13242 52.62008
# Shear Modulus (GPa) = 11.23100 22.54073 16.88587
#
# Velocity S-wave (km/s) = 2.26108 3.20325 2.77248
# Velocity P-wave (km/s) = 5.22974 6.40734 5.84825
#
# Compressibility (1/GPa) = 0.02216914
#
# Stress axis : x y z
#
# Youngs Moduli (GPa) = 131.68063 90.79692 55.60313
#
# Poissons Ratio (x) = 0.35972 0.05245
# Poissons Ratio (y) = 0.52169 0.12825
# Poissons Ratio (z) = 0.12422 0.20942
#
# Static dielectric constant tensor:
#      x y z
#    x 1.886750 0.000000 0.000000 
#    y 0.000000 1.834320 0.000000 
#    z 0.000000 0.000000 1.819710 
# 
# From -- ./inp_files/19892.got.cif
#   From: 2010.05.17/outbox.cif.g08.bks.cpg/sg24_10_cif.got.tgz:19892.got - 2010.06.04 00:33:39.
