data_PCOD9332328
_publ_section_title
;
Structure prediction by ZEFSAII (Michael W. Deem and Ramdas Pophale) SiO2 
 PCOD9332328
Probable space group: I 2 2 2
;
_chemical_formula_sum "Si O2"
_cell_formula_units_Z 48
_cell_length_a 12.463475
_cell_length_b 14.015320
_cell_length_c 12.864340
_cell_angle_alpha 90.000000
_cell_angle_beta 90.000000
_cell_angle_gamma 90.000000
_cell_volume 2247.137642
_symmetry_space_group_name_H-M "I 2 2 2"
_symmetry_group_IT_number 23
_symmetry_cell_setting 'orthorhombic'
loop_
_space_group_symop_operation_xyz
x,y,z
-x,-y,z
x,-y,-z
-x,y,-z
1/2+x,1/2+y,1/2+z
1/2-x,1/2-y,1/2+z
1/2+x,1/2-y,1/2-z
1/2-x,1/2+y,1/2-z
loop_
_atom_site_type_symbol
_atom_site_label
_atom_site_fract_x
_atom_site_fract_y
_atom_site_fract_z
Si Si1 0.162031 0.788165 0.119737
Si Si2 0.952101 0.904006 0.186408
Si Si3 0.752374 0.589014 0.562648
Si Si4 0.372380 0.892066 0.493583
Si Si5 0.475387 0.888645 0.880695
Si Si6 0.147176 0.707916 0.769001
O O1 0.238124 0.808590 0.216659
O O2 0.048329 0.842154 0.134362
O O3 0.221480 0.832381 0.020442
O O4 0.154571 0.677073 0.090124
O O5 0.859989 0.944724 0.110402
O O6 0.882923 0.819981 0.238663
O O7 0.000000 0.000000 0.238444
O O8 0.800355 0.500000 0.500000
O O9 0.847852 0.624974 0.636039
O O10 0.500000 0.900644 0.500000
O O11 0.350372 0.836976 0.384602
O O12 0.326753 0.000000 0.500000
O O13 0.552722 0.839405 0.798569
O O14 0.500000 0.000000 0.871002
O O15 0.500000 0.857358 0.000000
#
# Coordination Sequence:
#
# PCOD9332328 Si02
#       6
#     8   8   8   8   8   8
#     4  12  24  45  68 103 142 184 248 296 368 442
#     4  12  27  41  70 105 141 185 242 300 365 443
#     4  12  21  41  70 100 142 180 234 318 356 415
#     4  11  25  47  70 103 145 188 241 302 364 458
#     4  11  23  43  66 109 144 181 249 307 364 437
#     4  12  27  44  74 101 145 202 235 304 384 440
#
# _framework density 21.360506999999998
#
# number of rings (size 3 to 8) (size 9 to 14) (size 15 to 20)
#    0.000    0.333    8.333    0.500    4.667    1.333 
#    0.000    0.000    0.000    0.000    0.000    0.000 
#    0.000    0.000    0.000    0.000    0.000    0.000 
#
# Total GULP energy -133944.827021 kJ/mol
# GULP energy per Si atom -5581.034459 kJ/mol
# Density = 2.131189 g / cm^3
# Si number density = 21.360507 Si / 1000 Ang^3
#
#
#
# Elastic Constant Matrix: (Units=GPa)
#
#
# Indices 1 2 3 4 5 6 
#
# 1 130.6268 8.1510 25.5314 0.0000 0.0000 0.0000
# 2 8.1510 87.4275 2.6157 0.0000 0.0000 0.0000
# 3 25.5314 2.6157 62.7596 0.0000 0.0000 0.0000
# 4 0.0000 0.0000 0.0000 21.1089 0.0000 0.0000
# 5 0.0000 0.0000 0.0000 0.0000 35.6059 0.0000
# 6 0.0000 0.0000 0.0000 0.0000 0.0000 23.9311
#
#
#
# Elastic Compliance Matrix: (Units=1/GPa)
#
#
# Indices 1 2 3 4 5 6 
#
# 1 0.008357 -0.000678 -0.003371 0.000000 0.000000 0.000000
# 2 -0.000678 0.011507 -0.000204 0.000000 0.000000 0.000000
# 3 -0.003371 -0.000204 0.017314 0.000000 0.000000 0.000000
# 4 0.000000 0.000000 0.000000 0.047373 0.000000 0.000000
# 5 0.000000 0.000000 0.000000 0.000000 0.028085 0.000000
# 6 0.000000 0.000000 0.000000 0.000000 0.000000 0.041787
#
#
# Mechanical properties :
#
#
# Convention : Reuss Voigt Hill
#
# Bulk Modulus (GPa) = 34.87805 39.26779 37.07292
# Shear Modulus (GPa) = 28.98774 32.43023 30.70899
#
# Velocity S-wave (km/s) = 3.68784 3.90068 3.79575
# Velocity P-wave (km/s) = 5.87344 6.22176 6.05011
#
# Compressibility (1/GPa) = 0.02867133
#
# Stress axis : x y z
#
# Youngs Moduli (GPa) = 119.66514 86.90078 57.75737
#
# Poissons Ratio (x) = 0.05894 0.19472
# Poissons Ratio (y) = 0.08116 0.01176
# Poissons Ratio (z) = 0.40343 0.01770
#
# Static dielectric constant tensor:
#      x y z
#    x 1.788570 0.000000 0.000000 
#    y 0.000000 1.827140 0.000000 
#    z 0.000000 0.000000 1.779100 
# 
# From -- ./inp_files/20823.got.cif
#   From: 2010.05.17/outbox.cif.g08.bks.cpg/sg23_11_cif.got.tgz:20823.got - 2010.06.04 12:02:01.
