data_PCOD9332114
_publ_section_title
;
Structure prediction by ZEFSAII (Michael W. Deem and Ramdas Pophale) SiO2 
 PCOD9332114
Probable space group: I 2 2 2
;
_chemical_formula_sum "Si O2"
_cell_formula_units_Z 64
_cell_length_a 9.774813
_cell_length_b 21.621796
_cell_length_c 15.617654
_cell_angle_alpha 90.000000
_cell_angle_beta 90.000000
_cell_angle_gamma 90.000000
_cell_volume 3300.775752
_symmetry_space_group_name_H-M "I 2 2 2"
_symmetry_group_IT_number 23
_symmetry_cell_setting 'orthorhombic'
loop_
_space_group_symop_operation_xyz
x,y,z
-x,-y,z
x,-y,-z
-x,y,-z
1/2+x,1/2+y,1/2+z
1/2-x,1/2-y,1/2+z
1/2+x,1/2-y,1/2-z
1/2-x,1/2+y,1/2-z
loop_
_atom_site_type_symbol
_atom_site_label
_atom_site_fract_x
_atom_site_fract_y
_atom_site_fract_z
Si Si1 0.194091 0.770940 0.090248
Si Si2 0.437880 0.180302 0.813200
Si Si3 0.246716 0.131000 0.395508
Si Si4 0.520467 0.066147 0.699334
Si Si5 0.181760 0.268933 0.598715
Si Si6 0.947887 0.200497 0.808311
Si Si7 0.437361 0.365387 0.150968
Si Si8 0.212841 0.561058 0.940543
O O1 0.287347 0.814590 0.149052
O O2 0.215488 0.701297 0.125224
O O3 0.039546 0.790290 0.107551
O O4 0.252229 0.770745 0.994776
O O5 0.466012 0.119409 0.760293
O O6 0.543319 0.192440 0.890176
O O7 0.461031 0.237826 0.749137
O O8 0.327680 0.085069 0.332008
O O9 0.297984 0.115420 0.490151
O O10 0.082764 0.126351 0.396586
O O11 0.423748 0.060427 0.615539
O O12 0.500000 0.000000 0.742732
O O13 0.290661 0.299601 0.663687
O O14 0.141092 0.198115 0.623347
O O15 0.009752 0.146515 0.748282
O O16 0.337306 0.421080 0.123498
O O17 0.233060 0.500000 0.000000
#
# Coordination Sequence:
#
# PCOD9332114 Si02
#       8
#     8   8   8   8   8   8   8   8
#     4  12  22  36  61  93 122 159 210 261 321 377
#     4  11  22  38  60  87 125 161 209 257 322 375
#     4  12  23  37  60  86 127 169 212 253 309 370
#     4  12  25  44  62  89 128 177 215 258 306 384
#     4  11  22  37  60  90 121 159 206 263 321 374
#     4  11  21  36  57  89 123 161 201 260 319 374
#     4  11  24  38  60  89 127 167 210 260 313 377
#     4  12  25  41  60  88 132 172 216 251 297 378
#
# _framework density 19.389382000000001
#
# number of rings (size 3 to 8) (size 9 to 14) (size 15 to 20)
#    0.000    0.500    6.250    5.250    0.000    2.000 
#    0.000    0.000    0.000    1.500    0.000    0.000 
#    0.000    4.000    0.000    0.000    0.000    0.000 
#
# Total GULP energy -178722.870663 kJ/mol
# GULP energy per Si atom -5585.089708 kJ/mol
# Density = 1.934525 g / cm^3
# Si number density = 19.389382 Si / 1000 Ang^3
#
#
#
# Elastic Constant Matrix: (Units=GPa)
#
#
# Indices 1 2 3 4 5 6 
#
# 1 94.8140 17.0328 8.7323 0.0000 0.0000 0.0000
# 2 17.0328 50.9810 21.0658 0.0000 0.0000 0.0000
# 3 8.7323 21.0658 59.7442 0.0000 0.0000 0.0000
# 4 0.0000 0.0000 0.0000 27.4285 0.0000 0.0000
# 5 0.0000 0.0000 0.0000 0.0000 31.7279 0.0000
# 6 0.0000 0.0000 0.0000 0.0000 0.0000 21.1571
#
#
#
# Elastic Compliance Matrix: (Units=1/GPa)
#
#
# Indices 1 2 3 4 5 6 
#
# 1 0.011227 -0.003597 -0.000373 0.000000 0.000000 0.000000
# 2 -0.003597 0.024113 -0.007976 0.000000 0.000000 0.000000
# 3 -0.000373 -0.007976 0.019605 0.000000 0.000000 0.000000
# 4 0.000000 0.000000 0.000000 0.036458 0.000000 0.000000
# 5 0.000000 0.000000 0.000000 0.000000 0.031518 0.000000
# 6 0.000000 0.000000 0.000000 0.000000 0.000000 0.047266
#
#
# Mechanical properties :
#
#
# Convention : Reuss Voigt Hill
#
# Bulk Modulus (GPa) = 32.20313 33.24456 32.72385
# Shear Modulus (GPa) = 24.45815 26.64325 25.55070
#
# Velocity S-wave (km/s) = 3.55550 3.71093 3.63404
# Velocity P-wave (km/s) = 5.78793 5.96190 5.87556
#
# Compressibility (1/GPa) = 0.03105288
#
# Stress axis : x y z
#
# Youngs Moduli (GPa) = 89.06711 41.47154 51.00735
#
# Poissons Ratio (x) = 0.14918 0.01901
# Poissons Ratio (y) = 0.32038 0.40686
# Poissons Ratio (z) = 0.03319 0.33080
#
# Static dielectric constant tensor:
#      x y z
#    x 1.718360 0.000000 0.000000 
#    y 0.000000 1.691070 0.000000 
#    z 0.000000 0.000000 1.702870 
# 
# From -- ./inp_files/23978.got.cif
#   From: 2010.05.17/outbox.cif.g08.bks.cpg/sg23_12_cif.got.tgz:23978.got - 2010.06.04 12:02:01.
