data_PCOD9332961
_publ_section_title
;
Structure prediction by ZEFSAII (Michael W. Deem and Ramdas Pophale) SiO2 
 PCOD9332961
Probable space group: I 21 21 21
;
_chemical_formula_sum "Si O2"
_cell_formula_units_Z 56
_cell_length_a 21.357763
_cell_length_b 9.461533
_cell_length_c 15.223698
_cell_angle_alpha 90.000000
_cell_angle_beta 90.000000
_cell_angle_gamma 90.000000
_cell_volume 3076.361952
_symmetry_space_group_name_H-M "I 21 21 21"
_symmetry_group_IT_number 24
_symmetry_cell_setting 'orthorhombic'
loop_
_space_group_symop_operation_xyz
x,y,z
-x,1/2-y,z
x,-y,1/2-z
1/2-x,y,-z
1/2+x,1/2+y,1/2+z
1/2-x,-y,1/2+z
1/2+x,1/2-y,-z
-x,1/2+y,1/2-z
loop_
_atom_site_type_symbol
_atom_site_label
_atom_site_fract_x
_atom_site_fract_y
_atom_site_fract_z
Si Si1 0.061929 0.843438 0.704033
Si Si2 0.353154 0.917459 0.666521
Si Si3 0.273277 0.031332 0.413046
Si Si4 0.165357 0.725423 0.828130
Si Si5 0.371320 0.183194 0.022588
Si Si6 0.306375 0.464648 0.062998
Si Si7 0.217883 0.353889 0.217904
O O1 0.116515 0.750529 0.750757
O O2 0.079628 0.847478 0.600476
O O3 0.000000 0.750000 0.716054
O O4 0.057963 0.000000 0.750000
O O5 0.385790 0.890338 0.571627
O O6 0.332517 0.762027 0.695811
O O7 0.382389 0.000000 0.750000
O O8 0.286869 0.996464 0.645286
O O9 0.250000 0.110200 0.500000
O O10 0.328171 0.123038 0.372656
O O11 0.306596 0.889443 0.445464
O O12 0.155294 0.593425 0.892765
O O13 0.235385 0.700773 0.792649
O O14 0.352391 0.349208 0.018678
O O15 0.266218 0.388131 0.139509
O O16 0.250000 0.516060 0.000000
O O17 0.188836 0.500000 0.250000
#
# Coordination Sequence:
#
# PCOD9332961 Si02
#       7
#     8   8   8   8   8   8   8
#     4  12  27  43  62  83 114 159 213 260 308 348
#     4  11  19  32  54  82 115 155 193 233 294 363
#     4  10  18  30  50  80 115 154 187 225 291 358
#     4  11  21  33  53  77 119 158 197 242 284 353
#     4  11  21  36  55  79 117 154 196 247 290 353
#     4  11  19  31  50  80 121 166 198 222 287 362
#     4  10  19  28  45  75 115 157 189 221 278 350
#
# _framework density 18.203317999999999
#
# number of rings (size 3 to 8) (size 9 to 14) (size 15 to 20)
#    0.000    1.143    7.143    0.857    2.000    0.000 
#    0.000    0.000    0.000    0.000    0.000    2.000 
#    0.000    0.000    0.000    0.000    0.000    0.000 
#
# Total GULP energy -155933.763261 kJ/mol
# GULP energy per Si atom -5569.062974 kJ/mol
# Density = 1.816189 g / cm^3
# Si number density = 18.203318 Si / 1000 Ang^3
#
#
#
# Elastic Constant Matrix: (Units=GPa)
#
#
# Indices 1 2 3 4 5 6 
#
# 1 27.6845 20.5262 19.4637 0.0000 0.0000 0.0000
# 2 20.5262 105.8701 47.8648 0.0000 0.0000 0.0000
# 3 19.4637 47.8648 105.7695 0.0000 0.0000 0.0000
# 4 0.0000 0.0000 0.0000 25.7772 0.0000 0.0000
# 5 0.0000 0.0000 0.0000 0.0000 15.3574 0.0000
# 6 0.0000 0.0000 0.0000 0.0000 0.0000 16.2168
#
#
#
# Elastic Compliance Matrix: (Units=1/GPa)
#
#
# Indices 1 2 3 4 5 6 
#
# 1 0.044500 -0.006192 -0.005387 0.000000 0.000000 0.000000
# 2 -0.006192 0.012737 -0.004624 0.000000 0.000000 0.000000
# 3 -0.005387 -0.004624 0.012538 0.000000 0.000000 0.000000
# 4 0.000000 0.000000 0.000000 0.038794 0.000000 0.000000
# 5 0.000000 0.000000 0.000000 0.000000 0.065115 0.000000
# 6 0.000000 0.000000 0.000000 0.000000 0.000000 0.061664
#
#
# Mechanical properties :
#
#
# Convention : Reuss Voigt Hill
#
# Bulk Modulus (GPa) = 26.76062 46.11484 36.43773
# Shear Modulus (GPa) = 17.84367 21.56822 19.70594
#
# Velocity S-wave (km/s) = 3.13428 3.44590 3.29378
# Velocity P-wave (km/s) = 5.27552 6.42032 5.87587
#
# Compressibility (1/GPa) = 0.03736835
#
# Stress axis : x y z
#
# Youngs Moduli (GPa) = 22.47211 78.51229 79.75451
#
# Poissons Ratio (x) = 0.48617 0.42960
# Poissons Ratio (y) = 0.13915 0.36882
# Poissons Ratio (z) = 0.12105 0.36307
#
# Static dielectric constant tensor:
#      x y z
#    x 1.580470 0.000000 0.000000 
#    y 0.000000 1.696100 0.000000 
#    z 0.000000 0.000000 1.783550 
# 
# From -- ./inp_files/27519.got.cif
#   From: 2010.05.17/outbox.cif.g08.bks.cpg/sg24_14_cif.got.tgz:27519.got - 2010.06.04 00:33:39.
