data_PCOD9332668
_publ_section_title
;
Structure prediction by ZEFSAII (Michael W. Deem and Ramdas Pophale) SiO2 
 PCOD9332668
Probable space group: I 21 21 21
;
_chemical_formula_sum "Si O2"
_cell_formula_units_Z 48
_cell_length_a 14.597743
_cell_length_b 28.001001
_cell_length_c 5.346545
_cell_angle_alpha 90.000000
_cell_angle_beta 90.000000
_cell_angle_gamma 90.000000
_cell_volume 2185.407841
_symmetry_space_group_name_H-M "I 21 21 21"
_symmetry_group_IT_number 24
_symmetry_cell_setting 'orthorhombic'
loop_
_space_group_symop_operation_xyz
x,y,z
-x,1/2-y,z
x,-y,1/2-z
1/2-x,y,-z
1/2+x,1/2+y,1/2+z
1/2-x,-y,1/2+z
1/2+x,1/2-y,-z
-x,1/2+y,1/2-z
loop_
_atom_site_type_symbol
_atom_site_label
_atom_site_fract_x
_atom_site_fract_y
_atom_site_fract_z
Si Si1 0.388365 0.674044 0.660762
Si Si2 0.808121 0.500000 0.750000
Si Si3 0.750000 0.312025 0.500000
Si Si4 0.250000 0.627333 0.000000
Si Si5 0.060292 0.864428 0.102540
Si Si6 0.653114 0.072028 0.106812
Si Si7 0.250000 0.749347 0.500000
Si Si8 0.540537 0.575460 0.394164
O O1 0.317575 0.665094 0.879254
O O2 0.488961 0.674490 0.780586
O O3 0.370064 0.623471 0.520463
O O4 0.342871 0.717154 0.511017
O O5 0.750000 0.489963 0.500000
O O6 0.874545 0.543729 0.686388
O O7 0.659209 0.343363 0.542059
O O8 0.742786 0.280762 0.249092
O O9 0.180478 0.589387 0.878621
O O10 0.062708 0.901698 0.334794
O O11 0.027147 0.887478 0.839006
O O12 0.556053 0.046677 0.082162
O O13 0.750000 0.052534 0.000000
#
# Coordination Sequence:
#
# PCOD9332668 Si02
#       8
#     8   4   4   4   8   8   4   8
#     4  10  20  35  63  93 125 179 224 273 332 398
#     4  12  28  48  74 112 136 182 222 286 354 394
#     4  12  29  44  62  98 133 184 231 294 354 384
#     4  10  13  32  56  98 123 160 236 261 314 394
#     4  11  25  45  70  97 133 185 232 277 341 416
#     4   9  18  33  64 100 129 175 224 268 327 411
#     4  12  24  42  64  92 142 174 227 303 338 398
#     4  11  24  44  73 102 138 171 231 285 332 422
#
# _framework density 21.963861999999999
#
# number of rings (size 3 to 8) (size 9 to 14) (size 15 to 20)
#    0.000    1.333    4.167    2.500    3.500    0.667 
#    0.000    3.333    1.833    0.000    0.000    0.000 
#    0.000    0.000    0.000    0.000    0.000    0.000 
#
# Total GULP energy -133671.258631 kJ/mol
# GULP energy per Si atom -5569.635776 kJ/mol
# Density = 2.191387 g / cm^3
# Si number density = 21.963862 Si / 1000 Ang^3
#
#
#
# Elastic Constant Matrix: (Units=GPa)
#
#
# Indices 1 2 3 4 5 6 
#
# 1 192.7006 21.8702 30.2970 -0.0986 0.0290 -0.0411
# 2 21.8702 24.5186 18.1092 0.0872 0.0194 0.0239
# 3 30.2970 18.1092 107.9429 0.6838 0.0273 0.1128
# 4 -0.0986 0.0872 0.6838 121.8845 -0.2779 -0.0299
# 5 0.0290 0.0194 0.0273 -0.2779 45.0341 0.0194
# 6 -0.0411 0.0239 0.1128 -0.0299 0.0194 50.5284
#
#
#
# Elastic Compliance Matrix: (Units=1/GPa)
#
#
# Indices 1 2 3 4 5 6 
#
# 1 0.005845 -0.004568 -0.000874 0.000013 -0.000001 0.000009
# 2 -0.004568 0.050124 -0.007127 0.000000 -0.000014 -0.000012
# 3 -0.000874 -0.007127 0.010706 -0.000056 -0.000003 -0.000021
# 4 0.000013 0.000000 -0.000056 0.008205 0.000051 0.000005
# 5 -0.000001 -0.000014 -0.000003 0.000051 0.022206 -0.000008
# 6 0.000009 -0.000012 -0.000021 0.000005 -0.000008 0.019791
#
#
# Mechanical properties :
#
#
# Convention : Reuss Voigt Hill
#
# Bulk Modulus (GPa) = 24.07552 51.74611 37.91081
# Shear Modulus (GPa) = 32.07992 60.48178 46.28085
#
# Velocity S-wave (km/s) = 3.82590 5.25326 4.59534
# Velocity P-wave (km/s) = 5.52285 7.77216 6.74197
#
# Compressibility (1/GPa) = 0.04153596
#
# Stress axis : x y z
#
# Youngs Moduli (GPa) = 171.07664 19.95054 93.40907
#
# Poissons Ratio (x) = 0.09114 0.08167
# Poissons Ratio (y) = 0.78151 0.66572
# Poissons Ratio (z) = 0.14958 0.14219
#
# Static dielectric constant tensor:
#      x y z
#    x 1.781730 0.000110 0.000290 
#    y 0.000110 1.833780 0.000020 
#    z 0.000290 0.000020 1.855380 
# 
# From -- ./inp_files/3833.got.cif
#   From: 2010.05.17/outbox.cif.g08.bks.cpg/sg24_2_cif.got.tgz:3833.got - 2010.06.04 00:33:39.
