data_PCOD9332072
_publ_section_title
;
Structure prediction by ZEFSAII (Michael W. Deem and Ramdas Pophale) SiO2 
 PCOD9332072
Probable space group: I 2 2 2
;
_chemical_formula_sum "Si O2"
_cell_formula_units_Z 58
_cell_length_a 18.998474
_cell_length_b 26.670030
_cell_length_c 5.507423
_cell_angle_alpha 90.000000
_cell_angle_beta 90.000000
_cell_angle_gamma 90.000000
_cell_volume 2790.555452
_symmetry_space_group_name_H-M "I 2 2 2"
_symmetry_group_IT_number 23
_symmetry_cell_setting 'orthorhombic'
loop_
_space_group_symop_operation_xyz
x,y,z
-x,-y,z
x,-y,-z
-x,y,-z
1/2+x,1/2+y,1/2+z
1/2-x,1/2-y,1/2+z
1/2+x,1/2-y,1/2-z
1/2-x,1/2+y,1/2-z
loop_
_atom_site_type_symbol
_atom_site_label
_atom_site_fract_x
_atom_site_fract_y
_atom_site_fract_z
Si Si1 0.136150 0.267346 0.455003
Si Si2 0.420468 0.337787 0.990200
Si Si3 0.394156 0.947203 0.639780
Si Si4 0.728523 0.940883 0.016984
Si Si5 0.763624 0.303355 0.204016
Si Si6 0.159558 0.135263 0.995068
Si Si7 0.348964 0.865665 0.341796
Si Si8 0.000000 0.500000 0.500000
O O1 0.081119 0.222640 0.459823
O O2 0.160424 0.282195 0.724224
O O3 0.207274 0.238943 0.361031
O O4 0.121728 0.318074 0.308952
O O5 0.386305 0.357682 0.739566
O O6 0.500000 0.356185 0.000000
O O7 0.378259 0.350776 0.241075
O O8 0.408349 0.896349 0.491150
O O9 0.388878 0.000000 0.500000
O O10 0.317049 0.933243 0.741184
O O11 0.450374 0.963089 0.843185
O O12 0.806783 0.919675 0.996436
O O13 0.683178 0.910253 0.820997
O O14 0.728447 0.000000 0.000000
O O15 0.728423 0.331169 0.434696
O O16 0.783124 0.341622 0.991481
#
# Coordination Sequence:
#
# PCOD9332072 Si02
#       8
#     8   8   8   8   8   8   8   2
#     4  11  21  35  65  97 137 176 224 284 347 417
#     4  11  26  46  72  99 142 196 244 282 354 452
#     4  12  24  43  72  94 137 190 238 290 347 427
#     4  12  23  40  67 106 139 166 236 304 358 411
#     4  11  20  34  64 100 136 173 228 283 364 408
#     4  11  23  42  72 104 138 186 236 302 368 415
#     4  12  22  38  65 103 140 182 223 298 353 416
#     4  12  26  48  68  98 136 208 232 276 356 426
#
# _framework density 20.784393999999999
#
# number of rings (size 3 to 8) (size 9 to 14) (size 15 to 20)
#    0.000    0.552    6.207    3.103    1.931    0.000 
#    0.000    0.000   22.759    2.483    0.000    0.000 
#    0.000    0.000    0.000    0.000    0.000    0.000 
#
# Total GULP energy -161676.673535 kJ/mol
# GULP energy per Si atom -5575.057708 kJ/mol
# Density = 2.073709 g / cm^3
# Si number density = 20.784394 Si / 1000 Ang^3
#
#
#
# Elastic Constant Matrix: (Units=GPa)
#
#
# Indices 1 2 3 4 5 6 
#
# 1 61.9675 9.8798 29.7999 0.0000 0.0000 0.0000
# 2 9.8798 115.8694 43.7402 0.0000 0.0000 0.0000
# 3 29.7999 43.7402 103.0149 0.0000 0.0000 0.0000
# 4 0.0000 0.0000 0.0000 26.4817 0.0000 0.0000
# 5 0.0000 0.0000 0.0000 0.0000 4.4016 0.0000
# 6 0.0000 0.0000 0.0000 0.0000 0.0000 0.9221
#
#
#
# Elastic Compliance Matrix: (Units=1/GPa)
#
#
# Indices 1 2 3 4 5 6 
#
# 1 0.018773 0.000535 -0.005658 0.000000 0.000000 0.000000
# 2 0.000535 0.010293 -0.004525 0.000000 0.000000 0.000000
# 3 -0.005658 -0.004525 0.013265 0.000000 0.000000 0.000000
# 4 0.000000 0.000000 0.000000 0.037762 0.000000 0.000000
# 5 0.000000 0.000000 0.000000 0.000000 0.227189 0.000000
# 6 0.000000 0.000000 0.000000 0.000000 0.000000 1.084465
#
#
# Mechanical properties :
#
#
# Convention : Reuss Voigt Hill
#
# Bulk Modulus (GPa) = 43.41109 49.74350 46.57729
# Shear Modulus (GPa) = 3.52430 19.52322 11.52376
#
# Velocity S-wave (km/s) = 1.30358 3.06816 2.35722
# Velocity P-wave (km/s) = 4.81638 6.04454 5.46507
#
# Compressibility (1/GPa) = 0.02303559
#
# Stress axis : x y z
#
# Youngs Moduli (GPa) = 53.26798 97.15310 75.38400
#
# Poissons Ratio (x) = -0.05198 0.42651
# Poissons Ratio (y) = -0.02850 0.34113
# Poissons Ratio (z) = 0.30138 0.43964
#
# Static dielectric constant tensor:
#      x y z
#    x 1.740420 0.000000 0.000000 
#    y 0.000000 1.842690 0.000000 
#    z 0.000000 0.000000 1.943750 
# 
# From -- ./inp_files/3496.got.cif
#   From: 2010.05.17/outbox.cif.g08.bks.cpg/sg23_2_cif.got.tgz:3496.got - 2010.06.04 12:02:01.
