data_PCOD9332788
_publ_section_title
;
Structure prediction by ZEFSAII (Michael W. Deem and Ramdas Pophale) SiO2 
 PCOD9332788
Probable space group: I 21 21 21
;
_chemical_formula_sum "Si O2"
_cell_formula_units_Z 64
_cell_length_a 9.282954
_cell_length_b 29.916966
_cell_length_c 13.093157
_cell_angle_alpha 90.000000
_cell_angle_beta 90.000000
_cell_angle_gamma 90.000000
_cell_volume 3636.203008
_symmetry_space_group_name_H-M "I 21 21 21"
_symmetry_group_IT_number 24
_symmetry_cell_setting 'orthorhombic'
loop_
_space_group_symop_operation_xyz
x,y,z
-x,1/2-y,z
x,-y,1/2-z
1/2-x,y,-z
1/2+x,1/2+y,1/2+z
1/2-x,-y,1/2+z
1/2+x,1/2-y,-z
-x,1/2+y,1/2-z
loop_
_atom_site_type_symbol
_atom_site_label
_atom_site_fract_x
_atom_site_fract_y
_atom_site_fract_z
Si Si1 0.930986 0.175796 0.852374
Si Si2 0.441773 0.136681 0.341555
Si Si3 0.410308 0.051343 0.223646
Si Si4 0.217347 0.763974 0.617624
Si Si5 0.657537 0.600101 0.597935
Si Si6 0.407924 0.582244 0.459533
Si Si7 0.366792 0.826507 0.760270
Si Si8 0.077901 0.797317 0.021338
O O1 0.807555 0.212085 0.861016
O O2 0.919043 0.135233 0.931544
O O3 0.943771 0.154487 0.740792
O O4 0.075682 0.205314 0.865676
O O5 0.434848 0.083446 0.322224
O O6 0.285614 0.154602 0.304006
O O7 0.467841 0.161611 0.447774
O O8 0.272141 0.071236 0.162480
O O9 0.541879 0.057800 0.143927
O O10 0.390484 0.000000 0.250000
O O11 0.250000 0.769069 0.500000
O O12 0.335364 0.782895 0.693718
O O13 0.750000 0.618978 0.500000
O O14 0.527931 0.573455 0.545804
O O15 0.591757 0.636594 0.675504
O O16 0.250000 0.571748 0.500000
O O17 0.450474 0.812951 0.862203
O O18 0.000000 0.750000 0.999355
O O19 0.250000 0.790714 0.000000
#
# Coordination Sequence:
#
# PCOD9332788 Si02
#       8
#     8   8   8   8   8   8   8   8
#     4   9  18  28  46  71  98 142 180 209 259 328
#     4   8  17  32  54  71  98 138 177 219 271 324
#     4   9  18  36  61  86 103 133 185 231 274 342
#     4  10  17  27  44  70 101 136 182 231 261 300
#     4   9  17  34  58  76 107 142 173 222 281 334
#     4  10  19  34  52  82 112 145 166 210 287 347
#     4   9  17  31  47  72 101 138 179 229 272 298
#     4  10  21  35  51  71 100 146 190 224 264 313
#
# _framework density 17.600777000000001
#
# number of rings (size 3 to 8) (size 9 to 14) (size 15 to 20)
#    0.000    2.750    0.000    3.750    5.250    0.000 
#    6.750   10.000    0.000    0.750    0.000    0.000 
#    0.000    0.000    0.000    0.000    0.000    0.000 
#
# Total GULP energy -178144.289480 kJ/mol
# GULP energy per Si atom -5567.009046 kJ/mol
# Density = 1.756072 g / cm^3
# Si number density = 17.600777 Si / 1000 Ang^3
#
#
#
# Elastic Constant Matrix: (Units=GPa)
#
#
# Indices 1 2 3 4 5 6 
#
# 1 43.3234 10.6854 17.1670 0.0000 0.0000 -0.0006
# 2 10.6854 122.6350 51.8356 0.0001 0.0000 -0.0009
# 3 17.1670 51.8356 108.7011 0.0001 0.0001 0.0052
# 4 0.0000 0.0001 0.0001 13.4495 0.0000 -0.0006
# 5 0.0000 0.0000 0.0001 0.0000 8.0661 0.0005
# 6 -0.0006 -0.0009 0.0052 -0.0006 0.0005 245.0810
#
#
#
# Elastic Compliance Matrix: (Units=1/GPa)
#
#
# Indices 1 2 3 4 5 6 
#
# 1 0.024662 -0.000629 -0.003595 0.000000 0.000000 0.000000
# 2 -0.000629 0.010229 -0.004778 0.000000 0.000000 0.000000
# 3 -0.003595 -0.004778 0.012046 0.000000 0.000000 0.000000
# 4 0.000000 0.000000 0.000000 0.074352 0.000000 0.000000
# 5 0.000000 0.000000 0.000000 0.000000 0.123975 0.000000
# 6 0.000000 0.000000 0.000000 0.000000 0.000000 0.004080
#
#
# Mechanical properties :
#
#
# Convention : Reuss Voigt Hill
#
# Bulk Modulus (GPa) = 34.56422 48.22617 41.39520
# Shear Modulus (GPa) = 18.05100 66.31742 42.18421
#
# Velocity S-wave (km/s) = 3.20594 6.14496 4.90095
# Velocity P-wave (km/s) = 5.77794 8.82082 7.45625
#
# Compressibility (1/GPa) = 0.02893165
#
# Stress axis : x y z
#
# Youngs Moduli (GPa) = 40.54844 97.76272 83.01606
#
# Poissons Ratio (x) = 0.06154 0.29841
# Poissons Ratio (y) = 0.02552 0.39668
# Poissons Ratio (z) = 0.14576 0.46715
#
# Static dielectric constant tensor:
#      x y z
#    x 1.648030 0.000000 0.000000 
#    y 0.000000 1.594490 0.000000 
#    z 0.000000 0.000000 1.596130 
# 
# From -- ./inp_files/18935.got.cif
#   From: 2010.05.17/outbox.cif.g08.bks.cpg/sg24_10_cif.got.tgz:18935.got - 2010.06.04 00:33:39.
