data_PCOD9332807
_publ_section_title
;
Structure prediction by ZEFSAII (Michael W. Deem and Ramdas Pophale) SiO2 
 PCOD9332807
Probable space group: I 21 21 21
;
_chemical_formula_sum "Si O2"
_cell_formula_units_Z 52
_cell_length_a 31.379829
_cell_length_b 13.178234
_cell_length_c 5.132754
_cell_angle_alpha 90.000000
_cell_angle_beta 90.000000
_cell_angle_gamma 90.000000
_cell_volume 2122.551506
_symmetry_space_group_name_H-M "I 21 21 21"
_symmetry_group_IT_number 24
_symmetry_cell_setting 'orthorhombic'
loop_
_space_group_symop_operation_xyz
x,y,z
-x,1/2-y,z
x,-y,1/2-z
1/2-x,y,-z
1/2+x,1/2+y,1/2+z
1/2-x,-y,1/2+z
1/2+x,1/2-y,-z
-x,1/2+y,1/2-z
loop_
_atom_site_type_symbol
_atom_site_label
_atom_site_fract_x
_atom_site_fract_y
_atom_site_fract_z
Si Si1 0.444716 0.125441 0.416476
Si Si2 0.539382 0.869253 0.094605
Si Si3 0.700130 0.680924 0.478720
Si Si4 0.108534 0.133861 0.088368
Si Si5 0.798736 0.818317 0.019229
Si Si6 0.847085 0.000000 0.750000
Si Si7 0.589462 0.875283 0.595256
O O1 0.492664 0.088753 0.467199
O O2 0.454387 0.247135 0.423903
O O3 0.423836 0.101178 0.139154
O O4 0.410011 0.100877 0.634835
O O5 0.574062 0.903836 0.883011
O O6 0.550487 0.890268 0.393539
O O7 0.750000 0.643241 0.500000
O O8 0.658467 0.611603 0.534615
O O9 0.693758 0.729093 0.192964
O O10 0.696174 0.769763 0.696236
O O11 0.102927 0.256911 0.092888
O O12 0.823766 0.916494 0.927529
O O13 0.750000 0.848845 0.000000
O O14 0.872987 0.066166 0.956421
#
# Coordination Sequence:
#
# PCOD9332807 Si02
#       7
#     8   8   8   8   8   4   8
#     4   9  17  28  51  64  84 101 135 172 233 279
#     4   9  18  33  43  67  83 106 127 181 235 279
#     4  10  20  35  48  64  89 117 146 193 238 269
#     4  10  17  30  47  68  81 110 140 183 218 282
#     4  10  23  36  48  59  82 117 160 201 235 268
#     4  12  24  36  48  66  84 124 158 200 232 280
#     4  10  21  30  46  60  89 107 145 184 229 273
#
# _framework density 24.498816000000001
#
# number of rings (size 3 to 8) (size 9 to 14) (size 15 to 20)
#    0.000    2.154    1.538    1.846    4.308    8.000 
#    0.000    0.000    0.000    0.000    0.000    0.000 
#    0.000    0.000    0.000    0.000    0.000    0.000 
#
# Total GULP energy -145440.691640 kJ/mol
# GULP energy per Si atom -5593.872755 kJ/mol
# Density = 2.444306 g / cm^3
# Si number density = 24.498816 Si / 1000 Ang^3
#
#
#
# Elastic Constant Matrix: (Units=GPa)
#
#
# Indices 1 2 3 4 5 6 
#
# 1 154.6278 4.5135 32.8298 0.0003 0.0018 0.0008
# 2 4.5135 45.6083 9.0457 -0.0002 0.0005 0.0007
# 3 32.8298 9.0457 113.5304 0.0005 0.0043 -0.0042
# 4 0.0003 -0.0002 0.0005 29.1834 0.0008 -0.0004
# 5 0.0018 0.0005 0.0043 0.0008 33.4520 -0.0021
# 6 0.0008 0.0007 -0.0042 -0.0004 -0.0021 26.9545
#
#
#
# Elastic Compliance Matrix: (Units=1/GPa)
#
#
# Indices 1 2 3 4 5 6 
#
# 1 0.006894 -0.000291 -0.001970 0.000000 0.000000 0.000000
# 2 -0.000291 0.022290 -0.001692 0.000000 0.000000 -0.000001
# 3 -0.001970 -0.001692 0.009513 0.000000 -0.000001 0.000002
# 4 0.000000 0.000000 0.000000 0.034266 -0.000001 0.000001
# 5 0.000000 0.000000 -0.000001 -0.000001 0.029894 0.000002
# 6 0.000000 -0.000001 0.000002 0.000001 0.000002 0.037100
#
#
# Mechanical properties :
#
#
# Convention : Reuss Voigt Hill
#
# Bulk Modulus (GPa) = 32.47815 45.17161 38.82488
# Shear Modulus (GPa) = 31.62026 35.74314 33.68170
#
# Velocity S-wave (km/s) = 3.59651 3.82380 3.71189
# Velocity P-wave (km/s) = 5.52560 6.16227 5.85260
#
# Compressibility (1/GPa) = 0.03078993
#
# Stress axis : x y z
#
# Youngs Moduli (GPa) = 145.05405 44.86280 105.12187
#
# Poissons Ratio (x) = 0.01308 0.20712
# Poissons Ratio (y) = 0.04228 0.17784
# Poissons Ratio (z) = 0.28580 0.07590
#
# Static dielectric constant tensor:
#      x y z
#    x 1.960100 0.000000 -0.000010 
#    y 0.000000 2.046050 -0.000010 
#    z -0.000010 -0.000010 1.267300 
# 
# From -- ./inp_files/7239.got.cif
#   From: 2010.05.17/outbox.cif.g08.bks.cpg/sg24_4_cif.got.tgz:7239.got - 2010.06.04 00:33:39.
