data_PCOD9332405
_publ_section_title
;
Structure prediction by ZEFSAII (Michael W. Deem and Ramdas Pophale) SiO2 
 PCOD9332405
Probable space group: I 2 2 2
;
_chemical_formula_sum "Si O2"
_cell_formula_units_Z 58
_cell_length_a 5.246984
_cell_length_b 18.300054
_cell_length_c 25.770718
_cell_angle_alpha 90.000000
_cell_angle_beta 90.000000
_cell_angle_gamma 90.000000
_cell_volume 2474.506676
_symmetry_space_group_name_H-M "I 2 2 2"
_symmetry_group_IT_number 23
_symmetry_cell_setting 'orthorhombic'
loop_
_space_group_symop_operation_xyz
x,y,z
-x,-y,z
x,-y,-z
-x,y,-z
1/2+x,1/2+y,1/2+z
1/2-x,1/2-y,1/2+z
1/2+x,1/2-y,1/2-z
1/2-x,1/2+y,1/2-z
loop_
_atom_site_type_symbol
_atom_site_label
_atom_site_fract_x
_atom_site_fract_y
_atom_site_fract_z
Si Si1 0.306873 0.099546 0.585237
Si Si2 0.824027 0.813301 0.395678
Si Si3 0.251335 0.549122 0.616864
Si Si4 0.458769 0.363671 0.284710
Si Si5 0.500000 0.000000 0.500000
Si Si6 0.754040 0.673828 0.464641
Si Si7 0.825644 0.305270 0.217675
Si Si8 0.190214 0.435019 0.196965
O O1 0.591781 0.132008 0.591590
O O2 0.237005 0.054655 0.637311
O O3 0.090897 0.160644 0.580803
O O4 0.322462 0.048807 0.536035
O O5 0.742000 0.736967 0.421014
O O6 0.856803 0.810526 0.333118
O O7 0.500000 0.500000 0.607426
O O8 0.342960 0.602176 0.663835
O O9 0.205620 0.598577 0.566472
O O10 0.000000 0.500000 0.628824
O O11 0.752353 0.343645 0.272423
O O12 0.357438 0.281028 0.275774
O O13 0.402820 0.422352 0.239698
O O14 0.500000 0.672996 0.500000
O O15 0.000000 0.687533 0.500000
O O16 0.055220 0.355549 0.198327
O O17 0.000000 0.500000 0.211623
#
# Coordination Sequence:
#
# PCOD9332405 Si02
#       8
#     8   8   8   8   2   8   8   8
#     4  11  26  45  72  99 150 195 251 305 367 434
#     4  11  25  49  72 109 142 193 248 311 365 443
#     4  12  30  51  76 115 156 198 250 320 390 471
#     4  12  24  44  72 109 145 200 247 304 372 455
#     4  12  28  50  68 110 144 206 250 314 362 450
#     4  12  27  50  82 112 146 195 257 319 389 463
#     4  11  24  43  74 101 149 193 242 304 368 450
#     4  11  24  44  65 104 145 194 245 300 373 439
#
# _framework density 23.439015999999999
#
# number of rings (size 3 to 8) (size 9 to 14) (size 15 to 20)
#    0.000    0.552    4.828    2.069    6.759    2.759 
#    2.483    0.000    0.000    0.000    0.000    0.000 
#    0.000    0.000    0.000    0.000    0.000    0.000 
#
# Total GULP energy -162044.224537 kJ/mol
# GULP energy per Si atom -5587.731881 kJ/mol
# Density = 2.338567 g / cm^3
# Si number density = 23.439016 Si / 1000 Ang^3
#
#
#
# Elastic Constant Matrix: (Units=GPa)
#
#
# Indices 1 2 3 4 5 6 
#
# 1 78.2566 14.7318 21.0198 0.0000 0.0000 0.0000
# 2 14.7318 98.5171 23.4391 0.0000 0.0000 0.0000
# 3 21.0198 23.4391 85.6575 0.0000 0.0000 0.0000
# 4 0.0000 0.0000 0.0000 -114.0381 0.0000 0.0000
# 5 0.0000 0.0000 0.0000 0.0000 26.7537 0.0000
# 6 0.0000 0.0000 0.0000 0.0000 0.0000 45.3202
#
#
#
# Elastic Compliance Matrix: (Units=1/GPa)
#
#
# Indices 1 2 3 4 5 6 
#
# 1 0.013846 -0.001350 -0.003028 0.000000 0.000000 0.000000
# 2 -0.001350 0.010989 -0.002676 0.000000 0.000000 0.000000
# 3 -0.003028 -0.002676 0.013150 0.000000 0.000000 0.000000
# 4 0.000000 0.000000 0.000000 -0.008769 0.000000 0.000000
# 5 0.000000 0.000000 0.000000 0.000000 0.037378 0.000000
# 6 0.000000 0.000000 0.000000 0.000000 0.000000 0.022065
#
#
# Mechanical properties :
#
#
# Convention : Reuss Voigt Hill
#
# Bulk Modulus (GPa) = 41.88185 42.31250 42.09718
# Shear Modulus (GPa) = 45.15655 5.15651 25.15653
#
# Velocity S-wave (km/s) = 4.39402 1.48484 3.27964
# Velocity P-wave (km/s) = 6.60684 4.58596 5.68689
#
# Compressibility (1/GPa) = 0.02387669
#
# Stress axis : x y z
#
# Youngs Moduli (GPa) = 72.22297 91.00012 76.04731
#
# Poissons Ratio (x) = 0.12285 0.23029
# Poissons Ratio (y) = 0.09750 0.20348
# Poissons Ratio (z) = 0.21871 0.24349
#
# Static dielectric constant tensor:
#      x y z
#    x 1.988230 0.000000 0.000000 
#    y 0.000000 1.943100 0.000000 
#    z 0.000000 0.000000 1.916790 
# 
# From -- ./inp_files/29023.got.cif
#   From: 2010.05.17/outbox.cif.g08.bks.cpg/sg23_15_cif.got.tgz:29023.got - 2010.06.04 12:02:01.
