data_PCOD9332279
_publ_section_title
;
Structure prediction by ZEFSAII (Michael W. Deem and Ramdas Pophale) SiO2 
 PCOD9332279
Probable space group: I 2 2 2
;
_chemical_formula_sum "Si O2"
_cell_formula_units_Z 56
_cell_length_a 20.712786
_cell_length_b 15.077938
_cell_length_c 8.195860
_cell_angle_alpha 90.000000
_cell_angle_beta 90.000000
_cell_angle_gamma 90.000000
_cell_volume 2559.617098
_symmetry_space_group_name_H-M "I 2 2 2"
_symmetry_group_IT_number 23
_symmetry_cell_setting 'orthorhombic'
loop_
_space_group_symop_operation_xyz
x,y,z
-x,-y,z
x,-y,-z
-x,y,-z
1/2+x,1/2+y,1/2+z
1/2-x,1/2-y,1/2+z
1/2+x,1/2-y,1/2-z
1/2-x,1/2+y,1/2-z
loop_
_atom_site_type_symbol
_atom_site_label
_atom_site_fract_x
_atom_site_fract_y
_atom_site_fract_z
Si Si1 0.557524 0.448046 0.331234
Si Si2 0.461622 0.745601 0.252473
Si Si3 0.667926 0.818777 0.641069
Si Si4 0.716601 0.012553 0.182529
Si Si5 0.097700 0.773052 0.389070
Si Si6 0.721892 0.191391 0.724006
Si Si7 0.662140 0.538875 0.164900
O O1 0.500000 0.500000 0.243149
O O2 0.567353 0.500000 0.500000
O O3 0.539544 0.347609 0.345080
O O4 0.620275 0.457527 0.226089
O O5 0.408787 0.802710 0.348250
O O6 0.537526 0.762814 0.220177
O O7 0.428494 0.736815 0.072999
O O8 0.695685 0.802730 0.460442
O O9 0.713256 0.749943 0.746361
O O10 0.677008 0.919189 0.706866
O O11 0.729292 0.913167 0.243544
O O12 0.786707 0.059798 0.194424
O O13 0.691474 0.000000 0.000000
O O14 0.164313 0.724256 0.343865
O O15 0.116497 0.876298 0.360275
O O16 0.693391 0.500000 0.000000
#
# Coordination Sequence:
#
# PCOD9332279 Si02
#       7
#     8   8   8   8   8   8   8
#     4  11  23  34  55  88 132 176 223 267 333 401
#     4  11  24  43  64  97 139 187 227 286 339 417
#     4  12  26  45  72 102 138 183 231 287 350 405
#     4  12  26  46  71 101 137 179 232 289 345 407
#     4  11  24  42  67  98 140 181 232 278 350 406
#     4  12  26  45  71 104 138 179 234 290 343 413
#     4  12  22  38  64  96 136 177 222 276 340 407
#
# _framework density 21.878271000000002
#
# number of rings (size 3 to 8) (size 9 to 14) (size 15 to 20)
#    0.000    0.429    4.286    5.143    2.000    0.857 
#    0.000    0.714    0.000    4.286    0.000    0.000 
#    0.000    0.000    0.000    0.000    0.000    0.000 
#
# Total GULP energy -156278.636600 kJ/mol
# GULP energy per Si atom -5581.379879 kJ/mol
# Density = 2.182848 g / cm^3
# Si number density = 21.878271 Si / 1000 Ang^3
#
#
#
# Elastic Constant Matrix: (Units=GPa)
#
#
# Indices 1 2 3 4 5 6 
#
# 1 89.5398 18.9927 1.1482 0.0000 0.0000 0.0000
# 2 18.9927 77.6450 10.3567 0.0000 0.0000 0.0000
# 3 1.1482 10.3567 78.4097 0.0000 0.0000 0.0000
# 4 0.0000 0.0000 0.0000 26.8314 0.0000 0.0000
# 5 0.0000 0.0000 0.0000 0.0000 47.4776 0.0000
# 6 0.0000 0.0000 0.0000 0.0000 0.0000 20.0636
#
#
#
# Elastic Compliance Matrix: (Units=1/GPa)
#
#
# Indices 1 2 3 4 5 6 
#
# 1 0.011783 -0.002910 0.000212 0.000000 0.000000 0.000000
# 2 -0.002910 0.013829 -0.001784 0.000000 0.000000 0.000000
# 3 0.000212 -0.001784 0.012986 0.000000 0.000000 0.000000
# 4 0.000000 0.000000 0.000000 0.037270 0.000000 0.000000
# 5 0.000000 0.000000 0.000000 0.000000 0.021063 0.000000
# 6 0.000000 0.000000 0.000000 0.000000 0.000000 0.049842
#
#
# Mechanical properties :
#
#
# Convention : Reuss Voigt Hill
#
# Bulk Modulus (GPa) = 33.74636 34.06551 33.90594
# Shear Modulus (GPa) = 30.19059 33.21430 31.70244
#
# Velocity S-wave (km/s) = 3.71878 3.90056 3.81075
# Velocity P-wave (km/s) = 5.82213 5.99083 5.90708
#
# Compressibility (1/GPa) = 0.02963282
#
# Stress axis : x y z
#
# Youngs Moduli (GPa) = 84.86913 72.31171 77.00567
#
# Poissons Ratio (x) = 0.21046 -0.01632
# Poissons Ratio (y) = 0.24701 0.13738
# Poissons Ratio (z) = -0.01798 0.12900
#
# Static dielectric constant tensor:
#      x y z
#    x 1.881090 0.000000 0.000000 
#    y 0.000000 1.786010 0.000000 
#    z 0.000000 0.000000 1.913610 
# 
# From -- ./inp_files/12060.got.cif
#   From: 2010.05.17/outbox.cif.g08.bks.cpg/sg23_7_cif.got.tgz:12060.got - 2010.06.04 12:02:01.
