data_PCOD9332567
_publ_section_title
;
Structure prediction by ZEFSAII (Michael W. Deem and Ramdas Pophale) SiO2 
 PCOD9332567
Probable space group: I 2 2 2
;
_chemical_formula_sum "Si O2"
_cell_formula_units_Z 46
_cell_length_a 21.151663
_cell_length_b 8.672247
_cell_length_c 11.676272
_cell_angle_alpha 90.000000
_cell_angle_beta 90.000000
_cell_angle_gamma 90.000000
_cell_volume 2141.807133
_symmetry_space_group_name_H-M "I 2 2 2"
_symmetry_group_IT_number 23
_symmetry_cell_setting 'orthorhombic'
loop_
_space_group_symop_operation_xyz
x,y,z
-x,-y,z
x,-y,-z
-x,y,-z
1/2+x,1/2+y,1/2+z
1/2-x,1/2-y,1/2+z
1/2+x,1/2-y,1/2-z
1/2-x,1/2+y,1/2-z
loop_
_atom_site_type_symbol
_atom_site_label
_atom_site_fract_x
_atom_site_fract_y
_atom_site_fract_z
Si Si1 0.180923 0.711546 0.701463
Si Si2 0.732899 0.465478 0.880374
Si Si3 0.500000 0.500000 0.000000
Si Si4 0.602019 0.294901 0.870221
Si Si5 0.575512 0.180718 0.370567
Si Si6 0.633260 0.000000 0.000000
Si Si7 0.074510 0.310111 0.874887
O O1 0.223081 0.624993 0.794425
O O2 0.114106 0.745312 0.763753
O O3 0.171809 0.600677 0.592423
O O4 0.212711 0.871384 0.670181
O O5 0.669149 0.368669 0.905047
O O6 0.766770 0.500000 0.000000
O O7 0.545712 0.601868 0.080340
O O8 0.604045 0.275076 0.733242
O O9 0.595181 0.125899 0.926645
O O10 0.501040 0.214415 0.365037
O O11 0.596402 0.235485 0.497438
O O12 0.583442 0.994873 0.365281
#
# Coordination Sequence:
#
# PCOD9332567 Si02
#       7
#     8   8   2   8   8   4   8
#     4  12  26  45  72  97 141 182 233 292 355 415
#     4  12  28  48  68 100 139 182 237 290 345 426
#     4  12  28  42  68 102 160 186 228 294 354 410
#     4  12  25  46  69 105 141 188 230 291 356 425
#     4   9  20  40  65 106 128 175 220 292 336 415
#     4  12  24  45  72 108 134 181 246 286 358 436
#     4   9  20  38  69  97 139 165 231 276 348 412
#
# _framework density 21.47719
#
# number of rings (size 3 to 8) (size 9 to 14) (size 15 to 20)
#    0.000    1.043    4.348    2.087    7.304    0.348 
#    0.000    0.000    0.000    0.000    0.000    0.000 
#    0.000    0.000    0.000    0.000    0.000    0.000 
#
# Total GULP energy -128666.560325 kJ/mol
# GULP energy per Si atom -5594.198275 kJ/mol
# Density = 2.142831 g / cm^3
# Si number density = 21.477190 Si / 1000 Ang^3
#
#
#
# Elastic Constant Matrix: (Units=GPa)
#
#
# Indices 1 2 3 4 5 6 
#
# 1 58.9152 17.7258 21.0231 0.0000 0.0000 0.0000
# 2 17.7258 87.5345 36.2918 0.0000 0.0000 0.0000
# 3 21.0231 36.2918 132.1260 0.0000 0.0000 0.0000
# 4 0.0000 0.0000 0.0000 39.9506 0.0000 0.0000
# 5 0.0000 0.0000 0.0000 0.0000 27.6088 0.0000
# 6 0.0000 0.0000 0.0000 0.0000 0.0000 5.7152
#
#
#
# Elastic Compliance Matrix: (Units=1/GPa)
#
#
# Indices 1 2 3 4 5 6 
#
# 1 0.018612 -0.002868 -0.002174 0.000000 0.000000 0.000000
# 2 -0.002868 0.013334 -0.003206 0.000000 0.000000 0.000000
# 3 -0.002174 -0.003206 0.008795 0.000000 0.000000 0.000000
# 4 0.000000 0.000000 0.000000 0.025031 0.000000 0.000000
# 5 0.000000 0.000000 0.000000 0.000000 0.036220 0.000000
# 6 0.000000 0.000000 0.000000 0.000000 0.000000 0.174971
#
#
# Mechanical properties :
#
#
# Convention : Reuss Voigt Hill
#
# Bulk Modulus (GPa) = 41.24432 47.62859 44.43646
# Shear Modulus (GPa) = 16.58148 28.22392 22.40270
#
# Velocity S-wave (km/s) = 2.78159 3.62903 3.23320
# Velocity P-wave (km/s) = 5.43708 6.30748 5.88839
#
# Compressibility (1/GPa) = 0.02424576
#
# Stress axis : x y z
#
# Youngs Moduli (GPa) = 53.72868 74.99573 113.69985
#
# Poissons Ratio (x) = 0.21507 0.24715
# Poissons Ratio (y) = 0.15408 0.36455
# Poissons Ratio (z) = 0.11679 0.24046
#
# Static dielectric constant tensor:
#      x y z
#    x 1.771150 0.000000 0.000000 
#    y 0.000000 1.741530 0.000000 
#    z 0.000000 0.000000 1.802910 
# 
# From -- ./inp_files/18329.got.cif
#   From: 2010.05.17/outbox.cif.g08.bks.cpg/sg23_10_cif.got.tgz:18329.got - 2010.06.04 12:02:01.
