data_PCOD9332930
_publ_section_title
;
Structure prediction by ZEFSAII (Michael W. Deem and Ramdas Pophale) SiO2 
 PCOD9332930
Probable space group: I 21 21 21
;
_chemical_formula_sum "Si O2"
_cell_formula_units_Z 56
_cell_length_a 27.115885
_cell_length_b 5.248398
_cell_length_c 18.123468
_cell_angle_alpha 90.000000
_cell_angle_beta 90.000000
_cell_angle_gamma 90.000000
_cell_volume 2579.240562
_symmetry_space_group_name_H-M "I 21 21 21"
_symmetry_group_IT_number 24
_symmetry_cell_setting 'orthorhombic'
loop_
_space_group_symop_operation_xyz
x,y,z
-x,1/2-y,z
x,-y,1/2-z
1/2-x,y,-z
1/2+x,1/2+y,1/2+z
1/2-x,-y,1/2+z
1/2+x,1/2-y,-z
-x,1/2+y,1/2-z
loop_
_atom_site_type_symbol
_atom_site_label
_atom_site_fract_x
_atom_site_fract_y
_atom_site_fract_z
Si Si1 0.388440 0.616887 0.082472
Si Si2 0.700073 0.462267 0.404717
Si Si3 0.625528 0.981431 0.580212
Si Si4 0.514482 0.999659 0.871323
Si Si5 0.029323 0.004712 0.538407
Si Si6 0.687500 0.503817 0.921701
Si Si7 0.629635 0.756548 0.297686
O O1 0.417008 0.886935 0.064401
O O2 0.405796 0.419103 0.145903
O O3 0.332402 0.704457 0.098970
O O4 0.388415 0.461599 0.006661
O O5 0.694718 0.541583 0.490311
O O6 0.758101 0.449845 0.389501
O O7 0.673241 0.646733 0.347671
O O8 0.655419 0.242701 0.588328
O O9 0.572202 0.996859 0.615180
O O10 0.658073 0.743215 0.605459
O O11 0.500000 0.250000 0.831382
O O12 0.500000 0.750000 0.830991
O O13 0.480756 0.997306 0.948793
O O14 0.000000 0.250000 0.566917
O O15 0.000000 0.750000 0.562486
O O16 0.612767 0.500000 0.250000
O O17 0.646374 0.000000 0.250000
#
# Coordination Sequence:
#
# PCOD9332930 Si02
#       7
#     8   8   8   8   8   8   8
#     4  11  22  38  60  79 115 144 194 257 286 351
#     4  10  23  38  58  82 114 144 191 236 293 351
#     4  11  20  33  53  83 114 146 185 236 282 338
#     4  10  18  29  47  74 111 140 187 225 264 336
#     4  10  21  31  52  82 103 137 186 236 292 339
#     4  10  23  34  56  83 115 146 178 241 294 346
#     4  12  25  40  60  84 108 151 198 249 298 349
#
# _framework density 21.711818999999998
#
# number of rings (size 3 to 8) (size 9 to 14) (size 15 to 20)
#    0.000    1.429    5.714    0.857   10.000    1.143 
#    0.000    0.000    0.000    0.000    3.714    0.000 
#    0.000    0.000    0.000    0.000    0.000   40.000 
#
# Total GULP energy -155881.194250 kJ/mol
# GULP energy per Si atom -5567.185509 kJ/mol
# Density = 2.166240 g / cm^3
# Si number density = 21.711819 Si / 1000 Ang^3
#
#
#
# Elastic Constant Matrix: (Units=GPa)
#
#
# Indices 1 2 3 4 5 6 
#
# 1 134.4839 60.0725 35.7864 0.0000 0.0000 0.0000
# 2 60.0725 180.8050 34.0058 0.0000 0.0000 0.0000
# 3 35.7864 34.0058 52.2884 0.0000 0.0000 0.0000
# 4 0.0000 0.0000 0.0000 32.1449 0.0000 0.0000
# 5 0.0000 0.0000 0.0000 0.0000 -2.6562 0.0000
# 6 0.0000 0.0000 0.0000 0.0000 0.0000 26.7253
#
#
#
# Elastic Compliance Matrix: (Units=1/GPa)
#
#
# Indices 1 2 3 4 5 6 
#
# 1 0.009856 -0.002286 -0.005259 0.000000 0.000000 0.000000
# 2 -0.002286 0.006832 -0.002879 0.000000 0.000000 0.000000
# 3 -0.005259 -0.002879 0.024596 0.000000 0.000000 0.000000
# 4 0.000000 0.000000 0.000000 0.031109 0.000000 0.000000
# 5 0.000000 0.000000 0.000000 0.000000 -0.376474 0.000000
# 6 0.000000 0.000000 0.000000 0.000000 0.000000 0.037418
#
#
# Mechanical properties :
#
#
# Convention : Reuss Voigt Hill
#
# Bulk Modulus (GPa) = 48.93046 69.70077 59.31562
# Shear Modulus (GPa) = -20.92020 27.09029 3.08504
#
# Velocity S-wave (km/s) = -3.10746 3.53614 1.19331
# Velocity P-wave (km/s) = 3.11611 6.98890 5.41087
#
# Compressibility (1/GPa) = 0.02043717
#
# Stress axis : x y z
#
# Youngs Moduli (GPa) = 101.45817 146.37787 40.65649
#
# Poissons Ratio (x) = 0.33456 0.21382
# Poissons Ratio (y) = 0.23189 0.11704
# Poissons Ratio (z) = 0.53359 0.42138
#
# Static dielectric constant tensor:
#      x y z
#    x 1.798030 0.000000 0.000000 
#    y 0.000000 1.885660 0.000000 
#    z 0.000000 0.000000 1.869810 
# 
# From -- ./inp_files/34259.got.cif
#   From: 2010.05.17/outbox.cif.g08.bks.cpg/sg24_18_cif.got.tgz:34259.got - 2010.06.04 00:33:39.
