data_PCOD9332817
_publ_section_title
;
Structure prediction by ZEFSAII (Michael W. Deem and Ramdas Pophale) SiO2 
 PCOD9332817
Probable space group: I 21 21 21
;
_chemical_formula_sum "Si O2"
_cell_formula_units_Z 64
_cell_length_a 21.679983
_cell_length_b 8.188461
_cell_length_c 23.416464
_cell_angle_alpha 90.000000
_cell_angle_beta 90.000000
_cell_angle_gamma 90.000000
_cell_volume 4157.024053
_symmetry_space_group_name_H-M "I 21 21 21"
_symmetry_group_IT_number 24
_symmetry_cell_setting 'orthorhombic'
loop_
_space_group_symop_operation_xyz
x,y,z
-x,1/2-y,z
x,-y,1/2-z
1/2-x,y,-z
1/2+x,1/2+y,1/2+z
1/2-x,-y,1/2+z
1/2+x,1/2-y,-z
-x,1/2+y,1/2-z
loop_
_atom_site_type_symbol
_atom_site_label
_atom_site_fract_x
_atom_site_fract_y
_atom_site_fract_z
Si Si1 0.623101 0.609395 0.022463
Si Si2 0.073850 0.245574 0.715155
Si Si3 0.711284 0.265801 0.560487
Si Si4 0.242074 0.574454 0.568209
Si Si5 0.987685 0.420289 0.937333
Si Si6 0.614466 0.080707 0.394875
Si Si7 0.218933 0.074905 0.905388
Si Si8 0.396759 0.114015 0.169256
O O1 0.554899 0.539081 0.025916
O O2 0.626587 0.750501 0.070795
O O3 0.671741 0.467939 0.041860
O O4 0.644395 0.685697 0.962912
O O5 0.104777 0.372469 0.671481
O O6 0.091939 0.247462 0.781707
O O7 0.000000 0.250000 0.710707
O O8 0.091697 0.066076 0.693644
O O9 0.750000 0.263439 0.500000
O O10 0.739804 0.412259 0.597562
O O11 0.719255 0.086161 0.586656
O O12 0.250000 0.577592 0.500000
O O13 0.172145 0.534140 0.589125
O O14 0.256583 0.758706 0.586646
O O15 0.050428 0.505236 0.917225
O O16 0.000000 0.250000 0.968292
O O17 0.945355 0.371553 0.882453
O O18 0.172393 0.108615 0.853807
#
# Coordination Sequence:
#
# PCOD9332817 Si02
#       8
#     8   8   8   8   8   8   8   8
#     4  10  17  31  44  63  87 113 141 191 241 281
#     4  11  19  32  48  58  86 127 162 198 243 270
#     4   9  16  31  47  61  85 106 139 191 238 284
#     4  11  19  30  48  68  81 109 150 195 241 292
#     4  11  21  31  42  66  90 117 157 198 240 285
#     4  12  18  32  49  62  85 121 155 199 240 276
#     4  10  18  31  46  64  87 108 144 199 241 275
#     4  10  20  32  43  65  88 119 162 203 240 277
#
# _framework density 15.395629
#
# number of rings (size 3 to 8) (size 9 to 14) (size 15 to 20)
#    0.000    1.500    7.500    3.375    0.000    0.000 
#    0.000    0.000    0.000    0.000    0.000    0.000 
#    0.000    0.000    0.000    0.000    0.000    0.000 
#
# Total GULP energy -178271.786214 kJ/mol
# GULP energy per Si atom -5570.993319 kJ/mol
# Density = 1.536059 g / cm^3
# Si number density = 15.395629 Si / 1000 Ang^3
#
#
#
# Elastic Constant Matrix: (Units=GPa)
#
#
# Indices 1 2 3 4 5 6 
#
# 1 45.9036 23.6066 30.8043 0.0000 0.0000 0.0000
# 2 23.6066 105.6589 17.6592 0.0000 0.0000 0.0000
# 3 30.8043 17.6592 40.3894 0.0000 0.0000 0.0000
# 4 0.0000 0.0000 0.0000 7.1770 0.0000 0.0000
# 5 0.0000 0.0000 0.0000 0.0000 7.7170 0.0000
# 6 0.0000 0.0000 0.0000 0.0000 0.0000 22.7244
#
#
#
# Elastic Compliance Matrix: (Units=1/GPa)
#
#
# Indices 1 2 3 4 5 6 
#
# 1 0.046816 -0.004846 -0.033587 0.000000 0.000000 0.000000
# 2 -0.004846 0.010712 -0.000987 0.000000 0.000000 0.000000
# 3 -0.033587 -0.000987 0.050807 0.000000 0.000000 0.000000
# 4 0.000000 0.000000 0.000000 0.139334 0.000000 0.000000
# 5 0.000000 0.000000 0.000000 0.000000 0.129584 0.000000
# 6 0.000000 0.000000 0.000000 0.000000 0.000000 0.044006
#
#
# Mechanical properties :
#
#
# Convention : Reuss Voigt Hill
#
# Bulk Modulus (GPa) = 33.90534 37.34356 35.62445
# Shear Modulus (GPa) = 9.80524 15.51580 12.66052
#
# Velocity S-wave (km/s) = 2.52640 3.17804 2.87077
# Velocity P-wave (km/s) = 5.52999 6.14615 5.84619
#
# Compressibility (1/GPa) = 0.02949388
#
# Stress axis : x y z
#
# Youngs Moduli (GPa) = 21.36023 93.35128 19.68240
#
# Poissons Ratio (x) = 0.45241 0.66107
# Poissons Ratio (y) = 0.10352 0.01944
# Poissons Ratio (z) = 0.71742 0.09218
#
# Static dielectric constant tensor:
#      x y z
#    x 1.539640 0.000000 0.000000 
#    y 0.000000 1.620950 0.000000 
#    z 0.000000 0.000000 1.529620 
# 
# From -- ./inp_files/36112.got.cif
#   From: 2010.05.17/outbox.cif.g08.bks.cpg/sg24_19_cif.got.tgz:36112.got - 2010.06.04 00:33:39.
