data_PCOD9332531
_publ_section_title
;
Structure prediction by ZEFSAII (Michael W. Deem and Ramdas Pophale) SiO2 
 PCOD9332531
Probable space group: I 2 2 2
;
_chemical_formula_sum "Si O2"
_cell_formula_units_Z 34
_cell_length_a 4.787121
_cell_length_b 25.944385
_cell_length_c 12.785512
_cell_angle_alpha 90.000000
_cell_angle_beta 90.000000
_cell_angle_gamma 90.000000
_cell_volume 1587.946658
_symmetry_space_group_name_H-M "I 2 2 2"
_symmetry_group_IT_number 23
_symmetry_cell_setting 'orthorhombic'
loop_
_space_group_symop_operation_xyz
x,y,z
-x,-y,z
x,-y,-z
-x,y,-z
1/2+x,1/2+y,1/2+z
1/2-x,1/2-y,1/2+z
1/2+x,1/2-y,1/2-z
1/2-x,1/2+y,1/2-z
loop_
_atom_site_type_symbol
_atom_site_label
_atom_site_fract_x
_atom_site_fract_y
_atom_site_fract_z
Si Si1 0.500000 0.000000 0.500000
Si Si2 0.341391 0.109472 0.222855
Si Si3 0.500000 0.722638 0.500000
Si Si4 0.669815 0.550379 0.188038
Si Si5 0.000000 0.648172 0.500000
Si Si6 0.468233 0.222917 0.295165
O O1 0.700375 0.964271 0.573277
O O2 0.556323 0.064243 0.248006
O O3 0.456284 0.162764 0.271733
O O4 0.051986 0.095511 0.281984
O O5 0.360914 0.118004 0.097635
O O6 0.748635 0.685171 0.463550
O O7 0.413801 0.759662 0.406282
O O8 0.500000 0.500000 0.220622
O O9 0.656824 0.255243 0.215398
#
# Coordination Sequence:
#
# PCOD9332531 Si02
#       6
#     2   8   4   8   4   8
#     4  12  26  54  82  98 158 184 230 322 402 422
#     4  12  25  44  75 108 145 193 250 297 371 442
#     4  12  22  43  68  98 152 202 230 303 366 412
#     4  12  26  49  76 105 141 189 241 311 376 443
#     4  12  24  44  73 104 146 196 237 294 380 428
#     4  12  23  43  68 106 150 190 245 297 347 445
#
# _framework density 21.411297999999999
#
# number of rings (size 3 to 8) (size 9 to 14) (size 15 to 20)
#    0.000    0.000    7.059    3.176    0.000    0.941 
#    0.000    3.529    0.000    0.000    0.000    0.000 
#    0.000    0.000    0.000    0.000    0.000    0.000 
#
# Total GULP energy -94794.804162 kJ/mol
# GULP energy per Si atom -5576.164951 kJ/mol
# Density = 2.136256 g / cm^3
# Si number density = 21.411298 Si / 1000 Ang^3
#
#
#
# Elastic Constant Matrix: (Units=GPa)
#
#
# Indices 1 2 3 4 5 6 
#
# 1 121.7817 30.5346 27.1826 0.0000 0.0000 0.0000
# 2 30.5346 93.8729 48.6774 0.0000 0.0000 0.0000
# 3 27.1826 48.6774 137.1171 0.0000 0.0000 -0.0001
# 4 0.0000 0.0000 0.0000 44.1733 0.0000 0.0000
# 5 0.0000 0.0000 0.0000 0.0000 36.6018 0.0000
# 6 0.0000 0.0000 -0.0001 0.0000 0.0000 246.0677
#
#
#
# Elastic Compliance Matrix: (Units=1/GPa)
#
#
# Indices 1 2 3 4 5 6 
#
# 1 0.009034 -0.002463 -0.000916 0.000000 0.000000 0.000000
# 2 -0.002463 0.013728 -0.004385 0.000000 0.000000 0.000000
# 3 -0.000916 -0.004385 0.009031 0.000000 0.000000 0.000000
# 4 0.000000 0.000000 0.000000 0.022638 0.000000 0.000000
# 5 0.000000 0.000000 0.000000 0.000000 0.027321 0.000000
# 6 0.000000 0.000000 0.000000 0.000000 0.000000 0.004064
#
#
# Mechanical properties :
#
#
# Convention : Reuss Voigt Hill
#
# Bulk Modulus (GPa) = 61.48793 62.84009 62.16401
# Shear Modulus (GPa) = 46.83115 81.79370 64.31243
#
# Velocity S-wave (km/s) = 4.68184 6.18742 5.48652
# Velocity P-wave (km/s) = 7.61617 8.96985 8.32059
#
# Compressibility (1/GPa) = 0.01626335
#
# Stress axis : x y z
#
# Youngs Moduli (GPa) = 110.69830 72.84479 110.72406
#
# Poissons Ratio (x) = 0.17943 0.10147
# Poissons Ratio (y) = 0.27267 0.48554
# Poissons Ratio (z) = 0.10144 0.31944
#
# Static dielectric constant tensor:
#      x y z
#    x 1.809730 0.000000 0.000000 
#    y 0.000000 1.775730 0.000000 
#    z 0.000000 0.000000 1.691420 
# 
# From -- ./inp_files/1687.got.cif
#   From: 2010.05.17/outbox.cif.g08.bks.cpg/sg23_1_cif.got.tgz:1687.got - 2010.06.04 12:02:01.
