data_PCOD9332951
_publ_section_title
;
Structure prediction by ZEFSAII (Michael W. Deem and Ramdas Pophale) SiO2 
 PCOD9332951
Probable space group: I 21 21 21
;
_chemical_formula_sum "Si O2"
_cell_formula_units_Z 56
_cell_length_a 8.620404
_cell_length_b 17.569674
_cell_length_c 20.136923
_cell_angle_alpha 90.000000
_cell_angle_beta 90.000000
_cell_angle_gamma 90.000000
_cell_volume 3049.891802
_symmetry_space_group_name_H-M "I 21 21 21"
_symmetry_group_IT_number 24
_symmetry_cell_setting 'orthorhombic'
loop_
_space_group_symop_operation_xyz
x,y,z
-x,1/2-y,z
x,-y,1/2-z
1/2-x,y,-z
1/2+x,1/2+y,1/2+z
1/2-x,-y,1/2+z
1/2+x,1/2-y,-z
-x,1/2+y,1/2-z
loop_
_atom_site_type_symbol
_atom_site_label
_atom_site_fract_x
_atom_site_fract_y
_atom_site_fract_z
Si Si1 0.009162 0.331521 0.320481
Si Si2 0.961144 0.929426 0.663640
Si Si3 0.752637 0.797684 0.297639
Si Si4 0.677095 0.017865 0.671955
Si Si5 0.523205 0.871167 0.611498
Si Si6 0.753069 0.367598 0.219040
Si Si7 0.070928 0.332427 0.970794
O O1 0.119115 0.307462 0.258895
O O2 0.101726 0.402934 0.349836
O O3 0.000000 0.250000 0.358155
O O4 0.848639 0.363971 0.288315
O O5 0.859826 0.868914 0.705926
O O6 0.956466 0.890371 0.590413
O O7 0.127263 0.929796 0.698634
O O8 0.862299 0.006896 0.665032
O O9 0.851559 0.807340 0.365197
O O10 0.677372 0.715973 0.289713
O O11 0.635874 0.000000 0.750000
O O12 0.607290 0.950870 0.626742
O O13 0.381677 0.869500 0.661723
O O14 0.478670 0.859645 0.536044
O O15 0.000000 0.250000 0.951753
O O16 0.250000 0.331271 0.000000
#
# Coordination Sequence:
#
# PCOD9332951 Si02
#       7
#     8   8   8   8   8   8   8
#     4   9  18  33  55  71  99 140 182 228 287 343
#     4  11  22  30  49  74 108 146 186 231 279 321
#     4   9  15  29  45  68  99 139 179 219 266 323
#     4  11  18  37  50  71 104 145 181 232 286 347
#     4  10  20  31  51  67 103 150 189 228 274 319
#     4  10  18  30  46  76  99 137 187 223 267 331
#     4  12  23  35  49  76 112 161 197 233 269 332
#
# _framework density 18.361307
#
# number of rings (size 3 to 8) (size 9 to 14) (size 15 to 20)
#    0.000    1.714    7.143    3.429    2.000    0.000 
#    2.571    0.000    0.000    0.000    0.000    0.000 
#    0.000    4.571    6.000    0.000    0.000    0.857 
#
# Total GULP energy -155907.060220 kJ/mol
# GULP energy per Si atom -5568.109294 kJ/mol
# Density = 1.831952 g / cm^3
# Si number density = 18.361307 Si / 1000 Ang^3
#
#
#
# Elastic Constant Matrix: (Units=GPa)
#
#
# Indices 1 2 3 4 5 6 
#
# 1 75.5681 21.4265 -6.5001 0.0000 0.0000 0.0000
# 2 21.4265 93.2787 14.6101 0.0000 0.0000 0.0000
# 3 -6.5001 14.6101 30.2190 0.0000 0.0000 0.0000
# 4 0.0000 0.0000 0.0000 20.0120 0.0000 0.0000
# 5 0.0000 0.0000 0.0000 0.0000 11.2368 0.0000
# 6 0.0000 0.0000 0.0000 0.0000 0.0000 33.1091
#
#
#
# Elastic Compliance Matrix: (Units=1/GPa)
#
#
# Indices 1 2 3 4 5 6 
#
# 1 0.014888 -0.004243 0.005254 0.000000 0.000000 0.000000
# 2 -0.004243 0.012808 -0.007105 0.000000 0.000000 0.000000
# 3 0.005254 -0.007105 0.037657 0.000000 0.000000 0.000000
# 4 0.000000 0.000000 0.000000 0.049970 0.000000 0.000000
# 5 0.000000 0.000000 0.000000 0.000000 0.088993 0.000000
# 6 0.000000 0.000000 0.000000 0.000000 0.000000 0.030203
#
#
# Mechanical properties :
#
#
# Convention : Reuss Voigt Hill
#
# Bulk Modulus (GPa) = 18.80945 28.68210 23.74577
# Shear Modulus (GPa) = 18.90868 24.17354 21.54111
#
# Velocity S-wave (km/s) = 3.21255 3.63236 3.42889
# Velocity P-wave (km/s) = 4.90173 5.76602 5.35135
#
# Compressibility (1/GPa) = 0.05316477
#
# Stress axis : x y z
#
# Youngs Moduli (GPa) = 67.16830 78.07651 26.55564
#
# Poissons Ratio (x) = 0.33126 -0.13951
# Poissons Ratio (y) = 0.28497 0.18867
# Poissons Ratio (z) = -0.35288 0.55473
#
# Static dielectric constant tensor:
#      x y z
#    x 1.734550 0.000000 0.000000 
#    y 0.000000 1.729330 0.000000 
#    z 0.000000 0.000000 1.629820 
# 
# From -- ./inp_files/31378.got.cif
#   From: 2010.05.17/outbox.cif.g08.bks.cpg/sg24_16_cif.got.tgz:31378.got - 2010.06.04 00:33:39.
