data_PCOD9332767
_publ_section_title
;
Structure prediction by ZEFSAII (Michael W. Deem and Ramdas Pophale) SiO2 
 PCOD9332767
Probable space group: I 21 21 21
;
_chemical_formula_sum "Si O2"
_cell_formula_units_Z 36
_cell_length_a 8.582720
_cell_length_b 15.197041
_cell_length_c 13.689318
_cell_angle_alpha 90.000000
_cell_angle_beta 90.000000
_cell_angle_gamma 90.000000
_cell_volume 1785.524410
_symmetry_space_group_name_H-M "I 21 21 21"
_symmetry_group_IT_number 24
_symmetry_cell_setting 'orthorhombic'
loop_
_space_group_symop_operation_xyz
x,y,z
-x,1/2-y,z
x,-y,1/2-z
1/2-x,y,-z
1/2+x,1/2+y,1/2+z
1/2-x,-y,1/2+z
1/2+x,1/2-y,-z
-x,1/2+y,1/2-z
loop_
_atom_site_type_symbol
_atom_site_label
_atom_site_fract_x
_atom_site_fract_y
_atom_site_fract_z
Si Si1 0.250000 0.380173 0.500000
Si Si2 0.500000 0.750000 0.081870
Si Si3 0.179165 0.443751 0.099362
Si Si4 0.824955 0.393010 0.689125
Si Si5 0.393476 0.500000 0.250000
Si Si6 0.681778 0.558590 0.607164
O O1 0.399263 0.320139 0.478381
O O2 0.198569 0.450385 0.416868
O O3 0.369584 0.799822 0.146303
O O4 0.289262 0.430371 0.191692
O O5 0.000550 0.420369 0.111673
O O6 0.250000 0.404118 0.000000
O O7 0.705302 0.453999 0.629183
O O8 0.769707 0.394826 0.801903
O O9 0.986424 0.448159 0.681190
O O10 0.750000 0.578021 0.500000
#
# Coordination Sequence:
#
# PCOD9332767 Si02
#       6
#     4   4   8   8   4   8
#     4  10  24  34  58  84 122 156 184 242 298 360
#     4  12  22  40  52  90 126 158 186 232 306 364
#     4  10  19  34  55  87 107 146 196 242 283 336
#     4  10  22  34  57  86 118 158 189 247 287 355
#     4  10  16  36  52  78 112 142 204 236 282 318
#     4  10  19  36  59  85 113 154 203 242 292 335
#
# _framework density 20.162143
#
# number of rings (size 3 to 8) (size 9 to 14) (size 15 to 20)
#    0.667    1.333    2.222    5.333    4.667    0.000 
#    0.000    0.000    0.000    4.000    0.000    0.000 
#    0.000    0.000    0.000    0.000    0.000    0.000 
#
# Total GULP energy -100258.223040 kJ/mol
# GULP energy per Si atom -5569.901280 kJ/mol
# Density = 2.011625 g / cm^3
# Si number density = 20.162143 Si / 1000 Ang^3
#
#
#
# Elastic Constant Matrix: (Units=GPa)
#
#
# Indices 1 2 3 4 5 6 
#
# 1 114.7327 -19.1790 18.1732 0.0000 0.0000 0.0000
# 2 -19.1790 24.2325 -18.2303 0.0000 0.0000 0.0000
# 3 18.1732 -18.2303 54.9194 0.0000 0.0000 0.0000
# 4 0.0000 0.0000 0.0000 5.7243 0.0000 0.0000
# 5 0.0000 0.0000 0.0000 0.0000 36.7331 0.0000
# 6 0.0000 0.0000 0.0000 0.0000 0.0000 16.6603
#
#
#
# Elastic Compliance Matrix: (Units=1/GPa)
#
#
# Indices 1 2 3 4 5 6 
#
# 1 0.010079 0.007288 -0.000916 0.000000 0.000000 0.000000
# 2 0.007288 0.060273 0.017596 0.000000 0.000000 0.000000
# 3 -0.000916 0.017596 0.024352 0.000000 0.000000 0.000000
# 4 0.000000 0.000000 0.000000 0.174693 0.000000 0.000000
# 5 0.000000 0.000000 0.000000 0.000000 0.027223 0.000000
# 6 0.000000 0.000000 0.000000 0.000000 0.000000 0.060023
#
#
# Mechanical properties :
#
#
# Convention : Reuss Voigt Hill
#
# Bulk Modulus (GPa) = 7.01065 17.26803 12.13934
# Shear Modulus (GPa) = 14.03489 26.03159 20.03324
#
# Velocity S-wave (km/s) = 2.64124 3.59710 3.15557
# Velocity P-wave (km/s) = 3.57578 5.08285 4.39440
#
# Compressibility (1/GPa) = 0.14264010
#
# Stress axis : x y z
#
# Youngs Moduli (GPa) = 99.21303 16.59127 41.06371
#
# Poissons Ratio (x) = -0.12092 0.03761
# Poissons Ratio (y) = -0.72309 -0.72254
# Poissons Ratio (z) = 0.09088 -0.29193
#
# Static dielectric constant tensor:
#      x y z
#    x 1.702580 0.000000 0.000000 
#    y 0.000000 1.757540 0.000000 
#    z 0.000000 0.000000 1.769110 
# 
# From -- ./inp_files/12515.got.cif
#   From: 2010.05.17/outbox.cif.g08.bks.cpg/sg24_7_cif.got.tgz:12515.got - 2010.06.04 00:33:39.
