data_PCOD9332764
_publ_section_title
;
Structure prediction by ZEFSAII (Michael W. Deem and Ramdas Pophale) SiO2 
 PCOD9332764
Probable space group: I 21 21 21
;
_chemical_formula_sum "Si O2"
_cell_formula_units_Z 44
_cell_length_a 13.804011
_cell_length_b 13.697182
_cell_length_c 11.232431
_cell_angle_alpha 90.000000
_cell_angle_beta 90.000000
_cell_angle_gamma 90.000000
_cell_volume 2123.783697
_symmetry_space_group_name_H-M "I 21 21 21"
_symmetry_group_IT_number 24
_symmetry_cell_setting 'orthorhombic'
loop_
_space_group_symop_operation_xyz
x,y,z
-x,1/2-y,z
x,-y,1/2-z
1/2-x,y,-z
1/2+x,1/2+y,1/2+z
1/2-x,-y,1/2+z
1/2+x,1/2-y,-z
-x,1/2+y,1/2-z
loop_
_atom_site_type_symbol
_atom_site_label
_atom_site_fract_x
_atom_site_fract_y
_atom_site_fract_z
Si Si1 0.500000 0.250000 0.227822
Si Si2 0.750000 0.745447 0.000000
Si Si3 0.324973 0.500000 0.250000
Si Si4 0.152291 0.802320 0.234176
Si Si5 0.534705 0.899574 0.801063
Si Si6 0.294384 0.693727 0.373682
Si Si7 0.431825 0.383955 0.427279
O O1 0.406071 0.274057 0.147326
O O2 0.500796 0.338206 0.325578
O O3 0.792574 0.685204 0.109445
O O4 0.660481 0.812136 0.047650
O O5 0.276763 0.602744 0.282925
O O6 0.387925 0.479880 0.367719
O O7 0.070423 0.881418 0.255333
O O8 0.231215 0.786372 0.334271
O O9 0.096190 0.697836 0.224344
O O10 0.576464 0.000000 0.750000
O O11 0.523398 0.902134 0.944109
O O12 0.250000 0.663308 0.500000
#
# Coordination Sequence:
#
# PCOD9332764 Si02
#       7
#     4   4   4   8   8   8   8
#     4  10  20  44  62  92 128 172 218 262 332 398
#     4  10  16  34  64  90 120 154 218 260 304 386
#     4  10  22  36  60  96 124 166 210 268 330 380
#     4  10  21  38  63  94 121 168 210 261 333 371
#     4  10  23  37  62  96 132 165 210 269 318 384
#     4  11  25  39  67  95 130 168 214 272 333 391
#     4  10  20  36  61  93 123 166 211 261 323 379
#
# _framework density 20.717741
#
# number of rings (size 3 to 8) (size 9 to 14) (size 15 to 20)
#    0.000    1.818    3.636    2.182    5.091    1.455 
#    3.273    0.000   10.000    0.000    0.000    0.000 
#    0.000    0.000    0.000    0.000    0.000    0.000 
#
# Total GULP energy -122565.718937 kJ/mol
# GULP energy per Si atom -5571.169043 kJ/mol
# Density = 2.067059 g / cm^3
# Si number density = 20.717741 Si / 1000 Ang^3
#
#
#
# Elastic Constant Matrix: (Units=GPa)
#
#
# Indices 1 2 3 4 5 6 
#
# 1 101.7185 23.0917 25.8695 0.0000 0.0000 0.0000
# 2 23.0917 40.1759 6.7359 0.0000 0.0000 0.0000
# 3 25.8695 6.7359 70.0079 0.0000 0.0000 0.0000
# 4 0.0000 0.0000 0.0000 11.5507 0.0000 0.0000
# 5 0.0000 0.0000 0.0000 0.0000 30.7695 0.0000
# 6 0.0000 0.0000 0.0000 0.0000 0.0000 29.3607
#
#
#
# Elastic Compliance Matrix: (Units=1/GPa)
#
#
# Indices 1 2 3 4 5 6 
#
# 1 0.012282 -0.006402 -0.003922 0.000000 0.000000 0.000000
# 2 -0.006402 0.028635 -0.000390 0.000000 0.000000 0.000000
# 3 -0.003922 -0.000390 0.015771 0.000000 0.000000 0.000000
# 4 0.000000 0.000000 0.000000 0.086575 0.000000 0.000000
# 5 0.000000 0.000000 0.000000 0.000000 0.032500 0.000000
# 6 0.000000 0.000000 0.000000 0.000000 0.000000 0.034059
#
#
# Mechanical properties :
#
#
# Convention : Reuss Voigt Hill
#
# Bulk Modulus (GPa) = 28.36012 35.92183 32.14098
# Shear Modulus (GPa) = 20.57588 24.74986 22.66287
#
# Velocity S-wave (km/s) = 3.15485 3.46008 3.31098
# Velocity P-wave (km/s) = 5.19512 5.77401 5.49220
#
# Compressibility (1/GPa) = 0.03526078
#
# Stress axis : x y z
#
# Youngs Moduli (GPa) = 81.42068 34.92194 63.40732
#
# Poissons Ratio (x) = 0.22355 0.24871
# Poissons Ratio (y) = 0.52122 0.02471
# Poissons Ratio (z) = 0.31937 0.01361
#
# Static dielectric constant tensor:
#      x y z
#    x 1.803630 0.000000 0.000000 
#    y 0.000000 1.741050 0.000000 
#    z 0.000000 0.000000 1.782680 
# 
# From -- ./inp_files/20695.got.cif
#   From: 2010.05.17/outbox.cif.g08.bks.cpg/sg24_11_cif.got.tgz:20695.got - 2010.06.04 00:33:39.
