data_PCOD9332562
_publ_section_title
;
Structure prediction by ZEFSAII (Michael W. Deem and Ramdas Pophale) SiO2 
 PCOD9332562
Probable space group: I 2 2 2
;
_chemical_formula_sum "Si O2"
_cell_formula_units_Z 26
_cell_length_a 14.690236
_cell_length_b 5.035543
_cell_length_c 14.545660
_cell_angle_alpha 90.000000
_cell_angle_beta 90.000000
_cell_angle_gamma 90.000000
_cell_volume 1075.990690
_symmetry_space_group_name_H-M "I 2 2 2"
_symmetry_group_IT_number 23
_symmetry_cell_setting 'orthorhombic'
loop_
_space_group_symop_operation_xyz
x,y,z
-x,-y,z
x,-y,-z
-x,y,-z
1/2+x,1/2+y,1/2+z
1/2-x,1/2-y,1/2+z
1/2+x,1/2-y,1/2-z
1/2-x,1/2+y,1/2-z
loop_
_atom_site_type_symbol
_atom_site_label
_atom_site_fract_x
_atom_site_fract_y
_atom_site_fract_z
Si Si1 0.600902 0.891260 0.236763
Si Si2 0.500000 0.500000 0.000000
Si Si3 0.654306 0.633785 0.868566
Si Si4 0.854390 0.261483 0.060029
O O1 0.636679 0.661524 0.169489
O O2 0.603982 0.770763 0.338490
O O3 0.500000 0.000000 0.220131
O O4 0.658103 0.157219 0.215762
O O5 0.568504 0.672176 0.936898
O O6 0.747551 0.680076 0.921792
O O7 0.892554 0.500000 0.000000
O O8 0.865917 0.000000 0.000000
#
# Coordination Sequence:
#
# PCOD9332562 Si02
#       4
#     8   2   8   8
#     4  12  25  46  69 102 143 193 237 302 372 440
#     4  12  24  42  76 110 140 186 236 318 372 454
#     4  12  25  44  70 105 145 181 239 305 385 436
#     4  12  26  45  72 103 142 192 249 303 366 447
#
# _framework density 24.163775999999999
#
# number of rings (size 3 to 8) (size 9 to 14) (size 15 to 20)
#    0.000    0.000    4.615    5.538    0.000    1.846 
#    0.000    1.538    0.000    0.000    0.000    0.000 
#    0.000    0.000    0.000    0.000    0.000    0.000 
#
# Total GULP energy -72793.710446 kJ/mol
# GULP energy per Si atom -5599.516188 kJ/mol
# Density = 2.410878 g / cm^3
# Si number density = 24.163776 Si / 1000 Ang^3
#
#
#
# Elastic Constant Matrix: (Units=GPa)
#
#
# Indices 1 2 3 4 5 6 
#
# 1 65.1746 29.6183 11.5046 0.0000 0.0000 0.0000
# 2 29.6183 178.2920 46.5741 0.0000 0.0000 0.0000
# 3 11.5046 46.5741 105.3676 0.0000 0.0000 0.0000
# 4 0.0000 0.0000 0.0000 63.4722 0.0000 0.0000
# 5 0.0000 0.0000 0.0000 0.0000 44.3391 0.0000
# 6 0.0000 0.0000 0.0000 0.0000 0.0000 53.0251
#
#
#
# Elastic Compliance Matrix: (Units=1/GPa)
#
#
# Indices 1 2 3 4 5 6 
#
# 1 0.016638 -0.002588 -0.000673 0.000000 0.000000 0.000000
# 2 -0.002588 0.006744 -0.002698 0.000000 0.000000 0.000000
# 3 -0.000673 -0.002698 0.010757 0.000000 0.000000 0.000000
# 4 0.000000 0.000000 0.000000 0.015755 0.000000 0.000000
# 5 0.000000 0.000000 0.000000 0.000000 0.022553 0.000000
# 6 0.000000 0.000000 0.000000 0.000000 0.000000 0.018859
#
#
# Mechanical properties :
#
#
# Convention : Reuss Voigt Hill
#
# Bulk Modulus (GPa) = 45.00354 58.24757 51.62556
# Shear Modulus (GPa) = 45.19531 49.57641 47.38586
#
# Velocity S-wave (km/s) = 4.32947 4.53446 4.43315
# Velocity P-wave (km/s) = 6.60737 7.18142 6.90037
#
# Compressibility (1/GPa) = 0.02222047
#
# Stress axis : x y z
#
# Youngs Moduli (GPa) = 60.10201 148.28930 92.96576
#
# Poissons Ratio (x) = 0.38382 0.06253
# Poissons Ratio (y) = 0.15556 0.25084
# Poissons Ratio (z) = 0.04042 0.40011
#
# Static dielectric constant tensor:
#      x y z
#    x 1.981780 0.000000 0.000000 
#    y 0.000000 1.886670 0.000000 
#    z 0.000000 0.000000 1.932470 
# 
# From -- ./inp_files/17120.got.cif
#   From: 2010.05.17/outbox.cif.g08.bks.cpg/sg23_9_cif.got.tgz:17120.got - 2010.06.04 12:02:01.
