data_PCOD9332898
_publ_section_title
;
Structure prediction by ZEFSAII (Michael W. Deem and Ramdas Pophale) SiO2 
 PCOD9332898
Probable space group: I 21 21 21
;
_chemical_formula_sum "Si O2"
_cell_formula_units_Z 40
_cell_length_a 7.864876
_cell_length_b 8.779142
_cell_length_c 24.862311
_cell_angle_alpha 90.000000
_cell_angle_beta 90.000000
_cell_angle_gamma 90.000000
_cell_volume 1716.664587
_symmetry_space_group_name_H-M "I 21 21 21"
_symmetry_group_IT_number 24
_symmetry_cell_setting 'orthorhombic'
loop_
_space_group_symop_operation_xyz
x,y,z
-x,1/2-y,z
x,-y,1/2-z
1/2-x,y,-z
1/2+x,1/2+y,1/2+z
1/2-x,-y,1/2+z
1/2+x,1/2-y,-z
-x,1/2+y,1/2-z
loop_
_atom_site_type_symbol
_atom_site_label
_atom_site_fract_x
_atom_site_fract_y
_atom_site_fract_z
Si Si1 0.661239 0.544282 0.082128
Si Si2 0.269126 0.083690 0.806658
Si Si3 0.506544 0.430481 0.982148
Si Si4 0.181618 0.436040 0.191699
Si Si5 0.175074 0.649907 0.094825
O O1 0.671856 0.493713 0.143772
O O2 0.689992 0.723886 0.078371
O O3 0.825290 0.473217 0.051866
O O4 0.514779 0.482592 0.043897
O O5 0.244142 0.265770 0.810530
O O6 0.474613 0.068054 0.813789
O O7 0.228259 0.000000 0.750000
O O8 0.500000 0.250000 0.979739
O O9 0.368131 0.526795 0.950231
O O10 0.222095 0.500000 0.250000
O O11 0.234458 0.555887 0.146556
O O12 0.000000 0.750000 0.106075
#
# Coordination Sequence:
#
# PCOD9332898 Si02
#       5
#     8   8   8   8   8
#     4  10  20  34  53  79 109 142 176 220 272 317
#     4  10  18  29  48  75 109 142 179 216 267 329
#     4  10  20  36  54  77 107 142 184 221 262 320
#     4  10  18  26  47  75 109 147 169 208 278 333
#     4  10  18  32  50  73 113 141 176 219 261 325
#
# _framework density 23.300999999999998
#
# number of rings (size 3 to 8) (size 9 to 14) (size 15 to 20)
#    0.000    2.000    4.000    2.400    2.800    0.000 
#    0.000   22.000    0.000    0.000    0.000    8.400 
#    0.000    0.000    0.000    0.200    0.000    0.000 
#
# Total GULP energy -111896.326520 kJ/mol
# GULP energy per Si atom -5594.816326 kJ/mol
# Density = 2.324797 g / cm^3
# Si number density = 23.301000 Si / 1000 Ang^3
#
#
#
# Elastic Constant Matrix: (Units=GPa)
#
#
# Indices 1 2 3 4 5 6 
#
# 1 65.2414 34.0988 32.8143 0.0000 0.0000 0.0000
# 2 34.0988 255.2984 108.2619 0.0000 0.0000 0.0000
# 3 32.8143 108.2619 208.7971 0.0000 0.0000 0.0000
# 4 0.0000 0.0000 0.0000 41.4796 0.0000 0.0000
# 5 0.0000 0.0000 0.0000 0.0000 -13.8335 0.0000
# 6 0.0000 0.0000 0.0000 0.0000 0.0000 -2.6996
#
#
#
# Elastic Compliance Matrix: (Units=1/GPa)
#
#
# Indices 1 2 3 4 5 6 
#
# 1 0.017059 -0.001463 -0.001922 0.000000 0.000000 0.000000
# 2 -0.001463 0.005147 -0.002438 0.000000 0.000000 0.000000
# 3 -0.001922 -0.002438 0.006356 0.000000 0.000000 0.000000
# 4 0.000000 0.000000 0.000000 0.024108 0.000000 0.000000
# 5 0.000000 0.000000 0.000000 0.000000 -0.072288 0.000000
# 6 0.000000 0.000000 0.000000 0.000000 0.000000 -0.370426
#
#
# Mechanical properties :
#
#
# Convention : Reuss Voigt Hill
#
# Bulk Modulus (GPa) = 59.12464 97.74298 78.43381
# Shear Modulus (GPa) = -13.41352 28.60009 7.59329
#
# Velocity S-wave (km/s) = -2.40190 3.50725 1.80717
# Velocity P-wave (km/s) = 4.21156 7.64462 6.17160
#
# Compressibility (1/GPa) = 0.01691342
#
# Stress axis : x y z
#
# Youngs Moduli (GPa) = 58.61879 194.30648 157.33635
#
# Poissons Ratio (x) = 0.28434 0.30244
# Poissons Ratio (y) = 0.08578 0.38366
# Poissons Ratio (z) = 0.11268 0.47382
#
# Static dielectric constant tensor:
#      x y z
#    x 2.151010 0.000000 0.000000 
#    y 0.000000 1.849700 0.000000 
#    z 0.000000 0.000000 1.838690 
# 
# From -- ./inp_files/9293.got.cif
#   From: 2010.05.17/outbox.cif.g08.bks.cpg/sg24_5_cif.got.tgz:9293.got - 2010.06.04 00:33:39.
