data_PCOD9332577
_publ_section_title
;
Structure prediction by ZEFSAII (Michael W. Deem and Ramdas Pophale) SiO2 
 PCOD9332577
Probable space group: I 2 2 2
;
_chemical_formula_sum "Si O2"
_cell_formula_units_Z 42
_cell_length_a 13.863097
_cell_length_b 8.498513
_cell_length_c 13.878453
_cell_angle_alpha 90.000000
_cell_angle_beta 90.000000
_cell_angle_gamma 90.000000
_cell_volume 1635.099795
_symmetry_space_group_name_H-M "I 2 2 2"
_symmetry_group_IT_number 23
_symmetry_cell_setting 'orthorhombic'
loop_
_space_group_symop_operation_xyz
x,y,z
-x,-y,z
x,-y,-z
-x,y,-z
1/2+x,1/2+y,1/2+z
1/2-x,1/2-y,1/2+z
1/2+x,1/2-y,1/2-z
1/2-x,1/2+y,1/2-z
loop_
_atom_site_type_symbol
_atom_site_label
_atom_site_fract_x
_atom_site_fract_y
_atom_site_fract_z
Si Si1 0.926327 0.113190 0.749924
Si Si2 0.788536 0.675799 0.473568
Si Si3 0.342530 0.135814 0.612578
Si Si4 0.063301 0.338973 0.631178
Si Si5 0.739960 0.852566 0.285129
Si Si6 0.500000 0.000000 0.500000
O O1 0.852888 0.233734 0.804228
O O2 0.833826 0.024143 0.708838
O O3 0.993594 0.204003 0.674608
O O4 0.000000 0.000000 0.805141
O O5 0.752938 0.500000 0.500000
O O6 0.730134 0.804397 0.533148
O O7 0.895204 0.681363 0.522361
O O8 0.771216 0.712019 0.361005
O O9 0.445931 0.122953 0.566825
O O10 0.328701 0.961847 0.648703
O O11 0.163037 0.339242 0.695507
O O12 0.000000 0.500000 0.641898
#
# Coordination Sequence:
#
# PCOD9332577 Si02
#       6
#     8   8   8   8   8   2
#     4  12  28  43  79 111 147 199 270 326 392 485
#     4  12  28  45  79 115 155 201 265 334 399 482
#     4  12  25  47  73 107 150 201 252 325 404 481
#     4  12  26  51  80 115 159 214 262 328 413 491
#     4  12  26  51  77 109 162 211 256 330 417 487
#     4  12  24  48  74 100 142 202 254 304 408 484
#
# _framework density 25.686505
#
# number of rings (size 3 to 8) (size 9 to 14) (size 15 to 20)
#    0.000    0.000    5.714    3.429    2.667    2.667 
#    0.000    0.952    0.000    0.000    0.000    0.000 
#    0.000    0.000    0.000    0.000    0.000    0.000 
#
# Total GULP energy -117019.963944 kJ/mol
# GULP energy per Si atom -5572.379235 kJ/mol
# Density = 2.562804 g / cm^3
# Si number density = 25.686505 Si / 1000 Ang^3
#
#
#
# Elastic Constant Matrix: (Units=GPa)
#
#
# Indices 1 2 3 4 5 6 
#
# 1 163.9957 1.1633 36.4305 0.0000 0.0000 0.0000
# 2 1.1633 38.2867 3.6545 0.0000 0.0000 0.0000
# 3 36.4305 3.6545 91.1285 0.0000 0.0000 0.0000
# 4 0.0000 0.0000 0.0000 19.0013 0.0000 0.0000
# 5 0.0000 0.0000 0.0000 0.0000 89.7535 0.0000
# 6 0.0000 0.0000 0.0000 0.0000 0.0000 46.1901
#
#
#
# Elastic Compliance Matrix: (Units=1/GPa)
#
#
# Indices 1 2 3 4 5 6 
#
# 1 0.006692 0.000052 -0.002677 0.000000 0.000000 0.000000
# 2 0.000052 0.026220 -0.001072 0.000000 0.000000 0.000000
# 3 -0.002677 -0.001072 0.012087 0.000000 0.000000 0.000000
# 4 0.000000 0.000000 0.000000 0.052628 0.000000 0.000000
# 5 0.000000 0.000000 0.000000 0.000000 0.011142 0.000000
# 6 0.000000 0.000000 0.000000 0.000000 0.000000 0.021650
#
#
# Mechanical properties :
#
#
# Convention : Reuss Voigt Hill
#
# Bulk Modulus (GPa) = 26.59332 41.76752 34.18042
# Shear Modulus (GPa) = 33.25631 47.79981 40.52806
#
# Velocity S-wave (km/s) = 3.60210 4.31849 3.97646
# Velocity P-wave (km/s) = 5.26077 6.41573 5.86674
#
# Compressibility (1/GPa) = 0.03760342
#
# Stress axis : x y z
#
# Youngs Moduli (GPa) = 149.42949 38.13952 82.73442
#
# Poissons Ratio (x) = -0.00199 0.22151
# Poissons Ratio (y) = -0.00780 0.08872
# Poissons Ratio (z) = 0.40008 0.04090
#
# Static dielectric constant tensor:
#      x y z
#    x 2.095140 0.000000 0.000000 
#    y 0.000000 1.944170 0.000000 
#    z 0.000000 0.000000 1.984190 
# 
# From -- ./inp_files/9620.got.cif
#   From: 2010.05.17/outbox.cif.g08.bks.cpg/sg23_5_cif.got.tgz:9620.got - 2010.06.04 12:02:01.
