data_PCOD9332975
_publ_section_title
;
Structure prediction by ZEFSAII (Michael W. Deem and Ramdas Pophale) SiO2 
 PCOD9332975
Probable space group: I 21 21 21
;
_chemical_formula_sum "Si O2"
_cell_formula_units_Z 60
_cell_length_a 18.263266
_cell_length_b 16.479771
_cell_length_c 11.171924
_cell_angle_alpha 90.000000
_cell_angle_beta 90.000000
_cell_angle_gamma 90.000000
_cell_volume 3362.463585
_symmetry_space_group_name_H-M "I 21 21 21"
_symmetry_group_IT_number 24
_symmetry_cell_setting 'orthorhombic'
loop_
_space_group_symop_operation_xyz
x,y,z
-x,1/2-y,z
x,-y,1/2-z
1/2-x,y,-z
1/2+x,1/2+y,1/2+z
1/2-x,-y,1/2+z
1/2+x,1/2-y,-z
-x,1/2+y,1/2-z
loop_
_atom_site_type_symbol
_atom_site_label
_atom_site_fract_x
_atom_site_fract_y
_atom_site_fract_z
Si Si1 0.567917 0.810101 0.280571
Si Si2 0.028453 0.434292 0.566868
Si Si3 0.912377 0.500000 0.750000
Si Si4 0.934486 0.312422 0.470477
Si Si5 0.209538 0.741417 0.128232
Si Si6 0.281533 0.587797 0.695808
Si Si7 0.633872 0.076827 0.041738
Si Si8 0.660290 0.333151 0.287446
O O1 0.500000 0.750000 0.283079
O O2 0.559106 0.867483 0.163302
O O3 0.574345 0.865574 0.396573
O O4 0.635892 0.748309 0.280687
O O5 0.096539 0.489102 0.530103
O O6 0.967847 0.484888 0.640564
O O7 0.982472 0.394346 0.458262
O O8 0.863278 0.419238 0.766773
O O9 0.873691 0.272623 0.385628
O O10 0.887747 0.327103 0.591096
O O11 0.000000 0.250000 0.487640
O O12 0.215335 0.660255 0.207912
O O13 0.255692 0.816731 0.182575
O O14 0.250000 0.724819 0.000000
O O15 0.300680 0.500000 0.750000
O O16 0.200984 0.576956 0.636406
O O17 0.335177 0.605615 0.584639
#
# Coordination Sequence:
#
# PCOD9332975 Si02
#       8
#     8   8   4   8   8   8   8   8
#     4  12  17  32  59  90 121 153 188 244 304 364
#     4  11  18  32  56  95 121 148 193 249 313 343
#     4  10  18  30  56  90 118 140 186 260 296 340
#     4  10  19  32  56  87 113 151 194 245 287 345
#     4  10  23  38  61  85 118 162 202 254 294 359
#     4  11  25  39  55  86 123 162 201 238 310 379
#     4  11  24  36  59  88 126 155 191 256 306 371
#     4  10  18  33  55  87 119 143 194 243 302 348
#
# _framework density 17.844059000000001
#
# number of rings (size 3 to 8) (size 9 to 14) (size 15 to 20)
#    0.000    1.333    6.667    0.800    3.733    0.000 
#    0.000    0.667    0.000   11.200    0.000    0.000 
#    0.000    0.000    0.000    0.000    0.000    0.000 
#
# Total GULP energy -167059.008633 kJ/mol
# GULP energy per Si atom -5568.633621 kJ/mol
# Density = 1.780344 g / cm^3
# Si number density = 17.844059 Si / 1000 Ang^3
#
#
#
# Elastic Constant Matrix: (Units=GPa)
#
#
# Indices 1 2 3 4 5 6 
#
# 1 87.5993 48.8729 25.3346 0.0000 0.0000 0.0000
# 2 48.8729 112.0350 34.8130 0.0000 0.0000 0.0000
# 3 25.3346 34.8130 51.0971 0.0000 0.0000 0.0000
# 4 0.0000 0.0000 0.0000 14.5851 0.0000 0.0000
# 5 0.0000 0.0000 0.0000 0.0000 15.7889 0.0000
# 6 0.0000 0.0000 0.0000 0.0000 0.0000 27.4750
#
#
#
# Elastic Compliance Matrix: (Units=1/GPa)
#
#
# Indices 1 2 3 4 5 6 
#
# 1 0.015693 -0.005617 -0.003954 0.000000 0.000000 0.000000
# 2 -0.005617 0.013334 -0.006299 0.000000 0.000000 0.000000
# 3 -0.003954 -0.006299 0.025823 0.000000 0.000000 0.000000
# 4 0.000000 0.000000 0.000000 0.068563 0.000000 0.000000
# 5 0.000000 0.000000 0.000000 0.000000 0.063336 0.000000
# 6 0.000000 0.000000 0.000000 0.000000 0.000000 0.036397
#
#
# Mechanical properties :
#
#
# Convention : Reuss Voigt Hill
#
# Bulk Modulus (GPa) = 43.27344 52.08582 47.67963
# Shear Modulus (GPa) = 19.04125 21.01719 20.02922
#
# Velocity S-wave (km/s) = 3.27018 3.43567 3.35395
# Velocity P-wave (km/s) = 6.20986 6.70755 6.46350
#
# Compressibility (1/GPa) = 0.02310886
#
# Stress axis : x y z
#
# Youngs Moduli (GPa) = 63.72270 74.99892 38.72579
#
# Poissons Ratio (x) = 0.42128 0.15311
# Poissons Ratio (y) = 0.35794 0.24394
# Poissons Ratio (z) = 0.25194 0.47243
#
# Static dielectric constant tensor:
#      x y z
#    x 1.669070 0.000000 0.000000 
#    y 0.000000 1.655550 0.000000 
#    z 0.000000 0.000000 1.617720 
# 
# From -- ./inp_files/21675.got.cif
#   From: 2010.05.17/outbox.cif.g08.bks.cpg/sg24_11_cif.got.tgz:21675.got - 2010.06.04 00:33:39.
