data_PCOD9332979
_publ_section_title
;
Structure prediction by ZEFSAII (Michael W. Deem and Ramdas Pophale) SiO2 
 PCOD9332979
Probable space group: I 21 21 21
;
_chemical_formula_sum "Si O2"
_cell_formula_units_Z 60
_cell_length_a 12.188308
_cell_length_b 32.672201
_cell_length_c 8.741015
_cell_angle_alpha 90.000000
_cell_angle_beta 90.000000
_cell_angle_gamma 90.000000
_cell_volume 3480.836931
_symmetry_space_group_name_H-M "I 21 21 21"
_symmetry_group_IT_number 24
_symmetry_cell_setting 'orthorhombic'
loop_
_space_group_symop_operation_xyz
x,y,z
-x,1/2-y,z
x,-y,1/2-z
1/2-x,y,-z
1/2+x,1/2+y,1/2+z
1/2-x,-y,1/2+z
1/2+x,1/2-y,-z
-x,1/2+y,1/2-z
loop_
_atom_site_type_symbol
_atom_site_label
_atom_site_fract_x
_atom_site_fract_y
_atom_site_fract_z
Si Si1 0.401846 0.124640 0.160892
Si Si2 0.590871 0.279572 0.656812
Si Si3 0.770056 0.043786 0.318453
Si Si4 0.147443 0.134653 0.195563
Si Si5 0.974883 0.909958 0.102099
Si Si6 0.540216 0.828080 0.095136
Si Si7 0.250000 0.720006 0.000000
Si Si8 0.979252 0.047132 0.709543
O O1 0.276969 0.128206 0.220644
O O2 0.481486 0.156814 0.249271
O O3 0.448765 0.079828 0.199580
O O4 0.389229 0.130674 0.980119
O O5 0.500000 0.250000 0.730183
O O6 0.620303 0.319383 0.751791
O O7 0.539525 0.297466 0.498484
O O8 0.690511 0.250024 0.618256
O O9 0.750000 0.039372 0.500000
O O10 0.869406 0.075436 0.301836
O O11 0.650081 0.055531 0.255395
O O12 0.801285 0.000000 0.250000
O O13 0.077484 0.102478 0.294856
O O14 0.947148 0.869189 0.005932
O O15 0.997523 0.943754 0.971082
O O16 0.659015 0.806804 0.089120
O O17 0.000611 0.000000 0.750000
#
# Coordination Sequence:
#
# PCOD9332979 Si02
#       8
#     8   8   8   8   8   8   4   8
#     4  10  21  37  55  77 109 149 184 226 270 326
#     4   9  18  35  54  79 106 138 176 225 273 326
#     4   9  18  32  52  78 109 138 173 219 272 316
#     4  10  21  38  54  76 111 148 185 221 273 332
#     4   9  19  33  56  78 107 144 179 221 271 324
#     4   9  19  32  56  81 106 140 181 225 270 327
#     4  10  18  30  60  84 106 130 186 234 272 326
#     4   9  19  35  54  79 110 140 181 228 271 318
#
# _framework density 17.237234000000001
#
# number of rings (size 3 to 8) (size 9 to 14) (size 15 to 20)
#    0.000    2.667    0.000    0.800    4.667    7.467 
#    0.000    8.000    0.000    0.000    0.000    0.000 
#    0.000    0.000    0.000    0.000    0.000    0.000 
#
# Total GULP energy -167125.571364 kJ/mol
# GULP energy per Si atom -5570.852379 kJ/mol
# Density = 1.719800 g / cm^3
# Si number density = 17.237234 Si / 1000 Ang^3
#
#
#
# Elastic Constant Matrix: (Units=GPa)
#
#
# Indices 1 2 3 4 5 6 
#
# 1 132.9962 76.1635 58.7870 0.0001 -0.0001 0.0000
# 2 76.1635 109.8913 44.7347 0.0006 0.0000 -0.0001
# 3 58.7870 44.7347 46.7461 0.0004 0.0014 -0.0010
# 4 0.0001 0.0006 0.0004 16.1414 -0.0004 -0.0005
# 5 -0.0001 0.0000 0.0014 -0.0004 22.1680 0.0001
# 6 0.0000 -0.0001 -0.0010 -0.0005 0.0001 26.3565
#
#
#
# Elastic Compliance Matrix: (Units=1/GPa)
#
#
# Indices 1 2 3 4 5 6 
#
# 1 0.018811 -0.005582 -0.018315 0.000001 0.000001 -0.000001
# 2 -0.005582 0.016564 -0.008831 0.000000 0.000000 0.000000
# 3 -0.018315 -0.008831 0.052876 -0.000001 -0.000003 0.000002
# 4 0.000001 0.000000 -0.000001 0.061953 0.000001 0.000001
# 5 0.000001 0.000000 -0.000003 0.000001 0.045110 0.000000
# 6 -0.000001 0.000000 0.000002 0.000001 0.000000 0.037941
#
#
# Mechanical properties :
#
#
# Convention : Reuss Voigt Hill
#
# Bulk Modulus (GPa) = 43.86993 72.11156 57.99074
# Shear Modulus (GPa) = 16.32342 20.26307 18.29324
#
# Velocity S-wave (km/s) = 3.08065 3.43234 3.26124
# Velocity P-wave (km/s) = 6.17736 7.59167 6.92074
#
# Compressibility (1/GPa) = 0.02279466
#
# Stress axis : x y z
#
# Youngs Moduli (GPa) = 53.15979 60.37284 18.91234
#
# Poissons Ratio (x) = 0.33701 0.34637
# Poissons Ratio (y) = 0.29674 0.16702
# Poissons Ratio (z) = 0.97361 0.53316
#
# Static dielectric constant tensor:
#      x y z
#    x 1.688040 0.000000 0.000000 
#    y 0.000000 1.576350 0.000000 
#    z 0.000000 0.000000 1.581460 
# 
# From -- ./inp_files/11607.got.cif
#   From: 2010.05.17/outbox.cif.g08.bks.cpg/sg24_6_cif.got.tgz:11607.got - 2010.06.04 00:33:39.
