data_PCOD9332219
_publ_section_title
;
Structure prediction by ZEFSAII (Michael W. Deem and Ramdas Pophale) SiO2 
 PCOD9332219
Probable space group: I 2 2 2
;
_chemical_formula_sum "Si O2"
_cell_formula_units_Z 34
_cell_length_a 10.489292
_cell_length_b 25.416116
_cell_length_c 5.723577
_cell_angle_alpha 90.000000
_cell_angle_beta 90.000000
_cell_angle_gamma 90.000000
_cell_volume 1525.888814
_symmetry_space_group_name_H-M "I 2 2 2"
_symmetry_group_IT_number 23
_symmetry_cell_setting 'orthorhombic'
loop_
_space_group_symop_operation_xyz
x,y,z
-x,-y,z
x,-y,-z
-x,y,-z
1/2+x,1/2+y,1/2+z
1/2-x,1/2-y,1/2+z
1/2+x,1/2-y,1/2-z
1/2-x,1/2+y,1/2-z
loop_
_atom_site_type_symbol
_atom_site_label
_atom_site_fract_x
_atom_site_fract_y
_atom_site_fract_z
Si Si1 0.000000 0.000000 0.000000
Si Si2 0.815563 0.176185 0.074518
Si Si3 0.639642 0.129617 0.470806
Si Si4 0.110641 0.091203 0.304149
Si Si5 0.391310 0.770971 0.813459
O O1 0.081207 0.037679 0.167952
O O2 0.705539 0.146918 0.226064
O O3 0.908481 0.210923 0.233933
O O4 0.877061 0.136131 0.894066
O O5 0.744404 0.222995 0.937837
O O6 0.500000 0.103960 0.500000
O O7 0.750847 0.093825 0.578731
O O8 0.617643 0.183208 0.620842
O O9 0.000000 0.099515 0.500000
O O10 0.500000 0.783549 0.000000
#
# Coordination Sequence:
#
# PCOD9332219 Si02
#       5
#     2   8   8   8   8
#     4  12  26  56  80 104 136 188 254 350 396 468
#     4  11  23  42  66 107 149 207 250 313 368 457
#     4  11  23  44  68 107 148 201 244 311 381 458
#     4  11  27  49  77 107 141 193 258 327 404 462
#     4  11  22  39  61  97 153 204 255 297 360 445
#
# _framework density 22.282095000000002
#
# number of rings (size 3 to 8) (size 9 to 14) (size 15 to 20)
#    0.000    0.941    4.706    1.765    0.000    2.824 
#   10.588    0.000    0.000   19.765    0.000    0.000 
#    0.000    0.000    0.000    0.000    0.000    0.000 
#
# Total GULP energy -94970.699813 kJ/mol
# GULP energy per Si atom -5586.511754 kJ/mol
# Density = 2.223138 g / cm^3
# Si number density = 22.282095 Si / 1000 Ang^3
#
#
#
# Elastic Constant Matrix: (Units=GPa)
#
#
# Indices 1 2 3 4 5 6 
#
# 1 181.0067 69.7338 70.6350 0.0015 -0.0009 -0.0019
# 2 69.7338 124.8209 62.1352 0.0069 -0.0015 -0.0038
# 3 70.6350 62.1352 127.7257 0.0086 -0.0018 -0.0038
# 4 0.0015 0.0069 0.0086 42.8582 -0.0015 -0.0017
# 5 -0.0009 -0.0015 -0.0018 -0.0015 49.7613 -0.0002
# 6 -0.0019 -0.0038 -0.0038 -0.0017 -0.0002 45.1699
#
#
#
# Elastic Compliance Matrix: (Units=1/GPa)
#
#
# Indices 1 2 3 4 5 6 
#
# 1 0.007769 -0.002905 -0.002883 0.000001 0.000000 0.000000
# 2 -0.002905 0.011658 -0.004065 -0.000001 0.000000 0.000001
# 3 -0.002883 -0.004065 0.011401 -0.000002 0.000000 0.000000
# 4 0.000001 -0.000001 -0.000002 0.023333 0.000001 0.000001
# 5 0.000000 0.000000 0.000000 0.000001 0.020096 0.000000
# 6 0.000000 0.000001 0.000000 0.000001 0.000000 0.022139
#
#
# Mechanical properties :
#
#
# Convention : Reuss Voigt Hill
#
# Bulk Modulus (GPa) = 89.91125 93.17350 91.54237
# Shear Modulus (GPa) = 41.73333 42.96117 42.34725
#
# Velocity S-wave (km/s) = 4.33246 4.39573 4.36421
# Velocity P-wave (km/s) = 8.09110 8.22614 8.15890
#
# Compressibility (1/GPa) = 0.01112208
#
# Stress axis : x y z
#
# Youngs Moduli (GPa) = 128.71738 85.77928 87.71104
#
# Poissons Ratio (x) = 0.24919 0.25288
# Poissons Ratio (y) = 0.37393 0.35652
# Poissons Ratio (z) = 0.37111 0.34866
#
# Static dielectric constant tensor:
#      x y z
#    x 1.928540 0.000000 0.000000 
#    y 0.000000 1.758110 0.000000 
#    z 0.000000 0.000000 1.959570 
# 
# From -- ./inp_files/1590.got.cif
#   From: 2010.05.17/outbox.cif.g08.bks.cpg/sg23_1_cif.got.tgz:1590.got - 2010.06.04 12:02:01.
