data_PCOD9332260
_publ_section_title
;
Structure prediction by ZEFSAII (Michael W. Deem and Ramdas Pophale) SiO2 
 PCOD9332260
Probable space group: I 2 2 2
;
_chemical_formula_sum "Si O2"
_cell_formula_units_Z 32
_cell_length_a 19.111841
_cell_length_b 8.283790
_cell_length_c 7.609906
_cell_angle_alpha 90.000000
_cell_angle_beta 90.000000
_cell_angle_gamma 90.000000
_cell_volume 1204.788731
_symmetry_space_group_name_H-M "I 2 2 2"
_symmetry_group_IT_number 23
_symmetry_cell_setting 'orthorhombic'
loop_
_space_group_symop_operation_xyz
x,y,z
-x,-y,z
x,-y,-z
-x,y,-z
1/2+x,1/2+y,1/2+z
1/2-x,1/2-y,1/2+z
1/2+x,1/2-y,1/2-z
1/2-x,1/2+y,1/2-z
loop_
_atom_site_type_symbol
_atom_site_label
_atom_site_fract_x
_atom_site_fract_y
_atom_site_fract_z
Si Si1 0.023798 0.756525 0.696734
Si Si2 0.898093 0.440426 0.197136
Si Si3 0.337020 0.391807 0.746697
Si Si4 0.288981 0.725213 0.870678
O O1 0.068481 0.589581 0.696386
O O2 0.079503 0.882818 0.773288
O O3 0.000000 0.799859 0.500000
O O4 0.954650 0.705025 0.800999
O O5 0.829372 0.376818 0.290165
O O6 0.888555 0.500000 0.000000
O O7 0.307118 0.571851 0.749103
O O8 0.292021 0.274665 0.622981
O O9 0.319155 0.322274 0.940729
#
# Coordination Sequence:
#
# PCOD9332260 Si02
#       4
#     8   8   8   8
#     4  11  22  43  71 105 141 191 242 294 361 432
#     4  11  24  43  71 105 145 190 239 297 361 432
#     4  11  26  46  71 109 143 193 245 302 370 433
#     4  11  26  46  73 106 147 191 243 307 363 438
#
# _framework density 26.560673000000001
#
# number of rings (size 3 to 8) (size 9 to 14) (size 15 to 20)
#    0.000    1.000    2.500    4.500    7.000    4.000 
#    4.500    0.000    0.000    6.000    0.000    0.000 
#    0.000    0.000    0.000    0.000    0.000    0.000 
#
# Total GULP energy -89793.348533 kJ/mol
# GULP energy per Si atom -5612.084283 kJ/mol
# Density = 2.650022 g / cm^3
# Si number density = 26.560673 Si / 1000 Ang^3
#
#
#
# Elastic Constant Matrix: (Units=GPa)
#
#
# Indices 1 2 3 4 5 6 
#
# 1 131.0812 17.0206 30.2815 0.0000 0.0000 0.0000
# 2 17.0206 79.6817 30.9931 0.0000 0.0000 0.0000
# 3 30.2815 30.9931 84.5953 0.0000 0.0000 0.0000
# 4 0.0000 0.0000 0.0000 21.5476 0.0000 0.0000
# 5 0.0000 0.0000 0.0000 0.0000 34.9486 0.0000
# 6 0.0000 0.0000 0.0000 0.0000 0.0000 42.2465
#
#
#
# Elastic Compliance Matrix: (Units=1/GPa)
#
#
# Indices 1 2 3 4 5 6 
#
# 1 0.008352 -0.000724 -0.002724 0.000000 0.000000 0.000000
# 2 -0.000724 0.014698 -0.005126 0.000000 0.000000 0.000000
# 3 -0.002724 -0.005126 0.014674 0.000000 0.000000 0.000000
# 4 0.000000 0.000000 0.000000 0.046409 0.000000 0.000000
# 5 0.000000 0.000000 0.000000 0.000000 0.028613 0.000000
# 6 0.000000 0.000000 0.000000 0.000000 0.000000 0.023671
#
#
# Mechanical properties :
#
#
# Convention : Reuss Voigt Hill
#
# Bulk Modulus (GPa) = 48.60093 50.21654 49.40873
# Shear Modulus (GPa) = 31.16715 34.21940 32.69327
#
# Velocity S-wave (km/s) = 3.42926 3.59325 3.51221
# Velocity P-wave (km/s) = 5.83245 6.01354 5.92369
#
# Compressibility (1/GPa) = 0.02057574
#
# Stress axis : x y z
#
# Youngs Moduli (GPa) = 119.72762 68.03469 68.14726
#
# Poissons Ratio (x) = 0.04929 0.18566
# Poissons Ratio (y) = 0.08674 0.34930
# Poissons Ratio (z) = 0.32618 0.34873
#
# Static dielectric constant tensor:
#      x y z
#    x 2.065220 0.000000 0.000000 
#    y 0.000000 2.087410 0.000000 
#    z 0.000000 0.000000 2.051320 
# 
# From -- ./inp_files/11609.got.cif
#   From: 2010.05.17/outbox.cif.g08.bks.cpg/sg23_6_cif.got.tgz:11609.got - 2010.06.04 12:02:01.
