data_PCOD9332538
_publ_section_title
;
Structure prediction by ZEFSAII (Michael W. Deem and Ramdas Pophale) SiO2 
 PCOD9332538
Probable space group: I 2 2 2
;
_chemical_formula_sum "Si O2"
_cell_formula_units_Z 48
_cell_length_a 27.126393
_cell_length_b 13.003795
_cell_length_c 6.840714
_cell_angle_alpha 90.000000
_cell_angle_beta 90.000000
_cell_angle_gamma 90.000000
_cell_volume 2413.034868
_symmetry_space_group_name_H-M "I 2 2 2"
_symmetry_group_IT_number 23
_symmetry_cell_setting 'orthorhombic'
loop_
_space_group_symop_operation_xyz
x,y,z
-x,-y,z
x,-y,-z
-x,y,-z
1/2+x,1/2+y,1/2+z
1/2-x,1/2-y,1/2+z
1/2+x,1/2-y,1/2-z
1/2-x,1/2+y,1/2-z
loop_
_atom_site_type_symbol
_atom_site_label
_atom_site_fract_x
_atom_site_fract_y
_atom_site_fract_z
Si Si1 0.228359 0.113852 0.406262
Si Si2 0.941747 0.819816 0.334517
Si Si3 0.820928 0.263866 0.266032
Si Si4 0.000000 0.000000 0.500000
Si Si5 0.147704 0.888813 0.922643
Si Si6 0.500000 0.000000 0.000000
Si Si7 0.000000 0.710845 0.000000
Si Si8 0.927282 0.336318 0.309709
O O1 0.201121 0.194106 0.556037
O O2 0.278277 0.168548 0.334167
O O3 0.195329 0.097125 0.213399
O O4 0.235351 0.000000 0.500000
O O5 0.891546 0.834277 0.217839
O O6 0.936676 0.757937 0.537052
O O7 0.964241 0.930178 0.375087
O O8 0.980320 0.766909 0.190979
O O9 0.867784 0.337285 0.314306
O O10 0.841064 0.182465 0.107392
O O11 0.130330 0.000000 0.000000
O O12 0.461681 0.927782 0.887358
O O13 0.948794 0.667166 0.911194
#
# Coordination Sequence:
#
# PCOD9332538 Si02
#       8
#     8   8   8   2   8   2   4   8
#     4  12  26  48  74 105 147 187 248 308 370 447
#     4  12  26  42  66 103 142 180 234 288 353 425
#     4  12  26  48  73 105 147 190 241 312 368 440
#     4  12  26  38  60 106 146 176 222 294 336 420
#     4  12  26  42  74 105 140 192 239 291 367 437
#     4  12  26  54  72 102 146 188 250 322 348 432
#     4  12  22  46  68  94 142 184 228 290 354 410
#     4  12  26  50  71 101 141 187 242 306 359 426
#
# _framework density 19.891963000000001
#
# number of rings (size 3 to 8) (size 9 to 14) (size 15 to 20)
#    0.000    0.000   10.000    0.000    5.833    0.333 
#   10.500    0.000    0.000    0.000    0.000    0.000 
#    0.000    0.000    0.000    0.000    0.000    0.000 
#
# Total GULP energy -133793.161009 kJ/mol
# GULP energy per Si atom -5574.715042 kJ/mol
# Density = 1.984669 g / cm^3
# Si number density = 19.891963 Si / 1000 Ang^3
#
#
#
# Elastic Constant Matrix: (Units=GPa)
#
#
# Indices 1 2 3 4 5 6 
#
# 1 129.5924 36.0677 41.0152 0.0000 0.0000 0.0000
# 2 36.0677 68.5267 20.5647 0.0000 0.0000 0.0000
# 3 41.0152 20.5647 87.2049 0.0000 0.0000 0.0000
# 4 0.0000 0.0000 0.0000 45.6529 0.0000 0.0000
# 5 0.0000 0.0000 0.0000 0.0000 48.9795 0.0000
# 6 0.0000 0.0000 0.0000 0.0000 0.0000 73.6834
#
#
#
# Elastic Compliance Matrix: (Units=1/GPa)
#
#
# Indices 1 2 3 4 5 6 
#
# 1 0.010064 -0.004172 -0.003750 0.000000 0.000000 0.000000
# 2 -0.004172 0.017434 -0.002149 0.000000 0.000000 0.000000
# 3 -0.003750 -0.002149 0.013738 0.000000 0.000000 0.000000
# 4 0.000000 0.000000 0.000000 0.021904 0.000000 0.000000
# 5 0.000000 0.000000 0.000000 0.000000 0.020417 0.000000
# 6 0.000000 0.000000 0.000000 0.000000 0.000000 0.013572
#
#
# Mechanical properties :
#
#
# Convention : Reuss Voigt Hill
#
# Bulk Modulus (GPa) = 47.40630 53.40213 50.40421
# Shear Modulus (GPa) = 40.22490 46.17492 43.19991
#
# Velocity S-wave (km/s) = 4.50173 4.82320 4.66523
# Velocity P-wave (km/s) = 7.13473 7.61065 7.37653
#
# Compressibility (1/GPa) = 0.02109424
#
# Stress axis : x y z
#
# Youngs Moduli (GPa) = 99.36016 57.36059 72.79261
#
# Poissons Ratio (x) = 0.23930 0.27296
# Poissons Ratio (y) = 0.41452 0.15643
# Poissons Ratio (z) = 0.37258 0.12327
#
# Static dielectric constant tensor:
#      x y z
#    x 1.773150 0.000000 0.000000 
#    y 0.000000 1.698650 0.000000 
#    z 0.000000 0.000000 1.724500 
# 
# From -- ./inp_files/4948.got.cif
#   From: 2010.05.17/outbox.cif.g08.bks.cpg/sg23_3_cif.got.tgz:4948.got - 2010.06.04 12:02:01.
