data_PCOD9332616
_publ_section_title
;
Structure prediction by ZEFSAII (Michael W. Deem and Ramdas Pophale) SiO2 
 PCOD9332616
Probable space group: I 2 2 2
;
_chemical_formula_sum "Si O2"
_cell_formula_units_Z 24
_cell_length_a 7.148721
_cell_length_b 8.330699
_cell_length_c 14.682809
_cell_angle_alpha 90.000000
_cell_angle_beta 90.000000
_cell_angle_gamma 90.000000
_cell_volume 874.417700
_symmetry_space_group_name_H-M "I 2 2 2"
_symmetry_group_IT_number 23
_symmetry_cell_setting 'orthorhombic'
loop_
_space_group_symop_operation_xyz
x,y,z
-x,-y,z
x,-y,-z
-x,y,-z
1/2+x,1/2+y,1/2+z
1/2-x,1/2-y,1/2+z
1/2+x,1/2-y,1/2-z
1/2-x,1/2+y,1/2-z
loop_
_atom_site_type_symbol
_atom_site_label
_atom_site_fract_x
_atom_site_fract_y
_atom_site_fract_z
Si Si1 0.805399 0.691515 0.114600
Si Si2 0.773894 0.011467 0.770099
Si Si3 0.711737 0.331143 0.558680
O O1 0.795160 0.527454 0.169368
O O2 0.012183 0.758279 0.090740
O O3 0.724059 0.816830 0.188101
O O4 0.709409 0.708819 0.016310
O O5 0.698245 0.886798 0.846767
O O6 0.000000 0.000000 0.768015
O O7 0.700771 0.500000 0.500000
#
# Coordination Sequence:
#
# PCOD9332616 Si02
#       3
#     8   8   8
#     4   9  15  29  53  75 105 140 176 214 255 313
#     4   9  17  30  51  79 107 137 175 221 263 304
#     4   8  15  31  55  77 102 145 183 204 253 329
#
# _framework density 27.446836999999999
#
# number of rings (size 3 to 8) (size 9 to 14) (size 15 to 20)
#    0.000    3.333    0.000    8.000    0.000    0.000 
#    0.000    8.333    0.000   58.000    0.000   56.000 
#    0.000    0.000    0.000    0.000    0.000    0.000 
#
# Total GULP energy -66982.839939 kJ/mol
# GULP energy per Si atom -5581.903328 kJ/mol
# Density = 2.738437 g / cm^3
# Si number density = 27.446837 Si / 1000 Ang^3
#
#
#
# Elastic Constant Matrix: (Units=GPa)
#
#
# Indices 1 2 3 4 5 6 
#
# 1 115.8830 19.6578 18.3411 0.0000 0.0000 0.0000
# 2 19.6578 74.0807 77.8252 0.0000 0.0000 0.0000
# 3 18.3411 77.8252 229.2181 0.0000 0.0000 0.0000
# 4 0.0000 0.0000 0.0000 74.0402 0.0000 0.0000
# 5 0.0000 0.0000 0.0000 0.0000 20.8610 0.0000
# 6 0.0000 0.0000 0.0000 0.0000 0.0000 16.1305
#
#
#
# Elastic Compliance Matrix: (Units=1/GPa)
#
#
# Indices 1 2 3 4 5 6 
#
# 1 0.009039 -0.002547 0.000142 0.000000 0.000000 0.000000
# 2 -0.002547 0.021701 -0.007164 0.000000 0.000000 0.000000
# 3 0.000142 -0.007164 0.006784 0.000000 0.000000 0.000000
# 4 0.000000 0.000000 0.000000 0.013506 0.000000 0.000000
# 5 0.000000 0.000000 0.000000 0.000000 0.047936 0.000000
# 6 0.000000 0.000000 0.000000 0.000000 0.000000 0.061994
#
#
# Mechanical properties :
#
#
# Convention : Reuss Voigt Hill
#
# Bulk Modulus (GPa) = 54.39508 72.31445 63.35476
# Shear Modulus (GPa) = 26.84869 42.43019 34.63944
#
# Velocity S-wave (km/s) = 3.13102 3.93606 3.55640
# Velocity P-wave (km/s) = 5.73868 6.86011 6.32430
#
# Compressibility (1/GPa) = 0.01838402
#
# Stress axis : x y z
#
# Youngs Moduli (GPa) = 110.63047 46.08060 147.41099
#
# Poissons Ratio (x) = 0.11738 -0.02088
# Poissons Ratio (y) = 0.28182 1.05609
# Poissons Ratio (z) = -0.01567 0.33013
#
# Static dielectric constant tensor:
#      x y z
#    x 2.220940 0.000000 0.000000 
#    y 0.000000 2.195220 0.000000 
#    z 0.000000 0.000000 2.141820 
# 
# From -- ./inp_files/14133.got.cif
#   From: 2010.05.17/outbox.cif.g08.bks.cpg/sg23_8_cif.got.tgz:14133.got - 2010.06.04 12:02:01.
