data_PCOD9332041
_publ_section_title
;
Structure prediction by ZEFSAII (Michael W. Deem and Ramdas Pophale) SiO2 
 PCOD9332041
Probable space group: I 2 2 2
;
_chemical_formula_sum "Si O2"
_cell_formula_units_Z 38
_cell_length_a 15.211934
_cell_length_b 11.678880
_cell_length_c 9.005008
_cell_angle_alpha 90.000000
_cell_angle_beta 90.000000
_cell_angle_gamma 90.000000
_cell_volume 1599.814879
_symmetry_space_group_name_H-M "I 2 2 2"
_symmetry_group_IT_number 23
_symmetry_cell_setting 'orthorhombic'
loop_
_space_group_symop_operation_xyz
x,y,z
-x,-y,z
x,-y,-z
-x,y,-z
1/2+x,1/2+y,1/2+z
1/2-x,1/2-y,1/2+z
1/2+x,1/2-y,1/2-z
1/2-x,1/2+y,1/2-z
loop_
_atom_site_type_symbol
_atom_site_label
_atom_site_fract_x
_atom_site_fract_y
_atom_site_fract_z
Si Si1 0.848548 0.377958 0.004278
Si Si2 0.000000 0.500000 0.500000
Si Si3 0.772173 0.000000 0.000000
Si Si4 0.140332 0.656923 0.342951
Si Si5 0.500000 0.692759 0.500000
Si Si6 0.500000 0.500000 0.752920
Si Si7 0.667601 0.586256 0.180677
O O1 0.762263 0.398515 0.901382
O O2 0.897117 0.500000 0.000000
O O3 0.824648 0.361032 0.176320
O O4 0.915586 0.274805 0.972532
O O5 0.057531 0.580730 0.392042
O O6 0.715190 0.891989 0.051761
O O7 0.816234 0.051308 0.146956
O O8 0.124933 0.790790 0.353864
O O9 0.496501 0.609398 0.642105
O O10 0.589620 0.504308 0.847084
#
# Coordination Sequence:
#
# PCOD9332041 Si02
#       7
#     8   2   4   8   4   4   8
#     4  12  26  46  78 118 155 206 285 348 417 506
#     4  10  28  52  78 116 160 212 276 362 422 500
#     4  11  24  48  78 107 158 212 282 343 429 504
#     4  11  25  48  75 111 152 209 276 345 419 505
#     4  11  25  46  82 112 157 223 274 346 424 507
#     4  11  26  48  73 116 166 212 274 344 428 508
#     4  12  26  48  77 114 158 221 272 348 429 515
#
# _framework density 23.752749000000001
#
# number of rings (size 3 to 8) (size 9 to 14) (size 15 to 20)
#    0.000    0.632    4.211    2.842    5.895    0.000 
#    3.789    0.000    0.000    0.000    0.000    0.000 
#    0.000    0.000    0.000    0.000    0.000    0.000 
#
# Total GULP energy -105996.937251 kJ/mol
# GULP energy per Si atom -5578.786171 kJ/mol
# Density = 2.369869 g / cm^3
# Si number density = 23.752749 Si / 1000 Ang^3
#
#
#
# Elastic Constant Matrix: (Units=GPa)
#
#
# Indices 1 2 3 4 5 6 
#
# 1 185.7671 62.7751 73.6324 0.0000 0.0000 0.0000
# 2 62.7751 137.5771 24.4078 0.0000 0.0000 0.0000
# 3 73.6324 24.4078 134.9033 0.0000 0.0000 0.0000
# 4 0.0000 0.0000 0.0000 29.6793 0.0000 0.0000
# 5 0.0000 0.0000 0.0000 0.0000 32.7084 0.0000
# 6 0.0000 0.0000 0.0000 0.0000 0.0000 -161.2420
#
#
#
# Elastic Compliance Matrix: (Units=1/GPa)
#
#
# Indices 1 2 3 4 5 6 
#
# 1 0.007861 -0.002919 -0.003762 0.000000 0.000000 0.000000
# 2 -0.002919 0.008594 0.000039 0.000000 0.000000 0.000000
# 3 -0.003762 0.000039 0.009459 0.000000 0.000000 0.000000
# 4 0.000000 0.000000 0.000000 0.033694 0.000000 0.000000
# 5 0.000000 0.000000 0.000000 0.000000 0.030573 0.000000
# 6 0.000000 0.000000 0.000000 0.000000 0.000000 -0.006202
#
#
# Mechanical properties :
#
#
# Convention : Reuss Voigt Hill
#
# Bulk Modulus (GPa) = 79.19108 86.65312 82.92210
# Shear Modulus (GPa) = 49.27341 0.05796 24.66569
#
# Velocity S-wave (km/s) = 4.55953 0.15638 3.22597
# Velocity P-wave (km/s) = 7.81865 6.04922 6.99015
#
# Compressibility (1/GPa) = 0.01262768
#
# Stress axis : x y z
#
# Youngs Moduli (GPa) = 127.21175 116.36185 105.71573
#
# Poissons Ratio (x) = 0.33970 0.39775
# Poissons Ratio (y) = 0.37138 -0.00408
# Poissons Ratio (z) = 0.47862 -0.00449
#
# Static dielectric constant tensor:
#      x y z
#    x 1.999820 0.000000 0.000000 
#    y 0.000000 1.629700 0.000000 
#    z 0.000000 0.000000 31.753400 
# 
# From -- ./inp_files/10802.got.cif
#   From: 2010.05.17/outbox.cif.g08.bks.cpg/sg23_6_cif.got.tgz:10802.got - 2010.06.04 12:02:01.
