data_PCOD9332464
_publ_section_title
;
Structure prediction by ZEFSAII (Michael W. Deem and Ramdas Pophale) SiO2 
 PCOD9332464
Probable space group: I 2 2 2
;
_chemical_formula_sum "Si O2"
_cell_formula_units_Z 34
_cell_length_a 19.056363
_cell_length_b 6.748179
_cell_length_c 10.026637
_cell_angle_alpha 90.000000
_cell_angle_beta 90.000000
_cell_angle_gamma 90.000000
_cell_volume 1289.382891
_symmetry_space_group_name_H-M "I 2 2 2"
_symmetry_group_IT_number 23
_symmetry_cell_setting 'orthorhombic'
loop_
_space_group_symop_operation_xyz
x,y,z
-x,-y,z
x,-y,-z
-x,y,-z
1/2+x,1/2+y,1/2+z
1/2-x,1/2-y,1/2+z
1/2+x,1/2-y,1/2-z
1/2-x,1/2+y,1/2-z
loop_
_atom_site_type_symbol
_atom_site_label
_atom_site_fract_x
_atom_site_fract_y
_atom_site_fract_z
Si Si1 0.779983 0.073700 0.369268
Si Si2 0.500000 0.500000 0.000000
Si Si3 0.855085 0.712243 0.256706
Si Si4 0.096082 0.303696 0.672780
Si Si5 0.079476 0.734814 0.019275
O O1 0.837200 0.903934 0.341608
O O2 0.740315 0.000000 0.500000
O O3 0.720738 0.109317 0.261584
O O4 0.827506 0.265093 0.390053
O O5 0.542376 0.341037 0.905335
O O6 0.909205 0.545980 0.313910
O O7 0.876749 0.796318 0.110526
O O8 0.100963 0.235403 0.827902
O O9 0.078322 0.500000 0.000000
O O10 0.000000 0.801406 0.000000
#
# Coordination Sequence:
#
# PCOD9332464 Si02
#       5
#     8   2   8   8   8
#     4  12  25  46  71 111 151 193 258 311 390 455
#     4  12  28  52  76 116 162 200 248 310 396 468
#     4  11  25  48  78 109 148 203 253 324 378 444
#     4  11  25  49  71 109 153 195 252 313 374 469
#     4   9  21  44  75 104 141 194 256 304 369 445
#
# _framework density 26.369202999999999
#
# number of rings (size 3 to 8) (size 9 to 14) (size 15 to 20)
#    0.000    1.176    3.529    2.118    3.294    1.882 
#    0.000    1.176    0.000    0.000    0.000    0.000 
#    0.000    0.000    0.000    0.000    0.000    0.000 
#
# Total GULP energy -94945.192861 kJ/mol
# GULP energy per Si atom -5585.011345 kJ/mol
# Density = 2.630919 g / cm^3
# Si number density = 26.369203 Si / 1000 Ang^3
#
#
#
# Elastic Constant Matrix: (Units=GPa)
#
#
# Indices 1 2 3 4 5 6 
#
# 1 89.8200 20.2586 26.1528 0.0000 0.0000 0.0000
# 2 20.2586 126.2451 40.4166 0.0000 0.0000 0.0000
# 3 26.1528 40.4166 107.8314 0.0000 0.0000 0.0000
# 4 0.0000 0.0000 0.0000 40.9571 0.0000 0.0000
# 5 0.0000 0.0000 0.0000 0.0000 51.7026 0.0000
# 6 0.0000 0.0000 0.0000 0.0000 0.0000 -72.2550
#
#
#
# Elastic Compliance Matrix: (Units=1/GPa)
#
#
# Indices 1 2 3 4 5 6 
#
# 1 0.012122 -0.001141 -0.002512 0.000000 0.000000 0.000000
# 2 -0.001141 0.009109 -0.003137 0.000000 0.000000 0.000000
# 3 -0.002512 -0.003137 0.011059 0.000000 0.000000 0.000000
# 4 0.000000 0.000000 0.000000 0.024416 0.000000 0.000000
# 5 0.000000 0.000000 0.000000 0.000000 0.019341 0.000000
# 6 0.000000 0.000000 0.000000 0.000000 0.000000 -0.013840
#
#
# Mechanical properties :
#
#
# Convention : Reuss Voigt Hill
#
# Bulk Modulus (GPa) = 53.45162 55.28361 54.36762
# Shear Modulus (GPa) = 60.95736 19.88552 40.42144
#
# Velocity S-wave (km/s) = 4.81322 2.74910 3.91948
# Velocity P-wave (km/s) = 7.15569 5.57561 6.41449
#
# Compressibility (1/GPa) = 0.01870851
#
# Stress axis : x y z
#
# Youngs Moduli (GPa) = 82.49298 109.78674 90.42428
#
# Poissons Ratio (x) = 0.12526 0.22718
# Poissons Ratio (y) = 0.09412 0.28369
# Poissons Ratio (z) = 0.20726 0.34443
#
# Static dielectric constant tensor:
#      x y z
#    x 2.035860 0.000000 0.000000 
#    y 0.000000 2.140180 0.000000 
#    z 0.000000 0.000000 2.212230 
# 
# From -- ./inp_files/11677.got.cif
#   From: 2010.05.17/outbox.cif.g08.bks.cpg/sg23_6_cif.got.tgz:11677.got - 2010.06.04 12:02:01.
