data_PCOD9332803
_publ_section_title
;
Structure prediction by ZEFSAII (Michael W. Deem and Ramdas Pophale) SiO2 
 PCOD9332803
Probable space group: I 21 21 21
;
_chemical_formula_sum "Si O2"
_cell_formula_units_Z 64
_cell_length_a 11.100926
_cell_length_b 31.495473
_cell_length_c 8.808189
_cell_angle_alpha 90.000000
_cell_angle_beta 90.000000
_cell_angle_gamma 90.000000
_cell_volume 3079.597564
_symmetry_space_group_name_H-M "I 21 21 21"
_symmetry_group_IT_number 24
_symmetry_cell_setting 'orthorhombic'
loop_
_space_group_symop_operation_xyz
x,y,z
-x,1/2-y,z
x,-y,1/2-z
1/2-x,y,-z
1/2+x,1/2+y,1/2+z
1/2-x,-y,1/2+z
1/2+x,1/2-y,-z
-x,1/2+y,1/2-z
loop_
_atom_site_type_symbol
_atom_site_label
_atom_site_fract_x
_atom_site_fract_y
_atom_site_fract_z
Si Si1 0.331002 0.550039 0.731656
Si Si2 0.548332 0.423006 0.566095
Si Si3 0.869312 0.739382 0.186669
Si Si4 0.717365 0.646838 0.822838
Si Si5 0.359193 0.010403 0.085131
Si Si6 0.114535 0.272507 0.663597
Si Si7 0.013787 0.859507 0.783683
Si Si8 0.086862 0.570591 0.606537
O O1 0.348168 0.500000 0.750000
O O2 0.420917 0.570890 0.851112
O O3 0.188552 0.558961 0.731186
O O4 0.368386 0.564545 0.563956
O O5 0.640811 0.396824 0.675454
O O6 0.602313 0.468044 0.508540
O O7 0.526801 0.394033 0.418414
O O8 0.854871 0.689251 0.212823
O O9 0.745512 0.763174 0.235449
O O10 0.000000 0.750000 0.253049
O O11 0.876947 0.752002 0.006145
O O12 0.846900 0.649529 0.742634
O O13 0.750000 0.652127 0.000000
O O14 0.309290 0.000000 0.250000
O O15 0.473943 0.039353 0.116328
O O16 0.250000 0.032985 0.000000
O O17 0.000000 0.250000 0.742215
O O18 0.068849 0.320928 0.658339
O O19 0.951847 0.881910 0.642070
#
# Coordination Sequence:
#
# PCOD9332803 Si02
#       8
#     8   8   8   8   8   8   8   8
#     4  11  25  45  66  85 125 180 221 277 340 411
#     4  11  23  39  64  91 126 170 219 272 333 397
#     4  10  17  29  53  86 133 168 205 261 331 394
#     4  10  18  35  55  89 138 167 203 276 331 382
#     4  12  25  42  64  94 131 174 226 279 339 408
#     4  10  17  31  54  84 126 171 201 257 333 392
#     4  11  22  37  61  95 131 167 216 277 336 399
#     4  11  26  43  62  92 130 171 223 278 341 409
#
# _framework density 20.781936000000002
#
# number of rings (size 3 to 8) (size 9 to 14) (size 15 to 20)
#    0.000    1.250    5.000    3.750    1.750    3.500 
#    0.000    0.000    0.000    0.000    0.000    7.000 
#    0.000    0.000    0.000    0.000    0.000    0.000 
#
# Total GULP energy -178454.356645 kJ/mol
# GULP energy per Si atom -5576.698645 kJ/mol
# Density = 2.073464 g / cm^3
# Si number density = 20.781936 Si / 1000 Ang^3
#
#
#
# Elastic Constant Matrix: (Units=GPa)
#
#
# Indices 1 2 3 4 5 6 
#
# 1 166.2503 42.1453 24.5611 -0.0041 -0.0047 0.0054
# 2 42.1453 91.1941 7.8235 -0.0009 0.0035 -0.0077
# 3 24.5611 7.8235 32.1727 -0.0098 -0.0072 0.0186
# 4 -0.0041 -0.0009 -0.0098 12.8248 -0.0032 0.0018
# 5 -0.0047 0.0035 -0.0072 -0.0032 12.7604 0.0025
# 6 0.0054 -0.0077 0.0186 0.0018 0.0025 45.9211
#
#
#
# Elastic Compliance Matrix: (Units=1/GPa)
#
#
# Indices 1 2 3 4 5 6 
#
# 1 0.007528 -0.003049 -0.005005 -0.000002 0.000001 0.000001
# 2 -0.003049 0.012435 -0.000696 -0.000001 -0.000005 0.000003
# 3 -0.005005 -0.000696 0.035072 0.000025 0.000018 -0.000014
# 4 -0.000002 -0.000001 0.000025 0.077974 0.000020 -0.000003
# 5 0.000001 -0.000005 0.000018 0.000020 0.078367 -0.000004
# 6 0.000001 0.000003 -0.000014 -0.000003 -0.000004 0.021776
#
#
# Mechanical properties :
#
#
# Convention : Reuss Voigt Hill
#
# Bulk Modulus (GPa) = 26.64254 48.74186 37.69220
# Shear Modulus (GPa) = 18.99953 28.64040 23.81997
#
# Velocity S-wave (km/s) = 3.02691 3.71636 3.38921
# Velocity P-wave (km/s) = 5.00641 6.47456 5.78723
#
# Compressibility (1/GPa) = 0.03753396
#
# Stress axis : x y z
#
# Youngs Moduli (GPa) = 132.84623 80.42066 28.51247
#
# Poissons Ratio (x) = 0.24524 0.14271
# Poissons Ratio (y) = 0.40511 0.01984
# Poissons Ratio (z) = 0.66490 0.05595
#
# Static dielectric constant tensor:
#      x y z
#    x 1.878580 0.000000 -0.000010 
#    y 0.000000 1.774550 0.000010 
#    z -0.000010 0.000010 1.696730 
# 
# From -- ./inp_files/11631.got.cif
#   From: 2010.05.17/outbox.cif.g08.bks.cpg/sg24_6_cif.got.tgz:11631.got - 2010.06.04 00:33:39.
