data_PCOD9332026
_publ_section_title
;
Structure prediction by ZEFSAII (Michael W. Deem and Ramdas Pophale) SiO2 
 PCOD9332026
Probable space group: I 2 2 2
;
_chemical_formula_sum "Si O2"
_cell_formula_units_Z 64
_cell_length_a 12.862349
_cell_length_b 13.911063
_cell_length_c 18.168752
_cell_angle_alpha 90.000000
_cell_angle_beta 90.000000
_cell_angle_gamma 90.000000
_cell_volume 3250.915669
_symmetry_space_group_name_H-M "I 2 2 2"
_symmetry_group_IT_number 23
_symmetry_cell_setting 'orthorhombic'
loop_
_space_group_symop_operation_xyz
x,y,z
-x,-y,z
x,-y,-z
-x,y,-z
1/2+x,1/2+y,1/2+z
1/2-x,1/2-y,1/2+z
1/2+x,1/2-y,1/2-z
1/2-x,1/2+y,1/2-z
loop_
_atom_site_type_symbol
_atom_site_label
_atom_site_fract_x
_atom_site_fract_y
_atom_site_fract_z
Si Si1 0.718468 0.819621 0.163621
Si Si2 0.376874 0.762980 0.681884
Si Si3 0.015992 0.387963 0.081538
Si Si4 0.209082 0.780926 0.560229
Si Si5 0.750493 0.120906 0.410737
Si Si6 0.446751 0.597889 0.304937
Si Si7 0.380548 0.898787 0.973604
Si Si8 0.896485 0.051584 0.635600
O O1 0.678889 0.806214 0.246517
O O2 0.702409 0.713018 0.129825
O O3 0.839202 0.857926 0.160258
O O4 0.645150 0.886061 0.112634
O O5 0.439653 0.845552 0.640705
O O6 0.288624 0.741257 0.621129
O O7 0.460240 0.677450 0.696974
O O8 0.131210 0.375773 0.110456
O O9 0.000000 0.500000 0.073777
O O10 0.000000 0.342759 0.000000
O O11 0.249183 0.856782 0.498258
O O12 0.170562 0.690303 0.515054
O O13 0.122255 0.844039 0.601226
O O14 0.805173 0.022771 0.385987
O O15 0.500000 0.500000 0.337637
O O16 0.410666 0.567308 0.222719
O O17 0.500000 0.897148 0.000000
O O18 0.335467 0.000000 0.000000
O O19 0.000000 0.000000 0.606612
#
# Coordination Sequence:
#
# PCOD9332026 Si02
#       8
#     8   8   8   8   8   8   8   8
#     4  11  24  44  70  97 136 179 232 283 352 408
#     4  12  24  45  68 103 138 176 230 292 349 418
#     4  11  23  40  66  97 136 174 216 275 349 416
#     4  11  24  40  72 100 135 181 228 281 356 422
#     4  11  23  43  65  95 138 177 223 281 344 427
#     4  11  25  43  67 101 139 177 230 290 349 421
#     4  10  26  49  69  96 137 187 234 284 339 420
#     4  11  24  42  67 104 140 175 223 286 356 423
#
# _framework density 19.68676
#
# number of rings (size 3 to 8) (size 9 to 14) (size 15 to 20)
#    0.000    1.000    3.750    2.625    8.750    0.500 
#    2.250    0.000    0.000    0.000    0.000    0.000 
#    0.000    0.000    0.000    0.000    0.000    0.000 
#
# Total GULP energy -178419.877127 kJ/mol
# GULP energy per Si atom -5575.621160 kJ/mol
# Density = 1.964195 g / cm^3
# Si number density = 19.686760 Si / 1000 Ang^3
#
#
#
# Elastic Constant Matrix: (Units=GPa)
#
#
# Indices 1 2 3 4 5 6 
#
# 1 84.6590 18.8502 31.7730 0.0000 0.0000 0.0000
# 2 18.8502 99.8892 30.3837 0.0000 0.0000 0.0000
# 3 31.7730 30.3837 102.8641 0.0000 0.0000 0.0000
# 4 0.0000 0.0000 0.0000 25.2747 0.0000 0.0000
# 5 0.0000 0.0000 0.0000 0.0000 29.4230 0.0000
# 6 0.0000 0.0000 0.0000 0.0000 0.0000 36.8236
#
#
#
# Elastic Compliance Matrix: (Units=1/GPa)
#
#
# Indices 1 2 3 4 5 6 
#
# 1 0.013539 -0.001410 -0.003766 0.000000 0.000000 0.000000
# 2 -0.001410 0.011146 -0.002857 0.000000 0.000000 0.000000
# 3 -0.003766 -0.002857 0.011729 0.000000 0.000000 0.000000
# 4 0.000000 0.000000 0.000000 0.039565 0.000000 0.000000
# 5 0.000000 0.000000 0.000000 0.000000 0.033987 0.000000
# 6 0.000000 0.000000 0.000000 0.000000 0.000000 0.027156
#
#
# Mechanical properties :
#
#
# Convention : Reuss Voigt Hill
#
# Bulk Modulus (GPa) = 49.14108 49.93623 49.53866
# Shear Modulus (GPa) = 31.25582 32.06462 31.66022
#
# Velocity S-wave (km/s) = 3.98886 4.04014 4.01459
# Velocity P-wave (km/s) = 6.79929 6.86907 6.83427
#
# Compressibility (1/GPa) = 0.02034957
#
# Stress axis : x y z
#
# Youngs Moduli (GPa) = 73.85939 89.71757 85.26182
#
# Poissons Ratio (x) = 0.12646 0.32107
# Poissons Ratio (y) = 0.10411 0.24358
# Poissons Ratio (z) = 0.27813 0.25631
#
# Static dielectric constant tensor:
#      x y z
#    x 1.695000 0.000000 0.000000 
#    y 0.000000 1.671500 0.000000 
#    z 0.000000 0.000000 1.708630 
# 
# From -- ./inp_files/24445.got.cif
#   From: 2010.05.17/outbox.cif.g08.bks.cpg/sg23_13_cif.got.tgz:24445.got - 2010.06.04 12:02:01.
