data_PCOD9332340
_publ_section_title
;
Structure prediction by ZEFSAII (Michael W. Deem and Ramdas Pophale) SiO2 
 PCOD9332340
Probable space group: I 2 2 2
;
_chemical_formula_sum "Si O2"
_cell_formula_units_Z 60
_cell_length_a 25.964699
_cell_length_b 8.811149
_cell_length_c 11.302530
_cell_angle_alpha 90.000000
_cell_angle_beta 90.000000
_cell_angle_gamma 90.000000
_cell_volume 2585.779608
_symmetry_space_group_name_H-M "I 2 2 2"
_symmetry_group_IT_number 23
_symmetry_cell_setting 'orthorhombic'
loop_
_space_group_symop_operation_xyz
x,y,z
-x,-y,z
x,-y,-z
-x,y,-z
1/2+x,1/2+y,1/2+z
1/2-x,1/2-y,1/2+z
1/2+x,1/2-y,1/2-z
1/2-x,1/2+y,1/2-z
loop_
_atom_site_type_symbol
_atom_site_label
_atom_site_fract_x
_atom_site_fract_y
_atom_site_fract_z
Si Si1 0.861308 0.330105 0.450978
Si Si2 0.613852 0.378209 0.416407
Si Si3 0.098527 0.613805 0.092364
Si Si4 0.385662 0.500000 0.000000
Si Si5 0.199036 0.373445 0.783608
Si Si6 0.044657 0.097932 0.292555
Si Si7 0.467913 0.846912 0.824570
Si Si8 0.721066 0.545666 0.369092
O O1 0.849152 0.500000 0.500000
O O2 0.857113 0.163819 0.513542
O O3 0.827102 0.307793 0.334700
O O4 0.921010 0.345178 0.415030
O O5 0.585415 0.500000 0.500000
O O6 0.621280 0.244068 0.508218
O O7 0.581040 0.329303 0.304816
O O8 0.665051 0.463297 0.368945
O O9 0.150460 0.545910 0.152653
O O10 0.060319 0.669549 0.195512
O O11 0.072489 0.500000 0.000000
O O12 0.421642 0.500488 0.883133
O O13 0.243998 0.481492 0.736860
O O14 0.218409 0.227055 0.855516
O O15 0.010765 0.223513 0.355746
O O16 0.000000 0.000000 0.231583
O O17 0.500000 0.000000 0.821684
O O18 0.740639 0.500000 0.500000
#
# Coordination Sequence:
#
# PCOD9332340 Si02
#       8
#     8   8   8   4   8   8   8   8
#     4  11  25  47  70 103 149 191 242 305 360 433
#     4  11  23  44  67  95 136 184 225 295 357 418
#     4  11  24  43  69  98 141 179 232 293 364 433
#     4  12  25  44  70 104 144 200 250 294 364 429
#     4  11  25  48  71 106 139 184 240 296 373 449
#     4  12  24  39  67 100 135 186 241 289 349 427
#     4  11  24  41  64 101 140 186 238 294 354 429
#     4  11  24  47  73 101 142 182 238 301 373 449
#
# _framework density 23.203832999999999
#
# number of rings (size 3 to 8) (size 9 to 14) (size 15 to 20)
#    0.000    0.800    4.000    3.800    1.867    5.600 
#    7.200    0.000    1.467    0.000    0.000    0.000 
#    0.000    0.000    0.000    0.000    0.000    0.000 
#
# Total GULP energy -167411.373363 kJ/mol
# GULP energy per Si atom -5580.379112 kJ/mol
# Density = 2.315102 g / cm^3
# Si number density = 23.203833 Si / 1000 Ang^3
#
#
#
# Elastic Constant Matrix: (Units=GPa)
#
#
# Indices 1 2 3 4 5 6 
#
# 1 49.6973 8.1125 0.9441 0.0000 0.0000 0.0000
# 2 8.1125 95.1787 10.3991 0.0000 0.0000 0.0000
# 3 0.9441 10.3991 56.5822 0.0000 0.0000 0.0000
# 4 0.0000 0.0000 0.0000 39.9476 0.0000 0.0000
# 5 0.0000 0.0000 0.0000 0.0000 24.7949 0.0000
# 6 0.0000 0.0000 0.0000 0.0000 0.0000 6.6116
#
#
#
# Elastic Compliance Matrix: (Units=1/GPa)
#
#
# Indices 1 2 3 4 5 6 
#
# 1 0.020406 -0.001737 -0.000021 0.000000 0.000000 0.000000
# 2 -0.001737 0.010870 -0.001969 0.000000 0.000000 0.000000
# 3 -0.000021 -0.001969 0.018036 0.000000 0.000000 0.000000
# 4 0.000000 0.000000 0.000000 0.025033 0.000000 0.000000
# 5 0.000000 0.000000 0.000000 0.000000 0.040331 0.000000
# 6 0.000000 0.000000 0.000000 0.000000 0.000000 0.151249
#
#
# Mechanical properties :
#
#
# Convention : Reuss Voigt Hill
#
# Bulk Modulus (GPa) = 23.89077 26.70772 25.29925
# Shear Modulus (GPa) = 17.40159 26.40433 21.90296
#
# Velocity S-wave (km/s) = 2.74148 3.37698 3.07569
# Velocity P-wave (km/s) = 4.50992 5.17111 4.85179
#
# Compressibility (1/GPa) = 0.04185717
#
# Stress axis : x y z
#
# Youngs Moduli (GPa) = 49.00580 91.99883 55.44594
#
# Poissons Ratio (x) = 0.15980 0.00118
# Poissons Ratio (y) = 0.08512 0.10916
# Poissons Ratio (z) = 0.00104 0.18112
#
# Static dielectric constant tensor:
#      x y z
#    x 1.847010 0.000000 0.000000 
#    y 0.000000 2.001330 0.000000 
#    z 0.000000 0.000000 1.865430 
# 
# From -- ./inp_files/18618.got.cif
#   From: 2010.05.17/outbox.cif.g08.bks.cpg/sg23_10_cif.got.tgz:18618.got - 2010.06.04 12:02:01.
