data_PCOD9332845
_publ_section_title
;
Structure prediction by ZEFSAII (Michael W. Deem and Ramdas Pophale) SiO2 
 PCOD9332845
Probable space group: I 21 21 21
;
_chemical_formula_sum "Si O2"
_cell_formula_units_Z 48
_cell_length_a 9.266277
_cell_length_b 16.329303
_cell_length_c 15.033967
_cell_angle_alpha 90.000000
_cell_angle_beta 90.000000
_cell_angle_gamma 90.000000
_cell_volume 2274.817282
_symmetry_space_group_name_H-M "I 21 21 21"
_symmetry_group_IT_number 24
_symmetry_cell_setting 'orthorhombic'
loop_
_space_group_symop_operation_xyz
x,y,z
-x,1/2-y,z
x,-y,1/2-z
1/2-x,y,-z
1/2+x,1/2+y,1/2+z
1/2-x,-y,1/2+z
1/2+x,1/2-y,-z
-x,1/2+y,1/2-z
loop_
_atom_site_type_symbol
_atom_site_label
_atom_site_fract_x
_atom_site_fract_y
_atom_site_fract_z
Si Si1 0.854814 0.473172 0.617625
Si Si2 0.985253 0.531470 0.064675
Si Si3 0.698023 0.630920 0.273141
Si Si4 0.343454 0.722756 0.411272
Si Si5 0.008358 0.654280 0.206106
Si Si6 0.766030 0.064243 0.176076
O O1 0.974385 0.471965 0.540891
O O2 0.685011 0.483240 0.588654
O O3 0.870542 0.556908 0.671755
O O4 0.864653 0.389188 0.674966
O O5 0.012844 0.620106 0.106743
O O6 0.111170 0.477366 0.111459
O O7 0.685115 0.715079 0.327910
O O8 0.868437 0.617973 0.256214
O O9 0.500000 0.750000 0.441148
O O10 0.250000 0.735281 0.500000
O O11 0.329150 0.628651 0.379443
O O12 0.000000 0.750000 0.207683
O O13 0.143717 0.623294 0.259628
O O14 0.703071 0.000000 0.250000
#
# Coordination Sequence:
#
# PCOD9332845 Si02
#       6
#     8   8   8   8   8   8
#     4   9  18  33  58  97 135 172 228 271 323 396
#     4   9  18  31  61  97 131 177 225 275 321 391
#     4  10  20  36  60  91 134 178 214 279 336 383
#     4  12  30  45  65 101 135 176 224 280 346 400
#     4  10  17  32  62  97 131 173 224 274 327 391
#     4  10  21  42  67  94 138 180 220 275 342 403
#
# _framework density 21.100594999999998
#
# number of rings (size 3 to 8) (size 9 to 14) (size 15 to 20)
#    0.000    2.000    3.333    0.000    7.000    0.000 
#    3.000    0.833    0.000    2.000    0.000    0.000 
#    0.000    0.000    0.000    0.000    0.000    0.000 
#
# Total GULP energy -133605.738944 kJ/mol
# GULP energy per Si atom -5566.905789 kJ/mol
# Density = 2.105257 g / cm^3
# Si number density = 21.100595 Si / 1000 Ang^3
#
#
#
# Elastic Constant Matrix: (Units=GPa)
#
#
# Indices 1 2 3 4 5 6 
#
# 1 79.5706 33.5479 37.6169 0.0000 0.0000 0.0000
# 2 33.5479 113.2268 60.4707 0.0000 0.0000 0.0000
# 3 37.6169 60.4707 114.2006 0.0000 0.0000 0.0000
# 4 0.0000 0.0000 0.0000 0.1955 0.0000 0.0000
# 5 0.0000 0.0000 0.0000 0.0000 6.8027 0.0000
# 6 0.0000 0.0000 0.0000 0.0000 0.0000 22.3226
#
#
#
# Elastic Compliance Matrix: (Units=1/GPa)
#
#
# Indices 1 2 3 4 5 6 
#
# 1 0.015410 -0.002586 -0.003706 0.000000 0.000000 0.000000
# 2 -0.002586 0.012748 -0.005898 0.000000 0.000000 0.000000
# 3 -0.003706 -0.005898 0.013101 0.000001 0.000000 0.000000
# 4 0.000000 0.000000 0.000001 5.116030 0.000000 0.000000
# 5 0.000000 0.000000 0.000000 0.000000 0.147001 0.000000
# 6 0.000000 0.000000 0.000000 0.000000 0.000000 0.044798
#
#
# Mechanical properties :
#
#
# Convention : Reuss Voigt Hill
#
# Bulk Modulus (GPa) = 59.25378 63.36322 61.30850
# Shear Modulus (GPa) = 0.92952 17.55498 9.24225
#
# Velocity S-wave (km/s) = 0.66444 2.88751 2.09514
# Velocity P-wave (km/s) = 5.36015 6.41960 5.91365
#
# Compressibility (1/GPa) = 0.01687656
#
# Stress axis : x y z
#
# Youngs Moduli (GPa) = 64.89246 78.44172 76.33152
#
# Poissons Ratio (x) = 0.20288 0.28292
# Poissons Ratio (y) = 0.16783 0.45024
# Poissons Ratio (z) = 0.24052 0.46269
#
# Static dielectric constant tensor:
#      x y z
#    x 1.818470 0.000000 0.000000 
#    y 0.000000 1.735800 0.000000 
#    z 0.000000 0.000000 1.853590 
# 
# From -- ./inp_files/24819.got.cif
#   From: 2010.05.17/outbox.cif.g08.bks.cpg/sg24_13_cif.got.tgz:24819.got - 2010.06.04 00:33:39.
