data_PCOD9332269
_publ_section_title
;
Structure prediction by ZEFSAII (Michael W. Deem and Ramdas Pophale) SiO2 
 PCOD9332269
Probable space group: I 2 2 2
;
_chemical_formula_sum "Si O2"
_cell_formula_units_Z 56
_cell_length_a 14.010036
_cell_length_b 5.975361
_cell_length_c 30.553803
_cell_angle_alpha 90.000000
_cell_angle_beta 90.000000
_cell_angle_gamma 90.000000
_cell_volume 2557.812312
_symmetry_space_group_name_H-M "I 2 2 2"
_symmetry_group_IT_number 23
_symmetry_cell_setting 'orthorhombic'
loop_
_space_group_symop_operation_xyz
x,y,z
-x,-y,z
x,-y,-z
-x,y,-z
1/2+x,1/2+y,1/2+z
1/2-x,1/2-y,1/2+z
1/2+x,1/2-y,1/2-z
1/2-x,1/2+y,1/2-z
loop_
_atom_site_type_symbol
_atom_site_label
_atom_site_fract_x
_atom_site_fract_y
_atom_site_fract_z
Si Si1 0.256463 0.096256 0.452526
Si Si2 0.725500 0.937180 0.700113
Si Si3 0.387457 0.963966 0.050487
Si Si4 0.745358 0.209346 0.886751
Si Si5 0.625192 0.330213 0.648325
Si Si6 0.399650 0.579099 0.261685
Si Si7 0.541096 0.750255 0.438319
O O1 0.162081 0.228784 0.437247
O O2 0.351361 0.243994 0.457303
O O3 0.234293 0.000000 0.500000
O O4 0.284939 0.910362 0.416572
O O5 0.769995 0.772177 0.663741
O O6 0.633682 0.831622 0.725368
O O7 0.689847 0.138071 0.669567
O O8 0.808522 0.996754 0.733925
O O9 0.500000 0.000000 0.050865
O O10 0.345201 0.135291 0.085410
O O11 0.355438 0.000000 0.000000
O O12 0.816076 0.001465 0.881934
O O13 0.595490 0.459797 0.691478
O O14 0.544972 0.245506 0.615093
O O15 0.500000 0.500000 0.240194
O O16 0.500000 0.500000 0.449436
O O17 0.500000 0.000000 0.451006
#
# Coordination Sequence:
#
# PCOD9332269 Si02
#       7
#     8   8   8   8   8   8   8
#     4  12  25  46  73 102 146 198 239 309 376 435
#     4  11  23  45  68 101 145 179 244 303 360 450
#     4  11  24  44  71 105 140 188 251 306 363 443
#     4  11  22  45  71 100 142 191 237 300 370 441
#     4  11  23  43  71 100 141 187 238 299 365 442
#     4  11  25  43  69 101 136 190 236 298 371 437
#     4  12  27  45  73 111 148 193 252 306 371 460
#
# _framework density 21.893709999999999
#
# number of rings (size 3 to 8) (size 9 to 14) (size 15 to 20)
#    0.000    0.714    5.714    1.286    4.000    0.857 
#    5.143    2.143    0.000    0.000    0.000    0.000 
#    0.000    0.000    0.000    0.000    0.000    0.000 
#
# Total GULP energy -156086.244020 kJ/mol
# GULP energy per Si atom -5574.508715 kJ/mol
# Density = 2.184388 g / cm^3
# Si number density = 21.893710 Si / 1000 Ang^3
#
#
#
# Elastic Constant Matrix: (Units=GPa)
#
#
# Indices 1 2 3 4 5 6 
#
# 1 108.7358 68.9559 32.0587 0.0000 0.0000 0.0000
# 2 68.9559 121.7341 24.6952 0.0000 0.0000 0.0000
# 3 32.0587 24.6952 70.8070 0.0000 0.0000 0.0000
# 4 0.0000 0.0000 0.0000 30.6599 0.0000 0.0000
# 5 0.0000 0.0000 0.0000 0.0000 34.1803 0.0000
# 6 0.0000 0.0000 0.0000 0.0000 0.0000 22.3261
#
#
#
# Elastic Compliance Matrix: (Units=1/GPa)
#
#
# Indices 1 2 3 4 5 6 
#
# 1 0.015453 -0.007892 -0.004244 0.000000 0.000000 0.000000
# 2 -0.007892 0.012871 -0.000916 0.000000 0.000000 0.000000
# 3 -0.004244 -0.000916 0.016364 0.000000 0.000000 0.000000
# 4 0.000000 0.000000 0.000000 0.032616 0.000000 0.000000
# 5 0.000000 0.000000 0.000000 0.000000 0.029257 0.000000
# 6 0.000000 0.000000 0.000000 0.000000 0.000000 0.044791
#
#
# Mechanical properties :
#
#
# Convention : Reuss Voigt Hill
#
# Bulk Modulus (GPa) = 53.81012 61.41073 57.61042
# Shear Modulus (GPa) = 27.22587 29.13771 28.18179
#
# Velocity S-wave (km/s) = 3.53022 3.65207 3.59166
# Velocity P-wave (km/s) = 6.42245 6.77450 6.60082
#
# Compressibility (1/GPa) = 0.01858387
#
# Stress axis : x y z
#
# Youngs Moduli (GPa) = 64.71329 77.69445 61.11086
#
# Poissons Ratio (x) = 0.61319 0.25935
# Poissons Ratio (y) = 0.51073 0.05596
# Poissons Ratio (z) = 0.27463 0.07114
#
# Static dielectric constant tensor:
#      x y z
#    x 1.846820 0.000000 0.000000 
#    y 0.000000 1.974960 0.000000 
#    z 0.000000 0.000000 1.784300 
# 
# From -- ./inp_files/30545.got.cif
#   From: 2010.05.17/outbox.cif.g08.bks.cpg/sg23_16_cif.got.tgz:30545.got - 2010.06.04 12:02:01.
