data_PCOD9332528
_publ_section_title
;
Structure prediction by ZEFSAII (Michael W. Deem and Ramdas Pophale) SiO2 
 PCOD9332528
Probable space group: I 2 2 2
;
_chemical_formula_sum "Si O2"
_cell_formula_units_Z 32
_cell_length_a 8.843370
_cell_length_b 14.304447
_cell_length_c 10.717888
_cell_angle_alpha 90.000000
_cell_angle_beta 90.000000
_cell_angle_gamma 90.000000
_cell_volume 1355.807660
_symmetry_space_group_name_H-M "I 2 2 2"
_symmetry_group_IT_number 23
_symmetry_cell_setting 'orthorhombic'
loop_
_space_group_symop_operation_xyz
x,y,z
-x,-y,z
x,-y,-z
-x,y,-z
1/2+x,1/2+y,1/2+z
1/2-x,1/2-y,1/2+z
1/2+x,1/2-y,1/2-z
1/2-x,1/2+y,1/2-z
loop_
_atom_site_type_symbol
_atom_site_label
_atom_site_fract_x
_atom_site_fract_y
_atom_site_fract_z
Si Si1 0.105150 0.774825 0.773873
Si Si2 0.302140 0.624438 0.688942
Si Si3 0.258342 0.061114 0.328330
Si Si4 0.500000 0.500000 0.500000
Si Si5 0.000000 0.342662 0.000000
Si Si6 0.500000 0.500000 0.000000
O O1 0.170361 0.701020 0.673120
O O2 0.218078 0.862933 0.776182
O O3 0.095767 0.722916 0.906944
O O4 0.937478 0.814623 0.750235
O O5 0.767312 0.457468 0.774343
O O6 0.391149 0.567285 0.581748
O O7 0.395541 0.095405 0.411326
O O8 0.110625 0.060152 0.415442
#
# Coordination Sequence:
#
# PCOD9332528 Si02
#       6
#     8   8   8   2   4   2
#     4  12  25  48  73 117 148 204 257 318 381 466
#     4  12  26  47  80 107 157 201 263 308 392 460
#     4  12  26  46  74 113 150 204 253 323 385 460
#     4  12  24  52  82 112 150 224 232 338 390 442
#     4  12  29  47  82 112 156 204 260 330 380 456
#     4  12  22  42  68 106 148 200 250 296 388 460
#
# _framework density 23.602164999999999
#
# number of rings (size 3 to 8) (size 9 to 14) (size 15 to 20)
#    0.000    0.000    7.500    2.250    0.000    4.500 
#    0.000    0.000    0.000    6.000    0.000    0.000 
#    0.000    0.000    0.000    0.000    0.000    0.000 
#
# Total GULP energy -89511.893439 kJ/mol
# GULP energy per Si atom -5594.493340 kJ/mol
# Density = 2.354845 g / cm^3
# Si number density = 23.602165 Si / 1000 Ang^3
#
#
#
# Elastic Constant Matrix: (Units=GPa)
#
#
# Indices 1 2 3 4 5 6 
#
# 1 122.1657 80.8623 50.6731 0.0000 0.0000 0.0000
# 2 80.8623 187.6115 50.3990 0.0000 0.0000 0.0000
# 3 50.6731 50.3990 73.6591 0.0001 0.0000 0.0000
# 4 0.0000 0.0000 0.0001 45.0066 0.0000 0.0000
# 5 0.0000 0.0000 0.0000 0.0000 39.6528 0.0000
# 6 0.0000 0.0000 0.0000 0.0000 0.0000 37.4888
#
#
#
# Elastic Compliance Matrix: (Units=1/GPa)
#
#
# Indices 1 2 3 4 5 6 
#
# 1 0.013629 -0.004111 -0.006563 0.000000 0.000000 0.000000
# 2 -0.004111 0.007771 -0.002489 0.000000 0.000000 0.000000
# 3 -0.006563 -0.002489 0.019794 0.000000 0.000000 0.000000
# 4 0.000000 0.000000 0.000000 0.022219 0.000000 0.000000
# 5 0.000000 0.000000 0.000000 0.000000 0.025219 0.000000
# 6 0.000000 0.000000 0.000000 0.000000 0.000000 0.026675
#
#
# Mechanical properties :
#
#
# Convention : Reuss Voigt Hill
#
# Bulk Modulus (GPa) = 67.25906 83.03390 75.14648
# Shear Modulus (GPa) = 34.10927 37.86310 35.98619
#
# Velocity S-wave (km/s) = 3.80567 4.00962 3.90897
# Velocity P-wave (km/s) = 6.91879 7.52948 7.23059
#
# Compressibility (1/GPa) = 0.01486789
#
# Stress axis : x y z
#
# Youngs Moduli (GPa) = 73.37219 128.68935 50.52096
#
# Poissons Ratio (x) = 0.52907 0.33157
# Poissons Ratio (y) = 0.30165 0.12572
# Poissons Ratio (z) = 0.48155 0.32025
#
# Static dielectric constant tensor:
#      x y z
#    x -0.267710 0.000000 0.000000 
#    y 0.000000 1.958050 0.000000 
#    z 0.000000 0.000000 1.933600 
# 
# From -- ./inp_files/14434.got.cif
#   From: 2010.05.17/outbox.cif.g08.bks.cpg/sg23_8_cif.got.tgz:14434.got - 2010.06.04 12:02:01.
