data_PCOD9332331
_publ_section_title
;
Structure prediction by ZEFSAII (Michael W. Deem and Ramdas Pophale) SiO2 
 PCOD9332331
Probable space group: I 2 2 2
;
_chemical_formula_sum "Si O2"
_cell_formula_units_Z 26
_cell_length_a 5.504037
_cell_length_b 24.833835
_cell_length_c 9.085560
_cell_angle_alpha 90.000000
_cell_angle_beta 90.000000
_cell_angle_gamma 90.000000
_cell_volume 1241.872004
_symmetry_space_group_name_H-M "I 2 2 2"
_symmetry_group_IT_number 23
_symmetry_cell_setting 'orthorhombic'
loop_
_space_group_symop_operation_xyz
x,y,z
-x,-y,z
x,-y,-z
-x,y,-z
1/2+x,1/2+y,1/2+z
1/2-x,1/2-y,1/2+z
1/2+x,1/2-y,1/2-z
1/2-x,1/2+y,1/2-z
loop_
_atom_site_type_symbol
_atom_site_label
_atom_site_fract_x
_atom_site_fract_y
_atom_site_fract_z
Si Si1 0.533202 0.335045 0.827898
Si Si2 0.251108 0.775381 0.903504
Si Si3 0.000000 0.500000 0.500000
Si Si4 0.883684 0.056585 0.161471
O O1 0.712381 0.283406 0.829800
O O2 0.301031 0.315900 0.731301
O O3 0.610617 0.390984 0.757804
O O4 0.500000 0.344506 0.000000
O O5 0.500000 0.785073 0.000000
O O6 0.000000 0.777166 0.000000
O O7 0.117970 0.540598 0.614762
O O8 0.000000 0.000000 0.217736
O O9 0.000000 0.066953 0.000000
#
# Coordination Sequence:
#
# PCOD9332331 Si02
#       4
#     8   8   2   8
#     4  11  23  43  69 103 141 176 232 295 346 407
#     4  11  25  48  69 103 147 196 232 275 357 435
#     4   8  18  44  68  96 120 176 232 276 328 440
#     4   9  20  43  67  95 128 177 231 271 347 419
#
# _framework density 20.936136000000001
#
# number of rings (size 3 to 8) (size 9 to 14) (size 15 to 20)
#    0.000    2.154    0.000    4.615    0.000    0.615 
#   66.462    0.000    0.000    0.000    0.000    0.000 
#    0.000    0.000    0.000    0.000    0.000    0.000 
#
# Total GULP energy -72381.790906 kJ/mol
# GULP energy per Si atom -5567.830070 kJ/mol
# Density = 2.088848 g / cm^3
# Si number density = 20.936136 Si / 1000 Ang^3
#
#
#
# Elastic Constant Matrix: (Units=GPa)
#
#
# Indices 1 2 3 4 5 6 
#
# 1 96.7909 54.3882 59.0836 0.0000 0.0000 0.0000
# 2 54.3882 183.7608 106.9684 0.0000 0.0000 0.0000
# 3 59.0836 106.9684 143.1493 0.0000 0.0000 0.0000
# 4 0.0000 0.0000 0.0000 45.7526 0.0000 0.0000
# 5 0.0000 0.0000 0.0000 0.0000 18.7324 0.0000
# 6 0.0000 0.0000 0.0000 0.0000 0.0000 55.8124
#
#
#
# Elastic Compliance Matrix: (Units=1/GPa)
#
#
# Indices 1 2 3 4 5 6 
#
# 1 0.014007 -0.001381 -0.004749 0.000000 0.000000 0.000000
# 2 -0.001381 0.009767 -0.006729 0.000000 0.000000 0.000000
# 3 -0.004749 -0.006729 0.013974 0.000000 0.000000 0.000000
# 4 0.000000 0.000000 0.000000 0.021857 0.000000 0.000000
# 5 0.000000 0.000000 0.000000 0.000000 0.053383 0.000000
# 6 0.000000 0.000000 0.000000 0.000000 0.000000 0.017917
#
#
# Mechanical properties :
#
#
# Convention : Reuss Voigt Hill
#
# Bulk Modulus (GPa) = 83.12436 96.06461 89.59448
# Shear Modulus (GPa) = 31.12690 37.61020 34.36855
#
# Velocity S-wave (km/s) = 3.86003 4.24302 4.05605
# Velocity P-wave (km/s) = 7.72376 8.36591 8.05124
#
# Compressibility (1/GPa) = 0.01203017
#
# Stress axis : x y z
#
# Youngs Moduli (GPa) = 71.39512 102.38100 71.56216
#
# Poissons Ratio (x) = 0.14140 0.33985
# Poissons Ratio (y) = 0.09860 0.48152
# Poissons Ratio (z) = 0.33906 0.68889
#
# Static dielectric constant tensor:
#      x y z
#    x 1.901530 0.000000 0.000000 
#    y 0.000000 1.725230 0.000000 
#    z 0.000000 0.000000 1.774190 
# 
# From -- ./inp_files/551.got.cif
#   From: 2010.05.17/outbox.cif.g08.bks.cpg/sg23_1_cif.got.tgz:551.got - 2010.06.04 12:02:01.
