data_PCOD9332856
_publ_section_title
;
Structure prediction by ZEFSAII (Michael W. Deem and Ramdas Pophale) SiO2 
 PCOD9332856
Probable space group: I 21 21 21
;
_chemical_formula_sum "Si O2"
_cell_formula_units_Z 32
_cell_length_a 15.823686
_cell_length_b 11.022391
_cell_length_c 8.684271
_cell_angle_alpha 90.000000
_cell_angle_beta 90.000000
_cell_angle_gamma 90.000000
_cell_volume 1514.665860
_symmetry_space_group_name_H-M "I 21 21 21"
_symmetry_group_IT_number 24
_symmetry_cell_setting 'orthorhombic'
loop_
_space_group_symop_operation_xyz
x,y,z
-x,1/2-y,z
x,-y,1/2-z
1/2-x,y,-z
1/2+x,1/2+y,1/2+z
1/2-x,-y,1/2+z
1/2+x,1/2-y,-z
-x,1/2+y,1/2-z
loop_
_atom_site_type_symbol
_atom_site_label
_atom_site_fract_x
_atom_site_fract_y
_atom_site_fract_z
Si Si1 0.509570 0.884525 0.364246
Si Si2 0.406994 0.622671 0.690107
Si Si3 0.598985 0.370631 0.684848
Si Si4 0.161531 0.009154 0.930743
O O1 0.500000 0.750000 0.291650
O O2 0.574246 0.882910 0.507930
O O3 0.419548 0.905194 0.448994
O O4 0.522336 0.000000 0.250000
O O5 0.364097 0.500000 0.750000
O O6 0.498009 0.626055 0.782540
O O7 0.365786 0.749411 0.738644
O O8 0.630145 0.500000 0.750000
O O9 0.629412 0.383659 0.509064
O O10 0.172511 0.000000 0.750000
O O11 0.250000 0.048437 0.000000
#
# Coordination Sequence:
#
# PCOD9332856 Si02
#       4
#     8   8   8   8
#     4  11  22  37  56  91 124 158 200 257 305 353
#     4  10  18  32  58  83 120 152 196 250 305 352
#     4  10  17  34  55  82 118 151 199 242 307 353
#     4  11  23  36  58  90 124 160 203 252 304 366
#
# _framework density 21.126771999999999
#
# number of rings (size 3 to 8) (size 9 to 14) (size 15 to 20)
#    0.000    1.500    7.500    0.750    0.000    4.000 
#    0.000    0.000    0.000    0.000    0.000   57.750 
#    0.000    0.000    0.000    0.000    0.000    0.000 
#
# Total GULP energy -89095.340956 kJ/mol
# GULP energy per Si atom -5568.458810 kJ/mol
# Density = 2.107869 g / cm^3
# Si number density = 21.126772 Si / 1000 Ang^3
#
#
#
# Elastic Constant Matrix: (Units=GPa)
#
#
# Indices 1 2 3 4 5 6 
#
# 1 18.7262 1.5309 9.2349 0.0000 0.0000 0.0000
# 2 1.5309 212.0374 71.7109 0.0000 0.0000 0.0000
# 3 9.2349 71.7109 139.3397 0.0000 0.0000 0.0000
# 4 0.0000 0.0000 0.0000 44.7954 0.0000 0.0000
# 5 0.0000 0.0000 0.0000 0.0000 15.8385 0.0000
# 6 0.0000 0.0000 0.0000 0.0000 0.0000 1.5296
#
#
#
# Elastic Compliance Matrix: (Units=1/GPa)
#
#
# Indices 1 2 3 4 5 6 
#
# 1 0.055387 0.001019 -0.004195 0.000000 0.000000 0.000000
# 2 0.001019 0.005729 -0.003016 0.000000 0.000000 0.000000
# 3 -0.004195 -0.003016 0.009007 0.000000 0.000000 0.000000
# 4 0.000000 0.000000 0.000000 0.022324 0.000000 0.000000
# 5 0.000000 0.000000 0.000000 0.000000 0.063137 0.000000
# 6 0.000000 0.000000 0.000000 0.000000 0.000000 0.653775
#
#
# Mechanical properties :
#
#
# Convention : Reuss Voigt Hill
#
# Bulk Modulus (GPa) = 17.31955 59.45074 38.38515
# Shear Modulus (GPa) = 5.94538 31.60780 18.77659
#
# Velocity S-wave (km/s) = 1.67936 3.87214 2.98444
# Velocity P-wave (km/s) = 3.46064 6.94208 5.48491
#
# Compressibility (1/GPa) = 0.05773820
#
# Stress axis : x y z
#
# Youngs Moduli (GPa) = 18.05484 174.55850 111.02682
#
# Poissons Ratio (x) = -0.17786 0.46578
# Poissons Ratio (y) = -0.01840 0.33484
# Poissons Ratio (z) = 0.07574 0.52644
#
# Static dielectric constant tensor:
#      x y z
#    x 1.735920 0.000000 0.000000 
#    y 0.000000 1.864960 0.000000 
#    z 0.000000 0.000000 1.955070 
# 
# From -- ./inp_files/10377.got.cif
#   From: 2010.05.17/outbox.cif.g08.bks.cpg/sg24_6_cif.got.tgz:10377.got - 2010.06.04 00:33:39.
