data_PCOD9332391
_publ_section_title
;
Structure prediction by ZEFSAII (Michael W. Deem and Ramdas Pophale) SiO2 
 PCOD9332391
Probable space group: I 2 2 2
;
_chemical_formula_sum "Si O2"
_cell_formula_units_Z 26
_cell_length_a 26.876556
_cell_length_b 4.768489
_cell_length_c 8.580342
_cell_angle_alpha 90.000000
_cell_angle_beta 90.000000
_cell_angle_gamma 90.000000
_cell_volume 1099.661450
_symmetry_space_group_name_H-M "I 2 2 2"
_symmetry_group_IT_number 23
_symmetry_cell_setting 'orthorhombic'
loop_
_space_group_symop_operation_xyz
x,y,z
-x,-y,z
x,-y,-z
-x,y,-z
1/2+x,1/2+y,1/2+z
1/2-x,1/2-y,1/2+z
1/2+x,1/2-y,1/2-z
1/2-x,1/2+y,1/2-z
loop_
_atom_site_type_symbol
_atom_site_label
_atom_site_fract_x
_atom_site_fract_y
_atom_site_fract_z
Si Si1 0.500000 0.000000 0.500000
Si Si2 0.767223 0.337159 0.345273
Si Si3 0.086397 0.845104 0.846238
Si Si4 0.881683 0.345755 0.344610
O O1 0.465339 0.799421 0.395961
O O2 0.749824 0.500000 0.500000
O O3 0.761911 0.562264 0.206258
O O4 0.824842 0.254084 0.370140
O O5 0.118399 0.586604 0.785940
O O6 0.086132 0.915151 0.285180
O O7 0.106339 0.000000 0.000000
O O8 0.900375 0.500000 0.500000
#
# Coordination Sequence:
#
# PCOD9332391 Si02
#       4
#     2   8   8   8
#     4  12  26  48  76 104 142 176 248 308 358 412
#     4  11  24  42  66  99 145 184 231 286 339 406
#     4  12  24  44  75  98 136 181 233 293 349 425
#     4  11  25  44  69 105 143 185 232 290 353 417
#
# _framework density 23.643640000000001
#
# number of rings (size 3 to 8) (size 9 to 14) (size 15 to 20)
#    0.000    0.615    3.077    4.154    0.000   12.308 
#    0.000    0.769    6.769    0.000    0.000    0.000 
#    0.000    0.000    0.000    0.000    0.000    0.000 
#
# Total GULP energy -72775.589395 kJ/mol
# GULP energy per Si atom -5598.122261 kJ/mol
# Density = 2.358983 g / cm^3
# Si number density = 23.643640 Si / 1000 Ang^3
#
#
#
# Elastic Constant Matrix: (Units=GPa)
#
#
# Indices 1 2 3 4 5 6 
#
# 1 63.7502 49.0733 33.9673 0.0000 0.0000 0.0000
# 2 49.0733 173.1538 56.9627 0.0000 0.0000 0.0000
# 3 33.9673 56.9627 91.8341 0.0000 0.0000 0.0000
# 4 0.0000 0.0000 0.0000 66.2674 0.0000 0.0000
# 5 0.0000 0.0000 0.0000 0.0000 22.7010 0.0000
# 6 0.0000 0.0000 0.0000 0.0000 0.0000 69.1618
#
#
#
# Elastic Compliance Matrix: (Units=1/GPa)
#
#
# Indices 1 2 3 4 5 6 
#
# 1 0.021980 -0.004466 -0.005360 0.000000 0.000000 0.000000
# 2 -0.004466 0.008163 -0.003412 0.000000 0.000000 0.000000
# 3 -0.005360 -0.003412 0.014988 0.000000 0.000000 0.000000
# 4 0.000000 0.000000 0.000000 0.015090 0.000000 0.000000
# 5 0.000000 0.000000 0.000000 0.000000 0.044051 0.000000
# 6 0.000000 0.000000 0.000000 0.000000 0.000000 0.014459
#
#
# Mechanical properties :
#
#
# Convention : Reuss Voigt Hill
#
# Bulk Modulus (GPa) = 53.60142 67.63830 60.61986
# Shear Modulus (GPa) = 33.01982 44.20836 38.61409
#
# Velocity S-wave (km/s) = 3.74112 4.32878 4.04563
# Velocity P-wave (km/s) = 6.43281 7.32489 6.89329
#
# Compressibility (1/GPa) = 0.01865622
#
# Stress axis : x y z
#
# Youngs Moduli (GPa) = 45.49633 122.50001 66.72129
#
# Poissons Ratio (x) = 0.54710 0.35760
# Poissons Ratio (y) = 0.20319 0.22763
# Poissons Ratio (z) = 0.24384 0.41792
#
# Static dielectric constant tensor:
#      x y z
#    x 1.825710 0.000000 0.000000 
#    y 0.000000 1.934550 0.000000 
#    z 0.000000 0.000000 1.943620 
# 
# From -- ./inp_files/12825.got.cif
#   From: 2010.05.17/outbox.cif.g08.bks.cpg/sg23_7_cif.got.tgz:12825.got - 2010.06.04 12:02:01.
