data_PCOD9332179
_publ_section_title
;
Structure prediction by ZEFSAII (Michael W. Deem and Ramdas Pophale) SiO2 
 PCOD9332179
Probable space group: I 2 2 2
;
_chemical_formula_sum "Si O2"
_cell_formula_units_Z 40
_cell_length_a 12.345216
_cell_length_b 17.258925
_cell_length_c 9.174954
_cell_angle_alpha 90.000000
_cell_angle_beta 90.000000
_cell_angle_gamma 90.000000
_cell_volume 1954.863015
_symmetry_space_group_name_H-M "I 2 2 2"
_symmetry_group_IT_number 23
_symmetry_cell_setting 'orthorhombic'
loop_
_space_group_symop_operation_xyz
x,y,z
-x,-y,z
x,-y,-z
-x,y,-z
1/2+x,1/2+y,1/2+z
1/2-x,1/2-y,1/2+z
1/2+x,1/2-y,1/2-z
1/2-x,1/2+y,1/2-z
loop_
_atom_site_type_symbol
_atom_site_label
_atom_site_fract_x
_atom_site_fract_y
_atom_site_fract_z
Si Si1 0.500000 0.500000 0.741476
Si Si2 0.500000 0.375132 0.500000
Si Si3 0.110753 0.277624 0.440986
Si Si4 0.099900 0.547229 0.649281
Si Si5 0.790751 0.818071 0.174445
Si Si6 0.732830 0.476940 0.161310
O O1 0.533816 0.430464 0.633737
O O2 0.603645 0.521097 0.833731
O O3 0.393637 0.333453 0.566024
O O4 0.078801 0.363671 0.384894
O O5 0.165184 0.234471 0.305462
O O6 0.195600 0.284710 0.573546
O O7 0.000000 0.239414 0.500000
O O8 0.116663 0.500000 0.500000
O O9 0.209153 0.540097 0.738787
O O10 0.000000 0.500000 0.722232
O O11 0.744998 0.895221 0.256612
O O12 0.769672 0.500000 0.000000
#
# Coordination Sequence:
#
# PCOD9332179 Si02
#       6
#     4   4   8   8   8   8
#     4   9  19  36  66  94 130 170 216 266 324 394
#     4   9  20  40  64  94 125 178 222 266 325 412
#     4  12  26  45  68  99 135 182 227 285 348 408
#     4  11  21  45  72  90 123 175 231 274 326 395
#     4  11  26  42  65  99 138 175 225 281 356 401
#     4  11  23  39  65  99 131 170 220 275 331 401
#
# _framework density 20.461791000000002
#
# number of rings (size 3 to 8) (size 9 to 14) (size 15 to 20)
#    0.000    1.200    4.000    1.500    8.400    3.600 
#    0.000    0.000    0.000    0.000    0.000    0.000 
#    0.000    0.000    0.000    0.000    0.000    0.000 
#
# Total GULP energy -111547.346596 kJ/mol
# GULP energy per Si atom -5577.367330 kJ/mol
# Density = 2.041522 g / cm^3
# Si number density = 20.461791 Si / 1000 Ang^3
#
#
#
# Elastic Constant Matrix: (Units=GPa)
#
#
# Indices 1 2 3 4 5 6 
#
# 1 109.6812 19.1221 57.4204 0.0000 0.0000 0.0000
# 2 19.1221 41.7357 24.5731 0.0000 0.0000 0.0000
# 3 57.4204 24.5731 107.7741 0.0000 0.0001 0.0000
# 4 0.0000 0.0000 0.0000 8.1622 0.0001 0.0000
# 5 0.0000 0.0000 0.0001 0.0001 -166.9421 0.0000
# 6 0.0000 0.0000 0.0000 0.0000 0.0000 24.8586
#
#
#
# Elastic Compliance Matrix: (Units=1/GPa)
#
#
# Indices 1 2 3 4 5 6 
#
# 1 0.012807 -0.002137 -0.006336 0.000000 0.000000 0.000000
# 2 -0.002137 0.028032 -0.005253 0.000000 0.000000 0.000000
# 3 -0.006336 -0.005253 0.013852 0.000000 0.000000 0.000000
# 4 0.000000 0.000000 0.000000 0.122516 0.000000 0.000000
# 5 0.000000 0.000000 0.000000 0.000000 -0.005990 0.000000
# 6 0.000000 0.000000 0.000000 0.000000 0.000000 0.040228
#
#
# Mechanical properties :
#
#
# Convention : Reuss Voigt Hill
#
# Bulk Modulus (GPa) = 36.71195 51.26913 43.99054
# Shear Modulus (GPa) = 20.16317 -16.24590 1.95863
#
# Velocity S-wave (km/s) = 3.14252 -2.82079 0.97944
# Velocity P-wave (km/s) = 5.58103 3.80805 4.77751
#
# Compressibility (1/GPa) = 0.02723908
#
# Stress axis : x y z
#
# Youngs Moduli (GPa) = 78.08225 35.67317 72.19116
#
# Poissons Ratio (x) = 0.07624 0.45741
# Poissons Ratio (y) = 0.16688 0.37921
# Poissons Ratio (z) = 0.49473 0.18739
#
# Static dielectric constant tensor:
#      x y z
#    x 1.763610 0.000000 0.000000 
#    y 0.000000 1.771730 0.000000 
#    z 0.000000 0.000000 1.763400 
# 
# From -- ./inp_files/8504.got.cif
#   From: 2010.05.17/outbox.cif.g08.bks.cpg/sg23_5_cif.got.tgz:8504.got - 2010.06.04 12:02:01.
