data_PCOD9332592
_publ_section_title
;
Structure prediction by ZEFSAII (Michael W. Deem and Ramdas Pophale) SiO2 
 PCOD9332592
Probable space group: I 2 2 2
;
_chemical_formula_sum "Si O2"
_cell_formula_units_Z 22
_cell_length_a 5.236223
_cell_length_b 25.286673
_cell_length_c 6.718625
_cell_angle_alpha 90.000000
_cell_angle_beta 90.000000
_cell_angle_gamma 90.000000
_cell_volume 889.590688
_symmetry_space_group_name_H-M "I 2 2 2"
_symmetry_group_IT_number 23
_symmetry_cell_setting 'orthorhombic'
loop_
_space_group_symop_operation_xyz
x,y,z
-x,-y,z
x,-y,-z
-x,y,-z
1/2+x,1/2+y,1/2+z
1/2-x,1/2-y,1/2+z
1/2+x,1/2-y,1/2-z
1/2-x,1/2+y,1/2-z
loop_
_atom_site_type_symbol
_atom_site_label
_atom_site_fract_x
_atom_site_fract_y
_atom_site_fract_z
Si Si1 0.658382 0.168358 0.837477
Si Si2 0.000000 0.258568 0.000000
Si Si3 0.757478 0.934165 0.359832
Si Si4 0.000000 0.500000 0.500000
O O1 0.499977 0.200792 0.678779
O O2 0.820393 0.125023 0.721748
O O3 0.500000 0.136595 0.000000
O O4 0.782247 0.216302 0.957869
O O5 0.500000 0.933086 0.500000
O O6 0.000000 0.947804 0.500000
O O7 0.682567 0.968723 0.162572
#
# Coordination Sequence:
#
# PCOD9332592 Si02
#       4
#     8   4   8   2
#     4  12  26  45  72 115 163 218 268 331 409 486
#     4  12  26  42  72 112 162 216 266 320 398 498
#     4  12  31  54  86 124 164 216 284 349 418 510
#     4  12  30  62  88 120 168 226 278 362 444 474
#
# _framework density 24.730473
#
# number of rings (size 3 to 8) (size 9 to 14) (size 15 to 20)
#    0.000    0.000    7.273    0.545   10.182    5.818 
#    0.000    0.000    0.000    0.000    0.000    0.000 
#    0.000    0.000    0.000    0.000    0.000    0.000 
#
# Total GULP energy -61282.140944 kJ/mol
# GULP energy per Si atom -5571.103722 kJ/mol
# Density = 2.467419 g / cm^3
# Si number density = 24.730473 Si / 1000 Ang^3
#
#
#
# Elastic Constant Matrix: (Units=GPa)
#
#
# Indices 1 2 3 4 5 6 
#
# 1 111.5579 30.8567 71.4850 0.0000 0.0000 0.0000
# 2 30.8567 147.6815 67.8657 0.0000 0.0000 0.0000
# 3 71.4850 67.8657 203.7778 0.0000 0.0000 0.0000
# 4 0.0000 0.0000 0.0000 -4.2829 0.0000 0.0000
# 5 0.0000 0.0000 0.0000 0.0000 46.8297 0.0000
# 6 0.0000 0.0000 0.0000 0.0000 0.0000 13.7226
#
#
#
# Elastic Compliance Matrix: (Units=1/GPa)
#
#
# Indices 1 2 3 4 5 6 
#
# 1 0.011617 -0.000655 -0.003857 0.000000 0.000000 0.000000
# 2 -0.000655 0.008032 -0.002445 0.000000 0.000000 0.000000
# 3 -0.003857 -0.002445 0.007075 0.000000 0.000000 0.000000
# 4 0.000000 0.000000 0.000000 -0.233486 0.000000 0.000000
# 5 0.000000 0.000000 0.000000 0.000000 0.021354 0.000000
# 6 0.000000 0.000000 0.000000 0.000000 0.000000 0.072872
#
#
# Mechanical properties :
#
#
# Convention : Reuss Voigt Hill
#
# Bulk Modulus (GPa) = 78.06918 89.27022 83.66970
# Shear Modulus (GPa) = -52.99240 30.77455 -11.10892
#
# Velocity S-wave (km/s) = -4.63406 3.53143 -2.12173
# Velocity P-wave (km/s) = 1.73317 7.26661 5.28240
#
# Compressibility (1/GPa) = 0.01280915
#
# Stress axis : x y z
#
# Youngs Moduli (GPa) = 86.08375 124.50500 141.34870
#
# Poissons Ratio (x) = 0.08151 0.54519
# Poissons Ratio (y) = 0.05636 0.34563
# Poissons Ratio (z) = 0.33203 0.30444
#
# Static dielectric constant tensor:
#      x y z
#    x 2.040960 0.000000 0.000000 
#    y 0.000000 1.812840 0.000000 
#    z 0.000000 0.000000 1.711740 
# 
# From -- ./inp_files/136.got.cif
#   From: 2010.05.17/outbox.cif.g08.bks.cpg/sg23_1_cif.got.tgz:136.got - 2010.06.04 12:02:01.
