data_PCOD9332367
_publ_section_title
;
Structure prediction by ZEFSAII (Michael W. Deem and Ramdas Pophale) SiO2 
 PCOD9332367
Probable space group: I 2 2 2
;
_chemical_formula_sum "Si O2"
_cell_formula_units_Z 28
_cell_length_a 5.170461
_cell_length_b 33.215401
_cell_length_c 7.387893
_cell_angle_alpha 90.000000
_cell_angle_beta 90.000000
_cell_angle_gamma 90.000000
_cell_volume 1268.788879
_symmetry_space_group_name_H-M "I 2 2 2"
_symmetry_group_IT_number 23
_symmetry_cell_setting 'orthorhombic'
loop_
_space_group_symop_operation_xyz
x,y,z
-x,-y,z
x,-y,-z
-x,y,-z
1/2+x,1/2+y,1/2+z
1/2-x,1/2-y,1/2+z
1/2+x,1/2-y,1/2-z
1/2-x,1/2+y,1/2-z
loop_
_atom_site_type_symbol
_atom_site_label
_atom_site_fract_x
_atom_site_fract_y
_atom_site_fract_z
Si Si1 0.000000 0.500000 0.000000
Si Si2 0.250724 0.857081 0.624416
Si Si3 0.114480 0.441124 0.695995
Si Si4 0.000000 0.000000 0.000000
Si Si5 0.116728 0.226885 0.299496
O O1 0.059576 0.465288 0.156222
O O2 0.500000 0.847437 0.500000
O O3 0.298649 0.899143 0.721699
O O4 0.197300 0.818540 0.752288
O O5 0.000000 0.862530 0.500000
O O6 0.340113 0.471590 0.635669
O O7 0.000000 0.432207 0.500000
O O8 0.376179 0.253482 0.304847
O O9 0.000000 0.223878 0.500000
#
# Coordination Sequence:
#
# PCOD9332367 Si02
#       5
#     2   8   8   2   8
#     4  12  22  50  72  94 148 200 232 304 374 418
#     4  11  26  47  74 107 146 195 246 302 371 436
#     4  12  27  47  71 106 146 192 253 300 366 442
#     4  12  26  46  68 106 144 180 258 302 342 460
#     4  11  23  46  74 105 146 191 241 296 365 438
#
# _framework density 22.068289
#
# number of rings (size 3 to 8) (size 9 to 14) (size 15 to 20)
#    0.000    0.571    4.286    4.286    8.000    1.143 
#    5.143    0.000    0.000    0.000    0.000    0.000 
#    0.000    0.000    0.000    0.000    0.000    0.000 
#
# Total GULP energy -77966.618045 kJ/mol
# GULP energy per Si atom -5569.044146 kJ/mol
# Density = 2.201806 g / cm^3
# Si number density = 22.068289 Si / 1000 Ang^3
#
#
#
# Elastic Constant Matrix: (Units=GPa)
#
#
# Indices 1 2 3 4 5 6 
#
# 1 120.5365 60.0146 19.8052 0.0000 0.0000 0.0000
# 2 60.0146 214.7010 39.8643 -0.0001 0.0000 0.0000
# 3 19.8052 39.8643 80.1272 -0.0004 -0.0001 -0.0001
# 4 0.0000 -0.0001 -0.0004 62.6651 -0.0001 0.0000
# 5 0.0000 0.0000 -0.0001 -0.0001 11.3682 0.0000
# 6 0.0000 0.0000 -0.0001 0.0000 0.0000 51.4008
#
#
#
# Elastic Compliance Matrix: (Units=1/GPa)
#
#
# Indices 1 2 3 4 5 6 
#
# 1 0.009734 -0.002506 -0.001159 0.000000 0.000000 0.000000
# 2 -0.002506 0.005777 -0.002255 0.000000 0.000000 0.000000
# 3 -0.001159 -0.002255 0.013888 0.000000 0.000000 0.000000
# 4 0.000000 0.000000 0.000000 0.015958 0.000000 0.000000
# 5 0.000000 0.000000 0.000000 0.000000 0.087965 0.000000
# 6 0.000000 0.000000 0.000000 0.000000 0.000000 0.019455
#
#
# Mechanical properties :
#
#
# Convention : Reuss Voigt Hill
#
# Bulk Modulus (GPa) = 56.94794 72.74810 64.84802
# Shear Modulus (GPa) = 29.33067 44.79886 37.06476
#
# Velocity S-wave (km/s) = 3.64962 4.51045 4.10268
# Velocity P-wave (km/s) = 6.60462 7.75642 7.20358
#
# Compressibility (1/GPa) = 0.01755990
#
# Stress axis : x y z
#
# Youngs Moduli (GPa) = 102.72909 173.10971 72.00232
#
# Poissons Ratio (x) = 0.43377 0.08348
# Poissons Ratio (y) = 0.25741 0.16234
# Poissons Ratio (z) = 0.11911 0.39030
#
# Static dielectric constant tensor:
#      x y z
#    x 1.872320 0.000000 0.000000 
#    y 0.000000 1.942960 0.000000 
#    z 0.000000 0.000000 1.810650 
# 
# From -- ./inp_files/5132.got.cif
#   From: 2010.05.17/outbox.cif.g08.bks.cpg/sg23_3_cif.got.tgz:5132.got - 2010.06.04 12:02:01.
