data_PCOD9332246
_publ_section_title
;
Structure prediction by ZEFSAII (Michael W. Deem and Ramdas Pophale) SiO2 
 PCOD9332246
Probable space group: I 2 2 2
;
_chemical_formula_sum "Si O2"
_cell_formula_units_Z 34
_cell_length_a 7.383762
_cell_length_b 19.237347
_cell_length_c 10.255366
_cell_angle_alpha 90.000000
_cell_angle_beta 90.000000
_cell_angle_gamma 90.000000
_cell_volume 1456.713124
_symmetry_space_group_name_H-M "I 2 2 2"
_symmetry_group_IT_number 23
_symmetry_cell_setting 'orthorhombic'
loop_
_space_group_symop_operation_xyz
x,y,z
-x,-y,z
x,-y,-z
-x,y,-z
1/2+x,1/2+y,1/2+z
1/2-x,1/2-y,1/2+z
1/2+x,1/2-y,1/2-z
1/2-x,1/2+y,1/2-z
loop_
_atom_site_type_symbol
_atom_site_label
_atom_site_fract_x
_atom_site_fract_y
_atom_site_fract_z
Si Si1 0.260626 0.678577 0.715750
Si Si2 0.694426 0.093580 0.453368
Si Si3 0.319331 0.659267 0.220796
Si Si4 0.719206 0.419917 0.479381
Si Si5 0.000000 0.000000 0.500000
O O1 0.469363 0.663406 0.746572
O O2 0.243285 0.761092 0.711372
O O3 0.209750 0.634940 0.587250
O O4 0.155657 0.648284 0.839890
O O5 0.500000 0.067970 0.500000
O O6 0.786237 0.126821 0.580157
O O7 0.851509 0.039712 0.410166
O O8 0.238610 0.612039 0.337113
O O9 0.779457 0.500000 0.500000
O O10 0.500000 0.420733 0.500000
#
# Coordination Sequence:
#
# PCOD9332246 Si02
#       5
#     8   8   8   8   2
#     4  11  22  41  69 101 139 182 230 286 345 413
#     4  12  26  44  71 104 137 183 235 283 345 421
#     4  11  22  41  69 101 139 182 230 286 345 413
#     4   9  21  38  65  95 131 175 226 284 346 399
#     4  12  26  48  68 100 144 180 232 286 352 402
#
# _framework density 23.340216000000002
#
# number of rings (size 3 to 8) (size 9 to 14) (size 15 to 20)
#    0.000    1.176    2.353    3.176    3.294    1.882 
#    0.000    3.529    0.000    5.647    0.000    0.000 
#    0.000    0.000    0.000    0.000    0.000    0.000 
#
# Total GULP energy -95021.432326 kJ/mol
# GULP energy per Si atom -5589.496019 kJ/mol
# Density = 2.328709 g / cm^3
# Si number density = 23.340216 Si / 1000 Ang^3
#
#
#
# Elastic Constant Matrix: (Units=GPa)
#
#
# Indices 1 2 3 4 5 6 
#
# 1 98.5539 9.2639 -13.1448 0.0000 0.0000 0.0000
# 2 9.2639 170.4186 61.3599 0.0000 0.0000 0.0000
# 3 -13.1448 61.3599 138.6265 0.0001 -0.0002 -0.0001
# 4 0.0000 0.0000 0.0001 30.1363 -0.0002 0.0000
# 5 0.0000 0.0000 -0.0002 -0.0002 69.2891 0.0000
# 6 0.0000 0.0000 -0.0001 0.0000 0.0000 43.2581
#
#
#
# Elastic Compliance Matrix: (Units=1/GPa)
#
#
# Indices 1 2 3 4 5 6 
#
# 1 0.010447 -0.001100 0.001477 0.000000 0.000000 0.000000
# 2 -0.001100 0.007096 -0.003245 0.000000 0.000000 0.000000
# 3 0.001477 -0.003245 0.008790 0.000000 0.000000 0.000000
# 4 0.000000 0.000000 0.000000 0.033183 0.000000 0.000000
# 5 0.000000 0.000000 0.000000 0.000000 0.014432 0.000000
# 6 0.000000 0.000000 0.000000 0.000000 0.000000 0.023117
#
#
# Mechanical properties :
#
#
# Convention : Reuss Voigt Hill
#
# Bulk Modulus (GPa) = 48.54799 58.06187 53.30493
# Shear Modulus (GPa) = 45.59267 51.87805 48.73536
#
# Velocity S-wave (km/s) = 4.42452 4.71966 4.57447
# Velocity P-wave (km/s) = 6.85180 7.39125 7.12663
#
# Compressibility (1/GPa) = 0.02059817
#
# Stress axis : x y z
#
# Youngs Moduli (GPa) = 95.71961 140.92134 113.76359
#
# Poissons Ratio (x) = 0.15500 -0.16808
# Poissons Ratio (y) = 0.10528 0.36919
# Poissons Ratio (z) = -0.14142 0.45732
#
# Static dielectric constant tensor:
#      x y z
#    x 1.916630 0.000000 0.000000 
#    y 0.000000 -2.115440 0.000000 
#    z 0.000000 0.000000 1.811250 
# 
# From -- ./inp_files/6708.got.cif
#   From: 2010.05.17/outbox.cif.g08.bks.cpg/sg23_4_cif.got.tgz:6708.got - 2010.06.04 12:02:01.
