data_PCOD9332905
_publ_section_title
;
Structure prediction by ZEFSAII (Michael W. Deem and Ramdas Pophale) SiO2 
 PCOD9332905
Probable space group: I 21 21 21
;
_chemical_formula_sum "Si O2"
_cell_formula_units_Z 40
_cell_length_a 8.231244
_cell_length_b 11.837901
_cell_length_c 18.279449
_cell_angle_alpha 90.000000
_cell_angle_beta 90.000000
_cell_angle_gamma 90.000000
_cell_volume 1781.161421
_symmetry_space_group_name_H-M "I 21 21 21"
_symmetry_group_IT_number 24
_symmetry_cell_setting 'orthorhombic'
loop_
_space_group_symop_operation_xyz
x,y,z
-x,1/2-y,z
x,-y,1/2-z
1/2-x,y,-z
1/2+x,1/2+y,1/2+z
1/2-x,-y,1/2+z
1/2+x,1/2-y,-z
-x,1/2+y,1/2-z
loop_
_atom_site_type_symbol
_atom_site_label
_atom_site_fract_x
_atom_site_fract_y
_atom_site_fract_z
Si Si1 0.570658 0.945575 0.110307
Si Si2 0.250000 0.590574 0.500000
Si Si3 0.281958 0.088961 0.189660
Si Si4 0.581502 0.352592 0.534930
Si Si5 0.600073 0.387899 0.944179
Si Si6 0.000000 0.750000 0.784268
O O1 0.592905 0.845579 0.168180
O O2 0.422655 0.022547 0.142085
O O3 0.521570 0.881353 0.036580
O O4 0.710809 0.023794 0.076192
O O5 0.425610 0.643564 0.521096
O O6 0.156203 0.149970 0.135472
O O7 0.373971 0.183625 0.235136
O O8 0.216117 0.000000 0.250000
O O9 0.500000 0.250000 0.577740
O O10 0.750000 0.315339 0.500000
O O11 0.598907 0.474982 0.570162
O O12 0.750000 0.367644 0.000000
#
# Coordination Sequence:
#
# PCOD9332905 Si02
#       6
#     8   4   8   8   8   4
#     4  10  19  35  57  96 126 165 207 270 328 377
#     4  10  20  34  68  98 126 156 218 280 332 384
#     4  10  20  40  61  86 138 180 212 268 334 401
#     4  10  18  27  51  88 131 150 199 259 316 377
#     4  10  19  37  60  94 123 170 212 266 330 369
#     4  10  22  36  64  90 130 182 222 250 334 408
#
# _framework density 22.457257999999999
#
# number of rings (size 3 to 8) (size 9 to 14) (size 15 to 20)
#    0.000    2.000    7.000    0.000    5.600    0.000 
#    0.000    3.000    2.200    6.000    0.000    0.000 
#    0.000    0.000    0.000    0.000    0.000    0.000 
#
# Total GULP energy -111450.149740 kJ/mol
# GULP energy per Si atom -5572.507487 kJ/mol
# Density = 2.240614 g / cm^3
# Si number density = 22.457258 Si / 1000 Ang^3
#
#
#
# Elastic Constant Matrix: (Units=GPa)
#
#
# Indices 1 2 3 4 5 6 
#
# 1 131.5480 36.7721 37.3750 0.0000 0.0000 0.0000
# 2 36.7721 72.6631 21.8771 0.0000 0.0000 0.0000
# 3 37.3750 21.8771 109.0669 0.0000 0.0000 0.0000
# 4 0.0000 0.0000 0.0000 21.5371 0.0000 0.0000
# 5 0.0000 0.0000 0.0000 0.0000 33.4580 0.0000
# 6 0.0000 0.0000 0.0000 0.0000 0.0000 30.3635
#
#
#
# Elastic Compliance Matrix: (Units=1/GPa)
#
#
# Indices 1 2 3 4 5 6 
#
# 1 0.009417 -0.004038 -0.002417 0.000000 0.000000 0.000000
# 2 -0.004038 0.016378 -0.001901 0.000000 0.000000 0.000000
# 3 -0.002417 -0.001901 0.010378 0.000000 0.000000 0.000000
# 4 0.000000 0.000000 0.000000 0.046431 0.000000 0.000000
# 5 0.000000 0.000000 0.000000 0.000000 0.029888 0.000000
# 6 0.000000 0.000000 0.000000 0.000000 0.000000 0.032934
#
#
# Mechanical properties :
#
#
# Convention : Reuss Voigt Hill
#
# Bulk Modulus (GPa) = 51.38592 56.14739 53.76665
# Shear Modulus (GPa) = 29.65110 31.55532 30.60321
#
# Velocity S-wave (km/s) = 3.63758 3.75257 3.69552
# Velocity P-wave (km/s) = 6.36977 6.62056 6.49638
#
# Compressibility (1/GPa) = 0.01946058
#
# Stress axis : x y z
#
# Youngs Moduli (GPa) = 106.18749 61.05714 96.35402
#
# Poissons Ratio (x) = 0.24655 0.23290
# Poissons Ratio (y) = 0.42878 0.18321
# Poissons Ratio (z) = 0.25667 0.11610
#
# Static dielectric constant tensor:
#      x y z
#    x 1.773520 0.000000 0.000000 
#    y 0.000000 2.285680 0.000000 
#    z 0.000000 0.000000 1.808930 
# 
# From -- ./inp_files/24667.got.cif
#   From: 2010.05.17/outbox.cif.g08.bks.cpg/sg24_13_cif.got.tgz:24667.got - 2010.06.04 00:33:39.
