data_PCOD9332869
_publ_section_title
;
Structure prediction by ZEFSAII (Michael W. Deem and Ramdas Pophale) SiO2 
 PCOD9332869
Probable space group: I 21 21 21
;
_chemical_formula_sum "Si O2"
_cell_formula_units_Z 64
_cell_length_a 20.050580
_cell_length_b 8.608775
_cell_length_c 18.825441
_cell_angle_alpha 90.000000
_cell_angle_beta 90.000000
_cell_angle_gamma 90.000000
_cell_volume 3249.476913
_symmetry_space_group_name_H-M "I 21 21 21"
_symmetry_group_IT_number 24
_symmetry_cell_setting 'orthorhombic'
loop_
_space_group_symop_operation_xyz
x,y,z
-x,1/2-y,z
x,-y,1/2-z
1/2-x,y,-z
1/2+x,1/2+y,1/2+z
1/2-x,-y,1/2+z
1/2+x,1/2-y,-z
-x,1/2+y,1/2-z
loop_
_atom_site_type_symbol
_atom_site_label
_atom_site_fract_x
_atom_site_fract_y
_atom_site_fract_z
Si Si1 0.293209 0.876180 0.435671
Si Si2 0.863663 0.872707 0.668841
Si Si3 0.534084 0.916067 0.443635
Si Si4 0.354153 0.428623 0.513135
Si Si5 0.257812 0.077000 0.679698
Si Si6 0.396865 0.145057 0.292603
Si Si7 0.253623 0.588726 0.121202
Si Si8 0.090441 0.125953 0.543808
O O1 0.250000 0.804869 0.500000
O O2 0.334762 0.759603 0.385329
O O3 0.238442 0.962483 0.386678
O O4 0.346489 0.007528 0.459891
O O5 0.927689 0.948393 0.630612
O O6 0.889689 0.790050 0.739794
O O7 0.799518 0.985248 0.672443
O O8 0.500000 0.750000 0.437706
O O9 0.595546 0.932395 0.497156
O O10 0.477137 0.032798 0.468156
O O11 0.304474 0.394318 0.446082
O O12 0.311934 0.471592 0.581912
O O13 0.395750 0.268036 0.509202
O O14 0.178600 0.089721 0.693540
O O15 0.271453 0.253049 0.657534
O O16 0.288489 0.000000 0.750000
O O17 0.419101 0.177631 0.373021
O O18 0.430241 0.000000 0.250000
#
# Coordination Sequence:
#
# PCOD9332869 Si02
#       8
#     8   8   8   8   8   8   8   8
#     4  11  20  32  57  82 109 158 192 236 301 350
#     4  11  22  36  55  79 117 153 199 245 287 328
#     4  11  22  37  51  78 113 158 198 247 277 328
#     4  10  21  37  56  78 109 150 198 242 291 343
#     4  10  18  35  54  78 110 148 190 233 289 356
#     4  10  17  35  53  73 109 158 196 228 273 332
#     4  10  21  35  57  82 106 145 193 248 301 340
#     4  11  20  37  57  74 113 160 199 235 283 343
#
# _framework density 19.695478999999999
#
# number of rings (size 3 to 8) (size 9 to 14) (size 15 to 20)
#    0.000    1.500    7.500    1.125    3.500    0.500 
#    0.000    5.000    2.750    0.000    0.000    0.000 
#    0.000    0.000   97.750    1.375    0.000    0.000 
#
# Total GULP energy -178317.208888 kJ/mol
# GULP energy per Si atom -5572.412778 kJ/mol
# Density = 1.965065 g / cm^3
# Si number density = 19.695479 Si / 1000 Ang^3
#
#
#
# Elastic Constant Matrix: (Units=GPa)
#
#
# Indices 1 2 3 4 5 6 
#
# 1 71.5470 20.7103 33.1664 0.0000 0.0000 0.0000
# 2 20.7103 47.2544 11.6475 0.0000 0.0000 0.0000
# 3 33.1664 11.6475 43.1786 0.0000 0.0000 0.0000
# 4 0.0000 0.0000 0.0000 40.2396 0.0000 0.0000
# 5 0.0000 0.0000 0.0000 0.0000 13.3355 0.0000
# 6 0.0000 0.0000 0.0000 0.0000 0.0000 15.0942
#
#
#
# Elastic Compliance Matrix: (Units=1/GPa)
#
#
# Indices 1 2 3 4 5 6 
#
# 1 0.023291 -0.006211 -0.016215 0.000000 0.000000 0.000000
# 2 -0.006211 0.024326 -0.001791 0.000000 0.000000 0.000000
# 3 -0.016215 -0.001791 0.036098 0.000000 0.000000 0.000000
# 4 0.000000 0.000000 0.000000 0.024851 0.000000 0.000000
# 5 0.000000 0.000000 0.000000 0.000000 0.074988 0.000000
# 6 0.000000 0.000000 0.000000 0.000000 0.000000 0.066251
#
#
# Mechanical properties :
#
#
# Convention : Reuss Voigt Hill
#
# Bulk Modulus (GPa) = 28.34429 32.55870 30.45150
# Shear Modulus (GPa) = 16.12905 20.16424 18.14664
#
# Velocity S-wave (km/s) = 2.86478 3.20316 3.03869
# Velocity P-wave (km/s) = 5.03638 5.49975 5.27316
#
# Compressibility (1/GPa) = 0.03528047
#
# Stress axis : x y z
#
# Youngs Moduli (GPa) = 42.93415 41.10879 27.70242
#
# Poissons Ratio (x) = 0.25534 0.44920
# Poissons Ratio (y) = 0.26667 0.04961
# Poissons Ratio (z) = 0.69619 0.07362
#
# Static dielectric constant tensor:
#      x y z
#    x 1.687820 0.000000 0.000000 
#    y 0.000000 1.835780 0.000000 
#    z 0.000000 0.000000 1.760250 
# 
# From -- ./inp_files/34012.got.cif
#   From: 2010.05.17/outbox.cif.g08.bks.cpg/sg24_18_cif.got.tgz:34012.got - 2010.06.04 00:33:39.
