data_PCOD9332116
_publ_section_title
;
Structure prediction by ZEFSAII (Michael W. Deem and Ramdas Pophale) SiO2 
 PCOD9332116
Probable space group: I 2 2 2
;
_chemical_formula_sum "Si O2"
_cell_formula_units_Z 60
_cell_length_a 20.300937
_cell_length_b 23.453967
_cell_length_c 6.159802
_cell_angle_alpha 90.000000
_cell_angle_beta 90.000000
_cell_angle_gamma 90.000000
_cell_volume 2932.912765
_symmetry_space_group_name_H-M "I 2 2 2"
_symmetry_group_IT_number 23
_symmetry_cell_setting 'orthorhombic'
loop_
_space_group_symop_operation_xyz
x,y,z
-x,-y,z
x,-y,-z
-x,y,-z
1/2+x,1/2+y,1/2+z
1/2-x,1/2-y,1/2+z
1/2+x,1/2-y,1/2-z
1/2-x,1/2+y,1/2-z
loop_
_atom_site_type_symbol
_atom_site_label
_atom_site_fract_x
_atom_site_fract_y
_atom_site_fract_z
Si Si1 0.825438 0.782593 0.344879
Si Si2 0.322310 0.361850 0.237967
Si Si3 0.712645 0.819154 0.071076
Si Si4 0.895719 0.552363 0.168334
Si Si5 0.076865 0.783831 0.032973
Si Si6 0.097676 0.348167 0.831655
Si Si7 0.745075 0.473953 0.749135
Si Si8 0.500000 0.907919 0.000000
O O1 0.809695 0.833960 0.505341
O O2 0.758156 0.776313 0.209491
O O3 0.838497 0.721974 0.452681
O O4 0.885603 0.795250 0.191063
O O5 0.263898 0.346291 0.406748
O O6 0.388836 0.329883 0.310072
O O7 0.314958 0.429036 0.234664
O O8 0.669304 0.858959 0.222084
O O9 0.820713 0.549101 0.252736
O O10 0.948343 0.555199 0.360907
O O11 0.906903 0.500000 0.000000
O O12 0.905519 0.611397 0.039210
O O13 0.091914 0.718599 0.106666
O O14 0.000000 0.790474 0.000000
O O15 0.042144 0.368619 0.664282
O O16 0.738116 0.500000 0.500000
O O17 0.743583 0.500000 0.000000
#
# Coordination Sequence:
#
# PCOD9332116 Si02
#       8
#     8   8   8   8   8   8   8   4
#     4  11  21  38  64  98 133 174 221 284 344 433
#     4  11  24  41  71  99 133 182 221 293 359 438
#     4  11  21  36  63  96 132 169 228 280 353 406
#     4  11  28  47  66  94 134 192 246 305 356 412
#     4  11  26  41  64 101 144 180 227 277 355 436
#     4  12  26  42  62  99 142 187 237 298 342 421
#     4  11  28  49  75 108 140 177 240 309 374 429
#     4  12  28  45  68  86 138 196 255 290 346 418
#
# _framework density 20.457477999999998
#
# number of rings (size 3 to 8) (size 9 to 14) (size 15 to 20)
#    0.000    0.800    2.667    3.600   16.800    2.133 
#    0.000    0.000    0.000    0.400    0.000    0.000 
#    0.000    0.000    0.000    0.000    0.000    0.000 
#
# Total GULP energy -167416.778641 kJ/mol
# GULP energy per Si atom -5580.559288 kJ/mol
# Density = 2.041092 g / cm^3
# Si number density = 20.457478 Si / 1000 Ang^3
#
#
#
# Elastic Constant Matrix: (Units=GPa)
#
#
# Indices 1 2 3 4 5 6 
#
# 1 89.4554 48.5343 28.6066 0.0000 0.0000 0.0000
# 2 48.5343 75.8648 41.5165 0.0000 0.0000 0.0000
# 3 28.6066 41.5165 93.4487 0.0000 0.0000 0.0000
# 4 0.0000 0.0000 0.0000 23.7478 0.0000 0.0000
# 5 0.0000 0.0000 0.0000 0.0000 27.8805 0.0000
# 6 0.0000 0.0000 0.0000 0.0000 0.0000 49.2991
#
#
#
# Elastic Compliance Matrix: (Units=1/GPa)
#
#
# Indices 1 2 3 4 5 6 
#
# 1 0.017139 -0.010693 -0.000496 0.000000 0.000000 0.000000
# 2 -0.010693 0.024087 -0.007428 0.000000 0.000000 0.000000
# 3 -0.000496 -0.007428 0.014153 0.000000 0.000000 0.000000
# 4 0.000000 0.000000 0.000000 0.042109 0.000000 0.000000
# 5 0.000000 0.000000 0.000000 0.000000 0.035867 0.000000
# 6 0.000000 0.000000 0.000000 0.000000 0.000000 0.020284
#
#
# Mechanical properties :
#
#
# Convention : Reuss Voigt Hill
#
# Bulk Modulus (GPa) = 55.11141 55.12043 55.11592
# Shear Modulus (GPa) = 25.39076 29.52623 27.45850
#
# Velocity S-wave (km/s) = 3.52682 3.80320 3.66761
# Velocity P-wave (km/s) = 6.60171 6.80354 6.70338
#
# Compressibility (1/GPa) = 0.01814506
#
# Stress axis : x y z
#
# Youngs Moduli (GPa) = 58.34650 41.51598 70.65738
#
# Poissons Ratio (x) = 0.44394 0.03504
# Poissons Ratio (y) = 0.62391 0.52483
# Poissons Ratio (z) = 0.02893 0.30837
#
# Static dielectric constant tensor:
#      x y z
#    x 1.704950 0.000000 0.000000 
#    y 0.000000 1.774650 0.000000 
#    z 0.000000 0.000000 1.868740 
# 
# From -- ./inp_files/4051.got.cif
#   From: 2010.05.17/outbox.cif.g08.bks.cpg/sg23_3_cif.got.tgz:4051.got - 2010.06.04 12:02:01.
