data_PCOD9332844
_publ_section_title
;
Structure prediction by ZEFSAII (Michael W. Deem and Ramdas Pophale) SiO2 
 PCOD9332844
Probable space group: I 21 21 21
;
_chemical_formula_sum "Si O2"
_cell_formula_units_Z 56
_cell_length_a 13.396065
_cell_length_b 9.599925
_cell_length_c 21.184315
_cell_angle_alpha 90.000000
_cell_angle_beta 90.000000
_cell_angle_gamma 90.000000
_cell_volume 2724.328739
_symmetry_space_group_name_H-M "I 21 21 21"
_symmetry_group_IT_number 24
_symmetry_cell_setting 'orthorhombic'
loop_
_space_group_symop_operation_xyz
x,y,z
-x,1/2-y,z
x,-y,1/2-z
1/2-x,y,-z
1/2+x,1/2+y,1/2+z
1/2-x,-y,1/2+z
1/2+x,1/2-y,-z
-x,1/2+y,1/2-z
loop_
_atom_site_type_symbol
_atom_site_label
_atom_site_fract_x
_atom_site_fract_y
_atom_site_fract_z
Si Si1 0.056730 0.500000 0.750000
Si Si2 0.026280 0.091327 0.310730
Si Si3 0.754467 0.326929 0.307685
Si Si4 0.928512 0.855700 0.562481
Si Si5 0.326619 0.544946 0.867185
Si Si6 0.048610 0.893586 0.870563
Si Si7 0.199508 0.710138 0.679034
Si Si8 0.250000 0.487593 0.500000
O O1 0.125651 0.611698 0.717397
O O2 0.992114 0.579423 0.800600
O O3 0.144151 0.089720 0.323389
O O4 0.000000 0.250000 0.294662
O O5 0.946320 0.050042 0.363956
O O6 0.003475 0.000000 0.250000
O O7 0.781404 0.163901 0.321469
O O8 0.665954 0.373658 0.355015
O O9 0.730111 0.325741 0.231545
O O10 0.869676 0.765916 0.617048
O O11 0.844195 0.920894 0.519727
O O12 0.000000 0.750000 0.527183
O O13 0.997501 0.980115 0.590691
O O14 0.287530 0.392554 0.845688
O O15 0.283533 0.585891 0.935680
O O16 0.000000 0.750000 0.895102
#
# Coordination Sequence:
#
# PCOD9332844 Si02
#       8
#     4   8   8   8   8   8   8   4
#     4  10  18  26  50  84 120 160 180 212 284 370
#     4  10  22  37  57  87 125 159 195 237 294 365
#     4  11  20  33  57  92 131 149 189 246 304 356
#     4  10  24  41  61  92 118 155 206 253 299 356
#     4  10  19  39  60  83 112 162 212 244 285 362
#     4  11  21  34  57  90 130 156 194 239 302 365
#     4  10  17  32  59  84 121 156 185 226 299 372
#     4  10  22  44  68  78 110 168 216 244 292 360
#
# _framework density 20.555522
#
# number of rings (size 3 to 8) (size 9 to 14) (size 15 to 20)
#    0.000    1.714    2.857    3.429    5.000    0.000 
#    0.000   11.429    0.000    0.857    0.000    0.000 
#    0.000    0.000    0.000    0.000    0.000    0.000 
#
# Total GULP energy -156041.261775 kJ/mol
# GULP energy per Si atom -5572.902206 kJ/mol
# Density = 2.050874 g / cm^3
# Si number density = 20.555522 Si / 1000 Ang^3
#
#
#
# Elastic Constant Matrix: (Units=GPa)
#
#
# Indices 1 2 3 4 5 6 
#
# 1 144.0006 41.2671 12.0073 0.0000 0.0000 0.0000
# 2 41.2671 56.5415 7.8408 0.0000 0.0000 0.0000
# 3 12.0073 7.8408 36.5587 0.0000 0.0000 0.0000
# 4 0.0000 0.0000 0.0000 -17.1318 0.0000 0.0000
# 5 0.0000 0.0000 0.0000 0.0000 14.2858 0.0000
# 6 0.0000 0.0000 0.0000 0.0000 0.0000 18.7042
#
#
#
# Elastic Compliance Matrix: (Units=1/GPa)
#
#
# Indices 1 2 3 4 5 6 
#
# 1 0.008868 -0.006254 -0.001571 0.000000 0.000000 0.000000
# 2 -0.006254 0.022639 -0.002801 0.000000 0.000000 0.000000
# 3 -0.001571 -0.002801 0.028470 0.000000 0.000000 0.000000
# 4 0.000000 0.000000 0.000000 -0.058371 0.000000 0.000000
# 5 0.000000 0.000000 0.000000 0.000000 0.070000 0.000000
# 6 0.000000 0.000000 0.000000 0.000000 0.000000 0.053464
#
#
# Mechanical properties :
#
#
# Convention : Reuss Voigt Hill
#
# Bulk Modulus (GPa) = 25.82402 39.92568 32.87485
# Shear Modulus (GPa) = 31.40085 14.90400 23.15243
#
# Velocity S-wave (km/s) = 3.91271 2.69562 3.35973
# Velocity P-wave (km/s) = 5.74480 5.39944 5.57479
#
# Compressibility (1/GPa) = 0.03872364
#
# Stress axis : x y z
#
# Youngs Moduli (GPa) = 112.76814 44.17094 35.12456
#
# Poissons Ratio (x) = 0.27626 0.05519
# Poissons Ratio (y) = 0.70529 0.09840
# Poissons Ratio (z) = 0.17718 0.12374
#
# Static dielectric constant tensor:
#      x y z
#    x 1.788310 0.000000 0.000000 
#    y 0.000000 1.783490 0.000000 
#    z 0.000000 0.000000 1.756170 
# 
# From -- ./inp_files/33393.got.cif
#   From: 2010.05.17/outbox.cif.g08.bks.cpg/sg24_17_cif.got.tgz:33393.got - 2010.06.04 00:33:39.
