data_PCOD9332902
_publ_section_title
;
Structure prediction by ZEFSAII (Michael W. Deem and Ramdas Pophale) SiO2 
 PCOD9332902
Probable space group: I 21 21 21
;
_chemical_formula_sum "Si O2"
_cell_formula_units_Z 64
_cell_length_a 27.160622
_cell_length_b 18.909546
_cell_length_c 8.888917
_cell_angle_alpha 90.000000
_cell_angle_beta 90.000000
_cell_angle_gamma 90.000000
_cell_volume 4565.303603
_symmetry_space_group_name_H-M "I 21 21 21"
_symmetry_group_IT_number 24
_symmetry_cell_setting 'orthorhombic'
loop_
_space_group_symop_operation_xyz
x,y,z
-x,1/2-y,z
x,-y,1/2-z
1/2-x,y,-z
1/2+x,1/2+y,1/2+z
1/2-x,-y,1/2+z
1/2+x,1/2-y,-z
-x,1/2+y,1/2-z
loop_
_atom_site_type_symbol
_atom_site_label
_atom_site_fract_x
_atom_site_fract_y
_atom_site_fract_z
Si Si1 0.492730 0.922579 0.818487
Si Si2 0.052530 0.708899 0.173252
Si Si3 0.305937 0.076698 0.818846
Si Si4 0.901192 0.662279 0.679659
Si Si5 0.901192 0.662279 0.320340
Si Si6 0.052530 0.708899 0.826748
Si Si7 0.305938 0.076698 0.181154
Si Si8 0.007270 0.077421 0.681513
O O1 0.537644 0.869737 0.776288
O O2 0.442779 0.886712 0.756584
O O3 0.498198 0.000000 0.750000
O O4 0.490318 0.924731 0.000000
O O5 0.088596 0.757407 0.269649
O O6 0.000000 0.750000 0.175246
O O7 0.069220 0.707143 1.000000
O O8 0.347750 0.132633 0.775947
O O9 0.250000 0.095565 0.773365
O O10 0.317521 0.000000 0.750000
O O11 0.306752 0.070550 1.000000
O O12 0.906564 0.656728 0.500000
O O13 0.911404 0.742593 0.730351
O O14 0.847750 0.632633 0.724053
O O15 0.942779 0.613288 0.756584
O O16 0.000000 0.750000 0.824754
O O17 0.037644 0.630263 0.776288
O O18 0.317521 0.000000 0.250000
O O19 0.001802 0.000000 0.750000
#
# Coordination Sequence:
#
# PCOD9332902 Si02
#       8
#     8   8   8   8   8   8   8   8
#     4  10  19  29  41  58  81 107 133 163 197 233
#     4   8  16  29  41  55  78 105 130 160 197 233
#     4   9  18  30  41  56  79 105 134 167 199 229
#     4  10  18  27  42  60  78 105 137 166 196 232
#     4  10  18  27  42  60  78 105 137 166 196 232
#     4   8  16  29  41  55  78 105 130 160 197 233
#     4   9  18  30  41  56  79 105 134 167 199 229
#     4  10  19  29  41  58  81 107 133 163 197 233
#
# _framework density 14.018782
#
# number of rings (size 3 to 8) (size 9 to 14) (size 15 to 20)
#    0.000    2.750    0.000    3.750    0.000    9.500 
#    0.000    0.000    0.000    0.000    0.000    0.000 
#    0.000    1.000    0.000    2.250    0.000    3.500 
#
# Total GULP energy -178210.004048 kJ/mol
# GULP energy per Si atom -5569.062627 kJ/mol
# Density = 1.398687 g / cm^3
# Si number density = 14.018782 Si / 1000 Ang^3
#
#
#
# Elastic Constant Matrix: (Units=GPa)
#
#
# Indices 1 2 3 4 5 6 
#
# 1 80.8924 55.7864 33.6699 0.0000 0.0000 0.0000
# 2 55.7864 113.5532 37.5615 0.0000 0.0000 0.0000
# 3 33.6699 37.5615 37.4240 0.0000 0.0000 0.0000
# 4 0.0000 0.0000 0.0000 24.9880 0.0000 0.0000
# 5 0.0000 0.0000 0.0000 0.0000 15.0051 0.0000
# 6 0.0000 0.0000 0.0000 0.0000 0.0000 24.8963
#
#
#
# Elastic Compliance Matrix: (Units=1/GPa)
#
#
# Indices 1 2 3 4 5 6 
#
# 1 0.022612 -0.006556 -0.013764 0.000000 0.000000 0.000000
# 2 -0.006556 0.015084 -0.009241 0.000000 0.000000 0.000000
# 3 -0.013764 -0.009241 0.048379 0.000000 0.000000 0.000000
# 4 0.000000 0.000000 0.000000 0.040019 0.000000 0.000000
# 5 0.000000 0.000000 0.000000 0.000000 0.066644 0.000000
# 6 0.000000 0.000000 0.000000 0.000000 0.000000 0.040167
#
#
# Mechanical properties :
#
#
# Convention : Reuss Voigt Hill
#
# Bulk Modulus (GPa) = 37.10108 53.98948 45.54528
# Shear Modulus (GPa) = 16.61061 19.96798 18.28930
#
# Velocity S-wave (km/s) = 3.44595 3.77818 3.61588
# Velocity P-wave (km/s) = 6.50811 7.59136 7.07051
#
# Compressibility (1/GPa) = 0.02695340
#
# Stress axis : x y z
#
# Youngs Moduli (GPa) = 44.22347 66.29471 20.67010
#
# Poissons Ratio (x) = 0.43464 0.28450
# Poissons Ratio (y) = 0.28994 0.19101
# Poissons Ratio (z) = 0.60869 0.61263
#
# Static dielectric constant tensor:
#      x y z
#    x 1.453810 0.000000 0.000000 
#    y 0.000000 1.467820 0.000000 
#    z 0.000000 0.000000 1.471430 
# 
# From -- ./inp_files/16517.got.cif
#   From: 2010.05.17/outbox.cif.g08.bks.cpg/sg24_9_cif.got.tgz:16517.got - 2010.06.04 00:33:39.
