data_PCOD9332436
_publ_section_title
;
Structure prediction by ZEFSAII (Michael W. Deem and Ramdas Pophale) SiO2 
 PCOD9332436
Probable space group: I 2 2 2
;
_chemical_formula_sum "Si O2"
_cell_formula_units_Z 40
_cell_length_a 9.153411
_cell_length_b 30.144700
_cell_length_c 7.315433
_cell_angle_alpha 90.000000
_cell_angle_beta 90.000000
_cell_angle_gamma 90.000000
_cell_volume 2018.524227
_symmetry_space_group_name_H-M "I 2 2 2"
_symmetry_group_IT_number 23
_symmetry_cell_setting 'orthorhombic'
loop_
_space_group_symop_operation_xyz
x,y,z
-x,-y,z
x,-y,-z
-x,y,-z
1/2+x,1/2+y,1/2+z
1/2-x,1/2-y,1/2+z
1/2+x,1/2-y,1/2-z
1/2-x,1/2+y,1/2-z
loop_
_atom_site_type_symbol
_atom_site_label
_atom_site_fract_x
_atom_site_fract_y
_atom_site_fract_z
Si Si1 0.109720 0.791163 0.264510
Si Si2 0.708408 0.294796 0.342525
Si Si3 0.331025 0.947731 0.534432
Si Si4 0.361422 0.389338 0.235544
Si Si5 0.796065 0.893173 0.159794
O O1 0.184691 0.746353 0.327824
O O2 0.160453 0.838983 0.337681
O O3 0.935513 0.787136 0.279914
O O4 0.150752 0.796019 0.050091
O O5 0.766456 0.343899 0.298052
O O6 0.500000 0.935648 0.500000
O O7 0.219396 0.922272 0.400490
O O8 0.289783 0.931569 0.737409
O O9 0.315155 0.000000 0.500000
O O10 0.299654 0.396511 0.440502
O O11 0.536364 0.394162 0.265228
#
# Coordination Sequence:
#
# PCOD9332436 Si02
#       5
#     8   8   8   8   8
#     4   9  19  34  52  79 113 147 185 228 276 331
#     4   9  19  34  52  79 113 147 185 228 276 331
#     4  11  25  41  59  87 119 151 191 243 302 355
#     4   9  20  40  62  84 115 153 195 242 287 341
#     4   9  20  40  62  84 115 153 195 242 287 341
#
# _framework density 19.816457
#
# number of rings (size 3 to 8) (size 9 to 14) (size 15 to 20)
#    0.000    2.600    0.000    3.000    2.800    5.600 
#    0.000    8.000    0.000    0.000    0.000    0.000 
#    0.000    0.000    0.000    0.000    0.000    0.000 
#
# Total GULP energy -111610.563201 kJ/mol
# GULP energy per Si atom -5580.528160 kJ/mol
# Density = 1.977135 g / cm^3
# Si number density = 19.816457 Si / 1000 Ang^3
#
#
#
# Elastic Constant Matrix: (Units=GPa)
#
#
# Indices 1 2 3 4 5 6 
#
# 1 20.1768 26.1417 16.5996 -0.0003 -0.0003 -0.0001
# 2 26.1417 88.8566 28.3370 0.0001 -0.0002 0.0005
# 3 16.5996 28.3370 67.5566 0.0021 -0.0013 -0.0035
# 4 -0.0003 0.0001 0.0021 29.5815 0.0004 0.0006
# 5 -0.0003 -0.0002 -0.0013 0.0004 25.6731 -0.0005
# 6 -0.0001 0.0005 -0.0035 0.0006 -0.0005 17.7901
#
#
#
# Elastic Compliance Matrix: (Units=1/GPa)
#
#
# Indices 1 2 3 4 5 6 
#
# 1 0.088346 -0.022013 -0.012474 0.000002 0.000000 -0.000002
# 2 -0.022013 0.018477 -0.002341 0.000000 0.000000 -0.000001
# 3 -0.012474 -0.002341 0.018850 -0.000001 0.000001 0.000004
# 4 0.000002 0.000000 -0.000001 0.033805 0.000000 -0.000001
# 5 0.000000 0.000000 0.000001 0.000000 0.038951 0.000001
# 6 -0.000002 -0.000001 0.000004 -0.000001 0.000001 0.056211
#
#
# Mechanical properties :
#
#
# Convention : Reuss Voigt Hill
#
# Bulk Modulus (GPa) = 19.22531 35.41630 27.32080
# Shear Modulus (GPa) = 14.46609 21.64306 18.05458
#
# Velocity S-wave (km/s) = 2.70479 3.30839 3.02170
# Velocity P-wave (km/s) = 4.41331 5.70131 5.09815
#
# Compressibility (1/GPa) = 0.05201477
#
# Stress axis : x y z
#
# Youngs Moduli (GPa) = 11.31915 54.12101 53.05159
#
# Poissons Ratio (x) = 1.19139 0.66178
# Poissons Ratio (y) = 0.24917 0.12421
# Poissons Ratio (z) = 0.14120 0.12672
#
# Static dielectric constant tensor:
#      x y z
#    x 1.687170 0.000000 0.000000 
#    y 0.000000 1.680540 0.000000 
#    z 0.000000 0.000000 1.742340 
# 
# From -- ./inp_files/6913.got.cif
#   From: 2010.05.17/outbox.cif.g08.bks.cpg/sg23_4_cif.got.tgz:6913.got - 2010.06.04 12:02:01.
