data_PCOD9332315
_publ_section_title
;
Structure prediction by ZEFSAII (Michael W. Deem and Ramdas Pophale) SiO2 
 PCOD9332315
Probable space group: I 2 2 2
;
_chemical_formula_sum "Si O2"
_cell_formula_units_Z 64
_cell_length_a 13.925984
_cell_length_b 14.269722
_cell_length_c 12.798795
_cell_angle_alpha 90.000000
_cell_angle_beta 90.000000
_cell_angle_gamma 90.000000
_cell_volume 2543.375522
_symmetry_space_group_name_H-M "I 2 2 2"
_symmetry_group_IT_number 23
_symmetry_cell_setting 'orthorhombic'
loop_
_space_group_symop_operation_xyz
x,y,z
-x,-y,z
x,-y,-z
-x,y,-z
1/2+x,1/2+y,1/2+z
1/2-x,1/2-y,1/2+z
1/2+x,1/2-y,1/2-z
1/2-x,1/2+y,1/2-z
loop_
_atom_site_type_symbol
_atom_site_label
_atom_site_fract_x
_atom_site_fract_y
_atom_site_fract_z
Si Si1 0.851973 0.977167 0.850950
Si Si2 0.098748 0.849026 0.959198
Si Si3 0.621236 0.342263 0.820020
Si Si4 0.697043 0.282856 0.025302
Si Si5 0.391587 0.898352 0.543169
Si Si6 0.523823 0.154297 0.758362
Si Si7 0.839699 0.420251 0.419952
Si Si8 0.667796 0.230140 0.260463
O O1 0.749563 0.033381 0.855116
O O2 0.884480 0.940005 0.739448
O O3 0.920623 0.055068 0.898087
O O4 0.638086 0.000000 0.000000
O O5 0.149324 0.890169 0.065713
O O6 0.046573 0.765052 0.276930
O O7 0.000000 0.806055 0.000000
O O8 0.630131 0.341646 0.945345
O O9 0.725120 0.304507 0.780741
O O10 0.688621 0.177943 0.976309
O O11 0.805306 0.325326 0.020756
O O12 0.667107 0.279297 0.146714
O O13 0.500000 0.885672 0.500000
O O14 0.413028 0.887158 0.665266
O O15 0.360327 0.000000 0.500000
O O16 0.565694 0.103687 0.857520
O O17 0.410511 0.146954 0.743138
O O18 0.638560 0.289061 0.362170
#
# Coordination Sequence:
#
# PCOD9332315 Si02
#       8
#     8   8   8   8   8   8   8   8
#     4  11  23  41  74 111 149 194 261 329 402 461
#     4  11  24  42  74 111 146 193 266 337 389 462
#     4  11  25  42  72 109 155 203 257 319 399 482
#     4  11  26  47  73 113 152 218 265 326 402 478
#     4  11  26  48  76 111 159 203 261 327 395 478
#     4  11  26  47  72 107 152 198 258 314 387 475
#     4  11  24  45  73 106 154 201 269 321 397 472
#     4  12  26  45  77 106 155 213 259 323 402 471
#
# _framework density 25.163409000000001
#
# number of rings (size 3 to 8) (size 9 to 14) (size 15 to 20)
#    0.000    0.875    2.500    4.500    3.500    5.500 
#    4.500    2.500    0.000    0.000    0.000   10.500 
#    0.000    0.000    0.000    0.000    0.000    0.000 
#
# Total GULP energy -178926.069353 kJ/mol
# GULP energy per Si atom -5591.439667 kJ/mol
# Density = 2.510614 g / cm^3
# Si number density = 25.163409 Si / 1000 Ang^3
#
#
#
# Elastic Constant Matrix: (Units=GPa)
#
#
# Indices 1 2 3 4 5 6 
#
# 1 79.0774 25.0592 16.1045 0.0000 0.0000 0.0000
# 2 25.0592 96.1178 41.5919 0.0000 0.0000 0.0000
# 3 16.1045 41.5919 142.5820 0.0000 0.0000 0.0000
# 4 0.0000 0.0000 0.0000 23.0281 0.0000 0.0000
# 5 0.0000 0.0000 0.0000 0.0000 38.6751 0.0000
# 6 0.0000 0.0000 0.0000 0.0000 0.0000 28.1655
#
#
#
# Elastic Compliance Matrix: (Units=1/GPa)
#
#
# Indices 1 2 3 4 5 6 
#
# 1 0.013827 -0.003352 -0.000584 0.000000 0.000000 0.000000
# 2 -0.003352 0.012720 -0.003332 0.000000 0.000000 0.000000
# 3 -0.000584 -0.003332 0.008051 0.000000 0.000000 0.000000
# 4 0.000000 0.000000 0.000000 0.043425 0.000000 0.000000
# 5 0.000000 0.000000 0.000000 0.000000 0.025856 0.000000
# 6 0.000000 0.000000 0.000000 0.000000 0.000000 0.035504
#
#
# Mechanical properties :
#
#
# Convention : Reuss Voigt Hill
#
# Bulk Modulus (GPa) = 49.84486 53.69871 51.77179
# Shear Modulus (GPa) = 31.13186 33.64184 32.38685
#
# Velocity S-wave (km/s) = 3.52118 3.66038 3.59146
# Velocity P-wave (km/s) = 6.03184 6.26505 6.14955
#
# Compressibility (1/GPa) = 0.02006225
#
# Stress axis : x y z
#
# Youngs Moduli (GPa) = 72.32197 78.61901 124.20292
#
# Poissons Ratio (x) = 0.26355 0.07252
# Poissons Ratio (y) = 0.24244 0.41381
# Poissons Ratio (z) = 0.04223 0.26194
#
# Static dielectric constant tensor:
#      x y z
#    x 2.065250 0.000000 0.000000 
#    y 0.000000 2.050540 0.000000 
#    z 0.000000 0.000000 2.040800 
# 
# From -- ./inp_files/16971.got.cif
#   From: 2010.05.17/outbox.cif.g08.bks.cpg/sg23_9_cif.got.tgz:16971.got - 2010.06.04 12:02:01.
