data_PCOD9332551
_publ_section_title
;
Structure prediction by ZEFSAII (Michael W. Deem and Ramdas Pophale) SiO2 
 PCOD9332551
Probable space group: I 2 2 2
;
_chemical_formula_sum "Si O2"
_cell_formula_units_Z 34
_cell_length_a 11.560254
_cell_length_b 22.574805
_cell_length_c 5.733580
_cell_angle_alpha 90.000000
_cell_angle_beta 90.000000
_cell_angle_gamma 90.000000
_cell_volume 1496.295124
_symmetry_space_group_name_H-M "I 2 2 2"
_symmetry_group_IT_number 23
_symmetry_cell_setting 'orthorhombic'
loop_
_space_group_symop_operation_xyz
x,y,z
-x,-y,z
x,-y,-z
-x,y,-z
1/2+x,1/2+y,1/2+z
1/2-x,1/2-y,1/2+z
1/2+x,1/2-y,1/2-z
1/2-x,1/2+y,1/2-z
loop_
_atom_site_type_symbol
_atom_site_label
_atom_site_fract_x
_atom_site_fract_y
_atom_site_fract_z
Si Si1 0.181590 0.908169 0.716048
Si Si2 0.500000 0.500000 0.000000
Si Si3 0.770676 0.718001 0.701070
Si Si4 0.500000 0.169935 0.000000
Si Si5 0.802175 0.500000 0.500000
Si Si6 0.886930 0.580619 0.151333
O O1 0.078578 0.952698 0.642061
O O2 0.183723 0.838917 0.780521
O O3 0.273794 0.909475 0.503612
O O4 0.229674 0.942477 0.940734
O O5 0.740989 0.750657 0.455103
O O6 0.907820 0.702949 0.665654
O O7 0.585637 0.129625 0.153718
O O8 0.873986 0.517823 0.277237
O O9 0.000000 0.582865 0.000000
#
# Coordination Sequence:
#
# PCOD9332551 Si02
#       6
#     8   2   8   4   4   8
#     4  12  27  49  77 115 160 212 275 334 423 506
#     4  12  28  56  74 112 176 220 264 354 428 526
#     4  12  29  53  83 118 162 218 284 340 417 506
#     4  12  26  48  82 114 155 199 268 362 396 488
#     4  12  24  44  74 122 152 197 259 342 420 496
#     4  12  23  44  76 119 161 190 261 345 422 478
#
# _framework density 22.72279
#
# number of rings (size 3 to 8) (size 9 to 14) (size 15 to 20)
#    0.000    0.000    7.059    1.412    0.000    8.471 
#    0.000    4.706    0.000    0.000    0.000    0.000 
#    0.000    0.000    0.000    0.000    0.000    0.000 
#
# Total GULP energy -94879.022882 kJ/mol
# GULP energy per Si atom -5581.118993 kJ/mol
# Density = 2.267107 g / cm^3
# Si number density = 22.722790 Si / 1000 Ang^3
#
#
#
# Elastic Constant Matrix: (Units=GPa)
#
#
# Indices 1 2 3 4 5 6 
#
# 1 105.8009 42.6870 32.8968 0.0016 -0.0001 -0.0007
# 2 42.6870 156.9111 69.5677 0.0013 -0.0012 -0.0011
# 3 32.8968 69.5677 126.7439 -0.0064 -0.0020 0.0000
# 4 0.0016 0.0013 -0.0064 54.2766 -0.0022 -0.0030
# 5 -0.0001 -0.0012 -0.0020 -0.0022 31.4977 0.0026
# 6 -0.0007 -0.0011 0.0000 -0.0030 0.0026 18.7197
#
#
#
# Elastic Compliance Matrix: (Units=1/GPa)
#
#
# Indices 1 2 3 4 5 6 
#
# 1 0.010852 -0.002251 -0.001581 0.000000 0.000000 0.000000
# 2 -0.002251 0.008890 -0.004295 -0.000001 0.000000 0.000000
# 3 -0.001581 -0.004295 0.010658 0.000001 0.000001 0.000000
# 4 0.000000 -0.000001 0.000001 0.018424 0.000001 0.000003
# 5 0.000000 0.000000 0.000001 0.000001 0.031748 -0.000004
# 6 0.000000 0.000000 0.000000 0.000003 -0.000004 0.053420
#
#
# Mechanical properties :
#
#
# Convention : Reuss Voigt Hill
#
# Bulk Modulus (GPa) = 70.69840 75.52876 73.11358
# Shear Modulus (GPa) = 32.26624 37.18574 34.72599
#
# Velocity S-wave (km/s) = 3.77237 4.04975 3.91352
# Velocity P-wave (km/s) = 7.08204 7.42824 7.25720
#
# Compressibility (1/GPa) = 0.01414459
#
# Stress axis : x y z
#
# Youngs Moduli (GPa) = 92.15271 112.48915 93.82815
#
# Poissons Ratio (x) = 0.25324 0.14833
# Poissons Ratio (y) = 0.20746 0.40300
# Poissons Ratio (z) = 0.14568 0.48316
#
# Static dielectric constant tensor:
#      x y z
#    x 1.970310 0.000000 0.000010 
#    y 0.000000 1.930490 0.000000 
#    z 0.000010 0.000000 2.021310 
# 
# From -- ./inp_files/1613.got.cif
#   From: 2010.05.17/outbox.cif.g08.bks.cpg/sg23_1_cif.got.tgz:1613.got - 2010.06.04 12:02:01.
