data_PCOD9332035
_publ_section_title
;
Structure prediction by ZEFSAII (Michael W. Deem and Ramdas Pophale) SiO2 
 PCOD9332035
Probable space group: I 2 2 2
;
_chemical_formula_sum "Si O2"
_cell_formula_units_Z 36
_cell_length_a 7.720220
_cell_length_b 22.306374
_cell_length_c 9.532899
_cell_angle_alpha 90.000000
_cell_angle_beta 90.000000
_cell_angle_gamma 90.000000
_cell_volume 1641.661630
_symmetry_space_group_name_H-M "I 2 2 2"
_symmetry_group_IT_number 23
_symmetry_cell_setting 'orthorhombic'
loop_
_space_group_symop_operation_xyz
x,y,z
-x,-y,z
x,-y,-z
-x,y,-z
1/2+x,1/2+y,1/2+z
1/2-x,1/2-y,1/2+z
1/2+x,1/2-y,1/2-z
1/2-x,1/2+y,1/2-z
loop_
_atom_site_type_symbol
_atom_site_label
_atom_site_fract_x
_atom_site_fract_y
_atom_site_fract_z
Si Si1 0.303242 0.437626 0.447496
Si Si2 0.614227 0.146610 0.836119
Si Si3 0.867048 0.444579 0.826102
Si Si4 0.803952 0.656899 0.963957
Si Si5 0.500000 0.254998 0.000000
O O1 0.220219 0.500000 0.500000
O O2 0.500000 0.434081 0.500000
O O3 0.206202 0.383285 0.529107
O O4 0.294795 0.448450 0.279900
O O5 0.481351 0.100315 0.768062
O O6 0.736602 0.155930 0.701817
O O7 0.515376 0.207790 0.872412
O O8 0.805134 0.409159 0.964772
O O9 0.000000 0.500000 0.846508
O O10 0.664154 0.702504 0.021603
O O11 0.000000 0.678492 0.000000
#
# Coordination Sequence:
#
# PCOD9332035 Si02
#       5
#     8   8   8   8   4
#     4  11  23  40  69 107 142 184 245 307 372 447
#     4  11  24  43  68 103 137 192 238 305 368 448
#     4  11  22  47  74 101 145 190 244 307 379 442
#     4  10  28  46  69 107 141 196 248 305 380 438
#     4  12  26  46  75 101 152 190 256 310 372 468
#
# _framework density 21.928999999999998
#
# number of rings (size 3 to 8) (size 9 to 14) (size 15 to 20)
#    0.000    1.111    4.444    0.000    9.333    4.889 
#    0.000    0.000    0.000    8.000    0.000    0.000 
#    0.000    0.000    0.000    0.000    0.000    0.000 
#
# Total GULP energy -100207.269475 kJ/mol
# GULP energy per Si atom -5567.070526 kJ/mol
# Density = 2.187909 g / cm^3
# Si number density = 21.929000 Si / 1000 Ang^3
#
#
#
# Elastic Constant Matrix: (Units=GPa)
#
#
# Indices 1 2 3 4 5 6 
#
# 1 79.7904 43.2608 12.6817 0.0000 0.0001 0.0000
# 2 43.2608 130.1949 43.8605 0.0000 0.0000 0.0000
# 3 12.6817 43.8605 115.6648 -0.0001 0.0005 0.0002
# 4 0.0000 0.0000 -0.0001 20.3927 0.0000 0.0000
# 5 0.0001 0.0000 0.0005 0.0000 12.7202 0.0000
# 6 0.0000 0.0000 0.0002 0.0000 0.0000 31.3101
#
#
#
# Elastic Compliance Matrix: (Units=1/GPa)
#
#
# Indices 1 2 3 4 5 6 
#
# 1 0.015295 -0.005179 0.000287 0.000000 0.000000 0.000000
# 2 -0.005179 0.010559 -0.003436 0.000000 0.000000 0.000000
# 3 0.000287 -0.003436 0.009917 0.000000 0.000000 0.000000
# 4 0.000000 0.000000 0.000000 0.049037 0.000000 0.000000
# 5 0.000000 0.000000 0.000000 0.000000 0.078615 0.000000
# 6 0.000000 0.000000 0.000000 0.000000 0.000000 0.031939
#
#
# Mechanical properties :
#
#
# Convention : Reuss Voigt Hill
#
# Bulk Modulus (GPa) = 52.31476 58.36179 55.33827
# Shear Modulus (GPa) = 22.89471 27.94106 25.41789
#
# Velocity S-wave (km/s) = 3.23466 3.57341 3.40825
# Velocity P-wave (km/s) = 6.15296 6.61040 6.38578
#
# Compressibility (1/GPa) = 0.01911506
#
# Stress axis : x y z
#
# Youngs Moduli (GPa) = 65.38035 94.70384 100.83417
#
# Poissons Ratio (x) = 0.49046 -0.02892
# Poissons Ratio (y) = 0.33860 0.34649
# Poissons Ratio (z) = -0.01875 0.32543
#
# Static dielectric constant tensor:
#      x y z
#    x 1.923620 0.000000 0.000000 
#    y 0.000000 1.843650 0.000000 
#    z 0.000000 0.000000 2.090910 
# 
# From -- ./inp_files/6717.got.cif
#   From: 2010.05.17/outbox.cif.g08.bks.cpg/sg23_4_cif.got.tgz:6717.got - 2010.06.04 12:02:01.
