data_PCOD9332727
_publ_section_title
;
Structure prediction by ZEFSAII (Michael W. Deem and Ramdas Pophale) SiO2 
 PCOD9332727
Probable space group: I 21 21 21
;
_chemical_formula_sum "Si O2"
_cell_formula_units_Z 40
_cell_length_a 13.079098
_cell_length_b 17.923613
_cell_length_c 6.929979
_cell_angle_alpha 90.000000
_cell_angle_beta 90.000000
_cell_angle_gamma 90.000000
_cell_volume 1624.558185
_symmetry_space_group_name_H-M "I 21 21 21"
_symmetry_group_IT_number 24
_symmetry_cell_setting 'orthorhombic'
loop_
_space_group_symop_operation_xyz
x,y,z
-x,1/2-y,z
x,-y,1/2-z
1/2-x,y,-z
1/2+x,1/2+y,1/2+z
1/2-x,-y,1/2+z
1/2+x,1/2-y,-z
-x,1/2+y,1/2-z
loop_
_atom_site_type_symbol
_atom_site_label
_atom_site_fract_x
_atom_site_fract_y
_atom_site_fract_z
Si Si1 0.424627 0.585886 0.792971
Si Si2 0.649371 0.370279 0.727074
Si Si3 0.045582 0.326382 0.685425
Si Si4 0.265399 0.707873 0.767492
Si Si5 0.634144 0.416206 0.275700
O O1 0.402501 0.500000 0.750000
O O2 0.537688 0.603244 0.712180
O O3 0.336103 0.638874 0.713452
O O4 0.644140 0.612827 0.003527
O O5 0.851617 0.196298 0.796849
O O6 0.677539 0.285085 0.775477
O O7 0.749948 0.413167 0.798240
O O8 0.071357 0.387647 0.519537
O O9 0.000000 0.250000 0.592515
O O10 0.951778 0.360683 0.804690
O O11 0.250000 0.710605 0.000000
O O12 0.596978 0.500000 0.250000
#
# Coordination Sequence:
#
# PCOD9332727 Si02
#       5
#     8   8   8   8   8
#     4  10  19  27  43  73 104 126 153 195 248 289
#     4  10  17  32  46  70 104 126 157 202 241 283
#     4  10  18  33  52  70 101 125 159 205 241 279
#     4  10  16  30  51  67  96 128 156 196 243 276
#     4  10  18  28  48  76  99 125 157 199 250 282
#
# _framework density 24.62208
#
# number of rings (size 3 to 8) (size 9 to 14) (size 15 to 20)
#    0.000    2.000    4.000    4.800    0.000    0.800 
#    0.000    0.000    0.000    0.000    0.000   28.000 
#    0.000    0.000    0.000    0.000    0.000    0.000 
#
# Total GULP energy -111684.361309 kJ/mol
# GULP energy per Si atom -5584.218065 kJ/mol
# Density = 2.456604 g / cm^3
# Si number density = 24.622080 Si / 1000 Ang^3
#
#
#
# Elastic Constant Matrix: (Units=GPa)
#
#
# Indices 1 2 3 4 5 6 
#
# 1 138.7298 63.1091 -21.1998 0.0000 0.0000 0.0000
# 2 63.1091 235.7178 12.3873 0.0000 0.0000 0.0000
# 3 -21.1998 12.3873 103.3165 0.0000 0.0000 0.0000
# 4 0.0000 0.0000 0.0000 4.0061 0.0000 0.0000
# 5 0.0000 0.0000 0.0000 0.0000 -39.6016 0.0000
# 6 0.0000 0.0000 0.0000 0.0000 0.0000 51.4161
#
#
#
# Elastic Compliance Matrix: (Units=1/GPa)
#
#
# Indices 1 2 3 4 5 6 
#
# 1 0.008622 -0.002417 0.002059 0.000000 0.000000 0.000000
# 2 -0.002417 0.004947 -0.001089 0.000000 0.000000 0.000000
# 3 0.002059 -0.001089 0.010232 0.000000 0.000000 0.000000
# 4 0.000000 0.000000 0.000000 0.249621 0.000000 0.000000
# 5 0.000000 0.000000 0.000000 0.000000 -0.025252 0.000000
# 6 0.000000 0.000000 0.000000 0.000000 0.000000 0.019449
#
#
# Mechanical properties :
#
#
# Convention : Reuss Voigt Hill
#
# Bulk Modulus (GPa) = 47.82946 65.15081 56.49013
# Shear Modulus (GPa) = 18.01920 31.39528 24.70724
#
# Velocity S-wave (km/s) = 2.70817 3.57471 3.17118
# Velocity P-wave (km/s) = 5.40801 6.59968 6.03334
#
# Compressibility (1/GPa) = 0.02090762
#
# Stress axis : x y z
#
# Youngs Moduli (GPa) = 115.97910 202.15898 97.73213
#
# Poissons Ratio (x) = 0.48855 -0.20123
# Poissons Ratio (y) = 0.28028 0.10643
# Poissons Ratio (z) = -0.23880 0.22014
#
# Static dielectric constant tensor:
#      x y z
#    x 2.024370 0.000000 0.000000 
#    y 0.000000 1.893790 0.000000 
#    z 0.000000 0.000000 2.083320 
# 
# From -- ./inp_files/10667.got.cif
#   From: 2010.05.17/outbox.cif.g08.bks.cpg/sg24_6_cif.got.tgz:10667.got - 2010.06.04 00:33:39.
