data_PCOD9332176
_publ_section_title
;
Structure prediction by ZEFSAII (Michael W. Deem and Ramdas Pophale) SiO2 
 PCOD9332176
Probable space group: I 2 2 2
;
_chemical_formula_sum "Si O2"
_cell_formula_units_Z 40
_cell_length_a 20.962724
_cell_length_b 9.160190
_cell_length_c 9.599506
_cell_angle_alpha 90.000000
_cell_angle_beta 90.000000
_cell_angle_gamma 90.000000
_cell_volume 1843.321475
_symmetry_space_group_name_H-M "I 2 2 2"
_symmetry_group_IT_number 23
_symmetry_cell_setting 'orthorhombic'
loop_
_space_group_symop_operation_xyz
x,y,z
-x,-y,z
x,-y,-z
-x,y,-z
1/2+x,1/2+y,1/2+z
1/2-x,1/2-y,1/2+z
1/2+x,1/2-y,1/2-z
1/2-x,1/2+y,1/2-z
loop_
_atom_site_type_symbol
_atom_site_label
_atom_site_fract_x
_atom_site_fract_y
_atom_site_fract_z
Si Si1 0.185783 0.329560 0.452070
Si Si2 0.050469 0.223300 0.387984
Si Si3 0.896760 0.500000 0.000000
Si Si4 0.806102 0.254420 0.872257
Si Si5 0.000000 0.000000 0.174579
Si Si6 0.000000 0.500000 0.225924
Si Si7 0.111663 0.000000 0.000000
O O1 0.180133 0.500000 0.500000
O O2 0.118070 0.248213 0.459889
O O3 0.202861 0.302109 0.288636
O O4 0.238914 0.257663 0.549632
O O5 0.042304 0.110048 0.263742
O O6 0.028948 0.376145 0.322636
O O7 0.000000 0.174531 0.500000
O O8 0.851958 0.626288 0.058435
O O9 0.943125 0.449079 0.124517
O O10 0.842475 0.101549 0.906954
O O11 0.056834 0.916003 0.090514
#
# Coordination Sequence:
#
# PCOD9332176 Si02
#       7
#     8   8   4   8   4   4   4
#     4  12  28  51  73 112 156 207 262 309 394 472
#     4  12  25  44  72 107 148 193 247 325 386 447
#     4  11  24  42  74 112 143 198 270 308 389 458
#     4  12  27  47  78 110 154 207 253 326 381 467
#     4  11  23  44  74 112 151 187 248 314 391 458
#     4  11  21  44  74 104 147 199 256 312 373 472
#     4  11  22  48  78 108 153 194 250 318 391 466
#
# _framework density 21.699957999999999
#
# number of rings (size 3 to 8) (size 9 to 14) (size 15 to 20)
#    0.000    0.400    5.000    3.000    2.800    4.800 
#    3.600    0.000    0.000    0.000    0.000    0.000 
#    0.000    0.000    0.000    0.000    0.000    0.000 
#
# Total GULP energy -111671.680683 kJ/mol
# GULP energy per Si atom -5583.584034 kJ/mol
# Density = 2.165057 g / cm^3
# Si number density = 21.699958 Si / 1000 Ang^3
#
#
#
# Elastic Constant Matrix: (Units=GPa)
#
#
# Indices 1 2 3 4 5 6 
#
# 1 188.3729 38.8356 56.8998 0.0000 0.0000 0.0000
# 2 38.8356 70.2428 34.5955 0.0000 0.0000 0.0000
# 3 56.8998 34.5955 99.1608 0.0000 0.0000 0.0000
# 4 0.0000 0.0000 0.0000 31.2773 0.0000 0.0000
# 5 0.0000 0.0000 0.0000 0.0000 51.4791 0.0000
# 6 0.0000 0.0000 0.0000 0.0000 0.0000 124.8034
#
#
#
# Elastic Compliance Matrix: (Units=1/GPa)
#
#
# Indices 1 2 3 4 5 6 
#
# 1 0.006688 -0.002182 -0.003076 0.000000 0.000000 0.000000
# 2 -0.002182 0.017902 -0.004993 0.000000 0.000000 0.000000
# 3 -0.003076 -0.004993 0.013592 0.000000 0.000000 0.000000
# 4 0.000000 0.000000 0.000000 0.031972 0.000000 0.000000
# 5 0.000000 0.000000 0.000000 0.000000 0.019425 0.000000
# 6 0.000000 0.000000 0.000000 0.000000 0.000000 0.008013
#
#
# Mechanical properties :
#
#
# Convention : Reuss Voigt Hill
#
# Bulk Modulus (GPa) = 56.56797 68.71535 62.64166
# Shear Modulus (GPa) = 40.32627 56.67499 48.50063
#
# Velocity S-wave (km/s) = 4.31554 5.11608 4.73277
# Velocity P-wave (km/s) = 7.13840 8.16296 7.66781
#
# Compressibility (1/GPa) = 0.01767785
#
# Stress axis : x y z
#
# Youngs Moduli (GPa) = 149.52769 55.85867 73.57339
#
# Poissons Ratio (x) = 0.12191 0.22632
# Poissons Ratio (y) = 0.32634 0.36739
# Poissons Ratio (z) = 0.45996 0.27893
#
# Static dielectric constant tensor:
#      x y z
#    x 1.778510 0.000000 0.000000 
#    y 0.000000 1.805020 0.000000 
#    z 0.000000 0.000000 1.767950 
# 
# From -- ./inp_files/11869.got.cif
#   From: 2010.05.17/outbox.cif.g08.bks.cpg/sg23_6_cif.got.tgz:11869.got - 2010.06.04 12:02:01.
