data_PCOD9332249
_publ_section_title
;
Structure prediction by ZEFSAII (Michael W. Deem and Ramdas Pophale) SiO2 
 PCOD9332249
Probable space group: I 2 2 2
;
_chemical_formula_sum "Si O2"
_cell_formula_units_Z 34
_cell_length_a 6.020447
_cell_length_b 11.580627
_cell_length_c 22.009100
_cell_angle_alpha 90.000000
_cell_angle_beta 90.000000
_cell_angle_gamma 90.000000
_cell_volume 1534.486581
_symmetry_space_group_name_H-M "I 2 2 2"
_symmetry_group_IT_number 23
_symmetry_cell_setting 'orthorhombic'
loop_
_space_group_symop_operation_xyz
x,y,z
-x,-y,z
x,-y,-z
-x,y,-z
1/2+x,1/2+y,1/2+z
1/2-x,1/2-y,1/2+z
1/2+x,1/2-y,1/2-z
1/2-x,1/2+y,1/2-z
loop_
_atom_site_type_symbol
_atom_site_label
_atom_site_fract_x
_atom_site_fract_y
_atom_site_fract_z
Si Si1 0.665454 0.679319 0.556248
Si Si2 0.654572 0.704727 0.338984
Si Si3 0.034944 0.129811 0.614863
Si Si4 0.500000 0.000000 0.000000
Si Si5 0.141785 0.387243 0.226583
O O1 0.500000 0.695678 0.500000
O O2 0.512499 0.648559 0.613608
O O3 0.798638 0.795406 0.573566
O O4 0.842556 0.581464 0.540002
O O5 0.792933 0.618993 0.296917
O O6 0.509361 0.778499 0.291310
O O7 0.814146 0.794117 0.374782
O O8 0.150599 0.115846 0.680916
O O9 0.000000 0.000000 0.591352
O O10 0.000000 0.500000 0.213139
#
# Coordination Sequence:
#
# PCOD9332249 Si02
#       5
#     8   8   8   2   8
#     4  11  27  51  76 101 143 190 244 302 358 425
#     4  11  23  44  72 110 144 190 241 289 360 426
#     4  11  23  45  75 105 150 188 236 299 357 428
#     4  12  26  60  74  98 140 188 246 306 354 434
#     4  11  22  41  71 106 150 191 233 290 356 427
#
# _framework density 22.157247999999999
#
# number of rings (size 3 to 8) (size 9 to 14) (size 15 to 20)
#    0.000    0.941    4.706    1.765    0.000    0.000 
#   12.706   11.176    0.000    0.000    0.000    0.000 
#    0.000    0.000    0.000    0.000    0.000    0.000 
#
# Total GULP energy -95204.171134 kJ/mol
# GULP energy per Si atom -5600.245361 kJ/mol
# Density = 2.210682 g / cm^3
# Si number density = 22.157248 Si / 1000 Ang^3
#
#
#
# Elastic Constant Matrix: (Units=GPa)
#
#
# Indices 1 2 3 4 5 6 
#
# 1 128.0907 54.8255 60.5133 0.0000 0.0000 0.0000
# 2 54.8255 107.2576 56.6641 0.0000 0.0000 0.0000
# 3 60.5133 56.6641 115.0910 0.0000 0.0000 0.0000
# 4 0.0000 0.0000 0.0000 11.1103 0.0000 0.0000
# 5 0.0000 0.0000 0.0000 0.0000 16.0880 0.0000
# 6 0.0000 0.0000 0.0000 0.0000 0.0000 30.7259
#
#
#
# Elastic Compliance Matrix: (Units=1/GPa)
#
#
# Indices 1 2 3 4 5 6 
#
# 1 0.011315 -0.003569 -0.004192 0.000000 0.000000 0.000000
# 2 -0.003569 0.013727 -0.004882 0.000000 0.000000 0.000000
# 3 -0.004192 -0.004882 0.013296 0.000000 0.000000 0.000000
# 4 0.000000 0.000000 0.000000 0.090006 0.000000 0.000000
# 5 0.000000 0.000000 0.000000 0.000000 0.062158 0.000000
# 6 0.000000 0.000000 0.000000 0.000000 0.000000 0.032546
#
#
# Mechanical properties :
#
#
# Convention : Reuss Voigt Hill
#
# Bulk Modulus (GPa) = 76.61398 77.16058 76.88728
# Shear Modulus (GPa) = 19.78752 23.48062 21.63407
#
# Velocity S-wave (km/s) = 2.99164 3.25888 3.12811
# Velocity P-wave (km/s) = 6.82537 7.00429 6.91541
#
# Compressibility (1/GPa) = 0.01305245
#
# Stress axis : x y z
#
# Youngs Moduli (GPa) = 88.37773 72.85082 75.20852
#
# Poissons Ratio (x) = 0.26001 0.31528
# Poissons Ratio (y) = 0.31543 0.36714
# Poissons Ratio (z) = 0.37049 0.35563
#
# Static dielectric constant tensor:
#      x y z
#    x 1.842550 0.000000 0.000000 
#    y 0.000000 1.779820 0.000000 
#    z 0.000000 0.000000 1.800750 
# 
# From -- ./inp_files/1558.got.cif
#   From: 2010.05.17/outbox.cif.g08.bks.cpg/sg23_1_cif.got.tgz:1558.got - 2010.06.04 12:02:01.
