data_PCOD9332119
_publ_section_title
;
Structure prediction by ZEFSAII (Michael W. Deem and Ramdas Pophale) SiO2 
 PCOD9332119
Probable space group: I 2 2 2
;
_chemical_formula_sum "Si O2"
_cell_formula_units_Z 48
_cell_length_a 7.747973
_cell_length_b 14.918574
_cell_length_c 15.470066
_cell_angle_alpha 90.000000
_cell_angle_beta 90.000000
_cell_angle_gamma 90.000000
_cell_volume 1788.164950
_symmetry_space_group_name_H-M "I 2 2 2"
_symmetry_group_IT_number 23
_symmetry_cell_setting 'orthorhombic'
loop_
_space_group_symop_operation_xyz
x,y,z
-x,-y,z
x,-y,-z
-x,y,-z
1/2+x,1/2+y,1/2+z
1/2-x,1/2-y,1/2+z
1/2+x,1/2-y,1/2-z
1/2-x,1/2+y,1/2-z
loop_
_atom_site_type_symbol
_atom_site_label
_atom_site_fract_x
_atom_site_fract_y
_atom_site_fract_z
Si Si1 0.621884 0.612957 0.584356
Si Si2 0.681718 0.957991 0.820642
Si Si3 0.875955 0.761777 0.590309
Si Si4 0.830373 0.127999 0.614485
Si Si5 0.710248 0.442123 0.871908
Si Si6 0.134508 0.776397 0.200842
O O1 0.500000 0.606193 0.500000
O O2 0.681120 0.519531 0.627696
O O3 0.792571 0.669737 0.559958
O O4 0.530161 0.676812 0.656330
O O5 0.700696 0.967087 0.717470
O O6 0.721987 0.851837 0.825481
O O7 0.500000 0.000000 0.847154
O O8 0.748234 0.849333 0.579189
O O9 0.880349 0.757791 0.697134
O O10 0.073124 0.790626 0.566889
O O11 0.683401 0.179315 0.664516
O O12 0.010306 0.085867 0.653716
O O13 0.769039 0.034608 0.577179
#
# Coordination Sequence:
#
# PCOD9332119 Si02
#       6
#     8   8   8   8   8   8
#     4  12  27  44  65 102 155 199 236 304 387 454
#     4  11  23  39  64  96 138 192 242 292 365 447
#     4   9  18  35  62  93 132 177 243 292 351 428
#     4   9  17  34  60  99 130 170 222 310 362 416
#     4   8  18  34  65 100 137 164 232 316 360 419
#     4  11  21  36  66  96 128 187 240 301 352 431
#
# _framework density 26.843160000000001
#
# number of rings (size 3 to 8) (size 9 to 14) (size 15 to 20)
#    1.000    1.000    0.000    4.500    2.333    5.333 
#    0.000    4.167    0.000    2.000    4.333    0.000 
#    0.000    0.000    0.000    0.000    0.000    0.000 
#
# Total GULP energy -133653.299695 kJ/mol
# GULP energy per Si atom -5568.887487 kJ/mol
# Density = 2.678206 g / cm^3
# Si number density = 26.843160 Si / 1000 Ang^3
#
#
#
# Elastic Constant Matrix: (Units=GPa)
#
#
# Indices 1 2 3 4 5 6 
#
# 1 50.3373 28.0792 -13.5906 0.0000 0.0000 0.0000
# 2 28.0792 184.2937 29.6540 0.0000 0.0000 0.0000
# 3 -13.5906 29.6540 39.1934 0.0000 0.0000 0.0000
# 4 0.0000 0.0000 0.0000 29.8620 0.0000 0.0000
# 5 0.0000 0.0000 0.0000 0.0000 -45.0133 0.0000
# 6 0.0000 0.0000 0.0000 0.0000 0.0000 59.9760
#
#
#
# Elastic Compliance Matrix: (Units=1/GPa)
#
#
# Indices 1 2 3 4 5 6 
#
# 1 0.027373 -0.006488 0.014400 0.000000 0.000000 0.000000
# 2 -0.006488 0.007716 -0.008088 0.000000 0.000000 0.000000
# 3 0.014400 -0.008088 0.036627 0.000000 0.000000 0.000000
# 4 0.000000 0.000000 0.000000 0.033487 0.000000 0.000000
# 5 0.000000 0.000000 0.000000 0.000000 -0.022216 0.000000
# 6 0.000000 0.000000 0.000000 0.000000 0.000000 0.016673
#
#
# Mechanical properties :
#
#
# Convention : Reuss Voigt Hill
#
# Bulk Modulus (GPa) = 14.01225 40.23437 27.12331
# Shear Modulus (GPa) = 40.38796 24.27708 32.33252
#
# Velocity S-wave (km/s) = 3.88311 3.01059 3.47435
# Velocity P-wave (km/s) = 5.03350 5.20636 5.12066
#
# Compressibility (1/GPa) = 0.07136614
#
# Stress axis : x y z
#
# Youngs Moduli (GPa) = 36.53248 129.60205 27.30224
#
# Poissons Ratio (x) = 0.84081 -0.39316
# Poissons Ratio (y) = 0.23701 0.22081
# Poissons Ratio (z) = -0.52608 1.04816
#
# Static dielectric constant tensor:
#      x y z
#    x 2.200740 0.000000 0.000000 
#    y 0.000000 2.292740 0.000000 
#    z 0.000000 0.000000 2.348410 
# 
# From -- ./inp_files/23830.got.cif
#   From: 2010.05.17/outbox.cif.g08.bks.cpg/sg23_12_cif.got.tgz:23830.got - 2010.06.04 12:02:01.
