data_PCOD9332956
_publ_section_title
;
Structure prediction by ZEFSAII (Michael W. Deem and Ramdas Pophale) SiO2 
 PCOD9332956
Probable space group: I 21 21 21
;
_chemical_formula_sum "Si O2"
_cell_formula_units_Z 40
_cell_length_a 5.252398
_cell_length_b 14.839307
_cell_length_c 29.238664
_cell_angle_alpha 90.000000
_cell_angle_beta 90.000000
_cell_angle_gamma 90.000000
_cell_volume 2278.918383
_symmetry_space_group_name_H-M "I 21 21 21"
_symmetry_group_IT_number 24
_symmetry_cell_setting 'orthorhombic'
loop_
_space_group_symop_operation_xyz
x,y,z
-x,1/2-y,z
x,-y,1/2-z
1/2-x,y,-z
1/2+x,1/2+y,1/2+z
1/2-x,-y,1/2+z
1/2+x,1/2-y,-z
-x,1/2+y,1/2-z
loop_
_atom_site_type_symbol
_atom_site_label
_atom_site_fract_x
_atom_site_fract_y
_atom_site_fract_z
Si Si1 0.148258 0.846600 0.599454
Si Si2 0.000000 0.250000 0.158842
Si Si3 0.545287 0.934873 0.793626
Si Si4 0.750000 0.311885 0.000000
Si Si5 0.305884 0.814082 0.260027
Si Si6 0.955843 0.478676 0.824133
O O1 0.418718 0.829818 0.625181
O O2 0.192020 0.865931 0.546341
O O3 0.008037 0.920185 0.630104
O O4 0.000000 0.750000 0.601255
O O5 0.225581 0.245675 0.195749
O O6 0.431392 0.845184 0.770627
O O7 0.560901 0.000000 0.750000
O O8 0.316026 0.971957 0.824891
O O9 0.817927 0.950267 0.816604
O O10 0.500000 0.250000 0.991003
O O11 0.500000 0.750000 0.233854
O O12 0.427490 0.905393 0.282257
#
# Coordination Sequence:
#
# PCOD9332956 Si02
#       6
#     8   4   8   4   8   8
#     4  10  21  31  50  71  97 133 179 222 270 303
#     4  10  18  30  50  66  96 126 182 218 260 296
#     4  10  21  33  46  66  97 125 169 220 262 298
#     4  10  20  34  50  72 100 126 172 234 268 302
#     4  10  22  31  50  70  94 134 180 227 261 303
#     4  10  21  32  48  67  96 130 168 218 264 309
#
# _framework density 17.552187
#
# number of rings (size 3 to 8) (size 9 to 14) (size 15 to 20)
#    0.000    2.000    1.000    4.200   19.600    0.000 
#    0.000    0.000    0.000    0.000    0.000    0.000 
#    0.000    0.000    0.000    0.000    3.800    1.300 
#
# Total GULP energy -111375.624953 kJ/mol
# GULP energy per Si atom -5568.781248 kJ/mol
# Density = 1.751224 g / cm^3
# Si number density = 17.552187 Si / 1000 Ang^3
#
#
#
# Elastic Constant Matrix: (Units=GPa)
#
#
# Indices 1 2 3 4 5 6 
#
# 1 109.0382 23.5492 26.6432 0.0000 0.0000 0.0000
# 2 23.5492 50.6915 32.1757 0.0000 0.0000 0.0000
# 3 26.6432 32.1757 101.9491 0.0000 0.0000 0.0000
# 4 0.0000 0.0000 0.0000 16.5913 0.0000 0.0000
# 5 0.0000 0.0000 0.0000 0.0000 10.2829 0.0000
# 6 0.0000 0.0000 0.0000 0.0000 0.0000 33.3310
#
#
#
# Elastic Compliance Matrix: (Units=1/GPa)
#
#
# Indices 1 2 3 4 5 6 
#
# 1 0.010371 -0.003874 -0.001488 0.000000 0.000000 0.000000
# 2 -0.003874 0.026116 -0.007230 0.000000 0.000000 0.000000
# 3 -0.001488 -0.007230 0.012479 0.000000 0.000000 0.000000
# 4 0.000000 0.000000 0.000000 0.060272 0.000000 0.000000
# 5 0.000000 0.000000 0.000000 0.000000 0.097248 0.000000
# 6 0.000000 0.000000 0.000000 0.000000 0.000000 0.030002
#
#
# Mechanical properties :
#
#
# Convention : Reuss Voigt Hill
#
# Bulk Modulus (GPa) = 42.04579 47.37945 44.71262
# Shear Modulus (GPa) = 18.54597 23.99510 21.27054
#
# Velocity S-wave (km/s) = 3.25409 3.70140 3.48493
# Velocity P-wave (km/s) = 6.17459 6.73196 6.45929
#
# Compressibility (1/GPa) = 0.02378359
#
# Stress axis : x y z
#
# Youngs Moduli (GPa) = 96.42031 38.29090 80.13162
#
# Poissons Ratio (x) = 0.14833 0.11922
# Poissons Ratio (y) = 0.37350 0.57935
# Poissons Ratio (z) = 0.14346 0.27684
#
# Static dielectric constant tensor:
#      x y z
#    x 1.742170 0.000000 0.000000 
#    y 0.000000 1.669210 0.000000 
#    z 0.000000 0.000000 1.606900 
# 
# From -- ./inp_files/36411.got.cif
#   From: 2010.05.17/outbox.cif.g08.bks.cpg/sg24_19_cif.got.tgz:36411.got - 2010.06.04 00:33:39.
