data_PCOD9332255
_publ_section_title
;
Structure prediction by ZEFSAII (Michael W. Deem and Ramdas Pophale) SiO2 
 PCOD9332255
Probable space group: I 2 2 2
;
_chemical_formula_sum "Si O2"
_cell_formula_units_Z 40
_cell_length_a 15.134266
_cell_length_b 14.382027
_cell_length_c 8.298851
_cell_angle_alpha 90.000000
_cell_angle_beta 90.000000
_cell_angle_gamma 90.000000
_cell_volume 1806.339712
_symmetry_space_group_name_H-M "I 2 2 2"
_symmetry_group_IT_number 23
_symmetry_cell_setting 'orthorhombic'
loop_
_space_group_symop_operation_xyz
x,y,z
-x,-y,z
x,-y,-z
-x,y,-z
1/2+x,1/2+y,1/2+z
1/2-x,1/2-y,1/2+z
1/2+x,1/2-y,1/2-z
1/2-x,1/2+y,1/2-z
loop_
_atom_site_type_symbol
_atom_site_label
_atom_site_fract_x
_atom_site_fract_y
_atom_site_fract_z
Si Si1 0.983052 0.747396 0.821212
Si Si2 0.824340 0.354885 0.335488
Si Si3 0.174031 0.270584 0.309042
Si Si4 0.589356 0.546906 0.325040
Si Si5 0.722886 0.036101 0.323397
O O1 0.918833 0.680030 0.725228
O O2 0.931806 0.844657 0.846074
O O3 0.074928 0.763624 0.727563
O O4 0.000000 0.709663 0.000000
O O5 0.813103 0.313860 0.514001
O O6 0.745914 0.308054 0.229809
O O7 0.817129 0.464831 0.307573
O O8 0.190368 0.359094 0.194856
O O9 0.500000 0.500000 0.261732
O O10 0.607283 0.500000 0.500000
O O11 0.672543 0.535491 0.211120
O O12 0.701990 0.000000 0.500000
#
# Coordination Sequence:
#
# PCOD9332255 Si02
#       5
#     8   8   8   8   8
#     4  12  24  44  72 105 144 187 237 292 357 430
#     4  12  26  46  72 103 145 193 240 298 358 428
#     4  12  26  47  70 104 148 189 244 295 360 429
#     4  11  22  42  68 104 140 182 233 289 362 418
#     4  12  26  46  72 104 141 188 241 299 361 429
#
# _framework density 22.144228999999999
#
# number of rings (size 3 to 8) (size 9 to 14) (size 15 to 20)
#    0.000    0.200    4.000    7.200    0.000    1.200 
#    3.600    4.000    0.000    0.000    0.000    0.000 
#    0.000    0.000    0.000    0.000    0.000    0.000 
#
# Total GULP energy -112049.449981 kJ/mol
# GULP energy per Si atom -5602.472499 kJ/mol
# Density = 2.209383 g / cm^3
# Si number density = 22.144229 Si / 1000 Ang^3
#
#
#
# Elastic Constant Matrix: (Units=GPa)
#
#
# Indices 1 2 3 4 5 6 
#
# 1 59.6885 -15.8811 -1.7713 0.0000 0.0000 0.0000
# 2 -15.8811 69.2786 -13.5829 0.0000 0.0000 0.0000
# 3 -1.7713 -13.5829 71.8002 0.0000 0.0000 0.0000
# 4 0.0000 0.0000 0.0000 29.8915 0.0000 0.0000
# 5 0.0000 0.0000 0.0000 0.0000 29.0934 0.0000
# 6 0.0000 0.0000 0.0000 0.0000 0.0000 22.7651
#
#
#
# Elastic Compliance Matrix: (Units=1/GPa)
#
#
# Indices 1 2 3 4 5 6 
#
# 1 0.017952 0.004364 0.001268 0.000000 0.000000 0.000000
# 2 0.004364 0.016051 0.003144 0.000000 0.000000 0.000000
# 3 0.001268 0.003144 0.014554 0.000000 0.000000 0.000000
# 4 0.000000 0.000000 0.000000 0.033454 0.000000 0.000000
# 5 0.000000 0.000000 0.000000 0.000000 0.034372 0.000000
# 6 0.000000 0.000000 0.000000 0.000000 0.000000 0.043927
#
#
# Mechanical properties :
#
#
# Convention : Reuss Voigt Hill
#
# Bulk Modulus (GPa) = 15.12614 15.36630 15.24622
# Shear Modulus (GPa) = 30.34086 31.81682 31.07884
#
# Velocity S-wave (km/s) = 3.70557 3.79463 3.75036
# Velocity P-wave (km/s) = 5.01536 5.11402 5.06493
#
# Compressibility (1/GPa) = 0.06611071
#
# Stress axis : x y z
#
# Youngs Moduli (GPa) = 55.70281 62.30014 68.71132
#
# Poissons Ratio (x) = -0.27188 -0.08716
# Poissons Ratio (y) = -0.24309 -0.21604
# Poissons Ratio (z) = -0.07066 -0.19588
#
# Static dielectric constant tensor:
#      x y z
#    x 1.779110 0.000000 0.000000 
#    y 0.000000 1.790620 0.000000 
#    z 0.000000 0.000000 1.827150 
# 
# From -- ./inp_files/9573.got.cif
#   From: 2010.05.17/outbox.cif.g08.bks.cpg/sg23_5_cif.got.tgz:9573.got - 2010.06.04 12:02:01.
