data_PCOD9332067
_publ_section_title
;
Structure prediction by ZEFSAII (Michael W. Deem and Ramdas Pophale) SiO2 
 PCOD9332067
Probable space group: I 2 2 2
;
_chemical_formula_sum "Si O2"
_cell_formula_units_Z 64
_cell_length_a 27.195165
_cell_length_b 8.049970
_cell_length_c 12.815610
_cell_angle_alpha 90.000000
_cell_angle_beta 90.000000
_cell_angle_gamma 90.000000
_cell_volume 2805.596704
_symmetry_space_group_name_H-M "I 2 2 2"
_symmetry_group_IT_number 23
_symmetry_cell_setting 'orthorhombic'
loop_
_space_group_symop_operation_xyz
x,y,z
-x,-y,z
x,-y,-z
-x,y,-z
1/2+x,1/2+y,1/2+z
1/2-x,1/2-y,1/2+z
1/2+x,1/2-y,1/2-z
1/2-x,1/2+y,1/2-z
loop_
_atom_site_type_symbol
_atom_site_label
_atom_site_fract_x
_atom_site_fract_y
_atom_site_fract_z
Si Si1 0.758530 0.823452 0.059759
Si Si2 0.964746 0.373296 0.686243
Si Si3 0.109122 0.893860 0.613450
Si Si4 0.899435 0.608752 0.795129
Si Si5 0.643450 0.173797 0.935059
Si Si6 0.204151 0.995782 0.746988
Si Si7 0.203150 0.643950 0.135489
Si Si8 0.959242 0.893335 0.767042
O O1 0.701203 0.788454 0.082554
O O2 0.790956 0.860526 0.160506
O O3 0.780501 0.692495 0.979915
O O4 0.757282 0.000000 0.000000
O O5 0.917581 0.283183 0.640061
O O6 0.941973 0.472293 0.785052
O O7 0.000000 0.500000 0.623248
O O8 0.004758 0.236701 0.712808
O O9 0.121644 0.838072 0.493238
O O10 0.159796 0.937604 0.672614
O O11 0.069715 0.011088 0.674711
O O12 0.883119 0.642286 0.674484
O O13 0.850416 0.564280 0.855534
O O14 0.921042 0.785164 0.832687
O O15 0.641192 0.000000 0.000000
O O16 0.255637 0.972578 0.686742
O O17 0.200225 0.178011 0.800547
O O18 0.000000 0.000000 0.827743
#
# Coordination Sequence:
#
# PCOD9332067 Si02
#       8
#     8   8   8   8   8   8   8   8
#     4   9  20  36  54  83 124 161 194 239 288 364
#     4   9  20  37  60  82 112 155 202 248 314 368
#     4  11  20  36  59  85 120 159 204 254 304 358
#     4  11  20  36  59  85 116 162 202 250 302 372
#     4  11  20  33  54  84 118 168 206 226 298 372
#     4  11  22  37  59  88 120 163 203 245 297 366
#     4  11  22  37  59  88 122 159 207 241 298 369
#     4   9  20  39  56  82 113 151 203 260 308 352
#
# _framework density 22.811544999999999
#
# number of rings (size 3 to 8) (size 9 to 14) (size 15 to 20)
#    0.000    1.750    5.000    0.000    1.750    0.500 
#    0.000   11.250    0.000    0.000    0.000   13.125 
#    0.000    0.000    0.000    0.000    0.000    0.000 
#
# Total GULP energy -178424.392384 kJ/mol
# GULP energy per Si atom -5575.762262 kJ/mol
# Density = 2.275963 g / cm^3
# Si number density = 22.811545 Si / 1000 Ang^3
#
#
#
# Elastic Constant Matrix: (Units=GPa)
#
#
# Indices 1 2 3 4 5 6 
#
# 1 145.6574 33.1951 6.9706 0.0000 0.0000 0.0000
# 2 33.1951 28.0511 0.2082 0.0000 0.0000 0.0000
# 3 6.9706 0.2082 36.7457 0.0000 0.0000 0.0000
# 4 0.0000 0.0000 0.0000 19.6448 0.0000 0.0000
# 5 0.0000 0.0000 0.0000 0.0000 -7.9494 0.0000
# 6 0.0000 0.0000 0.0000 0.0000 0.0000 49.0775
#
#
#
# Elastic Compliance Matrix: (Units=1/GPa)
#
#
# Indices 1 2 3 4 5 6 
#
# 1 0.009511 -0.011242 -0.001740 0.000000 0.000000 0.000000
# 2 -0.011242 0.048939 0.001855 0.000000 0.000000 0.000000
# 3 -0.001740 0.001855 0.027534 0.000000 0.000000 0.000000
# 4 0.000000 0.000000 0.000000 0.050904 0.000000 0.000000
# 5 0.000000 0.000000 0.000000 0.000000 -0.125796 0.000000
# 6 0.000000 0.000000 0.000000 0.000000 0.000000 0.020376
#
#
# Mechanical properties :
#
#
# Convention : Reuss Voigt Hill
#
# Bulk Modulus (GPa) = 15.69139 32.35578 24.02359
# Shear Modulus (GPa) = 66.69783 23.49328 45.09555
#
# Velocity S-wave (km/s) = 5.41314 3.21266 4.45103
# Velocity P-wave (km/s) = 6.77961 5.28927 6.08027
#
# Compressibility (1/GPa) = 0.06372921
#
# Stress axis : x y z
#
# Youngs Moduli (GPa) = 105.14433 20.43363 36.31913
#
# Poissons Ratio (x) = 0.22971 0.06321
# Poissons Ratio (y) = 1.18202 -0.06738
# Poissons Ratio (z) = 0.18300 -0.03791
#
# Static dielectric constant tensor:
#      x y z
#    x 1.855500 0.000000 0.000000 
#    y 0.000000 2.031690 0.000000 
#    z 0.000000 0.000000 1.874170 
# 
# From -- ./inp_files/22605.got.cif
#   From: 2010.05.17/outbox.cif.g08.bks.cpg/sg23_12_cif.got.tgz:22605.got - 2010.06.04 12:02:01.
