data_PCOD9332265
_publ_section_title
;
Structure prediction by ZEFSAII (Michael W. Deem and Ramdas Pophale) SiO2 
 PCOD9332265
Probable space group: I 2 2 2
;
_chemical_formula_sum "Si O2"
_cell_formula_units_Z 52
_cell_length_a 7.257843
_cell_length_b 15.896180
_cell_length_c 20.742137
_cell_angle_alpha 90.000000
_cell_angle_beta 90.000000
_cell_angle_gamma 90.000000
_cell_volume 2393.061389
_symmetry_space_group_name_H-M "I 2 2 2"
_symmetry_group_IT_number 23
_symmetry_cell_setting 'orthorhombic'
loop_
_space_group_symop_operation_xyz
x,y,z
-x,-y,z
x,-y,-z
-x,y,-z
1/2+x,1/2+y,1/2+z
1/2-x,1/2-y,1/2+z
1/2+x,1/2-y,1/2-z
1/2-x,1/2+y,1/2-z
loop_
_atom_site_type_symbol
_atom_site_label
_atom_site_fract_x
_atom_site_fract_y
_atom_site_fract_z
Si Si1 0.698261 0.767045 0.600265
Si Si2 0.508718 0.278610 0.787942
Si Si3 0.509607 0.599226 0.422225
Si Si4 0.766861 0.626811 0.308710
Si Si5 0.278205 0.096101 0.491814
Si Si6 0.000000 0.500000 0.761458
Si Si7 0.332884 0.140151 0.352134
O O1 0.844682 0.783412 0.655365
O O2 0.652057 0.667604 0.593172
O O3 0.762870 0.824618 0.539123
O O4 0.504444 0.804471 0.624613
O O5 0.596379 0.332076 0.730285
O O6 0.445544 0.181582 0.787088
O O7 0.813865 0.182876 0.693367
O O8 0.500000 0.500000 0.403792
O O9 0.500000 0.601614 0.500000
O O10 0.695338 0.627707 0.382832
O O11 0.834877 0.536750 0.282853
O O12 0.500000 0.090141 0.500000
O O13 0.232088 0.117432 0.418520
O O14 0.209773 0.000000 0.500000
O O15 0.912306 0.564161 0.812125
#
# Coordination Sequence:
#
# PCOD9332265 Si02
#       7
#     8   8   8   8   8   4   8
#     4  11  22  46  74 106 146 194 238 302 367 445
#     4  12  26  46  73 106 144 193 246 296 372 451
#     4  11  26  49  76 104 141 193 253 317 382 439
#     4  12  27  46  74 108 143 196 249 316 373 447
#     4   9  19  37  69 102 147 192 229 279 353 436
#     4  12  26  44  73 109 152 190 248 318 364 440
#     4  11  22  44  68 106 145 190 238 286 366 439
#
# _framework density 21.729489999999998
#
# number of rings (size 3 to 8) (size 9 to 14) (size 15 to 20)
#    0.000    0.923    3.077    5.077    4.308    0.615 
#    0.000    0.769    0.000    0.000    0.000    0.000 
#    0.000    0.000    0.000    0.000    0.000    0.000 
#
# Total GULP energy -144885.697019 kJ/mol
# GULP energy per Si atom -5572.526808 kJ/mol
# Density = 2.168003 g / cm^3
# Si number density = 21.729490 Si / 1000 Ang^3
#
#
#
# Elastic Constant Matrix: (Units=GPa)
#
#
# Indices 1 2 3 4 5 6 
#
# 1 62.9784 22.5194 29.6185 0.0000 0.0000 0.0000
# 2 22.5194 114.5901 42.4095 0.0000 0.0000 0.0000
# 3 29.6185 42.4095 111.6475 0.0000 0.0000 0.0000
# 4 0.0000 0.0000 0.0000 19.8517 0.0000 0.0000
# 5 0.0000 0.0000 0.0000 0.0000 58.9664 0.0000
# 6 0.0000 0.0000 0.0000 0.0000 0.0000 42.8847
#
#
#
# Elastic Compliance Matrix: (Units=1/GPa)
#
#
# Indices 1 2 3 4 5 6 
#
# 1 0.018576 -0.002126 -0.004121 0.000000 0.000000 0.000000
# 2 -0.002126 0.010397 -0.003386 0.000000 0.000000 0.000000
# 3 -0.004121 -0.003386 0.011336 0.000000 0.000000 0.000000
# 4 0.000000 0.000000 0.000000 0.050373 0.000000 0.000000
# 5 0.000000 0.000000 0.000000 0.000000 0.016959 0.000000
# 6 0.000000 0.000000 0.000000 0.000000 0.000000 0.023318
#
#
# Mechanical properties :
#
#
# Convention : Reuss Voigt Hill
#
# Bulk Modulus (GPa) = 47.51468 53.14564 50.33016
# Shear Modulus (GPa) = 31.79861 37.31847 34.55854
#
# Velocity S-wave (km/s) = 3.82957 4.14866 3.99231
# Velocity P-wave (km/s) = 6.43957 6.88908 6.66812
#
# Compressibility (1/GPa) = 0.02104613
#
# Stress axis : x y z
#
# Youngs Moduli (GPa) = 53.83160 96.17704 88.21498
#
# Poissons Ratio (x) = 0.20444 0.36350
# Poissons Ratio (y) = 0.11443 0.29866
# Poissons Ratio (z) = 0.22182 0.32562
#
# Static dielectric constant tensor:
#      x y z
#    x 1.787310 0.000000 0.000000 
#    y 0.000000 1.992260 0.000000 
#    z 0.000000 0.000000 1.730450 
# 
# From -- ./inp_files/23853.got.cif
#   From: 2010.05.17/outbox.cif.g08.bks.cpg/sg23_12_cif.got.tgz:23853.got - 2010.06.04 12:02:01.
