data_PCOD9332301
_publ_section_title
;
Structure prediction by ZEFSAII (Michael W. Deem and Ramdas Pophale) SiO2 
 PCOD9332301
Probable space group: I 2 2 2
;
_chemical_formula_sum "Si O2"
_cell_formula_units_Z 34
_cell_length_a 32.596671
_cell_length_b 4.837561
_cell_length_c 9.847228
_cell_angle_alpha 90.000000
_cell_angle_beta 90.000000
_cell_angle_gamma 90.000000
_cell_volume 1552.793474
_symmetry_space_group_name_H-M "I 2 2 2"
_symmetry_group_IT_number 23
_symmetry_cell_setting 'orthorhombic'
loop_
_space_group_symop_operation_xyz
x,y,z
-x,-y,z
x,-y,-z
-x,y,-z
1/2+x,1/2+y,1/2+z
1/2-x,1/2-y,1/2+z
1/2+x,1/2-y,1/2-z
1/2-x,1/2+y,1/2-z
loop_
_atom_site_type_symbol
_atom_site_label
_atom_site_fract_x
_atom_site_fract_y
_atom_site_fract_z
Si Si1 0.000000 0.500000 0.000000
Si Si2 0.151131 0.260081 0.090418
Si Si3 0.233109 0.017552 0.167066
Si Si4 0.454214 0.366596 0.139344
Si Si5 0.067138 0.338740 0.207373
O O1 0.968645 0.341484 0.903697
O O2 0.186645 0.131521 0.182227
O O3 0.112140 0.411227 0.156827
O O4 0.171597 0.500000 0.000000
O O5 0.136504 0.000000 0.000000
O O6 0.261308 0.233207 0.250494
O O7 0.240172 0.000000 0.000000
O O8 0.500000 0.500000 0.152028
O O9 0.428476 0.521627 0.251969
O O10 0.449094 0.044395 0.172474
O O11 0.438975 0.500000 0.000000
#
# Coordination Sequence:
#
# PCOD9332301 Si02
#       5
#     2   8   8   8   8
#     4  12  24  38  62 102 128 162 220 272 344 370
#     4  11  23  41  66 100 140 177 218 276 348 405
#     4  11  23  44  73 106 140 180 231 281 348 427
#     4  11  23  41  60  83 120 175 223 266 323 388
#     4  12  24  39  64  94 131 165 219 280 322 391
#
# _framework density 21.896021000000001
#
# number of rings (size 3 to 8) (size 9 to 14) (size 15 to 20)
#    0.000    0.706    3.529    5.647    0.000    2.824 
#    0.000    4.706    0.000    1.412    0.000    0.000 
#    0.000    0.000    0.000    0.000    0.000    0.000 
#
# Total GULP energy -94737.722052 kJ/mol
# GULP energy per Si atom -5572.807180 kJ/mol
# Density = 2.184618 g / cm^3
# Si number density = 21.896021 Si / 1000 Ang^3
#
#
#
# Elastic Constant Matrix: (Units=GPa)
#
#
# Indices 1 2 3 4 5 6 
#
# 1 107.3369 9.7253 33.9423 0.0000 0.0000 0.0000
# 2 9.7253 115.0348 26.8340 0.0000 0.0000 0.0000
# 3 33.9423 26.8340 100.1139 0.0000 0.0000 0.0000
# 4 0.0000 0.0000 0.0000 34.9437 0.0000 0.0000
# 5 0.0000 0.0000 0.0000 0.0000 39.7151 0.0000
# 6 0.0000 0.0000 0.0000 0.0000 0.0000 35.2945
#
#
#
# Elastic Compliance Matrix: (Units=1/GPa)
#
#
# Indices 1 2 3 4 5 6 
#
# 1 0.010436 -0.000061 -0.003522 0.000000 0.000000 0.000000
# 2 -0.000061 0.009273 -0.002465 0.000000 0.000000 0.000000
# 3 -0.003522 -0.002465 0.011843 0.000000 0.000000 0.000000
# 4 0.000000 0.000000 0.000000 0.028617 0.000000 0.000000
# 5 0.000000 0.000000 0.000000 0.000000 0.025179 0.000000
# 6 0.000000 0.000000 0.000000 0.000000 0.000000 0.028333
#
#
# Mechanical properties :
#
#
# Convention : Reuss Voigt Hill
#
# Bulk Modulus (GPa) = 51.39487 51.49877 51.44682
# Shear Modulus (GPa) = 37.80359 38.78960 38.29659
#
# Velocity S-wave (km/s) = 4.15963 4.21353 4.18667
# Velocity P-wave (km/s) = 6.82592 6.87332 6.84966
#
# Compressibility (1/GPa) = 0.01945720
#
# Stress axis : x y z
#
# Youngs Moduli (GPa) = 95.82560 107.83827 84.43575
#
# Poissons Ratio (x) = 0.00655 0.29736
# Poissons Ratio (y) = 0.00582 0.20813
# Poissons Ratio (z) = 0.33748 0.26581
#
# Static dielectric constant tensor:
#      x y z
#    x 1.877820 0.000000 0.000000 
#    y 0.000000 1.802020 0.000000 
#    z 0.000000 0.000000 1.904690 
# 
# From -- ./inp_files/13213.got.cif
#   From: 2010.05.17/outbox.cif.g08.bks.cpg/sg23_7_cif.got.tgz:13213.got - 2010.06.04 12:02:01.
