data_PCOD9332733
_publ_section_title
;
Structure prediction by ZEFSAII (Michael W. Deem and Ramdas Pophale) SiO2 
 PCOD9332733
Probable space group: I 21 21 21
;
_chemical_formula_sum "Si O2"
_cell_formula_units_Z 52
_cell_length_a 14.564346
_cell_length_b 17.058038
_cell_length_c 7.887621
_cell_angle_alpha 90.000000
_cell_angle_beta 90.000000
_cell_angle_gamma 90.000000
_cell_volume 1959.593995
_symmetry_space_group_name_H-M "I 21 21 21"
_symmetry_group_IT_number 24
_symmetry_cell_setting 'orthorhombic'
loop_
_space_group_symop_operation_xyz
x,y,z
-x,1/2-y,z
x,-y,1/2-z
1/2-x,y,-z
1/2+x,1/2+y,1/2+z
1/2-x,-y,1/2+z
1/2+x,1/2-y,-z
-x,1/2+y,1/2-z
loop_
_atom_site_type_symbol
_atom_site_label
_atom_site_fract_x
_atom_site_fract_y
_atom_site_fract_z
Si Si1 0.212054 0.690276 0.306803
Si Si2 0.611904 0.888705 0.256133
Si Si3 0.770939 0.357942 0.685739
Si Si4 0.964178 0.660309 0.958969
Si Si5 0.399123 0.120816 0.836114
Si Si6 0.918762 0.057850 0.105126
Si Si7 0.500000 0.750000 0.450056
O O1 0.250000 0.700638 0.500000
O O2 0.285393 0.634232 0.214662
O O3 0.225196 0.771372 0.208346
O O4 0.117618 0.642988 0.325286
O O5 0.546114 0.896932 0.096867
O O6 0.617842 0.947920 0.413750
O O7 0.558865 0.812577 0.341230
O O8 0.750000 0.390417 0.500000
O O9 0.880554 0.348327 0.677936
O O10 0.708218 0.400973 0.825070
O O11 0.000000 0.750000 0.973380
O O12 0.929355 0.635339 0.142587
O O13 0.470834 0.058135 0.907376
O O14 0.426668 0.198768 0.941899
O O15 0.887311 0.000000 0.250000
#
# Coordination Sequence:
#
# PCOD9332733 Si02
#       7
#     8   8   8   8   8   8   4
#     4  10  19  32  53  79 110 140 177 225 280 330
#     4  10  19  34  55  83 114 144 178 232 280 335
#     4  10  20  31  53  86 118 139 166 215 289 352
#     4  11  19  32  54  86 119 138 167 224 292 351
#     4  10  20  33  53  77 110 146 185 221 277 334
#     4  10  23  40  55  71 105 155 204 233 262 314
#     4  10  16  30  54  80 110 146 174 216 288 348
#
# _framework density 26.536107999999999
#
# number of rings (size 3 to 8) (size 9 to 14) (size 15 to 20)
#    0.000    1.846    3.077    2.769    2.154    1.231 
#    0.000    7.692    0.000    5.538    0.000    0.000 
#    0.000    0.000    0.000    0.000    0.000    0.000 
#
# Total GULP energy -145299.653395 kJ/mol
# GULP energy per Si atom -5588.448207 kJ/mol
# Density = 2.647571 g / cm^3
# Si number density = 26.536108 Si / 1000 Ang^3
#
#
#
# Elastic Constant Matrix: (Units=GPa)
#
#
# Indices 1 2 3 4 5 6 
#
# 1 114.2154 -21.7585 3.0842 0.0000 0.0000 0.0000
# 2 -21.7585 61.6205 -2.6748 0.0000 0.0000 0.0000
# 3 3.0842 -2.6748 106.7918 0.0000 0.0000 0.0000
# 4 0.0000 0.0000 0.0000 27.1487 0.0000 0.0000
# 5 0.0000 0.0000 0.0000 0.0000 44.5032 0.0000
# 6 0.0000 0.0000 0.0000 0.0000 0.0000 16.4704
#
#
#
# Elastic Compliance Matrix: (Units=1/GPa)
#
#
# Indices 1 2 3 4 5 6 
#
# 1 0.009391 0.003308 -0.000188 0.000000 0.000000 0.000000
# 2 0.003308 0.017411 0.000341 0.000000 0.000000 0.000000
# 3 -0.000188 0.000341 0.009378 0.000000 0.000000 0.000000
# 4 0.000000 0.000000 0.000000 0.036834 0.000000 0.000000
# 5 0.000000 0.000000 0.000000 0.000000 0.022470 0.000000
# 6 0.000000 0.000000 0.000000 0.000000 0.000000 0.060715
#
#
# Mechanical properties :
#
#
# Convention : Reuss Voigt Hill
#
# Bulk Modulus (GPa) = 23.20213 26.65884 24.93048
# Shear Modulus (GPa) = 30.55378 37.88958 34.22168
#
# Velocity S-wave (km/s) = 3.39692 3.78279 3.59503
# Velocity P-wave (km/s) = 4.91406 5.39883 5.16214
#
# Compressibility (1/GPa) = 0.04309950
#
# Stress axis : x y z
#
# Youngs Moduli (GPa) = 106.48942 57.43454 106.63273
#
# Poissons Ratio (x) = -0.18998 0.02009
# Poissons Ratio (y) = -0.35223 -0.03631
# Poissons Ratio (z) = 0.02006 -0.01956
#
# Static dielectric constant tensor:
#      x y z
#    x 2.168150 0.000000 0.000000 
#    y 0.000000 2.205800 0.000000 
#    z 0.000000 0.000000 2.112340 
# 
# From -- ./inp_files/13057.got.cif
#   From: 2010.05.17/outbox.cif.g08.bks.cpg/sg24_7_cif.got.tgz:13057.got - 2010.06.04 00:33:39.
