data_PCOD9332096
_publ_section_title
;
Structure prediction by ZEFSAII (Michael W. Deem and Ramdas Pophale) SiO2 
 PCOD9332096
Probable space group: I 2 2 2
;
_chemical_formula_sum "Si O2"
_cell_formula_units_Z 28
_cell_length_a 10.049545
_cell_length_b 8.757714
_cell_length_c 14.486453
_cell_angle_alpha 90.000000
_cell_angle_beta 90.000000
_cell_angle_gamma 90.000000
_cell_volume 1274.967808
_symmetry_space_group_name_H-M "I 2 2 2"
_symmetry_group_IT_number 23
_symmetry_cell_setting 'orthorhombic'
loop_
_space_group_symop_operation_xyz
x,y,z
-x,-y,z
x,-y,-z
-x,y,-z
1/2+x,1/2+y,1/2+z
1/2-x,1/2-y,1/2+z
1/2+x,1/2-y,1/2-z
1/2-x,1/2+y,1/2-z
loop_
_atom_site_type_symbol
_atom_site_label
_atom_site_fract_x
_atom_site_fract_y
_atom_site_fract_z
Si Si1 0.779342 0.910204 0.412781
Si Si2 0.646596 0.672900 0.527059
Si Si3 0.000000 0.500000 0.825576
Si Si4 0.925270 0.161277 0.776324
O O1 0.748219 0.750331 0.459386
O O2 0.637761 0.987166 0.383537
O O3 0.861330 0.881385 0.320868
O O4 0.839131 0.000000 0.500000
O O5 0.642953 0.500000 0.500000
O O6 0.500000 0.737274 0.500000
O O7 0.671885 0.683759 0.635945
O O8 0.005713 0.668398 0.774060
O O9 0.000000 0.000000 0.801718
#
# Coordination Sequence:
#
# PCOD9332096 Si02
#       4
#     8   8   4   8
#     4  12  25  45  72 107 146 185 236 304 362 418
#     4  11  20  40  70 102 137 183 244 290 341 424
#     4  12  25  44  76 107 142 190 249 288 351 432
#     4  12  27  45  73 106 147 188 239 298 363 428
#
# _framework density 21.961338999999999
#
# number of rings (size 3 to 8) (size 9 to 14) (size 15 to 20)
#    0.000    0.286    8.571    0.429    8.000    0.571 
#    0.000    0.000    0.000    1.714    0.000    0.000 
#    0.000    0.000    0.000    0.000    0.000    0.000 
#
# Total GULP energy -77961.567489 kJ/mol
# GULP energy per Si atom -5568.683392 kJ/mol
# Density = 2.191135 g / cm^3
# Si number density = 21.961339 Si / 1000 Ang^3
#
#
#
# Elastic Constant Matrix: (Units=GPa)
#
#
# Indices 1 2 3 4 5 6 
#
# 1 29.5599 29.2409 36.7580 0.0000 0.0000 0.0000
# 2 29.2409 167.4459 44.5753 0.0000 0.0000 0.0000
# 3 36.7580 44.5753 184.0638 0.0000 0.0000 0.0000
# 4 0.0000 0.0000 0.0000 41.2002 0.0000 0.0000
# 5 0.0000 0.0000 0.0000 0.0000 61.9839 0.0000
# 6 0.0000 0.0000 0.0000 0.0000 0.0000 16.8441
#
#
#
# Elastic Compliance Matrix: (Units=1/GPa)
#
#
# Indices 1 2 3 4 5 6 
#
# 1 0.051076 -0.006632 -0.008594 0.000000 0.000000 0.000000
# 2 -0.006632 0.007245 -0.000430 0.000000 0.000000 0.000000
# 3 -0.008594 -0.000430 0.007253 0.000000 0.000000 0.000000
# 4 0.000000 0.000000 0.000000 0.024272 0.000000 0.000000
# 5 0.000000 0.000000 0.000000 0.000000 0.016133 0.000000
# 6 0.000000 0.000000 0.000000 0.000000 0.000000 0.059368
#
#
# Mechanical properties :
#
#
# Convention : Reuss Voigt Hill
#
# Bulk Modulus (GPa) = 29.18618 66.91310 48.04964
# Shear Modulus (GPa) = 24.02922 42.03866 33.03394
#
# Velocity S-wave (km/s) = 3.31140 4.37992 3.88259
# Velocity P-wave (km/s) = 5.28575 7.49086 6.48275
#
# Compressibility (1/GPa) = 0.03426279
#
# Stress axis : x y z
#
# Youngs Moduli (GPa) = 19.57849 138.03286 137.86799
#
# Poissons Ratio (x) = 0.91538 1.18485
# Poissons Ratio (y) = 0.12984 0.05930
# Poissons Ratio (z) = 0.16826 0.05937
#
# Static dielectric constant tensor:
#      x y z
#    x 1.845920 0.000000 0.000000 
#    y 0.000000 1.628280 0.000000 
#    z 0.000000 0.000000 1.787700 
# 
# From -- ./inp_files/14214.got.cif
#   From: 2010.05.17/outbox.cif.g08.bks.cpg/sg23_8_cif.got.tgz:14214.got - 2010.06.04 12:02:01.
