data_PCOD9332706
_publ_section_title
;
Structure prediction by ZEFSAII (Michael W. Deem and Ramdas Pophale) SiO2 
 PCOD9332706
Probable space group: I 21 21 21
;
_chemical_formula_sum "Si O2"
_cell_formula_units_Z 52
_cell_length_a 24.400589
_cell_length_b 4.920142
_cell_length_c 30.786686
_cell_angle_alpha 90.000000
_cell_angle_beta 90.000000
_cell_angle_gamma 90.000000
_cell_volume 3696.075969
_symmetry_space_group_name_H-M "I 21 21 21"
_symmetry_group_IT_number 24
_symmetry_cell_setting 'orthorhombic'
loop_
_space_group_symop_operation_xyz
x,y,z
-x,1/2-y,z
x,-y,1/2-z
1/2-x,y,-z
1/2+x,1/2+y,1/2+z
1/2-x,-y,1/2+z
1/2+x,1/2-y,-z
-x,1/2+y,1/2-z
loop_
_atom_site_type_symbol
_atom_site_label
_atom_site_fract_x
_atom_site_fract_y
_atom_site_fract_z
Si Si1 0.868091 0.726547 0.504681
Si Si2 0.935523 0.256051 0.479517
Si Si3 0.274949 0.489254 0.451050
Si Si4 0.609870 0.716313 0.885887
Si Si5 0.934721 0.772240 0.339984
Si Si6 0.786546 0.523161 0.429106
Si Si7 0.461275 0.500000 0.750000
O O1 0.908204 0.473867 0.512134
O O2 0.834368 0.877819 0.542523
O O3 0.823658 0.589463 0.471768
O O4 0.904047 0.968469 0.483512
O O5 0.924115 0.348747 0.429839
O O6 0.000000 0.250000 0.486744
O O7 0.250000 0.500198 0.500000
O O8 0.263763 0.180700 0.438049
O O9 0.239396 0.684221 0.419866
O O10 0.588910 0.524977 0.847491
O O11 0.671701 0.627877 0.897111
O O12 0.596516 0.023692 0.872510
O O13 0.000000 0.750000 0.348834
O O14 0.929147 0.885731 0.291294
O O15 0.500000 0.750000 0.764920
#
# Coordination Sequence:
#
# PCOD9332706 Si02
#       7
#     8   8   8   8   8   8   4
#     4  10  19  29  41  55  72  99 127 149 183 227
#     4  11  20  30  40  56  79 100 124 155 189 234
#     4  10  16  27  41  54  71  93 119 149 178 215
#     4  11  20  29  41  58  75  94 115 144 193 240
#     4  11  20  31  44  56  72  94 119 149 184 230
#     4  10  18  27  40  57  74  90 115 149 183 227
#     4  10  20  34  46  58  70  90 124 156 182 220
#
# _framework density 14.068974000000001
#
# number of rings (size 3 to 8) (size 9 to 14) (size 15 to 20)
#    0.000    1.538    0.000   12.462    0.000    0.000 
#    0.000    0.000    0.000    0.000    0.000    0.000 
#    0.000    0.000    0.000    0.000    0.000    0.000 
#
# Total GULP energy -144814.927166 kJ/mol
# GULP energy per Si atom -5569.804891 kJ/mol
# Density = 1.403695 g / cm^3
# Si number density = 14.068974 Si / 1000 Ang^3
#
#
#
# Elastic Constant Matrix: (Units=GPa)
#
#
# Indices 1 2 3 4 5 6 
#
# 1 46.5627 15.7854 11.2371 0.0000 0.0000 0.0000
# 2 15.7854 82.9111 2.0321 0.0000 0.0000 0.0000
# 3 11.2371 2.0321 16.8072 0.0000 0.0000 0.0000
# 4 0.0000 0.0000 0.0000 17.9357 0.0000 0.0000
# 5 0.0000 0.0000 0.0000 0.0000 9.2284 0.0000
# 6 0.0000 0.0000 0.0000 0.0000 0.0000 27.8181
#
#
#
# Elastic Compliance Matrix: (Units=1/GPa)
#
#
# Indices 1 2 3 4 5 6 
#
# 1 0.027373 -0.004777 -0.017724 0.000000 0.000000 0.000000
# 2 -0.004777 0.012931 0.001631 0.000000 0.000000 0.000000
# 3 -0.017724 0.001631 0.071151 0.000000 0.000000 0.000000
# 4 0.000000 0.000000 0.000000 0.055755 0.000000 0.000000
# 5 0.000000 0.000000 0.000000 0.000000 0.108361 0.000000
# 6 0.000000 0.000000 0.000000 0.000000 0.000000 0.035948
#
#
# Mechanical properties :
#
#
# Convention : Reuss Voigt Hill
#
# Bulk Modulus (GPa) = 14.34431 22.71004 18.52718
# Shear Modulus (GPa) = 13.28029 18.81154 16.04591
#
# Velocity S-wave (km/s) = 3.07570 3.66060 3.38082
# Velocity P-wave (km/s) = 4.77819 5.83469 5.33267
#
# Compressibility (1/GPa) = 0.06971404
#
# Stress axis : x y z
#
# Youngs Moduli (GPa) = 36.53195 77.33549 14.05461
#
# Poissons Ratio (x) = 0.36945 0.24910
# Poissons Ratio (y) = 0.17452 -0.02292
# Poissons Ratio (z) = 0.64749 -0.12610
#
# Static dielectric constant tensor:
#      x y z
#    x 1.504910 0.000000 0.000000 
#    y 0.000000 1.516180 0.000000 
#    z 0.000000 0.000000 1.453820 
# 
# From -- ./inp_files/38868.got.cif
#   From: 2010.05.17/outbox.cif.g08.bks.cpg/sg24_20_cif.got.tgz:38868.got - 2010.06.04 00:33:39.
