data_PCOD9332305
_publ_section_title
;
Structure prediction by ZEFSAII (Michael W. Deem and Ramdas Pophale) SiO2 
 PCOD9332305
Probable space group: I 2 2 2
;
_chemical_formula_sum "Si O2"
_cell_formula_units_Z 56
_cell_length_a 20.523894
_cell_length_b 11.443021
_cell_length_c 11.442589
_cell_angle_alpha 90.000000
_cell_angle_beta 90.000000
_cell_angle_gamma 90.000000
_cell_volume 2687.353245
_symmetry_space_group_name_H-M "I 2 2 2"
_symmetry_group_IT_number 23
_symmetry_cell_setting 'orthorhombic'
loop_
_space_group_symop_operation_xyz
x,y,z
-x,-y,z
x,-y,-z
-x,y,-z
1/2+x,1/2+y,1/2+z
1/2-x,1/2-y,1/2+z
1/2+x,1/2-y,1/2-z
1/2-x,1/2+y,1/2-z
loop_
_atom_site_type_symbol
_atom_site_label
_atom_site_fract_x
_atom_site_fract_y
_atom_site_fract_z
Si Si1 0.212291 0.769443 0.427136
Si Si2 0.156450 0.031738 0.183898
Si Si3 0.868574 0.349563 0.223900
Si Si4 0.343550 0.683888 0.531743
Si Si5 0.212292 0.572865 0.769460
Si Si6 0.000001 0.359982 0.640023
Si Si7 0.368577 0.276087 0.849556
O O1 0.185050 0.713903 0.307143
O O2 0.266785 0.696719 0.499282
O O3 0.249997 0.886167 0.386179
O O4 0.152199 0.780080 0.515211
O O5 0.134490 0.091632 0.302670
O O6 0.134191 0.909690 0.129739
O O7 0.233215 0.999278 0.196730
O O8 0.134192 0.129718 0.090303
O O9 0.865511 0.302664 0.091619
O O10 0.847798 0.484790 0.219894
O O11 0.936383 0.323809 0.287722
O O12 0.185046 0.692851 0.713917
O O13 0.936387 0.287728 0.676203
O O14 0.000000 0.500000 0.657292
O O15 0.000000 0.342711 0.500000
#
# Coordination Sequence:
#
# PCOD9332305 Si02
#       7
#     8   8   8   8   8   8   8
#     4  12  22  40  65 105 141 173 221 292 358 413
#     4  11  23  41  64  96 134 177 221 283 350 416
#     4  12  24  42  67 102 138 176 228 278 351 423
#     4  11  23  41  64  96 134 177 221 283 350 416
#     4  12  22  40  65 105 141 173 221 292 358 413
#     4  11  24  44  70  97 136 184 228 289 344 422
#     4  12  24  42  67 102 138 176 228 278 351 423
#
# _framework density 20.838348
#
# number of rings (size 3 to 8) (size 9 to 14) (size 15 to 20)
#    0.000    0.429    8.571    0.857    0.000    2.857 
#    0.000    1.429    0.000    3.429    0.000    0.000 
#    0.000    0.000    0.000    0.000    0.000    0.000 
#
# Total GULP energy -155919.045194 kJ/mol
# GULP energy per Si atom -5568.537328 kJ/mol
# Density = 2.079092 g / cm^3
# Si number density = 20.838348 Si / 1000 Ang^3
#
#
#
# Elastic Constant Matrix: (Units=GPa)
#
#
# Indices 1 2 3 4 5 6 
#
# 1 102.0131 21.8440 21.8360 0.0000 0.0000 0.0000
# 2 21.8440 45.4657 43.6804 0.0000 0.0000 0.0000
# 3 21.8360 43.6804 45.4324 0.0000 0.0000 0.0000
# 4 0.0000 0.0000 0.0000 33.6060 0.0000 0.0000
# 5 0.0000 0.0000 0.0000 0.0000 21.0513 0.0000
# 6 0.0000 0.0000 0.0000 0.0000 0.0000 21.0485
#
#
#
# Elastic Compliance Matrix: (Units=1/GPa)
#
#
# Indices 1 2 3 4 5 6 
#
# 1 0.010952 -0.002683 -0.002684 0.000000 0.000000 0.000000
# 2 -0.002683 0.288859 -0.276431 0.000000 0.000000 0.000000
# 3 -0.002684 -0.276431 0.289072 0.000000 0.000000 0.000000
# 4 0.000000 0.000000 0.000000 0.029757 0.000000 0.000000
# 5 0.000000 0.000000 0.000000 0.000000 0.047503 0.000000
# 6 0.000000 0.000000 0.000000 0.000000 0.000000 0.047509
#
#
# Mechanical properties :
#
#
# Convention : Reuss Voigt Hill
#
# Bulk Modulus (GPa) = 39.54597 40.84801 40.19699
# Shear Modulus (GPa) = 3.88900 22.17789 13.03345
#
# Velocity S-wave (km/s) = 1.36760 3.26587 2.50362
# Velocity P-wave (km/s) = 4.63815 5.81946 5.26206
#
# Compressibility (1/GPa) = 0.02528703
#
# Stress axis : x y z
#
# Youngs Moduli (GPa) = 91.30989 3.46189 3.45935
#
# Poissons Ratio (x) = 0.00929 0.00929
# Poissons Ratio (y) = 0.24497 0.95627
# Poissons Ratio (z) = 0.24510 0.95697
#
# Static dielectric constant tensor:
#      x y z
#    x 1.749350 0.000000 0.000000 
#    y 0.000000 1.769630 0.000000 
#    z 0.000000 0.000000 1.769650 
# 
# From -- ./inp_files/17996.got.cif
#   From: 2010.05.17/outbox.cif.g08.bks.cpg/sg23_9_cif.got.tgz:17996.got - 2010.06.04 12:02:01.
