data_PCOD9332999
_publ_section_title
;
Structure prediction by ZEFSAII (Michael W. Deem and Ramdas Pophale) SiO2 
 PCOD9332999
Probable space group: I 21 21 21
;
_chemical_formula_sum "Si O2"
_cell_formula_units_Z 56
_cell_length_a 31.080981
_cell_length_b 5.287657
_cell_length_c 19.513045
_cell_angle_alpha 90.000000
_cell_angle_beta 90.000000
_cell_angle_gamma 90.000000
_cell_volume 3206.882440
_symmetry_space_group_name_H-M "I 21 21 21"
_symmetry_group_IT_number 24
_symmetry_cell_setting 'orthorhombic'
loop_
_space_group_symop_operation_xyz
x,y,z
-x,1/2-y,z
x,-y,1/2-z
1/2-x,y,-z
1/2+x,1/2+y,1/2+z
1/2-x,-y,1/2+z
1/2+x,1/2-y,-z
-x,1/2+y,1/2-z
loop_
_atom_site_type_symbol
_atom_site_label
_atom_site_fract_x
_atom_site_fract_y
_atom_site_fract_z
Si Si1 0.706469 0.264678 0.708118
Si Si2 0.545391 0.168066 0.693330
Si Si3 0.123585 0.440482 0.050270
Si Si4 0.765693 0.346577 0.579810
Si Si5 0.527288 0.997063 0.540831
Si Si6 0.794979 0.144104 0.956322
Si Si7 0.622225 0.558461 0.861847
O O1 0.726269 0.500000 0.750000
O O2 0.728992 0.270839 0.633470
O O3 0.658052 0.350983 0.691290
O O4 0.708797 0.000000 0.750000
O O5 0.500000 0.250000 0.723709
O O6 0.575375 0.396179 0.669778
O O7 0.568617 0.000000 0.750000
O O8 0.534375 0.022656 0.623083
O O9 0.076325 0.452414 0.015543
O O10 0.163586 0.351155 0.004396
O O11 0.128327 0.726784 0.078836
O O12 0.124812 0.226330 0.110195
O O13 0.750000 0.364126 0.500000
O O14 0.787695 0.615243 0.591420
O O15 0.798497 0.117053 0.583549
O O16 0.500000 0.750000 0.525051
O O17 0.500000 0.250000 0.521299
O O18 0.750000 0.128265 0.000000
#
# Coordination Sequence:
#
# PCOD9332999 Si02
#       7
#     8   8   8   8   8   8   8
#     4  12  24  38  54  76 106 139 176 220 275 325
#     4  10  20  31  44  59  81 116 163 214 264 308
#     4  11  20  34  55  75  97 129 172 221 270 315
#     4  10  20  35  54  74 100 133 171 214 258 310
#     4  10  20  34  48  65  90 123 163 209 262 319
#     4  10  18  31  52  76  98 123 164 214 260 304
#     4  11  22  35  49  69  96 127 167 220 277 323
#
# _framework density 17.462441999999999
#
# number of rings (size 3 to 8) (size 9 to 14) (size 15 to 20)
#    0.000    1.429    0.000    9.429    0.000    2.857 
#    0.000    0.000    0.000    0.000    0.000    0.000 
#    0.000    0.000    0.000    0.000    0.000   40.000 
#
# Total GULP energy -156026.310470 kJ/mol
# GULP energy per Si atom -5572.368231 kJ/mol
# Density = 1.742270 g / cm^3
# Si number density = 17.462442 Si / 1000 Ang^3
#
#
#
# Elastic Constant Matrix: (Units=GPa)
#
#
# Indices 1 2 3 4 5 6 
#
# 1 85.7043 -8.2052 14.5828 0.0000 0.0000 0.0000
# 2 -8.2052 64.0422 -16.6553 0.0000 0.0000 0.0000
# 3 14.5828 -16.6553 24.6279 0.0000 0.0000 0.0000
# 4 0.0000 0.0000 0.0000 21.4847 0.0000 0.0000
# 5 0.0000 0.0000 0.0000 0.0000 16.2488 0.0000
# 6 0.0000 0.0000 0.0000 0.0000 0.0000 20.2762
#
#
#
# Elastic Compliance Matrix: (Units=1/GPa)
#
#
# Indices 1 2 3 4 5 6 
#
# 1 0.012984 -0.000408 -0.007964 0.000000 0.000000 0.000000
# 2 -0.000408 0.018960 0.013063 0.000000 0.000000 0.000000
# 3 -0.007964 0.013063 0.054154 0.000000 0.000000 0.000000
# 4 0.000000 0.000000 0.000000 0.046545 0.000000 0.000000
# 5 0.000000 0.000000 0.000000 0.000000 0.061543 0.000000
# 6 0.000000 0.000000 0.000000 0.000000 0.000000 0.049319
#
#
# Mechanical properties :
#
#
# Convention : Reuss Voigt Hill
#
# Bulk Modulus (GPa) = 10.47312 17.09100 13.78206
# Shear Modulus (GPa) = 18.80064 23.91208 21.35636
#
# Velocity S-wave (km/s) = 3.28477 3.70448 3.50092
# Velocity P-wave (km/s) = 4.51628 5.30152 4.92458
#
# Compressibility (1/GPa) = 0.09548249
#
# Stress axis : x y z
#
# Youngs Moduli (GPa) = 77.01742 52.74297 18.46570
#
# Poissons Ratio (x) = 0.02150 0.14706
# Poissons Ratio (y) = 0.03139 -0.24123
# Poissons Ratio (z) = 0.61335 -0.68901
#
# Static dielectric constant tensor:
#      x y z
#    x 1.645970 0.000000 0.000000 
#    y 0.000000 1.725610 0.000000 
#    z 0.000000 0.000000 1.610810 
# 
# From -- ./inp_files/28218.got.cif
#   From: 2010.05.17/outbox.cif.g08.bks.cpg/sg24_15_cif.got.tgz:28218.got - 2010.06.04 00:33:39.
