data_PCOD9332325
_publ_section_title
;
Structure prediction by ZEFSAII (Michael W. Deem and Ramdas Pophale) SiO2 
 PCOD9332325
Probable space group: I 2 2 2
;
_chemical_formula_sum "Si O2"
_cell_formula_units_Z 34
_cell_length_a 7.577622
_cell_length_b 15.269435
_cell_length_c 13.374840
_cell_angle_alpha 90.000000
_cell_angle_beta 90.000000
_cell_angle_gamma 90.000000
_cell_volume 1547.549325
_symmetry_space_group_name_H-M "I 2 2 2"
_symmetry_group_IT_number 23
_symmetry_cell_setting 'orthorhombic'
loop_
_space_group_symop_operation_xyz
x,y,z
-x,-y,z
x,-y,-z
-x,y,-z
1/2+x,1/2+y,1/2+z
1/2-x,1/2-y,1/2+z
1/2+x,1/2-y,1/2-z
1/2-x,1/2+y,1/2-z
loop_
_atom_site_type_symbol
_atom_site_label
_atom_site_fract_x
_atom_site_fract_y
_atom_site_fract_z
Si Si1 0.305619 0.135107 0.226746
Si Si2 0.295700 0.177045 0.791060
Si Si3 0.000000 0.500000 0.000000
Si Si4 0.788994 0.900189 0.003651
Si Si5 0.810305 0.034406 0.348821
O O1 0.513029 0.144623 0.241057
O O2 0.221684 0.219904 0.277641
O O3 0.266727 0.139216 0.109011
O O4 0.245098 0.043402 0.272858
O O5 0.166936 0.121907 0.717903
O O6 0.270425 0.150926 0.905838
O O7 0.146933 0.546173 0.927189
O O8 0.000000 0.902662 0.000000
O O9 0.721926 0.000000 0.000000
O O10 0.000000 0.000000 0.389377
#
# Coordination Sequence:
#
# PCOD9332325 Si02
#       5
#     8   8   2   8   8
#     4  12  25  45  72 107 146 189 243 297 360 432
#     4  12  25  45  72 107 146 189 243 297 360 432
#     4  12  26  48  72 104 144 194 246 288 380 432
#     4  11  23  42  73 106 140 189 237 294 360 424
#     4  12  25  48  74 105 145 190 239 303 362 433
#
# _framework density 21.970220999999999
#
# number of rings (size 3 to 8) (size 9 to 14) (size 15 to 20)
#    0.000    0.235    4.706    5.294    0.000    2.824 
#    4.235    4.706    0.000    0.000    0.000    0.000 
#    0.000    0.000    0.000    0.000    0.000    0.000 
#
# Total GULP energy -95053.715827 kJ/mol
# GULP energy per Si atom -5591.395049 kJ/mol
# Density = 2.192022 g / cm^3
# Si number density = 21.970221 Si / 1000 Ang^3
#
#
#
# Elastic Constant Matrix: (Units=GPa)
#
#
# Indices 1 2 3 4 5 6 
#
# 1 112.6619 -3.9572 11.1625 0.0000 0.0000 0.0000
# 2 -3.9572 99.6992 40.4212 0.0000 0.0000 0.0000
# 3 11.1625 40.4212 141.7341 0.0000 0.0000 0.0000
# 4 0.0000 0.0000 0.0000 13.4732 0.0000 0.0000
# 5 0.0000 0.0000 0.0000 0.0000 25.5083 0.0000
# 6 0.0000 0.0000 0.0000 0.0000 0.0000 25.9548
#
#
#
# Elastic Compliance Matrix: (Units=1/GPa)
#
#
# Indices 1 2 3 4 5 6 
#
# 1 0.008992 0.000728 -0.000916 0.000000 0.000000 0.000000
# 2 0.000728 0.011401 -0.003309 0.000000 0.000000 0.000000
# 3 -0.000916 -0.003309 0.008071 0.000000 0.000000 0.000000
# 4 0.000000 0.000000 0.000000 0.074221 0.000000 0.000000
# 5 0.000000 0.000000 0.000000 0.000000 0.039203 0.000000
# 6 0.000000 0.000000 0.000000 0.000000 0.000000 0.038529
#
#
# Mechanical properties :
#
#
# Convention : Reuss Voigt Hill
#
# Bulk Modulus (GPa) = 46.57333 49.92759 48.25046
# Shear Modulus (GPa) = 25.69811 33.41850 29.55830
#
# Velocity S-wave (km/s) = 3.42377 3.90434 3.67192
# Velocity P-wave (km/s) = 6.07240 6.56503 6.32351
#
# Compressibility (1/GPa) = 0.02147152
#
# Stress axis : x y z
#
# Youngs Moduli (GPa) = 111.20450 87.71531 123.89727
#
# Poissons Ratio (x) = -0.06388 0.11348
# Poissons Ratio (y) = -0.08099 0.40994
# Poissons Ratio (z) = 0.10185 0.29022
#
# Static dielectric constant tensor:
#      x y z
#    x 1.849830 0.000000 0.000000 
#    y 0.000000 1.692680 0.000000 
#    z 0.000000 0.000000 1.827110 
# 
# From -- ./inp_files/14308.got.cif
#   From: 2010.05.17/outbox.cif.g08.bks.cpg/sg23_8_cif.got.tgz:14308.got - 2010.06.04 12:02:01.
