data_PCOD9332037
_publ_section_title
;
Structure prediction by ZEFSAII (Michael W. Deem and Ramdas Pophale) SiO2 
 PCOD9332037
Probable space group: I 2 2 2
;
_chemical_formula_sum "Si O2"
_cell_formula_units_Z 36
_cell_length_a 8.589050
_cell_length_b 8.580399
_cell_length_c 19.378624
_cell_angle_alpha 90.000000
_cell_angle_beta 90.000000
_cell_angle_gamma 90.000000
_cell_volume 1428.155678
_symmetry_space_group_name_H-M "I 2 2 2"
_symmetry_group_IT_number 23
_symmetry_cell_setting 'orthorhombic'
loop_
_space_group_symop_operation_xyz
x,y,z
-x,-y,z
x,-y,-z
-x,y,-z
1/2+x,1/2+y,1/2+z
1/2-x,1/2-y,1/2+z
1/2+x,1/2-y,1/2-z
1/2-x,1/2+y,1/2-z
loop_
_atom_site_type_symbol
_atom_site_label
_atom_site_fract_x
_atom_site_fract_y
_atom_site_fract_z
Si Si1 0.500000 0.500000 0.827215
Si Si2 0.783214 0.450575 0.613143
Si Si3 0.000000 0.500000 0.735883
Si Si4 0.000000 0.500000 0.500000
Si Si5 0.500000 0.000000 0.500000
Si Si6 0.274087 0.818981 0.395265
Si Si7 0.959817 0.224791 0.198449
O O1 0.636196 0.438866 0.878177
O O2 0.491564 0.634410 0.768470
O O3 0.883986 0.420715 0.681190
O O4 0.887381 0.396087 0.548895
O O5 0.769924 0.635392 0.595691
O O6 0.623488 0.368050 0.636587
O O7 0.115906 0.386269 0.777697
O O8 0.387795 0.891438 0.453158
O O9 0.379534 0.796675 0.327735
#
# Coordination Sequence:
#
# PCOD9332037 Si02
#       7
#     4   8   4   2   2   8   8
#     4  12  26  51  88 119 160 214 272 352 442 512
#     4  11  25  49  79 117 162 223 274 351 416 510
#     4  11  25  43  80 121 163 199 276 342 434 499
#     4  10  28  48  76 114 164 226 294 312 400 520
#     4  12  34  50  76 120 170 224 296 338 416 508
#     4  12  28  51  77 119 165 228 272 358 416 508
#     4  12  25  48  82 123 163 207 274 357 437 503
#
# _framework density 25.207338
#
# number of rings (size 3 to 8) (size 9 to 14) (size 15 to 20)
#    0.000    0.444    4.444    2.000    3.111    5.778 
#    0.000    0.000    0.000    0.000    0.000    0.000 
#    0.000    0.000    0.000    0.000    0.000    0.000 
#
# Total GULP energy -100328.800687 kJ/mol
# GULP energy per Si atom -5573.822260 kJ/mol
# Density = 2.514996 g / cm^3
# Si number density = 25.207338 Si / 1000 Ang^3
#
#
#
# Elastic Constant Matrix: (Units=GPa)
#
#
# Indices 1 2 3 4 5 6 
#
# 1 146.2052 77.7284 69.5427 0.0000 0.0000 0.0000
# 2 77.7284 147.3997 73.9250 0.0000 0.0000 0.0000
# 3 69.5427 73.9250 140.8106 0.0000 0.0000 0.0000
# 4 0.0000 0.0000 0.0000 17.8922 0.0000 0.0000
# 5 0.0000 0.0000 0.0000 0.0000 25.4899 0.0000
# 6 0.0000 0.0000 0.0000 0.0000 0.0000 8.4528
#
#
#
# Elastic Compliance Matrix: (Units=1/GPa)
#
#
# Indices 1 2 3 4 5 6 
#
# 1 0.010394 -0.003945 -0.003062 0.000000 0.000000 0.000000
# 2 -0.003945 0.010707 -0.003672 0.000000 0.000000 0.000000
# 3 -0.003062 -0.003672 0.010542 0.000000 0.000000 0.000000
# 4 0.000000 0.000000 0.000000 0.055890 0.000000 0.000000
# 5 0.000000 0.000000 0.000000 0.000000 0.039231 0.000000
# 6 0.000000 0.000000 0.000000 0.000000 0.000000 0.118304
#
#
# Mechanical properties :
#
#
# Convention : Reuss Voigt Hill
#
# Bulk Modulus (GPa) = 97.24855 97.42308 97.33582
# Shear Modulus (GPa) = 18.52852 24.58160 21.55506
#
# Velocity S-wave (km/s) = 2.71411 3.12617 2.92740
# Velocity P-wave (km/s) = 6.96312 7.19466 7.07984
#
# Compressibility (1/GPa) = 0.01028293
#
# Stress axis : x y z
#
# Youngs Moduli (GPa) = 96.21392 93.40086 94.85924
#
# Poissons Ratio (x) = 0.36849 0.29045
# Poissons Ratio (y) = 0.37958 0.34837
# Poissons Ratio (z) = 0.29459 0.34301
#
# Static dielectric constant tensor:
#      x y z
#    x 2.345570 0.000000 0.000000 
#    y 0.000000 0.829640 0.000000 
#    z 0.000000 0.000000 4.706720 
# 
# From -- ./inp_files/27945.got.cif
#   From: 2010.05.17/outbox.cif.g08.bks.cpg/sg23_14_cif.got.tgz:27945.got - 2010.06.04 12:02:01.
