data_PCOD9332126
_publ_section_title
;
Structure prediction by ZEFSAII (Michael W. Deem and Ramdas Pophale) SiO2 
 PCOD9332126
Probable space group: I 2 2 2
;
_chemical_formula_sum "Si O2"
_cell_formula_units_Z 40
_cell_length_a 7.554322
_cell_length_b 27.214578
_cell_length_c 10.353995
_cell_angle_alpha 90.000000
_cell_angle_beta 90.000000
_cell_angle_gamma 90.000000
_cell_volume 2128.653866
_symmetry_space_group_name_H-M "I 2 2 2"
_symmetry_group_IT_number 23
_symmetry_cell_setting 'orthorhombic'
loop_
_space_group_symop_operation_xyz
x,y,z
-x,-y,z
x,-y,-z
-x,y,-z
1/2+x,1/2+y,1/2+z
1/2-x,1/2-y,1/2+z
1/2+x,1/2-y,1/2-z
1/2-x,1/2+y,1/2-z
loop_
_atom_site_type_symbol
_atom_site_label
_atom_site_fract_x
_atom_site_fract_y
_atom_site_fract_z
Si Si1 0.294650 0.132884 0.771456
Si Si2 0.285607 0.794513 1.000000
Si Si3 0.205350 0.632884 0.271455
Si Si4 0.286139 0.681913 1.000000
Si Si5 0.000000 0.057237 0.844309
O O1 0.500001 0.121518 0.798908
O O2 0.276694 0.154722 0.628687
O O3 0.170598 0.086047 0.791456
O O4 0.233699 0.174618 0.873670
O O5 0.233698 0.825382 0.873670
O O6 0.223084 0.738514 1.000000
O O7 0.500000 0.792258 0.000000
O O8 0.329403 0.586047 0.291456
O O9 0.223306 0.654722 0.128686
O O10 0.500000 0.681630 0.000000
O O11 0.000000 0.000000 0.809047
O O12 0.000000 0.060936 0.000000
#
# Coordination Sequence:
#
# PCOD9332126 Si02
#       5
#     8   8   8   8   8
#     4  11  22  41  61  91 129 161 206 260 304 369
#     4   9  20  36  60  91 125 169 209 246 302 369
#     4  11  22  41  61  91 129 161 206 260 304 369
#     4  11  21  37  61  91 129 171 205 246 309 370
#     4  11  24  43  69  95 119 161 211 263 318 362
#
# _framework density 18.791217
#
# number of rings (size 3 to 8) (size 9 to 14) (size 15 to 20)
#    0.000    1.400    4.000    1.800    0.000    0.800 
#    7.200    4.000    0.000    2.400    0.000    0.000 
#    0.000    0.000    0.000    0.000    0.000    0.000 
#
# Total GULP energy -111812.089395 kJ/mol
# GULP energy per Si atom -5590.604470 kJ/mol
# Density = 1.874845 g / cm^3
# Si number density = 18.791217 Si / 1000 Ang^3
#
#
#
# Elastic Constant Matrix: (Units=GPa)
#
#
# Indices 1 2 3 4 5 6 
#
# 1 115.0224 68.7425 20.4746 0.0001 0.0000 0.0000
# 2 68.7425 193.4165 78.6792 0.0007 0.0000 0.0000
# 3 20.4746 78.6792 146.6843 0.0018 -0.0004 0.0000
# 4 0.0001 0.0007 0.0018 -85.4639 0.0015 -0.0003
# 5 0.0000 0.0000 -0.0004 0.0015 -49.2251 0.0000
# 6 0.0000 0.0000 0.0000 -0.0003 0.0000 41.1602
#
#
#
# Elastic Compliance Matrix: (Units=1/GPa)
#
#
# Indices 1 2 3 4 5 6 
#
# 1 0.011099 -0.004239 0.000725 0.000000 0.000000 0.000000
# 2 -0.004239 0.008232 -0.003824 0.000000 0.000000 0.000000
# 3 0.000725 -0.003824 0.008767 0.000000 0.000000 0.000000
# 4 0.000000 0.000000 0.000000 -0.011701 0.000000 0.000000
# 5 0.000000 0.000000 0.000000 0.000000 -0.020315 0.000000
# 6 0.000000 0.000000 0.000000 0.000000 0.000000 0.024295
#
#
# Mechanical properties :
#
#
# Convention : Reuss Voigt Hill
#
# Bulk Modulus (GPa) = 74.50947 87.87956 81.19451
# Shear Modulus (GPa) = 126.48933 0.44272 63.46603
#
# Velocity S-wave (km/s) = 8.21335 0.48591 5.81787
# Velocity P-wave (km/s) = 11.38784 6.86896 9.40387
#
# Compressibility (1/GPa) = 0.01342111
#
# Stress axis : x y z
#
# Youngs Moduli (GPa) = 90.10147 121.47001 114.05963
#
# Poissons Ratio (x) = 0.51496 -0.08267
# Poissons Ratio (y) = 0.38198 0.43617
# Poissons Ratio (z) = -0.06530 0.46450
#
# Static dielectric constant tensor:
#      x y z
#    x 1.684650 0.000000 0.000000 
#    y 0.000000 1.611070 0.000000 
#    z 0.000000 0.000000 1.624000 
# 
# From -- ./inp_files/6886.got.cif
#   From: 2010.05.17/outbox.cif.g08.bks.cpg/sg23_4_cif.got.tgz:6886.got - 2010.06.04 12:02:01.
