data_PCOD9332809
_publ_section_title
;
Structure prediction by ZEFSAII (Michael W. Deem and Ramdas Pophale) SiO2 
 PCOD9332809
Probable space group: I 21 21 21
;
_chemical_formula_sum "Si O2"
_cell_formula_units_Z 60
_cell_length_a 13.880480
_cell_length_b 23.150631
_cell_length_c 11.333819
_cell_angle_alpha 90.000000
_cell_angle_beta 90.000000
_cell_angle_gamma 90.000000
_cell_volume 3642.030598
_symmetry_space_group_name_H-M "I 21 21 21"
_symmetry_group_IT_number 24
_symmetry_cell_setting 'orthorhombic'
loop_
_space_group_symop_operation_xyz
x,y,z
-x,1/2-y,z
x,-y,1/2-z
1/2-x,y,-z
1/2+x,1/2+y,1/2+z
1/2-x,-y,1/2+z
1/2+x,1/2-y,-z
-x,1/2+y,1/2-z
loop_
_atom_site_type_symbol
_atom_site_label
_atom_site_fract_x
_atom_site_fract_y
_atom_site_fract_z
Si Si1 0.945238 0.574650 0.356873
Si Si2 0.027038 0.910963 0.608361
Si Si3 0.394639 0.500000 0.250000
Si Si4 0.770641 0.565453 0.707653
Si Si5 0.012820 0.316418 0.694142
Si Si6 0.346848 0.401410 0.426007
Si Si7 0.840684 0.367028 0.560839
Si Si8 0.020907 0.938900 0.096432
O O1 0.989995 0.604059 0.472095
O O2 0.830940 0.585588 0.344273
O O3 0.987781 0.587472 0.227727
O O4 0.963086 0.506821 0.384269
O O5 0.138407 0.930424 0.620776
O O6 0.008375 0.857283 0.694111
O O7 0.962650 0.963129 0.661242
O O8 0.337649 0.452323 0.327090
O O9 0.757019 0.500000 0.750000
O O10 0.802798 0.601706 0.821818
O O11 0.928706 0.327321 0.598495
O O12 0.000000 0.250000 0.726875
O O13 0.109750 0.343799 0.636548
O O14 0.250000 0.392434 0.500000
O O15 0.429897 0.424059 0.515296
O O16 0.750000 0.337273 0.500000
O O17 0.886177 0.413702 0.471299
#
# Coordination Sequence:
#
# PCOD9332809 Si02
#       8
#     8   8   4   8   8   8   8   8
#     4  11  18  27  45  76 114 144 164 197 254 323
#     4  10  19  31  49  72 108 140 173 214 258 318
#     4  10  18  34  52  74 106 142 176 212 278 320
#     4  11  17  24  43  75 112 145 162 185 240 318
#     4   9  21  37  56  77  94 136 189 225 268 316
#     4  10  21  37  57  79 108 139 182 231 268 321
#     4  10  17  30  48  73 105 135 162 212 259 304
#     4  10  19  30  45  77 116 139 167 202 253 322
#
# _framework density 16.474325
#
# number of rings (size 3 to 8) (size 9 to 14) (size 15 to 20)
#    0.000    1.867    4.667    2.000    0.000    1.600 
#    0.000    0.000    0.000    3.200    6.933    0.000 
#    0.000    0.000    0.000    0.000    0.000    0.000 
#
# Total GULP energy -167139.855032 kJ/mol
# GULP energy per Si atom -5571.328501 kJ/mol
# Density = 1.643683 g / cm^3
# Si number density = 16.474325 Si / 1000 Ang^3
#
#
#
# Elastic Constant Matrix: (Units=GPa)
#
#
# Indices 1 2 3 4 5 6 
#
# 1 64.6060 14.6094 20.4912 0.0000 0.0000 0.0000
# 2 14.6094 65.4376 13.2326 0.0000 0.0000 0.0000
# 3 20.4912 13.2326 102.3756 -0.0002 0.0002 0.0000
# 4 0.0000 0.0000 -0.0002 10.2882 0.0001 0.0000
# 5 0.0000 0.0000 0.0002 0.0001 20.5574 0.0000
# 6 0.0000 0.0000 0.0000 0.0000 0.0000 6.0750
#
#
#
# Elastic Compliance Matrix: (Units=1/GPa)
#
#
# Indices 1 2 3 4 5 6 
#
# 1 0.017165 -0.003222 -0.003019 0.000000 0.000000 0.000000
# 2 -0.003222 0.016297 -0.001462 0.000000 0.000000 0.000000
# 3 -0.003019 -0.001462 0.010561 0.000000 0.000000 0.000000
# 4 0.000000 0.000000 0.000000 0.097199 -0.000001 0.000000
# 5 0.000000 0.000000 0.000000 -0.000001 0.048644 0.000000
# 6 0.000000 0.000000 0.000000 0.000000 0.000000 0.164610
#
#
# Mechanical properties :
#
#
# Convention : Reuss Voigt Hill
#
# Bulk Modulus (GPa) = 34.94362 36.56506 35.75434
# Shear Modulus (GPa) = 13.17802 19.65651 16.41726
#
# Velocity S-wave (km/s) = 2.83134 3.45796 3.16022
# Velocity P-wave (km/s) = 5.65205 6.17954 5.92167
#
# Compressibility (1/GPa) = 0.02861753
#
# Stress axis : x y z
#
# Youngs Moduli (GPa) = 58.25965 61.36276 94.68639
#
# Poissons Ratio (x) = 0.19768 0.28588
# Poissons Ratio (y) = 0.18769 0.13839
# Poissons Ratio (z) = 0.17590 0.08969
#
# Static dielectric constant tensor:
#      x y z
#    x 1.568000 0.000000 0.000000 
#    y 0.000000 1.541040 0.000000 
#    z 0.000000 0.000000 1.600720 
# 
# From -- ./inp_files/21149.got.cif
#   From: 2010.05.17/outbox.cif.g08.bks.cpg/sg24_11_cif.got.tgz:21149.got - 2010.06.04 00:33:39.
