data_PCOD9332723
_publ_section_title
;
Structure prediction by ZEFSAII (Michael W. Deem and Ramdas Pophale) SiO2 
 PCOD9332723
Probable space group: I 21 21 21
;
_chemical_formula_sum "Si O2"
_cell_formula_units_Z 56
_cell_length_a 17.174514
_cell_length_b 8.773125
_cell_length_c 20.559538
_cell_angle_alpha 90.000000
_cell_angle_beta 90.000000
_cell_angle_gamma 90.000000
_cell_volume 3097.791080
_symmetry_space_group_name_H-M "I 21 21 21"
_symmetry_group_IT_number 24
_symmetry_cell_setting 'orthorhombic'
loop_
_space_group_symop_operation_xyz
x,y,z
-x,1/2-y,z
x,-y,1/2-z
1/2-x,y,-z
1/2+x,1/2+y,1/2+z
1/2-x,-y,1/2+z
1/2+x,1/2-y,-z
-x,1/2+y,1/2-z
loop_
_atom_site_type_symbol
_atom_site_label
_atom_site_fract_x
_atom_site_fract_y
_atom_site_fract_z
Si Si1 0.546773 0.984601 0.059060
Si Si2 0.268653 0.468998 0.922402
Si Si3 0.415659 0.286214 0.941359
Si Si4 0.622689 0.466391 0.038573
Si Si5 0.821526 0.745733 0.908379
Si Si6 0.125713 0.301883 0.856305
Si Si7 0.083377 0.171967 0.721557
O O1 0.458586 0.941361 0.046348
O O2 0.556459 0.081183 0.125194
O O3 0.613037 0.857873 0.060045
O O4 0.563596 0.108638 0.003440
O O5 0.350281 0.387570 0.906674
O O6 0.255101 0.647895 0.907710
O O7 0.203373 0.386179 0.879538
O O8 0.250000 0.444260 0.000000
O O9 0.500000 0.250000 0.909884
O O10 0.378820 0.132604 0.972694
O O11 0.687152 0.592419 0.050543
O O12 0.621825 0.346203 0.097834
O O13 0.858538 0.692999 0.839494
O O14 0.120083 0.263316 0.781736
O O15 0.000000 0.250000 0.704986
O O16 0.074421 0.000000 0.750000
#
# Coordination Sequence:
#
# PCOD9332723 Si02
#       7
#     8   8   8   8   8   8   8
#     4   9  17  29  49  71 107 142 191 223 277 326
#     4  11  20  38  51  77 111 149 193 240 297 350
#     4   9  18  35  57  75 104 144 188 241 284 357
#     4  10  16  30  47  77  99 147 187 224 275 331
#     4  11  22  31  50  76 114 152 190 240 287 325
#     4  10  20  32  52  69 109 149 196 231 280 328
#     4  12  25  36  51  80 119 161 206 241 277 337
#
# _framework density 18.077397000000001
#
# number of rings (size 3 to 8) (size 9 to 14) (size 15 to 20)
#    0.000    1.714    5.714    3.429    4.000    0.000 
#    2.571    0.000    0.000    0.000    0.000    0.000 
#    4.286    0.000    0.857    0.000    0.571    0.000 
#
# Total GULP energy -156055.207986 kJ/mol
# GULP energy per Si atom -5573.400285 kJ/mol
# Density = 1.803625 g / cm^3
# Si number density = 18.077397 Si / 1000 Ang^3
#
#
#
# Elastic Constant Matrix: (Units=GPa)
#
#
# Indices 1 2 3 4 5 6 
#
# 1 86.6500 41.3170 25.2727 0.0000 0.0000 0.0000
# 2 41.3170 93.2960 7.5779 0.0000 0.0000 0.0000
# 3 25.2727 7.5779 40.4851 0.0000 0.0000 0.0000
# 4 0.0000 0.0000 0.0000 14.5965 0.0000 0.0000
# 5 0.0000 0.0000 0.0000 0.0000 22.7676 0.0000
# 6 0.0000 0.0000 0.0000 0.0000 0.0000 26.7132
#
#
#
# Elastic Compliance Matrix: (Units=1/GPa)
#
#
# Indices 1 2 3 4 5 6 
#
# 1 0.017761 -0.007072 -0.009763 0.000000 0.000000 0.000000
# 2 -0.007072 0.013700 0.001851 0.000000 0.000000 0.000000
# 3 -0.009763 0.001851 0.030449 0.000000 0.000000 0.000000
# 4 0.000000 0.000000 0.000000 0.068509 0.000000 0.000000
# 5 0.000000 0.000000 0.000000 0.000000 0.043922 0.000000
# 6 0.000000 0.000000 0.000000 0.000000 0.000000 0.037435
#
#
# Mechanical properties :
#
#
# Convention : Reuss Voigt Hill
#
# Bulk Modulus (GPa) = 31.30921 40.97402 36.14162
# Shear Modulus (GPa) = 19.81043 22.56637 21.18840
#
# Velocity S-wave (km/s) = 3.31398 3.53699 3.42730
# Velocity P-wave (km/s) = 5.65689 6.27658 5.97478
#
# Compressibility (1/GPa) = 0.03193948
#
# Stress axis : x y z
#
# Youngs Moduli (GPa) = 56.30459 72.99089 32.84216
#
# Poissons Ratio (x) = 0.51622 0.32064
# Poissons Ratio (y) = 0.39821 -0.06077
# Poissons Ratio (z) = 0.54971 -0.13507
#
# Static dielectric constant tensor:
#      x y z
#    x 1.708150 0.000000 0.000000 
#    y 0.000000 1.695520 0.000000 
#    z 0.000000 0.000000 1.596420 
# 
# From -- ./inp_files/32905.got.cif
#   From: 2010.05.17/outbox.cif.g08.bks.cpg/sg24_17_cif.got.tgz:32905.got - 2010.06.04 00:33:39.
