data_PCOD9332198
_publ_section_title
;
Structure prediction by ZEFSAII (Michael W. Deem and Ramdas Pophale) SiO2 
 PCOD9332198
Probable space group: I 2 2 2
;
_chemical_formula_sum "Si O2"
_cell_formula_units_Z 56
_cell_length_a 22.544419
_cell_length_b 14.040037
_cell_length_c 10.143704
_cell_angle_alpha 90.000000
_cell_angle_beta 90.000000
_cell_angle_gamma 90.000000
_cell_volume 3210.730602
_symmetry_space_group_name_H-M "I 2 2 2"
_symmetry_group_IT_number 23
_symmetry_cell_setting 'orthorhombic'
loop_
_space_group_symop_operation_xyz
x,y,z
-x,-y,z
x,-y,-z
-x,y,-z
1/2+x,1/2+y,1/2+z
1/2-x,1/2-y,1/2+z
1/2+x,1/2-y,1/2-z
1/2-x,1/2+y,1/2-z
loop_
_atom_site_type_symbol
_atom_site_label
_atom_site_fract_x
_atom_site_fract_y
_atom_site_fract_z
Si Si1 0.878549 0.304960 0.254399
Si Si2 0.690913 0.882073 0.500000
Si Si3 0.500000 0.707243 0.344807
Si Si4 0.878550 0.304958 0.745601
Si Si5 0.826245 0.811101 0.500001
Si Si6 0.000000 0.000000 0.730962
Si Si7 0.934436 0.500001 0.344782
Si Si8 0.095221 0.000000 0.500000
O O1 0.840182 0.333185 0.126599
O O2 0.939373 0.249405 0.217132
O O3 0.842872 0.249047 0.368525
O O4 0.899901 0.405968 0.308217
O O5 0.659817 0.833184 0.626600
O O6 0.759158 0.849001 0.500001
O O7 0.685613 0.000000 0.500000
O O8 0.500000 0.728529 0.500000
O O9 0.439374 0.749404 0.282868
O O10 0.500001 0.594819 0.317126
O O11 0.842872 0.249045 0.631476
O O12 0.899901 0.405966 0.691782
O O13 0.866695 0.904775 0.500003
O O14 0.944678 0.000002 0.630995
O O15 0.941307 0.500000 0.500000
O O16 0.000000 0.500000 0.281238
#
# Coordination Sequence:
#
# PCOD9332198 Si02
#       8
#     8   8   8   8   8   4   8   4
#     4  12  24  41  68  96 129 171 211 265 329 388
#     4  12  26  44  67  91 130 177 220 268 315 381
#     4  12  24  40  65  95 135 166 206 269 336 384
#     4  12  24  41  68  96 129 171 211 265 329 388
#     4  12  25  45  66  93 130 173 223 265 316 381
#     4  11  23  40  64  98 127 169 212 268 326 376
#     4  11  22  36  63 103 132 160 205 262 327 394
#     4  11  22  38  70  98 118 163 234 264 304 383
#
# _framework density 17.441511999999999
#
# number of rings (size 3 to 8) (size 9 to 14) (size 15 to 20)
#    0.000    0.286    9.286    1.071    0.000    0.571 
#    0.000    2.143    0.000    0.000    0.000    0.000 
#    0.000    0.000    0.000    0.000    0.000    0.000 
#
# Total GULP energy -156319.244709 kJ/mol
# GULP energy per Si atom -5582.830168 kJ/mol
# Density = 1.740181 g / cm^3
# Si number density = 17.441512 Si / 1000 Ang^3
#
#
#
# Elastic Constant Matrix: (Units=GPa)
#
#
# Indices 1 2 3 4 5 6 
#
# 1 137.1031 62.0419 61.2897 0.0000 0.0000 0.0000
# 2 62.0419 152.7099 54.7816 0.0000 0.0000 0.0000
# 3 61.2897 54.7816 128.0588 0.0000 0.0000 0.0000
# 4 0.0000 0.0000 0.0000 29.5544 0.0000 0.0000
# 5 0.0000 0.0000 0.0000 0.0000 -61.1624 0.0000
# 6 0.0000 0.0000 0.0000 0.0000 0.0000 34.3422
#
#
#
# Elastic Compliance Matrix: (Units=1/GPa)
#
#
# Indices 1 2 3 4 5 6 
#
# 1 0.010220 -0.002832 -0.003680 0.000000 0.000000 0.000000
# 2 -0.002832 0.008520 -0.002289 0.000000 0.000000 0.000000
# 3 -0.003680 -0.002289 0.010550 0.000000 0.000000 0.000000
# 4 0.000000 0.000000 0.000000 0.033836 0.000000 0.000000
# 5 0.000000 0.000000 0.000000 0.000000 -0.016350 0.000000
# 6 0.000000 0.000000 0.000000 0.000000 0.000000 0.029119
#
#
# Mechanical properties :
#
#
# Convention : Reuss Voigt Hill
#
# Bulk Modulus (GPa) = 85.56365 86.01090 85.78728
# Shear Modulus (GPa) = 51.33795 16.53074 33.93435
#
# Velocity S-wave (km/s) = 5.43123 3.08195 4.41569
# Velocity P-wave (km/s) = 9.40718 7.87943 8.67699
#
# Compressibility (1/GPa) = 0.01168721
#
# Stress axis : x y z
#
# Youngs Moduli (GPa) = 97.84267 117.36742 94.79087
#
# Poissons Ratio (x) = 0.33240 0.34883
# Poissons Ratio (y) = 0.27711 0.21701
# Poissons Ratio (z) = 0.36006 0.26869
#
# Static dielectric constant tensor:
#      x y z
#    x 1.598440 0.000000 0.000000 
#    y 0.000000 1.557170 0.000000 
#    z 0.000000 0.000000 1.599990 
# 
# From -- ./inp_files/12103.got.cif
#   From: 2010.05.17/outbox.cif.g08.bks.cpg/sg23_7_cif.got.tgz:12103.got - 2010.06.04 12:02:01.
