data_PCOD9332231
_publ_section_title
;
Structure prediction by ZEFSAII (Michael W. Deem and Ramdas Pophale) SiO2 
 PCOD9332231
Probable space group: I 2 2 2
;
_chemical_formula_sum "Si O2"
_cell_formula_units_Z 48
_cell_length_a 26.915046
_cell_length_b 15.203781
_cell_length_c 5.319198
_cell_angle_alpha 90.000000
_cell_angle_beta 90.000000
_cell_angle_gamma 90.000000
_cell_volume 2176.671487
_symmetry_space_group_name_H-M "I 2 2 2"
_symmetry_group_IT_number 23
_symmetry_cell_setting 'orthorhombic'
loop_
_space_group_symop_operation_xyz
x,y,z
-x,-y,z
x,-y,-z
-x,y,-z
1/2+x,1/2+y,1/2+z
1/2-x,1/2-y,1/2+z
1/2+x,1/2-y,1/2-z
1/2-x,1/2+y,1/2-z
loop_
_atom_site_type_symbol
_atom_site_label
_atom_site_fract_x
_atom_site_fract_y
_atom_site_fract_z
Si Si1 0.185595 0.728713 0.820517
Si Si2 0.154997 0.000000 0.500000
Si Si3 0.722298 0.368301 0.682390
Si Si4 0.055871 0.246504 0.895978
Si Si5 0.619407 0.087754 0.605250
Si Si6 0.305558 0.000000 0.000000
Si Si7 0.105549 0.175440 0.405565
O O1 0.243255 0.700753 0.830719
O O2 0.156474 0.765289 0.574391
O O3 0.186571 0.813695 0.001669
O O4 0.154295 0.645215 0.918402
O O5 0.190714 0.941608 0.325487
O O6 0.120690 0.925863 0.623201
O O7 0.767104 0.421616 0.554025
O O8 0.078152 0.341668 0.818953
O O9 0.070257 0.189516 0.648262
O O10 0.082788 0.210057 0.145963
O O11 0.000000 0.252122 0.000000
O O12 0.593917 0.000000 0.500000
O O13 0.657744 0.044808 0.800319
#
# Coordination Sequence:
#
# PCOD9332231 Si02
#       7
#     8   4   8   8   8   4   8
#     4  11  22  40  60 100 142 201 238 286 340 404
#     4  12  24  42  67 104 140 188 237 294 340 404
#     4  12  22  36  63  97 142 195 249 278 325 412
#     4  11  26  49  77 101 132 176 230 289 371 447
#     4  11  23  41  66  96 138 180 231 293 354 406
#     4  12  22  38  62 101 144 188 239 292 338 398
#     4  11  25  47  72 102 143 177 226 293 360 416
#
# _framework density 22.052019000000001
#
# number of rings (size 3 to 8) (size 9 to 14) (size 15 to 20)
#    0.000    0.667    1.667    7.500    2.333    2.333 
#    0.000    2.500    0.000    0.000    0.000    0.000 
#    0.000    0.000    0.000    0.000    0.000    0.000 
#
# Total GULP energy -133886.517554 kJ/mol
# GULP energy per Si atom -5578.604898 kJ/mol
# Density = 2.200183 g / cm^3
# Si number density = 22.052019 Si / 1000 Ang^3
#
#
#
# Elastic Constant Matrix: (Units=GPa)
#
#
# Indices 1 2 3 4 5 6 
#
# 1 112.0006 51.9670 24.8315 0.0000 0.0000 0.0000
# 2 51.9670 158.1631 46.8096 0.0000 0.0000 0.0000
# 3 24.8315 46.8096 76.7540 0.0000 0.0000 0.0000
# 4 0.0000 0.0000 0.0000 45.0322 0.0000 0.0000
# 5 0.0000 0.0000 0.0000 0.0000 31.2283 0.0000
# 6 0.0000 0.0000 0.0000 0.0000 0.0000 10.4444
#
#
#
# Elastic Compliance Matrix: (Units=1/GPa)
#
#
# Indices 1 2 3 4 5 6 
#
# 1 0.010695 -0.003038 -0.001607 0.000000 0.000000 0.000000
# 2 -0.003038 0.008578 -0.004249 0.000000 0.000000 0.000000
# 3 -0.001607 -0.004249 0.016140 0.000000 0.000000 0.000000
# 4 0.000000 0.000000 0.000000 0.022206 0.000000 0.000000
# 5 0.000000 0.000000 0.000000 0.000000 0.032022 0.000000
# 6 0.000000 0.000000 0.000000 0.000000 0.000000 0.095745
#
#
# Mechanical properties :
#
#
# Convention : Reuss Voigt Hill
#
# Bulk Modulus (GPa) = 56.73866 66.01488 61.37677
# Shear Modulus (GPa) = 23.91787 32.22827 28.07307
#
# Velocity S-wave (km/s) = 3.29692 3.82706 3.57184
# Velocity P-wave (km/s) = 6.34651 7.03772 6.70103
#
# Compressibility (1/GPa) = 0.01762467
#
# Stress axis : x y z
#
# Youngs Moduli (GPa) = 93.50579 116.57346 61.95927
#
# Poissons Ratio (x) = 0.35418 0.09957
# Poissons Ratio (y) = 0.28410 0.26324
# Poissons Ratio (z) = 0.15026 0.49528
#
# Static dielectric constant tensor:
#      x y z
#    x 1.852570 0.000000 0.000000 
#    y 0.000000 1.873820 0.000000 
#    z 0.000000 0.000000 1.970360 
# 
# From -- ./inp_files/4919.got.cif
#   From: 2010.05.17/outbox.cif.g08.bks.cpg/sg23_3_cif.got.tgz:4919.got - 2010.06.04 12:02:01.
