data_PCOD9332812
_publ_section_title
;
Structure prediction by ZEFSAII (Michael W. Deem and Ramdas Pophale) SiO2 
 PCOD9332812
Probable space group: I 21 21 21
;
_chemical_formula_sum "Si O2"
_cell_formula_units_Z 60
_cell_length_a 11.223899
_cell_length_b 19.185819
_cell_length_c 11.799334
_cell_angle_alpha 90.000000
_cell_angle_beta 90.000000
_cell_angle_gamma 90.000000
_cell_volume 2540.864981
_symmetry_space_group_name_H-M "I 21 21 21"
_symmetry_group_IT_number 24
_symmetry_cell_setting 'orthorhombic'
loop_
_space_group_symop_operation_xyz
x,y,z
-x,1/2-y,z
x,-y,1/2-z
1/2-x,y,-z
1/2+x,1/2+y,1/2+z
1/2-x,-y,1/2+z
1/2+x,1/2-y,-z
-x,1/2+y,1/2-z
loop_
_atom_site_type_symbol
_atom_site_label
_atom_site_fract_x
_atom_site_fract_y
_atom_site_fract_z
Si Si1 0.013226 0.432115 0.495105
Si Si2 0.479851 0.081488 0.261088
Si Si3 0.365376 0.782608 0.661684
Si Si4 0.250000 0.659576 0.000000
Si Si5 0.411719 0.422827 0.907424
Si Si6 0.367312 0.075018 0.733840
Si Si7 0.963523 0.325508 0.929058
Si Si8 0.269239 0.657629 0.257443
O O1 0.938655 0.416380 0.609094
O O2 0.125537 0.381541 0.499048
O O3 0.080816 0.506560 0.479996
O O4 0.927549 0.424178 0.388853
O O5 0.410729 0.117496 0.157625
O O6 0.599816 0.126827 0.248706
O O7 0.506056 0.000000 0.250000
O O8 0.500000 0.750000 0.690777
O O9 0.326500 0.846306 0.741974
O O10 0.378711 0.809531 0.534466
O O11 0.268020 0.722924 0.668296
O O12 0.255677 0.686696 0.870303
O O13 0.527438 0.428810 0.827603
O O14 0.309669 0.404334 0.816057
O O15 0.427606 0.362583 0.001364
O O16 0.299238 0.000000 0.750000
O O17 0.000000 0.250000 0.880090
#
# Coordination Sequence:
#
# PCOD9332812 Si02
#       8
#     8   8   8   4   8   8   8   8
#     4  10  19  30  45  75 108 149 187 233 290 364
#     4  11  24  35  50  85 127 160 186 239 324 375
#     4  10  17  35  54  78 107 153 204 260 287 346
#     4  10  20  30  44  76 120 152 186 228 304 384
#     4  10  17  30  52  73 108 147 197 244 280 349
#     4   9  17  29  52  78 101 138 196 246 286 335
#     4  10  19  37  53  76 109 155 210 251 285 350
#     4  11  21  33  51  82 117 161 200 244 313 373
#
# _framework density 23.614007000000001
#
# number of rings (size 3 to 8) (size 9 to 14) (size 15 to 20)
#    0.000    1.867    6.667    0.000    3.733    0.533 
#    0.000    3.333    0.000    0.000    0.000    0.933 
#    4.000    0.000    0.000    0.000    0.000    0.000 
#
# Total GULP energy -167085.885973 kJ/mol
# GULP energy per Si atom -5569.529532 kJ/mol
# Density = 2.356026 g / cm^3
# Si number density = 23.614007 Si / 1000 Ang^3
#
#
#
# Elastic Constant Matrix: (Units=GPa)
#
#
# Indices 1 2 3 4 5 6 
#
# 1 45.3385 15.3688 8.1286 -0.0001 0.0000 0.0000
# 2 15.3688 139.2492 58.6956 -0.0005 0.0001 0.0001
# 3 8.1286 58.6956 162.9677 -0.0009 0.0001 0.0003
# 4 -0.0001 -0.0005 -0.0009 44.2977 0.0001 0.0002
# 5 0.0000 0.0001 0.0001 0.0001 14.1385 -0.0001
# 6 0.0000 0.0001 0.0003 0.0002 -0.0001 1.4313
#
#
#
# Elastic Compliance Matrix: (Units=1/GPa)
#
#
# Indices 1 2 3 4 5 6 
#
# 1 0.022924 -0.002415 -0.000274 0.000000 0.000000 0.000000
# 2 -0.002415 0.008721 -0.003021 0.000000 0.000000 0.000000
# 3 -0.000274 -0.003021 0.007238 0.000000 0.000000 -0.000001
# 4 0.000000 0.000000 0.000000 0.022575 0.000000 -0.000004
# 5 0.000000 0.000000 0.000000 0.000000 0.070729 0.000003
# 6 0.000000 0.000000 -0.000001 -0.000004 0.000003 0.698674
#
#
# Mechanical properties :
#
#
# Convention : Reuss Voigt Hill
#
# Bulk Modulus (GPa) = 36.41037 56.88239 46.64638
# Shear Modulus (GPa) = 5.87246 29.66433 17.76839
#
# Velocity S-wave (km/s) = 1.57869 3.54816 2.74606
# Velocity P-wave (km/s) = 4.33306 6.39739 5.46361
#
# Compressibility (1/GPa) = 0.02746470
#
# Stress axis : x y z
#
# Youngs Moduli (GPa) = 43.62255 114.66424 138.16415
#
# Poissons Ratio (x) = 0.27688 0.03782
# Poissons Ratio (y) = 0.10534 0.41734
# Poissons Ratio (z) = 0.01194 0.34636
#
# Static dielectric constant tensor:
#      x y z
#    x 2.035850 0.000000 0.000000 
#    y 0.000000 1.973520 0.000000 
#    z 0.000000 0.000000 1.994810 
# 
# From -- ./inp_files/21023.got.cif
#   From: 2010.05.17/outbox.cif.g08.bks.cpg/sg24_11_cif.got.tgz:21023.got - 2010.06.04 00:33:39.
