data_PCOD9332399
_publ_section_title
;
Structure prediction by ZEFSAII (Michael W. Deem and Ramdas Pophale) SiO2 
 PCOD9332399
Probable space group: I 2 2 2
;
_chemical_formula_sum "Si O2"
_cell_formula_units_Z 32
_cell_length_a 11.089672
_cell_length_b 12.206185
_cell_length_c 11.227494
_cell_angle_alpha 90.000000
_cell_angle_beta 90.000000
_cell_angle_gamma 90.000000
_cell_volume 1519.782645
_symmetry_space_group_name_H-M "I 2 2 2"
_symmetry_group_IT_number 23
_symmetry_cell_setting 'orthorhombic'
loop_
_space_group_symop_operation_xyz
x,y,z
-x,-y,z
x,-y,-z
-x,y,-z
1/2+x,1/2+y,1/2+z
1/2-x,1/2-y,1/2+z
1/2+x,1/2-y,1/2-z
1/2-x,1/2+y,1/2-z
loop_
_atom_site_type_symbol
_atom_site_label
_atom_site_fract_x
_atom_site_fract_y
_atom_site_fract_z
Si Si1 0.000000 0.680086 0.000000
Si Si2 0.065948 0.603663 0.371689
Si Si3 0.694005 0.463589 0.252112
Si Si4 0.688988 0.000000 0.500000
Si Si5 0.547380 0.321292 0.723349
O O1 0.104533 0.599134 0.955218
O O2 0.946941 0.757228 0.899754
O O3 0.205486 0.572056 0.348571
O O4 0.051766 0.724197 0.318736
O O5 0.000000 0.500000 0.307881
O O6 0.000000 0.607818 0.500000
O O7 0.652083 0.588932 0.268263
O O8 0.577862 0.386718 0.266928
O O9 0.739881 0.456821 0.115414
#
# Coordination Sequence:
#
# PCOD9332399 Si02
#       5
#     4   8   8   4   8
#     4  11  24  43  70 100 148 195 231 296 364 432
#     4  11  26  46  74 106 147 186 244 295 363 425
#     4  11  27  46  72 111 145 190 246 299 359 437
#     4  11  24  43  74 102 148 187 243 296 352 432
#     4  11  27  46  73 109 147 194 239 295 373 422
#
# _framework density 21.055643
#
# number of rings (size 3 to 8) (size 9 to 14) (size 15 to 20)
#    0.000    1.000    2.500    1.500   10.500    7.000 
#    0.000    0.000    0.000    0.000    0.000    0.000 
#    0.000    0.000    0.000    0.000    0.000    0.000 
#
# Total GULP energy -89337.666671 kJ/mol
# GULP energy per Si atom -5583.604167 kJ/mol
# Density = 2.100772 g / cm^3
# Si number density = 21.055643 Si / 1000 Ang^3
#
#
#
# Elastic Constant Matrix: (Units=GPa)
#
#
# Indices 1 2 3 4 5 6 
#
# 1 98.6204 46.6297 33.1429 0.0000 0.0000 0.0000
# 2 46.6297 173.0700 37.5280 0.0000 0.0000 0.0000
# 3 33.1429 37.5280 103.3797 0.0000 0.0000 0.0000
# 4 0.0000 0.0000 0.0000 59.8615 0.0000 0.0000
# 5 0.0000 0.0000 0.0000 0.0000 22.6674 0.0000
# 6 0.0000 0.0000 0.0000 0.0000 0.0000 26.0677
#
#
#
# Elastic Compliance Matrix: (Units=1/GPa)
#
#
# Indices 1 2 3 4 5 6 
#
# 1 0.012424 -0.002696 -0.003004 0.000000 0.000000 0.000000
# 2 -0.002696 0.006857 -0.001625 0.000000 0.000000 0.000000
# 3 -0.003004 -0.001625 0.011226 0.000000 0.000000 0.000000
# 4 0.000000 0.000000 0.000000 0.016705 0.000000 0.000000
# 5 0.000000 0.000000 0.000000 0.000000 0.044116 0.000000
# 6 0.000000 0.000000 0.000000 0.000000 0.000000 0.038362
#
#
# Mechanical properties :
#
#
# Convention : Reuss Voigt Hill
#
# Bulk Modulus (GPa) = 63.06487 67.74127 65.40307
# Shear Modulus (GPa) = 33.41661 38.90395 36.16028
#
# Velocity S-wave (km/s) = 3.98812 4.30312 4.14861
# Velocity P-wave (km/s) = 7.15705 7.54529 7.35373
#
# Compressibility (1/GPa) = 0.01585669
#
# Stress axis : x y z
#
# Youngs Moduli (GPa) = 80.48748 145.84328 89.07808
#
# Poissons Ratio (x) = 0.39319 0.26763
# Poissons Ratio (y) = 0.21699 0.14473
# Poissons Ratio (z) = 0.24182 0.23696
#
# Static dielectric constant tensor:
#      x y z
#    x 1.738760 0.000000 0.000000 
#    y 0.000000 1.674040 0.000000 
#    z 0.000000 0.000000 1.662870 
# 
# From -- ./inp_files/15293.got.cif
#   From: 2010.05.17/outbox.cif.g08.bks.cpg/sg23_8_cif.got.tgz:15293.got - 2010.06.04 12:02:01.
