data_PCOD9332004
_publ_section_title
;
Structure prediction by ZEFSAII (Michael W. Deem and Ramdas Pophale) SiO2 
 PCOD9332004
Probable space group: I 2 2 2
;
_chemical_formula_sum "Si O2"
_cell_formula_units_Z 34
_cell_length_a 6.050343
_cell_length_b 14.005972
_cell_length_c 16.809376
_cell_angle_alpha 90.000000
_cell_angle_beta 90.000000
_cell_angle_gamma 90.000000
_cell_volume 1424.442233
_symmetry_space_group_name_H-M "I 2 2 2"
_symmetry_group_IT_number 23
_symmetry_cell_setting 'orthorhombic'
loop_
_space_group_symop_operation_xyz
x,y,z
-x,-y,z
x,-y,-z
-x,y,-z
1/2+x,1/2+y,1/2+z
1/2-x,1/2-y,1/2+z
1/2+x,1/2-y,1/2-z
1/2-x,1/2+y,1/2-z
loop_
_atom_site_type_symbol
_atom_site_label
_atom_site_fract_x
_atom_site_fract_y
_atom_site_fract_z
Si Si1 0.000000 0.318918 0.000000
Si Si2 0.654146 0.149785 0.795910
Si Si3 0.000000 0.000000 0.243847
Si Si4 0.000000 0.000000 0.000000
Si Si5 0.688606 0.157071 0.066631
Si Si6 0.329257 0.861195 0.337687
O O1 0.136923 0.373189 0.067959
O O2 0.837054 0.250353 0.051228
O O3 0.437969 0.142967 0.851092
O O4 0.563672 0.132760 0.707376
O O5 0.746885 0.254112 0.816386
O O6 0.844202 0.071556 0.806303
O O7 0.156920 0.934233 0.298946
O O8 0.156484 0.068274 0.949983
O O9 0.500000 0.159533 0.000000
#
# Coordination Sequence:
#
# PCOD9332004 Si02
#       6
#     4   8   4   2   8   8
#     4  11  26  49  81 113 154 214 258 318 398 456
#     4  12  26  51  81 114 156 210 261 329 395 465
#     4  12  30  51  83 119 153 212 266 324 395 473
#     4  10  26  42  64 116 166 198 252 334 390 476
#     4  11  24  45  73 110 156 207 257 322 397 467
#     4  12  26  52  82 113 161 205 265 327 396 466
#
# _framework density 23.868991999999999
#
# number of rings (size 3 to 8) (size 9 to 14) (size 15 to 20)
#    0.000    0.471    4.706    2.471    0.000    5.647 
#    0.000    3.529    0.000    0.000    0.000    0.000 
#    0.000    0.000    0.000    0.000    0.000    0.000 
#
# Total GULP energy -95314.576168 kJ/mol
# GULP energy per Si atom -5606.739775 kJ/mol
# Density = 2.381466 g / cm^3
# Si number density = 23.868992 Si / 1000 Ang^3
#
#
#
# Elastic Constant Matrix: (Units=GPa)
#
#
# Indices 1 2 3 4 5 6 
#
# 1 116.6089 51.5658 32.1915 0.0000 0.0000 0.0000
# 2 51.5658 105.1487 27.6778 0.0000 0.0000 0.0000
# 3 32.1915 27.6778 119.3845 0.0000 0.0000 0.0000
# 4 0.0000 0.0000 0.0000 23.3277 0.0000 0.0000
# 5 0.0000 0.0000 0.0000 0.0000 55.5651 0.0000
# 6 0.0000 0.0000 0.0000 0.0000 0.0000 22.9067
#
#
#
# Elastic Compliance Matrix: (Units=1/GPa)
#
#
# Indices 1 2 3 4 5 6 
#
# 1 0.011334 -0.005063 -0.001882 0.000000 0.000000 0.000000
# 2 -0.005063 0.012390 -0.001507 0.000000 0.000000 0.000000
# 3 -0.001882 -0.001507 0.009233 0.000000 0.000000 0.000000
# 4 0.000000 0.000000 0.000000 0.042868 0.000000 0.000000
# 5 0.000000 0.000000 0.000000 0.000000 0.017997 0.000000
# 6 0.000000 0.000000 0.000000 0.000000 0.000000 0.043655
#
#
# Mechanical properties :
#
#
# Convention : Reuss Voigt Hill
#
# Bulk Modulus (GPa) = 62.29637 62.66802 62.48220
# Shear Modulus (GPa) = 31.30215 35.67369 33.48792
#
# Velocity S-wave (km/s) = 3.62528 3.87015 3.74971
# Velocity P-wave (km/s) = 6.60904 6.80314 6.70679
#
# Compressibility (1/GPa) = 0.01605230
#
# Stress axis : x y z
#
# Youngs Moduli (GPa) = 88.22839 80.71037 108.30323
#
# Poissons Ratio (x) = 0.40863 0.20388
# Poissons Ratio (y) = 0.44669 0.16324
# Poissons Ratio (z) = 0.16609 0.12165
#
# Static dielectric constant tensor:
#      x y z
#    x 1.940390 0.000000 0.000000 
#    y 0.000000 1.897790 0.000000 
#    z 0.000000 0.000000 1.986670 
# 
# From -- ./inp_files/2231.got.cif
#   From: 2010.05.17/outbox.cif.g08.bks.cpg/sg23_2_cif.got.tgz:2231.got - 2010.06.04 12:02:01.
