data_PCOD9332013
_publ_section_title
;
Structure prediction by ZEFSAII (Michael W. Deem and Ramdas Pophale) SiO2 
 PCOD9332013
Probable space group: I 2 2 2
;
_chemical_formula_sum "Si O2"
_cell_formula_units_Z 40
_cell_length_a 13.599230
_cell_length_b 6.439708
_cell_length_c 21.881779
_cell_angle_alpha 90.000000
_cell_angle_beta 90.000000
_cell_angle_gamma 90.000000
_cell_volume 1916.298333
_symmetry_space_group_name_H-M "I 2 2 2"
_symmetry_group_IT_number 23
_symmetry_cell_setting 'orthorhombic'
loop_
_space_group_symop_operation_xyz
x,y,z
-x,-y,z
x,-y,-z
-x,y,-z
1/2+x,1/2+y,1/2+z
1/2-x,1/2-y,1/2+z
1/2+x,1/2-y,1/2-z
1/2-x,1/2+y,1/2-z
loop_
_atom_site_type_symbol
_atom_site_label
_atom_site_fract_x
_atom_site_fract_y
_atom_site_fract_z
Si Si1 0.630269 0.834219 0.303582
Si Si2 0.327078 0.204723 0.606641
Si Si3 0.696381 0.500000 0.000000
Si Si4 0.500000 0.500000 0.366961
Si Si5 0.604097 0.117164 0.056227
Si Si6 0.303891 0.986943 0.183293
O O1 0.547483 0.672315 0.322941
O O2 0.728473 0.693951 0.298143
O O3 0.635375 0.000058 0.358340
O O4 0.626231 0.950186 0.238961
O O5 0.266835 0.125450 0.547383
O O6 0.414717 0.374358 0.596119
O O7 0.256174 0.317642 0.655791
O O8 0.622760 0.352799 0.037729
O O9 0.642689 0.094492 0.123660
O O10 0.500000 0.000000 0.058054
O O11 0.658715 0.000000 0.000000
#
# Coordination Sequence:
#
# PCOD9332013 Si02
#       6
#     8   8   4   4   8   8
#     4  11  22  43  70 105 135 179 230 281 351 411
#     4  11  23  44  71  99 139 181 234 280 352 411
#     4  12  24  47  79  96 138 196 222 289 361 406
#     4  10  26  44  69 102 142 177 230 302 328 426
#     4  11  25  44  67 104 138 175 233 289 335 415
#     4  11  22  42  71 100 137 181 224 277 349 415
#
# _framework density 20.873577000000001
#
# number of rings (size 3 to 8) (size 9 to 14) (size 15 to 20)
#    0.000    1.000    6.000    0.600    0.000    3.200 
#    3.600    3.000    0.000    0.000    0.000    0.000 
#    0.000    0.000    0.000    0.000    0.000    0.000 
#
# Total GULP energy -111517.300592 kJ/mol
# GULP energy per Si atom -5575.865030 kJ/mol
# Density = 2.082607 g / cm^3
# Si number density = 20.873577 Si / 1000 Ang^3
#
#
#
# Elastic Constant Matrix: (Units=GPa)
#
#
# Indices 1 2 3 4 5 6 
#
# 1 86.2457 58.2100 41.5781 0.0000 0.0000 0.0000
# 2 58.2100 125.3912 45.8827 0.0000 0.0000 0.0000
# 3 41.5781 45.8827 117.5023 0.0000 0.0000 0.0000
# 4 0.0000 0.0000 0.0000 40.3552 0.0000 0.0000
# 5 0.0000 0.0000 0.0000 0.0000 5.3867 0.0000
# 6 0.0000 0.0000 0.0000 0.0000 0.0000 17.0290
#
#
#
# Elastic Compliance Matrix: (Units=1/GPa)
#
#
# Indices 1 2 3 4 5 6 
#
# 1 0.018136 -0.007083 -0.003652 0.000000 0.000000 0.000000
# 2 -0.007083 0.012071 -0.002207 0.000000 0.000000 0.000000
# 3 -0.003652 -0.002207 0.010664 0.000000 0.000000 0.000000
# 4 0.000000 0.000000 0.000000 0.024780 0.000000 0.000000
# 5 0.000000 0.000000 0.000000 0.000000 0.185643 0.000000
# 6 0.000000 0.000000 0.000000 0.000000 0.000000 0.058724
#
#
# Mechanical properties :
#
#
# Convention : Reuss Voigt Hill
#
# Bulk Modulus (GPa) = 66.72159 68.94229 67.83194
# Shear Modulus (GPa) = 14.66721 24.78539 19.72630
#
# Velocity S-wave (km/s) = 2.65367 3.44961 3.07748
# Velocity P-wave (km/s) = 6.43609 6.99762 6.72272
#
# Compressibility (1/GPa) = 0.01498765
#
# Stress axis : x y z
#
# Youngs Moduli (GPa) = 55.14012 82.84498 93.76979
#
# Poissons Ratio (x) = 0.58678 0.34240
# Poissons Ratio (y) = 0.39055 0.20696
# Poissons Ratio (z) = 0.20135 0.18285
#
# Static dielectric constant tensor:
#      x y z
#    x 1.802630 0.000000 0.000000 
#    y 0.000000 1.733230 0.000000 
#    z 0.000000 0.000000 1.732080 
# 
# From -- ./inp_files/28478.got.cif
#   From: 2010.05.17/outbox.cif.g08.bks.cpg/sg23_15_cif.got.tgz:28478.got - 2010.06.04 12:02:01.
