data_PCOD9332403
_publ_section_title
;
Structure prediction by ZEFSAII (Michael W. Deem and Ramdas Pophale) SiO2 
 PCOD9332403
Probable space group: I 2 2 2
;
_chemical_formula_sum "Si O2"
_cell_formula_units_Z 30
_cell_length_a 6.972583
_cell_length_b 22.283980
_cell_length_c 8.510945
_cell_angle_alpha 90.000000
_cell_angle_beta 90.000000
_cell_angle_gamma 90.000000
_cell_volume 1322.404251
_symmetry_space_group_name_H-M "I 2 2 2"
_symmetry_group_IT_number 23
_symmetry_cell_setting 'orthorhombic'
loop_
_space_group_symop_operation_xyz
x,y,z
-x,-y,z
x,-y,-z
-x,y,-z
1/2+x,1/2+y,1/2+z
1/2-x,1/2-y,1/2+z
1/2+x,1/2-y,1/2-z
1/2-x,1/2+y,1/2-z
loop_
_atom_site_type_symbol
_atom_site_label
_atom_site_fract_x
_atom_site_fract_y
_atom_site_fract_z
Si Si1 0.000000 0.500000 0.500000
Si Si2 0.239109 0.824483 0.251378
Si Si3 0.000000 0.744650 0.500000
Si Si4 0.148782 0.948502 0.185561
Si Si5 0.742448 0.000000 0.500000
Si Si6 0.500000 0.895220 0.500000
O O1 0.147149 0.539156 0.603641
O O2 0.110182 0.877986 0.176328
O O3 0.394461 0.855329 0.370229
O O4 0.114432 0.783319 0.368434
O O5 0.349398 0.792471 0.107798
O O6 0.158880 0.960792 0.370643
O O7 0.000000 0.000000 0.140874
O O8 0.629585 0.945911 0.411222
#
# Coordination Sequence:
#
# PCOD9332403 Si02
#       6
#     2   8   4   8   4   4
#     4  12  24  46  60 110 152 184 222 296 402 420
#     4  11  25  45  73 103 145 192 252 304 361 444
#     4  12  27  50  69 107 142 203 250 302 362 434
#     4  11  24  43  72 108 141 188 235 306 373 445
#     4   9  19  36  70 104 142 174 231 281 378 441
#     4   9  18  38  68 106 138 188 225 310 364 438
#
# _framework density 22.685950999999999
#
# number of rings (size 3 to 8) (size 9 to 14) (size 15 to 20)
#    0.000    1.333    0.000    6.400    7.467    0.000 
#   14.400    0.000    0.000    0.000    0.000    0.000 
#    0.000    0.000    0.000    0.000    0.000    0.000 
#
# Total GULP energy -83513.574805 kJ/mol
# GULP energy per Si atom -5567.571654 kJ/mol
# Density = 2.263432 g / cm^3
# Si number density = 22.685951 Si / 1000 Ang^3
#
#
#
# Elastic Constant Matrix: (Units=GPa)
#
#
# Indices 1 2 3 4 5 6 
#
# 1 87.8322 70.7003 47.0596 0.0000 -0.0001 -0.0003
# 2 70.7003 176.0861 72.8899 0.0000 0.0000 -0.0002
# 3 47.0596 72.8899 133.6672 0.0007 0.0006 -0.0026
# 4 0.0000 0.0000 0.0007 89.9492 0.0000 -0.0006
# 5 -0.0001 0.0000 0.0006 0.0000 44.1686 -0.0001
# 6 -0.0003 -0.0002 -0.0026 -0.0006 -0.0001 177.1619
#
#
#
# Elastic Compliance Matrix: (Units=1/GPa)
#
#
# Indices 1 2 3 4 5 6 
#
# 1 0.017735 -0.005859 -0.003049 0.000000 0.000000 0.000000
# 2 -0.005859 0.009270 -0.002992 0.000000 0.000000 0.000000
# 3 -0.003049 -0.002992 0.010187 0.000000 0.000000 0.000000
# 4 0.000000 0.000000 0.000000 0.011117 0.000000 0.000000
# 5 0.000000 0.000000 0.000000 0.000000 0.022641 0.000000
# 6 0.000000 0.000000 0.000000 0.000000 0.000000 0.005645
#
#
# Mechanical properties :
#
#
# Convention : Reuss Voigt Hill
#
# Bulk Modulus (GPa) = 74.67569 86.54280 80.60925
# Shear Modulus (GPa) = 47.68363 76.05165 61.86764
#
# Velocity S-wave (km/s) = 4.58962 5.79624 5.22786
# Velocity P-wave (km/s) = 7.81504 9.11188 8.48826
#
# Compressibility (1/GPa) = 0.01339124
#
# Stress axis : x y z
#
# Youngs Moduli (GPa) = 56.38610 107.87475 98.16874
#
# Poissons Ratio (x) = 0.63199 0.29933
# Poissons Ratio (y) = 0.33034 0.29376
# Poissons Ratio (z) = 0.17193 0.32281
#
# Static dielectric constant tensor:
#      x y z
#    x 2.143050 0.000000 0.000000 
#    y 0.000000 1.878490 0.000000 
#    z 0.000000 0.000000 1.809250 
# 
# From -- ./inp_files/6659.got.cif
#   From: 2010.05.17/outbox.cif.g08.bks.cpg/sg23_4_cif.got.tgz:6659.got - 2010.06.04 12:02:01.
