data_PCOD9332611
_publ_section_title
;
Structure prediction by ZEFSAII (Michael W. Deem and Ramdas Pophale) SiO2 
 PCOD9332611
Probable space group: I 2 2 2
;
_chemical_formula_sum "Si O2"
_cell_formula_units_Z 20
_cell_length_a 15.776549
_cell_length_b 9.086796
_cell_length_c 4.938003
_cell_angle_alpha 90.000000
_cell_angle_beta 90.000000
_cell_angle_gamma 90.000000
_cell_volume 707.903628
_symmetry_space_group_name_H-M "I 2 2 2"
_symmetry_group_IT_number 23
_symmetry_cell_setting 'orthorhombic'
loop_
_space_group_symop_operation_xyz
x,y,z
-x,-y,z
x,-y,-z
-x,y,-z
1/2+x,1/2+y,1/2+z
1/2-x,1/2-y,1/2+z
1/2+x,1/2-y,1/2-z
1/2-x,1/2+y,1/2-z
loop_
_atom_site_type_symbol
_atom_site_label
_atom_site_fract_x
_atom_site_fract_y
_atom_site_fract_z
Si Si1 0.391333 0.764274 0.657563
Si Si2 0.000000 0.500000 0.500000
Si Si3 0.000000 0.000000 0.000000
Si Si4 0.219857 0.389766 0.246670
O O1 0.442750 0.613092 0.667081
O O2 0.298702 0.721396 0.767626
O O3 0.367292 0.807980 0.345511
O O4 0.442505 0.893276 0.807424
O O5 0.221696 0.500000 0.500000
O O6 0.232641 0.500000 0.000000
#
# Coordination Sequence:
#
# PCOD9332611 Si02
#       4
#     8   2   2   8
#     4  12  32  60  96 141 195 254 326 388 493 560
#     4  12  36  58 102 148 198 248 310 420 482 568
#     4  12  32  58  88 144 190 252 310 416 482 556
#     4  12  30  57  99 136 185 261 326 389 460 595
#
# _framework density 28.252431999999999
#
# number of rings (size 3 to 8) (size 9 to 14) (size 15 to 20)
#    0.000    0.000    2.000    2.400   19.600    0.000 
#    0.000    1.000    0.000    0.000    0.000    0.000 
#    0.000    0.000    0.000    0.000    0.000    0.000 
#
# Total GULP energy -56104.921332 kJ/mol
# GULP energy per Si atom -5610.492133 kJ/mol
# Density = 2.818813 g / cm^3
# Si number density = 28.252432 Si / 1000 Ang^3
#
#
#
# Elastic Constant Matrix: (Units=GPa)
#
#
# Indices 1 2 3 4 5 6 
#
# 1 214.2057 116.1146 75.0411 0.0000 0.0000 0.0000
# 2 116.1146 268.6580 70.7111 0.0000 0.0000 0.0000
# 3 75.0411 70.7111 169.2061 0.0000 0.0000 0.0000
# 4 0.0000 0.0000 0.0000 50.0626 0.0000 0.0000
# 5 0.0000 0.0000 0.0000 0.0000 55.9166 0.0000
# 6 0.0000 0.0000 0.0000 0.0000 0.0000 82.8684
#
#
#
# Elastic Compliance Matrix: (Units=1/GPa)
#
#
# Indices 1 2 3 4 5 6 
#
# 1 0.006628 -0.002349 -0.001958 0.000000 0.000000 0.000000
# 2 -0.002349 0.005015 -0.001054 0.000000 0.000000 0.000000
# 3 -0.001958 -0.001054 0.007219 0.000000 0.000000 0.000000
# 4 0.000000 0.000000 0.000000 0.019975 0.000000 0.000000
# 5 0.000000 0.000000 0.000000 0.000000 0.017884 0.000000
# 6 0.000000 0.000000 0.000000 0.000000 0.000000 0.012067
#
#
# Mechanical properties :
#
#
# Convention : Reuss Voigt Hill
#
# Bulk Modulus (GPa) = 122.85366 130.64484 126.74925
# Shear Modulus (GPa) = 60.81118 63.78307 62.29712
#
# Velocity S-wave (km/s) = 4.64445 4.75659 4.70086
# Velocity P-wave (km/s) = 8.50529 8.74696 8.62697
#
# Compressibility (1/GPa) = 0.00813977
#
# Stress axis : x y z
#
# Youngs Moduli (GPa) = 150.88328 199.40433 138.53276
#
# Poissons Ratio (x) = 0.46845 0.27118
# Poissons Ratio (y) = 0.35446 0.14600
# Poissons Ratio (z) = 0.29536 0.21015
#
# Static dielectric constant tensor:
#      x y z
#    x 2.312480 0.000000 0.000000 
#    y 0.000000 2.119840 0.000000 
#    z 0.000000 0.000000 2.469370 
# 
# From -- ./inp_files/2828.got.cif
#   From: 2010.05.17/outbox.cif.g08.bks.cpg/sg23_2_cif.got.tgz:2828.got - 2010.06.04 12:02:01.
