data_PCOD9332358
_publ_section_title
;
Structure prediction by ZEFSAII (Michael W. Deem and Ramdas Pophale) SiO2 
 PCOD9332358
Probable space group: I 2 2 2
;
_chemical_formula_sum "Si O2"
_cell_formula_units_Z 26
_cell_length_a 8.559314
_cell_length_b 10.121812
_cell_length_c 13.590921
_cell_angle_alpha 90.000000
_cell_angle_beta 90.000000
_cell_angle_gamma 90.000000
_cell_volume 1177.459867
_symmetry_space_group_name_H-M "I 2 2 2"
_symmetry_group_IT_number 23
_symmetry_cell_setting 'orthorhombic'
loop_
_space_group_symop_operation_xyz
x,y,z
-x,-y,z
x,-y,-z
-x,y,-z
1/2+x,1/2+y,1/2+z
1/2-x,1/2-y,1/2+z
1/2+x,1/2-y,1/2-z
1/2-x,1/2+y,1/2-z
loop_
_atom_site_type_symbol
_atom_site_label
_atom_site_fract_x
_atom_site_fract_y
_atom_site_fract_z
Si Si1 0.824441 0.842600 0.006651
Si Si2 0.000000 0.000000 0.500000
Si Si3 0.161001 0.177665 0.662606
Si Si4 0.895876 0.369310 0.674116
O O1 0.757401 0.793004 0.109107
O O2 0.699106 0.814354 0.920336
O O3 0.000000 0.786874 0.000000
O O4 0.835537 0.000000 0.000000
O O5 0.105630 0.084806 0.574092
O O6 0.267096 0.105069 0.742349
O O7 0.011895 0.252360 0.707890
O O8 0.000000 0.500000 0.652408
#
# Coordination Sequence:
#
# PCOD9332358 Si02
#       4
#     8   2   8   8
#     4  11  23  45  75 105 140 189 246 296 355 431
#     4  12  28  44  72  96 154 180 238 294 368 404
#     4  12  27  46  71 108 145 191 237 301 361 428
#     4  12  26  46  76 106 146 192 243 297 362 431
#
# _framework density 22.081432
#
# number of rings (size 3 to 8) (size 9 to 14) (size 15 to 20)
#    0.000    0.308    6.154    1.846    4.308    4.923 
#    0.000    0.000    0.000    0.000    0.000    0.000 
#    0.000    0.000    0.000    0.000    0.000    0.000 
#
# Total GULP energy -72655.536624 kJ/mol
# GULP energy per Si atom -5588.887433 kJ/mol
# Density = 2.203117 g / cm^3
# Si number density = 22.081432 Si / 1000 Ang^3
#
#
#
# Elastic Constant Matrix: (Units=GPa)
#
#
# Indices 1 2 3 4 5 6 
#
# 1 140.2120 21.2701 45.0599 0.0000 0.0000 0.0000
# 2 21.2701 41.8517 1.9961 0.0000 0.0000 0.0000
# 3 45.0599 1.9961 87.4605 0.0000 0.0000 0.0000
# 4 0.0000 0.0000 0.0000 21.4737 0.0000 0.0000
# 5 0.0000 0.0000 0.0000 0.0000 53.3019 0.0000
# 6 0.0000 0.0000 0.0000 0.0000 0.0000 8.4181
#
#
#
# Elastic Compliance Matrix: (Units=1/GPa)
#
#
# Indices 1 2 3 4 5 6 
#
# 1 0.009329 -0.004517 -0.004703 0.000000 0.000000 0.000000
# 2 -0.004517 0.026107 0.001731 0.000000 0.000000 0.000000
# 3 -0.004703 0.001731 0.013817 0.000000 0.000000 0.000000
# 4 0.000000 0.000000 0.000000 0.046569 0.000000 0.000000
# 5 0.000000 0.000000 0.000000 0.000000 0.018761 0.000000
# 6 0.000000 0.000000 0.000000 0.000000 0.000000 0.118792
#
#
# Mechanical properties :
#
#
# Convention : Reuss Voigt Hill
#
# Bulk Modulus (GPa) = 29.17531 45.13070 37.15300
# Shear Modulus (GPa) = 19.24731 30.05196 24.64963
#
# Velocity S-wave (km/s) = 2.95558 3.69312 3.34474
# Velocity P-wave (km/s) = 4.98884 6.21838 5.63723
#
# Compressibility (1/GPa) = 0.03427556
#
# Stress axis : x y z
#
# Youngs Moduli (GPa) = 107.19640 38.30413 72.37326
#
# Poissons Ratio (x) = 0.17301 0.34038
# Poissons Ratio (y) = 0.48418 -0.12529
# Poissons Ratio (z) = 0.50415 -0.06631
#
# Static dielectric constant tensor:
#      x y z
#    x 1.903380 0.000000 0.000000 
#    y 0.000000 1.814380 0.000000 
#    z 0.000000 0.000000 1.781250 
# 
# From -- ./inp_files/6439.got.cif
#   From: 2010.05.17/outbox.cif.g08.bks.cpg/sg23_4_cif.got.tgz:6439.got - 2010.06.04 12:02:01.
