data_PCOD9332445
_publ_section_title
;
Structure prediction by ZEFSAII (Michael W. Deem and Ramdas Pophale) SiO2 
 PCOD9332445
Probable space group: I 2 2 2
;
_chemical_formula_sum "Si O2"
_cell_formula_units_Z 26
_cell_length_a 7.095899
_cell_length_b 14.381174
_cell_length_c 9.780876
_cell_angle_alpha 90.000000
_cell_angle_beta 90.000000
_cell_angle_gamma 90.000000
_cell_volume 998.112557
_symmetry_space_group_name_H-M "I 2 2 2"
_symmetry_group_IT_number 23
_symmetry_cell_setting 'orthorhombic'
loop_
_space_group_symop_operation_xyz
x,y,z
-x,-y,z
x,-y,-z
-x,y,-z
1/2+x,1/2+y,1/2+z
1/2-x,1/2-y,1/2+z
1/2+x,1/2-y,1/2-z
1/2-x,1/2+y,1/2-z
loop_
_atom_site_type_symbol
_atom_site_label
_atom_site_fract_x
_atom_site_fract_y
_atom_site_fract_z
Si Si1 0.500000 0.500000 0.500000
Si Si2 0.681953 0.353246 0.825391
Si Si3 0.251699 0.704638 0.114918
Si Si4 0.307179 0.040874 0.208748
O O1 0.643398 0.555895 0.597657
O O2 0.463723 0.332144 0.856444
O O3 0.728866 0.304973 0.681322
O O4 0.727631 0.461796 0.811768
O O5 0.784900 0.305550 0.954593
O O6 0.137361 0.632443 0.208262
O O7 0.500000 0.000000 0.149670
#
# Coordination Sequence:
#
# PCOD9332445 Si02
#       4
#     2   8   8   8
#     4  12  26  48  74 102 152 178 240 304 348 426
#     4  11  25  45  70 103 145 190 239 294 355 422
#     4  11  25  45  70 103 145 190 239 294 355 422
#     4  12  26  46  74 105 140 193 237 290 361 423
#
# _framework density 26.049167000000001
#
# number of rings (size 3 to 8) (size 9 to 14) (size 15 to 20)
#    0.000    0.615    3.077    3.231    4.308    8.615 
#    0.000    0.000    0.000    0.000    0.000    0.000 
#    0.000    0.000    0.000    0.000    0.000    0.000 
#
# Total GULP energy -72867.057403 kJ/mol
# GULP energy per Si atom -5605.158262 kJ/mol
# Density = 2.598988 g / cm^3
# Si number density = 26.049167 Si / 1000 Ang^3
#
#
#
# Elastic Constant Matrix: (Units=GPa)
#
#
# Indices 1 2 3 4 5 6 
#
# 1 123.0856 -7.6694 20.6502 0.0000 0.0000 0.0000
# 2 -7.6694 85.9726 20.7134 0.0000 0.0000 0.0000
# 3 20.6502 20.7134 161.6105 0.0000 0.0000 0.0000
# 4 0.0000 0.0000 0.0000 28.6039 0.0000 0.0000
# 5 0.0000 0.0000 0.0000 0.0000 40.2412 0.0000
# 6 0.0000 0.0000 0.0000 0.0000 0.0000 35.3905
#
#
#
# Elastic Compliance Matrix: (Units=1/GPa)
#
#
# Indices 1 2 3 4 5 6 
#
# 1 0.008391 0.001039 -0.001205 0.000000 0.000000 0.000000
# 2 0.001039 0.012131 -0.001688 0.000000 0.000000 0.000000
# 3 -0.001205 -0.001688 0.006558 0.000000 0.000000 0.000000
# 4 0.000000 0.000000 0.000000 0.034960 0.000000 0.000000
# 5 0.000000 0.000000 0.000000 0.000000 0.024850 0.000000
# 6 0.000000 0.000000 0.000000 0.000000 0.000000 0.028256
#
#
# Mechanical properties :
#
#
# Convention : Reuss Voigt Hill
#
# Bulk Modulus (GPa) = 42.78556 48.67301 45.72929
# Shear Modulus (GPa) = 39.48023 43.31207 41.39615
#
# Velocity S-wave (km/s) = 3.89730 4.08205 3.99074
# Velocity P-wave (km/s) = 6.05908 6.39868 6.23120
#
# Compressibility (1/GPa) = 0.02337237
#
# Stress axis : x y z
#
# Youngs Moduli (GPa) = 119.16966 82.43426 152.48475
#
# Poissons Ratio (x) = -0.08565 0.18380
# Poissons Ratio (y) = -0.12382 0.25733
# Poissons Ratio (z) = 0.14365 0.13911
#
# Static dielectric constant tensor:
#      x y z
#    x 2.133300 0.000000 0.000000 
#    y 0.000000 1.969300 0.000000 
#    z 0.000000 0.000000 2.036390 
# 
# From -- ./inp_files/6432.got.cif
#   From: 2010.05.17/outbox.cif.g08.bks.cpg/sg23_4_cif.got.tgz:6432.got - 2010.06.04 12:02:01.
