data_PCOD9332278
_publ_section_title
;
Structure prediction by ZEFSAII (Michael W. Deem and Ramdas Pophale) SiO2 
 PCOD9332278
Probable space group: I 2 2 2
;
_chemical_formula_sum "Si O2"
_cell_formula_units_Z 56
_cell_length_a 22.460216
_cell_length_b 18.274533
_cell_length_c 9.194336
_cell_angle_alpha 90.000000
_cell_angle_beta 90.000000
_cell_angle_gamma 90.000000
_cell_volume 3773.814829
_symmetry_space_group_name_H-M "I 2 2 2"
_symmetry_group_IT_number 23
_symmetry_cell_setting 'orthorhombic'
loop_
_space_group_symop_operation_xyz
x,y,z
-x,-y,z
x,-y,-z
-x,y,-z
1/2+x,1/2+y,1/2+z
1/2-x,1/2-y,1/2+z
1/2+x,1/2-y,1/2-z
1/2-x,1/2+y,1/2-z
loop_
_atom_site_type_symbol
_atom_site_label
_atom_site_fract_x
_atom_site_fract_y
_atom_site_fract_z
Si Si1 0.069468 0.000000 0.326274
Si Si2 0.851978 0.880240 0.827473
Si Si3 0.688746 0.774983 0.326385
Si Si4 0.648022 0.619760 0.672527
Si Si5 0.311254 0.774983 0.326386
Si Si6 0.213048 0.416506 0.673589
Si Si7 0.213048 0.416506 0.326411
O O1 0.102837 0.929451 0.261440
O O2 0.074478 0.000000 0.500000
O O3 0.102837 0.070549 0.261440
O O4 0.000000 0.000000 0.286250
O O5 0.855200 0.793165 0.798013
O O6 0.783758 0.905143 0.795439
O O7 0.860872 0.892099 1.000000
O O8 0.697001 0.779459 0.500000
O O9 0.750000 0.750000 0.250000
O O10 0.676887 0.854470 0.259350
O O11 0.644800 0.706835 0.701986
O O12 0.716242 0.594857 0.704561
O O13 0.323113 0.854470 0.259350
O O14 0.206161 0.405713 0.500000
O O15 0.197209 0.500000 0.709734
#
# Coordination Sequence:
#
# PCOD9332278 Si02
#       7
#     8   8   8   8   8   8   8
#     4  11  23  33  43  63  85 107 145 191 224 253
#     4   9  17  31  45  57  80 113 145 177 212 252
#     4   9  17  27  40  60  83 109 142 174 208 252
#     4   9  17  31  45  57  80 113 145 177 212 252
#     4   9  17  27  40  60  83 109 142 174 208 252
#     4   9  16  27  42  62  88 114 142 173 205 248
#     4   9  16  27  42  62  88 114 142 173 205 248
#
# _framework density 14.839095
#
# number of rings (size 3 to 8) (size 9 to 14) (size 15 to 20)
#    0.000    2.714    1.429    3.000    0.000    7.429 
#    0.000    0.000    0.000    0.000    0.000    0.000 
#    0.000    1.143    0.000   12.571    0.000    9.143 
#
# Total GULP energy -155885.277471 kJ/mol
# GULP energy per Si atom -5567.331338 kJ/mol
# Density = 1.480532 g / cm^3
# Si number density = 14.839095 Si / 1000 Ang^3
#
#
#
# Elastic Constant Matrix: (Units=GPa)
#
#
# Indices 1 2 3 4 5 6 
#
# 1 42.3943 40.8977 33.1586 0.0000 0.0000 0.0000
# 2 40.8977 164.5583 67.9931 0.0000 0.0000 0.0000
# 3 33.1586 67.9931 51.8750 0.0000 0.0000 0.0000
# 4 0.0000 0.0000 0.0000 33.0618 0.0000 0.0000
# 5 0.0000 0.0000 0.0000 0.0000 15.7715 0.0000
# 6 0.0000 0.0000 0.0000 0.0000 0.0000 9.3758
#
#
#
# Elastic Compliance Matrix: (Units=1/GPa)
#
#
# Indices 1 2 3 4 5 6 
#
# 1 0.047366 0.001610 -0.032386 0.000000 0.000000 0.000000
# 2 0.001610 0.013310 -0.018475 0.000000 0.000000 0.000000
# 3 -0.032386 -0.018475 0.064194 0.000000 0.000000 0.000000
# 4 0.000000 0.000000 0.000000 0.030246 0.000000 0.000000
# 5 0.000000 0.000000 0.000000 0.000000 0.063405 0.000000
# 6 0.000000 0.000000 0.000000 0.000000 0.000000 0.106658
#
#
# Mechanical properties :
#
#
# Convention : Reuss Voigt Hill
#
# Bulk Modulus (GPa) = 37.92603 60.32515 49.12559
# Shear Modulus (GPa) = 11.56145 19.42703 15.49424
#
# Velocity S-wave (km/s) = 2.79430 3.62218 3.23484
# Velocity P-wave (km/s) = 6.00204 7.63117 6.86510
#
# Compressibility (1/GPa) = 0.02636712
#
# Stress axis : x y z
#
# Youngs Moduli (GPa) = 21.11222 75.12903 15.57785
#
# Poissons Ratio (x) = -0.12093 0.50451
# Poissons Ratio (y) = -0.03398 0.28780
# Poissons Ratio (z) = 0.68374 1.38801
#
# Static dielectric constant tensor:
#      x y z
#    x 1.448700 0.000000 0.000000 
#    y 0.000000 1.548930 0.000000 
#    z 0.000000 0.000000 1.490850 
# 
# From -- ./inp_files/12162.got.cif
#   From: 2010.05.17/outbox.cif.g08.bks.cpg/sg23_7_cif.got.tgz:12162.got - 2010.06.04 12:02:01.
