data_PCOD9332821
_publ_section_title
;
Structure prediction by ZEFSAII (Michael W. Deem and Ramdas Pophale) SiO2 
 PCOD9332821
Probable space group: I 21 21 21
;
_chemical_formula_sum "Si O2"
_cell_formula_units_Z 48
_cell_length_a 11.300373
_cell_length_b 23.318196
_cell_length_c 7.402210
_cell_angle_alpha 90.000000
_cell_angle_beta 90.000000
_cell_angle_gamma 90.000000
_cell_volume 1950.514257
_symmetry_space_group_name_H-M "I 21 21 21"
_symmetry_group_IT_number 24
_symmetry_cell_setting 'orthorhombic'
loop_
_space_group_symop_operation_xyz
x,y,z
-x,1/2-y,z
x,-y,1/2-z
1/2-x,y,-z
1/2+x,1/2+y,1/2+z
1/2-x,-y,1/2+z
1/2+x,1/2-y,-z
-x,1/2+y,1/2-z
loop_
_atom_site_type_symbol
_atom_site_label
_atom_site_fract_x
_atom_site_fract_y
_atom_site_fract_z
Si Si1 0.068580 0.600620 0.188525
Si Si2 0.750000 0.024944 0.500000
Si Si3 0.723402 0.684109 0.216798
Si Si4 0.545144 0.000000 0.250000
Si Si5 0.688296 0.436447 0.698031
Si Si6 0.517089 0.129807 0.279751
Si Si7 0.240118 0.687943 0.224495
O O1 0.186985 0.563406 0.153236
O O2 0.122112 0.655094 0.289290
O O3 0.953668 0.564417 0.235540
O O4 0.028037 0.626106 0.996181
O O5 0.635695 0.995937 0.417727
O O6 0.779757 0.624809 0.286686
O O7 0.585913 0.674087 0.258535
O O8 0.762599 0.746183 0.282226
O O9 0.750000 0.685830 0.000000
O O10 0.485076 0.937499 0.259019
O O11 0.729323 0.500000 0.750000
O O12 0.750000 0.430908 0.500000
O O13 0.642903 0.153369 0.214229
O O14 0.250000 0.687031 0.000000
#
# Coordination Sequence:
#
# PCOD9332821 Si02
#       7
#     8   4   8   4   8   8   8
#     4  10  17  33  50  77 111 144 182 227 282 327
#     4  10  20  34  54  84 112 146 182 232 284 336
#     4  10  19  31  49  78 112 147 180 220 280 340
#     4  10  20  32  56  80 118 150 182 234 276 332
#     4  11  24  37  54  79 116 154 190 232 274 340
#     4  10  17  31  49  78 112 145 178 226 278 336
#     4   9  17  29  52  79 109 141 173 233 290 331
#
# _framework density 24.608896000000001
#
# number of rings (size 3 to 8) (size 9 to 14) (size 15 to 20)
#    0.000    2.000    7.500    0.500    2.333    0.667 
#    0.000    0.000    0.000    0.000    2.167    0.000 
#    5.000    0.000    0.000    0.000    0.000    0.000 
#
# Total GULP energy -133655.887036 kJ/mol
# GULP energy per Si atom -5568.995293 kJ/mol
# Density = 2.455288 g / cm^3
# Si number density = 24.608896 Si / 1000 Ang^3
#
#
#
# Elastic Constant Matrix: (Units=GPa)
#
#
# Indices 1 2 3 4 5 6 
#
# 1 105.2429 63.1098 -2.0928 -0.0002 0.0004 0.0000
# 2 63.1098 204.9536 14.9680 0.0001 0.0002 -0.0014
# 3 -2.0928 14.9680 48.4265 -0.0070 0.0047 -0.0059
# 4 -0.0002 0.0001 -0.0070 5.9515 0.0012 -0.0023
# 5 0.0004 0.0002 0.0047 0.0012 4.1716 0.0002
# 6 0.0000 -0.0014 -0.0059 -0.0023 0.0002 43.2605
#
#
#
# Elastic Compliance Matrix: (Units=1/GPa)
#
#
# Indices 1 2 3 4 5 6 
#
# 1 0.011784 -0.003750 0.001668 0.000002 -0.000003 0.000000
# 2 -0.003750 0.006185 -0.002074 -0.000003 0.000002 0.000000
# 3 0.001668 -0.002074 0.021363 0.000025 -0.000024 0.000003
# 4 0.000002 -0.000003 0.000025 0.168026 -0.000049 0.000009
# 5 -0.000003 0.000002 -0.000024 -0.000049 0.239716 -0.000001
# 6 0.000000 0.000000 0.000003 0.000009 -0.000001 0.023116
#
#
# Mechanical properties :
#
#
# Convention : Reuss Voigt Hill
#
# Bulk Modulus (GPa) = 32.23655 56.73255 44.48455
# Shear Modulus (GPa) = 10.22827 29.51925 19.87376
#
# Velocity S-wave (km/s) = 2.04092 3.46719 2.84489
# Velocity P-wave (km/s) = 4.32224 6.25558 5.37653
#
# Compressibility (1/GPa) = 0.03102069
#
# Stress axis : x y z
#
# Youngs Moduli (GPa) = 84.86109 161.66987 46.80989
#
# Poissons Ratio (x) = 0.60633 -0.07810
# Poissons Ratio (y) = 0.31826 0.09708
# Poissons Ratio (z) = -0.14159 0.33529
#
# Static dielectric constant tensor:
#      x y z
#    x 2.072440 0.000000 -0.000010 
#    y 0.000000 1.984180 0.000000 
#    z -0.000010 0.000000 2.064100 
# 
# From -- ./inp_files/19883.got.cif
#   From: 2010.05.17/outbox.cif.g08.bks.cpg/sg24_10_cif.got.tgz:19883.got - 2010.06.04 00:33:39.
