data_PCOD9332863
_publ_section_title
;
Structure prediction by ZEFSAII (Michael W. Deem and Ramdas Pophale) SiO2 
 PCOD9332863
Probable space group: I 21 21 21
;
_chemical_formula_sum "Si O2"
_cell_formula_units_Z 48
_cell_length_a 13.377501
_cell_length_b 12.692576
_cell_length_c 14.154809
_cell_angle_alpha 90.000000
_cell_angle_beta 90.000000
_cell_angle_gamma 90.000000
_cell_volume 2403.415060
_symmetry_space_group_name_H-M "I 21 21 21"
_symmetry_group_IT_number 24
_symmetry_cell_setting 'orthorhombic'
loop_
_space_group_symop_operation_xyz
x,y,z
-x,1/2-y,z
x,-y,1/2-z
1/2-x,y,-z
1/2+x,1/2+y,1/2+z
1/2-x,-y,1/2+z
1/2+x,1/2-y,-z
-x,1/2+y,1/2-z
loop_
_atom_site_type_symbol
_atom_site_label
_atom_site_fract_x
_atom_site_fract_y
_atom_site_fract_z
Si Si1 0.434525 0.000000 0.750000
Si Si2 0.580459 0.624243 0.248155
Si Si3 0.027996 0.066377 0.454864
Si Si4 0.774282 0.640241 0.349486
Si Si5 0.750000 0.537962 0.000000
Si Si6 0.958117 0.136524 0.932054
Si Si7 0.500000 0.750000 0.072860
Si Si8 0.750000 0.190503 0.000000
O O1 0.489073 0.957847 0.844172
O O2 0.363622 0.905356 0.712507
O O3 0.601165 0.500000 0.250000
O O4 0.679611 0.676901 0.289790
O O5 0.489046 0.633464 0.321978
O O6 0.559771 0.677086 0.147944
O O7 0.146236 0.095053 0.472685
O O8 0.962440 0.159267 0.500792
O O9 0.010404 0.958244 0.511961
O O10 0.736140 0.541330 0.412065
O O11 0.799277 0.732721 0.421807
O O12 0.000000 0.250000 0.964870
O O13 0.840530 0.129077 0.951991
#
# Coordination Sequence:
#
# PCOD9332863 Si02
#       8
#     4   8   8   8   4   8   4   4
#     4  10  22  38  66  92 126 166 228 274 320 370
#     4  12  20  36  66  96 129 163 209 275 342 371
#     4  11  24  41  62  94 130 176 212 267 326 386
#     4  10  17  34  61  98 119 156 215 278 324 366
#     4   9  16  36  63  90 124 152 217 281 316 370
#     4  12  21  39  66  94 129 170 214 270 320 390
#     4  12  24  38  62  94 136 172 210 268 326 398
#     4  11  22  36  61  96 124 164 219 257 324 396
#
# _framework density 19.971582000000001
#
# number of rings (size 3 to 8) (size 9 to 14) (size 15 to 20)
#    0.000    1.000    6.667    2.000    2.333    0.000 
#    4.500    0.833    1.833    0.000    0.000    0.000 
#    0.000    0.000    0.000    0.000    0.000    0.000 
#
# Total GULP energy -133735.867995 kJ/mol
# GULP energy per Si atom -5572.327833 kJ/mol
# Density = 1.992613 g / cm^3
# Si number density = 19.971582 Si / 1000 Ang^3
#
#
#
# Elastic Constant Matrix: (Units=GPa)
#
#
# Indices 1 2 3 4 5 6 
#
# 1 53.9730 2.8401 25.7047 0.0000 0.0000 0.0000
# 2 2.8401 75.8520 39.6835 0.0000 0.0000 0.0000
# 3 25.7047 39.6835 152.3876 0.0000 0.0000 0.0000
# 4 0.0000 0.0000 0.0000 28.7607 0.0000 0.0000
# 5 0.0000 0.0000 0.0000 0.0000 27.4965 0.0000
# 6 0.0000 0.0000 0.0000 0.0000 0.0000 16.7004
#
#
#
# Elastic Compliance Matrix: (Units=1/GPa)
#
#
# Indices 1 2 3 4 5 6 
#
# 1 0.020239 0.001190 -0.003724 0.000000 0.000000 0.000000
# 2 0.001190 0.015333 -0.004194 0.000000 0.000000 0.000000
# 3 -0.003724 -0.004194 0.008282 0.000000 0.000000 0.000000
# 4 0.000000 0.000000 0.000000 0.034770 0.000000 0.000000
# 5 0.000000 0.000000 0.000000 0.000000 0.036368 0.000000
# 6 0.000000 0.000000 0.000000 0.000000 0.000000 0.059879
#
#
# Mechanical properties :
#
#
# Convention : Reuss Voigt Hill
#
# Bulk Modulus (GPa) = 32.89494 46.51882 39.70688
# Shear Modulus (GPa) = 25.19420 28.85714 27.02567
#
# Velocity S-wave (km/s) = 3.55562 3.80532 3.68259
# Velocity P-wave (km/s) = 5.77609 6.53072 6.16496
#
# Compressibility (1/GPa) = 0.03039981
#
# Stress axis : x y z
#
# Youngs Moduli (GPa) = 49.41048 65.21878 120.73732
#
# Poissons Ratio (x) = -0.07764 0.44961
# Poissons Ratio (y) = -0.05882 0.50634
# Poissons Ratio (z) = 0.18400 0.27351
#
# Static dielectric constant tensor:
#      x y z
#    x 1.731250 0.000000 0.000000 
#    y 0.000000 1.737520 0.000000 
#    z 0.000000 0.000000 1.762320 
# 
# From -- ./inp_files/26489.got.cif
#   From: 2010.05.17/outbox.cif.g08.bks.cpg/sg24_14_cif.got.tgz:26489.got - 2010.06.04 00:33:39.
