data_PCOD9332424
_publ_section_title
;
Structure prediction by ZEFSAII (Michael W. Deem and Ramdas Pophale) SiO2 
 PCOD9332424
Probable space group: I 2 2 2
;
_chemical_formula_sum "Si O2"
_cell_formula_units_Z 32
_cell_length_a 18.608680
_cell_length_b 5.122123
_cell_length_c 13.483520
_cell_angle_alpha 90.000000
_cell_angle_beta 90.000000
_cell_angle_gamma 90.000000
_cell_volume 1285.194489
_symmetry_space_group_name_H-M "I 2 2 2"
_symmetry_group_IT_number 23
_symmetry_cell_setting 'orthorhombic'
loop_
_space_group_symop_operation_xyz
x,y,z
-x,-y,z
x,-y,-z
-x,y,-z
1/2+x,1/2+y,1/2+z
1/2-x,1/2-y,1/2+z
1/2+x,1/2-y,1/2-z
1/2-x,1/2+y,1/2-z
loop_
_atom_site_type_symbol
_atom_site_label
_atom_site_fract_x
_atom_site_fract_y
_atom_site_fract_z
Si Si1 0.384222 0.000000 0.500000
Si Si2 0.260284 0.000000 0.000000
Si Si3 0.000000 0.000000 0.710332
Si Si4 0.848457 0.171805 0.348299
Si Si5 0.500000 0.000000 0.654125
Si Si6 0.706597 0.104011 0.657525
O O1 0.439944 0.120664 0.421085
O O2 0.329522 0.107659 0.583835
O O3 0.214388 0.147221 0.914993
O O4 0.315580 0.799350 0.946265
O O5 0.019535 0.747708 0.777898
O O6 0.929137 0.928040 0.647844
O O7 0.840599 0.366134 0.254850
O O8 0.788310 0.960787 0.316661
#
# Coordination Sequence:
#
# PCOD9332424 Si02
#       6
#     4   4   4   8   4   8
#     4  11  24  46  74 119 154 198 268 329 406 466
#     4  12  26  46  79 113 150 206 264 324 396 469
#     4  12  30  49  79 112 164 216 250 326 402 478
#     4  12  27  48  77 113 163 203 273 322 405 475
#     4  11  28  48  76 117 160 201 256 334 410 471
#     4  12  25  45  77 114 151 206 262 338 385 480
#
# _framework density 24.898955000000001
#
# number of rings (size 3 to 8) (size 9 to 14) (size 15 to 20)
#    0.000    0.250    7.500    0.000   10.500    2.000 
#    0.000    3.750    0.000    0.000    0.000    0.000 
#    0.000    0.000    0.000    0.000    0.000    0.000 
#
# Total GULP energy -89209.514630 kJ/mol
# GULP energy per Si atom -5575.594664 kJ/mol
# Density = 2.484228 g / cm^3
# Si number density = 24.898955 Si / 1000 Ang^3
#
#
#
# Elastic Constant Matrix: (Units=GPa)
#
#
# Indices 1 2 3 4 5 6 
#
# 1 174.9674 12.2823 24.6755 0.0000 0.0000 0.0000
# 2 12.2823 92.5767 20.0444 0.0000 0.0000 0.0000
# 3 24.6755 20.0444 77.1921 0.0000 0.0000 0.0000
# 4 0.0000 0.0000 0.0000 31.4478 0.0000 0.0000
# 5 0.0000 0.0000 0.0000 0.0000 43.8474 0.0000
# 6 0.0000 0.0000 0.0000 0.0000 0.0000 21.5867
#
#
#
# Elastic Compliance Matrix: (Units=1/GPa)
#
#
# Indices 1 2 3 4 5 6 
#
# 1 0.005999 -0.000403 -0.001813 0.000000 0.000000 0.000000
# 2 -0.000403 0.011472 -0.002850 0.000000 0.000000 0.000000
# 3 -0.001813 -0.002850 0.014274 0.000000 0.000000 0.000000
# 4 0.000000 0.000000 0.000000 0.031799 0.000000 0.000000
# 5 0.000000 0.000000 0.000000 0.000000 0.022806 0.000000
# 6 0.000000 0.000000 0.000000 0.000000 0.000000 0.046325
#
#
# Mechanical properties :
#
#
# Convention : Reuss Voigt Hill
#
# Bulk Modulus (GPa) = 46.26818 50.97117 48.61968
# Shear Modulus (GPa) = 33.33034 38.55865 35.94450
#
# Velocity S-wave (km/s) = 3.66269 3.93950 3.80362
# Velocity P-wave (km/s) = 6.04233 6.41939 6.23371
#
# Compressibility (1/GPa) = 0.02161312
#
# Stress axis : x y z
#
# Youngs Moduli (GPa) = 166.68457 87.16520 70.05582
#
# Poissons Ratio (x) = 0.03516 0.12701
# Poissons Ratio (y) = 0.06724 0.19967
# Poissons Ratio (z) = 0.30220 0.24843
#
# Static dielectric constant tensor:
#      x y z
#    x 2.051490 0.000000 0.000000 
#    y 0.000000 2.111190 0.000000 
#    z 0.000000 0.000000 2.018320 
# 
# From -- ./inp_files/1430.got.cif
#   From: 2010.05.17/outbox.cif.g08.bks.cpg/sg23_1_cif.got.tgz:1430.got - 2010.06.04 12:02:01.
