data_PCOD9332758
_publ_section_title
;
Structure prediction by ZEFSAII (Michael W. Deem and Ramdas Pophale) SiO2 
 PCOD9332758
Probable space group: I 21 21 21
;
_chemical_formula_sum "Si O2"
_cell_formula_units_Z 36
_cell_length_a 31.071851
_cell_length_b 7.736807
_cell_length_c 7.214011
_cell_angle_alpha 90.000000
_cell_angle_beta 90.000000
_cell_angle_gamma 90.000000
_cell_volume 1734.225984
_symmetry_space_group_name_H-M "I 21 21 21"
_symmetry_group_IT_number 24
_symmetry_cell_setting 'orthorhombic'
loop_
_space_group_symop_operation_xyz
x,y,z
-x,1/2-y,z
x,-y,1/2-z
1/2-x,y,-z
1/2+x,1/2+y,1/2+z
1/2-x,-y,1/2+z
1/2+x,1/2-y,-z
-x,1/2+y,1/2-z
loop_
_atom_site_type_symbol
_atom_site_label
_atom_site_fract_x
_atom_site_fract_y
_atom_site_fract_z
Si Si1 0.335585 0.000000 0.250000
Si Si2 0.615316 0.980868 0.477928
Si Si3 0.704487 0.148400 0.096772
Si Si4 0.914714 0.653086 0.954485
Si Si5 0.451491 0.191970 0.037939
O O1 0.309678 0.832859 0.317310
O O2 0.368562 0.932917 0.093204
O O3 0.663803 0.921592 0.523538
O O4 0.582335 0.832226 0.532243
O O5 0.616156 0.000000 0.250000
O O6 0.597040 0.164533 0.543627
O O7 0.710494 0.000000 0.250000
O O8 0.750000 0.170473 0.000000
O O9 0.939752 0.687309 0.759186
O O10 0.942244 0.498718 0.040305
O O11 0.500000 0.250000 0.011470
#
# Coordination Sequence:
#
# PCOD9332758 Si02
#       5
#     4   8   8   8   8
#     4  10  16  34  46  66  92 132 168 202 252 304
#     4   9  15  28  41  58  90 128 159 195 245 299
#     4  11  21  35  54  74  98 135 175 216 263 306
#     4   9  16  24  40  56  93 126 163 189 242 294
#     4   9  16  21  35  60  88 126 165 192 230 298
#
# _framework density 20.75854
#
# number of rings (size 3 to 8) (size 9 to 14) (size 15 to 20)
#    0.000    2.667    8.889    0.000    9.333    0.889 
#    0.000    0.000    0.000    0.000    0.000    0.000 
#    0.000    0.000   11.333    0.444    0.000    3.556 
#
# Total GULP energy -100314.000105 kJ/mol
# GULP energy per Si atom -5573.000006 kJ/mol
# Density = 2.071129 g / cm^3
# Si number density = 20.758540 Si / 1000 Ang^3
#
#
#
# Elastic Constant Matrix: (Units=GPa)
#
#
# Indices 1 2 3 4 5 6 
#
# 1 186.9929 80.4556 26.6606 0.0000 0.0000 0.0000
# 2 80.4556 193.5321 18.9046 0.0000 0.0000 0.0000
# 3 26.6606 18.9046 52.9128 0.0000 0.0000 0.0000
# 4 0.0000 0.0000 0.0000 -11.7453 0.0000 0.0000
# 5 0.0000 0.0000 0.0000 0.0000 -13.6253 0.0000
# 6 0.0000 0.0000 0.0000 0.0000 0.0000 23.4829
#
#
#
# Elastic Compliance Matrix: (Units=1/GPa)
#
#
# Indices 1 2 3 4 5 6 
#
# 1 0.006820 -0.002590 -0.002511 0.000000 0.000000 0.000000
# 2 -0.002590 0.006338 -0.000959 0.000000 0.000000 0.000000
# 3 -0.002511 -0.000959 0.020507 0.000000 0.000000 0.000000
# 4 0.000000 0.000000 0.000000 -0.085140 0.000000 0.000000
# 5 0.000000 0.000000 0.000000 0.000000 -0.073393 0.000000
# 6 0.000000 0.000000 0.000000 0.000000 0.000000 0.042584
#
#
# Mechanical properties :
#
#
# Convention : Reuss Voigt Hill
#
# Bulk Modulus (GPa) = 46.41663 76.16439 61.29051
# Shear Modulus (GPa) = -79.38721 20.11693 -29.63514
#
# Velocity S-wave (km/s) = -6.19081 3.11640 -3.78247
# Velocity P-wave (km/s) = 5.35656 7.05121 3.24244
#
# Compressibility (1/GPa) = 0.02154400
#
# Stress axis : x y z
#
# Youngs Moduli (GPa) = 146.62336 157.79008 48.76395
#
# Poissons Ratio (x) = 0.40868 0.12245
# Poissons Ratio (y) = 0.37976 0.04678
# Poissons Ratio (z) = 0.36818 0.15136
#
# Static dielectric constant tensor:
#      x y z
#    x 1.704990 0.000000 0.000000 
#    y 0.000000 1.774000 0.000000 
#    z 0.000000 0.000000 1.934500 
# 
# From -- ./inp_files/16674.got.cif
#   From: 2010.05.17/outbox.cif.g08.bks.cpg/sg24_9_cif.got.tgz:16674.got - 2010.06.04 00:33:39.
