data_PCOD9332020
_publ_section_title
;
Structure prediction by ZEFSAII (Michael W. Deem and Ramdas Pophale) SiO2 
 PCOD9332020
Probable space group: I 2 2 2
;
_chemical_formula_sum "Si O2"
_cell_formula_units_Z 46
_cell_length_a 7.423790
_cell_length_b 27.255229
_cell_length_c 10.083780
_cell_angle_alpha 90.000000
_cell_angle_beta 90.000000
_cell_angle_gamma 90.000000
_cell_volume 2040.322767
_symmetry_space_group_name_H-M "I 2 2 2"
_symmetry_group_IT_number 23
_symmetry_cell_setting 'orthorhombic'
loop_
_space_group_symop_operation_xyz
x,y,z
-x,-y,z
x,-y,-z
-x,y,-z
1/2+x,1/2+y,1/2+z
1/2-x,1/2-y,1/2+z
1/2+x,1/2-y,1/2-z
1/2-x,1/2+y,1/2-z
loop_
_atom_site_type_symbol
_atom_site_label
_atom_site_fract_x
_atom_site_fract_y
_atom_site_fract_z
Si Si1 0.500000 0.243640 0.500000
Si Si2 0.930497 0.659166 0.180964
Si Si3 0.000000 0.500000 0.500000
Si Si4 0.512422 0.553781 0.786610
Si Si5 0.689538 0.092514 0.866459
Si Si6 0.192695 0.316309 0.452948
Si Si7 0.296786 0.074646 0.524008
O O1 0.524726 0.207425 0.624458
O O2 0.334699 0.280011 0.514393
O O3 0.797594 0.677714 0.295472
O O4 0.829136 0.631990 0.059221
O O5 0.064825 0.619851 0.254040
O O6 0.113235 0.538895 0.408598
O O7 0.500000 0.500000 0.727641
O O8 0.605311 0.589159 0.683383
O O9 0.685684 0.439278 0.844903
O O10 0.660718 0.558235 0.907331
O O11 0.696357 0.128770 0.989840
O O12 0.000000 0.296674 0.500000
O O13 0.500000 0.055376 0.500000
#
# Coordination Sequence:
#
# PCOD9332020 Si02
#       7
#     4   8   2   8   8   8   8
#     4  12  26  46  80 106 142 204 232 316 396 428
#     4  11  23  48  71 108 144 192 250 300 384 460
#     4  12  24  48  82 102 148 222 240 312 400 426
#     4  11  26  41  66 107 139 190 258 304 369 442
#     4  11  24  49  72 106 148 196 259 308 375 459
#     4  10  26  48  69 107 148 182 253 312 368 457
#     4  11  22  44  66  98 145 190 237 310 368 438
#
# _framework density 22.545452999999998
#
# number of rings (size 3 to 8) (size 9 to 14) (size 15 to 20)
#    0.000    1.043    5.217    1.043    9.739    1.391 
#    6.261    0.000    0.000    0.000    0.000    0.000 
#    0.000    0.000    0.000    0.000    0.000    0.000 
#
# Total GULP energy -128224.031562 kJ/mol
# GULP energy per Si atom -5574.957894 kJ/mol
# Density = 2.249414 g / cm^3
# Si number density = 22.545453 Si / 1000 Ang^3
#
#
#
# Elastic Constant Matrix: (Units=GPa)
#
#
# Indices 1 2 3 4 5 6 
#
# 1 134.9227 35.1052 16.6653 0.0000 0.0000 0.0000
# 2 35.1052 117.8354 24.6118 0.0000 0.0000 0.0000
# 3 16.6653 24.6118 64.3606 0.0000 0.0000 -0.0001
# 4 0.0000 0.0000 0.0000 30.4608 0.0000 0.0000
# 5 0.0000 0.0000 0.0000 0.0000 28.2915 0.0000
# 6 0.0000 0.0000 -0.0001 0.0000 0.0000 25.8436
#
#
#
# Elastic Compliance Matrix: (Units=1/GPa)
#
#
# Indices 1 2 3 4 5 6 
#
# 1 0.008131 -0.002155 -0.001281 0.000000 0.000000 0.000000
# 2 -0.002155 0.009794 -0.003187 0.000000 0.000000 0.000000
# 3 -0.001281 -0.003187 0.017088 0.000000 0.000000 0.000000
# 4 0.000000 0.000000 0.000000 0.032829 0.000000 0.000000
# 5 0.000000 0.000000 0.000000 0.000000 0.035346 0.000000
# 6 0.000000 0.000000 0.000000 0.000000 0.000000 0.038694
#
#
# Mechanical properties :
#
#
# Convention : Reuss Voigt Hill
#
# Bulk Modulus (GPa) = 45.94321 52.20925 49.07623
# Shear Modulus (GPa) = 30.79115 32.96828 31.87972
#
# Velocity S-wave (km/s) = 3.69960 3.82816 3.76442
# Velocity P-wave (km/s) = 6.21865 6.53814 6.38040
#
# Compressibility (1/GPa) = 0.02176600
#
# Stress axis : x y z
#
# Youngs Moduli (GPa) = 122.99338 102.10289 58.52015
#
# Poissons Ratio (x) = 0.21999 0.07499
# Poissons Ratio (y) = 0.26500 0.18653
# Poissons Ratio (z) = 0.15760 0.32544
#
# Static dielectric constant tensor:
#      x y z
#    x 1.874640 0.000000 0.000000 
#    y 0.000000 1.828840 0.000000 
#    z 0.000000 0.000000 1.910610 
# 
# From -- ./inp_files/14780.got.cif
#   From: 2010.05.17/outbox.cif.g08.bks.cpg/sg23_8_cif.got.tgz:14780.got - 2010.06.04 12:02:01.
