data_PCOD9332312
_publ_section_title
;
Structure prediction by ZEFSAII (Michael W. Deem and Ramdas Pophale) SiO2 
 PCOD9332312
Probable space group: I 2 2 2
;
_chemical_formula_sum "Si O2"
_cell_formula_units_Z 64
_cell_length_a 11.987297
_cell_length_b 8.874260
_cell_length_c 27.110148
_cell_angle_alpha 90.000000
_cell_angle_beta 90.000000
_cell_angle_gamma 90.000000
_cell_volume 2883.933904
_symmetry_space_group_name_H-M "I 2 2 2"
_symmetry_group_IT_number 23
_symmetry_cell_setting 'orthorhombic'
loop_
_space_group_symop_operation_xyz
x,y,z
-x,-y,z
x,-y,-z
-x,y,-z
1/2+x,1/2+y,1/2+z
1/2-x,1/2-y,1/2+z
1/2+x,1/2-y,1/2-z
1/2-x,1/2+y,1/2-z
loop_
_atom_site_type_symbol
_atom_site_label
_atom_site_fract_x
_atom_site_fract_y
_atom_site_fract_z
Si Si1 0.506054 0.820465 0.057897
Si Si2 0.926036 0.852656 0.289022
Si Si3 0.212062 0.884578 0.808230
Si Si4 0.075832 0.370422 0.753120
Si Si5 0.768579 0.185752 0.398112
Si Si6 0.377616 0.820633 0.487900
Si Si7 0.721709 0.335597 0.074928
Si Si8 0.298076 0.711556 0.664439
O O1 0.619940 0.769653 0.083924
O O2 0.396425 0.746215 0.081854
O O3 0.500000 0.000000 0.060632
O O4 0.500000 0.774636 0.000000
O O5 0.886308 0.865104 0.231567
O O6 0.815416 0.799311 0.317897
O O7 0.008746 0.712187 0.289795
O O8 0.000000 0.000000 0.303030
O O9 0.314087 0.931539 0.772465
O O10 0.239135 0.739539 0.842300
O O11 0.202596 0.032634 0.841341
O O12 0.114575 0.252797 0.793724
O O13 0.000000 0.500000 0.775291
O O14 0.661642 0.217721 0.432841
O O15 0.792679 0.010970 0.411648
O O16 0.500000 0.756701 0.500000
O O17 0.270653 0.785698 0.522223
O O18 0.385941 0.000000 0.500000
O O19 0.818704 0.282562 0.111830
#
# Coordination Sequence:
#
# PCOD9332312 Si02
#       8
#     8   8   8   8   8   8   8   8
#     4  11  23  41  67  92 131 171 213 274 339 397
#     4  11  24  43  67  91 132 178 218 268 335 394
#     4  11  25  42  63  98 133 171 220 274 336 400
#     4  11  24  43  67  90 131 179 218 272 332 396
#     4  11  24  40  68  98 131 172 223 279 335 404
#     4   9  20  43  65  93 131 174 218 275 329 396
#     4  11  24  40  67 100 129 171 229 273 335 403
#     4  11  25  42  63  98 132 169 224 275 326 413
#
# _framework density 22.191908000000002
#
# number of rings (size 3 to 8) (size 9 to 14) (size 15 to 20)
#    0.000    1.250    3.750    1.125    5.250    2.000 
#    2.250    0.000    0.000    3.000    0.000    0.000 
#    0.000    0.000    0.000    0.000    0.000    0.000 
#
# Total GULP energy -178494.869039 kJ/mol
# GULP energy per Si atom -5577.964657 kJ/mol
# Density = 2.214140 g / cm^3
# Si number density = 22.191908 Si / 1000 Ang^3
#
#
#
# Elastic Constant Matrix: (Units=GPa)
#
#
# Indices 1 2 3 4 5 6 
#
# 1 103.3668 7.0099 1.0674 0.0000 0.0000 0.0000
# 2 7.0099 53.8671 -1.3718 0.0000 0.0000 0.0000
# 3 1.0674 -1.3718 61.3030 0.0000 0.0000 0.0000
# 4 0.0000 0.0000 0.0000 26.0010 0.0000 0.0000
# 5 0.0000 0.0000 0.0000 0.0000 0.4371 0.0000
# 6 0.0000 0.0000 0.0000 0.0000 0.0000 17.7428
#
#
#
# Elastic Compliance Matrix: (Units=1/GPa)
#
#
# Indices 1 2 3 4 5 6 
#
# 1 0.009763 -0.001276 -0.000199 0.000000 0.000000 0.000000
# 2 -0.001276 0.018741 0.000442 0.000000 0.000000 0.000000
# 3 -0.000199 0.000442 0.016326 0.000000 0.000000 0.000000
# 4 0.000000 0.000000 0.000000 0.038460 0.000000 0.000000
# 5 0.000000 0.000000 0.000000 0.000000 2.287815 0.000000
# 6 0.000000 0.000000 0.000000 0.000000 0.000000 0.056361
#
#
# Mechanical properties :
#
#
# Convention : Reuss Voigt Hill
#
# Bulk Modulus (GPa) = 23.38356 25.77200 24.57778
# Shear Modulus (GPa) = 2.04601 22.95827 12.50214
#
# Velocity S-wave (km/s) = 0.96123 3.21991 2.37611
# Velocity P-wave (km/s) = 3.43392 5.04601 4.31590
#
# Compressibility (1/GPa) = 0.04276508
#
# Stress axis : x y z
#
# Youngs Moduli (GPa) = 102.42926 53.35771 61.25294
#
# Poissons Ratio (x) = 0.06806 0.01216
# Poissons Ratio (y) = 0.13065 -0.02705
# Poissons Ratio (z) = 0.02033 -0.02356
#
# Static dielectric constant tensor:
#      x y z
#    x 1.883170 0.000000 0.000000 
#    y 0.000000 1.832870 0.000000 
#    z 0.000000 0.000000 1.928110 
# 
# From -- ./inp_files/30479.got.cif
#   From: 2010.05.17/outbox.cif.g08.bks.cpg/sg23_16_cif.got.tgz:30479.got - 2010.06.04 12:02:01.
