data_PCOD9332960
_publ_section_title
;
Structure prediction by ZEFSAII (Michael W. Deem and Ramdas Pophale) SiO2 
 PCOD9332960
Probable space group: I 21 21 21
;
_chemical_formula_sum "Si O2"
_cell_formula_units_Z 56
_cell_length_a 14.862347
_cell_length_b 22.615087
_cell_length_c 8.881423
_cell_angle_alpha 90.000000
_cell_angle_beta 90.000000
_cell_angle_gamma 90.000000
_cell_volume 2985.164131
_symmetry_space_group_name_H-M "I 21 21 21"
_symmetry_group_IT_number 24
_symmetry_cell_setting 'orthorhombic'
loop_
_space_group_symop_operation_xyz
x,y,z
-x,1/2-y,z
x,-y,1/2-z
1/2-x,y,-z
1/2+x,1/2+y,1/2+z
1/2-x,-y,1/2+z
1/2+x,1/2-y,-z
-x,1/2+y,1/2-z
loop_
_atom_site_type_symbol
_atom_site_label
_atom_site_fract_x
_atom_site_fract_y
_atom_site_fract_z
Si Si1 0.554420 0.809301 0.354700
Si Si2 0.933314 0.385768 0.042141
Si Si3 0.516924 0.609818 0.883597
Si Si4 0.155796 0.992136 0.071837
Si Si5 0.648580 0.839291 0.060721
Si Si6 0.660541 0.261237 0.908582
Si Si7 0.342701 0.214654 0.569981
O O1 0.500000 0.750000 0.298076
O O2 0.491219 0.863752 0.401351
O O3 0.626878 0.836667 0.239165
O O4 0.592598 0.784403 0.513859
O O5 0.987084 0.395722 0.200562
O O6 0.876187 0.444280 0.011102
O O7 0.871412 0.328591 0.070651
O O8 0.574401 0.554273 0.943480
O O9 0.580225 0.666464 0.915990
O O10 0.423275 0.621003 0.968898
O O11 0.171209 0.000000 0.250000
O O12 0.250000 0.972856 0.000000
O O13 0.750000 0.851285 0.000000
O O14 0.628603 0.770786 0.024580
O O15 0.675557 0.256289 0.732514
O O16 0.750000 0.252542 0.000000
O O17 0.250000 0.190059 0.500000
#
# Coordination Sequence:
#
# PCOD9332960 Si02
#       7
#     8   8   8   8   8   8   8
#     4  10  20  34  53  78 107 143 181 221 270 320
#     4   9  20  35  53  77 108 145 179 215 269 321
#     4  10  20  36  55  76 110 146 178 222 270 317
#     4  10  21  37  58  84 112 143 178 218 267 322
#     4  11  22  35  53  77 105 139 182 229 273 320
#     4  10  18  30  50  77 111 143 176 218 262 318
#     4  10  19  31  51  81 111 143 178 215 270 326
#
# _framework density 18.759436999999998
#
# number of rings (size 3 to 8) (size 9 to 14) (size 15 to 20)
#    0.000    2.000    0.000    4.714    0.000    4.571 
#    0.000    0.000    0.000    6.000    0.000    0.000 
#    0.000    0.000    0.000    0.000    0.000    0.000 
#
# Total GULP energy -156043.035117 kJ/mol
# GULP energy per Si atom -5572.965540 kJ/mol
# Density = 1.871674 g / cm^3
# Si number density = 18.759437 Si / 1000 Ang^3
#
#
#
# Elastic Constant Matrix: (Units=GPa)
#
#
# Indices 1 2 3 4 5 6 
#
# 1 96.6398 24.0126 45.6229 -0.0001 0.0000 0.0000
# 2 24.0126 51.8789 -3.1437 -0.0001 0.0000 0.0000
# 3 45.6229 -3.1437 55.2690 0.0002 0.0000 0.0001
# 4 -0.0001 -0.0001 0.0002 9.8690 0.0000 0.0000
# 5 0.0000 0.0000 0.0000 0.0000 29.7156 0.0000
# 6 0.0000 0.0000 0.0001 0.0000 0.0000 15.0304
#
#
#
# Elastic Compliance Matrix: (Units=1/GPa)
#
#
# Indices 1 2 3 4 5 6 
#
# 1 0.022082 -0.011365 -0.018874 0.000000 0.000000 0.000000
# 2 -0.011365 0.025191 0.010814 0.000000 0.000000 0.000000
# 3 -0.018874 0.010814 0.034289 -0.000001 0.000000 0.000000
# 4 0.000000 0.000000 -0.000001 0.101328 0.000000 0.000000
# 5 0.000000 0.000000 0.000000 0.000000 0.033652 0.000000
# 6 0.000000 0.000000 0.000000 0.000000 0.000000 0.066532
#
#
# Mechanical properties :
#
#
# Convention : Reuss Voigt Hill
#
# Bulk Modulus (GPa) = 23.41274 37.41903 30.41589
# Shear Modulus (GPa) = 14.87382 20.07607 17.47495
#
# Velocity S-wave (km/s) = 2.81885 3.27492 3.05541
# Velocity P-wave (km/s) = 4.80647 5.85578 5.35688
#
# Compressibility (1/GPa) = 0.04271179
#
# Stress axis : x y z
#
# Youngs Moduli (GPa) = 45.28572 39.69652 29.16410
#
# Poissons Ratio (x) = 0.45113 0.55046
# Poissons Ratio (y) = 0.51465 -0.31538
# Poissons Ratio (z) = 0.85474 -0.42928
#
# Static dielectric constant tensor:
#      x y z
#    x 1.875910 0.000000 0.000000 
#    y 0.000000 1.626190 0.000000 
#    z 0.000000 0.000000 2.403480 
# 
# From -- ./inp_files/13143.got.cif
#   From: 2010.05.17/outbox.cif.g08.bks.cpg/sg24_7_cif.got.tgz:13143.got - 2010.06.04 00:33:39.
