data_PCOD9332969
_publ_section_title
;
Structure prediction by ZEFSAII (Michael W. Deem and Ramdas Pophale) SiO2 
 PCOD9332969
Probable space group: I 21 21 21
;
_chemical_formula_sum "Si O2"
_cell_formula_units_Z 32
_cell_length_a 21.108367
_cell_length_b 9.386668
_cell_length_c 6.516313
_cell_angle_alpha 90.000000
_cell_angle_beta 90.000000
_cell_angle_gamma 90.000000
_cell_volume 1291.124228
_symmetry_space_group_name_H-M "I 21 21 21"
_symmetry_group_IT_number 24
_symmetry_cell_setting 'orthorhombic'
loop_
_space_group_symop_operation_xyz
x,y,z
-x,1/2-y,z
x,-y,1/2-z
1/2-x,y,-z
1/2+x,1/2+y,1/2+z
1/2-x,-y,1/2+z
1/2+x,1/2-y,-z
-x,1/2+y,1/2-z
loop_
_atom_site_type_symbol
_atom_site_label
_atom_site_fract_x
_atom_site_fract_y
_atom_site_fract_z
Si Si1 0.862656 0.198511 0.719688
Si Si2 0.524767 0.096531 0.558945
Si Si3 0.750000 0.181052 0.000000
Si Si4 0.195388 0.130238 0.357812
Si Si5 0.920732 0.500000 0.750000
O O1 0.924801 0.123078 0.625344
O O2 0.814471 0.122422 0.882220
O O3 0.831989 0.251112 0.507347
O O4 0.882190 0.356347 0.802858
O O5 0.500000 0.250000 0.637162
O O6 0.547167 0.000000 0.750000
O O7 0.464610 0.029042 0.445457
O O8 0.723094 0.276109 0.821068
O O9 0.250000 0.060867 0.500000
O O10 0.158755 0.000000 0.250000
#
# Coordination Sequence:
#
# PCOD9332969 Si02
#       5
#     8   8   4   8   4
#     4  10  22  37  62 102 141 185 242 293 365 435
#     4  10  24  44  68 103 146 191 241 301 371 432
#     4  10  20  34  58  96 142 184 224 296 354 428
#     4  10  18  30  53  92 136 179 226 291 354 407
#     4  10  22  40  62  98 144 186 236 300 372 426
#
# _framework density 24.784600999999999
#
# number of rings (size 3 to 8) (size 9 to 14) (size 15 to 20)
#    0.000    2.000    1.250    1.500    3.500   13.000 
#    0.000    0.000    0.000    0.000   55.250    0.000 
#    0.000    0.000    0.000    0.000    0.000    0.000 
#
# Total GULP energy -89141.907325 kJ/mol
# GULP energy per Si atom -5571.369208 kJ/mol
# Density = 2.472819 g / cm^3
# Si number density = 24.784601 Si / 1000 Ang^3
#
#
#
# Elastic Constant Matrix: (Units=GPa)
#
#
# Indices 1 2 3 4 5 6 
#
# 1 96.5620 31.7061 46.7560 0.0000 0.0000 0.0000
# 2 31.7061 89.4992 49.7311 0.0000 0.0000 0.0000
# 3 46.7560 49.7311 123.4748 0.0000 0.0000 0.0000
# 4 0.0000 0.0000 0.0000 37.0729 0.0000 0.0000
# 5 0.0000 0.0000 0.0000 0.0000 34.4923 0.0000
# 6 0.0000 0.0000 0.0000 0.0000 0.0000 5.7409
#
#
#
# Elastic Compliance Matrix: (Units=1/GPa)
#
#
# Indices 1 2 3 4 5 6 
#
# 1 0.013077 -0.002423 -0.003976 0.000000 0.000000 0.000000
# 2 -0.002423 0.014844 -0.005061 0.000000 0.000000 0.000000
# 3 -0.003976 -0.005061 0.011643 0.000000 0.000000 0.000000
# 4 0.000000 0.000000 0.000000 0.026974 0.000000 0.000000
# 5 0.000000 0.000000 0.000000 0.000000 0.028992 0.000000
# 6 0.000000 0.000000 0.000000 0.000000 0.000000 0.174187
#
#
# Mechanical properties :
#
#
# Convention : Reuss Voigt Hill
#
# Bulk Modulus (GPa) = 60.08433 62.88027 61.48230
# Shear Modulus (GPa) = 16.76815 27.55076 22.15945
#
# Velocity S-wave (km/s) = 2.60389 3.33770 2.99336
# Velocity P-wave (km/s) = 5.77369 6.34660 6.06692
#
# Compressibility (1/GPa) = 0.01664327
#
# Stress axis : x y z
#
# Youngs Moduli (GPa) = 76.47102 67.36745 85.89128
#
# Poissons Ratio (x) = 0.16326 0.34148
# Poissons Ratio (y) = 0.18533 0.43469
# Poissons Ratio (z) = 0.30403 0.34094
#
# Static dielectric constant tensor:
#      x y z
#    x 2.174300 0.000000 0.000000 
#    y 0.000000 2.023140 0.000000 
#    z 0.000000 0.000000 2.763710 
# 
# From -- ./inp_files/5275.got.cif
#   From: 2010.05.17/outbox.cif.g08.bks.cpg/sg24_3_cif.got.tgz:5275.got - 2010.06.04 00:33:39.
