data_PCOD9332560
_publ_section_title
;
Structure prediction by ZEFSAII (Michael W. Deem and Ramdas Pophale) SiO2 
 PCOD9332560
Probable space group: I 2 2 2
;
_chemical_formula_sum "Si O2"
_cell_formula_units_Z 32
_cell_length_a 19.299762
_cell_length_b 8.342932
_cell_length_c 9.032275
_cell_angle_alpha 90.000000
_cell_angle_beta 90.000000
_cell_angle_gamma 90.000000
_cell_volume 1454.346229
_symmetry_space_group_name_H-M "I 2 2 2"
_symmetry_group_IT_number 23
_symmetry_cell_setting 'orthorhombic'
loop_
_space_group_symop_operation_xyz
x,y,z
-x,-y,z
x,-y,-z
-x,y,-z
1/2+x,1/2+y,1/2+z
1/2-x,1/2-y,1/2+z
1/2+x,1/2-y,1/2-z
1/2-x,1/2+y,1/2-z
loop_
_atom_site_type_symbol
_atom_site_label
_atom_site_fract_x
_atom_site_fract_y
_atom_site_fract_z
Si Si1 0.294891 0.108273 0.135347
Si Si2 0.190617 0.380171 0.128624
Si Si3 0.080670 0.816414 0.329014
Si Si4 0.422806 0.687454 0.187754
O O1 0.240353 0.237199 0.076609
O O2 0.358159 0.198815 0.215341
O O3 0.264626 0.988781 0.257724
O O4 0.320104 0.000000 0.000000
O O5 0.128843 0.299992 0.222254
O O6 0.168395 0.500000 0.000000
O O7 0.085262 0.809456 0.509139
O O8 0.003027 0.767782 0.284221
O O9 0.088755 0.999511 0.276140
#
# Coordination Sequence:
#
# PCOD9332560 Si02
#       4
#     8   8   8   8
#     4  12  24  42  66  96 133 182 228 268 326 409
#     4  12  26  41  63 100 143 175 219 282 339 393
#     4   9  19  39  71  95 126 172 226 279 317 401
#     4   9  19  40  67 100 128 168 226 276 333 389
#
# _framework density 22.003011999999998
#
# number of rings (size 3 to 8) (size 9 to 14) (size 15 to 20)
#    0.000    1.500    2.500    4.500    3.500    1.000 
#    0.000    2.500    0.000    3.000    0.000    0.000 
#    0.000    0.000    0.000    0.000    0.000    0.000 
#
# Total GULP energy -89382.126531 kJ/mol
# GULP energy per Si atom -5586.382908 kJ/mol
# Density = 2.195293 g / cm^3
# Si number density = 22.003012 Si / 1000 Ang^3
#
#
#
# Elastic Constant Matrix: (Units=GPa)
#
#
# Indices 1 2 3 4 5 6 
#
# 1 122.5719 72.9780 25.4140 0.0000 0.0000 0.0000
# 2 72.9780 123.5738 46.9258 0.0000 0.0000 0.0000
# 3 25.4140 46.9258 55.5279 0.0000 0.0000 0.0000
# 4 0.0000 0.0000 0.0000 40.2408 0.0000 0.0000
# 5 0.0000 0.0000 0.0000 0.0000 21.1987 0.0000
# 6 0.0000 0.0000 0.0000 0.0000 0.0000 35.2472
#
#
#
# Elastic Compliance Matrix: (Units=1/GPa)
#
#
# Indices 1 2 3 4 5 6 
#
# 1 0.012605 -0.007736 0.000768 0.000000 0.000000 0.000000
# 2 -0.007736 0.016664 -0.010542 0.000000 0.000000 0.000000
# 3 0.000768 -0.010542 0.026566 0.000000 0.000000 0.000000
# 4 0.000000 0.000000 0.000000 0.024850 0.000000 0.000000
# 5 0.000000 0.000000 0.000000 0.000000 0.047173 0.000000
# 6 0.000000 0.000000 0.000000 0.000000 0.000000 0.028371
#
#
# Mechanical properties :
#
#
# Convention : Reuss Voigt Hill
#
# Bulk Modulus (GPa) = 48.03922 65.81213 56.92568
# Shear Modulus (GPa) = 25.22871 29.76106 27.49488
#
# Velocity S-wave (km/s) = 3.38983 3.68175 3.53880
# Velocity P-wave (km/s) = 6.09931 6.93175 6.52881
#
# Compressibility (1/GPa) = 0.02081633
#
# Stress axis : x y z
#
# Youngs Moduli (GPa) = 79.33382 60.00963 37.64184
#
# Poissons Ratio (x) = 0.46422 -0.02892
# Poissons Ratio (y) = 0.61371 0.39682
# Poissons Ratio (z) = -0.06096 0.63262
#
# Static dielectric constant tensor:
#      x y z
#    x 1.791910 0.000000 0.000000 
#    y 0.000000 1.820110 0.000000 
#    z 0.000000 0.000000 1.804690 
# 
# From -- ./inp_files/11606.got.cif
#   From: 2010.05.17/outbox.cif.g08.bks.cpg/sg23_6_cif.got.tgz:11606.got - 2010.06.04 12:02:01.
