data_PCOD9332034
_publ_section_title
;
Structure prediction by ZEFSAII (Michael W. Deem and Ramdas Pophale) SiO2 
 PCOD9332034
Probable space group: I 2 2 2
;
_chemical_formula_sum "Si O2"
_cell_formula_units_Z 22
_cell_length_a 12.170549
_cell_length_b 11.477783
_cell_length_c 6.909690
_cell_angle_alpha 90.000000
_cell_angle_beta 90.000000
_cell_angle_gamma 90.000000
_cell_volume 965.220956
_symmetry_space_group_name_H-M "I 2 2 2"
_symmetry_group_IT_number 23
_symmetry_cell_setting 'orthorhombic'
loop_
_space_group_symop_operation_xyz
x,y,z
-x,-y,z
x,-y,-z
-x,y,-z
1/2+x,1/2+y,1/2+z
1/2-x,1/2-y,1/2+z
1/2+x,1/2-y,1/2-z
1/2-x,1/2+y,1/2-z
loop_
_atom_site_type_symbol
_atom_site_label
_atom_site_fract_x
_atom_site_fract_y
_atom_site_fract_z
Si Si1 0.000000 0.814013 0.500000
Si Si2 0.353121 0.108039 0.154389
Si Si3 0.000000 0.500000 0.000000
Si Si4 0.401268 0.380881 0.618076
O O1 0.087341 0.723941 0.414815
O O2 0.052414 0.887711 0.668400
O O3 0.415051 0.065945 0.351389
O O4 0.225873 0.149436 0.152928
O O5 0.363986 0.000000 0.000000
O O6 0.391852 0.500000 0.500000
O O7 0.500000 0.314419 0.500000
#
# Coordination Sequence:
#
# PCOD9332034 Si02
#       4
#     4   8   2   8
#     4  12  25  43  74 108 138 194 255 287 370 446
#     4  11  25  46  72 111 147 187 245 311 367 440
#     4  12  22  44  76 104 150 188 238 302 380 414
#     4  10  27  47  70 101 150 194 240 304 368 431
#
# _framework density 22.792707
#
# number of rings (size 3 to 8) (size 9 to 14) (size 15 to 20)
#    0.000    1.091    3.636    0.000    7.636   11.636 
#    0.000    0.000    0.000    0.000    0.000    0.000 
#    0.000    0.000    0.000    0.000    0.000    0.000 
#
# Total GULP energy -61254.115040 kJ/mol
# GULP energy per Si atom -5568.555913 kJ/mol
# Density = 2.274083 g / cm^3
# Si number density = 22.792707 Si / 1000 Ang^3
#
#
#
# Elastic Constant Matrix: (Units=GPa)
#
#
# Indices 1 2 3 4 5 6 
#
# 1 270.4120 40.8387 88.8623 0.0000 0.0000 0.0000
# 2 40.8387 71.9243 45.3485 0.0000 0.0000 0.0000
# 3 88.8623 45.3485 181.7055 0.0000 0.0000 0.0000
# 4 0.0000 0.0000 0.0000 -11.8029 0.0000 0.0000
# 5 0.0000 0.0000 0.0000 0.0000 -18.9052 0.0000
# 6 0.0000 0.0000 0.0000 0.0000 0.0000 15.7210
#
#
#
# Elastic Compliance Matrix: (Units=1/GPa)
#
#
# Indices 1 2 3 4 5 6 
#
# 1 0.004521 -0.001392 -0.001863 0.000000 0.000000 0.000000
# 2 -0.001392 0.016928 -0.003544 0.000000 0.000000 0.000000
# 3 -0.001863 -0.003544 0.007299 0.000000 0.000000 0.000000
# 4 0.000000 0.000000 0.000000 -0.084725 0.000000 0.000000
# 5 0.000000 0.000000 0.000000 0.000000 -0.052896 0.000000
# 6 0.000000 0.000000 0.000000 0.000000 0.000000 0.063609
#
#
# Mechanical properties :
#
#
# Convention : Reuss Voigt Hill
#
# Bulk Modulus (GPa) = 66.00954 97.12676 81.56815
# Shear Modulus (GPa) = -187.86715 20.26874 -83.79920
#
# Velocity S-wave (km/s) = -9.08863 2.98529 -6.07006
# Velocity P-wave (km/s) = 9.00632 7.38838 3.64182
#
# Compressibility (1/GPa) = 0.01514933
#
# Stress axis : x y z
#
# Youngs Moduli (GPa) = 221.20835 59.07218 137.00095
#
# Poissons Ratio (x) = 0.08222 0.25529
# Poissons Ratio (y) = 0.30791 0.48555
# Poissons Ratio (z) = 0.41220 0.20936
#
# Static dielectric constant tensor:
#      x y z
#    x 3.066730 0.000000 0.000000 
#    y 0.000000 1.851900 0.000000 
#    z 0.000000 0.000000 1.832620 
# 
# From -- ./inp_files/1067.got.cif
#   From: 2010.05.17/outbox.cif.g08.bks.cpg/sg23_1_cif.got.tgz:1067.got - 2010.06.04 12:02:01.
