data_PCOD9332256
_publ_section_title
;
Structure prediction by ZEFSAII (Michael W. Deem and Ramdas Pophale) SiO2 
 PCOD9332256
Probable space group: I 2 2 2
;
_chemical_formula_sum "Si O2"
_cell_formula_units_Z 48
_cell_length_a 9.322137
_cell_length_b 13.842299
_cell_length_c 15.997916
_cell_angle_alpha 90.000000
_cell_angle_beta 90.000000
_cell_angle_gamma 90.000000
_cell_volume 2064.368004
_symmetry_space_group_name_H-M "I 2 2 2"
_symmetry_group_IT_number 23
_symmetry_cell_setting 'orthorhombic'
loop_
_space_group_symop_operation_xyz
x,y,z
-x,-y,z
x,-y,-z
-x,y,-z
1/2+x,1/2+y,1/2+z
1/2-x,1/2-y,1/2+z
1/2+x,1/2-y,1/2-z
1/2-x,1/2+y,1/2-z
loop_
_atom_site_type_symbol
_atom_site_label
_atom_site_fract_x
_atom_site_fract_y
_atom_site_fract_z
Si Si1 0.959923 0.624001 0.293079
Si Si2 0.500000 0.000000 0.500000
Si Si3 0.500000 0.500000 0.189532
Si Si4 0.504089 0.684420 0.306312
Si Si5 0.231155 0.856748 0.075804
Si Si6 0.282997 0.076813 0.634555
Si Si7 0.000000 0.000000 0.000000
Si Si8 0.781607 0.299223 0.392805
O O1 0.951714 0.731271 0.254352
O O2 0.860007 0.601102 0.371156
O O3 0.883082 0.566177 0.217223
O O4 0.117118 0.633911 0.335164
O O5 0.606724 0.938215 0.558463
O O6 0.520688 0.590462 0.250627
O O7 0.648839 0.502499 0.137422
O O8 0.646219 0.712212 0.358512
O O9 0.379076 0.669565 0.372529
O O10 0.296332 0.811575 0.992081
O O11 0.110702 0.934796 0.052707
O O12 0.214814 0.184786 0.628881
#
# Coordination Sequence:
#
# PCOD9332256 Si02
#       8
#     8   2   4   8   8   8   2   8
#     4  11  24  46  69 110 140 190 248 303 364 452
#     4  12  32  52  72 112 150 200 252 320 384 436
#     4  12  23  49  75 111 144 196 246 311 379 449
#     4  11  22  42  73 104 139 193 247 290 370 447
#     4  12  24  44  75 102 147 188 244 303 372 449
#     4  11  28  49  75 107 151 200 251 313 378 449
#     4  12  26  46  70 110 144 196 234 310 380 454
#     4  11  24  44  72 110 144 194 242 308 368 450
#
# _framework density 23.251667999999999
#
# number of rings (size 3 to 8) (size 9 to 14) (size 15 to 20)
#    0.000    0.667    5.000    2.000    7.000    1.667 
#    3.000    0.833    0.000    0.000    0.000    0.000 
#    0.000    0.000    0.000    0.000    0.000    0.000 
#
# Total GULP energy -133953.810920 kJ/mol
# GULP energy per Si atom -5581.408788 kJ/mol
# Density = 2.319875 g / cm^3
# Si number density = 23.251668 Si / 1000 Ang^3
#
#
#
# Elastic Constant Matrix: (Units=GPa)
#
#
# Indices 1 2 3 4 5 6 
#
# 1 102.6643 23.6736 29.6310 0.0000 0.0000 0.0000
# 2 23.6736 47.6522 32.4966 0.0000 0.0000 0.0000
# 3 29.6310 32.4966 116.2495 0.0000 0.0000 0.0000
# 4 0.0000 0.0000 0.0000 20.9040 0.0000 0.0000
# 5 0.0000 0.0000 0.0000 0.0000 53.4666 0.0000
# 6 0.0000 0.0000 0.0000 0.0000 0.0000 16.6561
#
#
#
# Elastic Compliance Matrix: (Units=1/GPa)
#
#
# Indices 1 2 3 4 5 6 
#
# 1 0.011240 -0.004485 -0.001611 0.000000 0.000000 0.000000
# 2 -0.004485 0.027718 -0.006605 0.000000 0.000000 0.000000
# 3 -0.001611 -0.006605 0.010859 0.000000 0.000000 0.000000
# 4 0.000000 0.000000 0.000000 0.047838 0.000000 0.000000
# 5 0.000000 0.000000 0.000000 0.000000 0.018703 0.000000
# 6 0.000000 0.000000 0.000000 0.000000 0.000000 0.060038
#
#
# Mechanical properties :
#
#
# Convention : Reuss Voigt Hill
#
# Bulk Modulus (GPa) = 40.95982 48.68538 44.82260
# Shear Modulus (GPa) = 23.81667 30.25633 27.03650
#
# Velocity S-wave (km/s) = 3.20394 3.61120 3.41365
# Velocity P-wave (km/s) = 5.59831 6.19448 5.90393
#
# Compressibility (1/GPa) = 0.02441417
#
# Stress axis : x y z
#
# Youngs Moduli (GPa) = 88.97009 36.07762 92.08730
#
# Poissons Ratio (x) = 0.16181 0.14836
# Poissons Ratio (y) = 0.39905 0.60825
# Poissons Ratio (z) = 0.14334 0.23830
#
# Static dielectric constant tensor:
#      x y z
#    x 1.886400 0.000000 0.000000 
#    y 0.000000 1.903250 0.000000 
#    z 0.000000 0.000000 2.008470 
# 
# From -- ./inp_files/23775.got.cif
#   From: 2010.05.17/outbox.cif.g08.bks.cpg/sg23_12_cif.got.tgz:23775.got - 2010.06.04 12:02:01.
