data_PCOD9332441
_publ_section_title
;
Structure prediction by ZEFSAII (Michael W. Deem and Ramdas Pophale) SiO2 
 PCOD9332441
Probable space group: I 2 2 2
;
_chemical_formula_sum "Si O2"
_cell_formula_units_Z 32
_cell_length_a 16.388544
_cell_length_b 6.184804
_cell_length_c 13.411489
_cell_angle_alpha 90.000000
_cell_angle_beta 90.000000
_cell_angle_gamma 90.000000
_cell_volume 1359.387620
_symmetry_space_group_name_H-M "I 2 2 2"
_symmetry_group_IT_number 23
_symmetry_cell_setting 'orthorhombic'
loop_
_space_group_symop_operation_xyz
x,y,z
-x,-y,z
x,-y,-z
-x,y,-z
1/2+x,1/2+y,1/2+z
1/2-x,1/2-y,1/2+z
1/2+x,1/2-y,1/2-z
1/2-x,1/2+y,1/2-z
loop_
_atom_site_type_symbol
_atom_site_label
_atom_site_fract_x
_atom_site_fract_y
_atom_site_fract_z
Si Si1 0.921907 0.886675 0.891882
Si Si2 0.209029 0.000000 0.500000
Si Si3 0.355940 0.812997 0.167222
Si Si4 0.500000 0.000000 0.707503
Si Si5 0.734298 0.649787 0.643085
O O1 0.941288 0.639631 0.865732
O O2 0.833164 0.961716 0.860770
O O3 0.000000 0.000000 0.840063
O O4 0.923525 0.000000 0.000000
O O5 0.155307 0.131689 0.418041
O O6 0.266914 0.170806 0.556978
O O7 0.290797 0.759253 0.254154
O O8 0.442063 0.857006 0.220514
O O9 0.322926 0.044725 0.130652
#
# Coordination Sequence:
#
# PCOD9332441 Si02
#       5
#     8   4   8   4   8
#     4  11  25  43  73 114 156 199 258 319 397 452
#     4  12  28  50  85 113 154 208 270 324 384 469
#     4  12  26  49  81 112 160 204 265 318 397 465
#     4  12  28  49  77 116 166 210 252 326 388 476
#     4  12  25  49  80 114 148 211 262 326 387 462
#
# _framework density 23.540012999999998
#
# number of rings (size 3 to 8) (size 9 to 14) (size 15 to 20)
#    0.000    0.250    5.000    3.750    3.500    2.000 
#    0.000    3.750    0.000    0.000    0.000    0.000 
#    0.000    0.000    0.000    0.000    0.000    0.000 
#
# Total GULP energy -89236.588553 kJ/mol
# GULP energy per Si atom -5577.286785 kJ/mol
# Density = 2.348643 g / cm^3
# Si number density = 23.540013 Si / 1000 Ang^3
#
#
#
# Elastic Constant Matrix: (Units=GPa)
#
#
# Indices 1 2 3 4 5 6 
#
# 1 121.7948 54.3722 58.1304 0.0000 0.0000 0.0000
# 2 54.3722 117.1050 79.5997 0.0000 0.0000 0.0000
# 3 58.1304 79.5997 138.9308 0.0000 0.0000 0.0000
# 4 0.0000 0.0000 0.0000 54.7771 0.0000 0.0000
# 5 0.0000 0.0000 0.0000 0.0000 -60.6080 0.0000
# 6 0.0000 0.0000 0.0000 0.0000 0.0000 29.5916
#
#
#
# Elastic Compliance Matrix: (Units=1/GPa)
#
#
# Indices 1 2 3 4 5 6 
#
# 1 0.010957 -0.003228 -0.002735 0.000000 0.000000 0.000000
# 2 -0.003228 0.014937 -0.007208 0.000000 0.000000 0.000000
# 3 -0.002735 -0.007208 0.012472 0.000000 0.000000 0.000000
# 4 0.000000 0.000000 0.000000 0.018256 0.000000 0.000000
# 5 0.000000 0.000000 0.000000 0.000000 -0.016499 0.000000
# 6 0.000000 0.000000 0.000000 0.000000 0.000000 0.033793
#
#
# Mechanical properties :
#
#
# Convention : Reuss Voigt Hill
#
# Bulk Modulus (GPa) = 83.16324 84.67058 83.91691
# Shear Modulus (GPa) = 47.95437 17.13403 32.54420
#
# Velocity S-wave (km/s) = 4.51837 2.70083 3.72224
# Velocity P-wave (km/s) = 7.91366 6.76556 7.36203
#
# Compressibility (1/GPa) = 0.01202454
#
# Stress axis : x y z
#
# Youngs Moduli (GPa) = 91.26511 66.94564 80.18180
#
# Poissons Ratio (x) = 0.21613 0.21929
# Poissons Ratio (y) = 0.29464 0.57791
# Poissons Ratio (z) = 0.24960 0.48251
#
# Static dielectric constant tensor:
#      x y z
#    x 1.973630 0.000000 0.000000 
#    y 0.000000 2.272300 0.000000 
#    z 0.000000 0.000000 1.923640 
# 
# From -- ./inp_files/2205.got.cif
#   From: 2010.05.17/outbox.cif.g08.bks.cpg/sg23_2_cif.got.tgz:2205.got - 2010.06.04 12:02:01.
