data_PCOD9332159
_publ_section_title
;
Structure prediction by ZEFSAII (Michael W. Deem and Ramdas Pophale) SiO2 
 PCOD9332159
Probable space group: I 2 2 2
;
_chemical_formula_sum "Si O2"
_cell_formula_units_Z 40
_cell_length_a 14.987644
_cell_length_b 17.162992
_cell_length_c 6.211216
_cell_angle_alpha 90.000000
_cell_angle_beta 90.000000
_cell_angle_gamma 90.000000
_cell_volume 1597.728570
_symmetry_space_group_name_H-M "I 2 2 2"
_symmetry_group_IT_number 23
_symmetry_cell_setting 'orthorhombic'
loop_
_space_group_symop_operation_xyz
x,y,z
-x,-y,z
x,-y,-z
-x,y,-z
1/2+x,1/2+y,1/2+z
1/2-x,1/2-y,1/2+z
1/2+x,1/2-y,1/2-z
1/2-x,1/2+y,1/2-z
loop_
_atom_site_type_symbol
_atom_site_label
_atom_site_fract_x
_atom_site_fract_y
_atom_site_fract_z
Si Si1 0.302887 0.424887 0.617562
Si Si2 0.982701 0.872120 0.254925
Si Si3 0.288790 0.187683 0.780045
Si Si4 0.890875 0.725546 0.662913
Si Si5 0.636446 0.079230 0.594502
O O1 0.342099 0.500000 0.500000
O O2 0.375915 0.377484 0.748608
O O3 0.262105 0.371837 0.433941
O O4 0.220928 0.449778 0.766610
O O5 0.000000 0.907758 0.500000
O O6 0.043348 0.794223 0.267996
O O7 0.000000 0.898455 0.000000
O O8 0.211220 0.250178 0.729660
O O9 0.324595 0.137457 0.583847
O O10 0.375215 0.217996 0.908296
O O11 0.917040 0.641026 0.757188
O O12 0.595885 0.000000 0.500000
#
# Coordination Sequence:
#
# PCOD9332159 Si02
#       5
#     8   8   8   8   8
#     4  11  24  43  69 105 151 194 240 301 386 464
#     4  12  28  46  69 106 150 200 247 299 371 453
#     4  11  21  40  68 101 138 184 248 306 363 436
#     4  11  24  39  69 101 136 192 249 303 360 440
#     4  11  23  42  73 107 142 187 248 313 373 434
#
# _framework density 25.035540000000001
#
# number of rings (size 3 to 8) (size 9 to 14) (size 15 to 20)
#    0.000    0.800    6.000    1.200    5.600    0.400 
#    0.000    1.000    0.000    0.600    0.000    0.000 
#    0.000    0.000    0.000    0.000    0.000    0.000 
#
# Total GULP energy -111578.380074 kJ/mol
# GULP energy per Si atom -5578.919004 kJ/mol
# Density = 2.497856 g / cm^3
# Si number density = 25.035540 Si / 1000 Ang^3
#
#
#
# Elastic Constant Matrix: (Units=GPa)
#
#
# Indices 1 2 3 4 5 6 
#
# 1 92.2760 33.9570 19.1942 0.0000 0.0000 0.0000
# 2 33.9570 160.9565 43.3645 0.0000 0.0000 0.0000
# 3 19.1942 43.3645 135.0954 0.0000 0.0000 0.0000
# 4 0.0000 0.0000 0.0000 53.6721 0.0000 0.0000
# 5 0.0000 0.0000 0.0000 0.0000 11.6579 0.0000
# 6 0.0000 0.0000 0.0000 0.0000 0.0000 33.7892
#
#
#
# Elastic Compliance Matrix: (Units=1/GPa)
#
#
# Indices 1 2 3 4 5 6 
#
# 1 0.011863 -0.002243 -0.000966 0.000000 0.000000 0.000000
# 2 -0.002243 0.007225 -0.002001 0.000000 0.000000 0.000000
# 3 -0.000966 -0.002001 0.008182 0.000000 0.000000 0.000000
# 4 0.000000 0.000000 0.000000 0.018632 0.000000 0.000000
# 5 0.000000 0.000000 0.000000 0.000000 0.085778 0.000000
# 6 0.000000 0.000000 0.000000 0.000000 0.000000 0.029595
#
#
# Mechanical properties :
#
#
# Convention : Reuss Voigt Hill
#
# Bulk Modulus (GPa) = 59.33979 64.59549 61.96764
# Shear Modulus (GPa) = 28.19920 39.27798 33.73859
#
# Velocity S-wave (km/s) = 3.35978 3.96522 3.67499
# Velocity P-wave (km/s) = 6.22933 6.84262 6.54316
#
# Compressibility (1/GPa) = 0.01685210
#
# Stress axis : x y z
#
# Youngs Moduli (GPa) = 84.29433 138.40905 122.22653
#
# Poissons Ratio (x) = 0.31040 0.11803
# Poissons Ratio (y) = 0.18904 0.24452
# Poissons Ratio (z) = 0.08140 0.27689
#
# Static dielectric constant tensor:
#      x y z
#    x 1.865110 0.000000 0.000000 
#    y 0.000000 2.081090 0.000000 
#    z 0.000000 0.000000 2.109250 
# 
# From -- ./inp_files/3121.got.cif
#   From: 2010.05.17/outbox.cif.g08.bks.cpg/sg23_2_cif.got.tgz:3121.got - 2010.06.04 12:02:01.
