data_PCOD9332785
_publ_section_title
;
Structure prediction by ZEFSAII (Michael W. Deem and Ramdas Pophale) SiO2 
 PCOD9332785
Probable space group: I 21 21 21
;
_chemical_formula_sum "Si O2"
_cell_formula_units_Z 64
_cell_length_a 18.563385
_cell_length_b 18.241453
_cell_length_c 9.833569
_cell_angle_alpha 90.000000
_cell_angle_beta 90.000000
_cell_angle_gamma 90.000000
_cell_volume 3329.873766
_symmetry_space_group_name_H-M "I 21 21 21"
_symmetry_group_IT_number 24
_symmetry_cell_setting 'orthorhombic'
loop_
_space_group_symop_operation_xyz
x,y,z
-x,1/2-y,z
x,-y,1/2-z
1/2-x,y,-z
1/2+x,1/2+y,1/2+z
1/2-x,-y,1/2+z
1/2+x,1/2-y,-z
-x,1/2+y,1/2-z
loop_
_atom_site_type_symbol
_atom_site_label
_atom_site_fract_x
_atom_site_fract_y
_atom_site_fract_z
Si Si1 0.398640 0.933344 0.994456
Si Si2 0.616712 0.782244 0.190623
Si Si3 0.421820 0.779677 0.894330
Si Si4 0.338289 0.084299 0.002585
Si Si5 0.448447 0.809775 0.440504
Si Si6 0.216699 0.077365 0.717634
Si Si7 0.019948 0.582574 0.771039
Si Si8 0.730888 0.268078 0.660675
O O1 0.323162 0.920001 0.073956
O O2 0.460095 0.926052 0.109725
O O3 0.381874 0.015267 0.942632
O O4 0.414327 0.868050 0.890035
O O5 0.583951 0.736696 0.315092
O O6 0.582104 0.861974 0.181759
O O7 0.702664 0.780578 0.211137
O O8 0.591911 0.740002 0.054171
O O9 0.500000 0.750000 0.856209
O O10 0.351517 0.744649 0.823690
O O11 0.383182 0.157115 0.971590
O O12 0.344853 0.077069 0.167404
O O13 0.250000 0.085562 0.000000
O O14 0.500000 0.750000 0.511619
O O15 0.490605 0.877265 0.366741
O O16 0.261099 0.151287 0.726224
O O17 0.255027 0.000000 0.750000
O O18 0.045892 0.500000 0.750000
O O19 0.750000 0.274206 0.500000
#
# Coordination Sequence:
#
# PCOD9332785 Si02
#       8
#     8   8   8   8   8   8   8   8
#     4  11  17  27  40  65 105 124 144 178 228 284
#     4  10  17  27  43  67  91 121 147 190 228 279
#     4  11  18  27  43  67  95 130 154 179 226 286
#     4  11  21  28  43  68  97 129 154 179 230 283
#     4  10  17  29  45  64  91 121 149 187 229 268
#     4  10  18  27  39  64  98 125 145 177 222 276
#     4  11  16  26  44  64  96 123 143 178 240 282
#     4  10  18  29  45  63  96 127 155 185 235 273
#
# _framework density 19.219947000000001
#
# number of rings (size 3 to 8) (size 9 to 14) (size 15 to 20)
#    0.000    1.500    8.750    0.750    3.500    0.000 
#    0.000    0.000    0.000    0.750    0.000   14.875 
#    0.000    0.000    0.000    0.000    0.000    0.000 
#
# Total GULP energy -178233.432458 kJ/mol
# GULP energy per Si atom -5569.794764 kJ/mol
# Density = 1.917620 g / cm^3
# Si number density = 19.219947 Si / 1000 Ang^3
#
#
#
# Elastic Constant Matrix: (Units=GPa)
#
#
# Indices 1 2 3 4 5 6 
#
# 1 158.6115 73.9104 7.1225 0.0000 0.0000 0.0000
# 2 73.9104 136.5170 4.7933 0.0000 0.0000 0.0000
# 3 7.1225 4.7933 16.4170 0.0000 0.0000 0.0000
# 4 0.0000 0.0000 0.0000 9.4602 0.0000 0.0000
# 5 0.0000 0.0000 0.0000 0.0000 21.3966 0.0000
# 6 0.0000 0.0000 0.0000 0.0000 0.0000 18.6652
#
#
#
# Elastic Compliance Matrix: (Units=1/GPa)
#
#
# Indices 1 2 3 4 5 6 
#
# 1 0.008523 -0.004531 -0.002375 0.000000 0.000000 0.000000
# 2 -0.004531 0.009810 -0.000898 0.000000 0.000000 0.000000
# 3 -0.002375 -0.000898 0.062205 0.000000 0.000000 0.000000
# 4 0.000000 0.000000 0.000000 0.105706 0.000000 0.000000
# 5 0.000000 0.000000 0.000000 0.000000 0.046736 0.000000
# 6 0.000000 0.000000 0.000000 0.000000 0.000000 0.053575
#
#
# Mechanical properties :
#
#
# Convention : Reuss Voigt Hill
#
# Bulk Modulus (GPa) = 15.40137 53.68868 34.54502
# Shear Modulus (GPa) = 15.44133 24.95237 20.19685
#
# Velocity S-wave (km/s) = 2.83751 3.60704 3.24516
# Velocity P-wave (km/s) = 4.33196 6.73365 5.66162
#
# Compressibility (1/GPa) = 0.06492930
#
# Stress axis : x y z
#
# Youngs Moduli (GPa) = 117.33484 101.94091 16.07591
#
# Poissons Ratio (x) = 0.46187 0.03818
# Poissons Ratio (y) = 0.53162 0.01444
# Poissons Ratio (z) = 0.27863 0.09159
#
# Static dielectric constant tensor:
#      x y z
#    x 1.740530 0.000000 0.000000 
#    y 0.000000 1.734250 0.000000 
#    z 0.000000 0.000000 1.771850 
# 
# From -- ./inp_files/21787.got.cif
#   From: 2010.05.17/outbox.cif.g08.bks.cpg/sg24_11_cif.got.tgz:21787.got - 2010.06.04 00:33:39.
