data_PCOD9332753
_publ_section_title
;
Structure prediction by ZEFSAII (Michael W. Deem and Ramdas Pophale) SiO2 
 PCOD9332753
Probable space group: I 21 21 21
;
_chemical_formula_sum "Si O2"
_cell_formula_units_Z 52
_cell_length_a 15.379706
_cell_length_b 8.413417
_cell_length_c 20.335708
_cell_angle_alpha 90.000000
_cell_angle_beta 90.000000
_cell_angle_gamma 90.000000
_cell_volume 2631.356830
_symmetry_space_group_name_H-M "I 21 21 21"
_symmetry_group_IT_number 24
_symmetry_cell_setting 'orthorhombic'
loop_
_space_group_symop_operation_xyz
x,y,z
-x,1/2-y,z
x,-y,1/2-z
1/2-x,y,-z
1/2+x,1/2+y,1/2+z
1/2-x,-y,1/2+z
1/2+x,1/2-y,-z
-x,1/2+y,1/2-z
loop_
_atom_site_type_symbol
_atom_site_label
_atom_site_fract_x
_atom_site_fract_y
_atom_site_fract_z
Si Si1 0.750000 0.792572 0.500000
Si Si2 0.662074 0.027822 0.601936
Si Si3 0.326406 0.427166 0.180217
Si Si4 0.009957 0.940157 0.439269
Si Si5 0.485786 0.557913 0.413344
Si Si6 0.805071 0.390379 0.432050
Si Si7 0.329605 0.095570 0.121863
O O1 0.806026 0.691034 0.552907
O O2 0.689054 0.904608 0.543918
O O3 0.674966 0.207954 0.580421
O O4 0.731124 0.985259 0.658238
O O5 0.559724 0.003551 0.613118
O O6 0.348797 0.500000 0.250000
O O7 0.399950 0.480057 0.127476
O O8 0.328221 0.234889 0.175574
O O9 0.000000 0.750000 0.438006
O O10 0.981209 0.998553 0.511956
O O11 0.107643 0.003736 0.432696
O O12 0.500000 0.750000 0.413929
O O13 0.577907 0.508377 0.382588
O O14 0.750000 0.397613 0.500000
O O15 0.744928 0.465288 0.375413
#
# Coordination Sequence:
#
# PCOD9332753 Si02
#       7
#     4   8   8   8   8   8   8
#     4  10  16  32  58  84 116 158 190 242 302 366
#     4  11  22  35  55  86 123 151 195 252 304 353
#     4  10  22  40  60  80 112 165 220 254 284 336
#     4  11  20  36  63  91 122 154 192 239 307 382
#     4   9  17  31  56  84 114 150 194 243 292 354
#     4  12  22  35  56  94 129 153 181 240 323 382
#     4  10  18  36  59  85 121 159 203 240 296 378
#
# _framework density 19.761668
#
# number of rings (size 3 to 8) (size 9 to 14) (size 15 to 20)
#    0.000    1.538    3.077    6.000    0.000    0.000 
#    0.000    6.154    0.000    5.538    0.000    0.000 
#    0.000    0.000    0.000    0.000    0.000    0.000 
#
# Total GULP energy -145065.685475 kJ/mol
# GULP energy per Si atom -5579.449441 kJ/mol
# Density = 1.971669 g / cm^3
# Si number density = 19.761668 Si / 1000 Ang^3
#
#
#
# Elastic Constant Matrix: (Units=GPa)
#
#
# Indices 1 2 3 4 5 6 
#
# 1 150.7321 16.0139 9.3810 0.0000 0.0000 0.0000
# 2 16.0139 75.9201 -2.4866 0.0000 0.0000 0.0000
# 3 9.3810 -2.4866 29.2300 0.0000 0.0000 0.0000
# 4 0.0000 0.0000 0.0000 10.1214 0.0000 0.0000
# 5 0.0000 0.0000 0.0000 0.0000 13.2030 0.0000
# 6 0.0000 0.0000 0.0000 0.0000 0.0000 21.2663
#
#
#
# Elastic Compliance Matrix: (Units=1/GPa)
#
#
# Indices 1 2 3 4 5 6 
#
# 1 0.006945 -0.001542 -0.002360 0.000000 0.000000 0.000000
# 2 -0.001542 0.013551 0.001648 0.000000 0.000000 0.000000
# 3 -0.002360 0.001648 0.035109 0.000000 0.000000 0.000000
# 4 0.000000 0.000000 0.000000 0.098800 0.000000 0.000000
# 5 0.000000 0.000000 0.000000 0.000000 0.075740 0.000000
# 6 0.000000 0.000000 0.000000 0.000000 0.000000 0.047023
#
#
# Mechanical properties :
#
#
# Convention : Reuss Voigt Hill
#
# Bulk Modulus (GPa) = 19.57105 33.52207 26.54656
# Shear Modulus (GPa) = 16.73867 24.44975 20.59421
#
# Velocity S-wave (km/s) = 2.91353 3.52125 3.23170
# Velocity P-wave (km/s) = 4.60904 5.79070 5.23333
#
# Compressibility (1/GPa) = 0.05109587
#
# Stress axis : x y z
#
# Youngs Moduli (GPa) = 143.98812 73.79527 28.48272
#
# Poissons Ratio (x) = 0.11381 0.06722
# Poissons Ratio (y) = 0.22206 -0.04693
# Poissons Ratio (z) = 0.33983 -0.12160
#
# Static dielectric constant tensor:
#      x y z
#    x 1.776430 0.000000 0.000000 
#    y 0.000000 1.720900 0.000000 
#    z 0.000000 0.000000 1.680730 
# 
# From -- ./inp_files/33722.got.cif
#   From: 2010.05.17/outbox.cif.g08.bks.cpg/sg24_17_cif.got.tgz:33722.got - 2010.06.04 00:33:39.
