data_PCOD9332645
_publ_section_title
;
Structure prediction by ZEFSAII (Michael W. Deem and Ramdas Pophale) SiO2 
 PCOD9332645
Probable space group: I 2 2 2
;
_chemical_formula_sum "Si O2"
_cell_formula_units_Z 28
_cell_length_a 21.000000
_cell_length_b 15.000000
_cell_length_c 9.000000
_cell_angle_alpha 90.000000
_cell_angle_beta 90.000000
_cell_angle_gamma 90.000000
_cell_volume 2835.000000
_symmetry_space_group_name_H-M "I 2 2 2"
_symmetry_group_IT_number 23
_symmetry_cell_setting 'orthorhombic'
loop_
_space_group_symop_operation_xyz
x,y,z
-x,-y,z
x,-y,-z
-x,y,-z
1/2+x,1/2+y,1/2+z
1/2-x,1/2-y,1/2+z
1/2+x,1/2-y,1/2-z
1/2-x,1/2+y,1/2-z
loop_
_atom_site_type_symbol
_atom_site_label
_atom_site_fract_x
_atom_site_fract_y
_atom_site_fract_z
Si Si1 0.706849 0.132651 0.683503
Si Si2 0.000000 0.295555 0.000000
Si Si3 0.058044 0.579114 0.244005
Si Si4 0.588176 0.716565 0.747625
Si Si5 0.073452 0.986702 0.821393
Si Si6 0.000000 0.305848 0.500000
Si Si7 0.225229 0.699360 0.831610
Si Si8 0.213014 0.973242 0.178684
O O1 0.636860 0.083808 0.719254
O O2 0.725464 0.218327 0.790670
O O3 0.716000 0.167989 0.508575
O O4 0.757709 0.055877 0.727642
O O5 0.046491 0.239000 0.101893
O O6 0.961552 0.358827 0.108452
O O7 0.043343 0.630683 0.396658
O O8 0.000000 0.500000 0.240747
O O9 0.593801 0.610537 0.737494
O O10 0.546656 0.749976 0.889760
O O11 0.656086 0.765738 0.727162
O O12 0.137613 0.043215 0.785139
O O13 0.000000 0.000000 0.766807
O O14 0.069206 0.000000 0.000000
O O15 0.248842 0.614620 0.733555
O O16 0.218149 0.000000 0.000000
#
# Coordination Sequence:
#
# PCOD9332645 Si02
#       8
#     8   4   8   8   8   4   8   8
#     4  12  27  47  75 107 152 209 252 324 379 464
#     4  10  21  40  67 100 138 186 254 300 365 447
#     4  11  25  42  69 102 146 198 257 307 378 446
#     4  11  23  47  71 108 142 192 245 311 380 459
#     4  10  22  44  75 102 134 178 245 306 366 447
#     4  10  27  42  67 108 146 188 242 318 383 455
#     4  12  27  47  76 107 157 199 263 309 391 464
#     4  11  26  44  73 110 147 195 251 312 386 453
#
# _framework density 9.8765429999999999
#
# number of rings (size 3 to 8) (size 9 to 14) (size 15 to 20)
#    0.000    1.000    2.857    2.571   10.000    3.429 
#    0.000    0.357    0.000    0.000    0.000    0.000 
#    0.000    0.000    0.000    0.000    0.000    0.000 
#
# Total GULP energy -155874.428083 kJ/mol
# GULP energy per Si atom -5566.943860 kJ/mol
# Density = 0.985406 g / cm^3
# Si number density = 9.876543 Si / 1000 Ang^3
#
#
#
# Elastic Constant Matrix: (Units=GPa)
#
#
# Indices 1 2 3 4 5 6 
#
# 1 177.0584 37.3645 28.8302 0.0000 0.0000 0.0000
# 2 37.3645 98.6774 17.1125 0.0000 0.0000 0.0000
# 3 28.8302 17.1125 97.2986 0.0000 0.0000 0.0000
# 4 0.0000 0.0000 0.0000 -68.8564 0.0000 0.0000
# 5 0.0000 0.0000 0.0000 0.0000 19.2604 0.0000
# 6 0.0000 0.0000 0.0000 0.0000 0.0000 49.5203
#
#
#
# Elastic Compliance Matrix: (Units=1/GPa)
#
#
# Indices 1 2 3 4 5 6 
#
# 1 0.006345 -0.002142 -0.001503 0.000000 0.000000 0.000000
# 2 -0.002142 0.011176 -0.001331 0.000000 0.000000 0.000000
# 3 -0.001503 -0.001331 0.010957 0.000000 0.000000 0.000000
# 4 0.000000 0.000000 0.000000 -0.014523 0.000000 0.000000
# 5 0.000000 0.000000 0.000000 0.000000 0.051920 0.000000
# 6 0.000000 0.000000 0.000000 0.000000 0.000000 0.020194
#
#
# Mechanical properties :
#
#
# Convention : Reuss Voigt Hill
#
# Bulk Modulus (GPa) = 53.97909 59.96099 56.97004
# Shear Modulus (GPa) = 48.92585 19.29998 34.11291
#
# Velocity S-wave (km/s) = 4.98222 3.12919 4.16019
# Velocity P-wave (km/s) = 7.77707 6.59370 7.20971
#
# Compressibility (1/GPa) = 0.01852569
#
# Stress axis : x y z
#
# Youngs Moduli (GPa) = 157.61457 89.47892 91.26455
#
# Poissons Ratio (x) = 0.19164 0.13719
# Poissons Ratio (y) = 0.33756 0.12147
# Poissons Ratio (z) = 0.23694 0.11909
#
# Static dielectric constant tensor:
#      x y z
#    x 1.795360 0.000000 0.000000 
#    y 0.000000 1.738050 0.000000 
#    z 0.000000 0.000000 1.594740 
# 
# From -- ./inp_files/12095.got.cif
#   From: 2010.05.17/outbox.ucp.g08.bks.cvg/sg23_7_cif.got.tgz:12095.got - 2010.06.11 15:19:07.
