data_PCOD9332683
_publ_section_title
;
Structure prediction by ZEFSAII (Michael W. Deem and Ramdas Pophale) SiO2 
 PCOD9332683
Probable space group: I 21 21 21
;
_chemical_formula_sum "Si O2"
_cell_formula_units_Z 32
_cell_length_a 5.120022
_cell_length_b 34.601455
_cell_length_c 7.086321
_cell_angle_alpha 90.000000
_cell_angle_beta 90.000000
_cell_angle_gamma 90.000000
_cell_volume 1255.414122
_symmetry_space_group_name_H-M "I 21 21 21"
_symmetry_group_IT_number 24
_symmetry_cell_setting 'orthorhombic'
loop_
_space_group_symop_operation_xyz
x,y,z
-x,1/2-y,z
x,-y,1/2-z
1/2-x,y,-z
1/2+x,1/2+y,1/2+z
1/2-x,-y,1/2+z
1/2+x,1/2-y,-z
-x,1/2+y,1/2-z
loop_
_atom_site_type_symbol
_atom_site_label
_atom_site_fract_x
_atom_site_fract_y
_atom_site_fract_z
Si Si1 0.227669 0.586805 0.729443
Si Si2 0.729881 0.544594 0.723321
Si Si3 0.204594 0.784467 0.273406
Si Si4 0.718803 0.173440 0.228520
O O1 0.250000 0.586926 0.500000
O O2 0.510619 0.573576 0.796889
O O3 0.142250 0.630099 0.779692
O O4 0.015992 0.555585 0.793275
O O5 0.659981 0.500000 0.750000
O O6 0.750000 0.550768 0.500000
O O7 0.250000 0.780793 0.500000
O O8 0.499684 0.795116 0.208967
O O9 0.000000 0.750000 0.223603
O O10 0.017844 0.819703 0.213569
O O11 0.750000 0.176610 0.000000
#
# Coordination Sequence:
#
# PCOD9332683 Si02
#       4
#     8   8   8   8
#     4   9  17  29  43  60  81 109 146 185 219 259
#     4  10  19  31  47  66  88 113 146 186 225 266
#     4  10  16  22  31  47  71 101 138 178 212 244
#     4   9  16  24  35  49  70 101 138 177 211 245
#
# _framework density 25.489594
#
# number of rings (size 3 to 8) (size 9 to 14) (size 15 to 20)
#    0.000    2.500    0.000    5.250    0.000    6.000 
#    0.000    0.000    0.000    0.000    0.000    0.000 
#    0.000    0.000    0.000    0.000    0.000   70.000 
#
# Total GULP energy -89271.703403 kJ/mol
# GULP energy per Si atom -5579.481463 kJ/mol
# Density = 2.543158 g / cm^3
# Si number density = 25.489594 Si / 1000 Ang^3
#
#
#
# Elastic Constant Matrix: (Units=GPa)
#
#
# Indices 1 2 3 4 5 6 
#
# 1 185.3908 53.3311 -9.9517 -0.0001 0.0000 -0.0005
# 2 53.3311 127.4935 -16.8277 -0.0005 0.0000 -0.0009
# 3 -9.9517 -16.8277 108.8937 -0.0019 -0.0001 -0.0012
# 4 -0.0001 -0.0005 -0.0019 6.8716 0.0001 0.0010
# 5 0.0000 0.0000 -0.0001 0.0001 -21.9404 -0.0004
# 6 -0.0005 -0.0009 -0.0012 0.0010 -0.0004 126.5161
#
#
#
# Elastic Compliance Matrix: (Units=1/GPa)
#
#
# Indices 1 2 3 4 5 6 
#
# 1 0.006135 -0.002544 0.000168 0.000000 0.000000 0.000000
# 2 -0.002544 0.009062 0.001168 0.000001 0.000000 0.000000
# 3 0.000168 0.001168 0.009379 0.000003 0.000000 0.000000
# 4 0.000000 0.000001 0.000003 0.145527 0.000001 -0.000001
# 5 0.000000 0.000000 0.000000 0.000001 -0.045578 0.000000
# 6 0.000000 0.000000 0.000000 -0.000001 0.000000 0.007904
#
#
# Mechanical properties :
#
#
# Convention : Reuss Voigt Hill
#
# Bulk Modulus (GPa) = 45.12987 52.76463 48.94725
# Shear Modulus (GPa) = 35.15359 48.63787 41.89573
#
# Velocity S-wave (km/s) = 3.71770 4.37297 4.05858
# Velocity P-wave (km/s) = 6.01432 6.80019 6.41929
#
# Compressibility (1/GPa) = 0.02215827
#
# Stress axis : x y z
#
# Youngs Moduli (GPa) = 163.00261 110.35212 106.62062
#
# Poissons Ratio (x) = 0.28075 -0.01786
# Poissons Ratio (y) = 0.41470 -0.12452
# Poissons Ratio (z) = -0.02730 -0.12888
#
# Static dielectric constant tensor:
#      x y z
#    x 1.923190 0.000000 0.000000 
#    y 0.000000 1.989710 0.000000 
#    z 0.000000 0.000000 2.100460 
# 
# From -- ./inp_files/17699.got.cif
#   From: 2010.05.17/outbox.cif.g08.bks.cpg/sg24_9_cif.got.tgz:17699.got - 2010.06.04 00:33:39.
