data_PCOD9332342
_publ_section_title
;
Structure prediction by ZEFSAII (Michael W. Deem and Ramdas Pophale) SiO2 
 PCOD9332342
Probable space group: I 2 2 2
;
_chemical_formula_sum "Si O2"
_cell_formula_units_Z 40
_cell_length_a 6.937548
_cell_length_b 12.483837
_cell_length_c 21.602834
_cell_angle_alpha 90.000000
_cell_angle_beta 90.000000
_cell_angle_gamma 90.000000
_cell_volume 1870.961363
_symmetry_space_group_name_H-M "I 2 2 2"
_symmetry_group_IT_number 23
_symmetry_cell_setting 'orthorhombic'
loop_
_space_group_symop_operation_xyz
x,y,z
-x,-y,z
x,-y,-z
-x,y,-z
1/2+x,1/2+y,1/2+z
1/2-x,1/2-y,1/2+z
1/2+x,1/2-y,1/2-z
1/2-x,1/2+y,1/2-z
loop_
_atom_site_type_symbol
_atom_site_label
_atom_site_fract_x
_atom_site_fract_y
_atom_site_fract_z
Si Si1 0.555388 0.116010 0.288987
Si Si2 0.530553 0.624327 0.413918
Si Si3 0.291947 0.757325 0.172935
Si Si4 0.390856 0.387432 0.108462
Si Si5 0.291653 0.777698 0.978691
O O1 0.621303 0.198814 0.236481
O O2 0.361872 0.163169 0.318308
O O3 0.720547 0.104790 0.340997
O O4 0.500000 0.000000 0.262324
O O5 0.500000 0.500000 0.427177
O O6 0.659363 0.646645 0.354175
O O7 0.315075 0.671188 0.418927
O O8 0.655117 0.689306 0.464760
O O9 0.459764 0.705867 0.130795
O O10 0.500000 0.500000 0.104481
O O11 0.312200 0.345167 0.042338
O O12 0.500000 0.818821 0.000000
#
# Coordination Sequence:
#
# PCOD9332342 Si02
#       5
#     8   8   8   8   8
#     4  12  26  45  73 105 142 189 240 297 361 422
#     4  11  26  45  70 104 142 183 237 297 352 428
#     4  12  25  45  71 105 144 185 240 301 350 433
#     4  12  25  44  73 102 143 187 237 296 361 422
#     4  11  23  44  69 100 139 181 234 290 352 421
#
# _framework density 21.379382
#
# number of rings (size 3 to 8) (size 9 to 14) (size 15 to 20)
#    0.000    0.400    8.000    1.200    0.000    6.000 
#    0.000    0.000    4.400    0.000    0.000    0.000 
#    0.000    0.000    0.000    0.000    0.000    0.000 
#
# Total GULP energy -111586.799733 kJ/mol
# GULP energy per Si atom -5579.339987 kJ/mol
# Density = 2.133072 g / cm^3
# Si number density = 21.379382 Si / 1000 Ang^3
#
#
#
# Elastic Constant Matrix: (Units=GPa)
#
#
# Indices 1 2 3 4 5 6 
#
# 1 129.3244 39.0279 14.9573 0.0000 0.0000 0.0000
# 2 39.0279 119.1108 22.0750 0.0000 0.0000 0.0000
# 3 14.9573 22.0750 36.4087 0.0000 0.0000 0.0000
# 4 0.0000 0.0000 0.0000 24.5476 0.0000 0.0000
# 5 0.0000 0.0000 0.0000 0.0000 42.0621 0.0000
# 6 0.0000 0.0000 0.0000 0.0000 0.0000 69.2179
#
#
#
# Elastic Compliance Matrix: (Units=1/GPa)
#
#
# Indices 1 2 3 4 5 6 
#
# 1 0.008719 -0.002471 -0.002084 0.000000 0.000000 0.000000
# 2 -0.002471 0.010158 -0.005144 0.000000 0.000000 0.000000
# 3 -0.002084 -0.005144 0.031441 0.000000 0.000000 0.000000
# 4 0.000000 0.000000 0.000000 0.040737 0.000000 0.000000
# 5 0.000000 0.000000 0.000000 0.000000 0.023774 0.000000
# 6 0.000000 0.000000 0.000000 0.000000 0.000000 0.014447
#
#
# Mechanical properties :
#
#
# Convention : Reuss Voigt Hill
#
# Bulk Modulus (GPa) = 32.34050 48.55158 40.44604
# Shear Modulus (GPa) = 31.45008 41.08441 36.26725
#
# Velocity S-wave (km/s) = 3.83958 4.38846 4.12316
# Velocity P-wave (km/s) = 5.90054 6.95966 6.45187
#
# Compressibility (1/GPa) = 0.03092098
#
# Stress axis : x y z
#
# Youngs Moduli (GPa) = 114.69036 98.44008 31.80555
#
# Poissons Ratio (x) = 0.24321 0.06628
# Poissons Ratio (y) = 0.28336 0.16361
# Poissons Ratio (z) = 0.23901 0.50639
#
# Static dielectric constant tensor:
#      x y z
#    x 1.801580 0.000000 0.000000 
#    y 0.000000 1.788170 0.000000 
#    z 0.000000 0.000000 1.810230 
# 
# From -- ./inp_files/13894.got.cif
#   From: 2010.05.17/outbox.cif.g08.bks.cpg/sg23_7_cif.got.tgz:13894.got - 2010.06.04 12:02:01.
