data_PCOD9332251
_publ_section_title
;
Structure prediction by ZEFSAII (Michael W. Deem and Ramdas Pophale) SiO2 
 PCOD9332251
Probable space group: I 2 2 2
;
_chemical_formula_sum "Si O2"
_cell_formula_units_Z 58
_cell_length_a 17.852908
_cell_length_b 28.270689
_cell_length_c 5.537329
_cell_angle_alpha 90.000000
_cell_angle_beta 90.000000
_cell_angle_gamma 90.000000
_cell_volume 2794.767523
_symmetry_space_group_name_H-M "I 2 2 2"
_symmetry_group_IT_number 23
_symmetry_cell_setting 'orthorhombic'
loop_
_space_group_symop_operation_xyz
x,y,z
-x,-y,z
x,-y,-z
-x,y,-z
1/2+x,1/2+y,1/2+z
1/2-x,1/2-y,1/2+z
1/2+x,1/2-y,1/2-z
1/2-x,1/2+y,1/2-z
loop_
_atom_site_type_symbol
_atom_site_label
_atom_site_fract_x
_atom_site_fract_y
_atom_site_fract_z
Si Si1 0.229816 0.050711 0.973029
Si Si2 0.120642 0.456365 0.175983
Si Si3 0.312637 0.881732 0.648721
Si Si4 0.918335 0.694657 0.596704
Si Si5 0.274985 0.225567 0.906894
Si Si6 0.189768 0.856545 0.265312
Si Si7 0.955794 0.793282 0.754324
Si Si8 0.000000 0.500000 0.500000
O O1 0.300429 0.038062 0.806750
O O2 0.182155 0.090630 0.836127
O O3 0.269746 0.077369 0.198244
O O4 0.190155 0.000000 0.000000
O O5 0.053167 0.464045 0.356655
O O6 0.110716 0.500000 0.000000
O O7 0.130298 0.407694 0.035521
O O8 0.366850 0.846625 0.794381
O O9 0.245760 0.857714 0.494805
O O10 0.864095 0.717796 0.393089
O O11 0.929385 0.738633 0.779921
O O12 0.000000 0.680137 0.500000
O O13 0.254964 0.252037 0.157090
O O14 0.264729 0.325231 0.427214
O O15 0.112535 0.829162 0.291000
O O16 0.000000 0.793521 0.500000
O O17 0.000000 0.806077 0.000000
#
# Coordination Sequence:
#
# PCOD9332251 Si02
#       8
#     8   8   8   8   8   8   8   2
#     4  11  22  43  71 102 136 171 248 299 355 424
#     4  11  22  42  62  89 130 182 242 304 356 421
#     4  11  24  46  68 101 139 191 243 302 359 442
#     4  11  26  45  68 104 149 189 238 301 370 426
#     4  12  25  43  73 102 145 190 249 300 358 441
#     4  11  26  41  77 104 138 192 241 295 369 439
#     4  11  28  47  73 108 149 187 235 300 371 444
#     4  12  22  40  60  90 128 196 244 304 368 430
#
# _framework density 20.753069
#
# number of rings (size 3 to 8) (size 9 to 14) (size 15 to 20)
#    0.000    0.828    4.828    1.034    5.793    0.000 
#    7.448    1.379    0.000    0.414    0.000    0.000 
#    0.000    0.000    0.000    0.000    0.000    0.000 
#
# Total GULP energy -161900.010243 kJ/mol
# GULP energy per Si atom -5582.758974 kJ/mol
# Density = 2.070583 g / cm^3
# Si number density = 20.753069 Si / 1000 Ang^3
#
#
#
# Elastic Constant Matrix: (Units=GPa)
#
#
# Indices 1 2 3 4 5 6 
#
# 1 98.7229 45.6567 42.7249 -0.0001 -0.0001 0.0000
# 2 45.6567 127.7790 42.5485 0.0000 0.0000 0.0001
# 3 42.7249 42.5485 93.9041 -0.0010 -0.0005 -0.0006
# 4 -0.0001 0.0000 -0.0010 64.1920 -0.0002 -0.0003
# 5 -0.0001 0.0000 -0.0005 -0.0002 -13.2602 0.0000
# 6 0.0000 0.0001 -0.0006 -0.0003 0.0000 11.5331
#
#
#
# Elastic Compliance Matrix: (Units=1/GPa)
#
#
# Indices 1 2 3 4 5 6 
#
# 1 0.013716 -0.003324 -0.004734 0.000000 0.000000 0.000000
# 2 -0.003324 0.010022 -0.003029 0.000000 0.000000 0.000000
# 3 -0.004734 -0.003029 0.014175 0.000000 0.000000 0.000001
# 4 0.000000 0.000000 0.000000 0.015578 0.000000 0.000000
# 5 0.000000 0.000000 0.000000 0.000000 -0.075414 0.000000
# 6 0.000000 0.000000 0.000001 0.000000 0.000000 0.086707
#
#
# Mechanical properties :
#
#
# Convention : Reuss Voigt Hill
#
# Bulk Modulus (GPa) = 63.53590 64.69626 64.11608
# Shear Modulus (GPa) = 54.22704 25.12472 39.67588
#
# Velocity S-wave (km/s) = 5.11726 3.48322 4.37717
# Velocity P-wave (km/s) = 8.09919 6.88615 7.51718
#
# Compressibility (1/GPa) = 0.01573913
#
# Stress axis : x y z
#
# Youngs Moduli (GPa) = 72.90982 99.77726 70.54465
#
# Poissons Ratio (x) = 0.33169 0.33397
# Poissons Ratio (y) = 0.24238 0.21366
# Poissons Ratio (z) = 0.34516 0.30219
#
# Static dielectric constant tensor:
#      x y z
#    x 1.718960 0.000000 0.000000 
#    y 0.000000 1.932200 0.000000 
#    z 0.000000 0.000000 2.007140 
# 
# From -- ./inp_files/3497.got.cif
#   From: 2010.05.17/outbox.cif.g08.bks.cpg/sg23_2_cif.got.tgz:3497.got - 2010.06.04 12:02:01.
