data_PCOD9332966
_publ_section_title
;
Structure prediction by ZEFSAII (Michael W. Deem and Ramdas Pophale) SiO2 
 PCOD9332966
Probable space group: I 21 21 21
;
_chemical_formula_sum "Si O2"
_cell_formula_units_Z 56
_cell_length_a 13.391421
_cell_length_b 25.122640
_cell_length_c 7.934499
_cell_angle_alpha 90.000000
_cell_angle_beta 90.000000
_cell_angle_gamma 90.000000
_cell_volume 2669.386430
_symmetry_space_group_name_H-M "I 21 21 21"
_symmetry_group_IT_number 24
_symmetry_cell_setting 'orthorhombic'
loop_
_space_group_symop_operation_xyz
x,y,z
-x,1/2-y,z
x,-y,1/2-z
1/2-x,y,-z
1/2+x,1/2+y,1/2+z
1/2-x,-y,1/2+z
1/2+x,1/2-y,-z
-x,1/2+y,1/2-z
loop_
_atom_site_type_symbol
_atom_site_label
_atom_site_fract_x
_atom_site_fract_y
_atom_site_fract_z
Si Si1 0.065823 0.306359 0.598978
Si Si2 0.573695 0.621955 0.674088
Si Si3 0.866177 0.514556 0.449900
Si Si4 0.378600 0.744667 0.402485
Si Si5 0.730941 0.667378 0.194537
Si Si6 0.926527 0.592049 0.932534
Si Si7 0.584938 0.794554 0.729697
O O1 0.134527 0.300142 0.760801
O O2 0.000000 0.250000 0.596878
O O3 0.003364 0.361109 0.621259
O O4 0.119423 0.308008 0.417723
O O5 0.591435 0.574530 0.544361
O O6 0.670362 0.659130 0.695351
O O7 0.571854 0.601591 0.866447
O O8 0.473582 0.655276 0.650583
O O9 0.871918 0.500000 0.250000
O O10 0.750000 0.513605 0.500000
O O11 0.925873 0.472016 0.565579
O O12 0.500000 0.750000 0.426877
O O13 0.339378 0.796938 0.310095
O O14 0.342839 0.728546 0.588274
O O15 0.750000 0.688759 0.000000
O O16 0.676220 0.611616 0.154006
O O17 0.500000 0.750000 0.760720
#
# Coordination Sequence:
#
# PCOD9332966 Si02
#       7
#     8   8   8   8   8   8   8
#     4   9  15  29  50  64  90 126 168 206 258 297
#     4   9  19  31  46  67 100 135 171 214 250 297
#     4  10  19  31  43  64  96 134 174 212 248 293
#     4  10  18  31  49  70  93 127 172 208 256 310
#     4  10  18  30  52  73  98 136 177 212 258 305
#     4   9  15  29  48  67  91 136 177 205 245 298
#     4   9  19  31  47  68  92 125 175 204 254 312
#
# _framework density 20.978601999999999
#
# number of rings (size 3 to 8) (size 9 to 14) (size 15 to 20)
#    0.000    2.571    2.857    2.143    2.000    2.286 
#    2.571    0.000    0.000    0.000    0.000    0.000 
#    0.000    0.000    0.000    5.143    0.857    1.143 
#
# Total GULP energy -155904.970113 kJ/mol
# GULP energy per Si atom -5568.034647 kJ/mol
# Density = 2.093085 g / cm^3
# Si number density = 20.978602 Si / 1000 Ang^3
#
#
#
# Elastic Constant Matrix: (Units=GPa)
#
#
# Indices 1 2 3 4 5 6 
#
# 1 23.8959 26.8438 12.3661 0.0004 -0.0003 -0.0001
# 2 26.8438 124.0865 32.1804 0.0015 -0.0002 0.0004
# 3 12.3661 32.1804 110.4187 0.0066 -0.0003 0.0002
# 4 0.0004 0.0015 0.0066 17.5984 0.0001 0.0010
# 5 -0.0003 -0.0002 -0.0003 0.0001 21.2358 0.0007
# 6 -0.0001 0.0004 0.0002 0.0010 0.0007 16.1996
#
#
#
# Elastic Compliance Matrix: (Units=1/GPa)
#
#
# Indices 1 2 3 4 5 6 
#
# 1 0.056172 -0.011380 -0.002974 0.000001 0.000001 0.000001
# 2 -0.011380 0.011023 -0.001938 0.000000 0.000000 0.000000
# 3 -0.002974 -0.001938 0.009954 -0.000004 0.000000 0.000000
# 4 0.000001 0.000000 -0.000004 0.056823 0.000000 -0.000003
# 5 0.000001 0.000000 0.000000 0.000000 0.047090 -0.000002
# 6 0.000001 0.000000 0.000000 -0.000003 -0.000002 0.061730
#
#
# Mechanical properties :
#
#
# Convention : Reuss Voigt Hill
#
# Bulk Modulus (GPa) = 22.43957 44.57575 33.50766
# Shear Modulus (GPa) = 17.22753 23.47413 20.35083
#
# Velocity S-wave (km/s) = 2.86876 3.34871 3.11798
# Velocity P-wave (km/s) = 4.65754 6.02048 5.38232
#
# Compressibility (1/GPa) = 0.04456413
#
# Stress axis : x y z
#
# Youngs Moduli (GPa) = 17.80258 90.71555 100.45830
#
# Poissons Ratio (x) = 1.03238 0.29878
# Poissons Ratio (y) = 0.20260 0.19470
# Poissons Ratio (z) = 0.05295 0.17582
#
# Static dielectric constant tensor:
#      x y z
#    x 1.797580 -0.000010 0.000000 
#    y -0.000010 1.854220 0.000000 
#    z 0.000000 0.000000 1.858140 
# 
# From -- ./inp_files/14542.got.cif
#   From: 2010.05.17/outbox.cif.g08.bks.cpg/sg24_8_cif.got.tgz:14542.got - 2010.06.04 00:33:39.
