data_PCOD9332839
_publ_section_title
;
Structure prediction by ZEFSAII (Michael W. Deem and Ramdas Pophale) SiO2 
 PCOD9332839
Probable space group: I 21 21 21
;
_chemical_formula_sum "Si O2"
_cell_formula_units_Z 64
_cell_length_a 14.995964
_cell_length_b 25.354773
_cell_length_c 9.675031
_cell_angle_alpha 90.000000
_cell_angle_beta 90.000000
_cell_angle_gamma 90.000000
_cell_volume 3678.633158
_symmetry_space_group_name_H-M "I 21 21 21"
_symmetry_group_IT_number 24
_symmetry_cell_setting 'orthorhombic'
loop_
_space_group_symop_operation_xyz
x,y,z
-x,1/2-y,z
x,-y,1/2-z
1/2-x,y,-z
1/2+x,1/2+y,1/2+z
1/2-x,-y,1/2+z
1/2+x,1/2-y,-z
-x,1/2+y,1/2-z
loop_
_atom_site_type_symbol
_atom_site_label
_atom_site_fract_x
_atom_site_fract_y
_atom_site_fract_z
Si Si1 0.327829 0.275495 0.885052
Si Si2 0.405149 0.451633 0.945634
Si Si3 0.841853 0.342429 0.083270
Si Si4 0.985331 0.191606 0.914111
Si Si5 0.563701 0.930716 0.959929
Si Si6 0.899805 0.096891 0.755170
Si Si7 0.197400 0.378397 0.270872
Si Si8 0.917961 0.559252 0.266850
O O1 0.338340 0.214741 0.841737
O O2 0.302947 0.317326 0.769718
O O3 0.250000 0.276696 0.000000
O O4 0.417225 0.297144 0.959133
O O5 0.388078 0.513505 0.926623
O O6 0.341632 0.412987 0.858216
O O7 0.503755 0.444112 0.882516
O O8 0.402015 0.438202 0.106721
O O9 0.858124 0.392229 0.182665
O O10 0.750000 0.349376 0.000000
O O11 0.924646 0.333808 0.976612
O O12 0.940098 0.152200 0.806911
O O13 0.000000 0.250000 0.853666
O O14 0.630743 0.887999 0.896897
O O15 0.472353 0.928636 0.873455
O O16 0.549428 0.925245 0.122399
O O17 0.797715 0.102984 0.708389
O O18 0.878597 0.500000 0.250000
#
# Coordination Sequence:
#
# PCOD9332839 Si02
#       8
#     8   8   8   8   8   8   8   8
#     4  10  17  32  56  89 110 137 181 231 272 320
#     4  10  19  34  53  76 106 152 194 228 259 313
#     4  10  20  34  63  88 102 133 193 241 275 325
#     4  10  19  33  54  82 112 135 178 234 280 319
#     4  10  23  33  49  78 116 155 184 218 270 341
#     4  12  20  32  52  77 114 149 186 222 271 327
#     4  11  19  32  50  79 117 148 183 221 270 322
#     4   9  18  38  59  78 108 139 179 232 286 323
#
# _framework density 17.397767000000002
#
# number of rings (size 3 to 8) (size 9 to 14) (size 15 to 20)
#    0.000    1.750    3.750    3.000    0.000    3.000 
#    0.000    1.250    5.500    0.000    0.000    0.000 
#    0.000    0.000    0.000    0.000    0.000    0.000 
#
# Total GULP energy -178436.529617 kJ/mol
# GULP energy per Si atom -5576.141551 kJ/mol
# Density = 1.735817 g / cm^3
# Si number density = 17.397767 Si / 1000 Ang^3
#
#
#
# Elastic Constant Matrix: (Units=GPa)
#
#
# Indices 1 2 3 4 5 6 
#
# 1 62.5855 24.1724 12.2402 0.0000 0.0000 0.0000
# 2 24.1724 113.2629 23.0158 0.0000 0.0000 0.0000
# 3 12.2402 23.0158 78.8470 0.0001 -0.0002 0.0001
# 4 0.0000 0.0000 0.0001 17.5701 -0.0001 0.0000
# 5 0.0000 0.0000 -0.0002 -0.0001 12.3995 0.0000
# 6 0.0000 0.0000 0.0001 0.0000 0.0000 22.0075
#
#
#
# Elastic Compliance Matrix: (Units=1/GPa)
#
#
# Indices 1 2 3 4 5 6 
#
# 1 0.017636 -0.003410 -0.001742 0.000000 0.000000 0.000000
# 2 -0.003410 0.010045 -0.002403 0.000000 0.000000 0.000000
# 3 -0.001742 -0.002403 0.013655 0.000000 0.000000 0.000000
# 4 0.000000 0.000000 0.000000 0.056915 0.000000 0.000000
# 5 0.000000 0.000000 0.000000 0.000000 0.080648 0.000000
# 6 0.000000 0.000000 0.000000 0.000000 0.000000 0.045439
#
#
# Mechanical properties :
#
#
# Convention : Reuss Voigt Hill
#
# Bulk Modulus (GPa) = 38.13094 41.50582 39.81838
# Shear Modulus (GPa) = 20.14587 23.41321 21.77954
#
# Velocity S-wave (km/s) = 3.40657 3.67244 3.54200
# Velocity P-wave (km/s) = 6.11863 6.47234 6.29797
#
# Compressibility (1/GPa) = 0.02622542
#
# Stress axis : x y z
#
# Youngs Moduli (GPa) = 56.70265 99.55207 73.23488
#
# Poissons Ratio (x) = 0.33945 0.12761
# Poissons Ratio (y) = 0.19334 0.17597
# Poissons Ratio (z) = 0.09880 0.23921
#
# Static dielectric constant tensor:
#      x y z
#    x 1.592490 0.000000 0.000000 
#    y 0.000000 1.634860 0.000000 
#    z 0.000000 0.000000 1.577940 
# 
# From -- ./inp_files/13355.got.cif
#   From: 2010.05.17/outbox.cif.g08.bks.cpg/sg24_7_cif.got.tgz:13355.got - 2010.06.04 00:33:39.
