data_PCOD9332935
_publ_section_title
;
Structure prediction by ZEFSAII (Michael W. Deem and Ramdas Pophale) SiO2 
 PCOD9332935
Probable space group: I 21 21 21
;
_chemical_formula_sum "Si O2"
_cell_formula_units_Z 48
_cell_length_a 19.705893
_cell_length_b 17.315740
_cell_length_c 5.380499
_cell_angle_alpha 90.000000
_cell_angle_beta 90.000000
_cell_angle_gamma 90.000000
_cell_volume 1835.945274
_symmetry_space_group_name_H-M "I 21 21 21"
_symmetry_group_IT_number 24
_symmetry_cell_setting 'orthorhombic'
loop_
_space_group_symop_operation_xyz
x,y,z
-x,1/2-y,z
x,-y,1/2-z
1/2-x,y,-z
1/2+x,1/2+y,1/2+z
1/2-x,-y,1/2+z
1/2+x,1/2-y,-z
-x,1/2+y,1/2-z
loop_
_atom_site_type_symbol
_atom_site_label
_atom_site_fract_x
_atom_site_fract_y
_atom_site_fract_z
Si Si1 0.853868 0.848110 0.664028
Si Si2 0.352182 0.411513 0.668903
Si Si3 0.172314 0.031808 0.508159
Si Si4 0.504845 0.657563 0.802848
Si Si5 0.007855 0.090693 0.803465
Si Si6 0.290133 0.803728 0.233459
O O1 0.820653 0.865939 0.399237
O O2 0.932182 0.873806 0.657699
O O3 0.848115 0.757434 0.706175
O O4 0.824272 0.896060 0.895390
O O5 0.353422 0.500000 0.750000
O O6 0.429583 0.378882 0.663218
O O7 0.250000 0.998448 0.500000
O O8 0.184483 0.119526 0.592433
O O9 0.134610 0.000000 0.750000
O O10 0.143473 0.000000 0.250000
O O11 0.500000 0.750000 0.778381
O O12 0.539876 0.617835 0.564651
O O13 0.538761 0.631238 0.060588
O O14 0.997568 0.000000 0.750000
O O15 0.250000 0.817313 0.500000
O O16 0.250000 0.765521 0.000000
#
# Coordination Sequence:
#
# PCOD9332935 Si02
#       6
#     8   8   8   8   8   8
#     4  10  19  32  52  74 100 137 172 214 259 304
#     4  10  19  34  55  75  98 135 181 214 245 299
#     4   9  16  28  46  67  90 115 148 193 247 301
#     4  10  18  29  49  81 107 123 156 218 267 293
#     4  10  19  34  54  75 102 140 182 212 244 298
#     4  11  21  33  50  76 107 132 166 221 274 307
#
# _framework density 26.144570999999999
#
# number of rings (size 3 to 8) (size 9 to 14) (size 15 to 20)
#    0.000    2.000    0.000    9.000    0.000    0.000 
#    0.000    0.000    0.000   17.000    0.000   60.667 
#    0.000    5.333    0.000    0.000    0.000    0.000 
#
# Total GULP energy -134068.203897 kJ/mol
# GULP energy per Si atom -5586.175162 kJ/mol
# Density = 2.608506 g / cm^3
# Si number density = 26.144571 Si / 1000 Ang^3
#
#
#
# Elastic Constant Matrix: (Units=GPa)
#
#
# Indices 1 2 3 4 5 6 
#
# 1 80.2470 11.1998 10.9754 0.0000 0.0000 0.0000
# 2 11.1998 182.5047 51.5320 0.0000 0.0000 0.0000
# 3 10.9754 51.5320 275.9714 0.0000 0.0000 0.0000
# 4 0.0000 0.0000 0.0000 54.6809 0.0000 0.0000
# 5 0.0000 0.0000 0.0000 0.0000 10.1631 0.0000
# 6 0.0000 0.0000 0.0000 0.0000 0.0000 18.1124
#
#
#
# Elastic Compliance Matrix: (Units=1/GPa)
#
#
# Indices 1 2 3 4 5 6 
#
# 1 0.012606 -0.000667 -0.000377 0.000000 0.000000 0.000000
# 2 -0.000667 0.005820 -0.001060 0.000000 0.000000 0.000000
# 3 -0.000377 -0.001060 0.003837 0.000000 0.000000 0.000000
# 4 0.000000 0.000000 0.000000 0.018288 0.000000 0.000000
# 5 0.000000 0.000000 0.000000 0.000000 0.098396 0.000000
# 6 0.000000 0.000000 0.000000 0.000000 0.000000 0.055211
#
#
# Mechanical properties :
#
#
# Convention : Reuss Voigt Hill
#
# Bulk Modulus (GPa) = 55.38933 76.23749 65.81341
# Shear Modulus (GPa) = 24.46390 47.59233 36.02811
#
# Velocity S-wave (km/s) = 3.06227 4.27119 3.71622
# Velocity P-wave (km/s) = 5.80819 7.31760 6.60615
#
# Compressibility (1/GPa) = 0.01805402
#
# Stress axis : x y z
#
# Youngs Moduli (GPa) = 79.32617 171.83306 260.65356
#
# Poissons Ratio (x) = 0.11465 0.09820
# Poissons Ratio (y) = 0.05293 0.27633
# Poissons Ratio (z) = 0.02989 0.18217
#
# Static dielectric constant tensor:
#      x y z
#    x 1.891130 0.000000 0.000000 
#    y 0.000000 2.159830 0.000000 
#    z 0.000000 0.000000 2.245840 
# 
# From -- ./inp_files/7111.got.cif
#   From: 2010.05.17/outbox.cif.g08.bks.cpg/sg24_4_cif.got.tgz:7111.got - 2010.06.04 00:33:39.
