data_PCOD9332448
_publ_section_title
;
Structure prediction by ZEFSAII (Michael W. Deem and Ramdas Pophale) SiO2 
 PCOD9332448
Probable space group: I 2 2 2
;
_chemical_formula_sum "Si O2"
_cell_formula_units_Z 34
_cell_length_a 18.949165
_cell_length_b 12.244802
_cell_length_c 7.419703
_cell_angle_alpha 90.000000
_cell_angle_beta 90.000000
_cell_angle_gamma 90.000000
_cell_volume 1721.584587
_symmetry_space_group_name_H-M "I 2 2 2"
_symmetry_group_IT_number 23
_symmetry_cell_setting 'orthorhombic'
loop_
_space_group_symop_operation_xyz
x,y,z
-x,-y,z
x,-y,-z
-x,y,-z
1/2+x,1/2+y,1/2+z
1/2-x,1/2-y,1/2+z
1/2+x,1/2-y,1/2-z
1/2-x,1/2+y,1/2-z
loop_
_atom_site_type_symbol
_atom_site_label
_atom_site_fract_x
_atom_site_fract_y
_atom_site_fract_z
Si Si1 0.981992 0.377628 0.287844
Si Si2 0.834868 0.277538 0.179273
Si Si3 0.000000 0.000000 0.000000
Si Si4 0.412756 0.309853 0.667990
Si Si5 0.806722 0.871223 0.477412
O O1 0.900527 0.348327 0.252874
O O2 0.000000 0.500000 0.225701
O O3 0.000000 0.372081 0.500000
O O4 0.031246 0.287432 0.193989
O O5 0.811755 0.192215 0.333143
O O6 0.768397 0.348613 0.116767
O O7 0.863733 0.215975 0.002798
O O8 0.953517 0.921135 0.123983
O O9 0.366454 0.323119 0.846153
O O10 0.817351 0.000000 0.500000
#
# Coordination Sequence:
#
# PCOD9332448 Si02
#       5
#     8   8   2   8   8
#     4  11  25  45  75 107 142 186 239 295 349 415
#     4  12  25  49  70 105 139 185 241 284 352 425
#     4  12  24  44  76 104 140 182 238 294 346 424
#     4  12  25  46  72 106 142 184 240 285 354 422
#     4  12  28  46  73 102 146 187 229 295 357 418
#
# _framework density 19.749247
#
# number of rings (size 3 to 8) (size 9 to 14) (size 15 to 20)
#    0.000    0.235    7.059    1.412    3.294    0.941 
#    0.000    0.000    0.000    0.000    0.000    0.000 
#    0.000    0.000    0.000    0.000    0.000    0.000 
#
# Total GULP energy -95157.001493 kJ/mol
# GULP energy per Si atom -5597.470676 kJ/mol
# Density = 1.970430 g / cm^3
# Si number density = 19.749247 Si / 1000 Ang^3
#
#
#
# Elastic Constant Matrix: (Units=GPa)
#
#
# Indices 1 2 3 4 5 6 
#
# 1 119.2749 57.6007 23.7079 0.0000 0.0000 0.0000
# 2 57.6007 141.6172 39.2664 0.0000 0.0000 0.0000
# 3 23.7079 39.2664 104.3795 0.0000 0.0000 0.0000
# 4 0.0000 0.0000 0.0000 27.8491 0.0000 0.0000
# 5 0.0000 0.0000 0.0000 0.0000 35.9001 0.0000
# 6 0.0000 0.0000 0.0000 0.0000 0.0000 19.0784
#
#
#
# Elastic Compliance Matrix: (Units=1/GPa)
#
#
# Indices 1 2 3 4 5 6 
#
# 1 0.010503 -0.004031 -0.000869 0.000000 0.000000 0.000000
# 2 -0.004031 0.009431 -0.002632 0.000000 0.000000 0.000000
# 3 -0.000869 -0.002632 0.010768 0.000000 0.000000 0.000000
# 4 0.000000 0.000000 0.000000 0.035908 0.000000 0.000000
# 5 0.000000 0.000000 0.000000 0.000000 0.027855 0.000000
# 6 0.000000 0.000000 0.000000 0.000000 0.000000 0.052415
#
#
# Mechanical properties :
#
#
# Convention : Reuss Voigt Hill
#
# Bulk Modulus (GPa) = 63.94973 67.38020 65.66496
# Shear Modulus (GPa) = 29.91183 32.87861 31.39522
#
# Velocity S-wave (km/s) = 3.89598 4.08463 3.99142
# Velocity P-wave (km/s) = 7.25875 7.51249 7.38671
#
# Compressibility (1/GPa) = 0.01563728
#
# Stress axis : x y z
#
# Youngs Moduli (GPa) = 95.20641 106.03652 92.86753
#
# Poissons Ratio (x) = 0.42745 0.08072
# Poissons Ratio (y) = 0.38379 0.24444
# Poissons Ratio (z) = 0.08275 0.27910
#
# Static dielectric constant tensor:
#      x y z
#    x 1.690160 0.000000 0.000000 
#    y 0.000000 1.651290 0.000000 
#    z 0.000000 0.000000 1.710870 
# 
# From -- ./inp_files/10686.got.cif
#   From: 2010.05.17/outbox.cif.g08.bks.cpg/sg23_6_cif.got.tgz:10686.got - 2010.06.04 12:02:01.
