data_PCOD9332336
_publ_section_title
;
Structure prediction by ZEFSAII (Michael W. Deem and Ramdas Pophale) SiO2 
 PCOD9332336
Probable space group: I 2 2 2
;
_chemical_formula_sum "Si O2"
_cell_formula_units_Z 32
_cell_length_a 9.158118
_cell_length_b 8.716787
_cell_length_c 15.351434
_cell_angle_alpha 90.000000
_cell_angle_beta 90.000000
_cell_angle_gamma 90.000000
_cell_volume 1225.495212
_symmetry_space_group_name_H-M "I 2 2 2"
_symmetry_group_IT_number 23
_symmetry_cell_setting 'orthorhombic'
loop_
_space_group_symop_operation_xyz
x,y,z
-x,-y,z
x,-y,-z
-x,y,-z
1/2+x,1/2+y,1/2+z
1/2-x,1/2-y,1/2+z
1/2+x,1/2-y,1/2-z
1/2-x,1/2+y,1/2-z
loop_
_atom_site_type_symbol
_atom_site_label
_atom_site_fract_x
_atom_site_fract_y
_atom_site_fract_z
Si Si1 0.231341 0.109966 0.918271
Si Si2 0.286981 0.834160 0.803034
Si Si3 0.929813 0.161121 0.642624
Si Si4 0.025826 0.328123 0.103801
O O1 0.351180 0.242737 0.934144
O O2 0.086693 0.188670 0.880414
O O3 0.297926 0.000812 0.845412
O O4 0.201041 0.000000 0.000000
O O5 0.200265 0.856475 0.713110
O O6 0.443859 0.756335 0.808883
O O7 0.181306 0.730655 0.864163
O O8 0.000000 0.000000 0.616702
O O9 0.000000 0.500000 0.139862
O O10 0.000000 0.342151 0.000000
#
# Coordination Sequence:
#
# PCOD9332336 Si02
#       4
#     8   8   8   8
#     4  12  26  49  77 111 152 198 254 312 379 450
#     4  12  25  46  75 110 149 201 247 307 375 450
#     4  12  27  47  74 111 154 200 250 315 375 448
#     4  11  23  43  73 109 146 190 244 302 369 444
#
# _framework density 26.111892999999998
#
# number of rings (size 3 to 8) (size 9 to 14) (size 15 to 20)
#    0.000    0.250    2.500    7.500    0.000    4.000 
#    0.000    1.250    0.000    0.000    0.000    0.000 
#    0.000    0.000    0.000    0.000    0.000    0.000 
#
# Total GULP energy -89688.917505 kJ/mol
# GULP energy per Si atom -5605.557344 kJ/mol
# Density = 2.605246 g / cm^3
# Si number density = 26.111893 Si / 1000 Ang^3
#
#
#
# Elastic Constant Matrix: (Units=GPa)
#
#
# Indices 1 2 3 4 5 6 
#
# 1 140.4990 49.4427 22.9272 0.0000 0.0000 0.0000
# 2 49.4427 166.1662 16.1809 0.0000 0.0000 0.0000
# 3 22.9272 16.1809 59.2842 0.0000 0.0000 0.0000
# 4 0.0000 0.0000 0.0000 9.2360 0.0000 0.0000
# 5 0.0000 0.0000 0.0000 0.0000 28.4532 0.0000
# 6 0.0000 0.0000 0.0000 0.0000 0.0000 68.7761
#
#
#
# Elastic Compliance Matrix: (Units=1/GPa)
#
#
# Indices 1 2 3 4 5 6 
#
# 1 0.008326 -0.002223 -0.002613 0.000000 0.000000 0.000000
# 2 -0.002223 0.006776 -0.000990 0.000000 0.000000 0.000000
# 3 -0.002613 -0.000990 0.018149 0.000000 0.000000 0.000000
# 4 0.000000 0.000000 0.000000 0.108272 0.000000 0.000000
# 5 0.000000 0.000000 0.000000 0.000000 0.035145 0.000000
# 6 0.000000 0.000000 0.000000 0.000000 0.000000 0.014540
#
#
# Mechanical properties :
#
#
# Convention : Reuss Voigt Hill
#
# Bulk Modulus (GPa) = 46.29876 60.33899 53.31887
# Shear Modulus (GPa) = 23.80273 39.78630 31.79451
#
# Velocity S-wave (km/s) = 3.02249 3.90768 3.49324
# Velocity P-wave (km/s) = 5.47266 6.59681 6.06086
#
# Compressibility (1/GPa) = 0.02159885
#
# Stress axis : x y z
#
# Youngs Moduli (GPa) = 120.10255 147.58197 55.10040
#
# Poissons Ratio (x) = 0.32807 0.14399
# Poissons Ratio (y) = 0.26699 0.05453
# Poissons Ratio (z) = 0.31386 0.14606
#
# Static dielectric constant tensor:
#      x y z
#    x 1.967890 0.000000 0.000000 
#    y 0.000000 2.029440 0.000000 
#    z 0.000000 0.000000 2.110950 
# 
# From -- ./inp_files/25936.got.cif
#   From: 2010.05.17/outbox.cif.g08.bks.cpg/sg23_13_cif.got.tgz:25936.got - 2010.06.04 12:02:01.
