data_PCOD9332584
_publ_section_title
;
Structure prediction by ZEFSAII (Michael W. Deem and Ramdas Pophale) SiO2 
 PCOD9332584
Probable space group: I 2 2 2
;
_chemical_formula_sum "Si O2"
_cell_formula_units_Z 58
_cell_length_a 13.668638
_cell_length_b 8.063659
_cell_length_c 23.097187
_cell_angle_alpha 90.000000
_cell_angle_beta 90.000000
_cell_angle_gamma 90.000000
_cell_volume 2545.754301
_symmetry_space_group_name_H-M "I 2 2 2"
_symmetry_group_IT_number 23
_symmetry_cell_setting 'orthorhombic'
loop_
_space_group_symop_operation_xyz
x,y,z
-x,-y,z
x,-y,-z
-x,y,-z
1/2+x,1/2+y,1/2+z
1/2-x,1/2-y,1/2+z
1/2+x,1/2-y,1/2-z
1/2-x,1/2+y,1/2-z
loop_
_atom_site_type_symbol
_atom_site_label
_atom_site_fract_x
_atom_site_fract_y
_atom_site_fract_z
Si Si1 0.000000 0.500000 0.500000
Si Si2 0.215584 0.816733 0.092447
Si Si3 0.316873 0.820102 0.472392
Si Si4 0.659749 0.147905 0.907898
Si Si5 0.949446 0.322041 0.771416
Si Si6 0.128196 0.211443 0.715494
Si Si7 0.787548 0.846463 0.298064
Si Si8 0.488463 0.302383 0.605812
O O1 0.075622 0.596814 0.455295
O O2 0.276484 0.701251 0.135141
O O3 0.103297 0.759229 0.104572
O O4 0.259627 0.000601 0.102370
O O5 0.221597 0.794301 0.024274
O O6 0.227998 0.802312 0.427425
O O7 0.419201 0.754110 0.446723
O O8 0.329767 0.000000 0.500000
O O9 0.615885 0.196055 0.845688
O O10 0.856277 0.288970 0.732685
O O11 0.000000 0.500000 0.765770
O O12 0.025508 0.189938 0.746319
O O13 0.936493 0.276780 0.838396
O O14 0.189408 0.320574 0.761218
O O15 0.176190 0.032698 0.707822
O O16 0.500000 0.500000 0.607918
#
# Coordination Sequence:
#
# PCOD9332584 Si02
#       8
#     2   8   8   8   8   8   8   8
#     4  12  28  52  82 110 144 200 262 310 368 446
#     4  12  25  46  74 106 151 199 247 312 376 451
#     4  12  27  47  75 111 153 201 251 311 381 452
#     4  12  26  50  78 111 148 201 258 316 378 453
#     4  12  27  46  73 112 151 197 252 313 387 457
#     4  12  26  47  74 108 146 199 248 312 385 449
#     4  12  26  47  74 110 153 196 250 314 381 462
#     4  12  26  46  75 111 152 198 254 311 383 457
#
# _framework density 22.783031000000001
#
# number of rings (size 3 to 8) (size 9 to 14) (size 15 to 20)
#    0.000    0.000    4.138    5.793    4.828    1.103 
#    0.000    0.345    0.000    0.000    0.000    0.000 
#    0.000    0.000    0.000    0.000    0.000    0.000 
#
# Total GULP energy -162084.179258 kJ/mol
# GULP energy per Si atom -5589.109630 kJ/mol
# Density = 2.273118 g / cm^3
# Si number density = 22.783031 Si / 1000 Ang^3
#
#
#
# Elastic Constant Matrix: (Units=GPa)
#
#
# Indices 1 2 3 4 5 6 
#
# 1 100.2036 20.2724 20.6081 0.0000 0.0000 0.0000
# 2 20.2724 91.8724 15.3785 0.0000 0.0000 0.0000
# 3 20.6081 15.3785 108.2097 0.0000 0.0000 0.0000
# 4 0.0000 0.0000 0.0000 56.5029 0.0000 0.0000
# 5 0.0000 0.0000 0.0000 0.0000 28.5428 0.0000
# 6 0.0000 0.0000 0.0000 0.0000 0.0000 10.1114
#
#
#
# Elastic Compliance Matrix: (Units=1/GPa)
#
#
# Indices 1 2 3 4 5 6 
#
# 1 0.010761 -0.002081 -0.001754 0.000000 0.000000 0.000000
# 2 -0.002081 0.011552 -0.001245 0.000000 0.000000 0.000000
# 3 -0.001754 -0.001245 0.009752 0.000000 0.000000 0.000000
# 4 0.000000 0.000000 0.000000 0.017698 0.000000 0.000000
# 5 0.000000 0.000000 0.000000 0.000000 0.035035 0.000000
# 6 0.000000 0.000000 0.000000 0.000000 0.000000 0.098898
#
#
# Mechanical properties :
#
#
# Convention : Reuss Voigt Hill
#
# Bulk Modulus (GPa) = 45.65043 45.86708 45.75876
# Shear Modulus (GPa) = 24.85590 35.29988 30.07789
#
# Velocity S-wave (km/s) = 3.30659 3.94050 3.63738
# Velocity P-wave (km/s) = 5.88715 6.39369 6.14564
#
# Compressibility (1/GPa) = 0.02190560
#
# Stress axis : x y z
#
# Youngs Moduli (GPa) = 92.92497 86.56261 102.53987
#
# Poissons Ratio (x) = 0.18014 0.17983
# Poissons Ratio (y) = 0.19338 0.12771
# Poissons Ratio (z) = 0.16296 0.10781
#
# Static dielectric constant tensor:
#      x y z
#    x 1.838210 0.000000 0.000000 
#    y 0.000000 2.293950 0.000000 
#    z 0.000000 0.000000 1.872010 
# 
# From -- ./inp_files/27015.got.cif
#   From: 2010.05.17/outbox.cif.g08.bks.cpg/sg23_14_cif.got.tgz:27015.got - 2010.06.04 12:02:01.
