data_PCOD9332729
_publ_section_title
;
Structure prediction by ZEFSAII (Michael W. Deem and Ramdas Pophale) SiO2 
 PCOD9332729
Probable space group: I 21 21 21
;
_chemical_formula_sum "Si O2"
_cell_formula_units_Z 28
_cell_length_a 7.866747
_cell_length_b 12.591932
_cell_length_c 11.161450
_cell_angle_alpha 90.000000
_cell_angle_beta 90.000000
_cell_angle_gamma 90.000000
_cell_volume 1105.625817
_symmetry_space_group_name_H-M "I 21 21 21"
_symmetry_group_IT_number 24
_symmetry_cell_setting 'orthorhombic'
loop_
_space_group_symop_operation_xyz
x,y,z
-x,1/2-y,z
x,-y,1/2-z
1/2-x,y,-z
1/2+x,1/2+y,1/2+z
1/2-x,-y,1/2+z
1/2+x,1/2-y,-z
-x,1/2+y,1/2-z
loop_
_atom_site_type_symbol
_atom_site_label
_atom_site_fract_x
_atom_site_fract_y
_atom_site_fract_z
Si Si1 0.759352 0.812742 0.759791
Si Si2 0.750000 0.152899 0.000000
Si Si3 0.377431 0.095294 0.335054
Si Si4 0.422131 0.442977 0.562996
O O1 0.773189 0.782443 0.619756
O O2 0.767843 0.701168 0.825987
O O3 0.605110 0.886225 0.809328
O O4 0.934966 0.877549 0.779805
O O5 0.608184 0.068931 0.952977
O O6 0.424167 0.076835 0.473856
O O7 0.310528 0.000000 0.250000
O O8 0.250000 0.397212 0.500000
#
# Coordination Sequence:
#
# PCOD9332729 Si02
#       4
#     8   4   8   8
#     4  10  18  29  57  82 109 142 189 224 275 316
#     4  10  16  30  52  80 112 136 186 230 268 316
#     4  10  17  32  54  84 104 142 187 224 269 334
#     4   8  16  29  50  81 105 136 185 227 256 325
#
# _framework density 25.325019999999999
#
# number of rings (size 3 to 8) (size 9 to 14) (size 15 to 20)
#    0.857    1.714    2.857    0.857    0.000    0.000 
#    0.000    0.000   15.714   24.000    0.000    0.000 
#    0.000    0.000    0.000    0.000    0.000    0.000 
#
# Total GULP energy -77967.725925 kJ/mol
# GULP energy per Si atom -5569.123280 kJ/mol
# Density = 2.526738 g / cm^3
# Si number density = 25.325020 Si / 1000 Ang^3
#
#
#
# Elastic Constant Matrix: (Units=GPa)
#
#
# Indices 1 2 3 4 5 6 
#
# 1 74.8849 -1.5705 0.6101 0.0000 0.0000 0.0000
# 2 -1.5705 91.6255 -15.6776 0.0000 0.0000 0.0000
# 3 0.6101 -15.6776 115.2545 0.0000 0.0000 0.0000
# 4 0.0000 0.0000 0.0000 37.3953 0.0000 0.0000
# 5 0.0000 0.0000 0.0000 0.0000 0.3675 0.0000
# 6 0.0000 0.0000 0.0000 0.0000 0.0000 3.0224
#
#
#
# Elastic Compliance Matrix: (Units=1/GPa)
#
#
# Indices 1 2 3 4 5 6 
#
# 1 0.013359 0.000222 -0.000041 0.000000 0.000000 0.000000
# 2 0.000222 0.011178 0.001519 0.000000 0.000000 0.000000
# 3 -0.000041 0.001519 0.008883 0.000000 0.000000 0.000000
# 4 0.000000 0.000000 0.000000 0.026741 0.000000 0.000000
# 5 0.000000 0.000000 0.000000 0.000000 2.720758 -0.000001
# 6 0.000000 0.000000 0.000000 0.000000 -0.000001 0.330863
#
#
# Mechanical properties :
#
#
# Convention : Reuss Voigt Hill
#
# Bulk Modulus (GPa) = 27.15801 27.60988 27.38395
# Shear Modulus (GPa) = 1.60223 28.05058 14.82640
#
# Velocity S-wave (km/s) = 0.79627 3.33171 2.42222
# Velocity P-wave (km/s) = 3.40477 5.07211 4.31965
#
# Compressibility (1/GPa) = 0.03682154
#
# Stress axis : x y z
#
# Youngs Moduli (GPa) = 74.85698 89.46340 112.57047
#
# Poissons Ratio (x) = -0.01987 0.00456
# Poissons Ratio (y) = -0.01662 -0.17103
# Poissons Ratio (z) = 0.00303 -0.13592
#
# Static dielectric constant tensor:
#      x y z
#    x 2.082520 0.000000 0.000000 
#    y 0.000000 1.960880 0.000000 
#    z 0.000000 0.000000 2.137160 
# 
# From -- ./inp_files/20425.got.cif
#   From: 2010.05.17/outbox.cif.g08.bks.cpg/sg24_11_cif.got.tgz:20425.got - 2010.06.04 00:33:39.
