data_PCOD9332918
_publ_section_title
;
Structure prediction by ZEFSAII (Michael W. Deem and Ramdas Pophale) SiO2 
 PCOD9332918
Probable space group: I 21 21 21
;
_chemical_formula_sum "Si O2"
_cell_formula_units_Z 48
_cell_length_a 17.970457
_cell_length_b 12.930792
_cell_length_c 12.420244
_cell_angle_alpha 90.000000
_cell_angle_beta 90.000000
_cell_angle_gamma 90.000000
_cell_volume 2886.119940
_symmetry_space_group_name_H-M "I 21 21 21"
_symmetry_group_IT_number 24
_symmetry_cell_setting 'orthorhombic'
loop_
_space_group_symop_operation_xyz
x,y,z
-x,1/2-y,z
x,-y,1/2-z
1/2-x,y,-z
1/2+x,1/2+y,1/2+z
1/2-x,-y,1/2+z
1/2+x,1/2-y,-z
-x,1/2+y,1/2-z
loop_
_atom_site_type_symbol
_atom_site_label
_atom_site_fract_x
_atom_site_fract_y
_atom_site_fract_z
Si Si1 0.051174 0.335909 0.348116
Si Si2 0.949800 0.500000 0.250000
Si Si3 0.000000 0.750000 0.546593
Si Si4 0.170701 0.536265 0.049317
Si Si5 0.891190 0.294674 0.149769
Si Si6 0.241042 0.656862 0.371126
Si Si7 0.599486 0.921421 0.346978
O O1 0.126940 0.367810 0.403663
O O2 0.070409 0.285620 0.232776
O O3 0.000000 0.250000 0.405168
O O4 0.003369 0.439296 0.332093
O O5 0.903621 0.410102 0.192392
O O6 0.067615 0.782025 0.465233
O O7 0.034870 0.658545 0.619384
O O8 0.190027 0.446710 0.136696
O O9 0.250000 0.566905 0.000000
O O10 0.121467 0.485526 0.954523
O O11 0.806107 0.257615 0.155519
O O12 0.250000 0.662562 0.500000
O O13 0.322001 0.637930 0.320662
O O14 0.581806 0.000000 0.250000
#
# Coordination Sequence:
#
# PCOD9332918 Si02
#       7
#     8   4   4   8   8   8   8
#     4  10  19  30  50  82 110 136 171 218 295 340
#     4  10  18  28  48  80 114 128 172 212 284 344
#     4  12  18  38  58  82 116 136 198 228 280 346
#     4   9  18  33  51  81 108 137 180 236 280 332
#     4  11  19  31  56  84 107 144 170 233 284 336
#     4   9  18  33  54  81 103 137 184 232 281 320
#     4  10  22  36  56  81 104 152 193 236 271 333
#
# _framework density 16.631325
#
# number of rings (size 3 to 8) (size 9 to 14) (size 15 to 20)
#    0.000    2.333    5.833    2.000    4.667    0.000 
#    1.500    0.000    1.833    4.000    0.000    0.000 
#    0.000    0.000    0.000    0.000    0.000    0.000 
#
# Total GULP energy -133611.297492 kJ/mol
# GULP energy per Si atom -5567.137395 kJ/mol
# Density = 1.659347 g / cm^3
# Si number density = 16.631325 Si / 1000 Ang^3
#
#
#
# Elastic Constant Matrix: (Units=GPa)
#
#
# Indices 1 2 3 4 5 6 
#
# 1 87.4995 71.2268 35.4053 0.0000 0.0000 0.0000
# 2 71.2268 104.7472 46.7150 0.0000 0.0000 0.0000
# 3 35.4053 46.7150 57.6362 0.0000 0.0000 0.0000
# 4 0.0000 0.0000 0.0000 21.5754 0.0000 0.0000
# 5 0.0000 0.0000 0.0000 0.0000 12.3097 0.0000
# 6 0.0000 0.0000 0.0000 0.0000 0.0000 45.0028
#
#
#
# Elastic Compliance Matrix: (Units=1/GPa)
#
#
# Indices 1 2 3 4 5 6 
#
# 1 0.025836 -0.016428 -0.002555 0.000000 0.000000 0.000000
# 2 -0.016428 0.025398 -0.010493 0.000000 0.000000 0.000000
# 3 -0.002555 -0.010493 0.027425 0.000000 0.000000 0.000000
# 4 0.000000 0.000000 0.000000 0.046349 0.000000 0.000000
# 5 0.000000 0.000000 0.000000 0.000000 0.081237 0.000000
# 6 0.000000 0.000000 0.000000 0.000000 0.000000 0.022221
#
#
# Mechanical properties :
#
#
# Convention : Reuss Voigt Hill
#
# Bulk Modulus (GPa) = 50.75019 61.84191 56.29605
# Shear Modulus (GPa) = 17.00756 22.21330 19.61043
#
# Velocity S-wave (km/s) = 3.20132 3.65859 3.43757
# Velocity P-wave (km/s) = 6.65174 7.42373 7.04831
#
# Compressibility (1/GPa) = 0.01970436
#
# Stress axis : x y z
#
# Youngs Moduli (GPa) = 38.70620 39.37353 36.46316
#
# Poissons Ratio (x) = 0.64684 0.09317
# Poissons Ratio (y) = 0.63588 0.38263
# Poissons Ratio (z) = 0.09890 0.41317
#
# Static dielectric constant tensor:
#      x y z
#    x 1.615700 0.000000 0.000000 
#    y 0.000000 1.578030 0.000000 
#    z 0.000000 0.000000 1.585660 
# 
# From -- ./inp_files/22173.got.cif
#   From: 2010.05.17/outbox.cif.g08.bks.cpg/sg24_12_cif.got.tgz:22173.got - 2010.06.04 00:33:39.
