data_PCOD9332529
_publ_section_title
;
Structure prediction by ZEFSAII (Michael W. Deem and Ramdas Pophale) SiO2 
 PCOD9332529
Probable space group: I 2 2 2
;
_chemical_formula_sum "Si O2"
_cell_formula_units_Z 24
_cell_length_a 4.898152
_cell_length_b 17.774704
_cell_length_c 13.439382
_cell_angle_alpha 90.000000
_cell_angle_beta 90.000000
_cell_angle_gamma 90.000000
_cell_volume 1170.075629
_symmetry_space_group_name_H-M "I 2 2 2"
_symmetry_group_IT_number 23
_symmetry_cell_setting 'orthorhombic'
loop_
_space_group_symop_operation_xyz
x,y,z
-x,-y,z
x,-y,-z
-x,y,-z
1/2+x,1/2+y,1/2+z
1/2-x,1/2-y,1/2+z
1/2+x,1/2-y,1/2-z
1/2-x,1/2+y,1/2-z
loop_
_atom_site_type_symbol
_atom_site_label
_atom_site_fract_x
_atom_site_fract_y
_atom_site_fract_z
Si Si1 0.729614 0.550031 0.804448
Si Si2 0.831792 0.792690 0.208820
Si Si3 0.000000 0.257529 0.000000
Si Si4 0.000000 0.871661 0.500000
O O1 0.500000 0.500000 0.750907
O O2 0.778465 0.626539 0.743606
O O3 0.584647 0.577574 0.906274
O O4 0.000000 0.500000 0.821086
O O5 0.575213 0.736208 0.219256
O O6 0.968117 0.790890 0.099965
O O7 0.751161 0.315116 0.991435
#
# Coordination Sequence:
#
# PCOD9332529 Si02
#       4
#     8   8   4   4
#     4  12  25  42  64 103 146 179 222 288 362 417
#     4  12  23  44  70  99 138 182 236 286 337 420
#     4  12  22  42  72 102 132 180 246 286 334 408
#     4  12  23  40  68 102 137 180 224 292 353 420
#
# _framework density 20.511493999999999
#
# number of rings (size 3 to 8) (size 9 to 14) (size 15 to 20)
#    0.000    0.000    6.667    4.500    0.000    1.333 
#    0.000    0.833    0.000    2.000    0.000    0.000 
#    0.000    0.000    0.000    0.000    0.000    0.000 
#
# Total GULP energy -67034.753789 kJ/mol
# GULP energy per Si atom -5586.229482 kJ/mol
# Density = 2.046481 g / cm^3
# Si number density = 20.511494 Si / 1000 Ang^3
#
#
#
# Elastic Constant Matrix: (Units=GPa)
#
#
# Indices 1 2 3 4 5 6 
#
# 1 159.3007 48.8033 26.2118 0.0000 0.0000 0.0000
# 2 48.8033 130.1298 62.1448 0.0000 0.0000 0.0000
# 3 26.2118 62.1448 99.4702 0.0000 0.0000 0.0000
# 4 0.0000 0.0000 0.0000 24.0693 0.0000 0.0000
# 5 0.0000 0.0000 0.0000 0.0000 17.9058 0.0000
# 6 0.0000 0.0000 0.0000 0.0000 0.0000 54.3828
#
#
#
# Elastic Compliance Matrix: (Units=1/GPa)
#
#
# Indices 1 2 3 4 5 6 
#
# 1 0.007098 -0.002521 -0.000295 0.000000 0.000000 0.000000
# 2 -0.002521 0.011848 -0.006738 0.000000 0.000000 0.000000
# 3 -0.000295 -0.006738 0.014341 0.000000 0.000000 0.000000
# 4 0.000000 0.000000 0.000000 0.041547 0.000000 0.000000
# 5 0.000000 0.000000 0.000000 0.000000 0.055848 0.000000
# 6 0.000000 0.000000 0.000000 0.000000 0.000000 0.018388
#
#
# Mechanical properties :
#
#
# Convention : Reuss Voigt Hill
#
# Bulk Modulus (GPa) = 70.53021 73.69119 72.11070
# Shear Modulus (GPa) = 28.91781 36.05429 32.48605
#
# Velocity S-wave (km/s) = 3.75885 4.19711 3.98401
# Velocity P-wave (km/s) = 7.30061 7.71314 7.50971
#
# Compressibility (1/GPa) = 0.01417832
#
# Stress axis : x y z
#
# Youngs Moduli (GPa) = 140.87676 84.40421 69.73244
#
# Poissons Ratio (x) = 0.21279 0.02061
# Poissons Ratio (y) = 0.35516 0.46983
# Poissons Ratio (z) = 0.04163 0.56869
#
# Static dielectric constant tensor:
#      x y z
#    x 1.717040 0.000000 0.000000 
#    y 0.000000 1.800190 0.000000 
#    z 0.000000 0.000000 1.787390 
# 
# From -- ./inp_files/2862.got.cif
#   From: 2010.05.17/outbox.cif.g08.bks.cpg/sg23_2_cif.got.tgz:2862.got - 2010.06.04 12:02:01.
