data_PCOD9332718
_publ_section_title
;
Structure prediction by ZEFSAII (Michael W. Deem and Ramdas Pophale) SiO2 
 PCOD9332718
Probable space group: I 21 21 21
;
_chemical_formula_sum "Si O2"
_cell_formula_units_Z 64
_cell_length_a 15.112384
_cell_length_b 17.389361
_cell_length_c 13.935940
_cell_angle_alpha 90.000000
_cell_angle_beta 90.000000
_cell_angle_gamma 90.000000
_cell_volume 3662.291185
_symmetry_space_group_name_H-M "I 21 21 21"
_symmetry_group_IT_number 24
_symmetry_cell_setting 'orthorhombic'
loop_
_space_group_symop_operation_xyz
x,y,z
-x,1/2-y,z
x,-y,1/2-z
1/2-x,y,-z
1/2+x,1/2+y,1/2+z
1/2-x,-y,1/2+z
1/2+x,1/2-y,-z
-x,1/2+y,1/2-z
loop_
_atom_site_type_symbol
_atom_site_label
_atom_site_fract_x
_atom_site_fract_y
_atom_site_fract_z
Si Si1 0.571512 0.472115 0.353235
Si Si2 0.154063 0.316701 0.458297
Si Si3 0.563237 0.453876 0.957417
Si Si4 0.054553 0.561445 0.175114
Si Si5 0.086768 0.210956 0.637269
Si Si6 0.445685 0.827536 0.682557
Si Si7 0.283438 0.192413 0.690600
Si Si8 0.779963 0.521572 0.143084
O O1 0.537271 0.500000 0.250000
O O2 0.532353 0.523379 0.437728
O O3 0.565477 0.380520 0.376422
O O4 0.675846 0.492706 0.354943
O O5 0.250000 0.340186 0.500000
O O6 0.107255 0.388068 0.404315
O O7 0.106492 0.264841 0.542310
O O8 0.172233 0.257459 0.372762
O O9 0.510698 0.508766 0.885481
O O10 0.550081 0.368536 0.920006
O O11 0.664563 0.476882 0.935375
O O12 0.100490 0.500000 0.250000
O O13 0.995696 0.619185 0.239210
O O14 0.178665 0.209893 0.697600
O O15 0.000000 0.250000 0.682609
O O16 0.500000 0.750000 0.681622
O O17 0.343820 0.817048 0.715648
O O18 0.290698 0.112773 0.631970
O O19 0.813649 0.500000 0.250000
#
# Coordination Sequence:
#
# PCOD9332718 Si02
#       8
#     8   8   8   8   8   8   8   8
#     4  10  22  34  51  78 112 148 190 239 282 335
#     4  10  20  32  52  80 113 147 188 234 284 340
#     4  11  19  32  51  80 110 146 183 218 297 350
#     4  10  20  32  54  84 117 141 179 235 298 349
#     4  10  21  34  54  79 109 154 191 232 280 335
#     4  11  20  31  53  82 117 150 172 229 290 350
#     4  10  18  30  48  79 116 140 179 226 280 342
#     4  10  16  29  48  78 113 140 171 220 285 349
#
# _framework density 17.4754
#
# number of rings (size 3 to 8) (size 9 to 14) (size 15 to 20)
#    0.000    1.750    3.750    2.250    1.750    2.000 
#    0.000    0.625    0.000    6.750    0.000    5.250 
#    0.000    0.000    0.000    0.000    0.000    0.000 
#
# Total GULP energy -178155.819481 kJ/mol
# GULP energy per Si atom -5567.369359 kJ/mol
# Density = 1.743563 g / cm^3
# Si number density = 17.475400 Si / 1000 Ang^3
#
#
#
# Elastic Constant Matrix: (Units=GPa)
#
#
# Indices 1 2 3 4 5 6 
#
# 1 58.5810 40.1239 20.6625 0.0000 0.0000 0.0000
# 2 40.1239 87.2230 50.4568 0.0000 0.0000 0.0000
# 3 20.6625 50.4568 95.3294 0.0000 0.0000 0.0000
# 4 0.0000 0.0000 0.0000 21.5755 0.0000 0.0000
# 5 0.0000 0.0000 0.0000 0.0000 18.1518 0.0000
# 6 0.0000 0.0000 0.0000 0.0000 0.0000 23.7137
#
#
#
# Elastic Compliance Matrix: (Units=1/GPa)
#
#
# Indices 1 2 3 4 5 6 
#
# 1 0.024984 -0.012050 0.000963 0.000000 0.000000 0.000000
# 2 -0.012050 0.022336 -0.009210 0.000000 0.000000 0.000000
# 3 0.000963 -0.009210 0.015156 0.000000 0.000000 0.000000
# 4 0.000000 0.000000 0.000000 0.046349 0.000000 0.000000
# 5 0.000000 0.000000 0.000000 0.000000 0.055091 0.000000
# 6 0.000000 0.000000 0.000000 0.000000 0.000000 0.042170
#
#
# Mechanical properties :
#
#
# Convention : Reuss Voigt Hill
#
# Bulk Modulus (GPa) = 45.70169 51.51330 48.60750
# Shear Modulus (GPa) = 19.68694 21.34754 20.51724
#
# Velocity S-wave (km/s) = 3.36006 3.49890 3.43018
# Velocity P-wave (km/s) = 6.42356 6.77234 6.60025
#
# Compressibility (1/GPa) = 0.02188103
#
# Stress axis : x y z
#
# Youngs Moduli (GPa) = 40.02523 44.77063 65.97936
#
# Poissons Ratio (x) = 0.53949 -0.06351
# Poissons Ratio (y) = 0.48230 0.60770
# Poissons Ratio (z) = -0.03853 0.41236
#
# Static dielectric constant tensor:
#      x y z
#    x 1.627060 0.000000 0.000000 
#    y 0.000000 1.607340 0.000000 
#    z 0.000000 0.000000 1.664440 
# 
# From -- ./inp_files/21778.got.cif
#   From: 2010.05.17/outbox.cif.g08.bks.cpg/sg24_11_cif.got.tgz:21778.got - 2010.06.04 00:33:39.
