data_PCOD9332557
_publ_section_title
;
Structure prediction by ZEFSAII (Michael W. Deem and Ramdas Pophale) SiO2 
 PCOD9332557
Probable space group: I 2 2 2
;
_chemical_formula_sum "Si O2"
_cell_formula_units_Z 32
_cell_length_a 11.847977
_cell_length_b 5.504362
_cell_length_c 21.685810
_cell_angle_alpha 90.000000
_cell_angle_beta 90.000000
_cell_angle_gamma 90.000000
_cell_volume 1414.252121
_symmetry_space_group_name_H-M "I 2 2 2"
_symmetry_group_IT_number 23
_symmetry_cell_setting 'orthorhombic'
loop_
_space_group_symop_operation_xyz
x,y,z
-x,-y,z
x,-y,-z
-x,y,-z
1/2+x,1/2+y,1/2+z
1/2-x,1/2-y,1/2+z
1/2+x,1/2-y,1/2-z
1/2-x,1/2+y,1/2-z
loop_
_atom_site_type_symbol
_atom_site_label
_atom_site_fract_x
_atom_site_fract_y
_atom_site_fract_z
Si Si1 0.391806 0.669500 0.898664
Si Si2 0.000000 0.000000 0.000000
Si Si3 0.000000 0.500000 0.179108
Si Si4 0.180335 0.706406 0.263607
Si Si5 0.351550 0.131154 0.564301
Si Si6 0.500000 0.000000 0.000000
O O1 0.500000 0.500000 0.887993
O O2 0.357640 0.796504 0.834904
O O3 0.276970 0.553898 0.923887
O O4 0.424835 0.845263 0.954031
O O5 0.907405 0.111704 0.952482
O O6 0.066574 0.687033 0.222751
O O7 0.093464 0.416194 0.130480
O O8 0.253672 0.460478 0.249953
O O9 0.384145 0.000000 0.500000
#
# Coordination Sequence:
#
# PCOD9332557 Si02
#       6
#     8   2   4   8   8   2
#     4  12  29  50  80 115 167 214 282 334 423 497
#     4  12  24  40  76 116 152 206 258 348 416 490
#     4  12  26  48  78 112 162 208 270 340 408 490
#     4  12  31  52  82 119 166 221 275 340 411 499
#     4  12  25  47  73 114 154 203 267 334 411 484
#     4  12  26  48  80 118 156 230 256 360 400 514
#
# _framework density 22.626799999999999
#
# number of rings (size 3 to 8) (size 9 to 14) (size 15 to 20)
#    0.000    0.000    5.000    3.375   10.500    2.000 
#    0.000    0.000    0.000    0.000    0.000    0.000 
#    0.000    0.000    0.000    0.000    0.000    0.000 
#
# Total GULP energy -89139.850129 kJ/mol
# GULP energy per Si atom -5571.240633 kJ/mol
# Density = 2.257530 g / cm^3
# Si number density = 22.626800 Si / 1000 Ang^3
#
#
#
# Elastic Constant Matrix: (Units=GPa)
#
#
# Indices 1 2 3 4 5 6 
#
# 1 161.6041 40.0575 47.9220 0.0000 0.0000 0.0000
# 2 40.0575 71.0711 40.2803 0.0000 0.0000 0.0000
# 3 47.9220 40.2803 211.7438 0.0000 0.0000 0.0000
# 4 0.0000 0.0000 0.0000 26.9377 0.0000 0.0000
# 5 0.0000 0.0000 0.0000 0.0000 44.7214 0.0000
# 6 0.0000 0.0000 0.0000 0.0000 0.0000 -11.3495
#
#
#
# Elastic Compliance Matrix: (Units=1/GPa)
#
#
# Indices 1 2 3 4 5 6 
#
# 1 0.007371 -0.003597 -0.000984 0.000000 0.000000 0.000000
# 2 -0.003597 0.017526 -0.002520 0.000000 0.000000 0.000000
# 3 -0.000984 -0.002520 0.005425 0.000000 0.000000 0.000000
# 4 0.000000 0.000000 0.000000 0.037123 0.000000 0.000000
# 5 0.000000 0.000000 0.000000 0.000000 0.022361 0.000000
# 6 0.000000 0.000000 0.000000 0.000000 0.000000 -0.088109
#
#
# Mechanical properties :
#
#
# Convention : Reuss Voigt Hill
#
# Bulk Modulus (GPa) = 62.03388 77.88208 69.95798
# Shear Modulus (GPa) = 235.05937 33.13920 134.09929
#
# Velocity S-wave (km/s) = 10.20348 3.83116 7.70677
# Velocity P-wave (km/s) = 12.89535 7.35292 10.49656
#
# Compressibility (1/GPa) = 0.01612022
#
# Stress axis : x y z
#
# Youngs Moduli (GPa) = 135.66011 57.05826 184.33990
#
# Poissons Ratio (x) = 0.20524 0.18140
# Poissons Ratio (y) = 0.48797 0.46452
# Poissons Ratio (z) = 0.13349 0.14378
#
# Static dielectric constant tensor:
#      x y z
#    x 1.812310 0.000000 0.000000 
#    y 0.000000 1.890630 0.000000 
#    z 0.000000 0.000000 1.952560 
# 
# From -- ./inp_files/3685.got.cif
#   From: 2010.05.17/outbox.cif.g08.bks.cpg/sg23_2_cif.got.tgz:3685.got - 2010.06.04 12:02:01.
