data_PCOD9332534
_publ_section_title
;
Structure prediction by ZEFSAII (Michael W. Deem and Ramdas Pophale) SiO2 
 PCOD9332534
Probable space group: I 2 2 2
;
_chemical_formula_sum "Si O2"
_cell_formula_units_Z 36
_cell_length_a 23.213756
_cell_length_b 12.370603
_cell_length_c 4.781723
_cell_angle_alpha 90.000000
_cell_angle_beta 90.000000
_cell_angle_gamma 90.000000
_cell_volume 1373.158594
_symmetry_space_group_name_H-M "I 2 2 2"
_symmetry_group_IT_number 23
_symmetry_cell_setting 'orthorhombic'
loop_
_space_group_symop_operation_xyz
x,y,z
-x,-y,z
x,-y,-z
-x,y,-z
1/2+x,1/2+y,1/2+z
1/2-x,1/2-y,1/2+z
1/2+x,1/2-y,1/2-z
1/2-x,1/2+y,1/2-z
loop_
_atom_site_type_symbol
_atom_site_label
_atom_site_fract_x
_atom_site_fract_y
_atom_site_fract_z
Si Si1 0.888641 0.400214 0.213732
Si Si2 0.699259 0.500000 0.000000
Si Si3 0.626152 0.500000 0.500000
Si Si4 0.500000 0.500000 0.000000
Si Si5 0.000000 0.500000 0.500000
Si Si6 0.768343 0.677696 0.649889
Si Si7 0.940310 0.178298 0.088901
O O1 0.952007 0.428390 0.339431
O O2 0.831707 0.375549 0.400908
O O3 0.898426 0.279221 0.107757
O O4 0.876815 0.500000 0.000000
O O5 0.659888 0.448784 0.758666
O O6 0.734944 0.583475 0.814747
O O7 0.590901 0.400620 0.372562
O O8 0.462983 0.586446 0.810505
O O9 0.740085 0.722537 0.367240
O O10 0.000000 0.229588 0.000000
#
# Coordination Sequence:
#
# PCOD9332534 Si02
#       7
#     8   4   4   2   2   8   8
#     4  12  28  52  80 118 173 221 296 360 440 544
#     4  12  25  48  73 109 150 194 275 322 410 484
#     4  12  25  45  76 114 153 201 258 344 412 498
#     4  12  22  44  72 112 164 204 278 344 412 524
#     4  12  28  50  80 124 166 242 282 358 448 524
#     4  12  28  52  82 119 158 220 279 356 427 503
#     4  12  24  44  70 111 157 204 266 341 427 505
#
# _framework density 26.216926000000001
#
# number of rings (size 3 to 8) (size 9 to 14) (size 15 to 20)
#    0.000    0.000    3.333    7.000    3.111    0.889 
#    4.000    0.000    0.000    0.000    0.000    0.000 
#    0.000    0.000    0.000    0.000    0.000    0.000 
#
# Total GULP energy -100293.879080 kJ/mol
# GULP energy per Si atom -5571.882171 kJ/mol
# Density = 2.615725 g / cm^3
# Si number density = 26.216926 Si / 1000 Ang^3
#
#
#
# Elastic Constant Matrix: (Units=GPa)
#
#
# Indices 1 2 3 4 5 6 
#
# 1 140.7651 31.5261 17.6930 0.0000 0.0000 0.0000
# 2 31.5261 168.6575 21.2344 0.0000 0.0000 0.0000
# 3 17.6930 21.2344 87.5437 0.0000 0.0000 0.0000
# 4 0.0000 0.0000 0.0000 34.7289 0.0000 0.0000
# 5 0.0000 0.0000 0.0000 0.0000 -8.6446 0.0000
# 6 0.0000 0.0000 0.0000 0.0000 0.0000 6.9470
#
#
#
# Elastic Compliance Matrix: (Units=1/GPa)
#
#
# Indices 1 2 3 4 5 6 
#
# 1 0.007538 -0.001256 -0.001219 0.000000 0.000000 0.000000
# 2 -0.001256 0.006325 -0.001280 0.000000 0.000000 0.000000
# 3 -0.001219 -0.001280 0.011980 0.000000 0.000000 0.000000
# 4 0.000000 0.000000 0.000000 0.028794 0.000000 0.000000
# 5 0.000000 0.000000 0.000000 0.000000 -0.115680 0.000000
# 6 0.000000 0.000000 0.000000 0.000000 0.000000 0.143947
#
#
# Mechanical properties :
#
#
# Convention : Reuss Voigt Hill
#
# Bulk Modulus (GPa) = 54.54573 59.76371 57.15472
# Shear Modulus (GPa) = 51.79934 28.37379 40.08657
#
# Velocity S-wave (km/s) = 4.44982 3.29336 3.91453
# Velocity P-wave (km/s) = 6.87400 6.10794 6.50226
#
# Compressibility (1/GPa) = 0.01833324
#
# Stress axis : x y z
#
# Youngs Moduli (GPa) = 132.65292 158.10040 83.47376
#
# Poissons Ratio (x) = 0.19852 0.10175
# Poissons Ratio (y) = 0.16657 0.10688
# Poissons Ratio (z) = 0.16170 0.20244
#
# Static dielectric constant tensor:
#      x y z
#    x 2.334590 0.000000 0.000000 
#    y 0.000000 2.076260 0.000000 
#    z 0.000000 0.000000 2.182670 
# 
# From -- ./inp_files/1628.got.cif
#   From: 2010.05.17/outbox.cif.g08.bks.cpg/sg23_1_cif.got.tgz:1628.got - 2010.06.04 12:02:01.
