data_PCOD9332837
_publ_section_title
;
Structure prediction by ZEFSAII (Michael W. Deem and Ramdas Pophale) SiO2 
 PCOD9332837
Probable space group: I 21 21 21
;
_chemical_formula_sum "Si O2"
_cell_formula_units_Z 52
_cell_length_a 8.872507
_cell_length_b 22.985266
_cell_length_c 14.018932
_cell_angle_alpha 90.000000
_cell_angle_beta 90.000000
_cell_angle_gamma 90.000000
_cell_volume 2858.978003
_symmetry_space_group_name_H-M "I 21 21 21"
_symmetry_group_IT_number 24
_symmetry_cell_setting 'orthorhombic'
loop_
_space_group_symop_operation_xyz
x,y,z
-x,1/2-y,z
x,-y,1/2-z
1/2-x,y,-z
1/2+x,1/2+y,1/2+z
1/2-x,-y,1/2+z
1/2+x,1/2-y,-z
-x,1/2+y,1/2-z
loop_
_atom_site_type_symbol
_atom_site_label
_atom_site_fract_x
_atom_site_fract_y
_atom_site_fract_z
Si Si1 0.185195 0.076036 0.699200
Si Si2 0.845073 0.114048 0.856368
Si Si3 0.536014 0.886187 0.570525
Si Si4 0.184687 0.974073 0.394002
Si Si5 0.164172 0.220787 0.094671
Si Si6 0.078637 0.500000 0.750000
Si Si7 0.586889 0.305154 0.252447
O O1 0.226636 0.061424 0.810227
O O2 0.165721 0.144374 0.685131
O O3 0.304608 0.041333 0.636101
O O4 0.030756 0.039778 0.683373
O O5 0.674983 0.136883 0.866881
O O6 0.958052 0.157106 0.801969
O O7 0.839554 0.049991 0.809654
O O8 0.909911 0.109323 0.962561
O O9 0.482058 0.948606 0.606286
O O10 0.390842 0.845027 0.574775
O O11 0.250000 0.965985 0.500000
O O12 0.286396 0.218703 0.179036
O O13 0.000000 0.250000 0.110276
O O14 0.250000 0.243978 0.000000
O O15 0.500000 0.250000 0.296516
#
# Coordination Sequence:
#
# PCOD9332837 Si02
#       7
#     8   8   8   8   8   4   8
#     4   9  19  31  52  80 101 137 179 216 266 323
#     4  10  21  32  48  74 103 139 173 210 265 319
#     4  11  20  31  49  73 103 138 172 214 263 312
#     4  10  17  32  53  76 107 135 172 223 268 318
#     4  12  23  32  48  71 101 143 182 215 254 318
#     4   8  16  32  46  64 102 130 166 208 254 310
#     4  11  20  36  50  68 106 140 176 220 260 312
#
# _framework density 18.188317000000001
#
# number of rings (size 3 to 8) (size 9 to 14) (size 15 to 20)
#    0.000    1.846    3.077    4.615    2.154    1.231 
#    0.000    0.000    0.000    0.000    0.000    1.077 
#   18.462    0.000    0.000    0.000    0.000    0.000 
#
# Total GULP energy -144797.499572 kJ/mol
# GULP energy per Si atom -5569.134599 kJ/mol
# Density = 1.814692 g / cm^3
# Si number density = 18.188317 Si / 1000 Ang^3
#
#
#
# Elastic Constant Matrix: (Units=GPa)
#
#
# Indices 1 2 3 4 5 6 
#
# 1 75.4014 25.7967 8.8730 0.0000 0.0000 0.0000
# 2 25.7967 109.0377 9.7729 0.0000 0.0000 0.0000
# 3 8.8730 9.7729 23.8039 0.0000 0.0000 0.0000
# 4 0.0000 0.0000 0.0000 18.0783 0.0000 0.0000
# 5 0.0000 0.0000 0.0000 0.0000 16.8734 0.0000
# 6 0.0000 0.0000 0.0000 0.0000 0.0000 42.4656
#
#
#
# Elastic Compliance Matrix: (Units=1/GPa)
#
#
# Indices 1 2 3 4 5 6 
#
# 1 0.014832 -0.003129 -0.004244 0.000000 0.000000 0.000000
# 2 -0.003129 0.010181 -0.003014 0.000000 0.000000 0.000000
# 3 -0.004244 -0.003014 0.044829 0.000000 0.000000 0.000000
# 4 0.000000 0.000000 0.000000 0.055315 0.000000 0.000000
# 5 0.000000 0.000000 0.000000 0.000000 0.059265 0.000000
# 6 0.000000 0.000000 0.000000 0.000000 0.000000 0.023548
#
#
# Mechanical properties :
#
#
# Convention : Reuss Voigt Hill
#
# Bulk Modulus (GPa) = 20.37930 33.01425 26.69677
# Shear Modulus (GPa) = 20.39973 26.40349 23.40161
#
# Velocity S-wave (km/s) = 3.35264 3.81422 3.59085
# Velocity P-wave (km/s) = 5.12014 6.13094 5.64820
#
# Compressibility (1/GPa) = 0.04906940
#
# Stress axis : x y z
#
# Youngs Moduli (GPa) = 67.42083 98.21767 22.30683
#
# Poissons Ratio (x) = 0.30729 0.09468
# Poissons Ratio (y) = 0.21094 0.06723
# Poissons Ratio (z) = 0.28615 0.29601
#
# Static dielectric constant tensor:
#      x y z
#    x 1.682130 0.000000 0.000000 
#    y 0.000000 1.728990 0.000000 
#    z 0.000000 0.000000 1.607440 
# 
# From -- ./inp_files/25158.got.cif
#   From: 2010.05.17/outbox.cif.g08.bks.cpg/sg24_13_cif.got.tgz:25158.got - 2010.06.04 00:33:39.
