data_PCOD9332275
_publ_section_title
;
Structure prediction by ZEFSAII (Michael W. Deem and Ramdas Pophale) SiO2 
 PCOD9332275
Probable space group: I 2 2 2
;
_chemical_formula_sum "Si O2"
_cell_formula_units_Z 40
_cell_length_a 11.570568
_cell_length_b 8.645950
_cell_length_c 17.993855
_cell_angle_alpha 90.000000
_cell_angle_beta 90.000000
_cell_angle_gamma 90.000000
_cell_volume 1800.079206
_symmetry_space_group_name_H-M "I 2 2 2"
_symmetry_group_IT_number 23
_symmetry_cell_setting 'orthorhombic'
loop_
_space_group_symop_operation_xyz
x,y,z
-x,-y,z
x,-y,-z
-x,y,-z
1/2+x,1/2+y,1/2+z
1/2-x,1/2-y,1/2+z
1/2+x,1/2-y,1/2-z
1/2-x,1/2+y,1/2-z
loop_
_atom_site_type_symbol
_atom_site_label
_atom_site_fract_x
_atom_site_fract_y
_atom_site_fract_z
Si Si1 0.565369 0.780709 0.362991
Si Si2 0.462098 0.820955 0.081887
Si Si3 0.319327 0.108825 0.615530
Si Si4 0.908902 0.864599 0.709496
Si Si5 0.720553 0.327181 0.525916
O O1 0.428337 0.795335 0.353008
O O2 0.615149 0.730608 0.284121
O O3 0.602164 0.666593 0.428398
O O4 0.622836 0.940071 0.393001
O O5 0.525960 0.736304 0.147745
O O6 0.500000 0.000000 0.085987
O O7 0.500000 0.763940 0.000000
O O8 0.325347 0.791806 0.082553
O O9 0.211573 0.090792 0.670550
O O10 0.283130 0.202622 0.541049
O O11 0.000000 0.000000 0.728057
O O12 0.749000 0.500000 0.500000
#
# Coordination Sequence:
#
# PCOD9332275 Si02
#       5
#     8   8   8   8   8
#     4  11  29  46  70 103 149 192 235 302 380 442
#     4  11  22  46  71 112 147 190 242 304 375 424
#     4  11  26  50  69 101 146 195 237 301 371 441
#     4  12  28  45  74 111 142 190 252 304 368 446
#     4  12  24  45  78 107 146 193 249 305 357 447
#
# _framework density 22.221243000000001
#
# number of rings (size 3 to 8) (size 9 to 14) (size 15 to 20)
#    0.000    0.600    4.000    2.400   11.200    2.800 
#    0.000    0.000    0.000    0.000    0.000    0.000 
#    0.000    0.000    0.000    0.000    0.000    0.000 
#
# Total GULP energy -111781.945612 kJ/mol
# GULP energy per Si atom -5589.097281 kJ/mol
# Density = 2.217067 g / cm^3
# Si number density = 22.221243 Si / 1000 Ang^3
#
#
#
# Elastic Constant Matrix: (Units=GPa)
#
#
# Indices 1 2 3 4 5 6 
#
# 1 131.9574 26.9703 17.8562 0.0000 0.0000 0.0000
# 2 26.9703 58.0722 30.7720 0.0000 0.0000 0.0000
# 3 17.8562 30.7720 83.9864 0.0000 0.0000 0.0000
# 4 0.0000 0.0000 0.0000 29.8489 0.0000 0.0000
# 5 0.0000 0.0000 0.0000 0.0000 33.5818 0.0000
# 6 0.0000 0.0000 0.0000 0.0000 0.0000 33.0943
#
#
#
# Elastic Compliance Matrix: (Units=1/GPa)
#
#
# Indices 1 2 3 4 5 6 
#
# 1 0.008386 -0.003661 -0.000442 0.000000 0.000000 0.000000
# 2 -0.003661 0.022967 -0.007636 0.000000 0.000000 0.000000
# 3 -0.000442 -0.007636 0.014799 0.000000 0.000000 0.000000
# 4 0.000000 0.000000 0.000000 0.033502 0.000000 0.000000
# 5 0.000000 0.000000 0.000000 0.000000 0.029778 0.000000
# 6 0.000000 0.000000 0.000000 0.000000 0.000000 0.030217
#
#
# Mechanical properties :
#
#
# Convention : Reuss Voigt Hill
#
# Bulk Modulus (GPa) = 44.10434 47.24587 45.67511
# Shear Modulus (GPa) = 29.29395 32.53284 30.91339
#
# Velocity S-wave (km/s) = 3.63476 3.83043 3.73388
# Velocity P-wave (km/s) = 6.12423 6.39302 6.26007
#
# Compressibility (1/GPa) = 0.02267350
#
# Stress axis : x y z
#
# Youngs Moduli (GPa) = 119.24388 43.54152 67.57415
#
# Poissons Ratio (x) = 0.15939 0.02985
# Poissons Ratio (y) = 0.43652 0.51603
# Poissons Ratio (z) = 0.05267 0.33250
#
# Static dielectric constant tensor:
#      x y z
#    x 1.886620 0.000000 0.000000 
#    y 0.000000 1.897970 0.000000 
#    z 0.000000 0.000000 1.770040 
# 
# From -- ./inp_files/10732.got.cif
#   From: 2010.05.17/outbox.cif.g08.bks.cpg/sg23_6_cif.got.tgz:10732.got - 2010.06.04 12:02:01.
