data_PCOD9332371
_publ_section_title
;
Structure prediction by ZEFSAII (Michael W. Deem and Ramdas Pophale) SiO2 
 PCOD9332371
Probable space group: I 2 2 2
;
_chemical_formula_sum "Si O2"
_cell_formula_units_Z 64
_cell_length_a 8.533949
_cell_length_b 22.427875
_cell_length_c 14.735693
_cell_angle_alpha 90.000000
_cell_angle_beta 90.000000
_cell_angle_gamma 90.000000
_cell_volume 2820.387200
_symmetry_space_group_name_H-M "I 2 2 2"
_symmetry_group_IT_number 23
_symmetry_cell_setting 'orthorhombic'
loop_
_space_group_symop_operation_xyz
x,y,z
-x,-y,z
x,-y,-z
-x,y,-z
1/2+x,1/2+y,1/2+z
1/2-x,1/2-y,1/2+z
1/2+x,1/2-y,1/2-z
1/2-x,1/2+y,1/2-z
loop_
_atom_site_type_symbol
_atom_site_label
_atom_site_fract_x
_atom_site_fract_y
_atom_site_fract_z
Si Si1 0.405808 0.306238 0.193955
Si Si2 0.322319 0.800491 0.469408
Si Si3 0.189142 0.996867 0.393902
Si Si4 0.179149 0.675700 0.474361
Si Si5 0.790862 0.129827 0.625339
Si Si6 0.760190 0.592836 0.266978
Si Si7 0.827513 0.057421 0.046416
Si Si8 0.930456 0.671096 0.721578
O O1 0.248239 0.301033 0.132148
O O2 0.537835 0.345259 0.145689
O O3 0.350605 0.348565 0.274329
O O4 0.475370 0.241217 0.214116
O O5 0.500000 0.808273 0.500000
O O6 0.272761 0.734590 0.501261
O O7 0.236120 0.853820 0.521217
O O8 0.236201 0.060912 0.353525
O O9 0.240886 0.000000 0.500000
O O10 0.246111 0.942982 0.328807
O O11 0.000000 0.000000 0.394573
O O12 0.238620 0.617798 0.524079
O O13 0.179553 0.662867 0.366699
O O14 0.000000 0.688315 0.500000
O O15 0.668426 0.165054 0.687302
O O16 0.692553 0.550379 0.345716
O O17 0.932506 0.621672 0.279959
O O18 0.000000 0.062370 0.000000
O O19 0.751876 0.000000 0.000000
#
# Coordination Sequence:
#
# PCOD9332371 Si02
#       8
#     8   8   8   8   8   8   8   8
#     4  11  24  44  73 105 150 190 245 307 375 457
#     4  11  24  43  71 106 148 190 240 310 381 450
#     4  11  26  47  75 107 139 196 255 304 376 455
#     4  11  23  47  69 105 145 194 245 304 382 457
#     4  12  25  42  73 103 142 187 250 295 372 452
#     4  12  25  49  76 106 153 196 246 321 379 456
#     4  11  28  45  73 104 145 193 258 310 380 458
#     4  11  26  43  69 112 147 191 245 308 385 452
#
# _framework density 22.691918999999999
#
# number of rings (size 3 to 8) (size 9 to 14) (size 15 to 20)
#    0.000    0.750    2.500    4.500    8.750    1.750 
#    0.000    0.625    0.000    0.000    0.000    0.000 
#    0.000    0.000    0.000    0.000    0.000    0.000 
#
# Total GULP energy -178722.302907 kJ/mol
# GULP energy per Si atom -5585.071966 kJ/mol
# Density = 2.264027 g / cm^3
# Si number density = 22.691919 Si / 1000 Ang^3
#
#
#
# Elastic Constant Matrix: (Units=GPa)
#
#
# Indices 1 2 3 4 5 6 
#
# 1 78.3341 6.7264 14.9297 0.0000 0.0000 0.0000
# 2 6.7264 109.9175 26.8741 0.0000 0.0000 0.0000
# 3 14.9297 26.8741 112.0976 -0.0001 0.0000 0.0000
# 4 0.0000 0.0000 -0.0001 36.2123 0.0000 0.0000
# 5 0.0000 0.0000 0.0000 0.0000 17.4312 0.0000
# 6 0.0000 0.0000 0.0000 0.0000 0.0000 26.5230
#
#
#
# Elastic Compliance Matrix: (Units=1/GPa)
#
#
# Indices 1 2 3 4 5 6 
#
# 1 0.013115 -0.000399 -0.001651 0.000000 0.000000 0.000000
# 2 -0.000399 0.009676 -0.002267 0.000000 0.000000 0.000000
# 3 -0.001651 -0.002267 0.009684 0.000000 0.000000 0.000000
# 4 0.000000 0.000000 0.000000 0.027615 0.000000 0.000000
# 5 0.000000 0.000000 0.000000 0.000000 0.057368 0.000000
# 6 0.000000 0.000000 0.000000 0.000000 0.000000 0.037703
#
#
# Mechanical properties :
#
#
# Convention : Reuss Voigt Hill
#
# Bulk Modulus (GPa) = 41.94281 44.15660 43.04971
# Shear Modulus (GPa) = 29.11344 32.82125 30.96735
#
# Velocity S-wave (km/s) = 3.58577 3.80726 3.69817
# Velocity P-wave (km/s) = 5.97221 6.23125 6.10310
#
# Compressibility (1/GPa) = 0.02384199
#
# Stress axis : x y z
#
# Youngs Moduli (GPa) = 76.24998 103.34498 103.26201
#
# Poissons Ratio (x) = 0.04122 0.17049
# Poissons Ratio (y) = 0.03041 0.23406
# Poissons Ratio (z) = 0.12589 0.23425
#
# Static dielectric constant tensor:
#      x y z
#    x 1.880020 0.000000 0.000000 
#    y 0.000000 1.828510 0.000000 
#    z 0.000000 0.000000 1.969000 
# 
# From -- ./inp_files/20343.got.cif
#   From: 2010.05.17/outbox.cif.g08.bks.cpg/sg23_11_cif.got.tgz:20343.got - 2010.06.04 12:02:01.
