data_PCOD9332681
_publ_section_title
;
Structure prediction by ZEFSAII (Michael W. Deem and Ramdas Pophale) SiO2 
 PCOD9332681
Probable space group: I 21 21 21
;
_chemical_formula_sum "Si O2"
_cell_formula_units_Z 40
_cell_length_a 14.295136
_cell_length_b 5.452755
_cell_length_c 26.766020
_cell_angle_alpha 90.000000
_cell_angle_beta 90.000000
_cell_angle_gamma 90.000000
_cell_volume 2086.354362
_symmetry_space_group_name_H-M "I 21 21 21"
_symmetry_group_IT_number 24
_symmetry_cell_setting 'orthorhombic'
loop_
_space_group_symop_operation_xyz
x,y,z
-x,1/2-y,z
x,-y,1/2-z
1/2-x,y,-z
1/2+x,1/2+y,1/2+z
1/2-x,-y,1/2+z
1/2+x,1/2-y,-z
-x,1/2+y,1/2-z
loop_
_atom_site_type_symbol
_atom_site_label
_atom_site_fract_x
_atom_site_fract_y
_atom_site_fract_z
Si Si1 0.852934 0.983243 0.974103
Si Si2 0.859768 0.516279 0.484069
Si Si3 0.608129 0.687228 0.626071
Si Si4 0.215857 0.486330 0.863189
Si Si5 0.260471 0.994549 0.190754
O O1 0.838383 0.985771 0.914934
O O2 0.750000 0.985243 0.000000
O O3 0.898259 0.234115 0.992447
O O4 0.897993 0.734385 0.993676
O O5 0.750000 0.514782 0.500000
O O6 0.871403 0.538826 0.424790
O O7 0.500000 0.750000 0.630683
O O8 0.674797 0.928678 0.623490
O O9 0.653412 0.538450 0.672095
O O10 0.207670 0.734060 0.831460
O O11 0.189689 0.234100 0.834037
O O12 0.268382 0.000000 0.250000
#
# Coordination Sequence:
#
# PCOD9332681 Si02
#       5
#     8   8   8   8   8
#     4  10  15  28  48  66  85 106 151 199 233 292
#     4  10  17  29  48  67  86 115 153 199 237 293
#     4  10  22  34  47  69  97 126 167 209 242 283
#     4  10  19  33  48  68  86 121 164 208 240 276
#     4  10  20  35  46  63  90 127 169 209 244 268
#
# _framework density 19.172198000000002
#
# number of rings (size 3 to 8) (size 9 to 14) (size 15 to 20)
#    1.200    0.800    4.000    4.200    0.000    0.800 
#    3.600    0.000    0.000    0.000    0.000    0.000 
#    0.000    0.000    0.000    0.000    0.000  144.000 
#
# Total GULP energy -111387.909156 kJ/mol
# GULP energy per Si atom -5569.395458 kJ/mol
# Density = 1.912856 g / cm^3
# Si number density = 19.172198 Si / 1000 Ang^3
#
#
#
# Elastic Constant Matrix: (Units=GPa)
#
#
# Indices 1 2 3 4 5 6 
#
# 1 35.4752 6.0556 -3.1653 0.0000 0.0000 0.0000
# 2 6.0556 209.6306 77.7197 0.0000 0.0000 0.0000
# 3 -3.1653 77.7197 164.7902 0.0000 0.0000 0.0000
# 4 0.0000 0.0000 0.0000 31.3520 0.0000 0.0000
# 5 0.0000 0.0000 0.0000 0.0000 -1.1261 0.0000
# 6 0.0000 0.0000 0.0000 0.0000 0.0000 -21.9143
#
#
#
# Elastic Compliance Matrix: (Units=1/GPa)
#
#
# Indices 1 2 3 4 5 6 
#
# 1 0.028502 -0.001244 0.001134 0.000000 0.000000 0.000000
# 2 -0.001244 0.005835 -0.002776 0.000000 0.000000 0.000000
# 3 0.001134 -0.002776 0.007399 0.000000 0.000000 0.000000
# 4 0.000000 0.000000 0.000000 0.031896 0.000000 0.000000
# 5 0.000000 0.000000 0.000000 0.000000 -0.888044 0.000000
# 6 0.000000 0.000000 0.000000 0.000000 0.000000 -0.045632
#
#
# Mechanical properties :
#
#
# Convention : Reuss Voigt Hill
#
# Bulk Modulus (GPa) = 27.80446 63.45734 45.63090
# Shear Modulus (GPa) = -5.93624 23.61471 8.83923
#
# Velocity S-wave (km/s) = -1.76153 3.51339 2.14952
# Velocity P-wave (km/s) = 3.22438 7.04479 5.47840
#
# Compressibility (1/GPa) = 0.03596545
#
# Stress axis : x y z
#
# Youngs Moduli (GPa) = 35.08503 171.36690 135.14678
#
# Poissons Ratio (x) = 0.21314 -0.15327
# Poissons Ratio (y) = 0.04364 0.37517
# Poissons Ratio (z) = -0.03979 0.47572
#
# Static dielectric constant tensor:
#      x y z
#    x 1.640460 0.000000 0.000000 
#    y 0.000000 1.705840 0.000000 
#    z 0.000000 0.000000 1.633620 
# 
# From -- ./inp_files/38663.got.cif
#   From: 2010.05.17/outbox.cif.g08.bks.cpg/sg24_20_cif.got.tgz:38663.got - 2010.06.04 00:33:39.
