data_PCOD9332025
_publ_section_title
;
Structure prediction by ZEFSAII (Michael W. Deem and Ramdas Pophale) SiO2 
 PCOD9332025
Probable space group: I 2 2 2
;
_chemical_formula_sum "Si O2"
_cell_formula_units_Z 30
_cell_length_a 5.084018
_cell_length_b 10.295498
_cell_length_c 25.594091
_cell_angle_alpha 90.000000
_cell_angle_beta 90.000000
_cell_angle_gamma 90.000000
_cell_volume 1339.658635
_symmetry_space_group_name_H-M "I 2 2 2"
_symmetry_group_IT_number 23
_symmetry_cell_setting 'orthorhombic'
loop_
_space_group_symop_operation_xyz
x,y,z
-x,-y,z
x,-y,-z
-x,y,-z
1/2+x,1/2+y,1/2+z
1/2-x,1/2-y,1/2+z
1/2+x,1/2-y,1/2-z
1/2-x,1/2+y,1/2-z
loop_
_atom_site_type_symbol
_atom_site_label
_atom_site_fract_x
_atom_site_fract_y
_atom_site_fract_z
Si Si1 0.658489 0.333410 0.739537
Si Si2 0.000000 0.500000 0.815334
Si Si3 0.000000 0.500000 0.000000
Si Si4 0.203818 0.121935 0.405625
Si Si5 0.743396 0.586826 0.379307
O O1 0.372066 0.282367 0.754714
O O2 0.776064 0.439150 0.779164
O O3 0.665339 0.382323 0.680598
O O4 0.898400 0.606340 0.856355
O O5 0.830391 0.412596 0.038872
O O6 0.160049 0.276496 0.404979
O O7 0.000000 0.000000 0.397616
O O8 0.500000 0.500000 0.401809
O O9 0.000000 0.500000 0.378240
#
# Coordination Sequence:
#
# PCOD9332025 Si02
#       5
#     8   4   2   8   8
#     4  12  24  39  61 101 149 203 253 295 352 441
#     4  11  24  35  68  98 144 194 253 287 350 434
#     4  10  26  48  86 106 136 180 272 318 386 442
#     4  11  25  48  78 106 142 195 255 317 377 450
#     4  12  27  45  71 108 159 198 245 310 390 451
#
# _framework density 22.393763
#
# number of rings (size 3 to 8) (size 9 to 14) (size 15 to 20)
#    0.000    0.533    4.000    3.600    7.467    0.000 
#    0.000    0.667    0.000    0.000    0.000    0.000 
#    0.000    0.000    0.000    0.000    0.000    0.000 
#
# Total GULP energy -83802.521788 kJ/mol
# GULP energy per Si atom -5586.834786 kJ/mol
# Density = 2.234279 g / cm^3
# Si number density = 22.393763 Si / 1000 Ang^3
#
#
#
# Elastic Constant Matrix: (Units=GPa)
#
#
# Indices 1 2 3 4 5 6 
#
# 1 69.5605 47.6861 7.7148 0.0000 0.0000 0.0000
# 2 47.6861 196.5656 49.4379 0.0000 0.0000 0.0000
# 3 7.7148 49.4379 105.0559 0.0000 0.0000 0.0000
# 4 0.0000 0.0000 0.0000 11.4948 0.0000 0.0000
# 5 0.0000 0.0000 0.0000 0.0000 21.3861 0.0000
# 6 0.0000 0.0000 0.0000 0.0000 0.0000 54.2440
#
#
#
# Elastic Compliance Matrix: (Units=1/GPa)
#
#
# Indices 1 2 3 4 5 6 
#
# 1 0.017303 -0.004399 0.000799 0.000000 0.000000 0.000000
# 2 -0.004399 0.006889 -0.002919 0.000000 0.000000 0.000000
# 3 0.000799 -0.002919 0.010834 0.000000 0.000000 0.000000
# 4 0.000000 0.000000 0.000000 0.086996 0.000000 0.000000
# 5 0.000000 0.000000 0.000000 0.000000 0.046759 0.000000
# 6 0.000000 0.000000 0.000000 0.000000 0.000000 0.018435
#
#
# Mechanical properties :
#
#
# Convention : Reuss Voigt Hill
#
# Bulk Modulus (GPa) = 45.47755 64.53997 55.00876
# Shear Modulus (GPa) = 24.08701 35.18119 29.63410
#
# Velocity S-wave (km/s) = 3.28321 3.96792 3.64169
# Velocity P-wave (km/s) = 5.89278 7.06226 6.50386
#
# Compressibility (1/GPa) = 0.02198887
#
# Stress axis : x y z
#
# Youngs Moduli (GPa) = 57.79432 145.16933 92.30617
#
# Poissons Ratio (x) = 0.63854 -0.07378
# Poissons Ratio (y) = 0.25421 0.26941
# Poissons Ratio (z) = -0.04619 0.42370
#
# Static dielectric constant tensor:
#      x y z
#    x 1.766700 0.000000 0.000000 
#    y 0.000000 2.021250 0.000000 
#    z 0.000000 0.000000 1.756490 
# 
# From -- ./inp_files/29800.got.cif
#   From: 2010.05.17/outbox.cif.g08.bks.cpg/sg23_15_cif.got.tgz:29800.got - 2010.06.04 12:02:01.
