data_PCOD9332385
_publ_section_title
;
Structure prediction by ZEFSAII (Michael W. Deem and Ramdas Pophale) SiO2 
 PCOD9332385
Probable space group: I 2 2 2
;
_chemical_formula_sum "Si O2"
_cell_formula_units_Z 34
_cell_length_a 27.551635
_cell_length_b 7.420844
_cell_length_c 6.809117
_cell_angle_alpha 90.000000
_cell_angle_beta 90.000000
_cell_angle_gamma 90.000000
_cell_volume 1392.167449
_symmetry_space_group_name_H-M "I 2 2 2"
_symmetry_group_IT_number 23
_symmetry_cell_setting 'orthorhombic'
loop_
_space_group_symop_operation_xyz
x,y,z
-x,-y,z
x,-y,-z
-x,y,-z
1/2+x,1/2+y,1/2+z
1/2-x,1/2-y,1/2+z
1/2+x,1/2-y,1/2-z
1/2-x,1/2+y,1/2-z
loop_
_atom_site_type_symbol
_atom_site_label
_atom_site_fract_x
_atom_site_fract_y
_atom_site_fract_z
Si Si1 0.873632 0.822160 0.605681
Si Si2 0.812952 0.653009 0.283842
Si Si3 0.500000 0.500000 0.000000
Si Si4 0.204378 0.246617 0.862884
Si Si5 0.543537 0.684103 0.372782
O O1 0.857393 0.694035 0.427925
O O2 0.823761 0.881732 0.712731
O O3 0.905610 0.742154 0.786298
O O4 0.895275 0.000000 0.500000
O O5 0.805840 0.555081 0.774703
O O6 0.761313 0.710115 0.375809
O O7 0.817249 0.757435 0.079365
O O8 0.520979 0.362843 0.837835
O O9 0.554000 0.500000 0.500000
O O10 0.500000 0.774920 0.500000
#
# Coordination Sequence:
#
# PCOD9332385 Si02
#       5
#     8   8   2   8   8
#     4  12  24  36  64  99 131 177 222 276 342 401
#     4  11  24  41  61  90 136 188 231 274 322 388
#     4   8  14  36  56  82 130 156 206 264 346 370
#     4  11  24  41  61  91 135 187 232 273 321 390
#     4   9  20  36  60  92 133 163 213 279 340 403
#
# _framework density 24.422348
#
# number of rings (size 3 to 8) (size 9 to 14) (size 15 to 20)
#    0.000    1.647    3.529    2.118    3.294    1.882 
#    0.000    0.000    0.000    0.000    0.000   26.353 
#    0.000    0.000    0.000    0.000    0.000    0.000 
#
# Total GULP energy -94747.467537 kJ/mol
# GULP energy per Si atom -5573.380443 kJ/mol
# Density = 2.436676 g / cm^3
# Si number density = 24.422348 Si / 1000 Ang^3
#
#
#
# Elastic Constant Matrix: (Units=GPa)
#
#
# Indices 1 2 3 4 5 6 
#
# 1 105.8581 10.4884 69.2595 0.0000 0.0000 0.0000
# 2 10.4884 69.4507 39.4412 0.0000 0.0000 0.0000
# 3 69.2595 39.4412 196.0550 0.0000 0.0000 0.0000
# 4 0.0000 0.0000 0.0000 24.8524 0.0000 0.0000
# 5 0.0000 0.0000 0.0000 0.0000 44.4777 0.0000
# 6 0.0000 0.0000 0.0000 0.0000 0.0000 11.2680
#
#
#
# Elastic Compliance Matrix: (Units=1/GPa)
#
#
# Indices 1 2 3 4 5 6 
#
# 1 0.012316 0.000690 -0.004489 0.000000 0.000000 0.000000
# 2 0.000690 0.016295 -0.003522 0.000000 0.000000 0.000000
# 3 -0.004489 -0.003522 0.007395 0.000000 0.000000 0.000000
# 4 0.000000 0.000000 0.000000 0.040238 0.000000 0.000000
# 5 0.000000 0.000000 0.000000 0.000000 0.022483 0.000000
# 6 0.000000 0.000000 0.000000 0.000000 0.000000 0.088747
#
#
# Mechanical properties :
#
#
# Convention : Reuss Voigt Hill
#
# Bulk Modulus (GPa) = 46.81152 67.74909 57.28031
# Shear Modulus (GPa) = 23.89643 32.93126 28.41385
#
# Velocity S-wave (km/s) = 3.13144 3.67605 3.41462
# Velocity P-wave (km/s) = 5.68187 6.76895 6.24909
#
# Compressibility (1/GPa) = 0.02136226
#
# Stress axis : x y z
#
# Youngs Moduli (GPa) = 81.19819 61.37036 135.22601
#
# Poissons Ratio (x) = -0.04232 0.60708
# Poissons Ratio (y) = -0.05600 0.47622
# Poissons Ratio (z) = 0.36453 0.21613
#
# Static dielectric constant tensor:
#      x y z
#    x 2.153940 0.000000 0.000000 
#    y 0.000000 2.007130 0.000000 
#    z 0.000000 0.000000 1.940170 
# 
# From -- ./inp_files/5254.got.cif
#   From: 2010.05.17/outbox.cif.g08.bks.cpg/sg23_3_cif.got.tgz:5254.got - 2010.06.04 12:02:01.
