data_PCOD9332715
_publ_section_title
;
Structure prediction by ZEFSAII (Michael W. Deem and Ramdas Pophale) SiO2 
 PCOD9332715
Probable space group: I 21 21 21
;
_chemical_formula_sum "Si O2"
_cell_formula_units_Z 44
_cell_length_a 9.171285
_cell_length_b 12.680823
_cell_length_c 15.575799
_cell_angle_alpha 90.000000
_cell_angle_beta 90.000000
_cell_angle_gamma 90.000000
_cell_volume 1811.456729
_symmetry_space_group_name_H-M "I 21 21 21"
_symmetry_group_IT_number 24
_symmetry_cell_setting 'orthorhombic'
loop_
_space_group_symop_operation_xyz
x,y,z
-x,1/2-y,z
x,-y,1/2-z
1/2-x,y,-z
1/2+x,1/2+y,1/2+z
1/2-x,-y,1/2+z
1/2+x,1/2-y,-z
-x,1/2+y,1/2-z
loop_
_atom_site_type_symbol
_atom_site_label
_atom_site_fract_x
_atom_site_fract_y
_atom_site_fract_z
Si Si1 0.750000 0.734014 0.000000
Si Si2 0.329455 0.847539 0.584611
Si Si3 0.338763 0.779404 0.255390
Si Si4 0.586092 0.029650 0.967011
Si Si5 0.615528 0.161164 0.646719
Si Si6 0.631752 0.447928 0.385909
O O1 0.638872 0.805811 0.951671
O O2 0.825918 0.657696 0.935052
O O3 0.250000 0.805815 0.500000
O O4 0.275976 0.787983 0.668115
O O5 0.497427 0.867495 0.563344
O O6 0.257351 0.964854 0.601660
O O7 0.500000 0.750000 0.286174
O O8 0.266321 0.688515 0.195010
O O9 0.365775 0.893508 0.208550
O O10 0.578000 0.958900 0.877223
O O11 0.750000 0.042408 0.000000
O O12 0.500830 0.991285 0.054805
O O13 0.500000 0.250000 0.679441
#
# Coordination Sequence:
#
# PCOD9332715 Si02
#       6
#     4   8   8   8   8   8
#     4  10  16  28  54  90 136 172 202 246 334 408
#     4  10  22  44  65  86 126 181 229 271 331 399
#     4  11  24  39  63  97 131 177 230 279 329 395
#     4  11  19  32  61 100 132 169 214 276 346 408
#     4  11  20  32  57  98 143 167 208 271 343 408
#     4  10  18  35  60  94 132 174 212 268 338 402
#
# _framework density 24.289843000000001
#
# number of rings (size 3 to 8) (size 9 to 14) (size 15 to 20)
#    0.000    1.455    5.455    2.727    2.545    0.000 
#    0.000    4.545    0.000    5.455    0.000    0.000 
#    0.000    0.000    0.000    0.000    0.000    0.000 
#
# Total GULP energy -122533.057763 kJ/mol
# GULP energy per Si atom -5569.684444 kJ/mol
# Density = 2.423456 g / cm^3
# Si number density = 24.289843 Si / 1000 Ang^3
#
#
#
# Elastic Constant Matrix: (Units=GPa)
#
#
# Indices 1 2 3 4 5 6 
#
# 1 144.7233 14.0097 21.5418 0.0000 0.0000 0.0000
# 2 14.0097 61.6549 20.2126 0.0000 0.0000 0.0000
# 3 21.5418 20.2126 93.4542 0.0000 0.0000 0.0000
# 4 0.0000 0.0000 0.0000 12.0043 0.0000 0.0000
# 5 0.0000 0.0000 0.0000 0.0000 28.2783 0.0000
# 6 0.0000 0.0000 0.0000 0.0000 0.0000 18.8738
#
#
#
# Elastic Compliance Matrix: (Units=1/GPa)
#
#
# Indices 1 2 3 4 5 6 
#
# 1 0.007234 -0.001181 -0.001412 0.000000 0.000000 0.000000
# 2 -0.001181 0.017650 -0.003545 0.000000 0.000000 0.000000
# 3 -0.001412 -0.003545 0.011793 0.000000 0.000000 0.000000
# 4 0.000000 0.000000 0.000000 0.083303 0.000000 0.000000
# 5 0.000000 0.000000 0.000000 0.000000 0.035363 0.000000
# 6 0.000000 0.000000 0.000000 0.000000 0.000000 0.052983
#
#
# Mechanical properties :
#
#
# Convention : Reuss Voigt Hill
#
# Bulk Modulus (GPa) = 40.98285 45.70672 43.34479
# Shear Modulus (GPa) = 21.85922 28.10249 24.98086
#
# Velocity S-wave (km/s) = 3.00314 3.40511 3.21042
# Velocity P-wave (km/s) = 5.37905 5.85814 5.62370
#
# Compressibility (1/GPa) = 0.02440045
#
# Stress axis : x y z
#
# Youngs Moduli (GPa) = 138.23142 56.65761 84.79821
#
# Poissons Ratio (x) = 0.06691 0.11975
# Poissons Ratio (y) = 0.16323 0.30062
# Poissons Ratio (z) = 0.19520 0.20086
#
# Static dielectric constant tensor:
#      x y z
#    x 1.953930 0.000000 0.000000 
#    y 0.000000 1.981620 0.000000 
#    z 0.000000 0.000000 2.075250 
# 
# From -- ./inp_files/24737.got.cif
#   From: 2010.05.17/outbox.cif.g08.bks.cpg/sg24_13_cif.got.tgz:24737.got - 2010.06.04 00:33:39.
