data_PCOD9332894
_publ_section_title
;
Structure prediction by ZEFSAII (Michael W. Deem and Ramdas Pophale) SiO2 
 PCOD9332894
Probable space group: I 21 21 21
;
_chemical_formula_sum "Si O2"
_cell_formula_units_Z 60
_cell_length_a 23.391925
_cell_length_b 7.050403
_cell_length_c 13.400195
_cell_angle_alpha 90.000000
_cell_angle_beta 90.000000
_cell_angle_gamma 90.000000
_cell_volume 2209.993636
_symmetry_space_group_name_H-M "I 21 21 21"
_symmetry_group_IT_number 24
_symmetry_cell_setting 'orthorhombic'
loop_
_space_group_symop_operation_xyz
x,y,z
-x,1/2-y,z
x,-y,1/2-z
1/2-x,y,-z
1/2+x,1/2+y,1/2+z
1/2-x,-y,1/2+z
1/2+x,1/2-y,-z
-x,1/2+y,1/2-z
loop_
_atom_site_type_symbol
_atom_site_label
_atom_site_fract_x
_atom_site_fract_y
_atom_site_fract_z
Si Si1 0.127435 0.052571 0.110908
Si Si2 0.615797 0.021397 0.137976
Si Si3 0.489864 0.964333 0.375675
Si Si4 0.869929 0.528035 0.612611
Si Si5 0.005475 0.035493 0.115656
Si Si6 0.750545 0.642810 0.377132
Si Si7 0.878502 0.985605 0.089465
Si Si8 0.787436 0.000000 0.250000
O O1 0.068037 0.970848 0.151155
O O2 0.191407 0.034064 0.148501
O O3 0.121606 0.282873 0.101316
O O4 0.131298 0.967946 0.000982
O O5 0.550798 0.945755 0.145273
O O6 0.618555 0.246589 0.119333
O O7 0.640544 0.000000 0.250000
O O8 0.635507 0.947456 0.027958
O O9 0.500000 0.750000 0.338207
O O10 0.429133 0.051279 0.344870
O O11 0.487183 0.952259 0.495773
O O12 0.804880 0.515784 0.646433
O O13 0.000000 0.250000 0.155770
O O14 0.943701 0.936660 0.123031
O O15 0.750000 0.681327 0.500000
O O16 0.753471 0.839458 0.313748
O O17 0.830952 0.912680 0.166454
#
# Coordination Sequence:
#
# PCOD9332894 Si02
#       8
#     8   8   8   8   8   8   8   4
#     4   7  11  20  33  49  68  89 117 151 179 212
#     4   9  15  22  36  54  72  92 124 152 185 225
#     4   7  11  20  32  48  68  89 115 154 185 216
#     4   8  13  21  32  48  71  98 121 142 181 220
#     4   7   9  17  34  49  63  85 116 148 186 216
#     4   9  16  24  34  51  77 104 124 145 175 217
#     4   8  14  23  33  50  73  97 117 146 180 218
#     4  10  18  26  34  48  82 104 126 146 170 210
#
# _framework density 27.149398000000001
#
# number of rings (size 3 to 8) (size 9 to 14) (size 15 to 20)
#    0.000    4.000    0.000    4.000    0.933    0.000 
#    0.000    0.000    0.000    0.000    0.000   14.000 
#    2.000    0.000    0.000    0.000    1.067    0.000 
#
# Total GULP energy -167068.607650 kJ/mol
# GULP energy per Si atom -5568.953588 kJ/mol
# Density = 2.708760 g / cm^3
# Si number density = 27.149398 Si / 1000 Ang^3
#
#
#
# Elastic Constant Matrix: (Units=GPa)
#
#
# Indices 1 2 3 4 5 6 
#
# 1 169.1525 6.4863 16.0974 0.0000 0.0000 0.0000
# 2 6.4863 119.9642 12.7143 0.0000 0.0000 0.0000
# 3 16.0974 12.7143 224.8811 0.0000 0.0000 0.0000
# 4 0.0000 0.0000 0.0000 28.4148 0.0000 0.0000
# 5 0.0000 0.0000 0.0000 0.0000 -16.5667 0.0000
# 6 0.0000 0.0000 0.0000 0.0000 0.0000 -78.6984
#
#
#
# Elastic Compliance Matrix: (Units=1/GPa)
#
#
# Indices 1 2 3 4 5 6 
#
# 1 0.005962 -0.000279 -0.000411 0.000000 0.000000 0.000000
# 2 -0.000279 0.008399 -0.000455 0.000000 0.000000 0.000000
# 3 -0.000411 -0.000455 0.004502 0.000000 0.000000 0.000000
# 4 0.000000 0.000000 0.000000 0.035193 0.000000 0.000000
# 5 0.000000 0.000000 0.000000 0.000000 -0.060362 0.000000
# 6 0.000000 0.000000 0.000000 0.000000 0.000000 -0.012707
#
#
# Mechanical properties :
#
#
# Convention : Reuss Voigt Hill
#
# Bulk Modulus (GPa) = 60.33794 64.95486 62.64640
# Shear Modulus (GPa) = -446.44816 18.54326 -213.95245
#
# Velocity S-wave (km/s) = -12.83738 2.61628 -8.88688
# Velocity P-wave (km/s) = 14.05199 5.75356 9.06518
#
# Compressibility (1/GPa) = 0.01657332
#
# Stress axis : x y z
#
# Youngs Moduli (GPa) = 167.73942 119.06026 222.12683
#
# Poissons Ratio (x) = 0.03319 0.09129
# Poissons Ratio (y) = 0.04676 0.10105
# Poissons Ratio (z) = 0.06894 0.05416
#
# Static dielectric constant tensor:
#      x y z
#    x 1.486490 0.000000 0.000000 
#    y 0.000000 2.099270 0.000000 
#    z 0.000000 0.000000 2.119810 
# 
# From -- ./inp_files/22748.got.cif
#   From: 2010.05.17/outbox.cif.g08.bks.cpg/sg24_12_cif.got.tgz:22748.got - 2010.06.04 00:33:39.
