data_PCOD9332833
_publ_section_title
;
Structure prediction by ZEFSAII (Michael W. Deem and Ramdas Pophale) SiO2 
 PCOD9332833
Probable space group: I 21 21 21
;
_chemical_formula_sum "Si O2"
_cell_formula_units_Z 64
_cell_length_a 17.348324
_cell_length_b 21.721593
_cell_length_c 9.151917
_cell_angle_alpha 90.000000
_cell_angle_beta 90.000000
_cell_angle_gamma 90.000000
_cell_volume 3448.746473
_symmetry_space_group_name_H-M "I 21 21 21"
_symmetry_group_IT_number 24
_symmetry_cell_setting 'orthorhombic'
loop_
_space_group_symop_operation_xyz
x,y,z
-x,1/2-y,z
x,-y,1/2-z
1/2-x,y,-z
1/2+x,1/2+y,1/2+z
1/2-x,-y,1/2+z
1/2+x,1/2-y,-z
-x,1/2+y,1/2-z
loop_
_atom_site_type_symbol
_atom_site_label
_atom_site_fract_x
_atom_site_fract_y
_atom_site_fract_z
Si Si1 0.611873 0.701463 0.457131
Si Si2 0.278199 0.548798 0.146635
Si Si3 0.660798 0.268968 0.745771
Si Si4 0.820965 0.289141 0.639064
Si Si5 0.553060 0.841862 0.433216
Si Si6 0.606176 0.845257 0.099017
Si Si7 0.313440 0.367602 0.869572
Si Si8 0.039003 0.809676 0.026430
O O1 0.661487 0.695033 0.602235
O O2 0.659556 0.701005 0.309570
O O3 0.579151 0.771405 0.464126
O O4 0.538316 0.656721 0.455528
O O5 0.320092 0.500000 0.250000
O O6 0.332025 0.601803 0.084344
O O7 0.216228 0.581830 0.254011
O O8 0.250000 0.515551 0.000000
O O9 0.728485 0.292149 0.639048
O O10 0.676592 0.197133 0.781250
O O11 0.577473 0.283527 0.673748
O O12 0.847931 0.219743 0.593716
O O13 0.886198 0.331337 0.561903
O O14 0.572252 0.852194 0.263013
O O15 0.606835 0.880176 0.543883
O O16 0.536546 0.851381 0.981778
O O17 0.250000 0.358392 0.000000
O O18 0.000000 0.750000 0.946253
#
# Coordination Sequence:
#
# PCOD9332833 Si02
#       8
#     8   8   8   8   8   8   8   8
#     4   9  17  27  44  72  96 139 179 208 246 309
#     4  12  27  41  58  79 106 142 201 255 299 333
#     4  11  20  27  47  76 109 137 180 221 261 323
#     4  10  17  32  47  69 102 147 177 207 260 332
#     4   9  16  29  51  68  97 136 179 221 256 315
#     4  10  19  36  55  68  99 147 186 227 278 335
#     4  11  20  35  55  76 103 148 194 235 283 335
#     4  10  22  29  45  70 105 137 182 218 269 337
#
# _framework density 18.557468
#
# number of rings (size 3 to 8) (size 9 to 14) (size 15 to 20)
#    0.000    1.750    3.750    2.625    7.000    0.000 
#    0.000    0.000    0.000    0.000    0.000    0.000 
#    0.000    0.000    8.500    0.000    0.000    0.000 
#
# Total GULP energy -178221.603798 kJ/mol
# GULP energy per Si atom -5569.425119 kJ/mol
# Density = 1.851523 g / cm^3
# Si number density = 18.557468 Si / 1000 Ang^3
#
#
#
# Elastic Constant Matrix: (Units=GPa)
#
#
# Indices 1 2 3 4 5 6 
#
# 1 99.4363 9.2612 14.2982 0.0000 0.0000 0.0000
# 2 9.2612 15.3313 7.8837 0.0000 0.0000 0.0000
# 3 14.2982 7.8837 70.5331 0.0000 0.0000 0.0000
# 4 0.0000 0.0000 0.0000 17.6259 0.0000 0.0000
# 5 0.0000 0.0000 0.0000 0.0000 37.8814 0.0000
# 6 0.0000 0.0000 0.0000 0.0000 0.0000 3.8483
#
#
#
# Elastic Compliance Matrix: (Units=1/GPa)
#
#
# Indices 1 2 3 4 5 6 
#
# 1 0.010814 -0.005735 -0.001551 0.000000 0.000000 0.000000
# 2 -0.005735 0.072245 -0.006913 0.000000 0.000000 0.000000
# 3 -0.001551 -0.006913 0.015265 0.000000 0.000000 0.000000
# 4 0.000000 0.000000 0.000000 0.056735 0.000000 0.000000
# 5 0.000000 0.000000 0.000000 0.000000 0.026398 0.000000
# 6 0.000000 0.000000 0.000000 0.000000 0.000000 0.259853
#
#
# Mechanical properties :
#
#
# Convention : Reuss Voigt Hill
#
# Bulk Modulus (GPa) = 14.30071 27.57632 20.93851
# Shear Modulus (GPa) = 10.14168 22.12829 16.13499
#
# Velocity S-wave (km/s) = 2.34027 3.45689 2.95186
# Velocity P-wave (km/s) = 3.87626 5.55209 4.78806
#
# Compressibility (1/GPa) = 0.06992660
#
# Stress axis : x y z
#
# Youngs Moduli (GPa) = 92.47406 13.84186 65.51009
#
# Poissons Ratio (x) = 0.07938 0.10162
# Poissons Ratio (y) = 0.53031 0.45284
# Poissons Ratio (z) = 0.14344 0.09568
#
# Static dielectric constant tensor:
#      x y z
#    x 1.741440 0.000000 0.000000 
#    y 0.000000 1.641540 0.000000 
#    z 0.000000 0.000000 1.747930 
# 
# From -- ./inp_files/14577.got.cif
#   From: 2010.05.17/outbox.cif.g08.bks.cpg/sg24_8_cif.got.tgz:14577.got - 2010.06.04 00:33:39.
