data_PCOD9332896
_publ_section_title
;
Structure prediction by ZEFSAII (Michael W. Deem and Ramdas Pophale) SiO2 
 PCOD9332896
Probable space group: I 21 21 21
;
_chemical_formula_sum "Si O2"
_cell_formula_units_Z 36
_cell_length_a 21.598435
_cell_length_b 8.766064
_cell_length_c 10.009686
_cell_angle_alpha 90.000000
_cell_angle_beta 90.000000
_cell_angle_gamma 90.000000
_cell_volume 1895.166517
_symmetry_space_group_name_H-M "I 21 21 21"
_symmetry_group_IT_number 24
_symmetry_cell_setting 'orthorhombic'
loop_
_space_group_symop_operation_xyz
x,y,z
-x,1/2-y,z
x,-y,1/2-z
1/2-x,y,-z
1/2+x,1/2+y,1/2+z
1/2-x,-y,1/2+z
1/2+x,1/2-y,-z
-x,1/2+y,1/2-z
loop_
_atom_site_type_symbol
_atom_site_label
_atom_site_fract_x
_atom_site_fract_y
_atom_site_fract_z
Si Si1 0.250000 0.491839 0.500000
Si Si2 0.348234 0.927513 0.987883
Si Si3 0.745184 0.290905 0.686484
Si Si4 0.666745 0.752034 0.415225
Si Si5 0.433079 0.824238 0.200001
O O1 0.253577 0.379044 0.626438
O O2 0.311871 0.594023 0.486854
O O3 0.296227 0.883523 0.099991
O O4 0.406789 0.839525 0.049411
O O5 0.353908 0.109614 0.994640
O O6 0.320314 0.863351 0.851511
O O7 0.769949 0.291861 0.835589
O O8 0.614669 0.763961 0.299014
O O9 0.500000 0.750000 0.206109
O O10 0.433953 0.000000 0.250000
#
# Coordination Sequence:
#
# PCOD9332896 Si02
#       5
#     4   8   8   8   8
#     4  10  18  26  42  66  92 122 146 182 230 268
#     4   8  16  29  43  61  87 118 149 179 217 268
#     4   9  17  28  42  64  91 117 150 186 223 269
#     4  10  18  30  45  66  95 122 149 182 225 274
#     4   9  18  29  44  65  90 120 152 186 228 271
#
# _framework density 18.995692999999999
#
# number of rings (size 3 to 8) (size 9 to 14) (size 15 to 20)
#    0.000    3.111    0.000    4.000    0.000    5.333 
#    0.000    0.000    0.000    0.000    0.000    1.556 
#    0.000   42.667    0.000    0.667    0.000    0.000 
#
# Total GULP energy -100293.447629 kJ/mol
# GULP energy per Si atom -5571.858202 kJ/mol
# Density = 1.895246 g / cm^3
# Si number density = 18.995693 Si / 1000 Ang^3
#
#
#
# Elastic Constant Matrix: (Units=GPa)
#
#
# Indices 1 2 3 4 5 6 
#
# 1 95.2547 29.7814 17.3242 0.0000 0.0000 0.0000
# 2 29.7814 102.1046 12.5227 0.0000 0.0000 0.0000
# 3 17.3242 12.5227 33.2070 0.0000 0.0000 0.0000
# 4 0.0000 0.0000 0.0000 28.8883 0.0000 0.0000
# 5 0.0000 0.0000 0.0000 0.0000 24.9135 0.0000
# 6 0.0000 0.0000 0.0000 0.0000 0.0000 31.8101
#
#
#
# Elastic Compliance Matrix: (Units=1/GPa)
#
#
# Indices 1 2 3 4 5 6 
#
# 1 0.012397 -0.002959 -0.005351 0.000000 0.000000 0.000000
# 2 -0.002959 0.010975 -0.002595 0.000000 0.000000 0.000000
# 3 -0.005351 -0.002595 0.033885 0.000000 0.000000 0.000000
# 4 0.000000 0.000000 0.000000 0.034616 0.000000 0.000000
# 5 0.000000 0.000000 0.000000 0.000000 0.040139 0.000000
# 6 0.000000 0.000000 0.000000 0.000000 0.000000 0.031437
#
#
# Mechanical properties :
#
#
# Convention : Reuss Voigt Hill
#
# Bulk Modulus (GPa) = 28.21269 38.86920 33.54094
# Shear Modulus (GPa) = 25.37109 28.51826 26.94468
#
# Velocity S-wave (km/s) = 3.65858 3.87887 3.77033
# Velocity P-wave (km/s) = 5.72113 6.36925 6.05387
#
# Compressibility (1/GPa) = 0.03544504
#
# Stress axis : x y z
#
# Youngs Moduli (GPa) = 80.66649 91.11332 29.51196
#
# Poissons Ratio (x) = 0.26965 0.15793
# Poissons Ratio (y) = 0.23873 0.07658
# Poissons Ratio (z) = 0.43168 0.23643
#
# Static dielectric constant tensor:
#      x y z
#    x 1.657850 0.000000 0.000000 
#    y 0.000000 1.722660 0.000000 
#    z 0.000000 0.000000 1.748820 
# 
# From -- ./inp_files/18364.got.cif
#   From: 2010.05.17/outbox.cif.g08.bks.cpg/sg24_10_cif.got.tgz:18364.got - 2010.06.04 00:33:39.
