data_PCOD9332017
_publ_section_title
;
Structure prediction by ZEFSAII (Michael W. Deem and Ramdas Pophale) SiO2 
 PCOD9332017
Probable space group: I 2 2 2
;
_chemical_formula_sum "Si O2"
_cell_formula_units_Z 24
_cell_length_a 18.154606
_cell_length_b 10.339751
_cell_length_c 4.928054
_cell_angle_alpha 90.000000
_cell_angle_beta 90.000000
_cell_angle_gamma 90.000000
_cell_volume 925.065249
_symmetry_space_group_name_H-M "I 2 2 2"
_symmetry_group_IT_number 23
_symmetry_cell_setting 'orthorhombic'
loop_
_space_group_symop_operation_xyz
x,y,z
-x,-y,z
x,-y,-z
-x,y,-z
1/2+x,1/2+y,1/2+z
1/2-x,1/2-y,1/2+z
1/2+x,1/2-y,1/2-z
1/2-x,1/2+y,1/2-z
loop_
_atom_site_type_symbol
_atom_site_label
_atom_site_fract_x
_atom_site_fract_y
_atom_site_fract_z
Si Si1 0.500000 0.000000 0.000000
Si Si2 0.247739 0.000000 0.000000
Si Si3 0.629090 0.856004 0.721693
Si Si4 0.374120 0.318402 0.225397
Si Si5 0.000000 0.000000 0.500000
O O1 0.552432 0.089601 0.175187
O O2 0.309290 0.965058 0.229506
O O3 0.188657 0.896252 0.114634
O O4 0.614504 0.800752 0.425882
O O5 0.650237 0.739112 0.933298
O O6 0.445176 0.408400 0.173120
#
# Coordination Sequence:
#
# PCOD9332017 Si02
#       5
#     2   4   8   8   2
#     4  10  26  46  72 106 152 204 262 324 392 480
#     4  11  26  48  76 111 152 204 264 331 402 474
#     4  11  27  47  74 109 152 205 263 326 399 476
#     4  12  27  48  74 110 153 203 262 328 397 477
#     4  12  30  50  80 120 164 216 274 338 412 488
#
# _framework density 25.944113000000002
#
# number of rings (size 3 to 8) (size 9 to 14) (size 15 to 20)
#    0.000    0.667    0.000    5.000    0.000   24.667 
#    0.000    0.000    0.000    0.000    0.000    0.000 
#    0.000    0.000    0.000    0.000    0.000    0.000 
#
# Total GULP energy -67025.773739 kJ/mol
# GULP energy per Si atom -5585.481145 kJ/mol
# Density = 2.588506 g / cm^3
# Si number density = 25.944113 Si / 1000 Ang^3
#
#
#
# Elastic Constant Matrix: (Units=GPa)
#
#
# Indices 1 2 3 4 5 6 
#
# 1 194.6838 74.1640 61.5227 0.0000 0.0000 0.0000
# 2 74.1640 115.0514 71.6692 0.0000 0.0000 0.0000
# 3 61.5227 71.6692 172.5120 0.0000 0.0000 0.0000
# 4 0.0000 0.0000 0.0000 22.9317 0.0000 0.0000
# 5 0.0000 0.0000 0.0000 0.0000 -1.9179 0.0000
# 6 0.0000 0.0000 0.0000 0.0000 0.0000 28.5509
#
#
#
# Elastic Compliance Matrix: (Units=1/GPa)
#
#
# Indices 1 2 3 4 5 6 
#
# 1 0.006895 -0.003930 -0.000826 0.000000 0.000000 0.000000
# 2 -0.003930 0.013966 -0.004401 0.000000 0.000000 0.000000
# 3 -0.000826 -0.004401 0.007920 0.000000 0.000000 0.000000
# 4 0.000000 0.000000 0.000000 0.043608 0.000000 0.000000
# 5 0.000000 0.000000 0.000000 0.000000 -0.521416 0.000000
# 6 0.000000 0.000000 0.000000 0.000000 0.000000 0.035025
#
#
# Mechanical properties :
#
#
# Convention : Reuss Voigt Hill
#
# Bulk Modulus (GPa) = 95.53725 99.66211 97.59968
# Shear Modulus (GPa) = -12.74860 28.23903 7.74521
#
# Velocity S-wave (km/s) = -2.21913 3.30276 1.72969
# Velocity P-wave (km/s) = 5.50801 7.28298 6.45678
#
# Compressibility (1/GPa) = 0.01046712
#
# Stress axis : x y z
#
# Youngs Moduli (GPa) = 145.04014 71.60086 126.26827
#
# Poissons Ratio (x) = 0.28137 0.10433
# Poissons Ratio (y) = 0.56996 0.55568
# Poissons Ratio (z) = 0.11984 0.31510
#
# Static dielectric constant tensor:
#      x y z
#    x 1.961500 0.000000 0.000000 
#    y 0.000000 2.133220 0.000000 
#    z 0.000000 0.000000 2.020360 
# 
# From -- ./inp_files/2878.got.cif
#   From: 2010.05.17/outbox.cif.g08.bks.cpg/sg23_2_cif.got.tgz:2878.got - 2010.06.04 12:02:01.
