data_PCOD9332327
_publ_section_title
;
Structure prediction by ZEFSAII (Michael W. Deem and Ramdas Pophale) SiO2 
 PCOD9332327
Probable space group: I 2 2 2
;
_chemical_formula_sum "Si O2"
_cell_formula_units_Z 40
_cell_length_a 11.685034
_cell_length_b 14.692588
_cell_length_c 10.232041
_cell_angle_alpha 90.000000
_cell_angle_beta 90.000000
_cell_angle_gamma 90.000000
_cell_volume 1756.671489
_symmetry_space_group_name_H-M "I 2 2 2"
_symmetry_group_IT_number 23
_symmetry_cell_setting 'orthorhombic'
loop_
_space_group_symop_operation_xyz
x,y,z
-x,-y,z
x,-y,-z
-x,y,-z
1/2+x,1/2+y,1/2+z
1/2-x,1/2-y,1/2+z
1/2+x,1/2-y,1/2-z
1/2-x,1/2+y,1/2-z
loop_
_atom_site_type_symbol
_atom_site_label
_atom_site_fract_x
_atom_site_fract_y
_atom_site_fract_z
Si Si1 0.749655 0.615326 0.239878
Si Si2 0.869954 0.389035 0.494881
Si Si3 0.985769 0.152140 0.145698
Si Si4 0.882920 0.335002 0.014774
Si Si5 0.732686 0.398248 0.242551
O O1 0.801511 0.644553 0.379581
O O2 0.613841 0.625680 0.254528
O O3 0.758952 0.506035 0.232875
O O4 0.821577 0.665412 0.127036
O O5 0.868426 0.500000 0.500000
O O6 0.810131 0.361509 0.361399
O O7 0.000000 0.358413 0.500000
O O8 0.939276 0.251073 0.098190
O O9 0.104923 0.131071 0.217438
O O10 0.000000 0.105886 0.000000
O O11 0.779228 0.363837 0.106248
O O12 0.000000 0.393924 0.000000
#
# Coordination Sequence:
#
# PCOD9332327 Si02
#       5
#     8   8   8   8   8
#     4  11  23  42  74 106 141 192 259 314 370 451
#     4   9  18  34  63 100 133 178 242 302 356 429
#     4  11  25  44  71 102 149 196 247 304 383 455
#     4  11  27  45  70 105 154 192 240 312 395 454
#     4  11  23  44  73 104 143 196 253 311 374 455
#
# _framework density 22.770336
#
# number of rings (size 3 to 8) (size 9 to 14) (size 15 to 20)
#    0.000    1.400    2.000    2.400    5.600    4.800 
#    0.000    2.000    0.000    0.000    0.000    0.000 
#    0.000    0.000    0.000    0.000    0.000    0.000 
#
# Total GULP energy -111430.134699 kJ/mol
# GULP energy per Si atom -5571.506735 kJ/mol
# Density = 2.271851 g / cm^3
# Si number density = 22.770336 Si / 1000 Ang^3
#
#
#
# Elastic Constant Matrix: (Units=GPa)
#
#
# Indices 1 2 3 4 5 6 
#
# 1 163.4287 -12.5955 41.8115 0.0000 0.0000 0.0000
# 2 -12.5955 65.1455 -3.4053 0.0000 0.0000 0.0000
# 3 41.8115 -3.4053 123.9449 0.0000 0.0000 0.0000
# 4 0.0000 0.0000 0.0000 -1.0011 0.0000 0.0000
# 5 0.0000 0.0000 0.0000 0.0000 60.4985 0.0000
# 6 0.0000 0.0000 0.0000 0.0000 0.0000 -15.5475
#
#
#
# Elastic Compliance Matrix: (Units=1/GPa)
#
#
# Indices 1 2 3 4 5 6 
#
# 1 0.006788 0.001195 -0.002257 0.000000 0.000000 0.000000
# 2 0.001195 0.015583 0.000025 0.000000 0.000000 0.000000
# 3 -0.002257 0.000025 0.008830 0.000000 0.000000 0.000000
# 4 0.000000 0.000000 0.000000 -0.998886 0.000000 0.000000
# 5 0.000000 0.000000 0.000000 0.000000 0.016529 0.000000
# 6 0.000000 0.000000 0.000000 0.000000 0.000000 -0.064319
#
#
# Mechanical properties :
#
#
# Convention : Reuss Voigt Hill
#
# Bulk Modulus (GPa) = 34.33340 44.90451 39.61896
# Shear Modulus (GPa) = -4.98161 30.57052 12.79446
#
# Velocity S-wave (km/s) = -1.48071 3.66807 2.37300
# Velocity P-wave (km/s) = 3.49106 6.14028 4.99453
#
# Compressibility (1/GPa) = 0.02912615
#
# Stress axis : x y z
#
# Youngs Moduli (GPa) = 147.30985 64.17444 113.24739
#
# Poissons Ratio (x) = -0.07666 0.25562
# Poissons Ratio (y) = -0.17596 -0.00285
# Poissons Ratio (z) = 0.33250 -0.00162
#
# Static dielectric constant tensor:
#      x y z
#    x 1.906020 0.000000 0.000000 
#    y 0.000000 1.995170 0.000000 
#    z 0.000000 0.000000 1.824380 
# 
# From -- ./inp_files/8221.got.cif
#   From: 2010.05.17/outbox.cif.g08.bks.cpg/sg23_5_cif.got.tgz:8221.got - 2010.06.04 12:02:01.
