data_PCOD9332202
_publ_section_title
;
Structure prediction by ZEFSAII (Michael W. Deem and Ramdas Pophale) SiO2 
 PCOD9332202
Probable space group: I 2 2 2
;
_chemical_formula_sum "Si O2"
_cell_formula_units_Z 32
_cell_length_a 11.715136
_cell_length_b 5.223980
_cell_length_c 20.177376
_cell_angle_alpha 90.000000
_cell_angle_beta 90.000000
_cell_angle_gamma 90.000000
_cell_volume 1234.848070
_symmetry_space_group_name_H-M "I 2 2 2"
_symmetry_group_IT_number 23
_symmetry_cell_setting 'orthorhombic'
loop_
_space_group_symop_operation_xyz
x,y,z
-x,-y,z
x,-y,-z
-x,y,-z
1/2+x,1/2+y,1/2+z
1/2-x,1/2-y,1/2+z
1/2+x,1/2-y,1/2-z
1/2-x,1/2+y,1/2-z
loop_
_atom_site_type_symbol
_atom_site_label
_atom_site_fract_x
_atom_site_fract_y
_atom_site_fract_z
Si Si1 0.694866 0.083623 0.346205
Si Si2 0.334255 0.747461 0.540879
Si Si3 0.130194 0.494742 0.600401
Si Si4 0.608663 0.328881 0.228486
O O1 0.781798 0.253236 0.392290
O O2 0.606479 0.251389 0.305002
O O3 0.636692 0.848361 0.385113
O O4 0.777806 0.985011 0.288443
O O5 0.377249 0.500000 0.500000
O O6 0.200612 0.689291 0.554242
O O7 0.359906 0.000000 0.500000
O O8 0.117445 0.600497 0.675353
O O9 0.000000 0.500000 0.576574
O O10 0.500000 0.500000 0.210796
#
# Coordination Sequence:
#
# PCOD9332202 Si02
#       4
#     8   8   8   8
#     4  11  22  39  65  96 144 190 231 292 357 423
#     4  11  24  44  62  93 134 191 240 285 339 418
#     4  11  22  39  61  95 142 182 224 280 354 422
#     4  11  22  37  65 102 146 184 233 289 359 434
#
# _framework density 25.914118999999999
#
# number of rings (size 3 to 8) (size 9 to 14) (size 15 to 20)
#    0.000    1.000    7.500    0.000    0.000    0.500 
#    4.500    0.000    0.000    0.000    0.000    5.250 
#    0.000    0.000    0.000    0.000    0.000    0.000 
#
# Total GULP energy -89300.914878 kJ/mol
# GULP energy per Si atom -5581.307180 kJ/mol
# Density = 2.585514 g / cm^3
# Si number density = 25.914119 Si / 1000 Ang^3
#
#
#
# Elastic Constant Matrix: (Units=GPa)
#
#
# Indices 1 2 3 4 5 6 
#
# 1 83.0937 22.1922 41.3735 0.0000 0.0000 0.0000
# 2 22.1922 160.9039 58.1182 0.0000 0.0000 0.0000
# 3 41.3735 58.1182 118.1938 0.0000 0.0000 0.0000
# 4 0.0000 0.0000 0.0000 70.4695 0.0000 0.0000
# 5 0.0000 0.0000 0.0000 0.0000 -56.4915 0.0000
# 6 0.0000 0.0000 0.0000 0.0000 0.0000 8.0718
#
#
#
# Elastic Compliance Matrix: (Units=1/GPa)
#
#
# Indices 1 2 3 4 5 6 
#
# 1 0.014580 -0.000204 -0.005004 0.000000 0.000000 0.000000
# 2 -0.000204 0.007560 -0.003646 0.000000 0.000000 0.000000
# 3 -0.005004 -0.003646 0.012005 0.000000 0.000000 0.000000
# 4 0.000000 0.000000 0.000000 0.014191 0.000000 0.000000
# 5 0.000000 0.000000 0.000000 0.000000 -0.017702 0.000000
# 6 0.000000 0.000000 0.000000 0.000000 0.000000 0.123889
#
#
# Mechanical properties :
#
#
# Convention : Reuss Voigt Hill
#
# Bulk Modulus (GPa) = 60.83260 67.28436 64.05848
# Shear Modulus (GPa) = 28.13583 20.44378 24.28981
#
# Velocity S-wave (km/s) = 3.29862 2.81179 3.06489
# Velocity P-wave (km/s) = 6.16713 6.04668 6.10720
#
# Compressibility (1/GPa) = 0.01643855
#
# Stress axis : x y z
#
# Youngs Moduli (GPa) = 68.58519 132.27621 83.29808
#
# Poissons Ratio (x) = 0.02694 0.41680
# Poissons Ratio (y) = 0.01397 0.30371
# Poissons Ratio (z) = 0.34318 0.48229
#
# Static dielectric constant tensor:
#      x y z
#    x 2.010500 0.000000 0.000000 
#    y 0.000000 2.197920 0.000000 
#    z 0.000000 0.000000 2.099720 
# 
# From -- ./inp_files/1363.got.cif
#   From: 2010.05.17/outbox.cif.g08.bks.cpg/sg23_1_cif.got.tgz:1363.got - 2010.06.04 12:02:01.
