data_PCOD9332187
_publ_section_title
;
Structure prediction by ZEFSAII (Michael W. Deem and Ramdas Pophale) SiO2 
 PCOD9332187
Probable space group: I 2 2 2
;
_chemical_formula_sum "Si O2"
_cell_formula_units_Z 34
_cell_length_a 6.904753
_cell_length_b 28.945539
_cell_length_c 8.877153
_cell_angle_alpha 90.000000
_cell_angle_beta 90.000000
_cell_angle_gamma 90.000000
_cell_volume 1774.203753
_symmetry_space_group_name_H-M "I 2 2 2"
_symmetry_group_IT_number 23
_symmetry_cell_setting 'orthorhombic'
loop_
_space_group_symop_operation_xyz
x,y,z
-x,-y,z
x,-y,-z
-x,y,-z
1/2+x,1/2+y,1/2+z
1/2-x,1/2-y,1/2+z
1/2+x,1/2-y,1/2-z
1/2-x,1/2+y,1/2-z
loop_
_atom_site_type_symbol
_atom_site_label
_atom_site_fract_x
_atom_site_fract_y
_atom_site_fract_z
Si Si1 0.499292 0.139379 0.179756
Si Si2 0.689858 0.307006 0.202063
Si Si3 0.750408 0.711717 0.139829
Si Si4 0.000000 0.000000 0.000000
Si Si5 0.624429 0.041123 0.154800
O O1 0.279694 0.145550 0.236952
O O2 0.605289 0.182049 0.258902
O O3 0.599903 0.091409 0.226903
O O4 0.500000 0.144689 0.000000
O O5 0.461360 0.307095 0.180912
O O6 0.736033 0.265310 0.316343
O O7 0.776024 0.294831 0.038057
O O8 0.844080 0.972189 0.894401
O O9 0.500000 0.000000 0.233495
O O10 0.500000 0.046780 0.000000
#
# Coordination Sequence:
#
# PCOD9332187 Si02
#       5
#     8   8   8   2   8
#     4  11  22  35  57  87 117 150 189 235 298 344
#     4  11  23  38  55  79 111 150 200 238 284 338
#     4  11  23  37  57  78 109 154 195 243 282 336
#     4   8  14  32  56  78 120 146 190 228 284 340
#     4   8  17  32  53  83 115 148 188 236 285 339
#
# _framework density 19.163526000000001
#
# number of rings (size 3 to 8) (size 9 to 14) (size 15 to 20)
#    0.000    2.118    2.353    2.118    0.000    8.471 
#    0.000    0.000    0.000    2.824    0.000    3.294 
#    0.000    1.882    0.000    0.000    0.000    0.000 
#
# Total GULP energy -94714.746272 kJ/mol
# GULP energy per Si atom -5571.455663 kJ/mol
# Density = 1.911991 g / cm^3
# Si number density = 19.163526 Si / 1000 Ang^3
#
#
#
# Elastic Constant Matrix: (Units=GPa)
#
#
# Indices 1 2 3 4 5 6 
#
# 1 109.8582 28.5843 17.4859 0.0000 0.0000 0.0000
# 2 28.5843 93.9475 12.2973 0.0000 0.0000 0.0000
# 3 17.4859 12.2973 72.6482 0.0000 0.0000 0.0000
# 4 0.0000 0.0000 0.0000 10.7828 0.0000 0.0000
# 5 0.0000 0.0000 0.0000 0.0000 8.3759 0.0000
# 6 0.0000 0.0000 0.0000 0.0000 0.0000 12.8337
#
#
#
# Elastic Compliance Matrix: (Units=1/GPa)
#
#
# Indices 1 2 3 4 5 6 
#
# 1 0.010152 -0.002832 -0.001964 0.000000 0.000000 0.000000
# 2 -0.002832 0.011675 -0.001295 0.000000 0.000000 0.000000
# 3 -0.001964 -0.001295 0.014457 0.000000 0.000000 0.000000
# 4 0.000000 0.000000 0.000000 0.092740 0.000000 0.000000
# 5 0.000000 0.000000 0.000000 0.000000 0.119390 0.000000
# 6 0.000000 0.000000 0.000000 0.000000 0.000000 0.077920
#
#
# Mechanical properties :
#
#
# Convention : Reuss Voigt Hill
#
# Bulk Modulus (GPa) = 41.48872 43.68766 42.58819
# Shear Modulus (GPa) = 14.42795 20.93759 17.68277
#
# Velocity S-wave (km/s) = 2.74685 3.30900 3.04094
# Velocity P-wave (km/s) = 5.63534 6.11932 5.88231
#
# Compressibility (1/GPa) = 0.02410294
#
# Stress axis : x y z
#
# Youngs Moduli (GPa) = 98.50199 85.65096 69.17120
#
# Poissons Ratio (x) = 0.24254 0.13587
# Poissons Ratio (y) = 0.27893 0.08956
# Poissons Ratio (z) = 0.19348 0.11089
#
# Static dielectric constant tensor:
#      x y z
#    x 1.724620 0.000000 0.000000 
#    y 0.000000 1.740340 0.000000 
#    z 0.000000 0.000000 1.658340 
# 
# From -- ./inp_files/19162.got.cif
#   From: 2010.05.17/outbox.cif.g08.bks.cpg/sg23_10_cif.got.tgz:19162.got - 2010.06.04 12:02:01.
