data_PCOD9332099
_publ_section_title
;
Structure prediction by ZEFSAII (Michael W. Deem and Ramdas Pophale) SiO2 
 PCOD9332099
Probable space group: I 2 2 2
;
_chemical_formula_sum "Si O2"
_cell_formula_units_Z 56
_cell_length_a 15.246487
_cell_length_b 20.936497
_cell_length_c 9.597748
_cell_angle_alpha 90.000000
_cell_angle_beta 90.000000
_cell_angle_gamma 90.000000
_cell_volume 3063.678225
_symmetry_space_group_name_H-M "I 2 2 2"
_symmetry_group_IT_number 23
_symmetry_cell_setting 'orthorhombic'
loop_
_space_group_symop_operation_xyz
x,y,z
-x,-y,z
x,-y,-z
-x,y,-z
1/2+x,1/2+y,1/2+z
1/2-x,1/2-y,1/2+z
1/2+x,1/2-y,1/2-z
1/2-x,1/2+y,1/2-z
loop_
_atom_site_type_symbol
_atom_site_label
_atom_site_fract_x
_atom_site_fract_y
_atom_site_fract_z
Si Si1 0.335659 0.116074 0.844260
Si Si2 0.085862 0.251205 0.745565
Si Si3 0.500000 0.681828 0.500000
Si Si4 0.807192 0.844011 0.061891
Si Si5 0.292483 0.867165 0.666019
Si Si6 0.500000 0.170336 0.000000
Si Si7 0.245739 0.303005 0.112809
Si Si8 0.103300 0.496267 0.831892
O O1 0.320019 0.173210 0.733140
O O2 0.348659 0.052396 0.753165
O O3 0.254072 0.119924 0.950514
O O4 0.421466 0.128741 0.936885
O O5 0.143541 0.307345 0.811698
O O6 0.034400 0.284004 0.621109
O O7 0.157964 0.202963 0.681474
O O8 0.023075 0.222914 0.862902
O O9 0.590999 0.646242 0.529778
O O10 0.782402 0.864210 0.217779
O O11 0.781667 0.767798 0.058183
O O12 0.256653 0.854751 0.511087
O O13 0.350349 0.929177 0.696355
O O14 0.000000 0.500000 0.795623
O O15 0.108875 0.500000 0.000000
#
# Coordination Sequence:
#
# PCOD9332099 Si02
#       8
#     8   8   4   8   8   4   8   8
#     4  12  23  43  62  90 135 168 212 266 312 386
#     4  11  24  36  62  96 125 170 211 256 331 378
#     4  12  22  40  64  93 129 168 208 268 326 384
#     4  11  23  39  62  96 124 167 210 261 331 373
#     4  11  22  42  61  91 130 167 212 259 316 386
#     4  12  24  38  61  96 126 169 216 258 320 384
#     4  11  20  41  63  88 135 168 205 266 318 393
#     4  11  25  42  64  92 124 175 220 251 314 390
#
# _framework density 18.278682
#
# number of rings (size 3 to 8) (size 9 to 14) (size 15 to 20)
#    0.000    0.714    7.143    2.571    2.000    1.714 
#    0.000    0.000    0.000    1.714    0.000    1.000 
#    0.000    0.000    0.000    0.000    0.000    0.000 
#
# Total GULP energy -156330.198117 kJ/mol
# GULP energy per Si atom -5583.221361 kJ/mol
# Density = 1.823708 g / cm^3
# Si number density = 18.278682 Si / 1000 Ang^3
#
#
#
# Elastic Constant Matrix: (Units=GPa)
#
#
# Indices 1 2 3 4 5 6 
#
# 1 129.6920 44.1937 69.2903 0.0000 0.0000 0.0000
# 2 44.1937 54.6854 40.0595 0.0000 0.0000 0.0000
# 3 69.2903 40.0595 117.6561 0.0000 0.0000 0.0000
# 4 0.0000 0.0000 0.0000 65.2113 0.0000 0.0000
# 5 0.0000 0.0000 0.0000 0.0000 46.2045 0.0000
# 6 0.0000 0.0000 0.0000 0.0000 0.0000 24.1341
#
#
#
# Elastic Compliance Matrix: (Units=1/GPa)
#
#
# Indices 1 2 3 4 5 6 
#
# 1 0.012732 -0.006390 -0.005322 0.000000 0.000000 0.000000
# 2 -0.006390 0.027570 -0.005624 0.000000 0.000000 0.000000
# 3 -0.005322 -0.005624 0.013548 0.000000 0.000000 0.000000
# 4 0.000000 0.000000 0.000000 0.015335 0.000000 0.000000
# 5 0.000000 0.000000 0.000000 0.000000 0.021643 0.000000
# 6 0.000000 0.000000 0.000000 0.000000 0.000000 0.041435
#
#
# Mechanical properties :
#
#
# Convention : Reuss Voigt Hill
#
# Bulk Modulus (GPa) = 52.14302 67.68004 59.91153
# Shear Modulus (GPa) = 28.84701 37.00931 32.92816
#
# Velocity S-wave (km/s) = 3.97694 4.50458 4.24896
# Velocity P-wave (km/s) = 7.04817 8.01012 7.54449
#
# Compressibility (1/GPa) = 0.01917802
#
# Stress axis : x y z
#
# Youngs Moduli (GPa) = 78.54491 36.27087 73.80910
#
# Poissons Ratio (x) = 0.23178 0.39282
# Poissons Ratio (y) = 0.50192 0.41509
# Poissons Ratio (z) = 0.41803 0.20398
#
# Static dielectric constant tensor:
#      x y z
#    x 1.618260 0.000000 0.000000 
#    y 0.000000 1.626240 0.000000 
#    z 0.000000 0.000000 1.608590 
# 
# From -- ./inp_files/10258.got.cif
#   From: 2010.05.17/outbox.cif.g08.bks.cpg/sg23_6_cif.got.tgz:10258.got - 2010.06.04 12:02:01.
