data_PCOD9332798
_publ_section_title
;
Structure prediction by ZEFSAII (Michael W. Deem and Ramdas Pophale) SiO2 
 PCOD9332798
Probable space group: I 21 21 21
;
_chemical_formula_sum "Si O2"
_cell_formula_units_Z 40
_cell_length_a 7.850668
_cell_length_b 23.336894
_cell_length_c 10.884653
_cell_angle_alpha 90.000000
_cell_angle_beta 90.000000
_cell_angle_gamma 90.000000
_cell_volume 1994.179529
_symmetry_space_group_name_H-M "I 21 21 21"
_symmetry_group_IT_number 24
_symmetry_cell_setting 'orthorhombic'
loop_
_space_group_symop_operation_xyz
x,y,z
-x,1/2-y,z
x,-y,1/2-z
1/2-x,y,-z
1/2+x,1/2+y,1/2+z
1/2-x,-y,1/2+z
1/2+x,1/2-y,-z
-x,1/2+y,1/2-z
loop_
_atom_site_type_symbol
_atom_site_label
_atom_site_fract_x
_atom_site_fract_y
_atom_site_fract_z
Si Si1 0.267826 0.348878 0.852095
Si Si2 0.575350 0.410055 0.183647
Si Si3 0.401458 0.444970 0.679310
Si Si4 0.250000 0.838375 0.500000
Si Si5 0.486551 0.531429 0.085010
Si Si6 0.000000 0.750000 0.397143
O O1 0.385202 0.393150 0.775253
O O2 0.349708 0.285980 0.831189
O O3 0.079374 0.364655 0.805017
O O4 0.250000 0.358319 0.000000
O O5 0.520200 0.463414 0.095812
O O6 0.605570 0.437318 0.316108
O O7 0.726969 0.377631 0.118315
O O8 0.470256 0.500000 0.750000
O O9 0.496664 0.441465 0.549337
O O10 0.205918 0.459612 0.636965
O O11 0.090423 0.797653 0.479192
#
# Coordination Sequence:
#
# PCOD9332798 Si02
#       6
#     8   8   8   4   8   4
#     4  11  19  35  56  84 116 144 198 247 284 351
#     4  10  19  35  59  84 124 151 192 241 299 358
#     4  10  17  28  59  89 120 154 189 236 296 361
#     4  12  22  36  58  80 112 162 196 252 298 342
#     4   9  18  33  54  92 122 151 189 237 298 365
#     4  12  24  36  54  84 112 148 212 248 292 336
#
# _framework density 20.058375000000002
#
# number of rings (size 3 to 8) (size 9 to 14) (size 15 to 20)
#    0.000    1.600    7.000    1.200    0.000    0.000 
#    0.000    4.000    0.000   10.800    0.000    0.000 
#    0.000    0.000    0.000    0.000    0.000    0.000 
#
# Total GULP energy -111503.138195 kJ/mol
# GULP energy per Si atom -5575.156910 kJ/mol
# Density = 2.001272 g / cm^3
# Si number density = 20.058375 Si / 1000 Ang^3
#
#
#
# Elastic Constant Matrix: (Units=GPa)
#
#
# Indices 1 2 3 4 5 6 
#
# 1 53.7669 30.5400 21.6500 0.0001 0.0000 -0.0001
# 2 30.5400 112.7174 50.1764 0.0001 0.0001 -0.0001
# 3 21.6500 50.1764 122.8052 0.0010 0.0008 -0.0007
# 4 0.0001 0.0001 0.0010 22.1434 0.0002 -0.0003
# 5 0.0000 0.0001 0.0008 0.0002 16.1824 -0.0001
# 6 -0.0001 -0.0001 -0.0007 -0.0003 -0.0001 14.7436
#
#
#
# Elastic Compliance Matrix: (Units=1/GPa)
#
#
# Indices 1 2 3 4 5 6 
#
# 1 0.022298 -0.005246 -0.001788 0.000000 0.000000 0.000000
# 2 -0.005246 0.012078 -0.004010 0.000000 0.000000 0.000000
# 3 -0.001788 -0.004010 0.010097 0.000000 0.000000 0.000000
# 4 0.000000 0.000000 0.000000 0.045160 -0.000001 0.000001
# 5 0.000000 0.000000 0.000000 -0.000001 0.061796 0.000000
# 6 0.000000 0.000000 0.000000 0.000001 0.000000 0.067826
#
#
# Mechanical properties :
#
#
# Convention : Reuss Voigt Hill
#
# Bulk Modulus (GPa) = 44.67120 54.89135 49.78128
# Shear Modulus (GPa) = 20.09612 23.07542 21.58577
#
# Velocity S-wave (km/s) = 3.16869 3.39545 3.28403
# Velocity P-wave (km/s) = 5.97548 6.54197 6.26513
#
# Compressibility (1/GPa) = 0.02238579
#
# Stress axis : x y z
#
# Youngs Moduli (GPa) = 44.84653 82.79402 99.04280
#
# Poissons Ratio (x) = 0.43432 0.17706
# Poissons Ratio (y) = 0.23525 0.39718
# Poissons Ratio (z) = 0.08017 0.33202
#
# Static dielectric constant tensor:
#      x y z
#    x 1.858410 0.000000 0.000000 
#    y 0.000000 1.708830 0.000000 
#    z 0.000000 0.000000 1.719210 
# 
# From -- ./inp_files/11094.got.cif
#   From: 2010.05.17/outbox.cif.g08.bks.cpg/sg24_6_cif.got.tgz:11094.got - 2010.06.04 00:33:39.
