data_PCOD9332597
_publ_section_title
;
Structure prediction by ZEFSAII (Michael W. Deem and Ramdas Pophale) SiO2 
 PCOD9332597
Probable space group: I 2 2 2
;
_chemical_formula_sum "Si O2"
_cell_formula_units_Z 30
_cell_length_a 13.791547
_cell_length_b 8.974342
_cell_length_c 9.963103
_cell_angle_alpha 90.000000
_cell_angle_beta 90.000000
_cell_angle_gamma 90.000000
_cell_volume 1233.133851
_symmetry_space_group_name_H-M "I 2 2 2"
_symmetry_group_IT_number 23
_symmetry_cell_setting 'orthorhombic'
loop_
_space_group_symop_operation_xyz
x,y,z
-x,-y,z
x,-y,-z
-x,y,-z
1/2+x,1/2+y,1/2+z
1/2-x,1/2-y,1/2+z
1/2+x,1/2-y,1/2-z
1/2-x,1/2+y,1/2-z
loop_
_atom_site_type_symbol
_atom_site_label
_atom_site_fract_x
_atom_site_fract_y
_atom_site_fract_z
Si Si1 0.279222 0.439477 0.236025
Si Si2 0.127371 0.775468 0.816449
Si Si3 0.000000 0.000000 0.000000
Si Si4 0.325598 0.000000 0.000000
Si Si5 0.046350 0.246411 0.631989
O O1 0.198692 0.359422 0.142402
O O2 0.302723 0.614756 0.229370
O O3 0.239667 0.421266 0.387616
O O4 0.380909 0.360899 0.208733
O O5 0.041746 0.708624 0.726805
O O6 0.071071 0.887001 0.917723
O O7 0.392296 0.115655 0.078207
O O8 0.000000 0.173059 0.500000
#
# Coordination Sequence:
#
# PCOD9332597 Si02
#       5
#     8   8   2   4   8
#     4  12  26  47  76 117 152 208 255 324 398 458
#     4  12  27  46  81 110 158 205 262 322 404 456
#     4  12  26  52  76 114 158 212 254 336 378 468
#     4  12  26  50  82 112 162 200 268 332 382 472
#     4  12  26  46  77 117 151 200 259 321 393 466
#
# _framework density 24.328258999999999
#
# number of rings (size 3 to 8) (size 9 to 14) (size 15 to 20)
#    0.000    0.000    8.000    1.200    0.000    2.133 
#    0.000    2.667    0.000    6.400    0.000    0.000 
#    0.000    0.000    0.000    0.000    0.000    0.000 
#
# Total GULP energy -83919.617584 kJ/mol
# GULP energy per Si atom -5594.641172 kJ/mol
# Density = 2.427289 g / cm^3
# Si number density = 24.328259 Si / 1000 Ang^3
#
#
#
# Elastic Constant Matrix: (Units=GPa)
#
#
# Indices 1 2 3 4 5 6 
#
# 1 161.8731 49.3677 55.4250 0.0000 0.0000 0.0000
# 2 49.3677 119.5605 45.9215 0.0000 0.0000 0.0000
# 3 55.4250 45.9215 70.2891 0.0000 0.0000 0.0000
# 4 0.0000 0.0000 0.0000 36.3568 0.0000 0.0000
# 5 0.0000 0.0000 0.0000 0.0000 60.0566 0.0000
# 6 0.0000 0.0000 0.0000 0.0000 0.0000 40.4738
#
#
#
# Elastic Compliance Matrix: (Units=1/GPa)
#
#
# Indices 1 2 3 4 5 6 
#
# 1 0.008603 -0.001264 -0.005958 0.000000 0.000000 0.000000
# 2 -0.001264 0.011352 -0.006420 0.000000 0.000000 0.000000
# 3 -0.005958 -0.006420 0.023119 0.000000 0.000000 0.000000
# 4 0.000000 0.000000 0.000000 0.027505 0.000000 0.000000
# 5 0.000000 0.000000 0.000000 0.000000 0.016651 0.000000
# 6 0.000000 0.000000 0.000000 0.000000 0.000000 0.024707
#
#
# Mechanical properties :
#
#
# Convention : Reuss Voigt Hill
#
# Bulk Modulus (GPa) = 63.32860 72.57231 67.95046
# Shear Modulus (GPa) = 34.60590 40.77801 37.69195
#
# Velocity S-wave (km/s) = 3.77564 4.09853 3.94039
# Velocity P-wave (km/s) = 6.71526 7.23136 6.97808
#
# Compressibility (1/GPa) = 0.01579065
#
# Stress axis : x y z
#
# Youngs Moduli (GPa) = 116.23598 88.09396 43.25421
#
# Poissons Ratio (x) = 0.11134 0.25771
# Poissons Ratio (y) = 0.14691 0.27767
# Poissons Ratio (z) = 0.69255 0.56553
#
# Static dielectric constant tensor:
#      x y z
#    x 1.944650 0.000000 0.000000 
#    y 0.000000 1.924860 0.000000 
#    z 0.000000 0.000000 2.001520 
# 
# From -- ./inp_files/16306.got.cif
#   From: 2010.05.17/outbox.cif.g08.bks.cpg/sg23_9_cif.got.tgz:16306.got - 2010.06.04 12:02:01.
