data_PCOD9332893
_publ_section_title
;
Structure prediction by ZEFSAII (Michael W. Deem and Ramdas Pophale) SiO2 
 PCOD9332893
Probable space group: I 21 21 21
;
_chemical_formula_sum "Si O2"
_cell_formula_units_Z 64
_cell_length_a 7.198399
_cell_length_b 10.956530
_cell_length_c 31.157720
_cell_angle_alpha 90.000000
_cell_angle_beta 90.000000
_cell_angle_gamma 90.000000
_cell_volume 2457.393006
_symmetry_space_group_name_H-M "I 21 21 21"
_symmetry_group_IT_number 24
_symmetry_cell_setting 'orthorhombic'
loop_
_space_group_symop_operation_xyz
x,y,z
-x,1/2-y,z
x,-y,1/2-z
1/2-x,y,-z
1/2+x,1/2+y,1/2+z
1/2-x,-y,1/2+z
1/2+x,1/2-y,-z
-x,1/2+y,1/2-z
loop_
_atom_site_type_symbol
_atom_site_label
_atom_site_fract_x
_atom_site_fract_y
_atom_site_fract_z
Si Si1 0.778572 0.769109 0.797959
Si Si2 0.720508 0.665374 0.889456
Si Si3 0.620722 0.427896 0.934072
Si Si4 0.141597 0.582151 0.909407
Si Si5 0.772034 0.725993 0.639751
Si Si6 0.716186 0.963711 0.317303
Si Si7 0.186623 0.896952 0.719837
Si Si8 0.509093 0.894975 0.475493
O O1 0.693522 0.696782 0.838798
O O2 0.714019 0.910004 0.796603
O O3 0.767161 0.716703 0.750172
O O4 0.000000 0.750000 0.807130
O O5 0.597510 0.552753 0.907005
O O6 0.726370 0.798537 0.912719
O O7 0.931088 0.624728 0.899571
O O8 0.671255 0.314641 0.903067
O O9 0.812435 0.444318 0.959417
O O10 0.480354 0.402855 0.972992
O O11 0.179318 0.512336 0.865395
O O12 0.139532 0.485266 0.948058
O O13 0.745606 0.612603 0.671764
O O14 0.000000 0.750000 0.634821
O O15 0.691659 0.837376 0.667773
O O16 0.531569 0.925737 0.290163
O O17 0.264772 0.000000 0.750000
O O18 0.500000 0.750000 0.465553
#
# Coordination Sequence:
#
# PCOD9332893 Si02
#       8
#     8   8   8   8   8   8   8   8
#     4  11  16  24  36  57  86 123 167 192 225 284
#     4   9  15  27  44  62  87 123 155 194 235 287
#     4  10  19  31  48  69  93 122 166 199 249 301
#     4   9  15  28  45  62  85 120 162 193 238 283
#     4  10  19  27  39  58  89 131 161 196 240 285
#     4  10  18  24  36  56  84 126 160 193 223 282
#     4  11  18  22  33  55  87 122 166 194 222 278
#     4  10  19  31  51  72  93 121 160 211 250 298
#
# _framework density 26.043863000000002
#
# number of rings (size 3 to 8) (size 9 to 14) (size 15 to 20)
#    0.000    2.000    3.750    6.000    0.000    0.000 
#    0.000    0.000    0.000   33.000    0.000    0.000 
#    0.000    0.000   12.750    0.000   10.750    0.000 
#
# Total GULP energy -178395.510253 kJ/mol
# GULP energy per Si atom -5574.859695 kJ/mol
# Density = 2.598459 g / cm^3
# Si number density = 26.043863 Si / 1000 Ang^3
#
#
#
# Elastic Constant Matrix: (Units=GPa)
#
#
# Indices 1 2 3 4 5 6 
#
# 1 62.1346 12.8818 22.5285 0.0000 0.0000 0.0000
# 2 12.8818 153.0586 75.8607 0.0000 0.0000 0.0000
# 3 22.5285 75.8607 195.8714 0.0000 0.0000 0.0000
# 4 0.0000 0.0000 0.0000 222.0101 0.0000 0.0000
# 5 0.0000 0.0000 0.0000 0.0000 -286.1576 0.0000
# 6 0.0000 0.0000 0.0000 0.0000 0.0000 11.9082
#
#
#
# Elastic Compliance Matrix: (Units=1/GPa)
#
#
# Indices 1 2 3 4 5 6 
#
# 1 0.016834 -0.000566 -0.001717 0.000000 0.000000 0.000000
# 2 -0.000566 0.008105 -0.003074 0.000000 0.000000 0.000000
# 3 -0.001717 -0.003074 0.006493 0.000000 0.000000 0.000000
# 4 0.000000 0.000000 0.000000 0.004504 0.000000 0.000000
# 5 0.000000 0.000000 0.000000 0.000000 -0.003495 0.000000
# 6 0.000000 0.000000 0.000000 0.000000 0.000000 0.083976
#
#
# Mechanical properties :
#
#
# Convention : Reuss Voigt Hill
#
# Bulk Modulus (GPa) = 48.26582 70.40076 59.33329
# Shear Modulus (GPa) = 37.30324 9.53837 23.42080
#
# Velocity S-wave (km/s) = 3.78871 1.91582 3.00206
# Velocity P-wave (km/s) = 6.14100 5.65545 5.90322
#
# Compressibility (1/GPa) = 0.02071859
#
# Stress axis : x y z
#
# Youngs Moduli (GPa) = 59.40370 123.38766 154.00343
#
# Poissons Ratio (x) = 0.06981 0.26444
# Poissons Ratio (y) = 0.03361 0.47338
# Poissons Ratio (z) = 0.10200 0.37927
#
# Static dielectric constant tensor:
#      x y z
#    x 1.908670 0.000000 0.000000 
#    y 0.000000 7.795620 0.000000 
#    z 0.000000 0.000000 2.000980 
# 
# From -- ./inp_files/37272.got.cif
#   From: 2010.05.17/outbox.cif.g08.bks.cpg/sg24_19_cif.got.tgz:37272.got - 2010.06.04 00:33:39.
