data_PCOD9332579
_publ_section_title
;
Structure prediction by ZEFSAII (Michael W. Deem and Ramdas Pophale) SiO2 
 PCOD9332579
Probable space group: I 2 2 2
;
_chemical_formula_sum "Si O2"
_cell_formula_units_Z 38
_cell_length_a 26.478111
_cell_length_b 4.949960
_cell_length_c 11.025733
_cell_angle_alpha 90.000000
_cell_angle_beta 90.000000
_cell_angle_gamma 90.000000
_cell_volume 1445.094204
_symmetry_space_group_name_H-M "I 2 2 2"
_symmetry_group_IT_number 23
_symmetry_cell_setting 'orthorhombic'
loop_
_space_group_symop_operation_xyz
x,y,z
-x,-y,z
x,-y,-z
-x,y,-z
1/2+x,1/2+y,1/2+z
1/2-x,1/2-y,1/2+z
1/2+x,1/2-y,1/2-z
1/2-x,1/2+y,1/2-z
loop_
_atom_site_type_symbol
_atom_site_label
_atom_site_fract_x
_atom_site_fract_y
_atom_site_fract_z
Si Si1 0.310456 0.358817 0.376500
Si Si2 0.864464 0.500000 0.500000
Si Si3 0.000000 0.000000 0.000000
Si Si4 0.943519 0.375268 0.662347
Si Si5 0.705024 0.348181 0.127013
Si Si6 0.919986 0.852040 0.823424
O O1 0.292507 0.500000 0.500000
O O2 0.314035 0.529561 0.252482
O O3 0.265580 0.147106 0.358363
O O4 0.368708 0.297386 0.396716
O O5 0.908510 0.292920 0.548552
O O6 0.822636 0.439622 0.606153
O O7 0.964866 0.186518 0.082435
O O8 0.916807 0.637122 0.717181
O O9 0.000000 0.500000 0.640884
O O10 0.935875 0.136039 0.759696
O O11 0.692279 0.500000 0.000000
#
# Coordination Sequence:
#
# PCOD9332579 Si02
#       6
#     8   4   2   8   8   8
#     4  12  26  47  75 114 147 205 260 320 394 475
#     4  12  27  47  78 108 157 203 256 334 394 480
#     4  12  24  52  72 108 150 206 252 330 392 466
#     4  12  26  49  75 112 149 204 259 322 393 474
#     4  12  27  50  75 111 159 205 263 330 401 477
#     4  12  27  46  76 109 153 198 260 324 392 468
#
# _framework density 26.295866
#
# number of rings (size 3 to 8) (size 9 to 14) (size 15 to 20)
#    0.000    0.000    6.316    2.842    2.947    3.368 
#    0.000    2.105    0.000    0.000    0.000    0.000 
#    0.000    0.000    0.000    0.000    0.000    0.000 
#
# Total GULP energy -105864.500245 kJ/mol
# GULP energy per Si atom -5571.815802 kJ/mol
# Density = 2.623602 g / cm^3
# Si number density = 26.295866 Si / 1000 Ang^3
#
#
#
# Elastic Constant Matrix: (Units=GPa)
#
#
# Indices 1 2 3 4 5 6 
#
# 1 203.2432 21.3177 18.3212 0.0000 0.0000 0.0000
# 2 21.3177 51.4575 2.4454 0.0000 0.0000 0.0000
# 3 18.3212 2.4454 108.3213 0.0000 0.0000 0.0000
# 4 0.0000 0.0000 0.0000 30.4119 0.0000 0.0000
# 5 0.0000 0.0000 0.0000 0.0000 375.3715 0.0000
# 6 0.0000 0.0000 0.0000 0.0000 0.0000 -2.8764
#
#
#
# Elastic Compliance Matrix: (Units=1/GPa)
#
#
# Indices 1 2 3 4 5 6 
#
# 1 0.005218 -0.002122 -0.000835 0.000000 0.000000 0.000000
# 2 -0.002122 0.020317 -0.000100 0.000000 0.000000 0.000000
# 3 -0.000835 -0.000100 0.009375 0.000000 0.000000 0.000000
# 4 0.000000 0.000000 0.000000 0.032882 0.000000 0.000000
# 5 0.000000 0.000000 0.000000 0.000000 0.002664 0.000000
# 6 0.000000 0.000000 0.000000 0.000000 0.000000 -0.347656
#
#
# Mechanical properties :
#
#
# Convention : Reuss Voigt Hill
#
# Bulk Modulus (GPa) = 34.72500 49.68782 42.20641
# Shear Modulus (GPa) = -19.12140 101.97724 41.42792
#
# Velocity S-wave (km/s) = -2.69952 6.23417 3.97350
# Velocity P-wave (km/s) = 1.87553 8.41169 6.09402
#
# Compressibility (1/GPa) = 0.02879770
#
# Stress axis : x y z
#
# Youngs Moduli (GPa) = 191.64324 49.21901 106.66422
#
# Poissons Ratio (x) = 0.10444 0.08903
# Poissons Ratio (y) = 0.40668 0.01064
# Poissons Ratio (z) = 0.15996 0.00491
#
# Static dielectric constant tensor:
#      x y z
#    x 2.085650 0.000000 0.000000 
#    y 0.000000 -21.387060 0.000000 
#    z 0.000000 0.000000 4.053520 
# 
# From -- ./inp_files/4791.got.cif
#   From: 2010.05.17/outbox.cif.g08.bks.cpg/sg23_3_cif.got.tgz:4791.got - 2010.06.04 12:02:01.
