data_PCOD9332109
_publ_section_title
;
Structure prediction by ZEFSAII (Michael W. Deem and Ramdas Pophale) SiO2 
 PCOD9332109
Probable space group: I 2 2 2
;
_chemical_formula_sum "Si O2"
_cell_formula_units_Z 48
_cell_length_a 15.084918
_cell_length_b 14.257564
_cell_length_c 11.985785
_cell_angle_alpha 90.000000
_cell_angle_beta 90.000000
_cell_angle_gamma 90.000000
_cell_volume 2577.832926
_symmetry_space_group_name_H-M "I 2 2 2"
_symmetry_group_IT_number 23
_symmetry_cell_setting 'orthorhombic'
loop_
_space_group_symop_operation_xyz
x,y,z
-x,-y,z
x,-y,-z
-x,y,-z
1/2+x,1/2+y,1/2+z
1/2-x,1/2-y,1/2+z
1/2+x,1/2-y,1/2-z
1/2-x,1/2+y,1/2-z
loop_
_atom_site_type_symbol
_atom_site_label
_atom_site_fract_x
_atom_site_fract_y
_atom_site_fract_z
Si Si1 0.110614 0.277573 0.143280
Si Si2 0.177120 0.277576 0.395458
Si Si3 0.778783 0.603389 0.968319
Si Si4 0.689995 0.603897 0.527472
Si Si5 0.114310 0.593200 0.428311
Si Si6 0.950692 0.403015 0.182020
O O1 0.142739 0.282889 0.270812
O O2 0.125001 0.175080 0.089764
O O3 0.011511 0.317952 0.139865
O O4 0.174094 0.346420 0.073111
O O5 0.202978 0.172442 0.426191
O O6 0.265571 0.341577 0.420895
O O7 0.108956 0.321006 0.485205
O O8 0.855741 0.597321 0.875758
O O9 0.748552 0.500000 0.000000
O O10 0.655969 0.500000 0.500000
O O11 0.780041 0.589632 0.600832
O O12 0.096551 0.500000 0.500000
O O13 0.060658 0.600931 0.315402
O O14 0.000000 0.500000 0.153179
#
# Coordination Sequence:
#
# PCOD9332109 Si02
#       6
#     8   8   8   8   8   8
#     4  11  21  34  56  85 117 154 185 237 298 341
#     4   9  20  36  59  82 110 155 199 237 274 335
#     4  11  23  37  55  86 119 153 189 234 290 348
#     4   8  18  36  56  79 112 150 203 235 263 335
#     4   9  19  36  56  87 115 155 191 238 275 335
#     4  12  23  33  57  89 132 149 176 233 308 358
#
# _framework density 18.620293
#
# number of rings (size 3 to 8) (size 9 to 14) (size 15 to 20)
#    1.000    1.000    1.667    2.500    0.000    3.667 
#    0.000    0.000    0.000    9.000    0.000    1.167 
#    0.000    0.000    0.000    0.000    0.000    0.000 
#
# Total GULP energy -133836.856821 kJ/mol
# GULP energy per Si atom -5576.535701 kJ/mol
# Density = 1.857791 g / cm^3
# Si number density = 18.620293 Si / 1000 Ang^3
#
#
#
# Elastic Constant Matrix: (Units=GPa)
#
#
# Indices 1 2 3 4 5 6 
#
# 1 37.7214 29.5132 16.0175 0.0000 0.0000 0.0000
# 2 29.5132 150.1442 39.2357 0.0000 0.0000 0.0000
# 3 16.0175 39.2357 85.7687 0.0000 0.0000 0.0000
# 4 0.0000 0.0000 0.0000 19.1779 0.0000 0.0000
# 5 0.0000 0.0000 0.0000 0.0000 21.9685 0.0000
# 6 0.0000 0.0000 0.0000 0.0000 0.0000 -5.7690
#
#
#
# Elastic Compliance Matrix: (Units=1/GPa)
#
#
# Indices 1 2 3 4 5 6 
#
# 1 0.032251 -0.005413 -0.003547 0.000000 0.000000 0.000000
# 2 -0.005413 0.008473 -0.002865 0.000000 0.000000 0.000000
# 3 -0.003547 -0.002865 0.013632 0.000000 0.000000 0.000000
# 4 0.000000 0.000000 0.000000 0.052143 0.000000 0.000000
# 5 0.000000 0.000000 0.000000 0.000000 0.045520 0.000000
# 6 0.000000 0.000000 0.000000 0.000000 0.000000 -0.173341
#
#
# Mechanical properties :
#
#
# Convention : Reuss Voigt Hill
#
# Bulk Modulus (GPa) = 32.56595 49.24082 40.90339
# Shear Modulus (GPa) = 397.97264 19.66667 208.81966
#
# Velocity S-wave (km/s) = 14.63539 3.25344 10.60140
# Velocity P-wave (km/s) = 17.41035 6.37301 13.10984
#
# Compressibility (1/GPa) = 0.03070691
#
# Stress axis : x y z
#
# Youngs Moduli (GPa) = 31.00676 118.02294 73.35475
#
# Poissons Ratio (x) = 0.63881 0.26018
# Poissons Ratio (y) = 0.16783 0.21018
# Poissons Ratio (z) = 0.10998 0.33816
#
# Static dielectric constant tensor:
#      x y z
#    x 1.647440 0.000000 0.000000 
#    y 0.000000 1.666020 0.000000 
#    z 0.000000 0.000000 1.641820 
# 
# From -- ./inp_files/17409.got.cif
#   From: 2010.05.17/outbox.cif.g08.bks.cpg/sg23_9_cif.got.tgz:17409.got - 2010.06.04 12:02:01.
