data_PCOD9332438
_publ_section_title
;
Structure prediction by ZEFSAII (Michael W. Deem and Ramdas Pophale) SiO2 
 PCOD9332438
Probable space group: I 2 2 2
;
_chemical_formula_sum "Si O2"
_cell_formula_units_Z 40
_cell_length_a 8.595178
_cell_length_b 12.166579
_cell_length_c 15.054266
_cell_angle_alpha 90.000000
_cell_angle_beta 90.000000
_cell_angle_gamma 90.000000
_cell_volume 1574.283490
_symmetry_space_group_name_H-M "I 2 2 2"
_symmetry_group_IT_number 23
_symmetry_cell_setting 'orthorhombic'
loop_
_space_group_symop_operation_xyz
x,y,z
-x,-y,z
x,-y,-z
-x,y,-z
1/2+x,1/2+y,1/2+z
1/2-x,1/2-y,1/2+z
1/2+x,1/2-y,1/2-z
1/2-x,1/2+y,1/2-z
loop_
_atom_site_type_symbol
_atom_site_label
_atom_site_fract_x
_atom_site_fract_y
_atom_site_fract_z
Si Si1 0.142413 0.064319 0.854136
Si Si2 0.150503 0.163046 0.096209
Si Si3 0.825531 0.475499 0.106842
Si Si4 0.390676 0.334355 0.082607
Si Si5 0.168786 0.233084 0.301600
O O1 0.261507 0.146000 0.811778
O O2 0.033964 0.141474 0.916210
O O3 0.218575 0.960643 0.903266
O O4 0.000000 0.000000 0.802759
O O5 0.256615 0.251618 0.047511
O O6 0.159091 0.205937 0.198110
O O7 0.692077 0.563318 0.129350
O O8 0.771658 0.359524 0.147214
O O9 0.000000 0.500000 0.139635
O O10 0.831798 0.500000 0.000000
O O11 0.500563 0.273541 0.152712
O O12 0.500000 0.367504 0.000000
#
# Coordination Sequence:
#
# PCOD9332438 Si02
#       5
#     8   8   8   8   8
#     4   8  22  45  61  95 138 195 245 290 372 444
#     4   9  23  42  69  96 148 192 252 292 381 441
#     4  11  25  43  68 105 146 187 238 298 389 452
#     4  12  25  43  72 109 151 185 253 319 379 443
#     4  12  22  40  73 103 143 191 243 315 367 446
#
# _framework density 25.408383000000001
#
# number of rings (size 3 to 8) (size 9 to 14) (size 15 to 20)
#    1.200    0.200    2.000    3.000    8.400    0.800 
#    0.000    2.000    4.400    0.000    0.000    0.000 
#    0.000    0.000    0.000    0.000    0.000    0.000 
#
# Total GULP energy -111700.691437 kJ/mol
# GULP energy per Si atom -5585.034572 kJ/mol
# Density = 2.535055 g / cm^3
# Si number density = 25.408383 Si / 1000 Ang^3
#
#
#
# Elastic Constant Matrix: (Units=GPa)
#
#
# Indices 1 2 3 4 5 6 
#
# 1 78.1333 24.8899 -4.3321 0.0000 0.0000 0.0000
# 2 24.8899 133.8309 -5.3508 0.0000 0.0000 0.0000
# 3 -4.3321 -5.3508 68.7197 0.0000 0.0000 0.0000
# 4 0.0000 0.0000 0.0000 11.9712 0.0000 0.0000
# 5 0.0000 0.0000 0.0000 0.0000 23.1045 0.0000
# 6 0.0000 0.0000 0.0000 0.0000 0.0000 72.1908
#
#
#
# Elastic Compliance Matrix: (Units=1/GPa)
#
#
# Indices 1 2 3 4 5 6 
#
# 1 0.013635 -0.002509 0.000664 0.000000 0.000000 0.000000
# 2 -0.002509 0.007957 0.000461 0.000000 0.000000 0.000000
# 3 0.000664 0.000461 0.014630 0.000000 0.000000 0.000000
# 4 0.000000 0.000000 0.000000 0.083534 0.000000 0.000000
# 5 0.000000 0.000000 0.000000 0.000000 0.043282 0.000000
# 6 0.000000 0.000000 0.000000 0.000000 0.000000 0.013852
#
#
# Mechanical properties :
#
#
# Convention : Reuss Voigt Hill
#
# Bulk Modulus (GPa) = 29.89149 34.56642 32.22896
# Shear Modulus (GPa) = 26.20433 39.15175 32.67804
#
# Velocity S-wave (km/s) = 3.21491 3.92969 3.59013
# Velocity P-wave (km/s) = 5.05676 5.85011 5.46784
#
# Compressibility (1/GPa) = 0.03345434
#
# Stress axis : x y z
#
# Youngs Moduli (GPa) = 73.34171 125.67175 68.35423
#
# Poissons Ratio (x) = 0.31534 -0.04540
# Poissons Ratio (y) = 0.18403 -0.03154
# Poissons Ratio (z) = -0.04871 -0.05799
#
# Static dielectric constant tensor:
#      x y z
#    x 2.019210 0.000000 0.000000 
#    y 0.000000 1.998750 0.000000 
#    z 0.000000 0.000000 2.115450 
# 
# From -- ./inp_files/23547.got.cif
#   From: 2010.05.17/outbox.cif.g08.bks.cpg/sg23_12_cif.got.tgz:23547.got - 2010.06.04 12:02:01.
