data_PCOD9332376
_publ_section_title
;
Structure prediction by ZEFSAII (Michael W. Deem and Ramdas Pophale) SiO2 
 PCOD9332376
Probable space group: I 2 2 2
;
_chemical_formula_sum "Si O2"
_cell_formula_units_Z 32
_cell_length_a 10.131125
_cell_length_b 11.018713
_cell_length_c 13.221181
_cell_angle_alpha 90.000000
_cell_angle_beta 90.000000
_cell_angle_gamma 90.000000
_cell_volume 1475.906332
_symmetry_space_group_name_H-M "I 2 2 2"
_symmetry_group_IT_number 23
_symmetry_cell_setting 'orthorhombic'
loop_
_space_group_symop_operation_xyz
x,y,z
-x,-y,z
x,-y,-z
-x,y,-z
1/2+x,1/2+y,1/2+z
1/2-x,1/2-y,1/2+z
1/2+x,1/2-y,1/2-z
1/2-x,1/2+y,1/2-z
loop_
_atom_site_type_symbol
_atom_site_label
_atom_site_fract_x
_atom_site_fract_y
_atom_site_fract_z
Si Si1 0.385729 0.718806 0.579222
Si Si2 0.851203 0.859757 0.533037
Si Si3 0.173722 0.541267 0.615435
Si Si4 0.929615 0.307856 0.296348
O O1 0.500000 0.699691 0.500000
O O2 0.265214 0.789058 0.523918
O O3 0.318206 0.595691 0.615300
O O4 0.440289 0.786070 0.677788
O O5 0.863416 0.808527 0.647812
O O6 0.000000 0.827986 0.500000
O O7 0.833659 0.000000 0.500000
O O8 0.143314 0.500000 0.500000
O O9 0.164962 0.421944 0.682881
O O10 0.067302 0.640127 0.656376
#
# Coordination Sequence:
#
# PCOD9332376 Si02
#       4
#     8   8   8   8
#     4  12  29  45  74 117 154 182 254 319 371 437
#     4  11  24  46  73 104 149 197 247 305 371 453
#     4  11  23  49  78 102 145 209 251 295 366 464
#     4  11  24  45  79 105 145 203 248 297 384 441
#
# _framework density 21.681595000000002
#
# number of rings (size 3 to 8) (size 9 to 14) (size 15 to 20)
#    0.000    0.750    5.000    1.500    7.000    3.000 
#    0.000    0.000    0.000    0.000    0.000    0.000 
#    0.000    0.000    0.000    0.000    0.000    0.000 
#
# Total GULP energy -89317.081695 kJ/mol
# GULP energy per Si atom -5582.317606 kJ/mol
# Density = 2.163225 g / cm^3
# Si number density = 21.681595 Si / 1000 Ang^3
#
#
#
# Elastic Constant Matrix: (Units=GPa)
#
#
# Indices 1 2 3 4 5 6 
#
# 1 120.6980 58.6764 47.5563 0.0000 0.0000 0.0000
# 2 58.6764 81.8305 51.7832 0.0000 0.0000 0.0000
# 3 47.5563 51.7832 145.7724 0.0000 0.0000 0.0000
# 4 0.0000 0.0000 0.0000 16.6111 0.0000 0.0000
# 5 0.0000 0.0000 0.0000 0.0000 -234.4063 0.0000
# 6 0.0000 0.0000 0.0000 0.0000 0.0000 19.1688
#
#
#
# Elastic Compliance Matrix: (Units=1/GPa)
#
#
# Indices 1 2 3 4 5 6 
#
# 1 0.012876 -0.008481 -0.001188 0.000000 0.000000 0.000000
# 2 -0.008481 0.021350 -0.004817 0.000000 0.000000 0.000000
# 3 -0.001188 -0.004817 0.008959 0.000000 0.000000 0.000000
# 4 0.000000 0.000000 0.000000 0.060201 0.000000 0.000000
# 5 0.000000 0.000000 0.000000 0.000000 -0.004266 0.000000
# 6 0.000000 0.000000 0.000000 0.000000 0.000000 0.052168
#
#
# Mechanical properties :
#
#
# Convention : Reuss Voigt Hill
#
# Bulk Modulus (GPa) = 70.36136 73.81473 72.08805
# Shear Modulus (GPa) = 27.02723 -27.03959 -0.00618
#
# Velocity S-wave (km/s) = 3.53448 -3.53529 -0.05345
# Velocity P-wave (km/s) = 7.01280 4.17785 5.77208
#
# Compressibility (1/GPa) = 0.01421235
#
# Stress axis : x y z
#
# Youngs Moduli (GPa) = 77.66246 46.83774 111.62115
#
# Poissons Ratio (x) = 0.39724 0.13260
# Poissons Ratio (y) = 0.65867 0.53773
# Poissons Ratio (z) = 0.09226 0.22564
#
# Static dielectric constant tensor:
#      x y z
#    x 1.779160 0.000000 0.000000 
#    y 0.000000 1.935440 0.000000 
#    z 0.000000 0.000000 1.828420 
# 
# From -- ./inp_files/9234.got.cif
#   From: 2010.05.17/outbox.cif.g08.bks.cpg/sg23_5_cif.got.tgz:9234.got - 2010.06.04 12:02:01.
