data_PCOD9332033
_publ_section_title
;
Structure prediction by ZEFSAII (Michael W. Deem and Ramdas Pophale) SiO2 
 PCOD9332033
Probable space group: I 2 2 2
;
_chemical_formula_sum "Si O2"
_cell_formula_units_Z 60
_cell_length_a 21.673946
_cell_length_b 22.849399
_cell_length_c 5.802061
_cell_angle_alpha 90.000000
_cell_angle_beta 90.000000
_cell_angle_gamma 90.000000
_cell_volume 2873.393195
_symmetry_space_group_name_H-M "I 2 2 2"
_symmetry_group_IT_number 23
_symmetry_cell_setting 'orthorhombic'
loop_
_space_group_symop_operation_xyz
x,y,z
-x,-y,z
x,-y,-z
-x,y,-z
1/2+x,1/2+y,1/2+z
1/2-x,1/2-y,1/2+z
1/2+x,1/2-y,1/2-z
1/2-x,1/2+y,1/2-z
loop_
_atom_site_type_symbol
_atom_site_label
_atom_site_fract_x
_atom_site_fract_y
_atom_site_fract_z
Si Si1 0.786871 0.565701 0.928917
Si Si2 0.028860 0.910870 0.744846
Si Si3 0.727383 0.839636 0.781381
Si Si4 0.162157 0.033234 0.246756
Si Si5 0.126018 0.346157 0.669797
Si Si6 0.500000 0.176243 0.000000
Si Si7 0.829242 0.240511 0.031658
Si Si8 0.453871 0.277006 0.699716
O O1 0.729528 0.563437 0.752336
O O2 0.842726 0.605010 0.833813
O O3 0.804663 0.500000 0.000000
O O4 0.761093 0.600467 0.149254
O O5 0.100555 0.927972 0.747643
O O6 0.022821 0.840670 0.730321
O O7 0.000000 0.933386 0.500000
O O8 0.000000 0.927735 0.000000
O O9 0.787240 0.814032 0.903520
O O10 0.712074 0.787430 0.603033
O O11 0.667653 0.848234 0.940619
O O12 0.161396 0.000000 0.500000
O O13 0.158574 0.000000 0.000000
O O14 0.052984 0.357740 0.638612
O O15 0.138939 0.281108 0.772923
O O16 0.543011 0.222318 0.133191
O O17 0.884484 0.216715 0.880037
O O18 0.500000 0.257981 0.500000
#
# Coordination Sequence:
#
# PCOD9332033 Si02
#       8
#     8   8   8   8   8   4   8   8
#     4  10  27  46  68  99 134 184 239 295 361 423
#     4  11  25  42  65 102 142 193 239 286 351 416
#     4  11  23  39  67 104 136 179 218 292 357 421
#     4  11  26  46  72  99 134 187 244 305 355 414
#     4  11  24  40  71 100 135 179 224 289 354 431
#     4  12  22  42  66  97 133 174 222 268 366 436
#     4  11  22  38  62 103 140 173 225 282 348 432
#     4  11  23  37  60  93 139 181 218 276 337 428
#
# _framework density 20.881236999999999
#
# number of rings (size 3 to 8) (size 9 to 14) (size 15 to 20)
#    0.000    1.067    4.667    0.800    5.600    4.800 
#    0.000    0.000    0.000    2.400    0.000    0.000 
#    0.000    0.000    0.000    0.000    0.000    0.000 
#
# Total GULP energy -167323.231819 kJ/mol
# GULP energy per Si atom -5577.441061 kJ/mol
# Density = 2.083371 g / cm^3
# Si number density = 20.881237 Si / 1000 Ang^3
#
#
#
# Elastic Constant Matrix: (Units=GPa)
#
#
# Indices 1 2 3 4 5 6 
#
# 1 125.6811 17.9605 28.4057 0.0000 0.0000 0.0000
# 2 17.9605 88.9640 31.7297 0.0000 0.0000 0.0000
# 3 28.4057 31.7297 89.1056 0.0000 0.0000 0.0000
# 4 0.0000 0.0000 0.0000 10.6009 0.0000 0.0000
# 5 0.0000 0.0000 0.0000 0.0000 37.3882 0.0000
# 6 0.0000 0.0000 0.0000 0.0000 0.0000 28.2710
#
#
#
# Elastic Compliance Matrix: (Units=1/GPa)
#
#
# Indices 1 2 3 4 5 6 
#
# 1 0.008633 -0.000872 -0.002442 0.000000 0.000000 0.000000
# 2 -0.000872 0.012964 -0.004338 0.000000 0.000000 0.000000
# 3 -0.002442 -0.004338 0.013546 0.000000 0.000000 0.000000
# 4 0.000000 0.000000 0.000000 0.094331 0.000000 0.000000
# 5 0.000000 0.000000 0.000000 0.000000 0.026746 0.000000
# 6 0.000000 0.000000 0.000000 0.000000 0.000000 0.035372
#
#
# Mechanical properties :
#
#
# Convention : Reuss Voigt Hill
#
# Bulk Modulus (GPa) = 50.40618 51.10472 50.75545
# Shear Modulus (GPa) = 23.41818 30.29566 26.85692
#
# Velocity S-wave (km/s) = 3.35250 3.81314 3.59022
# Velocity P-wave (km/s) = 6.25920 6.62675 6.44560
#
# Compressibility (1/GPa) = 0.01983884
#
# Stress axis : x y z
#
# Youngs Moduli (GPa) = 115.83316 77.13755 73.82354
#
# Poissons Ratio (x) = 0.06727 0.18025
# Poissons Ratio (y) = 0.10102 0.32027
# Poissons Ratio (z) = 0.28282 0.33465
#
# Static dielectric constant tensor:
#      x y z
#    x 1.772870 0.000000 0.000000 
#    y 0.000000 1.739110 0.000000 
#    z 0.000000 0.000000 1.906000 
# 
# From -- ./inp_files/4042.got.cif
#   From: 2010.05.17/outbox.cif.g08.bks.cpg/sg23_3_cif.got.tgz:4042.got - 2010.06.04 12:02:01.
