data_PCOD9332379
_publ_section_title
;
Structure prediction by ZEFSAII (Michael W. Deem and Ramdas Pophale) SiO2 
 PCOD9332379
Probable space group: I 2 2 2
;
_chemical_formula_sum "Si O2"
_cell_formula_units_Z 36
_cell_length_a 5.033179
_cell_length_b 21.820234
_cell_length_c 14.006283
_cell_angle_alpha 90.000000
_cell_angle_beta 90.000000
_cell_angle_gamma 90.000000
_cell_volume 1538.242041
_symmetry_space_group_name_H-M "I 2 2 2"
_symmetry_group_IT_number 23
_symmetry_cell_setting 'orthorhombic'
loop_
_space_group_symop_operation_xyz
x,y,z
-x,-y,z
x,-y,-z
-x,y,-z
1/2+x,1/2+y,1/2+z
1/2-x,1/2-y,1/2+z
1/2+x,1/2-y,1/2-z
1/2-x,1/2+y,1/2-z
loop_
_atom_site_type_symbol
_atom_site_label
_atom_site_fract_x
_atom_site_fract_y
_atom_site_fract_z
Si Si1 0.000000 0.500000 0.722924
Si Si2 0.407630 0.867992 0.808143
Si Si3 0.914001 0.810679 0.894964
Si Si4 0.000000 0.000000 0.357468
Si Si5 0.500000 0.610358 0.000000
Si Si6 0.912314 0.669806 0.102689
O O1 0.064476 0.438867 0.664392
O O2 0.748470 0.485689 0.790099
O O3 0.110796 0.844207 0.821988
O O4 0.494223 0.861759 0.698170
O O5 0.612774 0.826430 0.868572
O O6 0.983073 0.738654 0.892239
O O7 0.000000 0.832285 0.000000
O O8 0.085584 0.057667 0.422286
O O9 0.395609 0.659930 0.919876
O O10 0.000000 0.639820 0.000000
#
# Coordination Sequence:
#
# PCOD9332379 Si02
#       6
#     4   8   8   4   4   8
#     4  12  24  45  69 100 142 186 240 298 354 440
#     4  12  25  47  71 104 138 189 239 295 366 431
#     4  11  27  47  72  99 139 182 249 311 358 412
#     4  11  24  42  64 104 153 190 229 284 348 452
#     4  11  24  38  68 104 150 193 232 274 364 453
#     4  11  25  41  71 105 149 187 231 285 366 448
#
# _framework density 23.40334
#
# number of rings (size 3 to 8) (size 9 to 14) (size 15 to 20)
#    0.000    0.667    2.222    4.667    9.333    0.889 
#    0.000    3.333    0.000    0.000    0.000    0.000 
#    0.000    0.000    0.000    0.000    0.000    0.000 
#
# Total GULP energy -100425.633442 kJ/mol
# GULP energy per Si atom -5579.201858 kJ/mol
# Density = 2.335007 g / cm^3
# Si number density = 23.403340 Si / 1000 Ang^3
#
#
#
# Elastic Constant Matrix: (Units=GPa)
#
#
# Indices 1 2 3 4 5 6 
#
# 1 49.2587 4.7916 0.1933 0.0000 0.0000 0.0000
# 2 4.7916 130.6797 -4.1265 0.0000 0.0000 0.0000
# 3 0.1933 -4.1265 64.0428 0.0000 0.0000 0.0000
# 4 0.0000 0.0000 0.0000 54.8372 0.0000 0.0000
# 5 0.0000 0.0000 0.0000 0.0000 26.4630 0.0000
# 6 0.0000 0.0000 0.0000 0.0000 0.0000 35.1794
#
#
#
# Elastic Compliance Matrix: (Units=1/GPa)
#
#
# Indices 1 2 3 4 5 6 
#
# 1 0.020374 -0.000751 -0.000110 0.000000 0.000000 0.000000
# 2 -0.000751 0.007696 0.000498 0.000000 0.000000 0.000000
# 3 -0.000110 0.000498 0.015647 0.000000 0.000000 0.000000
# 4 0.000000 0.000000 0.000000 0.018236 0.000000 0.000000
# 5 0.000000 0.000000 0.000000 0.000000 0.037789 0.000000
# 6 0.000000 0.000000 0.000000 0.000000 0.000000 0.028426
#
#
# Mechanical properties :
#
#
# Convention : Reuss Voigt Hill
#
# Bulk Modulus (GPa) = 23.25992 27.29978 25.27985
# Shear Modulus (GPa) = 34.91073 39.50410 37.20742
#
# Velocity S-wave (km/s) = 3.86644 4.11295 3.99160
# Velocity P-wave (km/s) = 5.46743 5.85195 5.66296
#
# Compressibility (1/GPa) = 0.04299241
#
# Stress axis : x y z
#
# Youngs Moduli (GPa) = 49.08116 129.94534 63.91009
#
# Poissons Ratio (x) = 0.09753 0.00702
# Poissons Ratio (y) = 0.03684 -0.03183
# Poissons Ratio (z) = 0.00539 -0.06473
#
# Static dielectric constant tensor:
#      x y z
#    x 1.252030 0.000000 0.000000 
#    y 0.000000 1.869990 0.000000 
#    z 0.000000 0.000000 1.876000 
# 
# From -- ./inp_files/19094.got.cif
#   From: 2010.05.17/outbox.cif.g08.bks.cpg/sg23_10_cif.got.tgz:19094.got - 2010.06.04 12:02:01.
