data_PCOD9332224
_publ_section_title
;
Structure prediction by ZEFSAII (Michael W. Deem and Ramdas Pophale) SiO2 
 PCOD9332224
Probable space group: I 2 2 2
;
_chemical_formula_sum "Si O2"
_cell_formula_units_Z 48
_cell_length_a 9.977080
_cell_length_b 16.804601
_cell_length_c 13.774913
_cell_angle_alpha 90.000000
_cell_angle_beta 90.000000
_cell_angle_gamma 90.000000
_cell_volume 2309.513602
_symmetry_space_group_name_H-M "I 2 2 2"
_symmetry_group_IT_number 23
_symmetry_cell_setting 'orthorhombic'
loop_
_space_group_symop_operation_xyz
x,y,z
-x,-y,z
x,-y,-z
-x,y,-z
1/2+x,1/2+y,1/2+z
1/2-x,1/2-y,1/2+z
1/2+x,1/2-y,1/2-z
1/2-x,1/2+y,1/2-z
loop_
_atom_site_type_symbol
_atom_site_label
_atom_site_fract_x
_atom_site_fract_y
_atom_site_fract_z
Si Si1 0.229697 0.716529 0.069911
Si Si2 0.565723 0.620105 0.397660
Si Si3 0.562570 0.278795 0.241624
Si Si4 0.851601 0.972690 0.727336
Si Si5 0.640474 0.955591 0.402453
Si Si6 0.206411 0.799710 0.349672
O O1 0.153597 0.799790 0.087860
O O2 0.349027 0.704506 0.146826
O O3 0.134734 0.638698 0.077126
O O4 0.288261 0.719493 0.962000
O O5 0.500000 0.598987 0.500000
O O6 0.457098 0.647993 0.316600
O O7 0.646816 0.551240 0.341526
O O8 0.650085 0.216747 0.301942
O O9 0.414357 0.254093 0.205828
O O10 0.826284 0.890915 0.670005
O O11 0.738355 0.030773 0.688112
O O12 0.000000 0.000000 0.701063
O O13 0.500000 0.000000 0.384435
O O14 0.694819 0.000000 0.500000
#
# Coordination Sequence:
#
# PCOD9332224 Si02
#       6
#     8   8   8   8   8   8
#     4  12  23  41  68 100 139 175 230 283 345 404
#     4  11  24  41  73  97 133 181 233 279 327 407
#     4  11  22  39  64 101 130 172 221 283 337 398
#     4  11  24  46  64  98 138 184 227 275 343 404
#     4  11  25  38  64 100 140 183 217 280 351 415
#     4  11  23  40  66  99 140 174 224 283 346 406
#
# _framework density 20.783598000000001
#
# number of rings (size 3 to 8) (size 9 to 14) (size 15 to 20)
#    0.000    0.833    6.667    2.500    4.667    0.667 
#    0.000    0.000    0.000    0.000    0.000    1.167 
#    0.000    0.000    0.000    0.000    0.000    0.000 
#
# Total GULP energy -134074.280653 kJ/mol
# GULP energy per Si atom -5586.428361 kJ/mol
# Density = 2.073629 g / cm^3
# Si number density = 20.783598 Si / 1000 Ang^3
#
#
#
# Elastic Constant Matrix: (Units=GPa)
#
#
# Indices 1 2 3 4 5 6 
#
# 1 87.9042 26.8977 50.5696 0.0000 0.0000 0.0000
# 2 26.8977 58.7729 17.2848 0.0000 0.0000 0.0000
# 3 50.5696 17.2848 177.7737 0.0000 0.0000 0.0000
# 4 0.0000 0.0000 0.0000 17.1967 0.0000 0.0000
# 5 0.0000 0.0000 0.0000 0.0000 39.2145 0.0000
# 6 0.0000 0.0000 0.0000 0.0000 0.0000 38.0385
#
#
#
# Elastic Compliance Matrix: (Units=1/GPa)
#
#
# Indices 1 2 3 4 5 6 
#
# 1 0.015371 -0.005918 -0.003797 0.000000 0.000000 0.000000
# 2 -0.005918 0.019794 -0.000241 0.000000 0.000000 0.000000
# 3 -0.003797 -0.000241 0.006729 0.000000 0.000000 0.000000
# 4 0.000000 0.000000 0.000000 0.058151 0.000000 0.000000
# 5 0.000000 0.000000 0.000000 0.000000 0.025501 0.000000
# 6 0.000000 0.000000 0.000000 0.000000 0.000000 0.026289
#
#
# Mechanical properties :
#
#
# Convention : Reuss Voigt Hill
#
# Bulk Modulus (GPa) = 45.49294 57.10612 51.29953
# Shear Modulus (GPa) = 27.92138 34.20318 31.06228
#
# Velocity S-wave (km/s) = 3.66926 4.06110 3.87014
# Velocity P-wave (km/s) = 6.31567 7.03749 6.68633
#
# Compressibility (1/GPa) = 0.02198143
#
# Stress axis : x y z
#
# Youngs Moduli (GPa) = 65.05635 50.52045 148.61703
#
# Poissons Ratio (x) = 0.29898 0.56432
# Poissons Ratio (y) = 0.38501 0.03583
# Poissons Ratio (z) = 0.24703 0.01218
#
# Static dielectric constant tensor:
#      x y z
#    x 1.761270 0.000000 0.000000 
#    y 0.000000 1.787510 0.000000 
#    z 0.000000 0.000000 1.767950 
# 
# From -- ./inp_files/20003.got.cif
#   From: 2010.05.17/outbox.cif.g08.bks.cpg/sg23_11_cif.got.tgz:20003.got - 2010.06.04 12:02:01.
