data_PCOD9332973
_publ_section_title
;
Structure prediction by ZEFSAII (Michael W. Deem and Ramdas Pophale) SiO2 
 PCOD9332973
Probable space group: I 21 21 21
;
_chemical_formula_sum "Si O2"
_cell_formula_units_Z 48
_cell_length_a 9.585237
_cell_length_b 9.052469
_cell_length_c 28.846613
_cell_angle_alpha 90.000000
_cell_angle_beta 90.000000
_cell_angle_gamma 90.000000
_cell_volume 2503.022364
_symmetry_space_group_name_H-M "I 21 21 21"
_symmetry_group_IT_number 24
_symmetry_cell_setting 'orthorhombic'
loop_
_space_group_symop_operation_xyz
x,y,z
-x,1/2-y,z
x,-y,1/2-z
1/2-x,y,-z
1/2+x,1/2+y,1/2+z
1/2-x,-y,1/2+z
1/2+x,1/2-y,-z
-x,1/2+y,1/2-z
loop_
_atom_site_type_symbol
_atom_site_label
_atom_site_fract_x
_atom_site_fract_y
_atom_site_fract_z
Si Si1 0.920749 0.010223 0.545953
Si Si2 0.500000 0.250000 0.982945
Si Si3 0.062461 0.019983 0.088712
Si Si4 0.260110 0.401732 0.874856
Si Si5 0.000000 0.750000 0.022165
Si Si6 0.152979 0.064477 0.882042
Si Si7 0.449913 0.581846 0.298465
O O1 0.914282 0.865099 0.513680
O O2 0.807185 0.006045 0.586054
O O3 0.069350 0.991509 0.572697
O O4 0.909226 0.153045 0.513852
O O5 0.592329 0.350470 0.948896
O O6 0.924466 0.074784 0.116198
O O7 0.193921 0.997849 0.121382
O O8 0.051874 0.875923 0.056965
O O9 0.186158 0.241097 0.883871
O O10 0.200938 0.433567 0.823605
O O11 0.057719 0.027484 0.838054
O O12 0.500000 0.750000 0.290842
O O13 0.455068 0.500000 0.250000
#
# Coordination Sequence:
#
# PCOD9332973 Si02
#       7
#     8   4   8   8   4   8   8
#     4  10  20  35  53  78 111 152 196 233 261 305
#     4  10  18  30  56  74 102 150 196 218 252 310
#     4  11  22  35  53  81 117 150 183 230 280 315
#     4  10  19  37  61  82 108 143 193 232 269 323
#     4  10  26  36  46  82 122 158 188 234 268 326
#     4  10  19  37  61  82 108 143 193 232 269 323
#     4   9  20  41  65  89 106 132 177 227 281 344
#
# _framework density 19.176817
#
# number of rings (size 3 to 8) (size 9 to 14) (size 15 to 20)
#    0.000    2.000    3.333    1.000    0.000    9.333 
#    9.000    0.833    0.000    0.000    0.000    0.000 
#    0.000    0.000    0.000    0.000    0.000    0.000 
#
# Total GULP energy -133719.380860 kJ/mol
# GULP energy per Si atom -5571.640869 kJ/mol
# Density = 1.913317 g / cm^3
# Si number density = 19.176817 Si / 1000 Ang^3
#
#
#
# Elastic Constant Matrix: (Units=GPa)
#
#
# Indices 1 2 3 4 5 6 
#
# 1 122.8811 12.4198 51.3953 0.0000 0.0000 0.0000
# 2 12.4198 76.2383 47.2506 0.0000 0.0000 0.0000
# 3 51.3953 47.2506 124.4295 0.0000 0.0000 0.0000
# 4 0.0000 0.0000 0.0000 31.0578 0.0000 0.0000
# 5 0.0000 0.0000 0.0000 0.0000 -6.9662 0.0000
# 6 0.0000 0.0000 0.0000 0.0000 0.0000 4.9063
#
#
#
# Elastic Compliance Matrix: (Units=1/GPa)
#
#
# Indices 1 2 3 4 5 6 
#
# 1 0.009922 0.001208 -0.004557 0.000000 0.000000 0.000000
# 2 0.001208 0.017301 -0.007069 0.000000 0.000000 0.000000
# 3 -0.004557 -0.007069 0.012603 0.000000 0.000000 0.000000
# 4 0.000000 0.000000 0.000000 0.032198 0.000000 0.000000
# 5 0.000000 0.000000 0.000000 0.000000 -0.143551 0.000000
# 6 0.000000 0.000000 0.000000 0.000000 0.000000 0.203818
#
#
# Mechanical properties :
#
#
# Convention : Reuss Voigt Hill
#
# Bulk Modulus (GPa) = 52.65790 60.63114 56.64452
# Shear Modulus (GPa) = 31.35651 19.96514 25.66083
#
# Velocity S-wave (km/s) = 4.04806 3.23012 3.66200
# Velocity P-wave (km/s) = 7.02622 6.75256 6.89075
#
# Compressibility (1/GPa) = 0.01899050
#
# Stress axis : x y z
#
# Youngs Moduli (GPa) = 100.78840 57.80000 79.34523
#
# Poissons Ratio (x) = -0.06982 0.36156
# Poissons Ratio (y) = -0.12174 0.56087
# Poissons Ratio (z) = 0.45928 0.40857
#
# Static dielectric constant tensor:
#      x y z
#    x 1.750430 0.000000 0.000000 
#    y 0.000000 1.760370 0.000000 
#    z 0.000000 0.000000 1.651170 
# 
# From -- ./inp_files/9784.got.cif
#   From: 2010.05.17/outbox.cif.g08.bks.cpg/sg24_5_cif.got.tgz:9784.got - 2010.06.04 00:33:39.
