data_PCOD9332903
_publ_section_title
;
Structure prediction by ZEFSAII (Michael W. Deem and Ramdas Pophale) SiO2 
 PCOD9332903
Probable space group: I 21 21 21
;
_chemical_formula_sum "Si O2"
_cell_formula_units_Z 48
_cell_length_a 23.823389
_cell_length_b 5.215821
_cell_length_c 14.291199
_cell_angle_alpha 90.000000
_cell_angle_beta 90.000000
_cell_angle_gamma 90.000000
_cell_volume 1775.803417
_symmetry_space_group_name_H-M "I 21 21 21"
_symmetry_group_IT_number 24
_symmetry_cell_setting 'orthorhombic'
loop_
_space_group_symop_operation_xyz
x,y,z
-x,1/2-y,z
x,-y,1/2-z
1/2-x,y,-z
1/2+x,1/2+y,1/2+z
1/2-x,-y,1/2+z
1/2+x,1/2-y,-z
-x,1/2+y,1/2-z
loop_
_atom_site_type_symbol
_atom_site_label
_atom_site_fract_x
_atom_site_fract_y
_atom_site_fract_z
Si Si1 0.615660 0.349725 0.081298
Si Si2 0.544757 0.965486 0.153023
Si Si3 0.500000 0.750000 0.646632
Si Si4 0.691097 0.832169 0.873070
Si Si5 0.183258 0.333575 0.599344
Si Si6 0.122299 0.163647 0.145152
Si Si7 0.000000 0.750000 0.020708
O O1 0.642349 0.601366 0.126219
O O2 0.554580 0.261509 0.116829
O O3 0.656206 0.112592 0.108654
O O4 0.612730 0.351496 0.968492
O O5 0.500000 0.750000 0.191628
O O6 0.550253 0.821682 0.051150
O O7 0.578206 0.000000 0.250000
O O8 0.562203 0.737227 0.691334
O O9 0.501899 0.492933 0.586179
O O10 0.756797 0.807055 0.851088
O O11 0.650427 0.610929 0.834830
O O12 0.666761 0.107438 0.845883
O O13 0.689942 0.806495 0.986444
#
# Coordination Sequence:
#
# PCOD9332903 Si02
#       7
#     8   8   4   8   8   8   4
#     4  10  19  32  46  63  79 111 143 191 234 280
#     4  10  23  35  48  64  85 118 156 204 247 295
#     4  12  20  33  46  70  88 124 150 188 222 285
#     4   9  17  29  43  66  81 110 130 179 225 270
#     4   9  18  30  47  62  84  99 140 180 233 277
#     4  10  18  27  46  61  90 109 144 172 220 271
#     4  10  24  33  50  56  88 116 156 194 234 283
#
# _framework density 27.030017999999998
#
# number of rings (size 3 to 8) (size 9 to 14) (size 15 to 20)
#    0.500    1.667    1.667    2.000    5.833    5.333 
#    0.000    0.000    0.000    0.000    0.000    0.000 
#    0.000    0.000    0.000    0.000    0.000    0.000 
#
# Total GULP energy -133904.581057 kJ/mol
# GULP energy per Si atom -5579.357544 kJ/mol
# Density = 2.696850 g / cm^3
# Si number density = 27.030018 Si / 1000 Ang^3
#
#
#
# Elastic Constant Matrix: (Units=GPa)
#
#
# Indices 1 2 3 4 5 6 
#
# 1 227.2246 88.4188 -5.1719 0.0000 0.0000 0.0000
# 2 88.4188 222.5917 24.7000 0.0000 0.0000 0.0000
# 3 -5.1719 24.7000 70.8291 0.0000 0.0000 0.0000
# 4 0.0000 0.0000 0.0000 22.9410 0.0000 0.0000
# 5 0.0000 0.0000 0.0000 0.0000 14.8546 0.0000
# 6 0.0000 0.0000 0.0000 0.0000 0.0000 31.8908
#
#
#
# Elastic Compliance Matrix: (Units=1/GPa)
#
#
# Indices 1 2 3 4 5 6 
#
# 1 0.005296 -0.002233 0.001166 0.000000 0.000000 0.000000
# 2 -0.002233 0.005615 -0.002121 0.000000 0.000000 0.000000
# 3 0.001166 -0.002121 0.014943 0.000000 0.000000 0.000000
# 4 0.000000 0.000000 0.000000 0.043590 0.000000 0.000000
# 5 0.000000 0.000000 0.000000 0.000000 0.067319 0.000000
# 6 0.000000 0.000000 0.000000 0.000000 0.000000 0.031357
#
#
# Mechanical properties :
#
#
# Convention : Reuss Voigt Hill
#
# Bulk Modulus (GPa) = 51.34247 81.83767 66.59007
# Shear Modulus (GPa) = 27.62569 41.45053 34.53811
#
# Velocity S-wave (km/s) = 3.20040 3.92024 3.57847
# Velocity P-wave (km/s) = 5.71774 7.12975 6.46243
#
# Compressibility (1/GPa) = 0.01947705
#
# Stress axis : x y z
#
# Youngs Moduli (GPa) = 188.80535 178.09469 66.91962
#
# Poissons Ratio (x) = 0.39772 -0.07800
# Poissons Ratio (y) = 0.42164 0.14195
# Poissons Ratio (z) = -0.22006 0.37777
#
# Static dielectric constant tensor:
#      x y z
#    x 2.916700 0.000000 0.000000 
#    y 0.000000 2.116940 0.000000 
#    z 0.000000 0.000000 2.235470 
# 
# From -- ./inp_files/31627.got.cif
#   From: 2010.05.17/outbox.cif.g08.bks.cpg/sg24_16_cif.got.tgz:31627.got - 2010.06.04 00:33:39.
