data_PCOD9332432
_publ_section_title
;
Structure prediction by ZEFSAII (Michael W. Deem and Ramdas Pophale) SiO2 
 PCOD9332432
Probable space group: I 2 2 2
;
_chemical_formula_sum "Si O2"
_cell_formula_units_Z 48
_cell_length_a 24.959081
_cell_length_b 7.603257
_cell_length_c 9.230571
_cell_angle_alpha 90.000000
_cell_angle_beta 90.000000
_cell_angle_gamma 90.000000
_cell_volume 1751.688295
_symmetry_space_group_name_H-M "I 2 2 2"
_symmetry_group_IT_number 23
_symmetry_cell_setting 'orthorhombic'
loop_
_space_group_symop_operation_xyz
x,y,z
-x,-y,z
x,-y,-z
-x,y,-z
1/2+x,1/2+y,1/2+z
1/2-x,1/2-y,1/2+z
1/2+x,1/2-y,1/2-z
1/2-x,1/2+y,1/2-z
loop_
_atom_site_type_symbol
_atom_site_label
_atom_site_fract_x
_atom_site_fract_y
_atom_site_fract_z
Si Si1 0.083584 0.793234 0.498335
Si Si2 0.727815 0.103683 0.232614
Si Si3 0.295747 0.247151 0.051685
Si Si4 0.456772 0.235898 0.700271
Si Si5 0.571750 0.163873 0.675752
Si Si6 0.146682 0.183492 0.057716
O O1 0.146794 0.765955 0.522506
O O2 0.046799 0.723473 0.626467
O O3 0.078440 0.701258 0.344595
O O4 0.072569 0.000000 0.500000
O O5 0.778617 0.096982 0.340622
O O6 0.684651 0.200882 0.338123
O O7 0.707923 0.923934 0.157543
O O8 0.741086 0.218521 0.089296
O O9 0.516543 0.269816 0.646365
O O10 0.408110 0.358242 0.648715
O O11 0.440326 0.040504 0.651385
O O12 0.622692 0.217998 0.582275
O O13 0.169680 0.000000 0.000000
#
# Coordination Sequence:
#
# PCOD9332432 Si02
#       6
#     8   8   8   8   8   8
#     4  12  26  45  74 109 150 198 256 321 391 460
#     4  11  28  51  80 111 152 200 256 321 390 470
#     4  11  28  51  79 112 153 202 255 320 392 466
#     4  11  24  49  69 105 156 201 262 316 380 460
#     4  11  26  43  76 107 148 210 256 314 384 459
#     4  12  26  46  76 111 154 198 251 319 383 457
#
# _framework density 27.402138000000001
#
# number of rings (size 3 to 8) (size 9 to 14) (size 15 to 20)
#    0.000    0.667    1.667    4.000    9.333    6.667 
#    0.000    0.000    0.000    0.000    0.000    0.000 
#    0.000    0.000    0.000    0.000    0.000    0.000 
#
# Total GULP energy -134538.089179 kJ/mol
# GULP energy per Si atom -5605.753716 kJ/mol
# Density = 2.733977 g / cm^3
# Si number density = 27.402138 Si / 1000 Ang^3
#
#
#
# Elastic Constant Matrix: (Units=GPa)
#
#
# Indices 1 2 3 4 5 6 
#
# 1 106.9519 13.2475 40.1888 0.0000 0.0000 0.0000
# 2 13.2475 125.5800 32.5168 0.0000 0.0000 0.0000
# 3 40.1888 32.5168 193.3822 0.0000 0.0000 0.0000
# 4 0.0000 0.0000 0.0000 35.3347 0.0000 0.0000
# 5 0.0000 0.0000 0.0000 0.0000 16.4435 0.0000
# 6 0.0000 0.0000 0.0000 0.0000 0.0000 36.1996
#
#
#
# Elastic Compliance Matrix: (Units=1/GPa)
#
#
# Indices 1 2 3 4 5 6 
#
# 1 0.010178 -0.000550 -0.002023 0.000000 0.000000 0.000000
# 2 -0.000550 0.008355 -0.001291 0.000000 0.000000 0.000000
# 3 -0.002023 -0.001291 0.005808 0.000000 0.000000 0.000000
# 4 0.000000 0.000000 0.000000 0.028301 0.000000 0.000000
# 5 0.000000 0.000000 0.000000 0.000000 0.060814 0.000000
# 6 0.000000 0.000000 0.000000 0.000000 0.000000 0.027625
#
#
# Mechanical properties :
#
#
# Convention : Reuss Voigt Hill
#
# Bulk Modulus (GPa) = 60.18560 66.42448 63.30504
# Shear Modulus (GPa) = 32.39459 40.25964 36.32711
#
# Velocity S-wave (km/s) = 3.44203 3.83719 3.64497
# Velocity P-wave (km/s) = 6.14884 6.62762 6.39271
#
# Compressibility (1/GPa) = 0.01661527
#
# Stress axis : x y z
#
# Youngs Moduli (GPa) = 98.24916 119.68522 172.16164
#
# Poissons Ratio (x) = 0.06582 0.34824
# Poissons Ratio (y) = 0.05403 0.22220
# Poissons Ratio (z) = 0.19874 0.15447
#
# Static dielectric constant tensor:
#      x y z
#    x 2.233870 0.000000 0.000000 
#    y 0.000000 2.177420 0.000000 
#    z 0.000000 0.000000 2.134110 
# 
# From -- ./inp_files/13355.got.cif
#   From: 2010.05.17/outbox.cif.g08.bks.cpg/sg23_7_cif.got.tgz:13355.got - 2010.06.04 12:02:01.
