data_PCOD9332064
_publ_section_title
;
Structure prediction by ZEFSAII (Michael W. Deem and Ramdas Pophale) SiO2 
 PCOD9332064
Probable space group: I 2 2 2
;
_chemical_formula_sum "Si O2"
_cell_formula_units_Z 38
_cell_length_a 6.360637
_cell_length_b 12.200072
_cell_length_c 20.571665
_cell_angle_alpha 90.000000
_cell_angle_beta 90.000000
_cell_angle_gamma 90.000000
_cell_volume 1596.365922
_symmetry_space_group_name_H-M "I 2 2 2"
_symmetry_group_IT_number 23
_symmetry_cell_setting 'orthorhombic'
loop_
_space_group_symop_operation_xyz
x,y,z
-x,-y,z
x,-y,-z
-x,y,-z
1/2+x,1/2+y,1/2+z
1/2-x,1/2-y,1/2+z
1/2+x,1/2-y,1/2-z
1/2-x,1/2+y,1/2-z
loop_
_atom_site_type_symbol
_atom_site_label
_atom_site_fract_x
_atom_site_fract_y
_atom_site_fract_z
Si Si1 0.883252 0.219798 0.335448
Si Si2 0.248792 0.832304 0.088829
Si Si3 0.500000 0.000000 0.000000
Si Si4 0.739889 0.613445 0.768135
Si Si5 0.503590 0.876849 0.399297
Si Si6 0.000000 0.000000 0.831315
O O1 0.770647 0.277626 0.274927
O O2 0.725403 0.175137 0.389410
O O3 0.055231 0.302227 0.364961
O O4 0.020733 0.122671 0.306073
O O5 0.153271 0.714427 0.067458
O O6 0.060611 0.894928 0.126155
O O7 0.345501 0.918375 0.038790
O O8 0.704402 0.522768 0.713158
O O9 0.909682 0.609782 0.824809
O O10 0.500000 0.000000 0.426308
#
# Coordination Sequence:
#
# PCOD9332064 Si02
#       6
#     8   8   2   8   8   4
#     4  11  20  40  59 100 141 189 232 272 334 421
#     4  11  27  45  70 102 134 175 246 300 364 406
#     4  12  28  54  76 102 126 180 240 340 368 406
#     4  11  20  32  60  95 150 191 227 262 332 416
#     4  11  24  40  66 102 146 197 226 276 339 439
#     4  12  22  41  64 108 142 187 226 294 342 426
#
# _framework density 23.804065999999999
#
# number of rings (size 3 to 8) (size 9 to 14) (size 15 to 20)
#    0.000    0.842    4.211    3.789    2.947    2.947 
#    0.000    0.000    0.000    3.789    0.000    0.000 
#    0.000    0.000    0.000    0.000    0.000    0.000 
#
# Total GULP energy -106198.651811 kJ/mol
# GULP energy per Si atom -5589.402727 kJ/mol
# Density = 2.374989 g / cm^3
# Si number density = 23.804066 Si / 1000 Ang^3
#
#
#
# Elastic Constant Matrix: (Units=GPa)
#
#
# Indices 1 2 3 4 5 6 
#
# 1 91.2775 40.5305 22.8382 0.0000 0.0000 0.0000
# 2 40.5305 173.8979 49.2918 0.0000 0.0000 0.0000
# 3 22.8382 49.2918 66.4438 0.0000 0.0000 0.0000
# 4 0.0000 0.0000 0.0000 22.3235 0.0000 0.0000
# 5 0.0000 0.0000 0.0000 0.0000 10.7406 0.0000
# 6 0.0000 0.0000 0.0000 0.0000 0.0000 35.4745
#
#
#
# Elastic Compliance Matrix: (Units=1/GPa)
#
#
# Indices 1 2 3 4 5 6 
#
# 1 0.012598 -0.002164 -0.002725 0.000000 0.000000 0.000000
# 2 -0.002164 0.007653 -0.004934 0.000000 0.000000 0.000000
# 3 -0.002725 -0.004934 0.019647 0.000000 0.000000 0.000000
# 4 0.000000 0.000000 0.000000 0.044796 0.000000 0.000000
# 5 0.000000 0.000000 0.000000 0.000000 0.093105 0.000000
# 6 0.000000 0.000000 0.000000 0.000000 0.000000 0.028189
#
#
# Mechanical properties :
#
#
# Convention : Reuss Voigt Hill
#
# Bulk Modulus (GPa) = 49.37487 61.88224 55.62856
# Shear Modulus (GPa) = 21.51594 28.30493 24.91043
#
# Velocity S-wave (km/s) = 3.00972 3.45204 3.23844
# Velocity P-wave (km/s) = 5.73281 6.47625 6.11583
#
# Compressibility (1/GPa) = 0.02025322
#
# Stress axis : x y z
#
# Youngs Moduli (GPa) = 79.37603 130.66129 50.89770
#
# Poissons Ratio (x) = 0.28273 0.13870
# Poissons Ratio (y) = 0.17176 0.25113
# Poissons Ratio (z) = 0.21630 0.64468
#
# Static dielectric constant tensor:
#      x y z
#    x 1.933670 0.000000 0.000000 
#    y 0.000000 2.005620 0.000000 
#    z 0.000000 0.000000 1.896370 
# 
# From -- ./inp_files/28872.got.cif
#   From: 2010.05.17/outbox.cif.g08.bks.cpg/sg23_15_cif.got.tgz:28872.got - 2010.06.04 12:02:01.
