data_PCOD9332122
_publ_section_title
;
Structure prediction by ZEFSAII (Michael W. Deem and Ramdas Pophale) SiO2 
 PCOD9332122
Probable space group: I 2 2 2
;
_chemical_formula_sum "Si O2"
_cell_formula_units_Z 64
_cell_length_a 21.413772
_cell_length_b 27.220621
_cell_length_c 5.652849
_cell_angle_alpha 90.000000
_cell_angle_beta 90.000000
_cell_angle_gamma 90.000000
_cell_volume 3295.024042
_symmetry_space_group_name_H-M "I 2 2 2"
_symmetry_group_IT_number 23
_symmetry_cell_setting 'orthorhombic'
loop_
_space_group_symop_operation_xyz
x,y,z
-x,-y,z
x,-y,-z
-x,y,-z
1/2+x,1/2+y,1/2+z
1/2-x,1/2-y,1/2+z
1/2+x,1/2-y,1/2-z
1/2-x,1/2+y,1/2-z
loop_
_atom_site_type_symbol
_atom_site_label
_atom_site_fract_x
_atom_site_fract_y
_atom_site_fract_z
Si Si1 0.038023 0.721645 0.746078
Si Si2 0.157324 0.209548 0.254310
Si Si3 0.214038 0.873722 0.454688
Si Si4 0.429469 0.879924 0.422446
Si Si5 0.786534 0.024896 0.252816
Si Si6 0.677785 0.126026 0.781573
Si Si7 0.355716 0.043089 0.846389
Si Si8 0.243151 0.702129 0.593689
O O1 0.091680 0.763069 0.745307
O O2 0.068203 0.666744 0.745695
O O3 0.000000 0.726631 0.500000
O O4 0.000000 0.724502 0.000000
O O5 0.163777 0.158704 0.400490
O O6 0.209149 0.247200 0.358565
O O7 0.184956 0.203594 0.990163
O O8 0.193804 0.917585 0.281243
O O9 0.263887 0.896596 0.637177
O O10 0.256411 0.834617 0.313227
O O11 0.500000 0.887636 0.500000
O O12 0.383137 0.863752 0.629800
O O13 0.400941 0.931359 0.338002
O O14 0.710621 0.024156 0.249406
O O15 0.808007 0.000000 0.500000
O O16 0.805505 0.000000 0.000000
O O17 0.661378 0.087743 0.981966
O O18 0.704683 0.175614 0.888829
O O19 0.385585 0.000000 0.000000
#
# Coordination Sequence:
#
# PCOD9332122 Si02
#       8
#     8   8   8   8   8   8   8   8
#     4  11  28  47  67  88 124 177 220 262 313 392
#     4  11  24  36  62  92 130 165 211 261 329 383
#     4  11  21  37  59  92 123 165 196 259 313 393
#     4  11  26  40  61  76 109 159 223 282 326 384
#     4  11  23  39  62  89 123 169 208 248 318 392
#     4  11  21  39  58  81 119 154 212 255 328 384
#     4  11  23  37  61  77 112 154 213 275 330 381
#     4  11  22  35  59  93 127 159 201 267 321 389
#
# _framework density 19.423227000000001
#
# number of rings (size 3 to 8) (size 9 to 14) (size 15 to 20)
#    0.000    1.000    3.750    3.000   12.250    0.000 
#    0.000    1.875    0.000    0.000    0.000    0.000 
#    0.000    0.500    1.500    0.000    0.000    0.000 
#
# Total GULP energy -178607.200667 kJ/mol
# GULP energy per Si atom -5581.475021 kJ/mol
# Density = 1.937902 g / cm^3
# Si number density = 19.423227 Si / 1000 Ang^3
#
#
#
# Elastic Constant Matrix: (Units=GPa)
#
#
# Indices 1 2 3 4 5 6 
#
# 1 23.9819 1.6012 9.9985 0.0000 0.0000 0.0000
# 2 1.6012 73.4189 16.2109 0.0000 0.0000 0.0000
# 3 9.9985 16.2109 73.5825 0.0000 0.0000 0.0000
# 4 0.0000 0.0000 0.0000 25.4219 0.0000 0.0000
# 5 0.0000 0.0000 0.0000 0.0000 11.9268 0.0000
# 6 0.0000 0.0000 0.0000 0.0000 0.0000 65.8902
#
#
#
# Elastic Compliance Matrix: (Units=1/GPa)
#
#
# Indices 1 2 3 4 5 6 
#
# 1 0.044212 0.000381 -0.006092 0.000000 0.000000 0.000000
# 2 0.000381 0.014320 -0.003207 0.000000 0.000000 0.000000
# 3 -0.006092 -0.003207 0.015124 0.000000 0.000000 0.000000
# 4 0.000000 0.000000 0.000000 0.039336 0.000000 0.000000
# 5 0.000000 0.000000 0.000000 0.000000 0.083845 0.000000
# 6 0.000000 0.000000 0.000000 0.000000 0.000000 0.015177
#
#
# Mechanical properties :
#
#
# Convention : Reuss Voigt Hill
#
# Bulk Modulus (GPa) = 17.91400 25.17827 21.54614
# Shear Modulus (GPa) = 20.12420 30.19261 25.15840
#
# Velocity S-wave (km/s) = 3.22233 3.94694 3.60290
# Velocity P-wave (km/s) = 4.80495 5.81053 5.33150
#
# Compressibility (1/GPa) = 0.05582226
#
# Stress axis : x y z
#
# Youngs Moduli (GPa) = 22.61807 69.83153 66.11853
#
# Poissons Ratio (x) = -0.02659 0.40276
# Poissons Ratio (y) = -0.00861 0.21202
# Poissons Ratio (z) = 0.13778 0.22392
#
# Static dielectric constant tensor:
#      x y z
#    x 1.651700 0.000000 0.000000 
#    y 0.000000 1.737540 0.000000 
#    z 0.000000 0.000000 1.788250 
# 
# From -- ./inp_files/4101.got.cif
#   From: 2010.05.17/outbox.cif.g08.bks.cpg/sg23_3_cif.got.tgz:4101.got - 2010.06.04 12:02:01.
