data_PCOD9332899
_publ_section_title
;
Structure prediction by ZEFSAII (Michael W. Deem and Ramdas Pophale) SiO2 
 PCOD9332899
Probable space group: I 21 21 21
;
_chemical_formula_sum "Si O2"
_cell_formula_units_Z 40
_cell_length_a 13.280210
_cell_length_b 10.068215
_cell_length_c 11.642387
_cell_angle_alpha 90.000000
_cell_angle_beta 90.000000
_cell_angle_gamma 90.000000
_cell_volume 1556.680392
_symmetry_space_group_name_H-M "I 21 21 21"
_symmetry_group_IT_number 24
_symmetry_cell_setting 'orthorhombic'
loop_
_space_group_symop_operation_xyz
x,y,z
-x,1/2-y,z
x,-y,1/2-z
1/2-x,y,-z
1/2+x,1/2+y,1/2+z
1/2-x,-y,1/2+z
1/2+x,1/2-y,-z
-x,1/2+y,1/2-z
loop_
_atom_site_type_symbol
_atom_site_label
_atom_site_fract_x
_atom_site_fract_y
_atom_site_fract_z
Si Si1 0.250000 0.752139 0.500000
Si Si2 0.106797 0.500000 0.250000
Si Si3 0.433517 0.547099 0.484694
Si Si4 0.601270 0.777444 0.136909
Si Si5 0.866268 0.552832 0.038580
Si Si6 0.803786 0.295972 0.247386
O O1 0.347593 0.659485 0.468803
O O2 0.292473 0.827948 0.612867
O O3 0.064766 0.509534 0.379616
O O4 0.157688 0.354872 0.255339
O O5 0.394058 0.429385 0.402154
O O6 0.556158 0.552406 0.476392
O O7 0.500000 0.750000 0.206507
O O8 0.692778 0.717475 0.204512
O O9 0.596209 0.689186 0.022711
O O10 0.864122 0.602535 0.171991
O O11 0.750000 0.544036 0.000000
#
# Coordination Sequence:
#
# PCOD9332899 Si02
#       6
#     4   4   8   8   8   8
#     4  10  22  32  54  86 120 146 176 240 302 342
#     4  10  18  26  48  76 114 134 170 232 280 322
#     4  10  18  31  49  83 111 142 184 239 287 331
#     4   9  16  28  51  76 105 135 181 234 274 322
#     4   9  18  31  55  81 104 144 195 239 271 337
#     4  10  18  31  50  80 110 146 181 228 292 340
#
# _framework density 25.695703999999999
#
# number of rings (size 3 to 8) (size 9 to 14) (size 15 to 20)
#    0.000    2.400    2.000    2.400    1.400    0.000 
#    0.000    0.000    8.800    7.200    0.000    8.400 
#    0.000    0.000    0.000    0.000    0.000    0.000 
#
# Total GULP energy -111443.994693 kJ/mol
# GULP energy per Si atom -5572.199735 kJ/mol
# Density = 2.563722 g / cm^3
# Si number density = 25.695704 Si / 1000 Ang^3
#
#
#
# Elastic Constant Matrix: (Units=GPa)
#
#
# Indices 1 2 3 4 5 6 
#
# 1 99.4986 26.1861 -8.5318 0.0000 0.0000 0.0000
# 2 26.1861 95.1556 2.0315 0.0000 0.0000 0.0000
# 3 -8.5318 2.0315 65.2953 0.0000 0.0000 0.0000
# 4 0.0000 0.0000 0.0000 43.5164 0.0000 0.0000
# 5 0.0000 0.0000 0.0000 0.0000 17.7401 0.0000
# 6 0.0000 0.0000 0.0000 0.0000 0.0000 -10.8007
#
#
#
# Elastic Compliance Matrix: (Units=1/GPa)
#
#
# Indices 1 2 3 4 5 6 
#
# 1 0.010986 -0.003056 0.001531 0.000000 0.000000 0.000000
# 2 -0.003056 0.011366 -0.000753 0.000000 0.000000 0.000000
# 3 0.001531 -0.000753 0.015538 0.000000 0.000000 0.000000
# 4 0.000000 0.000000 0.000000 0.022980 0.000000 0.000000
# 5 0.000000 0.000000 0.000000 0.000000 0.056370 0.000000
# 6 0.000000 0.000000 0.000000 0.000000 0.000000 -0.092586
#
#
# Mechanical properties :
#
#
# Convention : Reuss Voigt Hill
#
# Bulk Modulus (GPa) = 29.99951 33.25792 31.62871
# Shear Modulus (GPa) = 124.00337 26.10872 75.05605
#
# Velocity S-wave (km/s) = 6.95436 3.19105 5.41045
# Velocity P-wave (km/s) = 8.72837 5.15249 7.16703
#
# Compressibility (1/GPa) = 0.03333388
#
# Stress axis : x y z
#
# Youngs Moduli (GPa) = 91.02589 87.98055 64.35646
#
# Poissons Ratio (x) = 0.26886 -0.09850
# Poissons Ratio (y) = 0.27817 0.04846
# Poissons Ratio (z) = -0.13932 0.06624
#
# Static dielectric constant tensor:
#      x y z
#    x 2.181260 0.000000 0.000000 
#    y 0.000000 1.999710 0.000000 
#    z 0.000000 0.000000 2.285730 
# 
# From -- ./inp_files/20535.got.cif
#   From: 2010.05.17/outbox.cif.g08.bks.cpg/sg24_11_cif.got.tgz:20535.got - 2010.06.04 00:33:39.
