data_PCOD9332972
_publ_section_title
;
Structure prediction by ZEFSAII (Michael W. Deem and Ramdas Pophale) SiO2 
 PCOD9332972
Probable space group: I 21 21 21
;
_chemical_formula_sum "Si O2"
_cell_formula_units_Z 56
_cell_length_a 13.919279
_cell_length_b 11.475357
_cell_length_c 18.695515
_cell_angle_alpha 90.000000
_cell_angle_beta 90.000000
_cell_angle_gamma 90.000000
_cell_volume 2986.210227
_symmetry_space_group_name_H-M "I 21 21 21"
_symmetry_group_IT_number 24
_symmetry_cell_setting 'orthorhombic'
loop_
_space_group_symop_operation_xyz
x,y,z
-x,1/2-y,z
x,-y,1/2-z
1/2-x,y,-z
1/2+x,1/2+y,1/2+z
1/2-x,-y,1/2+z
1/2+x,1/2-y,-z
-x,1/2+y,1/2-z
loop_
_atom_site_type_symbol
_atom_site_label
_atom_site_fract_x
_atom_site_fract_y
_atom_site_fract_z
Si Si1 0.992553 0.500000 0.250000
Si Si2 0.303968 0.924585 0.077515
Si Si3 0.155726 0.321656 0.207461
Si Si4 0.356975 0.071032 0.861083
Si Si5 0.971327 0.509694 0.012198
Si Si6 0.183847 0.456416 0.060852
Si Si7 0.214123 0.305739 0.360344
Si Si8 0.500000 0.250000 0.594328
O O1 0.060415 0.392363 0.230458
O O2 0.923699 0.481169 0.317128
O O3 0.411797 0.967741 0.060522
O O4 0.282016 0.798913 0.112830
O O5 0.247081 0.017821 0.125610
O O6 0.250000 0.919755 0.000000
O O7 0.142058 0.187840 0.185073
O O8 0.183985 0.383423 0.133522
O O9 0.225853 0.332392 0.275916
O O10 0.407994 0.076909 0.938084
O O11 0.975709 0.638727 0.045909
O O12 0.079701 0.467103 0.023511
O O13 0.221691 0.583253 0.087248
O O14 0.250000 0.404113 0.000000
O O15 0.100167 0.274055 0.365501
#
# Coordination Sequence:
#
# PCOD9332972 Si02
#       8
#     4   8   8   8   8   8   8   4
#     4  12  20  38  54  92 126 156 200 248 326 380
#     4  10  20  36  54  89 124 166 204 244 301 374
#     4  12  24  37  59  90 129 161 204 252 325 386
#     4  11  22  33  57  87 125 161 188 243 305 377
#     4  10  21  37  56  86 125 159 205 249 304 370
#     4  11  24  39  58  91 119 161 208 266 331 380
#     4  11  20  34  58  87 124 159 196 252 307 377
#     4  10  18  30  54  88 122 156 190 242 294 356
#
# _framework density 18.752866000000001
#
# number of rings (size 3 to 8) (size 9 to 14) (size 15 to 20)
#    0.000    1.143    5.714    2.571    4.000    1.714 
#    0.000    0.000    0.000    0.000   14.857    0.000 
#    0.000    0.000    0.000    0.000    0.000    0.000 
#
# Total GULP energy -156091.911370 kJ/mol
# GULP energy per Si atom -5574.711120 kJ/mol
# Density = 1.871018 g / cm^3
# Si number density = 18.752866 Si / 1000 Ang^3
#
#
#
# Elastic Constant Matrix: (Units=GPa)
#
#
# Indices 1 2 3 4 5 6 
#
# 1 48.5135 10.6594 48.2936 0.0000 0.0000 0.0000
# 2 10.6594 61.2448 28.3152 0.0000 0.0000 0.0000
# 3 48.2936 28.3152 102.7469 0.0000 0.0000 0.0000
# 4 0.0000 0.0000 0.0000 31.4848 0.0000 0.0000
# 5 0.0000 0.0000 0.0000 0.0000 23.3136 0.0000
# 6 0.0000 0.0000 0.0000 0.0000 0.0000 5.2583
#
#
#
# Elastic Compliance Matrix: (Units=1/GPa)
#
#
# Indices 1 2 3 4 5 6 
#
# 1 0.038936 0.001930 -0.018833 0.000000 0.000000 0.000000
# 2 0.001930 0.018808 -0.006090 0.000000 0.000000 0.000000
# 3 -0.018833 -0.006090 0.020263 0.000000 0.000000 0.000000
# 4 0.000000 0.000000 0.000000 0.031761 0.000000 0.000000
# 5 0.000000 0.000000 0.000000 0.000000 0.042893 0.000000
# 6 0.000000 0.000000 0.000000 0.000000 0.000000 0.190175
#
#
# Mechanical properties :
#
#
# Convention : Reuss Voigt Hill
#
# Bulk Modulus (GPa) = 31.22951 43.00462 37.11706
# Shear Modulus (GPa) = 12.51573 20.36048 16.43810
#
# Velocity S-wave (km/s) = 2.58622 3.29861 2.96390
# Velocity P-wave (km/s) = 5.06037 6.12290 5.61682
#
# Compressibility (1/GPa) = 0.03202100
#
# Stress axis : x y z
#
# Youngs Moduli (GPa) = 25.68290 53.16976 49.35086
#
# Poissons Ratio (x) = -0.10264 0.92943
# Poissons Ratio (y) = -0.04958 0.30057
# Poissons Ratio (z) = 0.48369 0.32382
#
# Static dielectric constant tensor:
#      x y z
#    x 1.668840 0.000000 0.000000 
#    y 0.000000 1.694310 0.000000 
#    z 0.000000 0.000000 1.706440 
# 
# From -- ./inp_files/26578.got.cif
#   From: 2010.05.17/outbox.cif.g08.bks.cpg/sg24_14_cif.got.tgz:26578.got - 2010.06.04 00:33:39.
