data_PCOD9332920
_publ_section_title
;
Structure prediction by ZEFSAII (Michael W. Deem and Ramdas Pophale) SiO2 
 PCOD9332920
Probable space group: I 21 21 21
;
_chemical_formula_sum "Si O2"
_cell_formula_units_Z 48
_cell_length_a 31.921445
_cell_length_b 8.163524
_cell_length_c 8.655840
_cell_angle_alpha 90.000000
_cell_angle_beta 90.000000
_cell_angle_gamma 90.000000
_cell_volume 2255.638177
_symmetry_space_group_name_H-M "I 21 21 21"
_symmetry_group_IT_number 24
_symmetry_cell_setting 'orthorhombic'
loop_
_space_group_symop_operation_xyz
x,y,z
-x,1/2-y,z
x,-y,1/2-z
1/2-x,y,-z
1/2+x,1/2+y,1/2+z
1/2-x,-y,1/2+z
1/2+x,1/2-y,-z
-x,1/2+y,1/2-z
loop_
_atom_site_type_symbol
_atom_site_label
_atom_site_fract_x
_atom_site_fract_y
_atom_site_fract_z
Si Si1 0.575312 0.840152 0.853616
Si Si2 0.060839 0.157773 0.054577
Si Si3 0.669218 0.241270 0.655585
Si Si4 0.519286 0.009375 0.068840
Si Si5 0.842662 0.608150 0.475567
Si Si6 0.210005 0.000000 0.750000
Si Si7 0.750000 0.738115 0.000000
O O1 0.564855 0.693027 0.737561
O O2 0.624843 0.839659 0.886113
O O3 0.565958 0.000000 0.750000
O O4 0.546613 0.860489 0.002157
O O5 0.107636 0.120188 0.000442
O O6 0.044872 0.324726 0.972806
O O7 0.025362 0.028234 0.013587
O O8 0.666132 0.426980 0.591540
O O9 0.670749 0.263078 0.841861
O O10 0.709698 0.168084 0.569402
O O11 0.513237 0.000000 0.250000
O O12 0.817917 0.611516 0.635779
O O13 0.236668 0.880730 0.858784
#
# Coordination Sequence:
#
# PCOD9332920 Si02
#       7
#     8   8   8   8   8   4   4
#     4   9  19  40  58  75 106 151 185 227 277 338
#     4   9  20  40  52  79 111 143 193 228 272 342
#     4   9  18  34  53  80 104 140 180 228 274 339
#     4  10  21  38  55  80 112 146 188 240 278 326
#     4   9  18  32  52  77 110 140 177 226 279 332
#     4  10  18  28  50  78 110 144 168 224 286 330
#     4  10  18  30  50  78 110 134 180 218 276 346
#
# _framework density 21.280007999999999
#
# number of rings (size 3 to 8) (size 9 to 14) (size 15 to 20)
#    0.000    2.667    0.000    2.000    1.167    2.667 
#   36.000    0.000    0.000    7.000    0.000    0.000 
#    0.000    0.000    0.000    0.000    0.000    0.000 
#
# Total GULP energy -134013.445735 kJ/mol
# GULP energy per Si atom -5583.893572 kJ/mol
# Density = 2.123157 g / cm^3
# Si number density = 21.280008 Si / 1000 Ang^3
#
#
#
# Elastic Constant Matrix: (Units=GPa)
#
#
# Indices 1 2 3 4 5 6 
#
# 1 157.3592 14.8783 88.9491 0.0000 0.0000 0.0000
# 2 14.8783 31.2147 7.2900 0.0000 0.0000 0.0000
# 3 88.9491 7.2900 114.3743 0.0000 0.0000 0.0000
# 4 0.0000 0.0000 0.0000 12.8154 0.0000 0.0000
# 5 0.0000 0.0000 0.0000 0.0000 42.2321 0.0000
# 6 0.0000 0.0000 0.0000 0.0000 0.0000 -26.2769
#
#
#
# Elastic Compliance Matrix: (Units=1/GPa)
#
#
# Indices 1 2 3 4 5 6 
#
# 1 0.011706 -0.003506 -0.008880 0.000000 0.000000 0.000000
# 2 -0.003506 0.033570 0.000587 0.000000 0.000000 0.000000
# 3 -0.008880 0.000587 0.015612 0.000000 0.000000 0.000000
# 4 0.000000 0.000000 0.000000 0.078031 0.000000 0.000000
# 5 0.000000 0.000000 0.000000 0.000000 0.023679 0.000000
# 6 0.000000 0.000000 0.000000 0.000000 0.000000 -0.038056
#
#
# Mechanical properties :
#
#
# Convention : Reuss Voigt Hill
#
# Bulk Modulus (GPa) = 26.81713 58.35364 42.58538
# Shear Modulus (GPa) = 31.13893 18.54285 24.84089
#
# Velocity S-wave (km/s) = 3.82945 2.95511 3.42033
# Velocity P-wave (km/s) = 5.67295 6.25499 5.97106
#
# Compressibility (1/GPa) = 0.03728960
#
# Stress axis : x y z
#
# Youngs Moduli (GPa) = 85.42543 29.78836 64.05263
#
# Poissons Ratio (x) = 0.10443 0.56881
# Poissons Ratio (y) = 0.29947 -0.03758
# Poissons Ratio (z) = 0.75861 -0.01748
#
# Static dielectric constant tensor:
#      x y z
#    x 1.788830 0.000000 0.000000 
#    y 0.000000 1.825600 0.000000 
#    z 0.000000 0.000000 1.783060 
# 
# From -- ./inp_files/16929.got.cif
#   From: 2010.05.17/outbox.cif.g08.bks.cpg/sg24_9_cif.got.tgz:16929.got - 2010.06.04 00:33:39.
