data_PCOD9332244
_publ_section_title
;
Structure prediction by ZEFSAII (Michael W. Deem and Ramdas Pophale) SiO2 
 PCOD9332244
Probable space group: I 2 2 2
;
_chemical_formula_sum "Si O2"
_cell_formula_units_Z 34
_cell_length_a 6.154378
_cell_length_b 18.769348
_cell_length_c 13.407963
_cell_angle_alpha 90.000000
_cell_angle_beta 90.000000
_cell_angle_gamma 90.000000
_cell_volume 1548.802912
_symmetry_space_group_name_H-M "I 2 2 2"
_symmetry_group_IT_number 23
_symmetry_cell_setting 'orthorhombic'
loop_
_space_group_symop_operation_xyz
x,y,z
-x,-y,z
x,-y,-z
-x,y,-z
1/2+x,1/2+y,1/2+z
1/2-x,1/2-y,1/2+z
1/2+x,1/2-y,1/2-z
1/2-x,1/2+y,1/2-z
loop_
_atom_site_type_symbol
_atom_site_label
_atom_site_fract_x
_atom_site_fract_y
_atom_site_fract_z
Si Si1 0.000000 0.000000 0.000000
Si Si2 0.348516 0.935577 0.135123
Si Si3 0.696831 0.837793 0.211905
Si Si4 0.616975 0.198079 0.393578
Si Si5 0.923626 0.075867 0.325257
O O1 0.856229 0.054055 0.064976
O O2 0.511754 0.869981 0.139261
O O3 0.262866 0.945340 0.246928
O O4 0.500000 0.000000 0.107955
O O5 0.568289 0.819748 0.312788
O O6 0.787873 0.770803 0.151873
O O7 0.889061 0.888723 0.254588
O O8 0.500000 0.204568 0.500000
O O9 0.806790 0.136982 0.391810
O O10 0.000000 0.000000 0.371025
#
# Coordination Sequence:
#
# PCOD9332244 Si02
#       5
#     2   8   8   8   8
#     4  12  22  40  60 114 156 186 242 314 388 490
#     4  11  22  41  68 100 150 196 246 304 384 461
#     4  11  23  48  73 104 152 199 247 327 378 467
#     4  11  26  48  75 111 150 203 265 315 399 462
#     4  11  22  46  76 103 146 198 254 324 382 445
#
# _framework density 21.952437
#
# number of rings (size 3 to 8) (size 9 to 14) (size 15 to 20)
#    0.000    0.941    5.882    0.353    0.000    0.941 
#   12.706    5.882    0.000    0.000    3.059    0.000 
#    0.000    0.000    0.000    0.000    0.000    0.000 
#
# Total GULP energy -94847.787618 kJ/mol
# GULP energy per Si atom -5579.281625 kJ/mol
# Density = 2.190247 g / cm^3
# Si number density = 21.952437 Si / 1000 Ang^3
#
#
#
# Elastic Constant Matrix: (Units=GPa)
#
#
# Indices 1 2 3 4 5 6 
#
# 1 127.2938 71.4985 61.4615 0.0000 0.0000 0.0000
# 2 71.4985 147.7122 64.5475 0.0000 0.0000 0.0000
# 3 61.4615 64.5475 108.5570 0.0000 0.0000 0.0000
# 4 0.0000 0.0000 0.0000 22.6182 0.0000 0.0000
# 5 0.0000 0.0000 0.0000 0.0000 85.0307 0.0000
# 6 0.0000 0.0000 0.0000 0.0000 0.0000 29.6781
#
#
#
# Elastic Compliance Matrix: (Units=1/GPa)
#
#
# Indices 1 2 3 4 5 6 
#
# 1 0.012297 -0.003931 -0.004625 0.000000 0.000000 0.000000
# 2 -0.003931 0.010403 -0.003960 0.000000 0.000000 0.000000
# 3 -0.004625 -0.003960 0.014185 0.000000 0.000000 0.000000
# 4 0.000000 0.000000 0.000000 0.044212 0.000000 0.000000
# 5 0.000000 0.000000 0.000000 0.000000 0.011760 0.000000
# 6 0.000000 0.000000 0.000000 0.000000 0.000000 0.033695
#
#
# Mechanical properties :
#
#
# Convention : Reuss Voigt Hill
#
# Bulk Modulus (GPa) = 84.36619 86.50865 85.43742
# Shear Modulus (GPa) = 32.14714 39.86910 36.00812
#
# Velocity S-wave (km/s) = 3.83090 4.26626 4.05443
# Velocity P-wave (km/s) = 7.62119 7.98504 7.80523
#
# Compressibility (1/GPa) = 0.01185309
#
# Stress axis : x y z
#
# Youngs Moduli (GPa) = 81.32147 96.12379 70.49913
#
# Poissons Ratio (x) = 0.37789 0.32603
# Poissons Ratio (y) = 0.31970 0.27917
# Poissons Ratio (z) = 0.37607 0.38064
#
# Static dielectric constant tensor:
#      x y z
#    x 1.744530 0.000000 0.000000 
#    y 0.000000 1.846790 0.000000 
#    z 0.000000 0.000000 1.785810 
# 
# From -- ./inp_files/19017.got.cif
#   From: 2010.05.17/outbox.cif.g08.bks.cpg/sg23_10_cif.got.tgz:19017.got - 2010.06.04 12:02:01.
