data_PCOD9332508
_publ_section_title
;
Structure prediction by ZEFSAII (Michael W. Deem and Ramdas Pophale) SiO2 
 PCOD9332508
Probable space group: I 2 2 2
;
_chemical_formula_sum "Si O2"
_cell_formula_units_Z 34
_cell_length_a 7.504889
_cell_length_b 21.313859
_cell_length_c 9.219827
_cell_angle_alpha 90.000000
_cell_angle_beta 90.000000
_cell_angle_gamma 90.000000
_cell_volume 1474.786433
_symmetry_space_group_name_H-M "I 2 2 2"
_symmetry_group_IT_number 23
_symmetry_cell_setting 'orthorhombic'
loop_
_space_group_symop_operation_xyz
x,y,z
-x,-y,z
x,-y,-z
-x,y,-z
1/2+x,1/2+y,1/2+z
1/2-x,1/2-y,1/2+z
1/2+x,1/2-y,1/2-z
1/2-x,1/2+y,1/2-z
loop_
_atom_site_type_symbol
_atom_site_label
_atom_site_fract_x
_atom_site_fract_y
_atom_site_fract_z
Si Si1 0.120839 0.182985 0.620116
Si Si2 0.299637 0.067744 0.447853
Si Si3 0.174115 0.414637 0.601900
Si Si4 0.500000 0.500000 0.500000
Si Si5 0.631891 0.707224 0.628121
O O1 0.195562 0.122721 0.533955
O O2 0.274692 0.228736 0.677400
O O3 0.000000 0.217436 0.500000
O O4 0.986944 0.171930 0.751926
O O5 0.500000 0.071493 0.500000
O O6 0.331730 0.074090 0.275147
O O7 0.225899 0.000000 0.500000
O O8 0.354093 0.452640 0.566029
O O9 0.219745 0.341837 0.578509
O O10 0.000000 0.430075 0.500000
O O11 0.500000 0.724962 0.500000
#
# Coordination Sequence:
#
# PCOD9332508 Si02
#       5
#     8   8   8   2   8
#     4  12  26  49  76 114 158 209 274 337 403 487
#     4  11  29  49  81 116 160 212 267 338 411 493
#     4  12  29  52  83 117 161 212 268 338 410 488
#     4  12  30  52  82 118 160 204 278 324 408 494
#     4  12  27  47  75 113 158 215 270 334 406 481
#
# _framework density 23.054185
#
# number of rings (size 3 to 8) (size 9 to 14) (size 15 to 20)
#    0.000    0.235    3.529    3.176   16.471    0.471 
#    0.000    0.000    0.000    0.000    0.000    0.000 
#    0.000    0.000    0.000    0.000    0.000    0.000 
#
# Total GULP energy -94849.068299 kJ/mol
# GULP energy per Si atom -5579.356959 kJ/mol
# Density = 2.300171 g / cm^3
# Si number density = 23.054185 Si / 1000 Ang^3
#
#
#
# Elastic Constant Matrix: (Units=GPa)
#
#
# Indices 1 2 3 4 5 6 
#
# 1 159.0847 71.2054 85.5615 0.0004 -0.0001 0.0001
# 2 71.2054 151.3202 52.3555 0.0003 0.0000 0.0001
# 3 85.5615 52.3555 93.1308 0.0023 -0.0003 0.0007
# 4 0.0004 0.0003 0.0023 37.0903 -0.0001 0.0005
# 5 -0.0001 0.0000 -0.0003 -0.0001 43.6954 0.0000
# 6 0.0001 0.0001 0.0007 0.0005 0.0000 21.8494
#
#
#
# Elastic Compliance Matrix: (Units=1/GPa)
#
#
# Indices 1 2 3 4 5 6 
#
# 1 0.013141 -0.002491 -0.010673 0.000001 0.000000 0.000000
# 2 -0.002491 0.008676 -0.002589 0.000000 0.000000 0.000000
# 3 -0.010673 -0.002589 0.021998 -0.000001 0.000000 -0.000001
# 4 0.000001 0.000000 -0.000001 0.026961 0.000000 -0.000001
# 5 0.000000 0.000000 0.000000 0.000000 0.022886 0.000000
# 6 0.000000 0.000000 -0.000001 -0.000001 0.000000 0.045768
#
#
# Mechanical properties :
#
#
# Convention : Reuss Voigt Hill
#
# Bulk Modulus (GPa) = 81.23254 91.30895 86.27075
# Shear Modulus (GPa) = 28.56497 33.48792 31.02645
#
# Velocity S-wave (km/s) = 3.52381 3.81540 3.67250
# Velocity P-wave (km/s) = 7.20197 7.68778 7.44883
#
# Compressibility (1/GPa) = 0.01231034
#
# Stress axis : x y z
#
# Youngs Moduli (GPa) = 76.09743 115.25394 45.45810
#
# Poissons Ratio (x) = 0.28710 0.48516
# Poissons Ratio (y) = 0.18956 0.11770
# Poissons Ratio (z) = 0.81216 0.29840
#
# Static dielectric constant tensor:
#      x y z
#    x 1.756020 0.000000 0.000000 
#    y 0.000000 1.891300 0.000000 
#    z 0.000000 0.000000 2.038510 
# 
# From -- ./inp_files/6725.got.cif
#   From: 2010.05.17/outbox.cif.g08.bks.cpg/sg23_4_cif.got.tgz:6725.got - 2010.06.04 12:02:01.
