data_PCOD9332057
_publ_section_title
;
Structure prediction by ZEFSAII (Michael W. Deem and Ramdas Pophale) SiO2 
 PCOD9332057
Probable space group: I 2 2 2
;
_chemical_formula_sum "Si O2"
_cell_formula_units_Z 64
_cell_length_a 29.496604
_cell_length_b 9.700195
_cell_length_c 11.984295
_cell_angle_alpha 90.000000
_cell_angle_beta 90.000000
_cell_angle_gamma 90.000000
_cell_volume 3428.980169
_symmetry_space_group_name_H-M "I 2 2 2"
_symmetry_group_IT_number 23
_symmetry_cell_setting 'orthorhombic'
loop_
_space_group_symop_operation_xyz
x,y,z
-x,-y,z
x,-y,-z
-x,y,-z
1/2+x,1/2+y,1/2+z
1/2-x,1/2-y,1/2+z
1/2+x,1/2-y,1/2-z
1/2-x,1/2+y,1/2-z
loop_
_atom_site_type_symbol
_atom_site_label
_atom_site_fract_x
_atom_site_fract_y
_atom_site_fract_z
Si Si1 0.280220 0.406723 0.389358
Si Si2 0.946540 0.662171 0.512973
Si Si3 0.637183 0.225080 0.111746
Si Si4 0.817492 0.721892 0.616362
Si Si5 0.449042 0.442269 0.126535
Si Si6 0.810665 0.535706 0.242451
Si Si7 0.731702 0.143298 0.469788
Si Si8 0.143870 0.989310 0.285294
O O1 0.274631 0.500000 0.500000
O O2 0.236160 0.425440 0.309309
O O3 0.282890 0.247141 0.431817
O O4 0.324756 0.460447 0.322771
O O5 0.932446 0.500000 0.500000
O O6 0.915381 0.730000 0.418061
O O7 0.943115 0.774680 0.614084
O O8 0.000000 0.660335 0.500000
O O9 0.648061 0.121656 0.209290
O O10 0.657037 0.369827 0.152890
O O11 0.663026 0.170371 0.001283
O O12 0.821060 0.618485 0.718437
O O13 0.765606 0.762534 0.600741
O O14 0.844444 0.860840 0.637133
O O15 0.500000 0.500000 0.150906
O O16 0.410979 0.490348 0.215230
O O17 0.439515 0.500000 0.000000
O O18 0.804955 0.579644 0.114756
O O19 0.756913 0.000000 0.500000
#
# Coordination Sequence:
#
# PCOD9332057 Si02
#       8
#     8   8   8   8   8   8   8   8
#     4  12  24  41  56  83 119 157 209 260 303 360
#     4  11  21  34  56  86 124 156 184 239 306 367
#     4  12  22  37  56  86 116 157 197 243 296 368
#     4  12  22  36  56  85 111 154 205 245 294 364
#     4  11  19  38  59  89 122 153 193 253 308 375
#     4  12  25  39  57  78 118 162 201 253 304 355
#     4  12  25  39  57  80 115 159 206 257 303 352
#     4  12  23  35  61  84 116 158 204 241 308 371
#
# _framework density 18.664441
#
# number of rings (size 3 to 8) (size 9 to 14) (size 15 to 20)
#    0.000    0.250    7.500    3.750    0.000    0.000 
#    0.000    0.000    0.000    0.375    0.000    0.000 
#    0.000    0.000    0.000    0.000    0.000    0.000 
#
# Total GULP energy -178218.530173 kJ/mol
# GULP energy per Si atom -5569.329068 kJ/mol
# Density = 1.862196 g / cm^3
# Si number density = 18.664441 Si / 1000 Ang^3
#
#
#
# Elastic Constant Matrix: (Units=GPa)
#
#
# Indices 1 2 3 4 5 6 
#
# 1 77.6809 13.8210 19.1435 0.0000 0.0000 0.0000
# 2 13.8210 116.0542 17.3167 0.0000 0.0000 0.0000
# 3 19.1435 17.3167 42.4289 0.0000 0.0000 0.0000
# 4 0.0000 0.0000 0.0000 24.1580 0.0000 0.0000
# 5 0.0000 0.0000 0.0000 0.0000 16.3912 0.0000
# 6 0.0000 0.0000 0.0000 0.0000 0.0000 19.9647
#
#
#
# Elastic Compliance Matrix: (Units=1/GPa)
#
#
# Indices 1 2 3 4 5 6 
#
# 1 0.014553 -0.000802 -0.006239 0.000000 0.000000 0.000000
# 2 -0.000802 0.009220 -0.003401 0.000000 0.000000 0.000000
# 3 -0.006239 -0.003401 0.027772 0.000000 0.000000 0.000000
# 4 0.000000 0.000000 0.000000 0.041394 0.000000 0.000000
# 5 0.000000 0.000000 0.000000 0.000000 0.061008 0.000000
# 6 0.000000 0.000000 0.000000 0.000000 0.000000 0.050089
#
#
# Mechanical properties :
#
#
# Convention : Reuss Voigt Hill
#
# Bulk Modulus (GPa) = 32.61500 37.41404 35.01452
# Shear Modulus (GPa) = 21.26392 24.49498 22.87945
#
# Velocity S-wave (km/s) = 3.37898 3.62662 3.50498
# Velocity P-wave (km/s) = 5.72151 6.13397 5.93133
#
# Compressibility (1/GPa) = 0.03066074
#
# Stress axis : x y z
#
# Youngs Moduli (GPa) = 68.71242 108.46393 36.00774
#
# Poissons Ratio (x) = 0.08702 0.22465
# Poissons Ratio (y) = 0.05512 0.12246
# Poissons Ratio (z) = 0.42869 0.36887
#
# Static dielectric constant tensor:
#      x y z
#    x 1.671160 0.000000 0.000000 
#    y 0.000000 1.766700 0.000000 
#    z 0.000000 0.000000 1.682990 
# 
# From -- ./inp_files/18828.got.cif
#   From: 2010.05.17/outbox.cif.g08.bks.cpg/sg23_10_cif.got.tgz:18828.got - 2010.06.04 12:02:01.
