data_PCOD9332292
_publ_section_title
;
Structure prediction by ZEFSAII (Michael W. Deem and Ramdas Pophale) SiO2 
 PCOD9332292
Probable space group: I 2 2 2
;
_chemical_formula_sum "Si O2"
_cell_formula_units_Z 26
_cell_length_a 14.262628
_cell_length_b 5.051001
_cell_length_c 16.302565
_cell_angle_alpha 90.000000
_cell_angle_beta 90.000000
_cell_angle_gamma 90.000000
_cell_volume 1174.445721
_symmetry_space_group_name_H-M "I 2 2 2"
_symmetry_group_IT_number 23
_symmetry_cell_setting 'orthorhombic'
loop_
_space_group_symop_operation_xyz
x,y,z
-x,-y,z
x,-y,-z
-x,y,-z
1/2+x,1/2+y,1/2+z
1/2-x,1/2-y,1/2+z
1/2+x,1/2-y,1/2-z
1/2-x,1/2+y,1/2-z
loop_
_atom_site_type_symbol
_atom_site_label
_atom_site_fract_x
_atom_site_fract_y
_atom_site_fract_z
Si Si1 0.147126 0.141216 0.586755
Si Si2 0.000000 0.500000 0.816052
Si Si3 0.500000 0.500000 0.793929
Si Si4 0.000000 0.500000 0.500000
Si Si5 0.350237 0.248390 0.560179
O O1 0.248334 0.268175 0.604572
O O2 0.094157 0.953350 0.651470
O O3 0.067580 0.346220 0.561403
O O4 0.161840 0.000000 0.500000
O O5 0.030939 0.257022 0.758173
O O6 0.926479 0.341565 0.873294
O O7 0.367731 0.500000 0.500000
O O8 0.349919 0.000000 0.500000
#
# Coordination Sequence:
#
# PCOD9332292 Si02
#       5
#     8   4   4   2   8
#     4  11  23  39  72 105 136 186 243 303 371 442
#     4  12  28  44  65 101 144 198 230 294 382 428
#     4  12  25  42  67 102 154 182 222 304 377 462
#     4  12  16  40  68 108 138 170 242 306 382 420
#     4  11  25  46  73  99 132 188 257 305 346 436
#
# _framework density 22.138102
#
# number of rings (size 3 to 8) (size 9 to 14) (size 15 to 20)
#    0.000    0.615    4.615    3.231    0.000    3.692 
#    0.000    0.000    0.000    0.000    0.000    0.000 
#    0.000    0.000    0.000    0.000    0.000    0.000 
#
# Total GULP energy -72442.998596 kJ/mol
# GULP energy per Si atom -5572.538354 kJ/mol
# Density = 2.208771 g / cm^3
# Si number density = 22.138102 Si / 1000 Ang^3
#
#
#
# Elastic Constant Matrix: (Units=GPa)
#
#
# Indices 1 2 3 4 5 6 
#
# 1 138.5036 28.6511 55.0663 0.0000 0.0000 0.0000
# 2 28.6511 129.3730 31.2869 0.0000 0.0000 0.0000
# 3 55.0663 31.2869 88.1870 0.0000 0.0000 0.0000
# 4 0.0000 0.0000 0.0000 45.4370 0.0000 0.0000
# 5 0.0000 0.0000 0.0000 0.0000 -75.2594 0.0000
# 6 0.0000 0.0000 0.0000 0.0000 0.0000 -15.1531
#
#
#
# Elastic Compliance Matrix: (Units=1/GPa)
#
#
# Indices 1 2 3 4 5 6 
#
# 1 0.009670 -0.000745 -0.005774 0.000000 0.000000 0.000000
# 2 -0.000745 0.008512 -0.002555 0.000000 0.000000 0.000000
# 3 -0.005774 -0.002555 0.015851 0.000000 0.000000 0.000000
# 4 0.000000 0.000000 0.000000 0.022009 0.000000 0.000000
# 5 0.000000 0.000000 0.000000 0.000000 -0.013287 0.000000
# 6 0.000000 0.000000 0.000000 0.000000 0.000000 -0.065993
#
#
# Mechanical properties :
#
#
# Convention : Reuss Voigt Hill
#
# Bulk Modulus (GPa) = 62.94790 65.11913 64.03351
# Shear Modulus (GPa) = 24553.86299 7.07551 12280.46925
#
# Velocity S-wave (km/s) = 105.42913 1.78970 74.56039
# Velocity P-wave (km/s) = 121.85605 5.80943 86.26311
#
# Compressibility (1/GPa) = 0.01588615
#
# Stress axis : x y z
#
# Youngs Moduli (GPa) = 103.41631 117.47513 63.08709
#
# Poissons Ratio (x) = 0.08754 0.36424
# Poissons Ratio (y) = 0.07707 0.16117
# Poissons Ratio (z) = 0.59709 0.30012
#
# Static dielectric constant tensor:
#      x y z
#    x 2.068690 0.000000 0.000000 
#    y 0.000000 1.902280 0.000000 
#    z 0.000000 0.000000 1.810060 
# 
# From -- ./inp_files/2029.got.cif
#   From: 2010.05.17/outbox.cif.g08.bks.cpg/sg23_2_cif.got.tgz:2029.got - 2010.06.04 12:02:01.
