data_PCOD9332156
_publ_section_title
;
Structure prediction by ZEFSAII (Michael W. Deem and Ramdas Pophale) SiO2 
 PCOD9332156
Probable space group: I 2 2 2
;
_chemical_formula_sum "Si O2"
_cell_formula_units_Z 56
_cell_length_a 10.638018
_cell_length_b 22.136091
_cell_length_c 11.860836
_cell_angle_alpha 90.000000
_cell_angle_beta 90.000000
_cell_angle_gamma 90.000000
_cell_volume 2793.038700
_symmetry_space_group_name_H-M "I 2 2 2"
_symmetry_group_IT_number 23
_symmetry_cell_setting 'orthorhombic'
loop_
_space_group_symop_operation_xyz
x,y,z
-x,-y,z
x,-y,-z
-x,y,-z
1/2+x,1/2+y,1/2+z
1/2-x,1/2-y,1/2+z
1/2+x,1/2-y,1/2-z
1/2-x,1/2+y,1/2-z
loop_
_atom_site_type_symbol
_atom_site_label
_atom_site_fract_x
_atom_site_fract_y
_atom_site_fract_z
Si Si1 0.145932 0.303476 0.025494
Si Si2 0.068857 0.305065 0.666347
Si Si3 0.294429 0.813729 0.056166
Si Si4 0.726484 0.876913 0.335980
Si Si5 0.000916 0.828644 0.364463
Si Si6 0.650598 0.005456 0.367226
Si Si7 0.758514 0.128544 0.277959
O O1 0.184830 0.316692 0.154924
O O2 0.224779 0.250304 0.963980
O O3 0.190466 0.365073 0.965938
O O4 0.000000 0.292813 0.000000
O O5 0.169020 0.327833 0.572421
O O6 0.115621 0.340768 0.773614
O O7 0.060349 0.233071 0.685374
O O8 0.930862 0.314202 0.615804
O O9 0.222645 0.855109 0.146014
O O10 0.863868 0.847213 0.320349
O O11 0.715833 0.947198 0.310151
O O12 0.104519 0.877602 0.333731
O O13 0.000000 0.819705 0.500000
O O14 0.686514 0.066890 0.303718
O O15 0.500000 0.000000 0.361507
O O16 0.685419 0.000000 0.500000
#
# Coordination Sequence:
#
# PCOD9332156 Si02
#       7
#     8   8   8   8   8   8   8
#     4  12  22  37  60  92 122 164 212 264 329 384
#     4  11  21  40  61  90 131 167 209 264 328 387
#     4  11  23  40  60  92 130 168 208 271 324 388
#     4  12  24  39  66  96 127 173 216 265 327 397
#     4  12  21  41  62  95 133 165 209 271 335 387
#     4  11  22  41  63  93 128 167 219 272 318 383
#     4  12  24  40  63  90 127 172 210 266 327 383
#
# _framework density 20.049847
#
# number of rings (size 3 to 8) (size 9 to 14) (size 15 to 20)
#    0.000    0.429    7.143    3.429    0.000    2.857 
#    0.000    2.143    0.000    2.571    0.000    2.000 
#    0.000    0.000    0.000    0.000    0.000    0.000 
#
# Total GULP energy -156093.741499 kJ/mol
# GULP energy per Si atom -5574.776482 kJ/mol
# Density = 2.000421 g / cm^3
# Si number density = 20.049847 Si / 1000 Ang^3
#
#
#
# Elastic Constant Matrix: (Units=GPa)
#
#
# Indices 1 2 3 4 5 6 
#
# 1 91.4442 25.6760 5.4203 0.0001 0.0000 0.0000
# 2 25.6760 105.8125 33.4721 0.0006 -0.0001 -0.0001
# 3 5.4203 33.4721 62.1008 0.0001 0.0002 0.0001
# 4 0.0001 0.0006 0.0001 13.5102 -0.0001 0.0000
# 5 0.0000 -0.0001 0.0002 -0.0001 27.2588 0.0000
# 6 0.0000 -0.0001 0.0001 0.0000 0.0000 26.6404
#
#
#
# Elastic Compliance Matrix: (Units=1/GPa)
#
#
# Indices 1 2 3 4 5 6 
#
# 1 0.011755 -0.003047 0.000617 0.000000 0.000000 0.000000
# 2 -0.003047 0.012183 -0.006301 0.000000 0.000000 0.000000
# 3 0.000617 -0.006301 0.019445 0.000000 0.000000 0.000000
# 4 0.000000 0.000000 0.000000 0.074018 0.000000 0.000000
# 5 0.000000 0.000000 0.000000 0.000000 0.036685 0.000000
# 6 0.000000 0.000000 0.000000 0.000000 0.000000 0.037537
#
#
# Mechanical properties :
#
#
# Convention : Reuss Voigt Hill
#
# Bulk Modulus (GPa) = 38.58031 43.16602 40.87317
# Shear Modulus (GPa) = 22.96456 26.46782 24.71619
#
# Velocity S-wave (km/s) = 3.38801 3.63726 3.51484
# Velocity P-wave (km/s) = 5.88122 6.26224 6.07472
#
# Compressibility (1/GPa) = 0.02591996
#
# Stress axis : x y z
#
# Youngs Moduli (GPa) = 85.07205 82.07968 51.42675
#
# Poissons Ratio (x) = 0.25013 -0.03171
# Poissons Ratio (y) = 0.25925 0.32403
# Poissons Ratio (z) = -0.05245 0.51716
#
# Static dielectric constant tensor:
#      x y z
#    x 1.780290 0.000000 0.000000 
#    y 0.000000 1.730060 0.000000 
#    z 0.000000 0.000000 1.764120 
# 
# From -- ./inp_files/15926.got.cif
#   From: 2010.05.17/outbox.cif.g08.bks.cpg/sg23_8_cif.got.tgz:15926.got - 2010.06.04 12:02:01.
