data_PCOD9332061
_publ_section_title
;
Structure prediction by ZEFSAII (Michael W. Deem and Ramdas Pophale) SiO2 
 PCOD9332061
Probable space group: I 2 2 2
;
_chemical_formula_sum "Si O2"
_cell_formula_units_Z 38
_cell_length_a 11.194685
_cell_length_b 5.445617
_cell_length_c 26.427989
_cell_angle_alpha 90.000000
_cell_angle_beta 90.000000
_cell_angle_gamma 90.000000
_cell_volume 1611.102192
_symmetry_space_group_name_H-M "I 2 2 2"
_symmetry_group_IT_number 23
_symmetry_cell_setting 'orthorhombic'
loop_
_space_group_symop_operation_xyz
x,y,z
-x,-y,z
x,-y,-z
-x,y,-z
1/2+x,1/2+y,1/2+z
1/2-x,1/2-y,1/2+z
1/2+x,1/2-y,1/2-z
1/2-x,1/2+y,1/2-z
loop_
_atom_site_type_symbol
_atom_site_label
_atom_site_fract_x
_atom_site_fract_y
_atom_site_fract_z
Si Si1 0.000000 0.000000 0.000000
Si Si2 0.922808 0.787556 0.314918
Si Si3 0.656135 0.222593 0.644974
Si Si4 0.336697 0.269716 0.583457
Si Si5 0.500000 0.000000 0.271692
Si Si6 0.054423 0.746723 0.422449
O O1 0.084099 0.166521 0.035138
O O2 0.792834 0.826804 0.337871
O O3 0.904823 0.597711 0.269292
O O4 0.010940 0.740522 0.363158
O O5 0.000000 0.000000 0.288761
O O6 0.647708 0.492482 0.620399
O O7 0.566408 0.188273 0.691480
O O8 0.631956 0.994224 0.607207
O O9 0.195674 0.258981 0.572232
O O10 0.000000 0.500000 0.444707
O O11 0.000000 0.000000 0.442172
#
# Coordination Sequence:
#
# PCOD9332061 Si02
#       6
#     2   8   8   8   4   8
#     4  12  32  50  86 110 156 186 256 320 400 494
#     4  11  23  41  66 102 142 200 250 305 348 438
#     4  12  27  45  74 100 157 197 250 307 376 451
#     4  12  25  51  72 108 140 200 244 313 393 459
#     4  12  28  38  64 109 154 205 254 304 358 430
#     4  11  19  42  72 101 136 190 237 297 365 433
#
# _framework density 23.586338999999999
#
# number of rings (size 3 to 8) (size 9 to 14) (size 15 to 20)
#    0.000    0.421    7.368    1.263    5.895    1.684 
#    0.000    0.526    0.000    2.526    0.000    0.000 
#    0.000    0.000    0.000    0.000    0.000    0.000 
#
# Total GULP energy -106172.511921 kJ/mol
# GULP energy per Si atom -5588.026943 kJ/mol
# Density = 2.353266 g / cm^3
# Si number density = 23.586339 Si / 1000 Ang^3
#
#
#
# Elastic Constant Matrix: (Units=GPa)
#
#
# Indices 1 2 3 4 5 6 
#
# 1 175.7090 6.1777 45.0488 0.0000 0.0000 0.0000
# 2 6.1777 107.1966 9.0500 0.0000 0.0000 0.0000
# 3 45.0488 9.0500 103.4061 0.0000 0.0000 0.0000
# 4 0.0000 0.0000 0.0000 28.3265 0.0000 0.0000
# 5 0.0000 0.0000 0.0000 0.0000 13.1646 0.0000
# 6 0.0000 0.0000 0.0000 0.0000 0.0000 16.1485
#
#
#
# Elastic Compliance Matrix: (Units=1/GPa)
#
#
# Indices 1 2 3 4 5 6 
#
# 1 0.006409 -0.000135 -0.002780 0.000000 0.000000 0.000000
# 2 -0.000135 0.009401 -0.000764 0.000000 0.000000 0.000000
# 3 -0.002780 -0.000764 0.010949 0.000000 0.000000 0.000000
# 4 0.000000 0.000000 0.000000 0.035303 0.000000 0.000000
# 5 0.000000 0.000000 0.000000 0.000000 0.075961 0.000000
# 6 0.000000 0.000000 0.000000 0.000000 0.000000 0.061925
#
#
# Mechanical properties :
#
#
# Convention : Reuss Voigt Hill
#
# Bulk Modulus (GPa) = 51.54506 56.31831 53.93168
# Shear Modulus (GPa) = 23.38940 33.26361 28.32651
#
# Velocity S-wave (km/s) = 3.15246 3.75946 3.46926
# Velocity P-wave (km/s) = 5.92891 6.54019 6.24203
#
# Compressibility (1/GPa) = 0.01940050
#
# Stress axis : x y z
#
# Youngs Moduli (GPa) = 156.03664 106.37257 91.33530
#
# Poissons Ratio (x) = 0.01432 0.25393
# Poissons Ratio (y) = 0.02100 0.06979
# Poissons Ratio (z) = 0.43381 0.08128
#
# Static dielectric constant tensor:
#      x y z
#    x 1.865910 0.000000 0.000000 
#    y 0.000000 1.764320 0.000000 
#    z 0.000000 0.000000 1.867910 
# 
# From -- ./inp_files/29369.got.cif
#   From: 2010.05.17/outbox.cif.g08.bks.cpg/sg23_15_cif.got.tgz:29369.got - 2010.06.04 12:02:01.
