data_PCOD9332888
_publ_section_title
;
Structure prediction by ZEFSAII (Michael W. Deem and Ramdas Pophale) SiO2 
 PCOD9332888
Probable space group: I 21 21 21
;
_chemical_formula_sum "Si O2"
_cell_formula_units_Z 40
_cell_length_a 15.504537
_cell_length_b 8.401725
_cell_length_c 13.405688
_cell_angle_alpha 90.000000
_cell_angle_beta 90.000000
_cell_angle_gamma 90.000000
_cell_volume 1746.290019
_symmetry_space_group_name_H-M "I 21 21 21"
_symmetry_group_IT_number 24
_symmetry_cell_setting 'orthorhombic'
loop_
_space_group_symop_operation_xyz
x,y,z
-x,1/2-y,z
x,-y,1/2-z
1/2-x,y,-z
1/2+x,1/2+y,1/2+z
1/2-x,-y,1/2+z
1/2+x,1/2-y,-z
-x,1/2+y,1/2-z
loop_
_atom_site_type_symbol
_atom_site_label
_atom_site_fract_x
_atom_site_fract_y
_atom_site_fract_z
Si Si1 0.997161 0.935635 0.521513
Si Si2 0.248125 0.756794 0.378208
Si Si3 0.428884 0.349110 0.807626
Si Si4 0.678820 0.574397 0.088747
Si Si5 0.183237 0.428711 0.594502
O O1 0.913760 0.028137 0.561475
O O2 0.000000 0.250000 0.940723
O O3 0.084385 0.029904 0.545896
O O4 0.979154 0.915322 0.404018
O O5 0.250000 0.753363 0.500000
O O6 0.150069 0.757463 0.342800
O O7 0.287779 0.587530 0.347746
O O8 0.295497 0.917951 0.349371
O O9 0.500000 0.250000 0.747358
O O10 0.394215 0.500000 0.750000
O O11 0.682375 0.749680 0.136763
O O12 0.750000 0.581145 0.000000
O O13 0.250000 0.422047 0.500000
#
# Coordination Sequence:
#
# PCOD9332888 Si02
#       5
#     8   8   8   8   8
#     4  11  18  33  56  78 125 159 191 253 312 359
#     4  10  17  38  55  74 115 153 203 255 290 344
#     4  11  23  38  55  83 127 173 199 240 309 381
#     4  10  19  29  52  82 108 148 199 250 299 346
#     4  10  18  31  51  83 107 147 196 253 300 347
#
# _framework density 22.905702000000002
#
# number of rings (size 3 to 8) (size 9 to 14) (size 15 to 20)
#    0.000    1.600    6.000    4.200    0.000    1.600 
#    3.600    0.000    0.000    0.000    0.000    0.000 
#   12.000    0.000    0.000    0.000    0.000    0.000 
#
# Total GULP energy -111634.605447 kJ/mol
# GULP energy per Si atom -5581.730272 kJ/mol
# Density = 2.285357 g / cm^3
# Si number density = 22.905702 Si / 1000 Ang^3
#
#
#
# Elastic Constant Matrix: (Units=GPa)
#
#
# Indices 1 2 3 4 5 6 
#
# 1 188.7262 57.9920 18.9002 0.0000 0.0000 0.0000
# 2 57.9920 239.0950 38.1193 0.0000 0.0000 0.0000
# 3 18.9002 38.1193 33.5894 0.0000 0.0000 0.0000
# 4 0.0000 0.0000 0.0000 -7.3033 0.0000 0.0000
# 5 0.0000 0.0000 0.0000 0.0000 -1.9664 0.0000
# 6 0.0000 0.0000 0.0000 0.0000 0.0000 26.3117
#
#
#
# Elastic Compliance Matrix: (Units=1/GPa)
#
#
# Indices 1 2 3 4 5 6 
#
# 1 0.005839 -0.001089 -0.002049 0.000000 0.000000 0.000000
# 2 -0.001089 0.005310 -0.005413 0.000000 0.000000 0.000000
# 3 -0.002049 -0.005413 0.037067 0.000000 0.000000 0.000000
# 4 0.000000 0.000000 0.000000 -0.136924 0.000000 0.000000
# 5 0.000000 0.000000 0.000000 0.000000 -0.508555 0.000000
# 6 0.000000 0.000000 0.000000 0.000000 0.000000 0.038006
#
#
# Mechanical properties :
#
#
# Convention : Reuss Voigt Hill
#
# Bulk Modulus (GPa) = 32.14092 76.82595 54.48344
# Shear Modulus (GPa) = -9.40231 26.50168 8.54969
#
# Velocity S-wave (km/s) = -2.02823 3.40515 1.93408
# Velocity P-wave (km/s) = 2.92871 7.00521 5.36891
#
# Compressibility (1/GPa) = 0.03111299
#
# Stress axis : x y z
#
# Youngs Moduli (GPa) = 171.27247 188.33668 26.97834
#
# Poissons Ratio (x) = 0.20519 0.05528
# Poissons Ratio (y) = 0.18660 0.14602
# Poissons Ratio (z) = 0.35092 1.01940
#
# Static dielectric constant tensor:
#      x y z
#    x 1.870460 0.000000 0.000000 
#    y 0.000000 1.928800 0.000000 
#    z 0.000000 0.000000 1.877920 
# 
# From -- ./inp_files/12301.got.cif
#   From: 2010.05.17/outbox.cif.g08.bks.cpg/sg24_7_cif.got.tgz:12301.got - 2010.06.04 00:33:39.
