data_PCOD9332751
_publ_section_title
;
Structure prediction by ZEFSAII (Michael W. Deem and Ramdas Pophale) SiO2 
 PCOD9332751
Probable space group: I 21 21 21
;
_chemical_formula_sum "Si O2"
_cell_formula_units_Z 56
_cell_length_a 18.118210
_cell_length_b 19.475496
_cell_length_c 6.864177
_cell_angle_alpha 90.000000
_cell_angle_beta 90.000000
_cell_angle_gamma 90.000000
_cell_volume 2422.101228
_symmetry_space_group_name_H-M "I 21 21 21"
_symmetry_group_IT_number 24
_symmetry_cell_setting 'orthorhombic'
loop_
_space_group_symop_operation_xyz
x,y,z
-x,1/2-y,z
x,-y,1/2-z
1/2-x,y,-z
1/2+x,1/2+y,1/2+z
1/2-x,-y,1/2+z
1/2+x,1/2-y,-z
-x,1/2+y,1/2-z
loop_
_atom_site_type_symbol
_atom_site_label
_atom_site_fract_x
_atom_site_fract_y
_atom_site_fract_z
Si Si1 0.991207 0.907199 0.541068
Si Si2 0.815277 0.712302 0.144271
Si Si3 0.918227 0.782547 0.664065
Si Si4 0.167887 0.080221 0.575487
Si Si5 0.562463 0.807970 0.887801
Si Si6 0.010968 0.943663 0.001014
Si Si7 0.651255 0.646894 0.473393
O O1 0.004527 0.918557 0.775552
O O2 0.068842 0.877319 0.462547
O O3 0.973226 0.983098 0.469056
O O4 0.974260 0.883015 0.127458
O O5 0.865343 0.775159 0.211297
O O6 0.800465 0.664962 0.335559
O O7 0.750000 0.734433 0.000000
O O8 0.854626 0.655927 0.006456
O O9 0.926998 0.850477 0.532842
O O10 0.861482 0.722378 0.618756
O O11 0.000000 0.750000 0.647804
O O12 0.910989 0.804094 0.887305
O O13 0.250000 0.063249 0.500000
O O14 0.098832 0.039259 0.488955
O O15 0.170343 0.090063 0.808862
O O16 0.500000 0.750000 0.854888
#
# Coordination Sequence:
#
# PCOD9332751 Si02
#       7
#     8   8   8   8   8   8   8
#     4   8  16  30  58  89 114 152 194 231 288 338
#     4  11  23  35  56  83 113 148 196 233 291 337
#     4   8  14  29  53  83 113 140 181 241 288 330
#     4  10  20  36  57  79 115 154 194 232 284 334
#     4  10  16  32  56  82 110 150 186 238 289 329
#     4   9  16  32  59  85 118 153 192 236 279 345
#     4  10  19  36  58  80 116 151 191 245 284 335
#
# _framework density 23.120418999999998
#
# number of rings (size 3 to 8) (size 9 to 14) (size 15 to 20)
#    0.000    2.571    2.857    1.714    0.000    4.000 
#    0.000    0.714   25.143    0.000    0.000    8.000 
#    0.000    0.000    0.000    0.000    0.000    0.000 
#
# Total GULP energy -156139.808958 kJ/mol
# GULP energy per Si atom -5576.421748 kJ/mol
# Density = 2.306780 g / cm^3
# Si number density = 23.120419 Si / 1000 Ang^3
#
#
#
# Elastic Constant Matrix: (Units=GPa)
#
#
# Indices 1 2 3 4 5 6 
#
# 1 28.6818 8.5265 12.5680 0.0000 0.0000 0.0000
# 2 8.5265 108.3425 2.6921 0.0000 0.0000 0.0000
# 3 12.5680 2.6921 98.9816 0.0000 0.0000 0.0000
# 4 0.0000 0.0000 0.0000 31.2814 0.0000 0.0000
# 5 0.0000 0.0000 0.0000 0.0000 27.0060 0.0000
# 6 0.0000 0.0000 0.0000 0.0000 0.0000 28.1330
#
#
#
# Elastic Compliance Matrix: (Units=1/GPa)
#
#
# Indices 1 2 3 4 5 6 
#
# 1 0.037782 -0.002856 -0.004720 0.000000 0.000000 0.000000
# 2 -0.002856 0.009452 0.000106 0.000000 0.000000 0.000000
# 3 -0.004720 0.000106 0.010699 0.000000 0.000000 0.000000
# 4 0.000000 0.000000 0.000000 0.031968 0.000000 0.000000
# 5 0.000000 0.000000 0.000000 0.000000 0.037029 0.000000
# 6 0.000000 0.000000 0.000000 0.000000 0.000000 0.035545
#
#
# Mechanical properties :
#
#
# Convention : Reuss Voigt Hill
#
# Bulk Modulus (GPa) = 23.25943 31.50880 27.38412
# Shear Modulus (GPa) = 26.07594 31.43204 28.75399
#
# Velocity S-wave (km/s) = 3.36196 3.69113 3.53039
# Velocity P-wave (km/s) = 5.01521 5.64124 5.33742
#
# Compressibility (1/GPa) = 0.04299331
#
# Stress axis : x y z
#
# Youngs Moduli (GPa) = 26.46732 105.79605 93.46420
#
# Poissons Ratio (x) = 0.30217 0.44112
# Poissons Ratio (y) = 0.07560 -0.00987
# Poissons Ratio (z) = 0.12492 -0.01117
#
# Static dielectric constant tensor:
#      x y z
#    x 1.884320 0.000000 0.000000 
#    y 0.000000 1.887290 0.000000 
#    z 0.000000 0.000000 2.027530 
# 
# From -- ./inp_files/6640.got.cif
#   From: 2010.05.17/outbox.cif.g08.bks.cpg/sg24_4_cif.got.tgz:6640.got - 2010.06.04 00:33:39.
