data_PCOD9332769
_publ_section_title
;
Structure prediction by ZEFSAII (Michael W. Deem and Ramdas Pophale) SiO2 
 PCOD9332769
Probable space group: I 21 21 21
;
_chemical_formula_sum "Si O2"
_cell_formula_units_Z 32
_cell_length_a 14.025097
_cell_length_b 7.779561
_cell_length_c 12.178837
_cell_angle_alpha 90.000000
_cell_angle_beta 90.000000
_cell_angle_gamma 90.000000
_cell_volume 1328.821915
_symmetry_space_group_name_H-M "I 21 21 21"
_symmetry_group_IT_number 24
_symmetry_cell_setting 'orthorhombic'
loop_
_space_group_symop_operation_xyz
x,y,z
-x,1/2-y,z
x,-y,1/2-z
1/2-x,y,-z
1/2+x,1/2+y,1/2+z
1/2-x,-y,1/2+z
1/2+x,1/2-y,-z
-x,1/2+y,1/2-z
loop_
_atom_site_type_symbol
_atom_site_label
_atom_site_fract_x
_atom_site_fract_y
_atom_site_fract_z
Si Si1 0.567235 0.511159 0.026897
Si Si2 0.000000 0.750000 0.786040
Si Si3 0.604651 0.317152 0.695523
Si Si4 0.737106 0.000000 0.750000
Si Si5 0.875519 0.143000 0.916172
O O1 0.557926 0.618942 0.138337
O O2 0.629928 0.337636 0.037795
O O3 0.456152 0.450662 0.010027
O O4 0.601573 0.637191 0.932992
O O5 0.073847 0.668733 0.702294
O O6 0.500000 0.250000 0.728834
O O7 0.625605 0.500000 0.750000
O O8 0.677434 0.171667 0.729563
O O9 0.786908 0.963156 0.629614
#
# Coordination Sequence:
#
# PCOD9332769 Si02
#       5
#     8   4   8   4   8
#     4  10  21  42  77 110 149 195 253 310 420 458
#     4  10  16  38  72 112 148 184 242 324 410 442
#     4  12  28  50  76 101 154 218 260 316 403 487
#     4  12  26  50  78 112 158 202 274 330 384 466
#     4  10  21  42  75 112 149 186 256 339 378 461
#
# _framework density 24.081479000000002
#
# number of rings (size 3 to 8) (size 9 to 14) (size 15 to 20)
#    0.000    1.500    5.000    2.250    3.500    2.000 
#    0.000   16.250    0.000    0.000    0.000    0.000 
#    0.000    0.000    0.000    0.000    0.000    0.000 
#
# Total GULP energy -89405.958151 kJ/mol
# GULP energy per Si atom -5587.872384 kJ/mol
# Density = 2.402667 g / cm^3
# Si number density = 24.081479 Si / 1000 Ang^3
#
#
#
# Elastic Constant Matrix: (Units=GPa)
#
#
# Indices 1 2 3 4 5 6 
#
# 1 58.9491 38.8338 5.0575 0.0000 0.0000 0.0000
# 2 38.8338 153.6401 18.3374 0.0000 0.0000 0.0000
# 3 5.0575 18.3374 68.9917 0.0000 0.0000 0.0000
# 4 0.0000 0.0000 0.0000 19.4170 0.0000 0.0000
# 5 0.0000 0.0000 0.0000 0.0000 16.5427 0.0000
# 6 0.0000 0.0000 0.0000 0.0000 0.0000 35.0550
#
#
#
# Elastic Compliance Matrix: (Units=1/GPa)
#
#
# Indices 1 2 3 4 5 6 
#
# 1 0.020354 -0.005129 -0.000129 0.000000 0.000000 0.000000
# 2 -0.005129 0.008015 -0.001754 0.000000 0.000000 0.000000
# 3 -0.000129 -0.001754 0.014970 0.000000 0.000000 0.000000
# 4 0.000000 0.000000 0.000000 0.051501 0.000000 0.000000
# 5 0.000000 0.000000 0.000000 0.000000 0.060450 0.000000
# 6 0.000000 0.000000 0.000000 0.000000 0.000000 0.028527
#
#
# Mechanical properties :
#
#
# Convention : Reuss Voigt Hill
#
# Bulk Modulus (GPa) = 34.11316 45.11537 39.61427
# Shear Modulus (GPa) = 24.08341 28.82641 26.45491
#
# Velocity S-wave (km/s) = 3.16583 3.46357 3.31805
# Velocity P-wave (km/s) = 5.24975 5.89663 5.58257
#
# Compressibility (1/GPa) = 0.02931420
#
# Stress axis : x y z
#
# Youngs Moduli (GPa) = 49.13089 124.77318 66.79947
#
# Poissons Ratio (x) = 0.63999 0.00860
# Poissons Ratio (y) = 0.25200 0.11718
# Poissons Ratio (z) = 0.00632 0.21888
#
# Static dielectric constant tensor:
#      x y z
#    x 2.298170 0.000000 0.000000 
#    y 0.000000 1.617270 0.000000 
#    z 0.000000 0.000000 1.941200 
# 
# From -- ./inp_files/20413.got.cif
#   From: 2010.05.17/outbox.cif.g08.bks.cpg/sg24_11_cif.got.tgz:20413.got - 2010.06.04 00:33:39.
