data_PCOD9332524
_publ_section_title
;
Structure prediction by ZEFSAII (Michael W. Deem and Ramdas Pophale) SiO2 
 PCOD9332524
Probable space group: I 2 2 2
;
_chemical_formula_sum "Si O2"
_cell_formula_units_Z 40
_cell_length_a 7.928302
_cell_length_b 18.981786
_cell_length_c 11.734427
_cell_angle_alpha 90.000000
_cell_angle_beta 90.000000
_cell_angle_gamma 90.000000
_cell_volume 1765.953017
_symmetry_space_group_name_H-M "I 2 2 2"
_symmetry_group_IT_number 23
_symmetry_cell_setting 'orthorhombic'
loop_
_space_group_symop_operation_xyz
x,y,z
-x,-y,z
x,-y,-z
-x,y,-z
1/2+x,1/2+y,1/2+z
1/2-x,1/2-y,1/2+z
1/2+x,1/2-y,1/2-z
1/2-x,1/2+y,1/2-z
loop_
_atom_site_type_symbol
_atom_site_label
_atom_site_fract_x
_atom_site_fract_y
_atom_site_fract_z
Si Si1 0.301931 0.515702 0.661372
Si Si2 0.500000 0.623878 0.000000
Si Si3 0.000000 0.500000 0.000000
Si Si4 0.271457 0.091999 0.339156
Si Si5 0.500000 0.000000 0.000000
Si Si6 0.539674 0.770148 0.365483
Si Si7 0.300422 0.341291 0.208619
O O1 0.500000 0.500000 0.626149
O O2 0.241717 0.442156 0.716281
O O3 0.145141 0.538043 0.578105
O O4 0.298260 0.576815 0.756564
O O5 0.396440 0.578712 0.089532
O O6 0.620636 0.667533 0.083031
O O7 0.092692 0.552269 0.085390
O O8 0.309330 0.174437 0.344096
O O9 0.500000 0.762616 0.500000
O O10 0.589625 0.698046 0.304087
O O11 0.382575 0.806861 0.302143
#
# Coordination Sequence:
#
# PCOD9332524 Si02
#       7
#     8   4   2   8   2   8   8
#     4  12  27  49  79 110 153 205 265 322 385 469
#     4  12  22  45  77 108 145 185 248 324 384 453
#     4  12  22  34  72 106 152 182 240 324 390 446
#     4  12  23  44  73 111 145 192 253 324 390 450
#     4  12  28  52  74 108 158 208 260 318 382 462
#     4  12  26  48  72 107 158 202 251 316 393 468
#     4  12  27  48  73 114 146 202 255 315 392 471
#
# _framework density 22.650659000000001
#
# number of rings (size 3 to 8) (size 9 to 14) (size 15 to 20)
#    0.000    0.000    5.000    5.700    0.000    2.400 
#    3.600    1.000    0.000    0.000    0.000    0.000 
#    0.000    0.000    0.000    0.000    0.000    0.000 
#
# Total GULP energy -111640.966099 kJ/mol
# GULP energy per Si atom -5582.048305 kJ/mol
# Density = 2.259911 g / cm^3
# Si number density = 22.650659 Si / 1000 Ang^3
#
#
#
# Elastic Constant Matrix: (Units=GPa)
#
#
# Indices 1 2 3 4 5 6 
#
# 1 117.1164 -2.9207 31.6443 0.0000 0.0000 0.0000
# 2 -2.9207 49.1174 17.8675 0.0001 0.0000 0.0000
# 3 31.6443 17.8675 96.7155 0.0002 0.0000 0.0000
# 4 0.0000 0.0001 0.0002 20.0118 0.0000 0.0000
# 5 0.0000 0.0000 0.0000 0.0000 44.5229 0.0000
# 6 0.0000 0.0000 0.0000 0.0000 0.0000 19.1174
#
#
#
# Elastic Compliance Matrix: (Units=1/GPa)
#
#
# Indices 1 2 3 4 5 6 
#
# 1 0.009516 0.001821 -0.003450 0.000000 0.000000 0.000000
# 2 0.001821 0.022175 -0.004692 0.000000 0.000000 0.000000
# 3 -0.003450 -0.004692 0.012335 0.000000 0.000000 0.000000
# 4 0.000000 0.000000 0.000000 0.049970 0.000000 0.000000
# 5 0.000000 0.000000 0.000000 0.000000 0.022460 0.000000
# 6 0.000000 0.000000 0.000000 0.000000 0.000000 0.052308
#
#
# Mechanical properties :
#
#
# Convention : Reuss Voigt Hill
#
# Bulk Modulus (GPa) = 31.86435 39.57019 35.71727
# Shear Modulus (GPa) = 26.05941 31.15429 28.60685
#
# Velocity S-wave (km/s) = 3.39557 3.71270 3.55767
# Velocity P-wave (km/s) = 5.42876 5.99054 5.71655
#
# Compressibility (1/GPa) = 0.03138303
#
# Stress axis : x y z
#
# Youngs Moduli (GPa) = 105.08524 45.09657 81.06829
#
# Poissons Ratio (x) = -0.08211 0.27968
# Poissons Ratio (y) = -0.19134 0.38040
# Poissons Ratio (z) = 0.36254 0.21161
#
# Static dielectric constant tensor:
#      x y z
#    x 1.820650 0.000000 0.000000 
#    y 0.000000 1.889890 0.000000 
#    z 0.000000 0.000000 1.915540 
# 
# From -- ./inp_files/14651.got.cif
#   From: 2010.05.17/outbox.cif.g08.bks.cpg/sg23_8_cif.got.tgz:14651.got - 2010.06.04 12:02:01.
