data_PCOD9332621
_publ_section_title
;
Structure prediction by ZEFSAII (Michael W. Deem and Ramdas Pophale) SiO2 
 PCOD9332621
Probable space group: I 2 2 2
;
_chemical_formula_sum "Si O2"
_cell_formula_units_Z 40
_cell_length_a 19.133986
_cell_length_b 14.127578
_cell_length_c 7.474356
_cell_angle_alpha 90.000000
_cell_angle_beta 90.000000
_cell_angle_gamma 90.000000
_cell_volume 2020.444591
_symmetry_space_group_name_H-M "I 2 2 2"
_symmetry_group_IT_number 23
_symmetry_cell_setting 'orthorhombic'
loop_
_space_group_symop_operation_xyz
x,y,z
-x,-y,z
x,-y,-z
-x,y,-z
1/2+x,1/2+y,1/2+z
1/2-x,1/2-y,1/2+z
1/2+x,1/2-y,1/2-z
1/2-x,1/2+y,1/2-z
loop_
_atom_site_type_symbol
_atom_site_label
_atom_site_fract_x
_atom_site_fract_y
_atom_site_fract_z
Si Si1 0.289667 0.604798 0.787151
Si Si2 0.144209 0.297735 0.284223
Si Si3 0.210333 0.895201 0.712846
Si Si4 0.500000 0.109536 0.781060
Si Si5 0.855792 0.297734 0.284218
O O1 0.208872 0.633773 0.760583
O O2 0.303462 0.499999 0.714130
O O3 0.335031 0.693025 0.716799
O O4 0.301853 0.601228 0.999998
O O5 0.164970 0.193026 0.216803
O O6 0.141224 0.293153 0.500002
O O7 0.070475 0.338130 0.221404
O O8 0.291129 0.866226 0.739411
O O9 0.570474 0.161871 0.721402
O O10 0.500000 0.000000 0.726239
O O11 0.500000 0.110331 0.000000
#
# Coordination Sequence:
#
# PCOD9332621 Si02
#       5
#     8   8   8   8   8
#     4   9  17  29  44  63  87 112 139 174 212 247
#     4   9  17  29  45  64  85 111 143 174 206 249
#     4   9  17  29  44  63  87 112 139 174 212 247
#     4   9  16  26  42  64  86 107 137 177 212 243
#     4   9  17  29  45  64  85 111 143 174 206 249
#
# _framework density 19.797623000000002
#
# number of rings (size 3 to 8) (size 9 to 14) (size 15 to 20)
#    0.000    3.000    0.000    1.200    0.000    2.400 
#    0.000    2.000    0.000    9.600    0.000    0.000 
#    0.000   12.800    0.000    0.000    0.000    0.000 
#
# Total GULP energy -111570.264045 kJ/mol
# GULP energy per Si atom -5578.513202 kJ/mol
# Density = 1.975256 g / cm^3
# Si number density = 19.797623 Si / 1000 Ang^3
#
#
#
# Elastic Constant Matrix: (Units=GPa)
#
#
# Indices 1 2 3 4 5 6 
#
# 1 141.2033 90.0706 -3.4856 0.0000 0.0000 0.0000
# 2 90.0706 186.3305 5.5833 0.0000 0.0000 0.0000
# 3 -3.4856 5.5833 58.8074 0.0000 0.0000 0.0000
# 4 0.0000 0.0000 0.0000 7.2833 0.0000 0.0000
# 5 0.0000 0.0000 0.0000 0.0000 8.7154 0.0000
# 6 0.0000 0.0000 0.0000 0.0000 0.0000 13.1204
#
#
#
# Elastic Compliance Matrix: (Units=1/GPa)
#
#
# Indices 1 2 3 4 5 6 
#
# 1 0.010308 -0.005015 0.001087 0.000000 0.000000 0.000000
# 2 -0.005015 0.007822 -0.001040 0.000000 0.000000 0.000000
# 3 0.001087 -0.001040 0.017168 0.000000 0.000000 0.000000
# 4 0.000000 0.000000 0.000000 0.137300 0.000000 0.000000
# 5 0.000000 0.000000 0.000000 0.000000 0.114739 0.000000
# 6 0.000000 0.000000 0.000000 0.000000 0.000000 0.076217
#
#
# Mechanical properties :
#
#
# Convention : Reuss Voigt Hill
#
# Bulk Modulus (GPa) = 39.42926 63.40864 51.41895
# Shear Modulus (GPa) = 13.09089 25.43535 19.26312
#
# Velocity S-wave (km/s) = 2.57424 3.58825 3.12268
# Velocity P-wave (km/s) = 5.36610 7.01893 6.24741
#
# Compressibility (1/GPa) = 0.02536187
#
# Stress axis : x y z
#
# Youngs Moduli (GPa) = 97.01162 127.83847 58.24842
#
# Poissons Ratio (x) = 0.64116 -0.06333
# Poissons Ratio (y) = 0.48655 0.06058
# Poissons Ratio (z) = -0.10547 0.13295
#
# Static dielectric constant tensor:
#      x y z
#    x 1.647630 0.000000 0.000000 
#    y 0.000000 1.711430 0.000000 
#    z 0.000000 0.000000 1.755160 
# 
# From -- ./inp_files/9565.got.cif
#   From: 2010.05.17/outbox.cif.g08.bks.cpg/sg23_5_cif.got.tgz:9565.got - 2010.06.04 12:02:01.
