data_PCOD9332736
_publ_section_title
;
Structure prediction by ZEFSAII (Michael W. Deem and Ramdas Pophale) SiO2 
 PCOD9332736
Probable space group: I 21 21 21
;
_chemical_formula_sum "Si O2"
_cell_formula_units_Z 52
_cell_length_a 21.365280
_cell_length_b 8.301475
_cell_length_c 14.706490
_cell_angle_alpha 90.000000
_cell_angle_beta 90.000000
_cell_angle_gamma 90.000000
_cell_volume 2608.392154
_symmetry_space_group_name_H-M "I 21 21 21"
_symmetry_group_IT_number 24
_symmetry_cell_setting 'orthorhombic'
loop_
_space_group_symop_operation_xyz
x,y,z
-x,1/2-y,z
x,-y,1/2-z
1/2-x,y,-z
1/2+x,1/2+y,1/2+z
1/2-x,-y,1/2+z
1/2+x,1/2-y,-z
-x,1/2+y,1/2-z
loop_
_atom_site_type_symbol
_atom_site_label
_atom_site_fract_x
_atom_site_fract_y
_atom_site_fract_z
Si Si1 0.666520 0.234328 0.181377
Si Si2 0.200014 0.629810 0.333282
Si Si3 0.250000 0.425131 0.500000
Si Si4 0.058251 0.370311 0.169179
Si Si5 0.855949 0.135994 0.620076
Si Si6 0.026018 0.589916 0.000759
Si Si7 0.954634 0.593315 0.653998
O O1 0.741296 0.252022 0.173939
O O2 0.646343 0.230352 0.286546
O O3 0.617115 0.354001 0.137301
O O4 0.653401 0.053927 0.143786
O O5 0.207502 0.500000 0.250000
O O6 0.211363 0.534697 0.428204
O O7 0.129589 0.697422 0.329057
O O8 0.202245 0.320457 0.557534
O O9 0.055400 0.500000 0.250000
O O10 0.000000 0.250000 0.178436
O O11 0.049880 0.463065 0.073922
O O12 0.918694 0.149016 0.564612
O O13 0.000000 0.750000 0.048286
O O14 0.977585 0.508214 0.931889
O O15 0.961206 0.500000 0.750000
O O16 0.000000 0.750000 0.659650
#
# Coordination Sequence:
#
# PCOD9332736 Si02
#       7
#     8   8   4   8   8   8   8
#     4  10  19  34  57  85 130 154 205 253 303 359
#     4  10  19  35  60  89 117 155 210 259 305 366
#     4  10  16  30  58  88 114 148 206 260 296 354
#     4  11  25  44  65  91 118 161 211 267 315 363
#     4  10  18  33  55  91 118 155 198 256 298 363
#     4  12  24  39  62  91 126 164 208 253 309 375
#     4  12  23  36  57  91 133 172 197 245 309 384
#
# _framework density 19.935651
#
# number of rings (size 3 to 8) (size 9 to 14) (size 15 to 20)
#    0.000    1.231    6.154    3.231    0.000    0.000 
#    0.000    0.769    0.000    1.846    0.000    1.077 
#    0.000    0.000    0.000    0.000    0.000    0.000 
#
# Total GULP energy -145166.836912 kJ/mol
# GULP energy per Si atom -5583.339881 kJ/mol
# Density = 1.989028 g / cm^3
# Si number density = 19.935651 Si / 1000 Ang^3
#
#
#
# Elastic Constant Matrix: (Units=GPa)
#
#
# Indices 1 2 3 4 5 6 
#
# 1 178.6148 39.2852 21.9501 0.0000 0.0000 0.0000
# 2 39.2852 40.5165 3.1444 0.0000 0.0000 0.0000
# 3 21.9501 3.1444 77.0356 0.0000 0.0000 0.0000
# 4 0.0000 0.0000 0.0000 13.4111 0.0000 0.0000
# 5 0.0000 0.0000 0.0000 0.0000 28.6425 0.0000
# 6 0.0000 0.0000 0.0000 0.0000 0.0000 52.4050
#
#
#
# Elastic Compliance Matrix: (Units=1/GPa)
#
#
# Indices 1 2 3 4 5 6 
#
# 1 0.007360 -0.006996 -0.001812 0.000000 0.000000 0.000000
# 2 -0.006996 0.031409 0.000711 0.000000 0.000000 0.000000
# 3 -0.001812 0.000711 0.013468 0.000000 0.000000 0.000000
# 4 0.000000 0.000000 0.000000 0.074565 0.000000 0.000000
# 5 0.000000 0.000000 0.000000 0.000000 0.034913 0.000000
# 6 0.000000 0.000000 0.000000 0.000000 0.000000 0.019082
#
#
# Mechanical properties :
#
#
# Convention : Reuss Voigt Hill
#
# Bulk Modulus (GPa) = 27.74284 47.21402 37.47843
# Shear Modulus (GPa) = 23.92295 34.34422 29.13359
#
# Velocity S-wave (km/s) = 3.46787 4.15511 3.82695
# Velocity P-wave (km/s) = 5.47551 6.83773 6.19418
#
# Compressibility (1/GPa) = 0.03604534
#
# Stress axis : x y z
#
# Youngs Moduli (GPa) = 135.87121 31.83787 74.24919
#
# Poissons Ratio (x) = 0.22273 0.13451
# Poissons Ratio (y) = 0.95051 -0.05281
# Poissons Ratio (z) = 0.24614 -0.02265
#
# Static dielectric constant tensor:
#      x y z
#    x 1.744650 0.000000 0.000000 
#    y 0.000000 1.765160 0.000000 
#    z 0.000000 0.000000 1.637620 
# 
# From -- ./inp_files/27478.got.cif
#   From: 2010.05.17/outbox.cif.g08.bks.cpg/sg24_14_cif.got.tgz:27478.got - 2010.06.04 00:33:39.
