data_PCOD9332643
_publ_section_title
;
Structure prediction by ZEFSAII (Michael W. Deem and Ramdas Pophale) SiO2 
 PCOD9332643
Probable space group: I 2 2 2
;
_chemical_formula_sum "Si O2"
_cell_formula_units_Z 27
_cell_length_a 15.000000
_cell_length_b 30.000000
_cell_length_c 6.000000
_cell_angle_alpha 90.000000
_cell_angle_beta 90.000000
_cell_angle_gamma 90.000000
_cell_volume 2700.000000
_symmetry_space_group_name_H-M "I 2 2 2"
_symmetry_group_IT_number 23
_symmetry_cell_setting 'orthorhombic'
loop_
_space_group_symop_operation_xyz
x,y,z
-x,-y,z
x,-y,-z
-x,y,-z
1/2+x,1/2+y,1/2+z
1/2-x,1/2-y,1/2+z
1/2+x,1/2-y,1/2-z
1/2-x,1/2+y,1/2-z
loop_
_atom_site_type_symbol
_atom_site_label
_atom_site_fract_x
_atom_site_fract_y
_atom_site_fract_z
Si Si1 0.185598 0.697388 0.011046
Si Si2 0.855433 0.791163 0.188092
Si Si3 0.000000 0.500000 0.500000
Si Si4 0.087424 0.126163 0.885311
Si Si5 0.000000 0.817889 0.500000
Si Si6 0.937915 0.569014 0.185014
Si Si7 0.432936 0.851629 0.838586
Si Si8 0.716573 0.120361 0.183499
O O1 0.264803 0.697361 0.187496
O O2 0.102026 0.674876 0.129264
O O3 0.160751 0.747008 0.948173
O O4 0.218149 0.668745 0.800366
O O5 0.932826 0.786719 0.367726
O O6 0.887669 0.832310 0.042281
O O7 0.933951 0.532385 0.371926
O O8 0.183728 0.103023 0.857997
O O9 0.056222 0.148853 0.656564
O O10 0.000000 0.103865 0.000000
O O11 0.840500 0.588974 0.149983
O O12 0.001883 0.609380 0.259521
O O13 0.000000 0.547890 0.000000
O O14 0.500000 0.824572 0.000000
O O15 0.347714 0.872215 0.969701
#
# Coordination Sequence:
#
# PCOD9332643 Si02
#       8
#     8   8   2   8   4   8   8   8
#     4  12  23  38  57  77 113 154 209 266 309 374
#     4  11  24  38  53  78 104 153 209 261 326 347
#     4  12  22  40  66  94 146 152 186 248 280 384
#     4  10  21  39  58  79 110 153 206 267 302 361
#     4  10  22  42  49  74 108 142 207 261 312 353
#     4  11  22  40  62  99 125 162 197 234 304 377
#     4  10  22  40  57  83 116 152 200 244 302 375
#     4  11  20  39  62  79 117 158 197 249 308 369
#
# _framework density 10.0
#
# number of rings (size 3 to 8) (size 9 to 14) (size 15 to 20)
#    0.000    1.185    6.667    1.111    0.000    0.000 
#   21.333    0.000    0.000    0.000    0.000    0.519 
#    0.000    0.000    0.000    0.000    0.000    0.000 
#
# Total GULP energy -150469.572533 kJ/mol
# GULP energy per Si atom -5572.947131 kJ/mol
# Density = 0.997724 g / cm^3
# Si number density = 10.000000 Si / 1000 Ang^3
#
#
#
# Elastic Constant Matrix: (Units=GPa)
#
#
# Indices 1 2 3 4 5 6 
#
# 1 157.9586 24.6998 35.2633 -0.0086 -0.0144 0.0029
# 2 24.6998 44.5739 10.7649 0.0390 -0.0255 -0.0350
# 3 35.2633 10.7649 45.8899 -0.0614 0.0241 -0.0163
# 4 -0.0086 0.0390 -0.0614 31.3348 0.0263 -0.0472
# 5 -0.0144 -0.0255 0.0241 0.0263 39.6703 -0.0215
# 6 0.0029 -0.0350 -0.0163 -0.0472 -0.0215 -11.5254
#
#
#
# Elastic Compliance Matrix: (Units=1/GPa)
#
#
# Indices 1 2 3 4 5 6 
#
# 1 0.008036 -0.003139 -0.005439 -0.000005 0.000004 0.000019
# 2 -0.003139 0.025009 -0.003454 -0.000039 0.000017 -0.000072
# 3 -0.005439 -0.003454 0.026781 0.000055 -0.000021 -0.000029
# 4 -0.000005 -0.000039 0.000055 0.031913 -0.000021 -0.000131
# 5 0.000004 0.000017 -0.000021 -0.000021 0.025208 -0.000047
# 6 0.000019 -0.000072 -0.000029 -0.000131 -0.000047 -0.086764
#
#
# Mechanical properties :
#
#
# Convention : Reuss Voigt Hill
#
# Bulk Modulus (GPa) = 27.96353 43.31981 35.64167
# Shear Modulus (GPa) = 75.56643 23.74223 49.65433
#
# Velocity S-wave (km/s) = 6.15347 3.44919 4.98809
# Velocity P-wave (km/s) = 8.03113 6.12939 7.14383
#
# Compressibility (1/GPa) = 0.03576087
#
# Stress axis : x y z
#
# Youngs Moduli (GPa) = 124.44317 39.98638 37.34023
#
# Poissons Ratio (x) = 0.12553 0.20308
# Poissons Ratio (y) = 0.39068 0.12898
# Poissons Ratio (z) = 0.67679 0.13812
#
# Static dielectric constant tensor:
#      x y z
#    x 1.709820 0.000080 -0.000160 
#    y 0.000080 1.671400 0.000080 
#    z -0.000160 0.000080 2.054210 
# 
# From -- ./inp_files/2778.got.cif
#   From: 2010.05.17/outbox.ucp.g08.bks.cvg/sg23_2_cif.got.tgz:2778.got - 2010.06.11 15:19:07.
