data_PCOD9332370
_publ_section_title
;
Structure prediction by ZEFSAII (Michael W. Deem and Ramdas Pophale) SiO2 
 PCOD9332370
Probable space group: I 2 2 2
;
_chemical_formula_sum "Si O2"
_cell_formula_units_Z 38
_cell_length_a 5.259220
_cell_length_b 22.063985
_cell_length_c 14.305865
_cell_angle_alpha 90.000000
_cell_angle_beta 90.000000
_cell_angle_gamma 90.000000
_cell_volume 1660.043293
_symmetry_space_group_name_H-M "I 2 2 2"
_symmetry_group_IT_number 23
_symmetry_cell_setting 'orthorhombic'
loop_
_space_group_symop_operation_xyz
x,y,z
-x,-y,z
x,-y,-z
-x,y,-z
1/2+x,1/2+y,1/2+z
1/2-x,1/2-y,1/2+z
1/2+x,1/2-y,1/2-z
1/2-x,1/2+y,1/2-z
loop_
_atom_site_type_symbol
_atom_site_label
_atom_site_fract_x
_atom_site_fract_y
_atom_site_fract_z
Si Si1 0.374141 0.590821 0.656281
Si Si2 0.844342 0.316709 0.135348
Si Si3 0.000000 0.740798 0.500000
Si Si4 0.886344 0.434586 0.222642
Si Si5 0.000000 0.000000 0.000000
Si Si6 0.664896 0.292070 0.344385
O O1 0.618086 0.567193 0.719838
O O2 0.349863 0.545267 0.569041
O O3 0.450012 0.659282 0.629511
O O4 0.111937 0.591651 0.712358
O O5 0.863326 0.388746 0.135686
O O6 0.716332 0.302356 0.235718
O O7 0.101850 0.278658 0.143283
O O8 0.696300 0.285191 0.052114
O O9 0.884357 0.699092 0.580862
O O10 0.000000 0.500000 0.198071
#
# Coordination Sequence:
#
# PCOD9332370 Si02
#       6
#     8   8   4   8   2   8
#     4  11  26  40  69 101 146 191 239 287 364 436
#     4  11  24  43  74 101 149 187 251 296 377 423
#     4  12  26  44  70 114 140 194 242 310 364 442
#     4  11  23  47  69 101 136 196 242 293 362 434
#     4  12  24  42  64 110 156 188 242 294 356 454
#     4  11  24  45  70 105 146 193 239 308 366 436
#
# _framework density 22.890971
#
# number of rings (size 3 to 8) (size 9 to 14) (size 15 to 20)
#    0.000    0.842    4.211    1.895    8.842    1.684 
#    0.000    0.000    0.000    3.789    0.000    0.000 
#    0.000    0.000    0.000    0.000    0.000    0.000 
#
# Total GULP energy -106166.758857 kJ/mol
# GULP energy per Si atom -5587.724150 kJ/mol
# Density = 2.283887 g / cm^3
# Si number density = 22.890971 Si / 1000 Ang^3
#
#
#
# Elastic Constant Matrix: (Units=GPa)
#
#
# Indices 1 2 3 4 5 6 
#
# 1 82.8265 6.2091 13.6595 0.0000 0.0000 0.0000
# 2 6.2091 111.9394 28.0190 0.0000 0.0000 0.0000
# 3 13.6595 28.0190 81.5308 0.0000 0.0000 0.0000
# 4 0.0000 0.0000 0.0000 21.8084 0.0000 0.0000
# 5 0.0000 0.0000 0.0000 0.0000 25.8944 0.0000
# 6 0.0000 0.0000 0.0000 0.0000 0.0000 33.6346
#
#
#
# Elastic Compliance Matrix: (Units=1/GPa)
#
#
# Indices 1 2 3 4 5 6 
#
# 1 0.012420 -0.000184 -0.002018 0.000000 0.000000 0.000000
# 2 -0.000184 0.009777 -0.003329 0.000000 0.000000 0.000000
# 3 -0.002018 -0.003329 0.013747 0.000000 0.000000 0.000000
# 4 0.000000 0.000000 0.000000 0.045854 0.000000 0.000000
# 5 0.000000 0.000000 0.000000 0.000000 0.038618 0.000000
# 6 0.000000 0.000000 0.000000 0.000000 0.000000 0.029731
#
#
# Mechanical properties :
#
#
# Convention : Reuss Voigt Hill
#
# Bulk Modulus (GPa) = 40.18808 41.34131 40.76470
# Shear Modulus (GPa) = 29.49792 31.49474 30.49633
#
# Velocity S-wave (km/s) = 3.59364 3.71328 3.65395
# Velocity P-wave (km/s) = 5.90029 6.04019 5.97065
#
# Compressibility (1/GPa) = 0.02488300
#
# Stress axis : x y z
#
# Youngs Moduli (GPa) = 80.51554 102.28182 72.74084
#
# Poissons Ratio (x) = 0.01881 0.14676
# Poissons Ratio (y) = 0.01481 0.24216
# Poissons Ratio (z) = 0.16245 0.34051
#
# Static dielectric constant tensor:
#      x y z
#    x 1.933960 0.000000 0.000000 
#    y 0.000000 1.911920 0.000000 
#    z 0.000000 0.000000 1.843280 
# 
# From -- ./inp_files/2416.got.cif
#   From: 2010.05.17/outbox.cif.g08.bks.cpg/sg23_2_cif.got.tgz:2416.got - 2010.06.04 12:02:01.
