data_PCOD9332780
_publ_section_title
;
Structure prediction by ZEFSAII (Michael W. Deem and Ramdas Pophale) SiO2 
 PCOD9332780
Probable space group: I 21 21 21
;
_chemical_formula_sum "Si O2"
_cell_formula_units_Z 64
_cell_length_a 14.663329
_cell_length_b 9.183981
_cell_length_c 21.417358
_cell_angle_alpha 90.000000
_cell_angle_beta 90.000000
_cell_angle_gamma 90.000000
_cell_volume 2884.227090
_symmetry_space_group_name_H-M "I 21 21 21"
_symmetry_group_IT_number 24
_symmetry_cell_setting 'orthorhombic'
loop_
_space_group_symop_operation_xyz
x,y,z
-x,1/2-y,z
x,-y,1/2-z
1/2-x,y,-z
1/2+x,1/2+y,1/2+z
1/2-x,-y,1/2+z
1/2+x,1/2-y,-z
-x,1/2+y,1/2-z
loop_
_atom_site_type_symbol
_atom_site_label
_atom_site_fract_x
_atom_site_fract_y
_atom_site_fract_z
Si Si1 0.361215 0.853436 0.000168
Si Si2 0.867268 0.827424 0.121407
Si Si3 0.643942 0.835611 0.116666
Si Si4 0.841440 0.159874 0.886085
Si Si5 0.858597 0.326945 0.252177
Si Si6 0.407172 0.816864 0.499348
Si Si7 0.126438 0.343378 0.129771
Si Si8 0.663350 0.174902 0.247681
O O1 0.386285 0.778963 0.065439
O O2 0.250000 0.867562 0.000000
O O3 0.390305 0.751165 0.943043
O O4 0.403377 0.011874 0.993184
O O5 0.755487 0.831724 0.119830
O O6 0.893568 0.736878 0.182517
O O7 0.906520 0.990281 0.126865
O O8 0.611495 0.804854 0.186960
O O9 0.621262 0.000521 0.096210
O O10 0.735681 0.141891 0.868280
O O11 0.883750 0.203778 0.819098
O O12 0.839593 0.267806 0.944392
O O13 0.868631 0.500000 0.250000
O O14 0.899165 0.246417 0.191409
O O15 0.751705 0.278971 0.250888
O O16 0.500000 0.750000 0.473129
O O17 0.394443 0.740930 0.566114
O O18 0.688739 0.000000 0.250000
#
# Coordination Sequence:
#
# PCOD9332780 Si02
#       8
#     8   8   8   8   8   8   8   8
#     4  10  19  33  55  82 109 135 172 220 263 308
#     4   9  17  31  54  84 109 132 171 218 259 307
#     4   8  15  29  53  84 109 131 169 217 257 303
#     4   9  17  33  56  77 101 139 176 210 260 318
#     4  10  17  26  48  84 116 134 160 210 264 309
#     4  12  25  37  49  72 107 140 175 222 269 314
#     4  10  19  35  57  76 101 141 181 213 258 317
#     4   8  15  28  49  79 111 138 169 210 256 308
#
# _framework density 22.189653
#
# number of rings (size 3 to 8) (size 9 to 14) (size 15 to 20)
#    0.000    2.500    0.000    5.250    0.000    7.000 
#    0.000    2.500    0.000    9.000    0.000    0.000 
#    0.000    0.000    0.000    0.000    0.000    0.000 
#
# Total GULP energy -178627.411481 kJ/mol
# GULP energy per Si atom -5582.106609 kJ/mol
# Density = 2.213915 g / cm^3
# Si number density = 22.189653 Si / 1000 Ang^3
#
#
#
# Elastic Constant Matrix: (Units=GPa)
#
#
# Indices 1 2 3 4 5 6 
#
# 1 39.3293 12.2992 -2.2750 0.0000 0.0000 0.0000
# 2 12.2992 197.2978 114.3843 0.0000 0.0000 0.0000
# 3 -2.2750 114.3843 193.2728 0.0000 0.0000 0.0000
# 4 0.0000 0.0000 0.0000 224.4579 0.0000 0.0000
# 5 0.0000 0.0000 0.0000 0.0000 -27.2434 0.0000
# 6 0.0000 0.0000 0.0000 0.0000 0.0000 -0.4780
#
#
#
# Elastic Compliance Matrix: (Units=1/GPa)
#
#
# Indices 1 2 3 4 5 6 
#
# 1 0.026409 -0.002781 0.001956 0.000000 0.000000 0.000000
# 2 -0.002781 0.008009 -0.004773 0.000000 0.000000 0.000000
# 3 0.001956 -0.004773 0.008022 0.000000 0.000000 0.000000
# 4 0.000000 0.000000 0.000000 0.004455 0.000000 0.000000
# 5 0.000000 0.000000 0.000000 0.000000 -0.036706 0.000000
# 6 0.000000 0.000000 0.000000 0.000000 0.000000 -2.091919
#
#
# Mechanical properties :
#
#
# Convention : Reuss Voigt Hill
#
# Bulk Modulus (GPa) = 32.00395 75.41300 53.70847
# Shear Modulus (GPa) = -2.42704 59.71338 28.64317
#
# Velocity S-wave (km/s) = -1.04697 5.19316 3.59672
# Velocity P-wave (km/s) = 3.60454 8.36767 6.44246
#
# Compressibility (1/GPa) = 0.03124614
#
# Stress axis : x y z
#
# Youngs Moduli (GPa) = 37.86578 124.86420 124.66391
#
# Poissons Ratio (x) = 0.34720 -0.24390
# Poissons Ratio (y) = 0.10529 0.59496
# Poissons Ratio (z) = -0.07408 0.59592
#
# Static dielectric constant tensor:
#      x y z
#    x 1.857690 0.000000 0.000000 
#    y 0.000000 1.771450 0.000000 
#    z 0.000000 0.000000 1.838150 
# 
# From -- ./inp_files/33997.got.cif
#   From: 2010.05.17/outbox.cif.g08.bks.cpg/sg24_17_cif.got.tgz:33997.got - 2010.06.04 00:33:39.
