data_PCOD9332779
_publ_section_title
;
Structure prediction by ZEFSAII (Michael W. Deem and Ramdas Pophale) SiO2 
 PCOD9332779
Probable space group: I 21 21 21
;
_chemical_formula_sum "Si O2"
_cell_formula_units_Z 64
_cell_length_a 7.607093
_cell_length_b 21.672830
_cell_length_c 18.321014
_cell_angle_alpha 90.000000
_cell_angle_beta 90.000000
_cell_angle_gamma 90.000000
_cell_volume 3020.534891
_symmetry_space_group_name_H-M "I 21 21 21"
_symmetry_group_IT_number 24
_symmetry_cell_setting 'orthorhombic'
loop_
_space_group_symop_operation_xyz
x,y,z
-x,1/2-y,z
x,-y,1/2-z
1/2-x,y,-z
1/2+x,1/2+y,1/2+z
1/2-x,-y,1/2+z
1/2+x,1/2-y,-z
-x,1/2+y,1/2-z
loop_
_atom_site_type_symbol
_atom_site_label
_atom_site_fract_x
_atom_site_fract_y
_atom_site_fract_z
Si Si1 0.702888 0.867586 0.331056
Si Si2 0.293803 0.999509 0.085571
Si Si3 0.286588 0.120811 0.169396
Si Si4 0.781819 0.625414 0.835086
Si Si5 0.705837 0.254278 0.915419
Si Si6 0.286504 0.632589 0.167060
Si Si7 0.289365 0.751980 0.084404
Si Si8 0.173050 0.498610 0.838528
O O1 0.497240 0.883351 0.324671
O O2 0.720747 0.810096 0.384406
O O3 0.764528 0.850517 0.249913
O O4 0.776963 0.934900 0.352586
O O5 0.228874 0.935353 0.120454
O O6 0.501740 0.999953 0.108834
O O7 0.223046 0.061805 0.123847
O O8 0.250000 0.001057 0.000000
O O9 0.219219 0.120375 0.251926
O O10 0.258805 0.185787 0.130075
O O11 0.721597 0.689263 0.870900
O O12 0.997918 0.628565 0.835168
O O13 0.500000 0.250000 0.908046
O O14 0.750000 0.262196 0.000000
O O15 0.224247 0.686293 0.114028
O O16 0.227348 0.563110 0.149491
O O17 0.500000 0.750000 0.094170
O O18 0.250000 0.760003 0.000000
O O19 0.126581 0.500000 0.750000
#
# Coordination Sequence:
#
# PCOD9332779 Si02
#       8
#     8   8   8   8   8   8   8   8
#     4   9  17  34  60  82 101 134 178 221 264 315
#     4  10  17  26  48  82 114 138 170 219 267 310
#     4  10  19  35  58  80 103 138 183 225 264 312
#     4   9  17  31  52  77 106 142 182 216 257 319
#     4  12  25  39  55  78 109 140 174 221 275 328
#     4   8  15  30  54  80 104 136 178 218 257 312
#     4  10  19  31  48  72 104 139 175 216 261 312
#     4   8  15  30  54  81 105 135 179 222 259 314
#
# _framework density 21.188300999999999
#
# number of rings (size 3 to 8) (size 9 to 14) (size 15 to 20)
#    0.000    2.500    0.000    5.250    0.000    3.000 
#    0.000    3.125    0.000    9.000    0.000    0.000 
#    0.000    0.000    0.000    0.000    0.000    0.000 
#
# Total GULP energy -178525.913278 kJ/mol
# GULP energy per Si atom -5578.934790 kJ/mol
# Density = 2.114008 g / cm^3
# Si number density = 21.188301 Si / 1000 Ang^3
#
#
#
# Elastic Constant Matrix: (Units=GPa)
#
#
# Indices 1 2 3 4 5 6 
#
# 1 33.1086 1.8496 2.7749 0.0000 0.0000 0.0000
# 2 1.8496 218.9384 117.8151 0.0000 0.0000 0.0000
# 3 2.7749 117.8151 178.9692 0.0000 0.0000 0.0000
# 4 0.0000 0.0000 0.0000 4.2572 0.0000 0.0000
# 5 0.0000 0.0000 0.0000 0.0000 4.7873 0.0000
# 6 0.0000 0.0000 0.0000 0.0000 0.0000 -21.2518
#
#
#
# Elastic Compliance Matrix: (Units=1/GPa)
#
#
# Indices 1 2 3 4 5 6 
#
# 1 0.030243 -0.000005 -0.000466 0.000000 0.000000 0.000000
# 2 -0.000005 0.007073 -0.004656 0.000000 0.000000 0.000000
# 3 -0.000466 -0.004656 0.008660 0.000000 0.000000 0.000000
# 4 0.000000 0.000000 0.000000 0.234897 0.000000 0.000000
# 5 0.000000 0.000000 0.000000 0.000000 0.208888 0.000000
# 6 0.000000 0.000000 0.000000 0.000000 0.000000 -0.047055
#
#
# Mechanical properties :
#
#
# Convention : Reuss Voigt Hill
#
# Bulk Modulus (GPa) = 27.99359 75.09947 51.54653
# Shear Modulus (GPa) = 10.75576 18.13030 14.44303
#
# Velocity S-wave (km/s) = 2.25550 2.92837 2.61368
# Velocity P-wave (km/s) = 4.47477 6.85234 5.78697
#
# Compressibility (1/GPa) = 0.03572247
#
# Stress axis : x y z
#
# Youngs Moduli (GPa) = 33.06561 141.38097 115.47487
#
# Poissons Ratio (x) = 0.00069 0.05377
# Poissons Ratio (y) = 0.00016 0.53767
# Poissons Ratio (z) = 0.01540 0.65829
#
# Static dielectric constant tensor:
#      x y z
#    x 1.798470 0.000000 0.000000 
#    y 0.000000 1.404880 0.000000 
#    z 0.000000 0.000000 1.709400 
# 
# From -- ./inp_files/29820.got.cif
#   From: 2010.05.17/outbox.cif.g08.bks.cpg/sg24_15_cif.got.tgz:29820.got - 2010.06.04 00:33:39.
