data_PCOD9332069
_publ_section_title
;
Structure prediction by ZEFSAII (Michael W. Deem and Ramdas Pophale) SiO2 
 PCOD9332069
Probable space group: I 2 2 2
;
_chemical_formula_sum "Si O2"
_cell_formula_units_Z 52
_cell_length_a 8.958267
_cell_length_b 18.198114
_cell_length_c 16.569894
_cell_angle_alpha 90.000000
_cell_angle_beta 90.000000
_cell_angle_gamma 90.000000
_cell_volume 2701.283177
_symmetry_space_group_name_H-M "I 2 2 2"
_symmetry_group_IT_number 23
_symmetry_cell_setting 'orthorhombic'
loop_
_space_group_symop_operation_xyz
x,y,z
-x,-y,z
x,-y,-z
-x,y,-z
1/2+x,1/2+y,1/2+z
1/2-x,1/2-y,1/2+z
1/2+x,1/2-y,1/2-z
1/2-x,1/2+y,1/2-z
loop_
_atom_site_type_symbol
_atom_site_label
_atom_site_fract_x
_atom_site_fract_y
_atom_site_fract_z
Si Si1 0.500000 0.500000 0.172923
Si Si2 0.218452 0.543088 0.077133
Si Si3 0.792510 0.700766 0.290959
Si Si4 0.015928 0.352817 0.149820
Si Si5 0.135294 0.214484 0.944114
Si Si6 0.495311 0.333781 0.187898
Si Si7 0.798973 0.832672 0.538491
O O1 0.347573 0.497398 0.121182
O O2 0.513014 0.419377 0.213296
O O3 0.094496 0.578966 0.134714
O O4 0.157783 0.500000 0.000000
O O5 0.302125 0.611438 0.035312
O O6 0.734669 0.671742 0.377908
O O7 0.644573 0.698987 0.236679
O O8 0.920219 0.657809 0.239969
O O9 0.861180 0.782685 0.299574
O O10 0.939172 0.279924 0.110763
O O11 0.160951 0.360445 0.093612
O O12 0.248912 0.254058 0.004870
O O13 0.000000 0.183104 0.000000
O O14 0.440136 0.328878 0.095742
#
# Coordination Sequence:
#
# PCOD9332069 Si02
#       7
#     4   8   8   8   8   8   8
#     4  12  25  36  54  88 127 172 216 258 315 384
#     4  11  20  34  53  82 126 172 209 243 303 383
#     4  11  21  38  59  83 122 173 214 265 326 371
#     4   9  19  34  52  81 117 171 210 252 296 379
#     4   9  17  33  55  82 118 151 213 268 306 363
#     4  11  23  38  59  87 126 170 214 262 324 385
#     4   9  19  33  53  85 119 164 208 249 306 376
#
# _framework density 19.250109999999999
#
# number of rings (size 3 to 8) (size 9 to 14) (size 15 to 20)
#    0.000    1.846    3.077    3.462    0.000    3.077 
#    0.000    0.000    0.000    0.000    0.000    0.538 
#    0.000    2.462    0.000    0.000    0.000    0.000 
#
# Total GULP energy -144910.925238 kJ/mol
# GULP energy per Si atom -5573.497125 kJ/mol
# Density = 1.920630 g / cm^3
# Si number density = 19.250110 Si / 1000 Ang^3
#
#
#
# Elastic Constant Matrix: (Units=GPa)
#
#
# Indices 1 2 3 4 5 6 
#
# 1 113.7709 46.4854 48.4547 0.0000 0.0000 0.0000
# 2 46.4854 53.6297 35.6075 0.0000 0.0000 0.0000
# 3 48.4547 35.6075 90.2977 0.0000 0.0000 0.0000
# 4 0.0000 0.0000 0.0000 25.6138 0.0000 0.0000
# 5 0.0000 0.0000 0.0000 0.0000 46.9271 0.0000
# 6 0.0000 0.0000 0.0000 0.0000 0.0000 38.4023
#
#
#
# Elastic Compliance Matrix: (Units=1/GPa)
#
#
# Indices 1 2 3 4 5 6 
#
# 1 0.014527 -0.010047 -0.003834 0.000000 0.000000 0.000000
# 2 -0.010047 0.032208 -0.007310 0.000000 0.000000 0.000000
# 3 -0.003834 -0.007310 0.016014 0.000000 0.000000 0.000000
# 4 0.000000 0.000000 0.000000 0.039041 0.000000 0.000000
# 5 0.000000 0.000000 0.000000 0.000000 0.021310 0.000000
# 6 0.000000 0.000000 0.000000 0.000000 0.000000 0.026040
#
#
# Mechanical properties :
#
#
# Convention : Reuss Voigt Hill
#
# Bulk Modulus (GPa) = 49.09323 57.64373 53.36848
# Shear Modulus (GPa) = 25.21302 30.66535 27.93919
#
# Velocity S-wave (km/s) = 3.62299 3.99557 3.81383
# Velocity P-wave (km/s) = 6.56198 7.16210 6.86860
#
# Compressibility (1/GPa) = 0.02036941
#
# Stress axis : x y z
#
# Youngs Moduli (GPa) = 68.83574 31.04832 62.44484
#
# Poissons Ratio (x) = 0.31193 0.23940
# Poissons Ratio (y) = 0.69157 0.45644
# Poissons Ratio (z) = 0.26390 0.22695
#
# Static dielectric constant tensor:
#      x y z
#    x 1.718150 0.000000 0.000000 
#    y 0.000000 1.718440 0.000000 
#    z 0.000000 0.000000 1.729750 
# 
# From -- ./inp_files/11992.got.cif
#   From: 2010.05.17/outbox.cif.g08.bks.cpg/sg23_6_cif.got.tgz:11992.got - 2010.06.04 12:02:01.
