data_PCOD9332357
_publ_section_title
;
Structure prediction by ZEFSAII (Michael W. Deem and Ramdas Pophale) SiO2 
 PCOD9332357
Probable space group: I 2 2 2
;
_chemical_formula_sum "Si O2"
_cell_formula_units_Z 34
_cell_length_a 13.736979
_cell_length_b 6.593823
_cell_length_c 16.902243
_cell_angle_alpha 90.000000
_cell_angle_beta 90.000000
_cell_angle_gamma 90.000000
_cell_volume 1530.991786
_symmetry_space_group_name_H-M "I 2 2 2"
_symmetry_group_IT_number 23
_symmetry_cell_setting 'orthorhombic'
loop_
_space_group_symop_operation_xyz
x,y,z
-x,-y,z
x,-y,-z
-x,y,-z
1/2+x,1/2+y,1/2+z
1/2-x,1/2-y,1/2+z
1/2+x,1/2-y,1/2-z
1/2-x,1/2+y,1/2-z
loop_
_atom_site_type_symbol
_atom_site_label
_atom_site_fract_x
_atom_site_fract_y
_atom_site_fract_z
Si Si1 0.220656 0.095545 0.424210
Si Si2 0.832078 0.500000 0.500000
Si Si3 0.000000 0.000000 0.000000
Si Si4 0.909894 0.341814 0.886836
Si Si5 0.911996 0.150813 0.721188
Si Si6 0.000000 0.500000 0.615042
O O1 0.227302 0.330990 0.451588
O O2 0.168478 0.068323 0.339782
O O3 0.165087 0.000000 0.500000
O O4 0.321479 0.977357 0.417779
O O5 0.910453 0.585641 0.563245
O O6 0.060201 0.843477 0.944409
O O7 0.877645 0.242966 0.803775
O O8 0.000000 0.500000 0.876774
O O9 0.958358 0.327426 0.669379
O O10 0.000000 0.000000 0.739850
#
# Coordination Sequence:
#
# PCOD9332357 Si02
#       6
#     8   4   2   8   8   4
#     4  11  25  45  70 110 144 187 238 291 355 430
#     4   9  20  41  72 108 144 182 224 288 352 430
#     4  12  26  54  80  92 138 202 246 306 352 404
#     4  12  27  49  75 104 140 190 246 294 350 425
#     4  11  23  45  73 106 146 185 232 295 354 420
#     4   9  18  40  74 105 144 186 224 275 362 430
#
# _framework density 22.207825
#
# number of rings (size 3 to 8) (size 9 to 14) (size 15 to 20)
#    0.000    1.176    2.353    3.176    0.000    8.000 
#   12.706    0.000    0.000    0.000    0.000    0.000 
#    0.000    0.000    0.000    0.000    0.000    0.000 
#
# Total GULP energy -94945.691074 kJ/mol
# GULP energy per Si atom -5585.040651 kJ/mol
# Density = 2.215728 g / cm^3
# Si number density = 22.207825 Si / 1000 Ang^3
#
#
#
# Elastic Constant Matrix: (Units=GPa)
#
#
# Indices 1 2 3 4 5 6 
#
# 1 94.3981 62.3701 62.7394 0.0000 0.0000 0.0000
# 2 62.3701 96.4243 52.2339 0.0000 0.0000 0.0000
# 3 62.7394 52.2339 180.9113 0.0000 0.0000 0.0000
# 4 0.0000 0.0000 0.0000 66.0855 0.0000 0.0000
# 5 0.0000 0.0000 0.0000 0.0000 22.9136 0.0000
# 6 0.0000 0.0000 0.0000 0.0000 0.0000 32.6462
#
#
#
# Elastic Compliance Matrix: (Units=1/GPa)
#
#
# Indices 1 2 3 4 5 6 
#
# 1 0.020592 -0.011203 -0.003907 0.000000 0.000000 0.000000
# 2 -0.011203 0.018389 -0.001424 0.000000 0.000000 0.000000
# 3 -0.003907 -0.001424 0.007294 0.000000 0.000000 0.000000
# 4 0.000000 0.000000 0.000000 0.015132 0.000000 0.000000
# 5 0.000000 0.000000 0.000000 0.000000 0.043642 0.000000
# 6 0.000000 0.000000 0.000000 0.000000 0.000000 0.030631
#
#
# Mechanical properties :
#
#
# Convention : Reuss Voigt Hill
#
# Bulk Modulus (GPa) = 75.72011 80.71339 78.21675
# Shear Modulus (GPa) = 28.87669 37.28842 33.08255
#
# Velocity S-wave (km/s) = 3.60987 4.10209 3.86382
# Velocity P-wave (km/s) = 7.17949 7.67200 7.42983
#
# Compressibility (1/GPa) = 0.01320653
#
# Stress axis : x y z
#
# Youngs Moduli (GPa) = 48.56258 54.38064 137.10808
#
# Poissons Ratio (x) = 0.60924 0.53562
# Poissons Ratio (y) = 0.54406 0.19525
# Poissons Ratio (z) = 0.18971 0.07744
#
# Static dielectric constant tensor:
#      x y z
#    x 1.898840 0.000000 0.000000 
#    y 0.000000 1.836010 0.000000 
#    z 0.000000 0.000000 1.844140 
# 
# From -- ./inp_files/24575.got.cif
#   From: 2010.05.17/outbox.cif.g08.bks.cpg/sg23_13_cif.got.tgz:24575.got - 2010.06.04 12:02:01.
