data_PCOD9332449
_publ_section_title
;
Structure prediction by ZEFSAII (Michael W. Deem and Ramdas Pophale) SiO2 
 PCOD9332449
Probable space group: I 2 2 2
;
_chemical_formula_sum "Si O2"
_cell_formula_units_Z 28
_cell_length_a 21.444497
_cell_length_b 9.801627
_cell_length_c 6.580532
_cell_angle_alpha 90.000000
_cell_angle_beta 90.000000
_cell_angle_gamma 90.000000
_cell_volume 1383.168344
_symmetry_space_group_name_H-M "I 2 2 2"
_symmetry_group_IT_number 23
_symmetry_cell_setting 'orthorhombic'
loop_
_space_group_symop_operation_xyz
x,y,z
-x,-y,z
x,-y,-z
-x,y,-z
1/2+x,1/2+y,1/2+z
1/2-x,1/2-y,1/2+z
1/2+x,1/2-y,1/2-z
1/2-x,1/2+y,1/2-z
loop_
_atom_site_type_symbol
_atom_site_label
_atom_site_fract_x
_atom_site_fract_y
_atom_site_fract_z
Si Si1 0.439325 0.359930 0.875848
Si Si2 0.332260 0.855754 0.057093
Si Si3 0.709828 0.391220 0.813433
Si Si4 0.605981 0.500000 0.500000
O O1 0.385558 0.248281 0.877452
O O2 0.437967 0.407623 0.642302
O O3 0.425509 0.500000 0.000000
O O4 0.500000 0.308851 0.000000
O O5 0.277538 0.895144 0.212042
O O6 0.298953 0.764836 0.884614
O O7 0.361365 0.000000 0.000000
O O8 0.654664 0.424847 0.653097
O O9 0.708345 0.500000 0.000000
#
# Coordination Sequence:
#
# PCOD9332449 Si02
#       4
#     8   8   8   4
#     4  11  25  46  70 100 135 196 253 291 350 432
#     4  12  23  40  68 104 147 182 229 309 362 430
#     4  12  23  44  68 109 145 192 242 291 376 443
#     4  12  20  47  78 100 137 186 252 310 340 430
#
# _framework density 20.243376999999999
#
# number of rings (size 3 to 8) (size 9 to 14) (size 15 to 20)
#    0.000    0.286    7.143    3.429    0.000    2.857 
#    0.000    0.000    0.000    0.000   14.857    0.000 
#    0.000    0.000    0.000    0.000    0.000    0.000 
#
# Total GULP energy -78044.481873 kJ/mol
# GULP energy per Si atom -5574.605848 kJ/mol
# Density = 2.019730 g / cm^3
# Si number density = 20.243377 Si / 1000 Ang^3
#
#
#
# Elastic Constant Matrix: (Units=GPa)
#
#
# Indices 1 2 3 4 5 6 
#
# 1 106.6651 -4.9264 36.4402 0.0000 0.0000 0.0000
# 2 -4.9264 99.5332 19.4965 0.0000 0.0000 0.0000
# 3 36.4402 19.4965 101.0746 0.0000 0.0000 0.0000
# 4 0.0000 0.0000 0.0000 27.1106 0.0000 0.0000
# 5 0.0000 0.0000 0.0000 0.0000 -46.2446 0.0000
# 6 0.0000 0.0000 0.0000 0.0000 0.0000 44.5548
#
#
#
# Elastic Compliance Matrix: (Units=1/GPa)
#
#
# Indices 1 2 3 4 5 6 
#
# 1 0.010865 0.001356 -0.004179 0.000000 0.000000 0.000000
# 2 0.001356 0.010611 -0.002536 0.000000 0.000000 0.000000
# 3 -0.004179 -0.002536 0.011889 0.000000 0.000000 0.000000
# 4 0.000000 0.000000 0.000000 0.036886 0.000000 0.000000
# 5 0.000000 0.000000 0.000000 0.000000 -0.021624 0.000000
# 6 0.000000 0.000000 0.000000 0.000000 0.000000 0.022444
#
#
# Mechanical properties :
#
#
# Convention : Reuss Voigt Hill
#
# Bulk Modulus (GPa) = 44.15206 45.47703 44.81454
# Shear Modulus (GPa) = 55.96727 22.16833 39.06780
#
# Velocity S-wave (km/s) = 5.26376 3.31280 4.39783
# Velocity P-wave (km/s) = 7.66818 6.09482 6.92632
#
# Compressibility (1/GPa) = 0.02264900
#
# Stress axis : x y z
#
# Youngs Moduli (GPa) = 92.03497 94.24420 84.10843
#
# Poissons Ratio (x) = -0.12783 0.35148
# Poissons Ratio (y) = -0.12483 0.21328
# Poissons Ratio (z) = 0.38461 0.23898
#
# Static dielectric constant tensor:
#      x y z
#    x 1.786720 0.000000 0.000000 
#    y 0.000000 1.707760 0.000000 
#    z 0.000000 0.000000 1.784140 
# 
# From -- ./inp_files/4684.got.cif
#   From: 2010.05.17/outbox.cif.g08.bks.cpg/sg23_3_cif.got.tgz:4684.got - 2010.06.04 12:02:01.
