data_PCOD9332166
_publ_section_title
;
Structure prediction by ZEFSAII (Michael W. Deem and Ramdas Pophale) SiO2 
 PCOD9332166
Probable space group: I 2 2 2
;
_chemical_formula_sum "Si O2"
_cell_formula_units_Z 64
_cell_length_a 9.294365
_cell_length_b 10.758218
_cell_length_c 28.681969
_cell_angle_alpha 90.000000
_cell_angle_beta 90.000000
_cell_angle_gamma 90.000000
_cell_volume 2867.933165
_symmetry_space_group_name_H-M "I 2 2 2"
_symmetry_group_IT_number 23
_symmetry_cell_setting 'orthorhombic'
loop_
_space_group_symop_operation_xyz
x,y,z
-x,-y,z
x,-y,-z
-x,y,-z
1/2+x,1/2+y,1/2+z
1/2-x,1/2-y,1/2+z
1/2+x,1/2-y,1/2-z
1/2-x,1/2+y,1/2-z
loop_
_atom_site_type_symbol
_atom_site_label
_atom_site_fract_x
_atom_site_fract_y
_atom_site_fract_z
Si Si1 0.544225 0.858866 0.131141
Si Si2 0.626506 0.759351 0.778534
Si Si3 0.683998 0.794198 0.621046
Si Si4 0.408275 0.384009 0.275492
Si Si5 0.170049 0.038229 0.346472
Si Si6 0.920041 0.120446 0.117839
Si Si7 0.337666 0.145126 0.512945
Si Si8 0.326528 0.267190 0.927734
O O1 0.463901 0.817144 0.178620
O O2 0.709778 0.819666 0.134220
O O3 0.482167 0.779500 0.087782
O O4 0.500000 0.000000 0.123685
O O5 0.516550 0.725654 0.737803
O O6 0.751786 0.845519 0.758329
O O7 0.694662 0.636341 0.804163
O O8 0.524703 0.738599 0.624058
O O9 0.695137 0.832022 0.566752
O O10 0.734552 0.913874 0.650593
O O11 0.500000 0.500000 0.257128
O O12 0.378220 0.410893 0.329384
O O13 0.199768 0.114379 0.394105
O O14 0.000000 0.000000 0.346261
O O15 0.782979 0.160758 0.089132
O O16 0.000000 0.000000 0.097645
O O17 0.500000 0.192545 0.500000
O O18 0.215728 0.203928 0.480120
O O19 0.339006 0.000000 0.500000
#
# Coordination Sequence:
#
# PCOD9332166 Si02
#       8
#     8   8   8   8   8   8   8   8
#     4  11  25  45  69  95 137 186 227 273 341 419
#     4  11  25  45  70 102 139 177 227 291 342 414
#     4  12  24  40  73 102 129 188 225 276 358 407
#     4  11  26  44  69 101 139 181 227 286 344 415
#     4  11  21  42  65 100 136 170 214 281 348 405
#     4  11  24  44  66  94 135 183 231 273 341 412
#     4  11  23  39  64 103 138 168 225 291 349 410
#     4  11  21  44  66  94 140 171 223 288 338 407
#
# _framework density 22.315722000000001
#
# number of rings (size 3 to 8) (size 9 to 14) (size 15 to 20)
#    0.000    0.875    7.500    1.125    3.500    1.000 
#    0.000    6.250    0.000    0.000    0.000    0.000 
#    0.000    0.000    0.000    0.000    0.000    0.000 
#
# Total GULP energy -178771.295979 kJ/mol
# GULP energy per Si atom -5586.602999 kJ/mol
# Density = 2.226493 g / cm^3
# Si number density = 22.315722 Si / 1000 Ang^3
#
#
#
# Elastic Constant Matrix: (Units=GPa)
#
#
# Indices 1 2 3 4 5 6 
#
# 1 69.4950 -2.1193 0.0805 0.0000 0.0000 0.0000
# 2 -2.1193 63.9033 14.6069 0.0000 0.0000 0.0000
# 3 0.0805 14.6069 78.1652 0.0000 0.0000 0.0000
# 4 0.0000 0.0000 0.0000 5.6326 0.0000 0.0000
# 5 0.0000 0.0000 0.0000 0.0000 25.8275 0.0000
# 6 0.0000 0.0000 0.0000 0.0000 0.0000 40.7605
#
#
#
# Elastic Compliance Matrix: (Units=1/GPa)
#
#
# Indices 1 2 3 4 5 6 
#
# 1 0.014405 0.000503 -0.000109 0.000000 0.000000 0.000000
# 2 0.000503 0.016364 -0.003059 0.000000 0.000000 0.000000
# 3 -0.000109 -0.003059 0.013365 0.000000 0.000000 0.000000
# 4 0.000000 0.000000 0.000000 0.177539 0.000000 0.000000
# 5 0.000000 0.000000 0.000000 0.000000 0.038718 0.000000
# 6 0.000000 0.000000 0.000000 0.000000 0.000000 0.024534
#
#
# Mechanical properties :
#
#
# Convention : Reuss Voigt Hill
#
# Bulk Modulus (GPa) = 25.76986 26.29997 26.03491
# Shear Modulus (GPa) = 16.49132 27.71047 22.10089
#
# Velocity S-wave (km/s) = 2.72140 3.52767 3.15043
# Velocity P-wave (km/s) = 4.63116 5.32950 4.99255
#
# Compressibility (1/GPa) = 0.03880502
#
# Stress axis : x y z
#
# Youngs Moduli (GPa) = 69.42047 61.10811 74.82176
#
# Poissons Ratio (x) = -0.03071 0.00814
# Poissons Ratio (y) = -0.03489 0.22885
# Poissons Ratio (z) = 0.00755 0.18690
#
# Static dielectric constant tensor:
#      x y z
#    x 1.820710 0.000000 0.000000 
#    y 0.000000 1.877240 0.000000 
#    z 0.000000 0.000000 1.777880 
# 
# From -- ./inp_files/30339.got.cif
#   From: 2010.05.17/outbox.cif.g08.bks.cpg/sg23_16_cif.got.tgz:30339.got - 2010.06.04 12:02:01.
