data_PCOD9332813
_publ_section_title
;
Structure prediction by ZEFSAII (Michael W. Deem and Ramdas Pophale) SiO2 
 PCOD9332813
Probable space group: I 21 21 21
;
_chemical_formula_sum "Si O2"
_cell_formula_units_Z 48
_cell_length_a 21.012139
_cell_length_b 13.716891
_cell_length_c 9.207297
_cell_angle_alpha 90.000000
_cell_angle_beta 90.000000
_cell_angle_gamma 90.000000
_cell_volume 2653.738377
_symmetry_space_group_name_H-M "I 21 21 21"
_symmetry_group_IT_number 24
_symmetry_cell_setting 'orthorhombic'
loop_
_space_group_symop_operation_xyz
x,y,z
-x,1/2-y,z
x,-y,1/2-z
1/2-x,y,-z
1/2+x,1/2+y,1/2+z
1/2-x,-y,1/2+z
1/2+x,1/2-y,-z
-x,1/2+y,1/2-z
loop_
_atom_site_type_symbol
_atom_site_label
_atom_site_fract_x
_atom_site_fract_y
_atom_site_fract_z
Si Si1 0.189484 0.946917 0.399185
Si Si2 0.077627 0.261414 0.743125
Si Si3 0.464455 0.589537 0.639761
Si Si4 0.952900 0.949444 0.902491
Si Si5 0.403486 0.933995 0.104659
Si Si6 0.590534 0.282942 0.918691
O O1 0.250000 0.929367 0.500000
O O2 0.151084 0.846533 0.375179
O O3 0.207301 0.000000 0.250000
O O4 0.141995 0.018453 0.487277
O O5 0.087659 0.356464 0.643642
O O6 0.111709 0.172854 0.662490
O O7 0.000000 0.250000 0.743759
O O8 0.094958 0.254008 0.913670
O O9 0.475073 0.500000 0.750000
O O10 0.428964 0.532071 0.510171
O O11 0.530608 0.641187 0.589979
O O12 0.424041 0.686751 0.677889
O O13 0.024372 0.924905 0.956667
O O14 0.964572 0.000000 0.750000
O O15 0.402254 0.000000 0.250000
#
# Coordination Sequence:
#
# PCOD9332813 Si02
#       6
#     8   8   8   8   8   8
#     4  12  26  41  60  84 113 155 201 248 300 353
#     4  10  17  30  56  86 117 158 194 223 281 352
#     4  11  21  34  56  88 125 154 187 233 299 358
#     4  10  17  30  52  85 116 155 192 225 269 351
#     4  10  18  32  54  78 118 151 187 232 278 339
#     4  11  20  38  57  80 122 162 188 237 295 357
#
# _framework density 18.087692000000001
#
# number of rings (size 3 to 8) (size 9 to 14) (size 15 to 20)
#    0.000    1.333    6.667    2.000    0.000    1.333 
#    6.000    0.000    0.000    0.000    4.333    0.000 
#    0.000    0.000    0.000    0.000    0.000    0.000 
#
# Total GULP energy -133622.724584 kJ/mol
# GULP energy per Si atom -5567.613524 kJ/mol
# Density = 1.804652 g / cm^3
# Si number density = 18.087692 Si / 1000 Ang^3
#
#
#
# Elastic Constant Matrix: (Units=GPa)
#
#
# Indices 1 2 3 4 5 6 
#
# 1 43.9998 32.2640 9.1251 0.0000 0.0000 0.0000
# 2 32.2640 157.7427 39.9317 0.0000 0.0000 0.0000
# 3 9.1251 39.9317 62.7566 0.0000 0.0000 0.0000
# 4 0.0000 0.0000 0.0000 32.3862 0.0000 0.0000
# 5 0.0000 0.0000 0.0000 0.0000 11.3828 0.0000
# 6 0.0000 0.0000 0.0000 0.0000 0.0000 -0.6904
#
#
#
# Elastic Compliance Matrix: (Units=1/GPa)
#
#
# Indices 1 2 3 4 5 6 
#
# 1 0.026750 -0.005348 -0.000487 0.000000 0.000000 0.000000
# 2 -0.005348 0.008626 -0.004711 0.000000 0.000000 0.000000
# 3 -0.000487 -0.004711 0.019003 0.000000 0.000000 0.000000
# 4 0.000000 0.000000 0.000000 0.030877 0.000000 0.000000
# 5 0.000000 0.000000 0.000000 0.000000 0.087852 0.000000
# 6 0.000000 0.000000 0.000000 0.000000 0.000000 -1.448519
#
#
# Mechanical properties :
#
#
# Convention : Reuss Voigt Hill
#
# Bulk Modulus (GPa) = 30.04139 47.46007 38.75073
# Shear Modulus (GPa) = -4.02180 20.82763 8.40291
#
# Velocity S-wave (km/s) = -1.49276 3.39703 2.15772
# Velocity P-wave (km/s) = 3.69780 6.45618 5.26099
#
# Compressibility (1/GPa) = 0.03328741
#
# Stress axis : x y z
#
# Youngs Moduli (GPa) = 37.38324 115.93019 52.62354
#
# Poissons Ratio (x) = 0.62001 0.02560
# Poissons Ratio (y) = 0.19993 0.24791
# Poissons Ratio (z) = 0.01819 0.54614
#
# Static dielectric constant tensor:
#      x y z
#    x 1.617430 0.000000 0.000000 
#    y 0.000000 1.630950 0.000000 
#    z 0.000000 0.000000 1.700520 
# 
# From -- ./inp_files/15105.got.cif
#   From: 2010.05.17/outbox.cif.g08.bks.cpg/sg24_8_cif.got.tgz:15105.got - 2010.06.04 00:33:39.
