data_PCOD9332885
_publ_section_title
;
Structure prediction by ZEFSAII (Michael W. Deem and Ramdas Pophale) SiO2 
 PCOD9332885
Probable space group: I 21 21 21
;
_chemical_formula_sum "Si O2"
_cell_formula_units_Z 36
_cell_length_a 5.656707
_cell_length_b 22.757486
_cell_length_c 13.778645
_cell_angle_alpha 90.000000
_cell_angle_beta 90.000000
_cell_angle_gamma 90.000000
_cell_volume 1773.758458
_symmetry_space_group_name_H-M "I 21 21 21"
_symmetry_group_IT_number 24
_symmetry_cell_setting 'orthorhombic'
loop_
_space_group_symop_operation_xyz
x,y,z
-x,1/2-y,z
x,-y,1/2-z
1/2-x,y,-z
1/2+x,1/2+y,1/2+z
1/2-x,-y,1/2+z
1/2+x,1/2-y,-z
-x,1/2+y,1/2-z
loop_
_atom_site_type_symbol
_atom_site_label
_atom_site_fract_x
_atom_site_fract_y
_atom_site_fract_z
Si Si1 0.250000 0.408910 0.500000
Si Si2 0.684142 0.163900 0.213106
Si Si3 0.000000 0.750000 0.162925
Si Si4 0.670504 0.650530 0.115429
Si Si5 0.500000 0.250000 0.053123
Si Si6 0.048950 0.560093 0.197245
O O1 0.478356 0.369593 0.466043
O O2 0.201325 0.445652 0.402251
O O3 0.473044 0.165356 0.288554
O O4 0.585900 0.193534 0.116200
O O5 0.806632 0.100180 0.224889
O O6 0.871101 0.206268 0.264171
O O7 0.175323 0.790553 0.101088
O O8 0.829853 0.596231 0.152604
O O9 0.750000 0.266084 0.000000
O O10 0.986103 0.500000 0.250000
#
# Coordination Sequence:
#
# PCOD9332885 Si02
#       6
#     4   8   4   8   4   8
#     4  10  22  42  66 100 134 170 230 290 340 414
#     4  10  21  40  67  93 135 180 225 282 352 411
#     4  10  17  36  70  93 130 188 218 273 352 435
#     4  10  20  37  71  90 138 175 228 278 344 422
#     4  12  25  40  70 107 148 184 236 301 352 429
#     4  10  23  43  71  94 134 185 228 287 347 413
#
# _framework density 20.295884999999998
#
# number of rings (size 3 to 8) (size 9 to 14) (size 15 to 20)
#    0.000    1.778    2.222    1.333    3.111    3.556 
#    2.000    0.000  176.000    0.000    0.000    0.000 
#    0.000    0.000    0.000    0.000    0.000    0.000 
#
# Total GULP energy -100213.991377 kJ/mol
# GULP energy per Si atom -5567.443965 kJ/mol
# Density = 2.024969 g / cm^3
# Si number density = 20.295885 Si / 1000 Ang^3
#
#
#
# Elastic Constant Matrix: (Units=GPa)
#
#
# Indices 1 2 3 4 5 6 
#
# 1 108.1228 42.0771 40.5140 0.0000 0.0000 0.0000
# 2 42.0771 101.9434 35.5405 0.0000 0.0000 0.0000
# 3 40.5140 35.5405 92.2677 0.0002 0.0000 0.0000
# 4 0.0000 0.0000 0.0002 33.9682 0.0000 0.0000
# 5 0.0000 0.0000 0.0000 0.0000 96.6446 0.0000
# 6 0.0000 0.0000 0.0000 0.0000 0.0000 11.5039
#
#
#
# Elastic Compliance Matrix: (Units=1/GPa)
#
#
# Indices 1 2 3 4 5 6 
#
# 1 0.012137 -0.003640 -0.003927 0.000000 0.000000 0.000000
# 2 -0.003640 0.012423 -0.003187 0.000000 0.000000 0.000000
# 3 -0.003927 -0.003187 0.013790 0.000000 0.000000 0.000000
# 4 0.000000 0.000000 0.000000 0.029439 0.000000 0.000000
# 5 0.000000 0.000000 0.000000 0.000000 0.010347 0.000000
# 6 0.000000 0.000000 0.000000 0.000000 0.000000 0.086927
#
#
# Mechanical properties :
#
#
# Convention : Reuss Voigt Hill
#
# Bulk Modulus (GPa) = 59.37732 59.84415 59.61073
# Shear Modulus (GPa) = 26.01661 40.70350 33.36005
#
# Velocity S-wave (km/s) = 3.58420 4.48314 4.05864
# Velocity P-wave (km/s) = 6.81528 7.50653 7.16924
#
# Compressibility (1/GPa) = 0.01684145
#
# Stress axis : x y z
#
# Youngs Moduli (GPa) = 82.39332 80.49626 72.51739
#
# Poissons Ratio (x) = 0.29304 0.28477
# Poissons Ratio (y) = 0.29995 0.23109
# Poissons Ratio (z) = 0.32355 0.25652
#
# Static dielectric constant tensor:
#      x y z
#    x 1.795090 0.000000 0.000000 
#    y 0.000000 1.671710 0.000000 
#    z 0.000000 0.000000 1.752740 
# 
# From -- ./inp_files/23647.got.cif
#   From: 2010.05.17/outbox.cif.g08.bks.cpg/sg24_12_cif.got.tgz:23647.got - 2010.06.04 00:33:39.
