data_PCOD9332080
_publ_section_title
;
Structure prediction by ZEFSAII (Michael W. Deem and Ramdas Pophale) SiO2 
 PCOD9332080
Probable space group: I 2 2 2
;
_chemical_formula_sum "Si O2"
_cell_formula_units_Z 48
_cell_length_a 6.467621
_cell_length_b 25.912260
_cell_length_c 14.682248
_cell_angle_alpha 90.000000
_cell_angle_beta 90.000000
_cell_angle_gamma 90.000000
_cell_volume 2460.607881
_symmetry_space_group_name_H-M "I 2 2 2"
_symmetry_group_IT_number 23
_symmetry_cell_setting 'orthorhombic'
loop_
_space_group_symop_operation_xyz
x,y,z
-x,-y,z
x,-y,-z
-x,y,-z
1/2+x,1/2+y,1/2+z
1/2-x,1/2-y,1/2+z
1/2+x,1/2-y,1/2-z
1/2-x,1/2+y,1/2-z
loop_
_atom_site_type_symbol
_atom_site_label
_atom_site_fract_x
_atom_site_fract_y
_atom_site_fract_z
Si Si1 0.111757 0.198425 0.807658
Si Si2 0.255018 0.129517 0.269832
Si Si3 0.262519 0.756227 0.376715
Si Si4 0.114421 0.364502 0.092486
Si Si5 0.502327 0.153296 0.898627
Si Si6 0.476505 0.438644 0.106817
O O1 0.222777 0.231900 0.730305
O O2 0.276502 0.162115 0.856578
O O3 0.934265 0.167172 0.754201
O O4 0.992509 0.232838 0.881554
O O5 0.439961 0.150179 0.333527
O O6 0.362436 0.120421 0.172432
O O7 0.152127 0.084479 0.328332
O O8 0.254363 0.812010 0.423972
O O9 0.106942 0.710722 0.403747
O O10 0.259119 0.410474 0.129624
O O11 0.000000 0.380226 0.000000
O O12 0.500000 0.131891 0.000000
O O13 0.500000 0.500000 0.112987
O O14 0.500000 0.424500 0.000000
#
# Coordination Sequence:
#
# PCOD9332080 Si02
#       6
#     8   8   8   8   8   8
#     4  11  20  37  57  84 124 167 218 264 314 377
#     4  11  22  41  62  86 126 170 209 272 327 385
#     4  11  21  33  57  83 126 170 213 260 309 380
#     4  12  24  38  61  94 130 172 214 260 327 393
#     4  11  25  38  58  91 130 177 224 267 318 388
#     4  11  24  43  65  95 128 163 216 272 337 406
#
# _framework density 19.507376000000001
#
# number of rings (size 3 to 8) (size 9 to 14) (size 15 to 20)
#    0.000    0.833    6.667    1.000    2.333    3.333 
#    0.000    0.000    0.000    0.000    0.000   16.333 
#    0.000    0.000    0.000    0.000    0.000    0.000 
#
# Total GULP energy -133948.500684 kJ/mol
# GULP energy per Si atom -5581.187529 kJ/mol
# Density = 1.946298 g / cm^3
# Si number density = 19.507376 Si / 1000 Ang^3
#
#
#
# Elastic Constant Matrix: (Units=GPa)
#
#
# Indices 1 2 3 4 5 6 
#
# 1 103.6446 35.2435 36.9983 0.0000 0.0000 0.0000
# 2 35.2435 78.6814 22.8658 0.0000 0.0000 0.0000
# 3 36.9983 22.8658 117.3882 -0.0001 0.0000 0.0000
# 4 0.0000 0.0000 -0.0001 22.3865 0.0000 0.0000
# 5 0.0000 0.0000 0.0000 0.0000 31.4536 0.0000
# 6 0.0000 0.0000 0.0000 0.0000 0.0000 15.6947
#
#
#
# Elastic Compliance Matrix: (Units=1/GPa)
#
#
# Indices 1 2 3 4 5 6 
#
# 1 0.012286 -0.004641 -0.002968 0.000000 0.000000 0.000000
# 2 -0.004641 0.015225 -0.001503 0.000000 0.000000 0.000000
# 3 -0.002968 -0.001503 0.009747 0.000000 0.000000 0.000000
# 4 0.000000 0.000000 0.000000 0.044670 0.000000 0.000000
# 5 0.000000 0.000000 0.000000 0.000000 0.031793 0.000000
# 6 0.000000 0.000000 0.000000 0.000000 0.000000 0.063716
#
#
# Mechanical properties :
#
#
# Convention : Reuss Voigt Hill
#
# Bulk Modulus (GPa) = 52.53737 54.43662 53.48700
# Shear Modulus (GPa) = 24.75187 27.54740 26.14963
#
# Velocity S-wave (km/s) = 3.56595 3.76194 3.66526
# Velocity P-wave (km/s) = 6.62912 6.84367 6.73725
#
# Compressibility (1/GPa) = 0.01903407
#
# Stress axis : x y z
#
# Youngs Moduli (GPa) = 81.39370 65.68177 102.59485
#
# Poissons Ratio (x) = 0.30480 0.30454
# Poissons Ratio (y) = 0.37771 0.15420
# Poissons Ratio (z) = 0.24161 0.09872
#
# Static dielectric constant tensor:
#      x y z
#    x 1.741840 0.000000 0.000000 
#    y 0.000000 1.669320 0.000000 
#    z 0.000000 0.000000 1.712760 
# 
# From -- ./inp_files/19222.got.cif
#   From: 2010.05.17/outbox.cif.g08.bks.cpg/sg23_10_cif.got.tgz:19222.got - 2010.06.04 12:02:01.
