data_PCOD9332228
_publ_section_title
;
Structure prediction by ZEFSAII (Michael W. Deem and Ramdas Pophale) SiO2 
 PCOD9332228
Probable space group: I 2 2 2
;
_chemical_formula_sum "Si O2"
_cell_formula_units_Z 56
_cell_length_a 11.086618
_cell_length_b 13.994238
_cell_length_c 15.408537
_cell_angle_alpha 90.000000
_cell_angle_beta 90.000000
_cell_angle_gamma 90.000000
_cell_volume 2390.615577
_symmetry_space_group_name_H-M "I 2 2 2"
_symmetry_group_IT_number 23
_symmetry_cell_setting 'orthorhombic'
loop_
_space_group_symop_operation_xyz
x,y,z
-x,-y,z
x,-y,-z
-x,y,-z
1/2+x,1/2+y,1/2+z
1/2-x,1/2-y,1/2+z
1/2+x,1/2-y,1/2-z
1/2-x,1/2+y,1/2-z
loop_
_atom_site_type_symbol
_atom_site_label
_atom_site_fract_x
_atom_site_fract_y
_atom_site_fract_z
Si Si1 0.865500 0.853337 0.994757
Si Si2 0.279756 0.104372 0.162671
Si Si3 0.628138 0.435814 0.688022
Si Si4 0.020617 0.267174 0.591690
Si Si5 0.847173 0.078323 0.378905
Si Si6 0.185498 0.139860 0.345486
Si Si7 0.863132 0.632369 0.001054
O O1 0.846831 0.867936 0.893017
O O2 0.865254 0.744210 0.024980
O O3 0.780540 0.899490 0.066864
O O4 0.000000 0.892904 0.000000
O O5 0.403282 0.160817 0.150743
O O6 0.209506 0.152782 0.243281
O O7 0.252570 0.997215 0.193418
O O8 0.500000 0.500000 0.680529
O O9 0.626563 0.386033 0.781074
O O10 0.091172 0.166982 0.570396
O O11 0.000000 0.317683 0.500000
O O12 0.896305 0.228370 0.628111
O O13 0.717742 0.079607 0.426800
O O14 0.877065 0.964113 0.369751
O O15 0.303020 0.133708 0.405810
O O16 0.000000 0.600081 0.000000
#
# Coordination Sequence:
#
# PCOD9332228 Si02
#       7
#     8   8   8   8   8   8   8
#     4  11  22  39  68 103 140 181 238 297 362 423
#     4  11  24  42  65 109 140 184 246 304 372 423
#     4  11  23  42  73 109 140 190 248 315 360 430
#     4  12  24  44  70 104 148 192 240 303 363 439
#     4  11  23  43  68 107 139 182 249 296 363 433
#     4  11  25  44  70 101 144 193 242 302 365 437
#     4  11  25  43  70 105 142 190 235 301 368 442
#
# _framework density 23.424928999999999
#
# number of rings (size 3 to 8) (size 9 to 14) (size 15 to 20)
#    0.000    0.857    4.286    3.000    2.000    2.857 
#    0.000    0.000    0.000    6.000    0.000    0.000 
#    0.000    0.000    0.000    0.000    0.000    0.000 
#
# Total GULP energy -155933.173440 kJ/mol
# GULP energy per Si atom -5569.041909 kJ/mol
# Density = 2.337161 g / cm^3
# Si number density = 23.424929 Si / 1000 Ang^3
#
#
#
# Elastic Constant Matrix: (Units=GPa)
#
#
# Indices 1 2 3 4 5 6 
#
# 1 107.5870 20.2690 48.6717 0.0000 0.0000 0.0000
# 2 20.2690 63.7612 0.8153 0.0000 0.0000 0.0000
# 3 48.6717 0.8153 132.3908 0.0000 0.0000 0.0000
# 4 0.0000 0.0000 0.0000 15.7305 0.0000 0.0000
# 5 0.0000 0.0000 0.0000 0.0000 34.1104 0.0000
# 6 0.0000 0.0000 0.0000 0.0000 0.0000 16.9343
#
#
#
# Elastic Compliance Matrix: (Units=1/GPa)
#
#
# Indices 1 2 3 4 5 6 
#
# 1 0.011985 -0.003754 -0.004383 0.000000 0.000000 0.000000
# 2 -0.003754 0.016860 0.001276 0.000000 0.000000 0.000000
# 3 -0.004383 0.001276 0.009157 0.000000 0.000000 0.000000
# 4 0.000000 0.000000 0.000000 0.063571 0.000000 0.000000
# 5 0.000000 0.000000 0.000000 0.000000 0.029317 0.000000
# 6 0.000000 0.000000 0.000000 0.000000 0.000000 0.059052
#
#
# Mechanical properties :
#
#
# Convention : Reuss Voigt Hill
#
# Bulk Modulus (GPa) = 41.18429 49.25011 45.21720
# Shear Modulus (GPa) = 23.61210 28.95392 26.28301
#
# Velocity S-wave (km/s) = 3.17833 3.51954 3.35328
# Velocity P-wave (km/s) = 5.57572 6.13078 5.85982
#
# Compressibility (1/GPa) = 0.02428110
#
# Stress axis : x y z
#
# Youngs Moduli (GPa) = 83.43885 59.31025 109.20766
#
# Poissons Ratio (x) = 0.22264 0.47865
# Poissons Ratio (y) = 0.31321 -0.13937
# Poissons Ratio (z) = 0.36571 -0.07569
#
# Static dielectric constant tensor:
#      x y z
#    x 1.994230 0.000000 0.000000 
#    y 0.000000 1.928780 0.000000 
#    z 0.000000 0.000000 1.940600 
# 
# From -- ./inp_files/20912.got.cif
#   From: 2010.05.17/outbox.cif.g08.bks.cpg/sg23_11_cif.got.tgz:20912.got - 2010.06.04 12:02:01.
