data_PCOD9332622
_publ_section_title
;
Structure prediction by ZEFSAII (Michael W. Deem and Ramdas Pophale) SiO2 
 PCOD9332622
Probable space group: I 2 2 2
;
_chemical_formula_sum "Si O2"
_cell_formula_units_Z 40
_cell_length_a 12.982896
_cell_length_b 21.701445
_cell_length_c 7.337943
_cell_angle_alpha 90.000000
_cell_angle_beta 90.000000
_cell_angle_gamma 90.000000
_cell_volume 2067.447855
_symmetry_space_group_name_H-M "I 2 2 2"
_symmetry_group_IT_number 23
_symmetry_cell_setting 'orthorhombic'
loop_
_space_group_symop_operation_xyz
x,y,z
-x,-y,z
x,-y,-z
-x,y,-z
1/2+x,1/2+y,1/2+z
1/2-x,1/2-y,1/2+z
1/2+x,1/2-y,1/2-z
1/2-x,1/2+y,1/2-z
loop_
_atom_site_type_symbol
_atom_site_label
_atom_site_fract_x
_atom_site_fract_y
_atom_site_fract_z
Si Si1 0.131241 0.700667 0.672509
Si Si2 0.147797 0.834129 0.236317
Si Si3 0.910843 0.302013 0.240306
Si Si4 0.982223 0.070021 0.721037
Si Si5 0.190912 0.838124 0.663699
O O1 0.233707 0.660152 0.681432
O O2 0.105052 0.702303 0.458827
O O3 0.161418 0.769946 0.739317
O O4 0.029965 0.679411 0.781632
O O5 0.105830 0.767935 0.172061
O O6 0.069746 0.887711 0.189099
O O7 0.153883 0.833751 0.455736
O O8 0.814719 0.341994 0.170275
O O9 0.000000 0.069626 0.500000
O O10 0.873529 0.105653 0.748845
O O11 0.000000 0.000000 0.780055
#
# Coordination Sequence:
#
# PCOD9332622 Si02
#       5
#     8   8   8   8   8
#     4   9  16  27  43  63  90 117 139 174 221 263
#     4   9  16  27  43  65  89 112 144 179 214 258
#     4   9  16  27  43  63  90 117 139 174 221 263
#     4   9  16  28  47  67  89 117 146 179 218 258
#     4   9  16  27  43  65  89 112 144 179 214 258
#
# _framework density 19.347524
#
# number of rings (size 3 to 8) (size 9 to 14) (size 15 to 20)
#    0.000    3.000    2.000    0.000    0.000    0.800 
#    0.000    1.000    0.000    3.600    0.000    8.400 
#    0.000    0.000    0.000    0.000    0.000    0.000 
#
# Total GULP energy -111448.262649 kJ/mol
# GULP energy per Si atom -5572.413132 kJ/mol
# Density = 1.930349 g / cm^3
# Si number density = 19.347524 Si / 1000 Ang^3
#
#
#
# Elastic Constant Matrix: (Units=GPa)
#
#
# Indices 1 2 3 4 5 6 
#
# 1 160.4649 60.2650 -13.9624 -0.0002 -0.0001 0.0001
# 2 60.2650 87.1686 -5.4089 -0.0002 0.0000 0.0000
# 3 -13.9624 -5.4089 35.9352 0.0027 0.0000 0.0010
# 4 -0.0002 -0.0002 0.0027 6.4649 0.0000 0.0002
# 5 -0.0001 0.0000 0.0000 0.0000 26.5336 0.0002
# 6 0.0001 0.0000 0.0010 0.0002 0.0002 19.3438
#
#
#
# Elastic Compliance Matrix: (Units=1/GPa)
#
#
# Indices 1 2 3 4 5 6 
#
# 1 0.008631 -0.005813 0.002478 -0.000001 0.000000 0.000000
# 2 -0.005813 0.015496 0.000074 0.000000 0.000000 0.000000
# 3 0.002478 0.000074 0.028802 -0.000012 0.000000 -0.000002
# 4 -0.000001 0.000000 -0.000012 0.154680 0.000000 -0.000001
# 5 0.000000 0.000000 0.000000 0.000000 0.037688 0.000000
# 6 0.000000 0.000000 -0.000002 -0.000001 0.000000 0.051696
#
#
# Mechanical properties :
#
#
# Convention : Reuss Voigt Hill
#
# Bulk Modulus (GPa) = 21.54887 40.59514 31.07200
# Shear Modulus (GPa) = 15.67479 26.64681 21.16080
#
# Velocity S-wave (km/s) = 2.84944 3.71519 3.31073
# Velocity P-wave (km/s) = 4.68910 6.27942 5.54161
#
# Compressibility (1/GPa) = 0.04640615
#
# Stress axis : x y z
#
# Youngs Moduli (GPa) = 115.86444 64.53439 34.71993
#
# Poissons Ratio (x) = 0.37515 -0.08605
# Poissons Ratio (y) = 0.67354 -0.00256
# Poissons Ratio (z) = -0.28716 -0.00476
#
# Static dielectric constant tensor:
#      x y z
#    x 1.728670 0.000000 0.000000 
#    y 0.000000 1.637810 0.000000 
#    z 0.000000 0.000000 1.790910 
# 
# From -- ./inp_files/8432.got.cif
#   From: 2010.05.17/outbox.cif.g08.bks.cpg/sg23_5_cif.got.tgz:8432.got - 2010.06.04 12:02:01.
