data_PCOD9332052
_publ_section_title
;
Structure prediction by ZEFSAII (Michael W. Deem and Ramdas Pophale) SiO2 
 PCOD9332052
Probable space group: I 2 2 2
;
_chemical_formula_sum "Si O2"
_cell_formula_units_Z 64
_cell_length_a 9.581767
_cell_length_b 22.287926
_cell_length_c 18.878054
_cell_angle_alpha 90.000000
_cell_angle_beta 90.000000
_cell_angle_gamma 90.000000
_cell_volume 4031.554054
_symmetry_space_group_name_H-M "I 2 2 2"
_symmetry_group_IT_number 23
_symmetry_cell_setting 'orthorhombic'
loop_
_space_group_symop_operation_xyz
x,y,z
-x,-y,z
x,-y,-z
-x,y,-z
1/2+x,1/2+y,1/2+z
1/2-x,1/2-y,1/2+z
1/2+x,1/2-y,1/2-z
1/2-x,1/2+y,1/2-z
loop_
_atom_site_type_symbol
_atom_site_label
_atom_site_fract_x
_atom_site_fract_y
_atom_site_fract_z
Si Si1 0.168450 0.808905 0.276347
Si Si2 0.537383 0.566204 0.582483
Si Si3 0.334747 0.260665 0.078893
Si Si4 0.332718 0.690096 0.226426
Si Si5 0.465290 0.069914 0.918656
Si Si6 0.170209 0.761208 0.580867
Si Si7 0.288693 0.635253 0.637419
Si Si8 0.783661 0.367854 0.358741
O O1 0.194588 0.810022 0.360491
O O2 0.249636 0.749218 0.251754
O O3 0.222773 0.859215 0.222373
O O4 0.000535 0.803389 0.265254
O O5 0.500000 0.500000 0.609634
O O6 0.500000 0.567626 0.500000
O O7 0.445722 0.617273 0.619597
O O8 0.695591 0.583383 0.597877
O O9 0.502671 0.251221 0.080236
O O10 0.270947 0.196882 0.103104
O O11 0.290165 0.276557 0.999535
O O12 0.303726 0.689453 0.142029
O O13 0.273537 0.639390 0.278957
O O14 0.307398 0.085268 0.898951
O O15 0.558214 0.110320 0.866161
O O16 0.500000 0.000000 0.911057
O O17 0.500000 0.087473 0.000000
O O18 0.243647 0.699066 0.604010
#
# Coordination Sequence:
#
# PCOD9332052 Si02
#       8
#     8   8   8   8   8   8   8   8
#     4   9  18  30  46  69  93 122 155 187 229 281
#     4  11  22  32  43  62  91 123 154 193 236 272
#     4   9  16  28  48  69  90 118 153 186 220 270
#     4   9  18  30  46  69  93 122 155 187 229 281
#     4  11  22  34  49  68  89 123 172 207 226 266
#     4   9  16  28  48  69  90 118 153 186 220 270
#     4  11  19  32  47  65  93 124 157 192 235 277
#     4  11  19  32  47  65  93 124 157 192 235 277
#
# _framework density 15.874772
#
# number of rings (size 3 to 8) (size 9 to 14) (size 15 to 20)
#    0.000    2.000    2.500    3.000    1.750    2.000 
#    0.000    0.000    0.000    0.000    0.000    0.000 
#    0.000    6.000    0.000    0.000    0.000    0.000 
#
# Total GULP energy -178191.179683 kJ/mol
# GULP energy per Si atom -5568.474365 kJ/mol
# Density = 1.583864 g / cm^3
# Si number density = 15.874772 Si / 1000 Ang^3
#
#
#
# Elastic Constant Matrix: (Units=GPa)
#
#
# Indices 1 2 3 4 5 6 
#
# 1 28.5813 -2.9701 10.0858 0.0000 0.0000 0.0000
# 2 -2.9701 26.6036 24.8843 0.0000 0.0000 0.0000
# 3 10.0858 24.8843 130.8250 0.0000 0.0000 0.0000
# 4 0.0000 0.0000 0.0000 15.1947 0.0000 0.0000
# 5 0.0000 0.0000 0.0000 0.0000 22.6628 0.0000
# 6 0.0000 0.0000 0.0000 0.0000 0.0000 14.9369
#
#
#
# Elastic Compliance Matrix: (Units=1/GPa)
#
#
# Indices 1 2 3 4 5 6 
#
# 1 0.037438 0.008368 -0.004478 0.000000 0.000000 0.000000
# 2 0.008368 0.047594 -0.009698 0.000000 0.000000 0.000000
# 3 -0.004478 -0.009698 0.009834 0.000000 0.000000 0.000000
# 4 0.000000 0.000000 0.000000 0.065812 0.000000 0.000000
# 5 0.000000 0.000000 0.000000 0.000000 0.044125 0.000000
# 6 0.000000 0.000000 0.000000 0.000000 0.000000 0.066948
#
#
# Mechanical properties :
#
#
# Convention : Reuss Voigt Hill
#
# Bulk Modulus (GPa) = 12.01200 27.77890 19.89545
# Shear Modulus (GPa) = 16.07109 20.82619 18.44864
#
# Velocity S-wave (km/s) = 3.18522 3.62595 3.41271
# Velocity P-wave (km/s) = 4.59464 5.92172 5.29988
#
# Compressibility (1/GPa) = 0.08325005
#
# Stress axis : x y z
#
# Youngs Moduli (GPa) = 26.71107 21.01084 101.69107
#
# Poissons Ratio (x) = -0.17582 0.45537
# Poissons Ratio (y) = -0.22352 0.98621
# Poissons Ratio (z) = 0.11961 0.20377
#
# Static dielectric constant tensor:
#      x y z
#    x 1.527060 0.000000 0.000000 
#    y 0.000000 1.510990 0.000000 
#    z 0.000000 0.000000 1.577120 
# 
# From -- ./inp_files/12192.got.cif
#   From: 2010.05.17/outbox.cif.g08.bks.cpg/sg23_7_cif.got.tgz:12192.got - 2010.06.04 12:02:01.
