data_PCOD9332561
_publ_section_title
;
Structure prediction by ZEFSAII (Michael W. Deem and Ramdas Pophale) SiO2 
 PCOD9332561
Probable space group: I 2 2 2
;
_chemical_formula_sum "Si O2"
_cell_formula_units_Z 34
_cell_length_a 9.325959
_cell_length_b 8.855500
_cell_length_c 17.074395
_cell_angle_alpha 90.000000
_cell_angle_beta 90.000000
_cell_angle_gamma 90.000000
_cell_volume 1410.106496
_symmetry_space_group_name_H-M "I 2 2 2"
_symmetry_group_IT_number 23
_symmetry_cell_setting 'orthorhombic'
loop_
_space_group_symop_operation_xyz
x,y,z
-x,-y,z
x,-y,-z
-x,y,-z
1/2+x,1/2+y,1/2+z
1/2-x,1/2-y,1/2+z
1/2+x,1/2-y,1/2-z
1/2-x,1/2+y,1/2-z
loop_
_atom_site_type_symbol
_atom_site_label
_atom_site_fract_x
_atom_site_fract_y
_atom_site_fract_z
Si Si1 0.960391 0.751378 0.418911
Si Si2 0.751914 0.795153 0.537732
Si Si3 0.500000 0.000000 0.500000
Si Si4 0.348677 0.579792 0.340232
Si Si5 0.887967 0.615131 0.256671
O O1 0.800927 0.798724 0.446106
O O2 0.960001 0.670209 0.337722
O O3 0.000000 0.664286 0.500000
O O4 0.102065 0.858533 0.420746
O O5 0.722252 0.633381 0.577929
O O6 0.609434 0.891794 0.546033
O O7 0.500000 0.500000 0.353917
O O8 0.253199 0.471044 0.286049
O O9 0.361247 0.737457 0.293934
O O10 0.000000 0.500000 0.218623
#
# Coordination Sequence:
#
# PCOD9332561 Si02
#       5
#     8   8   2   8   8
#     4   8  21  46  73  97 128 194 249 291 341 449
#     4   9  24  45  68 106 140 191 243 295 370 433
#     4  12  24  42  70 112 160 186 224 332 376 426
#     4  12  28  43  72 112 148 196 242 312 375 434
#     4  12  24  49  72 106 147 198 247 299 367 447
#
# _framework density 24.111654000000001
#
# number of rings (size 3 to 8) (size 9 to 14) (size 15 to 20)
#    1.412    0.000    2.353    1.412    4.941    7.059 
#    0.000    0.000    0.000    0.000    0.000    0.000 
#    0.000    0.000    0.000    0.000    0.000    0.000 
#
# Total GULP energy -94729.031731 kJ/mol
# GULP energy per Si atom -5572.295984 kJ/mol
# Density = 2.405677 g / cm^3
# Si number density = 24.111654 Si / 1000 Ang^3
#
#
#
# Elastic Constant Matrix: (Units=GPa)
#
#
# Indices 1 2 3 4 5 6 
#
# 1 178.1404 57.2276 26.1375 0.0000 0.0000 0.0000
# 2 57.2276 96.4011 36.9362 0.0000 0.0000 0.0000
# 3 26.1375 36.9362 69.8777 0.0000 0.0000 0.0000
# 4 0.0000 0.0000 0.0000 -1.5863 0.0000 0.0000
# 5 0.0000 0.0000 0.0000 0.0000 6.6729 0.0000
# 6 0.0000 0.0000 0.0000 0.0000 0.0000 61.2346
#
#
#
# Elastic Compliance Matrix: (Units=1/GPa)
#
#
# Indices 1 2 3 4 5 6 
#
# 1 0.006952 -0.003926 -0.000525 0.000000 0.000000 0.000000
# 2 -0.003926 0.015224 -0.006579 0.000000 0.000000 0.000000
# 3 -0.000525 -0.006579 0.017985 0.000000 0.000000 0.000000
# 4 0.000000 0.000000 0.000000 -0.630394 0.000000 0.000000
# 5 0.000000 0.000000 0.000000 0.000000 0.149861 0.000000
# 6 0.000000 0.000000 0.000000 0.000000 0.000000 0.016331
#
#
# Mechanical properties :
#
#
# Convention : Reuss Voigt Hill
#
# Bulk Modulus (GPa) = 55.24507 65.00243 60.12375
# Shear Modulus (GPa) = -12.62791 28.20542 7.78875
#
# Velocity S-wave (km/s) = -2.29099 3.42392 1.79925
# Velocity P-wave (km/s) = 3.99547 6.53058 5.41351
#
# Compressibility (1/GPa) = 0.01810116
#
# Stress axis : x y z
#
# Youngs Moduli (GPa) = 143.84951 65.68373 55.60262
#
# Poissons Ratio (x) = 0.25785 0.02921
# Poissons Ratio (y) = 0.56469 0.36581
# Poissons Ratio (z) = 0.07556 0.43214
#
# Static dielectric constant tensor:
#      x y z
#    x 2.047550 0.000000 0.000000 
#    y 0.000000 2.020030 0.000000 
#    z 0.000000 0.000000 1.944940 
# 
# From -- ./inp_files/25977.got.cif
#   From: 2010.05.17/outbox.cif.g08.bks.cpg/sg23_13_cif.got.tgz:25977.got - 2010.06.04 12:02:01.
