data_PCOD9332853
_publ_section_title
;
Structure prediction by ZEFSAII (Michael W. Deem and Ramdas Pophale) SiO2 
 PCOD9332853
Probable space group: I 21 21 21
;
_chemical_formula_sum "Si O2"
_cell_formula_units_Z 40
_cell_length_a 7.226272
_cell_length_b 12.734872
_cell_length_c 18.875191
_cell_angle_alpha 90.000000
_cell_angle_beta 90.000000
_cell_angle_gamma 90.000000
_cell_volume 1737.001701
_symmetry_space_group_name_H-M "I 21 21 21"
_symmetry_group_IT_number 24
_symmetry_cell_setting 'orthorhombic'
loop_
_space_group_symop_operation_xyz
x,y,z
-x,1/2-y,z
x,-y,1/2-z
1/2-x,y,-z
1/2+x,1/2+y,1/2+z
1/2-x,-y,1/2+z
1/2+x,1/2-y,-z
-x,1/2+y,1/2-z
loop_
_atom_site_type_symbol
_atom_site_label
_atom_site_fract_x
_atom_site_fract_y
_atom_site_fract_z
Si Si1 0.786183 0.067498 0.917821
Si Si2 0.405087 0.004109 0.837609
Si Si3 0.212605 0.780734 0.180117
Si Si4 0.222646 0.774952 0.339749
Si Si5 0.105168 0.646632 0.938202
O O1 0.819968 0.178957 0.879555
O O2 0.603244 0.018754 0.877213
O O3 0.938684 0.974318 0.918197
O O4 0.750000 0.094467 0.000000
O O5 0.300251 0.895807 0.854004
O O6 0.431669 0.000000 0.750000
O O7 0.282942 0.103545 0.861523
O O8 0.288302 0.778796 0.258895
O O9 0.313641 0.697172 0.132548
O O10 0.000000 0.750000 0.185982
O O11 0.000000 0.750000 0.341412
O O12 0.000000 0.750000 0.967722
O O13 0.250000 0.626637 0.000000
#
# Coordination Sequence:
#
# PCOD9332853 Si02
#       5
#     8   8   8   8   8
#     4  10  20  33  57  88 123 155 203 249 313 364
#     4   9  17  33  63  96 114 151 205 263 303 370
#     4  10  17  33  63  89 116 147 199 258 312 364
#     4   8  17  32  59  90 114 152 203 249 296 372
#     4  11  24  37  56  83 119 159 204 260 319 375
#
# _framework density 23.028188
#
# number of rings (size 3 to 8) (size 9 to 14) (size 15 to 20)
#    0.000    2.400    2.000    1.800    2.800    0.000 
#    0.000    1.000   22.000    0.000    0.000    0.000 
#    0.000    0.000    0.000    0.000    0.000    0.000 
#
# Total GULP energy -111359.260425 kJ/mol
# GULP energy per Si atom -5567.963021 kJ/mol
# Density = 2.297577 g / cm^3
# Si number density = 23.028188 Si / 1000 Ang^3
#
#
#
# Elastic Constant Matrix: (Units=GPa)
#
#
# Indices 1 2 3 4 5 6 
#
# 1 46.3593 28.6046 11.1959 0.0000 0.0000 0.0000
# 2 28.6046 245.8762 46.4054 0.0000 0.0000 0.0000
# 3 11.1959 46.4054 63.3040 0.0000 0.0000 0.0000
# 4 0.0000 0.0000 0.0000 43.4270 0.0000 0.0000
# 5 0.0000 0.0000 0.0000 0.0000 -12.6094 0.0000
# 6 0.0000 0.0000 0.0000 0.0000 0.0000 19.0115
#
#
#
# Elastic Compliance Matrix: (Units=1/GPa)
#
#
# Indices 1 2 3 4 5 6 
#
# 1 0.023576 -0.002270 -0.002506 0.000000 0.000000 0.000000
# 2 -0.002270 0.004939 -0.003219 0.000000 0.000000 0.000000
# 3 -0.002506 -0.003219 0.018600 0.000000 0.000000 0.000000
# 4 0.000000 0.000000 0.000000 0.023027 0.000000 0.000000
# 5 0.000000 0.000000 0.000000 0.000000 -0.079306 0.000000
# 6 0.000000 0.000000 0.000000 0.000000 0.000000 0.052600
#
#
# Mechanical properties :
#
#
# Convention : Reuss Voigt Hill
#
# Bulk Modulus (GPa) = 32.12793 58.66127 45.39460
# Shear Modulus (GPa) = 71.63324 27.92139 49.77731
#
# Velocity S-wave (km/s) = 5.58339 3.48586 4.65433
# Velocity P-wave (km/s) = 7.45302 6.45992 6.97417
#
# Compressibility (1/GPa) = 0.03112557
#
# Stress axis : x y z
#
# Youngs Moduli (GPa) = 42.41533 202.48353 53.76473
#
# Poissons Ratio (x) = 0.45962 0.13472
# Poissons Ratio (y) = 0.09628 0.17306
# Poissons Ratio (z) = 0.10628 0.65177
#
# Static dielectric constant tensor:
#      x y z
#    x 1.956120 0.000000 0.000000 
#    y 0.000000 2.261110 0.000000 
#    z 0.000000 0.000000 1.835310 
# 
# From -- ./inp_files/29255.got.cif
#   From: 2010.05.17/outbox.cif.g08.bks.cpg/sg24_15_cif.got.tgz:29255.got - 2010.06.04 00:33:39.
