data_PCOD9332274
_publ_section_title
;
Structure prediction by ZEFSAII (Michael W. Deem and Ramdas Pophale) SiO2 
 PCOD9332274
Probable space group: I 2 2 2
;
_chemical_formula_sum "Si O2"
_cell_formula_units_Z 58
_cell_length_a 17.310670
_cell_length_b 8.300965
_cell_length_c 17.329948
_cell_angle_alpha 90.000000
_cell_angle_beta 90.000000
_cell_angle_gamma 90.000000
_cell_volume 2490.231484
_symmetry_space_group_name_H-M "I 2 2 2"
_symmetry_group_IT_number 23
_symmetry_cell_setting 'orthorhombic'
loop_
_space_group_symop_operation_xyz
x,y,z
-x,-y,z
x,-y,-z
-x,y,-z
1/2+x,1/2+y,1/2+z
1/2-x,1/2-y,1/2+z
1/2+x,1/2-y,1/2-z
1/2-x,1/2+y,1/2-z
loop_
_atom_site_type_symbol
_atom_site_label
_atom_site_fract_x
_atom_site_fract_y
_atom_site_fract_z
Si Si1 0.604990 0.805134 0.527510
Si Si2 0.104111 0.660989 0.544694
Si Si3 0.709434 0.068286 0.187503
Si Si4 0.723716 0.652053 0.051411
Si Si5 0.817885 0.785150 0.705030
Si Si6 0.433322 0.136228 0.703715
Si Si7 0.493714 0.684521 0.835509
Si Si8 0.500000 0.500000 0.500000
O O1 0.695361 0.760167 0.536508
O O2 0.573363 0.814192 0.615261
O O3 0.564319 0.650872 0.484464
O O4 0.596301 0.000000 0.500000
O O5 0.086813 0.500000 0.500000
O O6 0.168774 0.633075 0.611142
O O7 0.145516 0.768184 0.479975
O O8 0.030603 0.720797 0.592960
O O9 0.786303 0.160049 0.213237
O O10 0.647011 0.078473 0.257890
O O11 0.723339 0.879331 0.179675
O O12 0.710558 0.594182 0.138812
O O13 0.733438 0.500000 0.000000
O O14 0.908333 0.767262 0.691325
O O15 0.455856 0.283358 0.759236
O O16 0.500000 0.000000 0.712268
O O17 0.500000 0.500000 0.857187
#
# Coordination Sequence:
#
# PCOD9332274 Si02
#       8
#     8   8   8   8   8   8   8   2
#     4  11  26  47  73 107 151 206 260 325 401 478
#     4  11  25  50  76 111 154 205 256 323 395 480
#     4  11  26  44  73 104 147 194 251 318 375 464
#     4  11  25  46  74 106 151 192 251 314 390 469
#     4  12  25  47  73 110 145 199 251 311 384 468
#     4  11  22  46  71 102 144 197 250 312 389 462
#     4  11  27  46  75 114 153 197 261 321 404 470
#     4  12  26  44  72 102 156 190 270 330 396 462
#
# _framework density 23.291008999999999
#
# number of rings (size 3 to 8) (size 9 to 14) (size 15 to 20)
#    0.000    0.828    4.138    1.862    7.724    0.552 
#    4.966    1.379    0.000    0.000    0.000    0.000 
#    0.000    0.000    0.000    0.000    0.000    0.000 
#
# Total GULP energy -161659.045633 kJ/mol
# GULP energy per Si atom -5574.449849 kJ/mol
# Density = 2.323800 g / cm^3
# Si number density = 23.291009 Si / 1000 Ang^3
#
#
#
# Elastic Constant Matrix: (Units=GPa)
#
#
# Indices 1 2 3 4 5 6 
#
# 1 134.5850 30.3072 35.8442 0.0000 0.0000 0.0000
# 2 30.3072 72.8104 20.6703 0.0000 0.0000 0.0000
# 3 35.8442 20.6703 102.8813 0.0000 0.0000 0.0000
# 4 0.0000 0.0000 0.0000 21.7503 0.0000 0.0000
# 5 0.0000 0.0000 0.0000 0.0000 26.1125 0.0000
# 6 0.0000 0.0000 0.0000 0.0000 0.0000 30.6007
#
#
#
# Elastic Compliance Matrix: (Units=1/GPa)
#
#
# Indices 1 2 3 4 5 6 
#
# 1 0.008747 -0.002944 -0.002456 0.000000 0.000000 0.000000
# 2 -0.002944 0.015556 -0.002100 0.000000 0.000000 0.000000
# 3 -0.002456 -0.002100 0.010998 0.000000 0.000000 0.000000
# 4 0.000000 0.000000 0.000000 0.045976 0.000000 0.000000
# 5 0.000000 0.000000 0.000000 0.000000 0.038296 0.000000
# 6 0.000000 0.000000 0.000000 0.000000 0.000000 0.032679
#
#
# Mechanical properties :
#
#
# Convention : Reuss Voigt Hill
#
# Bulk Modulus (GPa) = 49.25804 53.76890 51.51347
# Shear Modulus (GPa) = 28.73264 30.58971 29.66118
#
# Velocity S-wave (km/s) = 3.51613 3.62798 3.57249
# Velocity P-wave (km/s) = 6.13833 6.37851 6.25957
#
# Compressibility (1/GPa) = 0.02030126
#
# Stress axis : x y z
#
# Youngs Moduli (GPa) = 114.32095 64.28499 90.92947
#
# Poissons Ratio (x) = 0.18924 0.22334
# Poissons Ratio (y) = 0.33653 0.19093
# Poissons Ratio (z) = 0.28079 0.13498
#
# Static dielectric constant tensor:
#      x y z
#    x 2.007150 0.000000 0.000000 
#    y 0.000000 1.915960 0.000000 
#    z 0.000000 0.000000 1.898010 
# 
# From -- ./inp_files/25093.got.cif
#   From: 2010.05.17/outbox.cif.g08.bks.cpg/sg23_13_cif.got.tgz:25093.got - 2010.06.04 12:02:01.
