data_PCOD9332583
_publ_section_title
;
Structure prediction by ZEFSAII (Michael W. Deem and Ramdas Pophale) SiO2 
 PCOD9332583
Probable space group: I 2 2 2
;
_chemical_formula_sum "Si O2"
_cell_formula_units_Z 22
_cell_length_a 29.838423
_cell_length_b 4.916194
_cell_length_c 6.076213
_cell_angle_alpha 90.000000
_cell_angle_beta 90.000000
_cell_angle_gamma 90.000000
_cell_volume 891.328654
_symmetry_space_group_name_H-M "I 2 2 2"
_symmetry_group_IT_number 23
_symmetry_cell_setting 'orthorhombic'
loop_
_space_group_symop_operation_xyz
x,y,z
-x,-y,z
x,-y,-z
-x,y,-z
1/2+x,1/2+y,1/2+z
1/2-x,1/2-y,1/2+z
1/2+x,1/2-y,1/2-z
1/2-x,1/2+y,1/2-z
loop_
_atom_site_type_symbol
_atom_site_label
_atom_site_fract_x
_atom_site_fract_y
_atom_site_fract_z
Si Si1 0.359878 0.000000 0.500000
Si Si2 0.217771 0.374370 0.724800
Si Si3 0.069797 0.253358 0.337718
Si Si4 0.500000 0.500000 0.500000
O O1 0.324757 0.193301 0.373651
O O2 0.389742 0.151793 0.680065
O O3 0.199072 0.500000 0.500000
O O4 0.250166 0.618995 0.802368
O O5 0.057476 0.500000 0.500000
O O6 0.079806 0.000000 0.500000
O O7 0.031052 0.172871 0.165108
#
# Coordination Sequence:
#
# PCOD9332583 Si02
#       4
#     4   8   8   2
#     4  12  28  51  80 116 164 212 268 333 408 462
#     4  12  25  46  73 106 148 203 263 325 387 457
#     4  12  30  53  82 123 163 212 268 331 403 493
#     4  12  30  54  88 120 164 210 266 330 412 476
#
# _framework density 24.682254
#
# number of rings (size 3 to 8) (size 9 to 14) (size 15 to 20)
#    0.000    0.000    3.636    3.818    0.000   22.545 
#    0.000    0.000    0.000    0.000    0.000    0.000 
#    0.000    0.000    0.000    0.000    0.000    0.000 
#
# Total GULP energy -61631.414267 kJ/mol
# GULP energy per Si atom -5602.855842 kJ/mol
# Density = 2.462608 g / cm^3
# Si number density = 24.682254 Si / 1000 Ang^3
#
#
#
# Elastic Constant Matrix: (Units=GPa)
#
#
# Indices 1 2 3 4 5 6 
#
# 1 201.8499 78.8471 118.9020 0.0000 0.0000 0.0000
# 2 78.8471 179.8605 92.7097 0.0000 -0.0001 0.0000
# 3 118.9020 92.7097 217.9483 0.0000 -0.0001 0.0000
# 4 0.0000 0.0000 0.0000 45.6034 -0.0001 0.0000
# 5 0.0000 -0.0001 -0.0001 -0.0001 397.1001 -0.0001
# 6 0.0000 0.0000 0.0000 0.0000 -0.0001 18.1742
#
#
#
# Elastic Compliance Matrix: (Units=1/GPa)
#
#
# Indices 1 2 3 4 5 6 
#
# 1 0.007617 -0.001533 -0.003503 0.000000 0.000000 0.000000
# 2 -0.001533 0.007430 -0.002324 0.000000 0.000000 0.000000
# 3 -0.003503 -0.002324 0.007488 0.000000 0.000000 0.000000
# 4 0.000000 0.000000 0.000000 0.021928 0.000000 0.000000
# 5 0.000000 0.000000 0.000000 0.000000 0.002518 0.000000
# 6 0.000000 0.000000 0.000000 0.000000 0.000000 0.055023
#
#
# Mechanical properties :
#
#
# Convention : Reuss Voigt Hill
#
# Bulk Modulus (GPa) = 127.97921 131.17513 129.57717
# Shear Modulus (GPa) = 41.90085 112.78887 77.34486
#
# Velocity S-wave (km/s) = 4.12468 6.76724 5.60395
# Velocity P-wave (km/s) = 8.63986 10.69213 9.72031
#
# Compressibility (1/GPa) = 0.00781377
#
# Stress axis : x y z
#
# Youngs Moduli (GPa) = 131.29180 134.59025 133.54889
#
# Poissons Ratio (x) = 0.20637 0.46782
# Poissons Ratio (y) = 0.20131 0.31037
# Poissons Ratio (z) = 0.45992 0.31279
#
# Static dielectric constant tensor:
#      x y z
#    x 1.891470 0.000000 0.000000 
#    y 0.000000 0.661980 0.000000 
#    z 0.000000 0.000000 2.105710 
# 
# From -- ./inp_files/144.got.cif
#   From: 2010.05.17/outbox.cif.g08.bks.cpg/sg23_1_cif.got.tgz:144.got - 2010.06.04 12:02:01.
