data_PCOD9332452
_publ_section_title
;
Structure prediction by ZEFSAII (Michael W. Deem and Ramdas Pophale) SiO2 
 PCOD9332452
Probable space group: I 2 2 2
;
_chemical_formula_sum "Si O2"
_cell_formula_units_Z 40
_cell_length_a 22.379410
_cell_length_b 7.498529
_cell_length_c 9.138590
_cell_angle_alpha 90.000000
_cell_angle_beta 90.000000
_cell_angle_gamma 90.000000
_cell_volume 1533.571050
_symmetry_space_group_name_H-M "I 2 2 2"
_symmetry_group_IT_number 23
_symmetry_cell_setting 'orthorhombic'
loop_
_space_group_symop_operation_xyz
x,y,z
-x,-y,z
x,-y,-z
-x,y,-z
1/2+x,1/2+y,1/2+z
1/2-x,1/2-y,1/2+z
1/2+x,1/2-y,1/2-z
1/2-x,1/2+y,1/2-z
loop_
_atom_site_type_symbol
_atom_site_label
_atom_site_fract_x
_atom_site_fract_y
_atom_site_fract_z
Si Si1 0.862514 0.596946 0.351578
Si Si2 0.818975 0.160354 0.157538
Si Si3 0.974937 0.200255 0.652866
Si Si4 0.564524 0.861084 0.364628
Si Si5 0.729004 0.741376 0.631742
O O1 0.843438 0.500000 0.500000
O O2 0.908182 0.464303 0.273022
O O3 0.810224 0.635720 0.237776
O O4 0.903785 0.774470 0.362971
O O5 0.887311 0.201572 0.115530
O O6 0.796161 0.229910 0.313667
O O7 0.799334 0.955522 0.149358
O O8 0.780709 0.274563 0.039118
O O9 0.002331 0.285610 0.801686
O O10 0.000000 0.280366 0.500000
O O11 0.000000 0.000000 0.656626
O O12 0.565366 0.000000 0.500000
#
# Coordination Sequence:
#
# PCOD9332452 Si02
#       5
#     8   8   8   8   8
#     4  12  25  45  72 106 146 193 247 300 367 439
#     4  11  26  47  71 107 146 194 247 302 371 437
#     4  11  25  46  74 108 150 197 248 300 367 444
#     4  12  25  47  74 106 147 193 245 308 368 434
#     4  11  26  46  74 104 149 194 246 304 367 445
#
# _framework density 26.082913000000001
#
# number of rings (size 3 to 8) (size 9 to 14) (size 15 to 20)
#    0.000    0.600    4.000    3.000    5.600    1.600 
#    0.000    1.000    0.000    0.000    0.000    0.000 
#    0.000    0.000    0.000    0.000    0.000    0.000 
#
# Total GULP energy -111935.873470 kJ/mol
# GULP energy per Si atom -5596.793674 kJ/mol
# Density = 2.602355 g / cm^3
# Si number density = 26.082913 Si / 1000 Ang^3
#
#
#
# Elastic Constant Matrix: (Units=GPa)
#
#
# Indices 1 2 3 4 5 6 
#
# 1 81.7419 -3.4474 -6.3382 0.0000 0.0000 0.0000
# 2 -3.4474 89.7513 1.9072 0.0000 0.0000 0.0000
# 3 -6.3382 1.9072 93.7001 0.0000 0.0000 0.0000
# 4 0.0000 0.0000 0.0000 49.3042 0.0000 0.0000
# 5 0.0000 0.0000 0.0000 0.0000 36.5048 0.0000
# 6 0.0000 0.0000 0.0000 0.0000 0.0000 37.0341
#
#
#
# Elastic Compliance Matrix: (Units=1/GPa)
#
#
# Indices 1 2 3 4 5 6 
#
# 1 0.012317 0.000456 0.000824 0.000000 0.000000 0.000000
# 2 0.000456 0.011164 -0.000196 0.000000 0.000000 0.000000
# 3 0.000824 -0.000196 0.010732 0.000000 0.000000 0.000000
# 4 0.000000 0.000000 0.000000 0.020282 0.000000 0.000000
# 5 0.000000 0.000000 0.000000 0.000000 0.027394 0.000000
# 6 0.000000 0.000000 0.000000 0.000000 0.000000 0.027002
#
#
# Mechanical properties :
#
#
# Convention : Reuss Voigt Hill
#
# Bulk Modulus (GPa) = 27.48879 27.71517 27.60198
# Shear Modulus (GPa) = 42.06968 42.77342 42.42155
#
# Velocity S-wave (km/s) = 4.02048 4.05396 4.03725
# Velocity P-wave (km/s) = 5.66694 5.70628 5.68665
#
# Compressibility (1/GPa) = 0.03637846
#
# Stress axis : x y z
#
# Youngs Moduli (GPa) = 81.19046 89.57709 93.17861
#
# Poissons Ratio (x) = -0.04081 -0.07677
# Poissons Ratio (y) = -0.03699 0.01830
# Poissons Ratio (z) = -0.06689 0.01759
#
# Static dielectric constant tensor:
#      x y z
#    x 2.148700 0.000000 0.000000 
#    y 0.000000 2.121250 0.000000 
#    z 0.000000 0.000000 2.068940 
# 
# From -- ./inp_files/12419.got.cif
#   From: 2010.05.17/outbox.cif.g08.bks.cpg/sg23_7_cif.got.tgz:12419.got - 2010.06.04 12:02:01.
