data_PCOD9332051
_publ_section_title
;
Structure prediction by ZEFSAII (Michael W. Deem and Ramdas Pophale) SiO2 
 PCOD9332051
Probable space group: I 2 2 2
;
_chemical_formula_sum "Si O2"
_cell_formula_units_Z 40
_cell_length_a 24.253042
_cell_length_b 8.763677
_cell_length_c 8.775836
_cell_angle_alpha 90.000000
_cell_angle_beta 90.000000
_cell_angle_gamma 90.000000
_cell_volume 1865.267315
_symmetry_space_group_name_H-M "I 2 2 2"
_symmetry_group_IT_number 23
_symmetry_cell_setting 'orthorhombic'
loop_
_space_group_symop_operation_xyz
x,y,z
-x,-y,z
x,-y,-z
-x,y,-z
1/2+x,1/2+y,1/2+z
1/2-x,1/2-y,1/2+z
1/2+x,1/2-y,1/2-z
1/2-x,1/2+y,1/2-z
loop_
_atom_site_type_symbol
_atom_site_label
_atom_site_fract_x
_atom_site_fract_y
_atom_site_fract_z
Si Si1 0.315935 0.436777 0.829278
Si Si2 0.784905 0.576753 0.335241
Si Si3 0.571570 0.670615 0.817096
Si Si4 0.606129 0.004491 0.320704
Si Si5 0.459877 0.236523 0.125231
O O1 0.275482 0.533866 0.723296
O O2 0.296532 0.258438 0.833639
O O3 0.378975 0.437905 0.766264
O O4 0.311829 0.500000 0.000000
O O5 0.794210 0.500000 0.500000
O O6 0.829613 0.499978 0.222632
O O7 0.584971 0.835424 0.746318
O O8 0.505679 0.657828 0.793928
O O9 0.578051 0.677987 0.002309
O O10 0.597482 0.000000 0.500000
O O11 0.572915 0.871512 0.235422
O O12 0.500000 0.155320 0.000000
#
# Coordination Sequence:
#
# PCOD9332051 Si02
#       5
#     8   8   8   8   8
#     4  11  22  42  65  92 125 164 223 274 329 404
#     4  11  24  40  63  92 131 177 218 278 341 392
#     4   8  19  34  55  84 121 167 209 265 319 378
#     4  11  19  30  55  92 129 169 221 273 317 373
#     4   8  18  34  56  86 128 175 216 263 322 376
#
# _framework density 21.444648999999998
#
# number of rings (size 3 to 8) (size 9 to 14) (size 15 to 20)
#    1.200    0.800    0.000    5.400    2.800    3.200 
#    0.000    2.000    0.000    0.000    0.000    0.000 
#    0.000    0.000    0.000    0.000    0.000    0.000 
#
# Total GULP energy -111447.052148 kJ/mol
# GULP energy per Si atom -5572.352607 kJ/mol
# Density = 2.139584 g / cm^3
# Si number density = 21.444649 Si / 1000 Ang^3
#
#
#
# Elastic Constant Matrix: (Units=GPa)
#
#
# Indices 1 2 3 4 5 6 
#
# 1 119.3329 41.9445 42.5787 0.0000 0.0000 0.0000
# 2 41.9445 95.9703 25.2291 0.0000 0.0000 0.0000
# 3 42.5787 25.2291 74.4740 0.0000 0.0000 0.0000
# 4 0.0000 0.0000 0.0000 8.0349 0.0000 0.0000
# 5 0.0000 0.0000 0.0000 0.0000 25.5507 0.0000
# 6 0.0000 0.0000 0.0000 0.0000 0.0000 234.9796
#
#
#
# Elastic Compliance Matrix: (Units=1/GPa)
#
#
# Indices 1 2 3 4 5 6 
#
# 1 0.011584 -0.003647 -0.005388 0.000000 0.000000 0.000000
# 2 -0.003647 0.012586 -0.002179 0.000000 0.000000 0.000000
# 3 -0.005388 -0.002179 0.017246 0.000000 0.000000 0.000000
# 4 0.000000 0.000000 0.000000 0.124457 0.000000 0.000000
# 5 0.000000 0.000000 0.000000 0.000000 0.039138 0.000000
# 6 0.000000 0.000000 0.000000 0.000000 0.000000 0.004256
#
#
# Mechanical properties :
#
#
# Convention : Reuss Voigt Hill
#
# Bulk Modulus (GPa) = 52.65901 56.58687 54.62294
# Shear Modulus (GPa) = 21.00637 65.71469 43.36053
#
# Velocity S-wave (km/s) = 3.13319 5.54170 4.50152
# Velocity P-wave (km/s) = 6.13989 8.20926 7.24880
#
# Compressibility (1/GPa) = 0.01899010
#
# Stress axis : x y z
#
# Youngs Moduli (GPa) = 86.32628 79.45040 57.98486
#
# Poissons Ratio (x) = 0.28972 0.31240
# Poissons Ratio (y) = 0.31479 0.12635
# Poissons Ratio (z) = 0.46509 0.17312
#
# Static dielectric constant tensor:
#      x y z
#    x 1.854320 0.000000 0.000000 
#    y 0.000000 1.806700 0.000000 
#    z 0.000000 0.000000 1.741190 
# 
# From -- ./inp_files/12412.got.cif
#   From: 2010.05.17/outbox.cif.g08.bks.cpg/sg23_7_cif.got.tgz:12412.got - 2010.06.04 12:02:01.
