data_PCOD9332829
_publ_section_title
;
Structure prediction by ZEFSAII (Michael W. Deem and Ramdas Pophale) SiO2 
 PCOD9332829
Probable space group: I 21 21 21
;
_chemical_formula_sum "Si O2"
_cell_formula_units_Z 56
_cell_length_a 10.302811
_cell_length_b 14.116160
_cell_length_c 16.443774
_cell_angle_alpha 90.000000
_cell_angle_beta 90.000000
_cell_angle_gamma 90.000000
_cell_volume 2391.518829
_symmetry_space_group_name_H-M "I 21 21 21"
_symmetry_group_IT_number 24
_symmetry_cell_setting 'orthorhombic'
loop_
_space_group_symop_operation_xyz
x,y,z
-x,1/2-y,z
x,-y,1/2-z
1/2-x,y,-z
1/2+x,1/2+y,1/2+z
1/2-x,-y,1/2+z
1/2+x,1/2-y,-z
-x,1/2+y,1/2-z
loop_
_atom_site_type_symbol
_atom_site_label
_atom_site_fract_x
_atom_site_fract_y
_atom_site_fract_z
Si Si1 0.390458 0.332119 0.701856
Si Si2 0.821178 0.692428 0.822811
Si Si3 0.370300 0.805570 0.371382
Si Si4 0.256295 0.009166 0.158072
Si Si5 0.992803 0.999488 0.092917
Si Si6 0.594590 0.331976 0.487204
Si Si7 0.876375 0.816814 0.393986
O O1 0.500000 0.250000 0.696596
O O2 0.259563 0.287475 0.664930
O O3 0.426543 0.427108 0.655460
O O4 0.371197 0.345183 0.798096
O O5 0.858899 0.694110 0.728133
O O6 0.730042 0.603346 0.848679
O O7 0.928791 0.669669 0.889672
O O8 0.500000 0.750000 0.393747
O O9 0.348930 0.917862 0.389708
O O10 0.251895 0.744840 0.406866
O O11 0.113163 0.049354 0.141238
O O12 0.306423 0.000000 0.250000
O O13 0.900249 0.083136 0.062314
O O14 0.052626 0.932870 0.022871
O O15 0.500000 0.250000 0.520868
O O16 0.750000 0.313585 0.500000
O O17 0.000000 0.750000 0.408285
#
# Coordination Sequence:
#
# PCOD9332829 Si02
#       7
#     8   8   8   8   8   8   8
#     4  10  17  31  56  88 123 151 199 265 320 371
#     4  10  20  37  58  90 121 164 204 252 321 395
#     4  10  21  38  59  90 126 159 200 260 330 387
#     4  10  18  32  59  86 115 154 202 252 315 381
#     4  12  20  33  56  90 123 162 214 259 313 373
#     4  12  24  39  59  88 126 174 213 256 311 385
#     4  10  20  33  58  88 119 157 205 268 316 365
#
# _framework density 23.416080999999998
#
# number of rings (size 3 to 8) (size 9 to 14) (size 15 to 20)
#    0.000    1.429    4.286    3.000    0.000    0.000 
#    0.000   11.429    0.000    0.857    0.000    0.000 
#    0.000    0.000    0.000    0.000    0.000    0.000 
#
# Total GULP energy -156022.304399 kJ/mol
# GULP energy per Si atom -5572.225157 kJ/mol
# Density = 2.336279 g / cm^3
# Si number density = 23.416081 Si / 1000 Ang^3
#
#
#
# Elastic Constant Matrix: (Units=GPa)
#
#
# Indices 1 2 3 4 5 6 
#
# 1 115.1757 69.9052 9.0595 0.0000 0.0000 0.0000
# 2 69.9052 156.9486 13.4467 0.0000 0.0000 0.0000
# 3 9.0595 13.4467 78.1732 0.0000 0.0000 0.0000
# 4 0.0000 0.0000 0.0000 10.5272 0.0000 0.0000
# 5 0.0000 0.0000 0.0000 0.0000 2.9996 0.0000
# 6 0.0000 0.0000 0.0000 0.0000 0.0000 43.8045
#
#
#
# Elastic Compliance Matrix: (Units=1/GPa)
#
#
# Indices 1 2 3 4 5 6 
#
# 1 0.011916 -0.005267 -0.000475 0.000000 0.000000 0.000000
# 2 -0.005267 0.008795 -0.000902 0.000000 0.000000 0.000000
# 3 -0.000475 -0.000902 0.013002 0.000000 0.000000 0.000000
# 4 0.000000 0.000000 0.000000 0.094992 0.000000 0.000000
# 5 0.000000 0.000000 0.000000 0.000000 0.333378 0.000000
# 6 0.000000 0.000000 0.000000 0.000000 0.000000 0.022829
#
#
# Mechanical properties :
#
#
# Convention : Reuss Voigt Hill
#
# Bulk Modulus (GPa) = 48.95993 59.45780 54.20887
# Shear Modulus (GPa) = 9.90081 28.65866 19.27974
#
# Velocity S-wave (km/s) = 2.05849 3.50221 2.87253
# Velocity P-wave (km/s) = 5.15790 6.46536 5.84828
#
# Compressibility (1/GPa) = 0.02042487
#
# Stress axis : x y z
#
# Youngs Moduli (GPa) = 83.91734 113.70446 76.90894
#
# Poissons Ratio (x) = 0.59887 0.03653
# Poissons Ratio (y) = 0.44199 0.06940
# Poissons Ratio (z) = 0.03986 0.10261
#
# Static dielectric constant tensor:
#      x y z
#    x 1.988290 0.000000 0.000000 
#    y 0.000000 1.997290 0.000000 
#    z 0.000000 0.000000 2.028390 
# 
# From -- ./inp_files/33381.got.cif
#   From: 2010.05.17/outbox.cif.g08.bks.cpg/sg24_17_cif.got.tgz:33381.got - 2010.06.04 00:33:39.
