data_PCOD9332570
_publ_section_title
;
Structure prediction by ZEFSAII (Michael W. Deem and Ramdas Pophale) SiO2 
 PCOD9332570
Probable space group: I 2 2 2
;
_chemical_formula_sum "Si O2"
_cell_formula_units_Z 26
_cell_length_a 4.746986
_cell_length_b 28.743151
_cell_length_c 8.024512
_cell_angle_alpha 90.000000
_cell_angle_beta 90.000000
_cell_angle_gamma 90.000000
_cell_volume 1094.891182
_symmetry_space_group_name_H-M "I 2 2 2"
_symmetry_group_IT_number 23
_symmetry_cell_setting 'orthorhombic'
loop_
_space_group_symop_operation_xyz
x,y,z
-x,-y,z
x,-y,-z
-x,y,-z
1/2+x,1/2+y,1/2+z
1/2-x,1/2-y,1/2+z
1/2+x,1/2-y,1/2-z
1/2-x,1/2+y,1/2-z
loop_
_atom_site_type_symbol
_atom_site_label
_atom_site_fract_x
_atom_site_fract_y
_atom_site_fract_z
Si Si1 0.619835 0.777395 0.686962
Si Si2 0.839494 0.080833 0.664095
Si Si3 0.500000 0.000000 0.500000
Si Si4 0.670220 0.125970 0.172672
O O1 0.500000 0.783774 0.500000
O O2 0.357481 0.762110 0.801746
O O3 0.760941 0.822928 0.769882
O O4 0.703188 0.031003 0.617256
O O5 0.571349 0.111697 0.699103
O O6 0.000000 0.096747 0.500000
O O7 0.072547 0.089540 0.807218
O O8 0.500000 0.125469 0.000000
#
# Coordination Sequence:
#
# PCOD9332570 Si02
#       4
#     8   8   2   8
#     4  12  25  45  71 107 150 198 245 302 361 431
#     4  12  24  46  77 104 139 191 248 306 371 452
#     4  12  26  48  84 108 142 192 264 320 378 460
#     4  12  26  45  72 110 151 196 247 306 372 446
#
# _framework density 23.746649999999999
#
# number of rings (size 3 to 8) (size 9 to 14) (size 15 to 20)
#    0.000    0.000    3.077    7.846    0.000    0.000 
#    0.000    0.769    6.769    0.000    0.000    0.000 
#    0.000    0.000    0.000    0.000    0.000    0.000 
#
# Total GULP energy -72702.414188 kJ/mol
# GULP energy per Si atom -5592.493399 kJ/mol
# Density = 2.369260 g / cm^3
# Si number density = 23.746650 Si / 1000 Ang^3
#
#
#
# Elastic Constant Matrix: (Units=GPa)
#
#
# Indices 1 2 3 4 5 6 
#
# 1 143.9129 48.0428 33.0229 0.0000 0.0000 0.0000
# 2 48.0428 101.9842 46.1700 0.0000 0.0000 0.0000
# 3 33.0229 46.1700 123.4010 0.0001 0.0000 0.0001
# 4 0.0000 0.0000 0.0001 20.3215 0.0000 0.0000
# 5 0.0000 0.0000 0.0000 0.0000 39.7572 0.0000
# 6 0.0000 0.0000 0.0001 0.0000 0.0000 39.1789
#
#
#
# Elastic Compliance Matrix: (Units=1/GPa)
#
#
# Indices 1 2 3 4 5 6 
#
# 1 0.008330 -0.003510 -0.000916 0.000000 0.000000 0.000000
# 2 -0.003510 0.013284 -0.004031 0.000000 0.000000 0.000000
# 3 -0.000916 -0.004031 0.009857 0.000000 0.000000 0.000000
# 4 0.000000 0.000000 0.000000 0.049209 0.000000 0.000000
# 5 0.000000 0.000000 0.000000 0.000000 0.025153 0.000000
# 6 0.000000 0.000000 0.000000 0.000000 0.000000 0.025524
#
#
# Mechanical properties :
#
#
# Convention : Reuss Voigt Hill
#
# Bulk Modulus (GPa) = 68.69144 69.30773 68.99959
# Shear Modulus (GPa) = 32.65365 35.98901 34.32133
#
# Velocity S-wave (km/s) = 3.71224 3.89722 3.80585
# Velocity P-wave (km/s) = 6.88214 7.03568 6.95933
#
# Compressibility (1/GPa) = 0.01455785
#
# Stress axis : x y z
#
# Youngs Moduli (GPa) = 120.04098 75.28110 101.45114
#
# Poissons Ratio (x) = 0.26420 0.09295
# Poissons Ratio (y) = 0.42129 0.40893
# Poissons Ratio (z) = 0.10998 0.30344
#
# Static dielectric constant tensor:
#      x y z
#    x 1.886180 0.000000 0.000000 
#    y 0.000000 1.918810 0.000000 
#    z 0.000000 0.000000 1.971080 
# 
# From -- ./inp_files/5693.got.cif
#   From: 2010.05.17/outbox.cif.g08.bks.cpg/sg23_3_cif.got.tgz:5693.got - 2010.06.04 12:02:01.
