data_PCOD9332793
_publ_section_title
;
Structure prediction by ZEFSAII (Michael W. Deem and Ramdas Pophale) SiO2 
 PCOD9332793
Probable space group: I 21 21 21
;
_chemical_formula_sum "Si O2"
_cell_formula_units_Z 48
_cell_length_a 7.817223
_cell_length_b 30.306080
_cell_length_c 8.914660
_cell_angle_alpha 90.000000
_cell_angle_beta 90.000000
_cell_angle_gamma 90.000000
_cell_volume 2111.966624
_symmetry_space_group_name_H-M "I 21 21 21"
_symmetry_group_IT_number 24
_symmetry_cell_setting 'orthorhombic'
loop_
_space_group_symop_operation_xyz
x,y,z
-x,1/2-y,z
x,-y,1/2-z
1/2-x,y,-z
1/2+x,1/2+y,1/2+z
1/2-x,-y,1/2+z
1/2+x,1/2-y,-z
-x,1/2+y,1/2-z
loop_
_atom_site_type_symbol
_atom_site_label
_atom_site_fract_x
_atom_site_fract_y
_atom_site_fract_z
Si Si1 0.242190 0.316053 0.676390
Si Si2 0.073461 0.378378 0.904732
Si Si3 0.487633 0.546989 0.836031
Si Si4 0.409612 0.861411 0.707611
Si Si5 0.805782 0.730184 0.327038
Si Si6 0.925690 0.952586 0.817311
O O1 0.250000 0.322939 0.500000
O O2 0.110216 0.341148 0.783014
O O3 0.417713 0.339062 0.729024
O O4 0.218091 0.265067 0.717493
O O5 0.008435 0.418433 0.804769
O O6 0.250000 0.388440 0.000000
O O7 0.940616 0.365602 0.030775
O O8 0.523134 0.500000 0.750000
O O9 0.592355 0.588964 0.772484
O O10 0.281543 0.555147 0.818528
O O11 0.504053 0.547436 0.016523
O O12 0.283974 0.820009 0.729757
O O13 0.750000 0.733897 0.500000
O O14 0.000000 0.750000 0.326340
O O15 0.954177 0.000000 0.750000
#
# Coordination Sequence:
#
# PCOD9332793 Si02
#       6
#     8   8   8   8   8   8
#     4  10  18  31  50  74 105 139 178 224 277 325
#     4  10  17  28  46  70 102 141 178 216 270 326
#     4  10  18  28  45  71 108 145 181 226 274 326
#     4  10  19  32  50  74 105 144 181 224 274 329
#     4  10  21  39  59  82 111 146 188 232 277 334
#     4  10  18  25  43  73 108 147 183 219 273 334
#
# _framework density 22.727632
#
# number of rings (size 3 to 8) (size 9 to 14) (size 15 to 20)
#    0.000    2.000    3.333    4.500    2.333    0.000 
#    0.000    9.167    0.000    0.000    0.000    4.667 
#    0.000    0.000    0.000    0.000    0.000    0.000 
#
# Total GULP energy -133897.736189 kJ/mol
# GULP energy per Si atom -5579.072341 kJ/mol
# Density = 2.267590 g / cm^3
# Si number density = 22.727632 Si / 1000 Ang^3
#
#
#
# Elastic Constant Matrix: (Units=GPa)
#
#
# Indices 1 2 3 4 5 6 
#
# 1 48.5891 20.5290 19.2325 0.0000 -0.0002 0.0000
# 2 20.5290 182.7250 95.8515 0.0001 -0.0003 0.0000
# 3 19.2325 95.8515 194.7808 0.0004 -0.0002 0.0000
# 4 0.0000 0.0001 0.0004 43.7703 -0.0002 0.0000
# 5 -0.0002 -0.0003 -0.0002 -0.0002 170.6773 0.0001
# 6 0.0000 0.0000 0.0000 0.0000 0.0001 -17.1027
#
#
#
# Elastic Compliance Matrix: (Units=1/GPa)
#
#
# Indices 1 2 3 4 5 6 
#
# 1 0.021840 -0.001783 -0.001279 0.000000 0.000000 0.000000
# 2 -0.001783 0.007523 -0.003526 0.000000 0.000000 0.000000
# 3 -0.001279 -0.003526 0.006995 0.000000 0.000000 0.000000
# 4 0.000000 0.000000 0.000000 0.022847 0.000000 0.000000
# 5 0.000000 0.000000 0.000000 0.000000 0.005859 0.000000
# 6 0.000000 0.000000 0.000000 0.000000 0.000000 -0.058470
#
#
# Mechanical properties :
#
#
# Convention : Reuss Voigt Hill
#
# Bulk Modulus (GPa) = 43.13565 77.48009 60.30787
# Shear Modulus (GPa) = 181.84165 58.83442 120.33804
#
# Velocity S-wave (km/s) = 8.95448 5.09342 7.28442
# Velocity P-wave (km/s) = 11.22190 8.29188 9.86626
#
# Compressibility (1/GPa) = 0.02318268
#
# Stress axis : x y z
#
# Youngs Moduli (GPa) = 45.78693 132.93435 142.95254
#
# Poissons Ratio (x) = 0.23698 0.18287
# Poissons Ratio (y) = 0.08162 0.50402
# Poissons Ratio (z) = 0.05857 0.46870
#
# Static dielectric constant tensor:
#      x y z
#    x 1.906870 0.000000 0.000000 
#    y 0.000000 0.838900 0.000000 
#    z 0.000000 0.000000 1.788000 
# 
# From -- ./inp_files/11405.got.cif
#   From: 2010.05.17/outbox.cif.g08.bks.cpg/sg24_6_cif.got.tgz:11405.got - 2010.06.04 00:33:39.
