data_PCOD9332655
_publ_section_title
;
Structure prediction by ZEFSAII (Michael W. Deem and Ramdas Pophale) SiO2 
 PCOD9332655
Probable space group: I 2 2 2
;
_chemical_formula_sum "Si O2"
_cell_formula_units_Z 32
_cell_length_a 21.000000
_cell_length_b 18.000000
_cell_length_c 9.000000
_cell_angle_alpha 90.000000
_cell_angle_beta 90.000000
_cell_angle_gamma 90.000000
_cell_volume 3402.000000
_symmetry_space_group_name_H-M "I 2 2 2"
_symmetry_group_IT_number 23
_symmetry_cell_setting 'orthorhombic'
loop_
_space_group_symop_operation_xyz
x,y,z
-x,-y,z
x,-y,-z
-x,y,-z
1/2+x,1/2+y,1/2+z
1/2-x,1/2-y,1/2+z
1/2+x,1/2-y,1/2-z
1/2-x,1/2+y,1/2-z
loop_
_atom_site_type_symbol
_atom_site_label
_atom_site_fract_x
_atom_site_fract_y
_atom_site_fract_z
Si Si1 0.251197 0.094498 0.260537
Si Si2 0.756553 0.076811 0.242839
Si Si3 0.233116 0.702085 0.973586
Si Si4 0.393419 0.573524 0.594093
Si Si5 0.322275 0.154795 0.984405
Si Si6 0.629708 0.686674 0.645593
Si Si7 0.929290 0.075006 0.429468
Si Si8 0.927679 0.230562 0.550950
O O1 0.276941 0.149232 0.386595
O O2 0.299051 0.107509 0.124284
O O3 0.181748 0.127198 0.211650
O O4 0.247814 0.007561 0.301356
O O5 0.764144 0.144869 0.356772
O O6 0.818142 0.075932 0.135766
O O7 0.693951 0.101804 0.153100
O O8 0.276851 0.771728 0.020727
O O9 0.170865 0.742604 0.908144
O O10 0.407296 0.500000 0.500000
O O11 0.404356 0.644947 0.490485
O O12 0.428941 0.570193 0.751814
O O13 0.390169 0.194254 0.987654
O O14 0.582863 0.712217 0.775635
O O15 0.900882 0.155071 0.473001
O O16 0.000000 0.076676 0.500000
O O17 0.898462 0.000000 0.500000
O O18 0.000000 0.237813 0.500000
#
# Coordination Sequence:
#
# PCOD9332655 Si02
#       8
#     8   8   8   8   8   8   8   8
#     4  11  22  35  58  92 132 164 206 258 334 394
#     4  12  21  36  57  96 129 168 200 259 332 399
#     4  11  21  34  59  91 130 163 202 261 327 383
#     4  12  22  37  63  91 127 168 209 260 319 380
#     4  11  20  38  59  87 129 165 208 269 314 387
#     4  11  22  38  58  94 128 164 218 264 319 390
#     4  10  24  43  62  87 122 169 224 264 309 372
#     4  11  23  43  64  86 124 171 223 268 312 383
#
# _framework density 9.4062319999999993
#
# number of rings (size 3 to 8) (size 9 to 14) (size 15 to 20)
#    0.000    0.875    6.250    3.000    1.750    0.000 
#    0.000    8.750    0.000    1.500    0.000    0.000 
#    3.750    0.000    0.000    0.000    0.000    0.000 
#
# Total GULP energy -178682.319905 kJ/mol
# GULP energy per Si atom -5583.822497 kJ/mol
# Density = 0.938482 g / cm^3
# Si number density = 9.406232 Si / 1000 Ang^3
#
#
#
# Elastic Constant Matrix: (Units=GPa)
#
#
# Indices 1 2 3 4 5 6 
#
# 1 75.7957 20.7940 37.7752 0.0000 0.0000 0.0000
# 2 20.7940 96.4491 27.8698 0.0000 0.0000 0.0000
# 3 37.7752 27.8698 100.5574 0.0000 0.0000 0.0000
# 4 0.0000 0.0000 0.0000 26.0475 0.0000 0.0000
# 5 0.0000 0.0000 0.0000 0.0000 25.3256 0.0000
# 6 0.0000 0.0000 0.0000 0.0000 0.0000 11.7279
#
#
#
# Elastic Compliance Matrix: (Units=1/GPa)
#
#
# Indices 1 2 3 4 5 6 
#
# 1 0.016555 -0.001926 -0.005685 0.000000 0.000000 0.000000
# 2 -0.001926 0.011495 -0.002462 0.000000 0.000000 0.000000
# 3 -0.005685 -0.002462 0.012763 0.000000 0.000000 0.000000
# 4 0.000000 0.000000 0.000000 0.038391 0.000000 0.000000
# 5 0.000000 0.000000 0.000000 0.000000 0.039486 0.000000
# 6 0.000000 0.000000 0.000000 0.000000 0.000000 0.085267
#
#
# Mechanical properties :
#
#
# Convention : Reuss Voigt Hill
#
# Bulk Modulus (GPa) = 48.39044 49.52002 48.95523
# Shear Modulus (GPa) = 21.64571 25.04443 23.34507
#
# Velocity S-wave (km/s) = 3.39574 3.65261 3.52651
# Velocity P-wave (km/s) = 6.41507 6.64597 6.53154
#
# Compressibility (1/GPa) = 0.02066524
#
# Stress axis : x y z
#
# Youngs Moduli (GPa) = 60.40372 86.99462 78.35360
#
# Poissons Ratio (x) = 0.16759 0.44546
# Poissons Ratio (y) = 0.11636 0.19292
# Poissons Ratio (z) = 0.34341 0.21420
#
# Static dielectric constant tensor:
#      x y z
#    x 1.672610 0.000000 0.000000 
#    y 0.000000 1.640850 0.000000 
#    z 0.000000 0.000000 1.744460 
# 
# From -- ./inp_files/12182.got.cif
#   From: 2010.05.17/outbox.ucp.g08.bks.cvg/sg23_7_cif.got.tgz:12182.got - 2010.06.11 15:19:07.
