data_PCOD9332221
_publ_section_title
;
Structure prediction by ZEFSAII (Michael W. Deem and Ramdas Pophale) SiO2 
 PCOD9332221
Probable space group: I 2 2 2
;
_chemical_formula_sum "Si O2"
_cell_formula_units_Z 64
_cell_length_a 29.910908
_cell_length_b 5.239041
_cell_length_c 18.498745
_cell_angle_alpha 90.000000
_cell_angle_beta 90.000000
_cell_angle_gamma 90.000000
_cell_volume 2898.836093
_symmetry_space_group_name_H-M "I 2 2 2"
_symmetry_group_IT_number 23
_symmetry_cell_setting 'orthorhombic'
loop_
_space_group_symop_operation_xyz
x,y,z
-x,-y,z
x,-y,-z
-x,y,-z
1/2+x,1/2+y,1/2+z
1/2-x,1/2-y,1/2+z
1/2+x,1/2-y,1/2-z
1/2-x,1/2+y,1/2-z
loop_
_atom_site_type_symbol
_atom_site_label
_atom_site_fract_x
_atom_site_fract_y
_atom_site_fract_z
Si Si1 0.582994 0.655470 0.204577
Si Si2 0.239818 0.432337 0.793296
Si Si3 0.214356 0.106178 0.579658
Si Si4 0.118947 0.750358 0.449319
Si Si5 0.096765 0.530296 0.919469
Si Si6 0.453276 0.155135 0.720769
Si Si7 0.349356 0.709066 0.682753
Si Si8 0.187801 0.838470 0.927576
O O1 0.586416 0.689561 0.118621
O O2 0.551375 0.426065 0.236262
O O3 0.630207 0.600299 0.243976
O O4 0.573893 0.941282 0.234461
O O5 0.253996 0.699876 0.760525
O O6 0.273965 0.393630 0.860431
O O7 0.186331 0.436151 0.807631
O O8 0.168632 0.264388 0.587455
O O9 0.262202 0.240310 0.577616
O O10 0.209255 0.000000 0.500000
O O11 0.111322 0.500000 0.500000
O O12 0.116456 0.000000 0.500000
O O13 0.067264 0.681717 0.860144
O O14 0.110800 0.278758 0.873656
O O15 0.145033 0.656227 0.932712
O O16 0.076562 0.500000 0.000000
O O17 0.500000 0.000000 0.713903
O O18 0.319836 0.506195 0.642202
O O19 0.185584 0.000000 0.000000
#
# Coordination Sequence:
#
# PCOD9332221 Si02
#       8
#     8   8   8   8   8   8   8   8
#     4  11  24  45  73 100 136 178 227 279 359 436
#     4  12  26  40  58  87 129 179 242 309 359 397
#     4  11  24  40  60  91 134 186 242 288 342 394
#     4  11  25  45  69 100 137 180 232 289 355 424
#     4  11  22  39  62  98 136 185 235 280 339 398
#     4  11  25  46  75 106 139 176 223 282 353 434
#     4  11  23  37  59  89 128 181 238 288 334 405
#     4  12  20  36  61  88 137 188 244 285 335 380
#
# _framework density 22.077826999999999
#
# number of rings (size 3 to 8) (size 9 to 14) (size 15 to 20)
#    0.000    0.750    3.750    4.125    0.000    7.250 
#    0.000    0.000    0.000    7.125    0.000    0.000 
#    0.000    0.000    0.000    0.000    0.000    0.000 
#
# Total GULP energy -178418.728317 kJ/mol
# GULP energy per Si atom -5575.585260 kJ/mol
# Density = 2.202758 g / cm^3
# Si number density = 22.077827 Si / 1000 Ang^3
#
#
#
# Elastic Constant Matrix: (Units=GPa)
#
#
# Indices 1 2 3 4 5 6 
#
# 1 55.3117 16.4335 35.5711 0.0000 0.0000 0.0000
# 2 16.4335 78.6714 26.9332 0.0000 0.0000 0.0000
# 3 35.5711 26.9332 140.9957 0.0000 0.0000 0.0000
# 4 0.0000 0.0000 0.0000 35.7896 0.0000 0.0000
# 5 0.0000 0.0000 0.0000 0.0000 15.6259 0.0000
# 6 0.0000 0.0000 0.0000 0.0000 0.0000 47.6002
#
#
#
# Elastic Compliance Matrix: (Units=1/GPa)
#
#
# Indices 1 2 3 4 5 6 
#
# 1 0.022186 -0.002908 -0.005042 0.000000 0.000000 0.000000
# 2 -0.002908 0.013982 -0.001937 0.000000 0.000000 0.000000
# 3 -0.005042 -0.001937 0.008734 0.000000 0.000000 0.000000
# 4 0.000000 0.000000 0.000000 0.027941 0.000000 0.000000
# 5 0.000000 0.000000 0.000000 0.000000 0.063996 0.000000
# 6 0.000000 0.000000 0.000000 0.000000 0.000000 0.021008
#
#
# Mechanical properties :
#
#
# Convention : Reuss Voigt Hill
#
# Bulk Modulus (GPa) = 39.79649 48.09493 43.94571
# Shear Modulus (GPa) = 26.88211 32.87255 29.87733
#
# Velocity S-wave (km/s) = 3.49321 3.86286 3.68268
# Velocity P-wave (km/s) = 5.85958 6.45966 6.16692
#
# Compressibility (1/GPa) = 0.02512784
#
# Stress axis : x y z
#
# Youngs Moduli (GPa) = 45.07409 71.52164 114.49047
#
# Poissons Ratio (x) = 0.20801 0.57721
# Poissons Ratio (y) = 0.13109 0.22178
# Poissons Ratio (z) = 0.22724 0.13854
#
# Static dielectric constant tensor:
#      x y z
#    x 1.875910 0.000000 0.000000 
#    y 0.000000 1.930820 0.000000 
#    z 0.000000 0.000000 1.782900 
# 
# From -- ./inp_files/25487.got.cif
#   From: 2010.05.17/outbox.cif.g08.bks.cpg/sg23_13_cif.got.tgz:25487.got - 2010.06.04 12:02:01.
