data_PCOD9332982
_publ_section_title
;
Structure prediction by ZEFSAII (Michael W. Deem and Ramdas Pophale) SiO2 
 PCOD9332982
Probable space group: I 21 21 21
;
_chemical_formula_sum "Si O2"
_cell_formula_units_Z 48
_cell_length_a 13.204169
_cell_length_b 9.799757
_cell_length_c 18.764187
_cell_angle_alpha 90.000000
_cell_angle_beta 90.000000
_cell_angle_gamma 90.000000
_cell_volume 2428.041657
_symmetry_space_group_name_H-M "I 21 21 21"
_symmetry_group_IT_number 24
_symmetry_cell_setting 'orthorhombic'
loop_
_space_group_symop_operation_xyz
x,y,z
-x,1/2-y,z
x,-y,1/2-z
1/2-x,y,-z
1/2+x,1/2+y,1/2+z
1/2-x,-y,1/2+z
1/2+x,1/2-y,-z
-x,1/2+y,1/2-z
loop_
_atom_site_type_symbol
_atom_site_label
_atom_site_fract_x
_atom_site_fract_y
_atom_site_fract_z
Si Si1 0.619475 0.268532 0.930758
Si Si2 0.565133 0.877939 0.076441
Si Si3 0.734013 0.609966 0.693105
Si Si4 0.750000 0.969549 0.500000
Si Si5 0.122975 0.079076 0.930431
Si Si6 0.000000 0.750000 0.656170
Si Si7 0.137723 0.644757 0.763075
O O1 0.500000 0.250000 0.938726
O O2 0.648004 0.315212 0.851886
O O3 0.685872 0.134907 0.949864
O O4 0.646790 0.387648 0.988216
O O5 0.500000 0.750000 0.046400
O O6 0.602883 0.840424 0.155830
O O7 0.664407 0.934948 0.036306
O O8 0.479686 0.994587 0.076197
O O9 0.698910 0.500000 0.750000
O O10 0.798154 0.533400 0.629929
O O11 0.800727 0.723953 0.734876
O O12 0.092710 0.225347 0.896642
O O13 0.961179 0.862986 0.711437
O O14 0.192582 0.500000 0.750000
#
# Coordination Sequence:
#
# PCOD9332982 Si02
#       7
#     8   8   8   4   8   4   8
#     4  12  23  45  74  97 129 183 245 295 326 421
#     4  12  24  40  62 101 142 180 224 294 369 418
#     4  11  25  42  65 103 138 179 228 286 354 421
#     4  12  24  46  66 102 138 182 250 286 352 438
#     4  11  20  38  68  99 132 169 229 286 347 405
#     4  10  18  30  60  96 126 162 208 274 354 406
#     4  11  21  36  62  96 141 171 216 282 357 426
#
# _framework density 19.769017000000002
#
# number of rings (size 3 to 8) (size 9 to 14) (size 15 to 20)
#    0.000    0.667    6.667    2.000    2.333    0.000 
#    6.000    2.500    0.000    0.000    0.000    0.000 
#    0.000    0.000    0.000    0.000    0.000    0.000 
#
# Total GULP energy -133690.014246 kJ/mol
# GULP energy per Si atom -5570.417260 kJ/mol
# Density = 1.972402 g / cm^3
# Si number density = 19.769017 Si / 1000 Ang^3
#
#
#
# Elastic Constant Matrix: (Units=GPa)
#
#
# Indices 1 2 3 4 5 6 
#
# 1 122.8178 41.6732 42.6595 0.0000 0.0000 0.0000
# 2 41.6732 90.7691 49.0013 0.0000 0.0000 0.0000
# 3 42.6595 49.0013 118.2251 0.0000 0.0000 0.0000
# 4 0.0000 0.0000 0.0000 25.9292 0.0000 0.0000
# 5 0.0000 0.0000 0.0000 0.0000 26.7928 0.0000
# 6 0.0000 0.0000 0.0000 0.0000 0.0000 27.1826
#
#
#
# Elastic Compliance Matrix: (Units=1/GPa)
#
#
# Indices 1 2 3 4 5 6 
#
# 1 0.010075 -0.003431 -0.002213 0.000000 0.000000 0.000000
# 2 -0.003431 0.015361 -0.005129 0.000000 0.000000 0.000000
# 3 -0.002213 -0.005129 0.011383 0.000000 0.000000 0.000000
# 4 0.000000 0.000000 0.000000 0.038567 0.000000 0.000000
# 5 0.000000 0.000000 0.000000 0.000000 0.037324 0.000000
# 6 0.000000 0.000000 0.000000 0.000000 0.000000 0.036788
#
#
# Mechanical properties :
#
#
# Convention : Reuss Voigt Hill
#
# Bulk Modulus (GPa) = 65.47545 66.49779 65.98662
# Shear Modulus (GPa) = 28.38752 29.21276 28.80014
#
# Velocity S-wave (km/s) = 3.79352 3.84826 3.82099
# Velocity P-wave (km/s) = 7.23739 7.31135 7.27447
#
# Compressibility (1/GPa) = 0.01527290
#
# Stress axis : x y z
#
# Youngs Moduli (GPa) = 99.25533 65.10103 87.85121
#
# Poissons Ratio (x) = 0.22334 0.19446
# Poissons Ratio (y) = 0.34051 0.45057
# Poissons Ratio (z) = 0.21970 0.33389
#
# Static dielectric constant tensor:
#      x y z
#    x 1.746800 0.000000 0.000000 
#    y 0.000000 1.853670 0.000000 
#    z 0.000000 0.000000 1.717980 
# 
# From -- ./inp_files/30740.got.cif
#   From: 2010.05.17/outbox.cif.g08.bks.cpg/sg24_16_cif.got.tgz:30740.got - 2010.06.04 00:33:39.
