data_PCOD9332884
_publ_section_title
;
Structure prediction by ZEFSAII (Michael W. Deem and Ramdas Pophale) SiO2 
 PCOD9332884
Probable space group: I 21 21 21
;
_chemical_formula_sum "Si O2"
_cell_formula_units_Z 56
_cell_length_a 14.632478
_cell_length_b 14.821696
_cell_length_c 11.872670
_cell_angle_alpha 90.000000
_cell_angle_beta 90.000000
_cell_angle_gamma 90.000000
_cell_volume 2574.922594
_symmetry_space_group_name_H-M "I 21 21 21"
_symmetry_group_IT_number 24
_symmetry_cell_setting 'orthorhombic'
loop_
_space_group_symop_operation_xyz
x,y,z
-x,1/2-y,z
x,-y,1/2-z
1/2-x,y,-z
1/2+x,1/2+y,1/2+z
1/2-x,-y,1/2+z
1/2+x,1/2-y,-z
-x,1/2+y,1/2-z
loop_
_atom_site_type_symbol
_atom_site_label
_atom_site_fract_x
_atom_site_fract_y
_atom_site_fract_z
Si Si1 0.000000 0.750000 0.300716
Si Si2 0.421138 0.078939 0.663384
Si Si3 0.265891 0.844812 0.175794
Si Si4 0.458461 0.514098 0.038762
Si Si5 0.904407 0.800605 0.865482
Si Si6 0.304433 0.729987 0.614399
Si Si7 0.405821 0.000000 0.250000
Si Si8 0.830462 0.912268 0.670753
O O1 0.974370 0.663312 0.221820
O O2 0.913055 0.767862 0.379997
O O3 0.323886 0.114801 0.616198
O O4 0.483533 0.028903 0.572057
O O5 0.396181 0.000000 0.750000
O O6 0.321457 0.766807 0.111816
O O7 0.226373 0.800229 0.289646
O O8 0.340056 0.917761 0.216178
O O9 0.410245 0.610731 0.059129
O O10 0.527455 0.491392 0.142195
O O11 0.379809 0.440220 0.055497
O O12 0.889873 0.838718 0.739121
O O13 0.000000 0.750000 0.875979
O O14 0.250000 0.751679 0.500000
O O15 0.266400 0.633124 0.652924
O O16 0.825063 0.000000 0.750000
#
# Coordination Sequence:
#
# PCOD9332884 Si02
#       8
#     4   8   8   8   8   8   4   8
#     4  10  26  48  66 100 146 184 238 292 354 442
#     4  11  26  45  66  97 145 196 229 279 360 439
#     4  10  22  41  61  95 139 175 229 287 350 417
#     4  11  22  38  69 102 134 175 235 286 357 418
#     4  10  17  36  64  93 131 169 221 293 351 395
#     4  10  23  44  68  95 131 183 235 283 343 413
#     4  12  20  38  64 102 134 168 234 302 340 408
#     4   9  19  39  64  98 131 164 228 293 339 404
#
# _framework density 21.748227
#
# number of rings (size 3 to 8) (size 9 to 14) (size 15 to 20)
#    0.000    1.714    4.286    0.000    3.000    3.429 
#    5.143    0.000    0.000    0.000    0.000    0.000 
#    0.000    0.000    0.000    0.000    0.000    0.000 
#
# Total GULP energy -156383.874156 kJ/mol
# GULP energy per Si atom -5585.138363 kJ/mol
# Density = 2.169873 g / cm^3
# Si number density = 21.748227 Si / 1000 Ang^3
#
#
#
# Elastic Constant Matrix: (Units=GPa)
#
#
# Indices 1 2 3 4 5 6 
#
# 1 126.8173 22.6433 14.5301 0.0000 0.0000 0.0000
# 2 22.6433 64.2678 -5.5514 0.0000 0.0000 0.0000
# 3 14.5301 -5.5514 46.1417 0.0000 0.0000 0.0000
# 4 0.0000 0.0000 0.0000 26.7522 0.0000 0.0000
# 5 0.0000 0.0000 0.0000 0.0000 13.4501 0.0000
# 6 0.0000 0.0000 0.0000 0.0000 0.0000 23.4678
#
#
#
# Elastic Compliance Matrix: (Units=1/GPa)
#
#
# Indices 1 2 3 4 5 6 
#
# 1 0.008858 -0.003397 -0.003198 0.000000 0.000000 0.000000
# 2 -0.003397 0.017026 0.003118 0.000000 0.000000 0.000000
# 3 -0.003198 0.003118 0.023055 0.000000 0.000000 0.000000
# 4 0.000000 0.000000 0.000000 0.037380 0.000000 0.000000
# 5 0.000000 0.000000 0.000000 0.000000 0.074349 0.000000
# 6 0.000000 0.000000 0.000000 0.000000 0.000000 0.042612
#
#
# Mechanical properties :
#
#
# Convention : Reuss Voigt Hill
#
# Bulk Modulus (GPa) = 23.81819 33.38562 28.60190
# Shear Modulus (GPa) = 22.29858 26.44100 24.36979
#
# Velocity S-wave (km/s) = 3.20551 3.49058 3.35108
# Velocity P-wave (km/s) = 4.96749 5.62404 5.30593
#
# Compressibility (1/GPa) = 0.04198473
#
# Stress axis : x y z
#
# Youngs Moduli (GPa) = 112.88727 58.73294 43.37511
#
# Poissons Ratio (x) = 0.19953 0.13873
# Poissons Ratio (y) = 0.38351 -0.13526
# Poissons Ratio (z) = 0.36104 -0.18315
#
# Static dielectric constant tensor:
#      x y z
#    x 1.813480 0.000000 0.000000 
#    y 0.000000 1.864500 0.000000 
#    z 0.000000 0.000000 1.809260 
# 
# From -- ./inp_files/20898.got.cif
#   From: 2010.05.17/outbox.cif.g08.bks.cpg/sg24_11_cif.got.tgz:20898.got - 2010.06.04 00:33:39.
