data_PCOD9332460
_publ_section_title
;
Structure prediction by ZEFSAII (Michael W. Deem and Ramdas Pophale) SiO2 
 PCOD9332460
Probable space group: I 2 2 2
;
_chemical_formula_sum "Si O2"
_cell_formula_units_Z 40
_cell_length_a 23.920613
_cell_length_b 8.467647
_cell_length_c 8.419130
_cell_angle_alpha 90.000000
_cell_angle_beta 90.000000
_cell_angle_gamma 90.000000
_cell_volume 1705.305785
_symmetry_space_group_name_H-M "I 2 2 2"
_symmetry_group_IT_number 23
_symmetry_cell_setting 'orthorhombic'
loop_
_space_group_symop_operation_xyz
x,y,z
-x,-y,z
x,-y,-z
-x,y,-z
1/2+x,1/2+y,1/2+z
1/2-x,1/2-y,1/2+z
1/2+x,1/2-y,1/2-z
1/2-x,1/2+y,1/2-z
loop_
_atom_site_type_symbol
_atom_site_label
_atom_site_fract_x
_atom_site_fract_y
_atom_site_fract_z
Si Si1 0.922503 0.247358 0.098064
Si Si2 0.801445 0.616714 0.849449
Si Si3 0.000000 0.500000 0.000000
Si Si4 0.500000 0.500000 0.000000
Si Si5 0.177278 0.164434 0.402266
Si Si6 0.675526 0.000000 0.000000
Si Si7 0.574357 0.406814 0.268660
O O1 0.857653 0.281042 0.135276
O O2 0.937544 0.088858 0.190006
O O3 0.938225 0.202978 0.916443
O O4 0.958578 0.403518 0.117008
O O5 0.742084 0.702590 0.871491
O O6 0.798528 0.532792 0.676637
O O7 0.805474 0.500000 0.000000
O O8 0.540614 0.390246 0.106296
O O9 0.149985 0.323800 0.474105
O O10 0.140317 0.121013 0.251969
O O11 0.175597 0.000000 0.500000
#
# Coordination Sequence:
#
# PCOD9332460 Si02
#       7
#     8   8   2   2   8   4   8
#     4  11  25  47  76 105 149 205 259 327 401 471
#     4  11  26  46  73 117 157 198 259 320 389 487
#     4  12  24  46  70 106 140 194 274 334 380 480
#     4  12  24  46  70 106 140 194 274 334 380 480
#     4  11  26  46  73 117 157 198 259 320 389 487
#     4  12  28  44  80 113 160 213 252 324 408 474
#     4  11  25  47  76 105 149 205 259 327 401 471
#
# _framework density 23.456204
#
# number of rings (size 3 to 8) (size 9 to 14) (size 15 to 20)
#    0.000    0.800    2.000    3.600   11.200    1.600 
#    0.000    0.000    0.000    2.400    0.000    0.000 
#    0.000    0.000    0.000    0.000    0.000    0.000 
#
# Total GULP energy -111507.920752 kJ/mol
# GULP energy per Si atom -5575.396038 kJ/mol
# Density = 2.340282 g / cm^3
# Si number density = 23.456204 Si / 1000 Ang^3
#
#
#
# Elastic Constant Matrix: (Units=GPa)
#
#
# Indices 1 2 3 4 5 6 
#
# 1 120.0810 28.1801 16.2229 0.0000 0.0000 0.0000
# 2 28.1801 130.9788 19.5866 0.0000 0.0000 0.0000
# 3 16.2229 19.5866 115.5133 0.0000 0.0000 0.0000
# 4 0.0000 0.0000 0.0000 -16.5970 0.0000 0.0000
# 5 0.0000 0.0000 0.0000 0.0000 7.2332 0.0000
# 6 0.0000 0.0000 0.0000 0.0000 0.0000 7.3946
#
#
#
# Elastic Compliance Matrix: (Units=1/GPa)
#
#
# Indices 1 2 3 4 5 6 
#
# 1 0.008870 -0.001767 -0.000946 0.000000 0.000000 0.000000
# 2 -0.001767 0.008185 -0.001140 0.000000 0.000000 0.000000
# 3 -0.000946 -0.001140 0.008983 0.000000 0.000000 0.000000
# 4 0.000000 0.000000 0.000000 -0.060252 0.000000 0.000000
# 5 0.000000 0.000000 0.000000 0.000000 0.138252 0.000000
# 6 0.000000 0.000000 0.000000 0.000000 0.000000 0.135234
#
#
# Mechanical properties :
#
#
# Convention : Reuss Voigt Hill
#
# Bulk Modulus (GPa) = 54.54628 54.95024 54.74826
# Shear Modulus (GPa) = 19.75587 19.77839 19.76713
#
# Velocity S-wave (km/s) = 2.90529 2.90695 2.90612
# Velocity P-wave (km/s) = 5.87872 5.89447 5.88660
#
# Compressibility (1/GPa) = 0.01833306
#
# Stress axis : x y z
#
# Youngs Moduli (GPa) = 112.73712 122.16838 111.31946
#
# Poissons Ratio (x) = 0.21586 0.10532
# Poissons Ratio (y) = 0.19920 0.12688
# Poissons Ratio (z) = 0.10667 0.13925
#
# Static dielectric constant tensor:
#      x y z
#    x 1.922140 0.000000 0.000000 
#    y 0.000000 2.042170 0.000000 
#    z 0.000000 0.000000 1.962150 
# 
# From -- ./inp_files/12930.got.cif
#   From: 2010.05.17/outbox.cif.g08.bks.cpg/sg23_7_cif.got.tgz:12930.got - 2010.06.04 12:02:01.
