data_PCOD9332880
_publ_section_title
;
Structure prediction by ZEFSAII (Michael W. Deem and Ramdas Pophale) SiO2 
 PCOD9332880
Probable space group: I 21 21 21
;
_chemical_formula_sum "Si O2"
_cell_formula_units_Z 36
_cell_length_a 17.473656
_cell_length_b 14.571827
_cell_length_c 8.889811
_cell_angle_alpha 90.000000
_cell_angle_beta 90.000000
_cell_angle_gamma 90.000000
_cell_volume 2263.551167
_symmetry_space_group_name_H-M "I 21 21 21"
_symmetry_group_IT_number 24
_symmetry_cell_setting 'orthorhombic'
loop_
_space_group_symop_operation_xyz
x,y,z
-x,1/2-y,z
x,-y,1/2-z
1/2-x,y,-z
1/2+x,1/2+y,1/2+z
1/2-x,-y,1/2+z
1/2+x,1/2-y,-z
-x,1/2+y,1/2-z
loop_
_atom_site_type_symbol
_atom_site_label
_atom_site_fract_x
_atom_site_fract_y
_atom_site_fract_z
Si Si1 0.500000 0.750000 0.141380
Si Si2 0.985653 0.910850 0.094942
Si Si3 0.841212 0.000000 0.250000
Si Si4 0.250000 0.615869 0.500000
Si Si5 0.030368 0.116689 0.076343
Si Si6 0.394037 0.731351 0.417756
O O1 0.427146 0.750632 0.252585
O O2 0.508377 0.838789 0.037395
O O3 0.026432 0.872037 0.244352
O O4 0.899989 0.935882 0.153992
O O5 0.023580 0.008122 0.050021
O O6 0.790209 0.055132 0.129947
O O7 0.314293 0.680253 0.425844
O O8 0.100631 0.172584 0.006961
O O9 0.955857 0.164178 0.000347
#
# Coordination Sequence:
#
# PCOD9332880 Si02
#       6
#     4   8   4   4   8   8
#     4  10  22  30  58  84 106 140 198 236 262 320
#     4  10  17  36  56  80 104 141 190 243 263 323
#     4  10  24  34  56  84 112 158 170 232 296 336
#     4  12  22  38  54  82 128 146 180 220 294 358
#     4   8  17  34  54  73 105 144 193 216 280 310
#     4  10  20  33  50  81 109 151 174 229 274 335
#
# _framework density 15.904214
#
# number of rings (size 3 to 8) (size 9 to 14) (size 15 to 20)
#    0.000    2.667    4.444    1.333    3.111    3.556 
#    0.000    0.000    0.000    5.333    0.000    0.000 
#    0.000    0.000    0.000    0.000    0.000    0.000 
#
# Total GULP energy -100234.534945 kJ/mol
# GULP energy per Si atom -5568.585275 kJ/mol
# Density = 1.586801 g / cm^3
# Si number density = 15.904214 Si / 1000 Ang^3
#
#
#
# Elastic Constant Matrix: (Units=GPa)
#
#
# Indices 1 2 3 4 5 6 
#
# 1 74.8036 44.4085 52.3761 0.0000 0.0000 0.0000
# 2 44.4085 105.9791 90.7521 0.0000 0.0000 0.0000
# 3 52.3761 90.7521 129.5233 0.0000 0.0000 0.0000
# 4 0.0000 0.0000 0.0000 16.9131 0.0000 0.0000
# 5 0.0000 0.0000 0.0000 0.0000 17.6869 0.0000
# 6 0.0000 0.0000 0.0000 0.0000 0.0000 22.7336
#
#
#
# Elastic Compliance Matrix: (Units=1/GPa)
#
#
# Indices 1 2 3 4 5 6 
#
# 1 0.019149 -0.003483 -0.005303 0.000000 0.000000 0.000000
# 2 -0.003483 0.024223 -0.015563 0.000000 0.000000 0.000000
# 3 -0.005303 -0.015563 0.020770 0.000000 0.000000 0.000000
# 4 0.000000 0.000000 0.000000 0.059126 0.000000 0.000000
# 5 0.000000 0.000000 0.000000 0.000000 0.056539 0.000000
# 6 0.000000 0.000000 0.000000 0.000000 0.000000 0.043988
#
#
# Mechanical properties :
#
#
# Convention : Reuss Voigt Hill
#
# Bulk Modulus (GPa) = 64.75602 76.15327 70.45464
# Shear Modulus (GPa) = 18.00890 19.65134 18.83012
#
# Velocity S-wave (km/s) = 3.36867 3.51893 3.44462
# Velocity P-wave (km/s) = 7.47899 8.03100 7.75990
#
# Compressibility (1/GPa) = 0.01544258
#
# Stress axis : x y z
#
# Youngs Moduli (GPa) = 52.22158 41.28383 48.14699
#
# Poissons Ratio (x) = 0.14379 0.25533
# Poissons Ratio (y) = 0.18189 0.74933
# Poissons Ratio (z) = 0.27693 0.64252
#
# Static dielectric constant tensor:
#      x y z
#    x 1.526610 0.000000 0.000000 
#    y 0.000000 1.550690 0.000000 
#    z 0.000000 0.000000 1.532460 
# 
# From -- ./inp_files/12510.got.cif
#   From: 2010.05.17/outbox.cif.g08.bks.cpg/sg24_7_cif.got.tgz:12510.got - 2010.06.04 00:33:39.
