data_PCOD9332874
_publ_section_title
;
Structure prediction by ZEFSAII (Michael W. Deem and Ramdas Pophale) SiO2 
 PCOD9332874
Probable space group: I 21 21 21
;
_chemical_formula_sum "Si O2"
_cell_formula_units_Z 60
_cell_length_a 27.942258
_cell_length_b 10.921121
_cell_length_c 10.139309
_cell_angle_alpha 90.000000
_cell_angle_beta 90.000000
_cell_angle_gamma 90.000000
_cell_volume 3094.119450
_symmetry_space_group_name_H-M "I 21 21 21"
_symmetry_group_IT_number 24
_symmetry_cell_setting 'orthorhombic'
loop_
_space_group_symop_operation_xyz
x,y,z
-x,1/2-y,z
x,-y,1/2-z
1/2-x,y,-z
1/2+x,1/2+y,1/2+z
1/2-x,-y,1/2+z
1/2+x,1/2-y,-z
-x,1/2+y,1/2-z
loop_
_atom_site_type_symbol
_atom_site_label
_atom_site_fract_x
_atom_site_fract_y
_atom_site_fract_z
Si Si1 0.570624 0.029715 0.458580
Si Si2 0.343224 0.000000 0.750000
Si Si3 0.419706 0.804214 0.681551
Si Si4 0.023961 0.120180 0.431633
Si Si5 0.600926 0.694160 0.130279
Si Si6 0.142454 0.602519 0.167539
Si Si7 0.055528 0.263379 0.883448
Si Si8 0.194406 0.821965 0.030899
O O1 0.518513 0.029471 0.529871
O O2 0.584035 0.164177 0.399925
O O3 0.611743 0.021874 0.566886
O O4 0.570357 0.906645 0.373550
O O5 0.377103 0.098101 0.822195
O O6 0.314814 0.071550 0.637560
O O7 0.458427 0.864019 0.781551
O O8 0.396914 0.686749 0.756423
O O9 0.438156 0.774153 0.536449
O O10 0.069134 0.112293 0.529650
O O11 0.000000 0.250000 0.462794
O O12 0.586666 0.681702 0.282664
O O13 0.655864 0.670719 0.089354
O O14 0.169329 0.500000 0.250000
O O15 0.177884 0.696282 0.099895
O O16 0.000000 0.250000 0.844772
O O17 0.250000 0.819814 0.000000
#
# Coordination Sequence:
#
# PCOD9332874 Si02
#       8
#     8   4   8   8   8   8   8   8
#     4  10  20  34  59  82 122 177 207 248 308 368
#     4  10  22  44  66  92 116 162 212 270 314 372
#     4  11  21  36  59  88 123 165 214 265 291 356
#     4  10  17  35  57  80 116 172 212 242 301 359
#     4  10  21  41  58  83 125 164 201 261 327 386
#     4  10  18  37  64  91 122 156 210 267 313 358
#     4  12  25  33  51  95 133 168 217 249 300 374
#     4  10  22  45  72  91 115 161 211 261 337 394
#
# _framework density 19.391624
#
# number of rings (size 3 to 8) (size 9 to 14) (size 15 to 20)
#    0.000    1.600    6.667    2.000    1.867    0.000 
#    2.400    4.000    0.000    0.000    0.000    0.000 
#    0.000    0.000    0.000    0.000    0.000    0.000 
#
# Total GULP energy -167292.831965 kJ/mol
# GULP energy per Si atom -5576.427732 kJ/mol
# Density = 1.934749 g / cm^3
# Si number density = 19.391624 Si / 1000 Ang^3
#
#
#
# Elastic Constant Matrix: (Units=GPa)
#
#
# Indices 1 2 3 4 5 6 
#
# 1 131.7262 11.1169 51.9149 0.0000 0.0000 0.0000
# 2 11.1169 32.8798 0.7281 0.0000 0.0000 0.0000
# 3 51.9149 0.7281 93.1299 0.0000 0.0000 0.0000
# 4 0.0000 0.0000 0.0000 22.7018 0.0000 0.0000
# 5 0.0000 0.0000 0.0000 0.0000 18.3751 0.0000
# 6 0.0000 0.0000 0.0000 0.0000 0.0000 1.0093
#
#
#
# Elastic Compliance Matrix: (Units=1/GPa)
#
#
# Indices 1 2 3 4 5 6 
#
# 1 0.010071 -0.003281 -0.005588 0.000000 0.000000 0.000000
# 2 -0.003281 0.031488 0.001583 0.000000 0.000000 0.000000
# 3 -0.005588 0.001583 0.013840 0.000000 0.000000 0.000000
# 4 0.000000 0.000000 0.000000 0.044049 0.000000 0.000000
# 5 0.000000 0.000000 0.000000 0.000000 0.054421 0.000000
# 6 0.000000 0.000000 0.000000 0.000000 0.000000 0.990812
#
#
# Mechanical properties :
#
#
# Convention : Reuss Voigt Hill
#
# Bulk Modulus (GPa) = 24.49402 42.80616 33.65009
# Shear Modulus (GPa) = 4.26307 21.34898 12.80602
#
# Velocity S-wave (km/s) = 1.48431 3.32164 2.57259
# Velocity P-wave (km/s) = 3.94921 6.06906 5.12005
#
# Compressibility (1/GPa) = 0.04082628
#
# Stress axis : x y z
#
# Youngs Moduli (GPa) = 99.29659 31.75797 72.25175
#
# Poissons Ratio (x) = 0.10421 0.40376
# Poissons Ratio (y) = 0.32582 -0.11437
# Poissons Ratio (z) = 0.55490 -0.05027
#
# Static dielectric constant tensor:
#      x y z
#    x 1.639910 0.000000 0.000000 
#    y 0.000000 1.739810 0.000000 
#    z 0.000000 0.000000 1.752030 
# 
# From -- ./inp_files/16452.got.cif
#   From: 2010.05.17/outbox.cif.g08.bks.cpg/sg24_9_cif.got.tgz:16452.got - 2010.06.04 00:33:39.
