data_PCOD9332987
_publ_section_title
;
Structure prediction by ZEFSAII (Michael W. Deem and Ramdas Pophale) SiO2 
 PCOD9332987
Probable space group: I 21 21 21
;
_chemical_formula_sum "Si O2"
_cell_formula_units_Z 44
_cell_length_a 5.612579
_cell_length_b 23.588245
_cell_length_c 20.583834
_cell_angle_alpha 90.000000
_cell_angle_beta 90.000000
_cell_angle_gamma 90.000000
_cell_volume 2725.112073
_symmetry_space_group_name_H-M "I 21 21 21"
_symmetry_group_IT_number 24
_symmetry_cell_setting 'orthorhombic'
loop_
_space_group_symop_operation_xyz
x,y,z
-x,1/2-y,z
x,-y,1/2-z
1/2-x,y,-z
1/2+x,1/2+y,1/2+z
1/2-x,-y,1/2+z
1/2+x,1/2-y,-z
-x,1/2+y,1/2-z
loop_
_atom_site_type_symbol
_atom_site_label
_atom_site_fract_x
_atom_site_fract_y
_atom_site_fract_z
Si Si1 0.250000 0.084931 0.500000
Si Si2 0.748441 0.780917 0.078266
Si Si3 0.949660 0.891711 0.113974
Si Si4 0.597682 0.430687 0.752502
Si Si5 0.360054 0.495220 0.435100
Si Si6 0.593317 0.053937 0.199690
O O1 0.377786 0.122535 0.553916
O O2 0.425958 0.043961 0.460454
O O3 0.500000 0.750000 0.094620
O O4 0.758652 0.841781 0.113770
O O5 0.000000 0.750000 0.095499
O O6 0.750000 0.788722 0.000000
O O7 0.832021 0.951041 0.093248
O O8 0.076890 0.903720 0.181359
O O9 0.603450 0.500000 0.750000
O O10 0.349765 0.416992 0.789085
O O11 0.850249 0.413691 0.783070
O O12 0.250000 0.523275 0.500000
O O13 0.427351 0.533580 0.374492
O O14 0.599162 0.000000 0.250000
#
# Coordination Sequence:
#
# PCOD9332987 Si02
#       6
#     4   8   8   8   8   8
#     4  10  20  28  48  68  92 118 164 216 252 298
#     4  10  23  37  50  67  94 127 169 222 274 304
#     4  11  21  33  50  71  92 128 171 217 267 297
#     4  10  19  31  49  67  93 121 158 206 246 305
#     4  10  20  30  45  70  94 127 166 212 250 293
#     4  10  18  31  45  65  93 123 155 202 243 293
#
# _framework density 16.146124
#
# number of rings (size 3 to 8) (size 9 to 14) (size 15 to 20)
#    0.000    1.818    3.636    3.818    8.909    0.000 
#    0.000    0.000    0.000    0.000    0.000    0.000 
#    0.000    0.000    0.000    0.000    0.000    5.455 
#
# Total GULP energy -122592.816115 kJ/mol
# GULP energy per Si atom -5572.400733 kJ/mol
# Density = 1.610937 g / cm^3
# Si number density = 16.146124 Si / 1000 Ang^3
#
#
#
# Elastic Constant Matrix: (Units=GPa)
#
#
# Indices 1 2 3 4 5 6 
#
# 1 114.5773 12.9246 38.5422 0.0000 0.0000 0.0000
# 2 12.9246 25.4517 26.2028 0.0000 0.0000 0.0000
# 3 38.5422 26.2028 105.3507 0.0000 0.0000 0.0000
# 4 0.0000 0.0000 0.0000 3.2746 0.0000 0.0000
# 5 0.0000 0.0000 0.0000 0.0000 46.9703 0.0000
# 6 0.0000 0.0000 0.0000 0.0000 0.0000 20.8684
#
#
#
# Elastic Compliance Matrix: (Units=1/GPa)
#
#
# Indices 1 2 3 4 5 6 
#
# 1 0.010011 -0.001765 -0.003224 0.000000 0.000000 0.000000
# 2 -0.001765 0.053125 -0.012567 0.000000 0.000000 0.000000
# 3 -0.003224 -0.012567 0.013797 0.000000 0.000000 0.000000
# 4 0.000000 0.000000 0.000000 0.305385 0.000000 0.000000
# 5 0.000000 0.000000 0.000000 0.000000 0.021290 0.000000
# 6 0.000000 0.000000 0.000000 0.000000 0.000000 0.047919
#
#
# Mechanical properties :
#
#
# Convention : Reuss Voigt Hill
#
# Bulk Modulus (GPa) = 23.91141 44.52434 34.21788
# Shear Modulus (GPa) = 9.98842 25.40331 17.69586
#
# Velocity S-wave (km/s) = 2.48992 3.97084 3.31415
# Velocity P-wave (km/s) = 4.80706 6.97561 5.99028
#
# Compressibility (1/GPa) = 0.04182103
#
# Stress axis : x y z
#
# Youngs Moduli (GPa) = 99.88812 18.82359 72.47848
#
# Poissons Ratio (x) = 0.03323 0.23364
# Poissons Ratio (y) = 0.17631 0.91087
# Poissons Ratio (z) = 0.32199 0.23656
#
# Static dielectric constant tensor:
#      x y z
#    x 1.644670 0.000000 0.000000 
#    y 0.000000 1.521020 0.000000 
#    z 0.000000 0.000000 1.552590 
# 
# From -- ./inp_files/4761.got.cif
#   From: 2010.05.17/outbox.cif.g08.bks.cpg/sg24_3_cif.got.tgz:4761.got - 2010.06.04 00:33:39.
