data_PCOD9332932
_publ_section_title
;
Structure prediction by ZEFSAII (Michael W. Deem and Ramdas Pophale) SiO2 
 PCOD9332932
Probable space group: I 21 21 21
;
_chemical_formula_sum "Si O2"
_cell_formula_units_Z 48
_cell_length_a 21.035454
_cell_length_b 5.242651
_cell_length_c 24.718547
_cell_angle_alpha 90.000000
_cell_angle_beta 90.000000
_cell_angle_gamma 90.000000
_cell_volume 2725.999527
_symmetry_space_group_name_H-M "I 21 21 21"
_symmetry_group_IT_number 24
_symmetry_cell_setting 'orthorhombic'
loop_
_space_group_symop_operation_xyz
x,y,z
-x,1/2-y,z
x,-y,1/2-z
1/2-x,y,-z
1/2+x,1/2+y,1/2+z
1/2-x,-y,1/2+z
1/2+x,1/2-y,-z
-x,1/2+y,1/2-z
loop_
_atom_site_type_symbol
_atom_site_label
_atom_site_fract_x
_atom_site_fract_y
_atom_site_fract_z
Si Si1 0.158975 0.450270 0.103915
Si Si2 0.823644 0.581111 0.847799
Si Si3 0.782611 0.552094 0.058205
Si Si4 0.768580 0.919812 0.692485
Si Si5 0.957549 0.500311 0.686649
Si Si6 0.955931 0.999229 0.312137
O O1 0.171625 0.187709 0.071709
O O2 0.213729 0.443010 0.149036
O O3 0.095161 0.482809 0.139336
O O4 0.175846 0.692469 0.066669
O O5 0.776776 0.564257 0.899366
O O6 0.820020 0.865788 0.823813
O O7 0.897155 0.509391 0.852781
O O8 0.795381 0.363804 0.808590
O O9 0.750000 0.532543 0.000000
O O10 0.742781 0.000000 0.750000
O O11 0.935611 0.500000 0.750000
O O12 0.000000 0.750000 0.678619
O O13 0.000000 0.250000 0.679352
O O14 0.000000 0.750000 0.315343
O O15 0.928697 0.000000 0.250000
O O16 0.000000 0.250000 0.317497
#
# Coordination Sequence:
#
# PCOD9332932 Si02
#       6
#     8   8   8   8   8   8
#     4  10  20  34  54  79 105 136 175 217 264 316
#     4  10  20  32  49  72  98 130 166 206 253 303
#     4  10  21  37  57  78  99 132 176 228 277 308
#     4  10  18  29  48  74 103 128 158 205 256 308
#     4  10  19  30  46  68  97 131 160 188 230 292
#     4  10  20  34  54  81 116 153 181 210 258 327
#
# _framework density 17.608221
#
# number of rings (size 3 to 8) (size 9 to 14) (size 15 to 20)
#    0.000    2.000    0.000    4.500    0.000    1.333 
#    0.000    5.000    0.000    6.000    0.000    0.000 
#    0.000    0.000    0.000    0.000    0.000    0.000 
#
# Total GULP energy -133766.029767 kJ/mol
# GULP energy per Si atom -5573.584574 kJ/mol
# Density = 1.756814 g / cm^3
# Si number density = 17.608221 Si / 1000 Ang^3
#
#
#
# Elastic Constant Matrix: (Units=GPa)
#
#
# Indices 1 2 3 4 5 6 
#
# 1 74.5570 35.6704 17.4086 0.0000 0.0000 0.0000
# 2 35.6704 123.0844 43.7437 0.0000 0.0000 0.0000
# 3 17.4086 43.7437 68.2773 0.0000 0.0000 0.0000
# 4 0.0000 0.0000 0.0000 13.7193 0.0000 0.0000
# 5 0.0000 0.0000 0.0000 0.0000 25.5936 0.0000
# 6 0.0000 0.0000 0.0000 0.0000 0.0000 17.3971
#
#
#
# Elastic Compliance Matrix: (Units=1/GPa)
#
#
# Indices 1 2 3 4 5 6 
#
# 1 0.015675 -0.004043 -0.001407 0.000000 0.000000 0.000000
# 2 -0.004043 0.011563 -0.006377 0.000000 0.000000 0.000000
# 3 -0.001407 -0.006377 0.019090 0.000000 0.000000 0.000000
# 4 0.000000 0.000000 0.000000 0.072890 0.000000 0.000000
# 5 0.000000 0.000000 0.000000 0.000000 0.039072 0.000000
# 6 0.000000 0.000000 0.000000 0.000000 0.000000 0.057481
#
#
# Mechanical properties :
#
#
# Convention : Reuss Voigt Hill
#
# Bulk Modulus (GPa) = 44.10092 51.06269 47.58180
# Shear Modulus (GPa) = 20.24434 22.61507 21.42970
#
# Velocity S-wave (km/s) = 3.39442 3.58767 3.49238
# Velocity P-wave (km/s) = 6.36103 6.79883 6.58357
#
# Compressibility (1/GPa) = 0.02267526
#
# Stress axis : x y z
#
# Youngs Moduli (GPa) = 63.79499 86.48632 52.38241
#
# Poissons Ratio (x) = 0.34965 0.07368
# Poissons Ratio (y) = 0.25792 0.33404
# Poissons Ratio (z) = 0.08973 0.55153
#
# Static dielectric constant tensor:
#      x y z
#    x 1.609770 0.000000 0.000000 
#    y 0.000000 1.626990 0.000000 
#    z 0.000000 0.000000 1.653680 
# 
# From -- ./inp_files/34083.got.cif
#   From: 2010.05.17/outbox.cif.g08.bks.cpg/sg24_18_cif.got.tgz:34083.got - 2010.06.04 00:33:39.
