data_PCOD9332009
_publ_section_title
;
Structure prediction by ZEFSAII (Michael W. Deem and Ramdas Pophale) SiO2 
 PCOD9332009
Probable space group: I 2 2 2
;
_chemical_formula_sum "Si O2"
_cell_formula_units_Z 46
_cell_length_a 6.167529
_cell_length_b 23.563190
_cell_length_c 13.931841
_cell_angle_alpha 90.000000
_cell_angle_beta 90.000000
_cell_angle_gamma 90.000000
_cell_volume 2024.667888
_symmetry_space_group_name_H-M "I 2 2 2"
_symmetry_group_IT_number 23
_symmetry_cell_setting 'orthorhombic'
loop_
_space_group_symop_operation_xyz
x,y,z
-x,-y,z
x,-y,-z
-x,y,-z
1/2+x,1/2+y,1/2+z
1/2-x,1/2-y,1/2+z
1/2+x,1/2-y,1/2-z
1/2-x,1/2+y,1/2-z
loop_
_atom_site_type_symbol
_atom_site_label
_atom_site_fract_x
_atom_site_fract_y
_atom_site_fract_z
Si Si1 0.651139 0.307918 0.637338
Si Si2 0.500000 0.000000 0.500000
Si Si3 0.500000 0.854747 0.000000
Si Si4 0.349039 0.444950 0.863115
Si Si5 0.500000 0.348162 0.000000
Si Si6 0.235211 0.881929 0.824964
Si Si7 0.000000 0.330353 0.000000
Si Si8 0.517467 0.809774 0.694262
O O1 0.820190 0.315985 0.551785
O O2 0.494363 0.361622 0.635683
O O3 0.523987 0.248419 0.636113
O O4 0.773335 0.307619 0.739663
O O5 0.655780 0.962413 0.433912
O O6 0.606816 0.890756 0.085472
O O7 0.500000 0.500000 0.861256
O O8 0.475126 0.390974 0.909147
O O9 0.279554 0.429857 0.754898
O O10 0.731249 0.314859 0.999478
O O11 0.327931 0.827019 0.766930
O O12 0.988396 0.354554 0.891806
#
# Coordination Sequence:
#
# PCOD9332009 Si02
#       8
#     8   2   4   8   4   8   4   8
#     4  11  23  44  64  97 137 184 243 299 356 429
#     4  12  24  44  72 112 152 178 232 286 378 468
#     4  10  26  43  70  90 130 193 245 307 364 414
#     4  12  25  42  72 104 145 188 228 295 378 452
#     4  12  23  45  64 107 152 193 226 297 359 456
#     4  11  24  46  66  98 138 186 240 299 356 434
#     4  12  27  38  69 104 150 192 233 288 361 434
#     4  11  24  37  65  98 140 185 236 289 352 433
#
# _framework density 22.719774000000001
#
# number of rings (size 3 to 8) (size 9 to 14) (size 15 to 20)
#    0.000    0.696    5.217    2.087    2.435    3.478 
#    0.000    0.000    0.000    7.826    0.000    0.000 
#    0.000    0.000    0.000    0.000    0.000    0.000 
#
# Total GULP energy -128231.116800 kJ/mol
# GULP energy per Si atom -5575.265948 kJ/mol
# Density = 2.266806 g / cm^3
# Si number density = 22.719774 Si / 1000 Ang^3
#
#
#
# Elastic Constant Matrix: (Units=GPa)
#
#
# Indices 1 2 3 4 5 6 
#
# 1 153.5467 46.3429 61.2633 0.0000 0.0000 0.0000
# 2 46.3429 74.7705 43.4822 0.0000 0.0000 0.0000
# 3 61.2633 43.4822 170.5376 0.0001 0.0000 0.0000
# 4 0.0000 0.0000 0.0001 21.4008 0.0000 0.0000
# 5 0.0000 0.0000 0.0000 0.0000 50.1943 0.0000
# 6 0.0000 0.0000 0.0000 0.0000 0.0000 7.6886
#
#
#
# Elastic Compliance Matrix: (Units=1/GPa)
#
#
# Indices 1 2 3 4 5 6 
#
# 1 0.008568 -0.004133 -0.002024 0.000000 0.000000 0.000000
# 2 -0.004133 0.017697 -0.003027 0.000000 0.000000 0.000000
# 3 -0.002024 -0.003027 0.007363 0.000000 0.000000 0.000000
# 4 0.000000 0.000000 0.000000 0.046727 0.000000 0.000000
# 5 0.000000 0.000000 0.000000 0.000000 0.019923 0.000000
# 6 0.000000 0.000000 0.000000 0.000000 0.000000 0.130062
#
#
# Mechanical properties :
#
#
# Convention : Reuss Voigt Hill
#
# Bulk Modulus (GPa) = 65.53946 77.89239 71.71593
# Shear Modulus (GPa) = 19.70104 32.37452 26.03778
#
# Velocity S-wave (km/s) = 2.94790 3.77895 3.38899
# Velocity P-wave (km/s) = 6.36368 7.30746 6.85184
#
# Compressibility (1/GPa) = 0.01525798
#
# Stress axis : x y z
#
# Youngs Moduli (GPa) = 116.71742 56.50815 135.81851
#
# Poissons Ratio (x) = 0.23356 0.27489
# Poissons Ratio (y) = 0.48242 0.41116
# Poissons Ratio (z) = 0.23623 0.17107
#
# Static dielectric constant tensor:
#      x y z
#    x 1.941950 0.000000 0.000000 
#    y 0.000000 2.091850 0.000000 
#    z 0.000000 0.000000 1.863700 
# 
# From -- ./inp_files/19214.got.cif
#   From: 2010.05.17/outbox.cif.g08.bks.cpg/sg23_10_cif.got.tgz:19214.got - 2010.06.04 12:02:01.
