data_PCOD9332978
_publ_section_title
;
Structure prediction by ZEFSAII (Michael W. Deem and Ramdas Pophale) SiO2 
 PCOD9332978
Probable space group: I 21 21 21
;
_chemical_formula_sum "Si O2"
_cell_formula_units_Z 32
_cell_length_a 12.838705
_cell_length_b 12.786244
_cell_length_c 7.954734
_cell_angle_alpha 90.000000
_cell_angle_beta 90.000000
_cell_angle_gamma 90.000000
_cell_volume 1305.839705
_symmetry_space_group_name_H-M "I 21 21 21"
_symmetry_group_IT_number 24
_symmetry_cell_setting 'orthorhombic'
loop_
_space_group_symop_operation_xyz
x,y,z
-x,1/2-y,z
x,-y,1/2-z
1/2-x,y,-z
1/2+x,1/2+y,1/2+z
1/2-x,-y,1/2+z
1/2+x,1/2-y,-z
-x,1/2+y,1/2-z
loop_
_atom_site_type_symbol
_atom_site_label
_atom_site_fract_x
_atom_site_fract_y
_atom_site_fract_z
Si Si1 0.153010 0.419487 0.896813
Si Si2 0.122412 0.214257 0.734510
Si Si3 0.931738 0.421408 0.029928
Si Si4 0.088710 0.161944 0.375732
O O1 0.120445 0.500000 0.750000
O O2 0.185204 0.310936 0.810412
O O3 0.250000 0.463580 0.000000
O O4 0.054025 0.392203 0.012618
O O5 0.149185 0.197391 0.541854
O O6 0.000000 0.250000 0.733091
O O7 0.122678 0.114993 0.858029
O O8 0.876545 0.362788 0.185502
O O9 0.940257 0.544476 0.063797
O O10 0.000000 0.250000 0.357331
#
# Coordination Sequence:
#
# PCOD9332978 Si02
#       4
#     8   8   8   8
#     4  11  23  38  55  89 135 173 202 257 328 404
#     4   9  18  36  55  80 115 158 204 256 302 362
#     4  10  20  35  58  89 119 151 211 265 314 372
#     4  10  18  30  59  88 112 147 198 263 319 366
#
# _framework density 24.505306000000001
#
# number of rings (size 3 to 8) (size 9 to 14) (size 15 to 20)
#    0.000    2.000    0.000    7.500    3.500    0.000 
#    4.500    0.000    0.000    0.000   26.000    0.000 
#    0.000    0.000    0.000    0.000    0.000    0.000 
#
# Total GULP energy -89291.719726 kJ/mol
# GULP energy per Si atom -5580.732483 kJ/mol
# Density = 2.444953 g / cm^3
# Si number density = 24.505306 Si / 1000 Ang^3
#
#
#
# Elastic Constant Matrix: (Units=GPa)
#
#
# Indices 1 2 3 4 5 6 
#
# 1 49.3343 11.9462 45.2250 0.0000 0.0000 0.0000
# 2 11.9462 134.3476 36.3704 0.0000 0.0000 0.0000
# 3 45.2250 36.3704 137.7236 0.0000 0.0000 0.0000
# 4 0.0000 0.0000 0.0000 -302.1079 0.0000 0.0000
# 5 0.0000 0.0000 0.0000 0.0000 -43.1924 0.0000
# 6 0.0000 0.0000 0.0000 0.0000 0.0000 -7.8792
#
#
#
# Elastic Compliance Matrix: (Units=1/GPa)
#
#
# Indices 1 2 3 4 5 6 
#
# 1 0.028999 -0.000001 -0.009522 0.000000 0.000000 0.000000
# 2 -0.000001 0.008016 -0.002117 0.000000 0.000000 0.000000
# 3 -0.009522 -0.002117 0.010947 0.000000 0.000000 0.000000
# 4 0.000000 0.000000 0.000000 -0.003310 0.000000 0.000000
# 5 0.000000 0.000000 0.000000 0.000000 -0.023152 0.000000
# 6 0.000000 0.000000 0.000000 0.000000 0.000000 -0.126917
#
#
# Mechanical properties :
#
#
# Convention : Reuss Voigt Hill
#
# Bulk Modulus (GPa) = 40.51408 56.49876 48.50642
# Shear Modulus (GPa) = -67.65084 -55.44496 -61.54790
#
# Velocity S-wave (km/s) = -5.25990 -4.76181 -5.01704
# Velocity P-wave (km/s) = 4.50778 2.66970 3.70455
#
# Compressibility (1/GPa) = 0.02468278
#
# Stress axis : x y z
#
# Youngs Moduli (GPa) = 34.48349 124.74284 91.35027
#
# Poissons Ratio (x) = 0.00009 0.86988
# Poissons Ratio (y) = 0.00002 0.19337
# Poissons Ratio (z) = 0.32837 0.26405
#
# Static dielectric constant tensor:
#      x y z
#    x 2.280880 0.000000 0.000000 
#    y 0.000000 1.953030 0.000000 
#    z 0.000000 0.000000 1.938490 
# 
# From -- ./inp_files/10240.got.cif
#   From: 2010.05.17/outbox.cif.g08.bks.cpg/sg24_6_cif.got.tgz:10240.got - 2010.06.04 00:33:39.
