data_PCOD9332990
_publ_section_title
;
Structure prediction by ZEFSAII (Michael W. Deem and Ramdas Pophale) SiO2 
 PCOD9332990
Probable space group: I 21 21 21
;
_chemical_formula_sum "Si O2"
_cell_formula_units_Z 40
_cell_length_a 5.802291
_cell_length_b 20.067264
_cell_length_c 14.123810
_cell_angle_alpha 90.000000
_cell_angle_beta 90.000000
_cell_angle_gamma 90.000000
_cell_volume 1644.521428
_symmetry_space_group_name_H-M "I 21 21 21"
_symmetry_group_IT_number 24
_symmetry_cell_setting 'orthorhombic'
loop_
_space_group_symop_operation_xyz
x,y,z
-x,1/2-y,z
x,-y,1/2-z
1/2-x,y,-z
1/2+x,1/2+y,1/2+z
1/2-x,-y,1/2+z
1/2+x,1/2-y,-z
-x,1/2+y,1/2-z
loop_
_atom_site_type_symbol
_atom_site_label
_atom_site_fract_x
_atom_site_fract_y
_atom_site_fract_z
Si Si1 0.425571 0.000000 0.250000
Si Si2 0.996719 0.365133 0.838095
Si Si3 0.436595 0.823114 0.120714
Si Si4 0.750000 0.079517 0.500000
Si Si5 0.983626 0.170955 0.161572
Si Si6 0.942004 0.589781 0.150966
O O1 0.538265 0.943610 0.315231
O O2 0.263797 0.956848 0.182862
O O3 0.971455 0.329388 0.734627
O O4 0.736442 0.351849 0.879180
O O5 0.230742 0.338409 0.886294
O O6 0.500000 0.750000 0.090562
O O7 0.175880 0.846390 0.101391
O O8 0.604550 0.874368 0.070255
O O9 0.586043 0.046713 0.576628
O O10 0.956833 0.123094 0.254582
O O11 0.000000 0.250000 0.184031
#
# Coordination Sequence:
#
# PCOD9332990 Si02
#       6
#     4   8   8   4   8   8
#     4   8  20  38  52  66 100 138 206 244 278 330
#     4  10  19  33  51  70  94 139 187 230 272 316
#     4  10  21  32  45  69 104 142 184 233 274 324
#     4  12  22  30  50  72 106 140 188 240 282 324
#     4  10  18  31  49  71 100 130 176 228 278 321
#     4  10  22  35  48  73  99 143 198 237 281 325
#
# _framework density 24.323187000000001
#
# number of rings (size 3 to 8) (size 9 to 14) (size 15 to 20)
#    0.000    2.400    2.000    3.600    2.800    3.200 
#    0.000    0.000    0.000    0.000    0.000    0.000 
#    0.000    0.000    0.000    0.000  243.200  108.000 
#
# Total GULP energy -111398.935642 kJ/mol
# GULP energy per Si atom -5569.946782 kJ/mol
# Density = 2.426783 g / cm^3
# Si number density = 24.323187 Si / 1000 Ang^3
#
#
#
# Elastic Constant Matrix: (Units=GPa)
#
#
# Indices 1 2 3 4 5 6 
#
# 1 168.5414 28.8215 17.6375 0.0000 0.0000 0.0000
# 2 28.8215 112.8018 -4.6447 0.0000 0.0000 0.0000
# 3 17.6375 -4.6447 53.9136 0.0001 0.0000 0.0000
# 4 0.0000 0.0000 0.0001 1.8532 0.0000 0.0000
# 5 0.0000 0.0000 0.0000 0.0000 7.1747 0.0000
# 6 0.0000 0.0000 0.0000 0.0000 0.0000 22.3615
#
#
#
# Elastic Compliance Matrix: (Units=1/GPa)
#
#
# Indices 1 2 3 4 5 6 
#
# 1 0.006469 -0.001746 -0.002267 0.000000 0.000000 0.000000
# 2 -0.001746 0.009368 0.001378 0.000000 0.000000 0.000000
# 3 -0.002267 0.001378 0.019408 -0.000001 0.000000 0.000000
# 4 0.000000 0.000000 -0.000001 0.539603 0.000000 0.000000
# 5 0.000000 0.000000 0.000000 0.000000 0.139378 0.000000
# 6 0.000000 0.000000 0.000000 0.000000 0.000000 0.044720
#
#
# Mechanical properties :
#
#
# Convention : Reuss Voigt Hill
#
# Bulk Modulus (GPa) = 33.35970 46.54284 39.95127
# Shear Modulus (GPa) = 6.45821 25.84072 16.14947
#
# Velocity S-wave (km/s) = 1.63124 3.26297 2.57952
# Velocity P-wave (km/s) = 4.15847 5.77691 5.03317
#
# Compressibility (1/GPa) = 0.02997629
#
# Stress axis : x y z
#
# Youngs Moduli (GPa) = 154.58133 106.74605 51.52385
#
# Poissons Ratio (x) = 0.18640 0.11679
# Poissons Ratio (y) = 0.26993 -0.07102
# Poissons Ratio (z) = 0.35040 -0.14713
#
# Static dielectric constant tensor:
#      x y z
#    x 2.172570 0.000000 0.000000 
#    y 0.000000 1.965230 0.000000 
#    z 0.000000 0.000000 1.971890 
# 
# From -- ./inp_files/28729.got.cif
#   From: 2010.05.17/outbox.cif.g08.bks.cpg/sg24_15_cif.got.tgz:28729.got - 2010.06.04 00:33:39.
