data_PCOD9332106
_publ_section_title
;
Structure prediction by ZEFSAII (Michael W. Deem and Ramdas Pophale) SiO2 
 PCOD9332106
Probable space group: I 2 2 2
;
_chemical_formula_sum "Si O2"
_cell_formula_units_Z 48
_cell_length_a 9.690166
_cell_length_b 11.204408
_cell_length_c 21.840936
_cell_angle_alpha 90.000000
_cell_angle_beta 90.000000
_cell_angle_gamma 90.000000
_cell_volume 2371.326628
_symmetry_space_group_name_H-M "I 2 2 2"
_symmetry_group_IT_number 23
_symmetry_cell_setting 'orthorhombic'
loop_
_space_group_symop_operation_xyz
x,y,z
-x,-y,z
x,-y,-z
-x,y,-z
1/2+x,1/2+y,1/2+z
1/2-x,1/2-y,1/2+z
1/2+x,1/2-y,1/2-z
1/2-x,1/2+y,1/2-z
loop_
_atom_site_type_symbol
_atom_site_label
_atom_site_fract_x
_atom_site_fract_y
_atom_site_fract_z
Si Si1 0.644303 0.454491 0.750041
Si Si2 0.596500 0.107193 0.736691
Si Si3 0.662498 0.480968 0.570004
Si Si4 0.005828 0.866238 0.375935
Si Si5 0.224228 0.769657 0.153645
Si Si6 0.593397 0.883360 0.121044
O O1 0.500000 0.500000 0.720744
O O2 0.745184 0.564570 0.760601
O O3 0.594309 0.395051 0.813779
O O4 0.737038 0.365782 0.709143
O O5 0.593185 0.201325 0.682061
O O6 0.562140 0.138154 0.806829
O O7 0.500000 0.000000 0.718583
O O8 0.500000 0.500000 0.574488
O O9 0.705708 0.500000 0.500000
O O10 0.696293 0.349489 0.594616
O O11 0.751816 0.572754 0.610114
O O12 0.069241 0.747566 0.408016
O O13 0.853075 0.815492 0.360518
O O14 0.000000 0.000000 0.405354
O O15 0.500000 0.000000 0.102563
#
# Coordination Sequence:
#
# PCOD9332106 Si02
#       6
#     8   8   8   8   8   8
#     4  11  21  33  54  88 133 173 202 257 324 382
#     4  11  22  33  56  99 137 170 211 256 330 409
#     4  11  26  45  67  96 124 166 225 276 316 378
#     4  11  22  37  57  95 134 164 208 270 323 390
#     4  12  21  37  61  90 136 169 214 266 323 381
#     4  11  21  40  65  94 131 170 220 266 315 391
#
# _framework density 20.241834999999998
#
# number of rings (size 3 to 8) (size 9 to 14) (size 15 to 20)
#    0.000    0.833    8.333    1.500    0.000    1.667 
#    0.000    0.000    0.000    2.000    0.000    0.000 
#    0.000    0.000    0.000    0.000    0.000    0.000 
#
# Total GULP energy -133626.721555 kJ/mol
# GULP energy per Si atom -5567.780065 kJ/mol
# Density = 2.019576 g / cm^3
# Si number density = 20.241835 Si / 1000 Ang^3
#
#
#
# Elastic Constant Matrix: (Units=GPa)
#
#
# Indices 1 2 3 4 5 6 
#
# 1 76.5824 26.0016 0.9087 0.0000 0.0000 0.0000
# 2 26.0016 137.3950 13.8601 0.0000 0.0000 0.0000
# 3 0.9087 13.8601 46.7338 0.0000 0.0000 0.0000
# 4 0.0000 0.0000 0.0000 15.4067 0.0000 0.0000
# 5 0.0000 0.0000 0.0000 0.0000 24.8821 0.0000
# 6 0.0000 0.0000 0.0000 0.0000 0.0000 43.0801
#
#
#
# Elastic Compliance Matrix: (Units=1/GPa)
#
#
# Indices 1 2 3 4 5 6 
#
# 1 0.013967 -0.002697 0.000528 0.000000 0.000000 0.000000
# 2 -0.002697 0.008023 -0.002327 0.000000 0.000000 0.000000
# 3 0.000528 -0.002327 0.022078 0.000000 0.000000 0.000000
# 4 0.000000 0.000000 0.000000 0.064907 0.000000 0.000000
# 5 0.000000 0.000000 0.000000 0.000000 0.040189 0.000000
# 6 0.000000 0.000000 0.000000 0.000000 0.000000 0.023213
#
#
# Mechanical properties :
#
#
# Convention : Reuss Voigt Hill
#
# Bulk Modulus (GPa) = 28.50856 38.02800 33.26828
# Shear Modulus (GPa) = 25.89867 31.33652 28.61760
#
# Velocity S-wave (km/s) = 3.58084 3.93887 3.76411
# Velocity P-wave (km/s) = 5.58669 6.28600 5.94664
#
# Compressibility (1/GPa) = 0.03507718
#
# Stress axis : x y z
#
# Youngs Moduli (GPa) = 71.59691 124.63638 45.29462
#
# Poissons Ratio (x) = 0.33608 -0.02392
# Poissons Ratio (y) = 0.19306 0.10540
# Poissons Ratio (z) = -0.03781 0.29004
#
# Static dielectric constant tensor:
#      x y z
#    x 1.735240 0.000000 0.000000 
#    y 0.000000 1.848460 0.000000 
#    z 0.000000 0.000000 1.730600 
# 
# From -- ./inp_files/27980.got.cif
#   From: 2010.05.17/outbox.cif.g08.bks.cpg/sg23_14_cif.got.tgz:27980.got - 2010.06.04 12:02:01.
