data_PCOD9332826
_publ_section_title
;
Structure prediction by ZEFSAII (Michael W. Deem and Ramdas Pophale) SiO2 
 PCOD9332826
Probable space group: I 21 21 21
;
_chemical_formula_sum "Si O2"
_cell_formula_units_Z 56
_cell_length_a 20.097463
_cell_length_b 14.033509
_cell_length_c 8.403242
_cell_angle_alpha 90.000000
_cell_angle_beta 90.000000
_cell_angle_gamma 90.000000
_cell_volume 2370.032961
_symmetry_space_group_name_H-M "I 21 21 21"
_symmetry_group_IT_number 24
_symmetry_cell_setting 'orthorhombic'
loop_
_space_group_symop_operation_xyz
x,y,z
-x,1/2-y,z
x,-y,1/2-z
1/2-x,y,-z
1/2+x,1/2+y,1/2+z
1/2-x,-y,1/2+z
1/2+x,1/2-y,-z
-x,1/2+y,1/2-z
loop_
_atom_site_type_symbol
_atom_site_label
_atom_site_fract_x
_atom_site_fract_y
_atom_site_fract_z
Si Si1 0.047181 0.344858 0.035234
Si Si2 0.470541 0.359642 0.616068
Si Si3 0.510068 0.363696 0.275506
Si Si4 0.359586 0.076914 0.077176
Si Si5 0.315585 0.754225 0.604671
Si Si6 0.186273 0.122314 0.608745
Si Si7 0.321325 0.314125 0.544539
O O1 0.023739 0.394543 0.200120
O O2 0.123401 0.314300 0.055903
O O3 0.000000 0.250000 0.025964
O O4 0.041336 0.393902 0.863011
O O5 0.500000 0.250000 0.627478
O O6 0.503309 0.401221 0.455395
O O7 0.391349 0.365185 0.575024
O O8 0.500000 0.250000 0.294765
O O9 0.578060 0.389015 0.183063
O O10 0.301564 0.101867 0.205400
O O11 0.358562 0.965556 0.048852
O O12 0.346416 0.141621 0.927445
O O13 0.250000 0.737192 0.500000
O O14 0.304066 0.736584 0.788911
O O15 0.250000 0.113313 0.500000
O O16 0.161218 0.229284 0.579576
O O17 0.250000 0.361820 0.500000
#
# Coordination Sequence:
#
# PCOD9332826 Si02
#       7
#     8   8   8   8   8   8   8
#     4   9  17  31  45  70  92 119 165 209 264 313
#     4   9  18  29  50  71  93 123 172 214 263 316
#     4  10  17  31  54  66  91 122 169 222 267 310
#     4  11  21  34  48  69  91 139 181 218 261 297
#     4  11  20  29  48  69  97 128 173 215 254 315
#     4  10  21  34  47  64 102 136 179 217 241 300
#     4  10  21  33  47  71 100 139 176 211 262 310
#
# _framework density 23.628364999999999
#
# number of rings (size 3 to 8) (size 9 to 14) (size 15 to 20)
#    0.000    2.000    2.857    3.857    2.000    2.857 
#    0.000    0.000    0.000    0.000    0.000    0.000 
#    0.000    0.000    0.000   11.571   12.286    1.286 
#
# Total GULP energy -156064.727718 kJ/mol
# GULP energy per Si atom -5573.740276 kJ/mol
# Density = 2.357459 g / cm^3
# Si number density = 23.628365 Si / 1000 Ang^3
#
#
#
# Elastic Constant Matrix: (Units=GPa)
#
#
# Indices 1 2 3 4 5 6 
#
# 1 115.9615 -8.8690 18.4870 0.0000 0.0000 0.0000
# 2 -8.8690 16.3087 -7.2792 0.0000 0.0000 0.0000
# 3 18.4870 -7.2792 133.5792 0.0000 0.0000 0.0000
# 4 0.0000 0.0000 0.0000 10.0716 0.0000 0.0000
# 5 0.0000 0.0000 0.0000 0.0000 38.3205 0.0000
# 6 0.0000 0.0000 0.0000 0.0000 0.0000 14.5957
#
#
#
# Elastic Compliance Matrix: (Units=1/GPa)
#
#
# Indices 1 2 3 4 5 6 
#
# 1 0.009131 0.004511 -0.001018 0.000000 0.000000 0.000000
# 2 0.004511 0.065074 0.002922 0.000000 0.000000 0.000000
# 3 -0.001018 0.002922 0.007786 0.000000 0.000000 0.000000
# 4 0.000000 0.000000 0.000000 0.099289 0.000000 0.000000
# 5 0.000000 0.000000 0.000000 0.000000 0.026096 0.000000
# 6 0.000000 0.000000 0.000000 0.000000 0.000000 0.068514
#
#
# Mechanical properties :
#
#
# Convention : Reuss Voigt Hill
#
# Bulk Modulus (GPa) = 10.54609 30.05857 20.30233
# Shear Modulus (GPa) = 16.96834 30.16493 23.56664
#
# Velocity S-wave (km/s) = 2.68271 3.57689 3.16157
# Velocity P-wave (km/s) = 3.75086 5.45966 4.68384
#
# Compressibility (1/GPa) = 0.09482183
#
# Stress axis : x y z
#
# Youngs Moduli (GPa) = 109.51883 15.36702 128.43098
#
# Poissons Ratio (x) = -0.06932 0.13072
# Poissons Ratio (y) = -0.49406 -0.37525
# Poissons Ratio (z) = 0.11147 -0.04490
#
# Static dielectric constant tensor:
#      x y z
#    x 2.060760 0.000000 0.000000 
#    y 0.000000 1.961980 0.000000 
#    z 0.000000 0.000000 1.967550 
# 
# From -- ./inp_files/15445.got.cif
#   From: 2010.05.17/outbox.cif.g08.bks.cpg/sg24_8_cif.got.tgz:15445.got - 2010.06.04 00:33:39.
