data_PCOD9332940
_publ_section_title
;
Structure prediction by ZEFSAII (Michael W. Deem and Ramdas Pophale) SiO2 
 PCOD9332940
Probable space group: I 21 21 21
;
_chemical_formula_sum "Si O2"
_cell_formula_units_Z 64
_cell_length_a 12.821705
_cell_length_b 18.594933
_cell_length_c 14.556654
_cell_angle_alpha 90.000000
_cell_angle_beta 90.000000
_cell_angle_gamma 90.000000
_cell_volume 3470.579184
_symmetry_space_group_name_H-M "I 21 21 21"
_symmetry_group_IT_number 24
_symmetry_cell_setting 'orthorhombic'
loop_
_space_group_symop_operation_xyz
x,y,z
-x,1/2-y,z
x,-y,1/2-z
1/2-x,y,-z
1/2+x,1/2+y,1/2+z
1/2-x,-y,1/2+z
1/2+x,1/2-y,-z
-x,1/2+y,1/2-z
loop_
_atom_site_type_symbol
_atom_site_label
_atom_site_fract_x
_atom_site_fract_y
_atom_site_fract_z
Si Si1 0.174935 0.661407 0.730366
Si Si2 0.494479 0.672955 0.899519
Si Si3 0.484802 0.836578 0.399825
Si Si4 0.238765 0.853515 0.096915
Si Si5 0.609654 0.915100 0.746568
Si Si6 0.458150 0.832240 0.611606
Si Si7 0.271365 0.169534 0.198340
Si Si8 0.157035 0.695611 0.936959
O O1 0.276263 0.612609 0.719594
O O2 0.210325 0.744341 0.712790
O O3 0.141569 0.661069 0.837519
O O4 0.082343 0.638389 0.662021
O O5 0.500000 0.750000 0.848818
O O6 0.614260 0.652973 0.900550
O O7 0.422283 0.619143 0.844098
O O8 0.443210 0.686575 0.998749
O O9 0.500000 0.750000 0.397391
O O10 0.479022 0.855976 0.506727
O O11 0.373949 0.855717 0.355245
O O12 0.267279 0.870147 0.202435
O O13 0.303418 0.778164 0.080748
O O14 0.250000 0.895828 0.000000
O O15 0.525768 0.882328 0.677171
O O16 0.605292 0.000000 0.750000
O O17 0.500000 0.750000 0.619712
O O18 0.337248 0.837092 0.643059
O O19 0.250000 0.664094 0.000000
#
# Coordination Sequence:
#
# PCOD9332940 Si02
#       8
#     8   8   8   8   8   8   8   8
#     4  10  20  37  53  86 128 153 194 247 303 357
#     4  12  19  34  57  87 121 149 191 244 299 364
#     4   9  21  33  56  92 119 153 196 252 307 346
#     4  10  19  27  49  89 119 147 177 231 302 349
#     4  12  25  39  59  85 119 166 208 251 295 359
#     4  11  20  37  62  87 116 155 207 257 303 349
#     4  10  18  34  58  89 121 150 190 250 302 356
#     4  10  18  29  52  84 115 147 186 226 301 358
#
# _framework density 18.440726999999999
#
# number of rings (size 3 to 8) (size 9 to 14) (size 15 to 20)
#    0.000    1.500    6.250    1.500    1.750    1.000 
#    0.000    2.500    0.000    2.250    0.000    0.000 
#    0.000    0.000    0.000    0.000    0.000    0.000 
#
# Total GULP energy -178234.794685 kJ/mol
# GULP energy per Si atom -5569.837334 kJ/mol
# Density = 1.839875 g / cm^3
# Si number density = 18.440727 Si / 1000 Ang^3
#
#
#
# Elastic Constant Matrix: (Units=GPa)
#
#
# Indices 1 2 3 4 5 6 
#
# 1 131.7008 24.8368 73.4165 0.0000 0.0000 0.0000
# 2 24.8368 47.4820 16.2149 0.0002 0.0000 0.0000
# 3 73.4165 16.2149 146.1534 0.0003 0.0001 0.0000
# 4 0.0000 0.0002 0.0003 -8.9950 0.0000 0.0000
# 5 0.0000 0.0000 0.0001 0.0000 32.4332 0.0000
# 6 0.0000 0.0000 0.0000 0.0000 0.0000 7.5035
#
#
#
# Elastic Compliance Matrix: (Units=1/GPa)
#
#
# Indices 1 2 3 4 5 6 
#
# 1 0.011271 -0.004118 -0.005205 0.000000 0.000000 0.000000
# 2 -0.004118 0.023395 -0.000527 0.000000 0.000000 0.000000
# 3 -0.005205 -0.000527 0.009515 0.000000 0.000000 0.000000
# 4 0.000000 0.000000 0.000000 -0.111172 0.000000 0.000000
# 5 0.000000 0.000000 0.000000 0.000000 0.030833 0.000000
# 6 0.000000 0.000000 0.000000 0.000000 0.000000 0.133270
#
#
# Mechanical properties :
#
#
# Convention : Reuss Voigt Hill
#
# Bulk Modulus (GPa) = 40.84787 61.58585 51.21686
# Shear Modulus (GPa) = 40.00907 20.24619 30.12763
#
# Velocity S-wave (km/s) = 4.66295 3.31706 4.04636
# Velocity P-wave (km/s) = 7.15471 6.93828 7.04732
#
# Compressibility (1/GPa) = 0.02448108
#
# Stress axis : x y z
#
# Youngs Moduli (GPa) = 88.72300 42.74473 105.09619
#
# Poissons Ratio (x) = 0.17603 0.54701
# Poissons Ratio (y) = 0.36538 0.05537
# Poissons Ratio (z) = 0.46179 0.02252
#
# Static dielectric constant tensor:
#      x y z
#    x 1.626530 0.000000 0.000000 
#    y 0.000000 1.604890 0.000000 
#    z 0.000000 0.000000 1.693330 
# 
# From -- ./inp_files/26029.got.cif
#   From: 2010.05.17/outbox.cif.g08.bks.cpg/sg24_14_cif.got.tgz:26029.got - 2010.06.04 00:33:39.
