data_PCOD9332840
_publ_section_title
;
Structure prediction by ZEFSAII (Michael W. Deem and Ramdas Pophale) SiO2 
 PCOD9332840
Probable space group: I 21 21 21
;
_chemical_formula_sum "Si O2"
_cell_formula_units_Z 40
_cell_length_a 8.695820
_cell_length_b 22.893108
_cell_length_c 8.847791
_cell_angle_alpha 90.000000
_cell_angle_beta 90.000000
_cell_angle_gamma 90.000000
_cell_volume 1761.368210
_symmetry_space_group_name_H-M "I 21 21 21"
_symmetry_group_IT_number 24
_symmetry_cell_setting 'orthorhombic'
loop_
_space_group_symop_operation_xyz
x,y,z
-x,1/2-y,z
x,-y,1/2-z
1/2-x,y,-z
1/2+x,1/2+y,1/2+z
1/2-x,-y,1/2+z
1/2+x,1/2-y,-z
-x,1/2+y,1/2-z
loop_
_atom_site_type_symbol
_atom_site_label
_atom_site_fract_x
_atom_site_fract_y
_atom_site_fract_z
Si Si1 0.178136 0.773287 0.333650
Si Si2 0.600705 0.516266 0.578119
Si Si3 0.110161 0.450409 0.616836
Si Si4 0.022013 0.636324 0.419215
Si Si5 0.652198 0.829330 0.274991
O O1 0.250000 0.762655 0.500000
O O2 0.300208 0.737532 0.229893
O O3 0.000000 0.750000 0.320187
O O4 0.131033 0.841549 0.331768
O O5 0.625348 0.500000 0.750000
O O6 0.750000 0.541606 0.500000
O O7 0.543434 0.463142 0.477207
O O8 0.476551 0.567253 0.566477
O O9 0.120474 0.500000 0.750000
O O10 0.250000 0.458064 0.500000
O O11 0.108594 0.382685 0.667276
O O12 0.180131 0.651604 0.336989
O O13 0.033579 0.666047 0.584880
#
# Coordination Sequence:
#
# PCOD9332840 Si02
#       5
#     8   8   8   8   8
#     4  10  17  32  56  92 126 165 227 292 329 391
#     4  12  26  43  63  97 136 177 223 280 356 424
#     4  12  23  39  66  96 136 182 231 286 346 421
#     4  10  19  36  61  95 132 171 221 287 330 404
#     4  10  19  34  61  96 128 170 228 278 338 391
#
# _framework density 22.709620000000001
#
# number of rings (size 3 to 8) (size 9 to 14) (size 15 to 20)
#    0.000    1.200    6.000    4.200    0.000    0.000 
#    0.000    0.000    0.000    1.200   15.600    0.000 
#    0.000    0.000    0.000    0.000    0.000    0.000 
#
# Total GULP energy -111382.374684 kJ/mol
# GULP energy per Si atom -5569.118734 kJ/mol
# Density = 2.265793 g / cm^3
# Si number density = 22.709620 Si / 1000 Ang^3
#
#
#
# Elastic Constant Matrix: (Units=GPa)
#
#
# Indices 1 2 3 4 5 6 
#
# 1 30.4402 13.0825 6.9337 0.0022 0.0010 0.0007
# 2 13.0825 102.8642 26.9427 0.0003 0.0003 0.0001
# 3 6.9337 26.9427 71.5799 0.0065 0.0030 0.0021
# 4 0.0022 0.0003 0.0065 47.5364 0.0011 0.0007
# 5 0.0010 0.0003 0.0030 0.0011 16.3741 0.0008
# 6 0.0007 0.0001 0.0021 0.0007 0.0008 26.2141
#
#
#
# Elastic Compliance Matrix: (Units=1/GPa)
#
#
# Indices 1 2 3 4 5 6 
#
# 1 0.034983 -0.003951 -0.001901 -0.000001 -0.000002 -0.000001
# 2 -0.003951 0.011231 -0.003845 0.000001 0.000001 0.000000
# 3 -0.001901 -0.003845 0.015602 -0.000002 -0.000003 -0.000001
# 4 -0.000001 0.000001 -0.000002 0.021036 -0.000001 -0.000001
# 5 -0.000002 0.000001 -0.000003 -0.000001 0.061072 -0.000002
# 6 -0.000001 0.000000 -0.000001 -0.000001 -0.000002 0.038147
#
#
# Mechanical properties :
#
#
# Convention : Reuss Voigt Hill
#
# Bulk Modulus (GPa) = 23.57326 33.20022 28.38674
# Shear Modulus (GPa) = 23.19045 28.55329 25.87187
#
# Velocity S-wave (km/s) = 3.19905 3.54972 3.37894
# Velocity P-wave (km/s) = 4.90388 5.60820 5.26782
#
# Compressibility (1/GPa) = 0.04242094
#
# Stress axis : x y z
#
# Youngs Moduli (GPa) = 28.58567 89.03867 64.09549
#
# Poissons Ratio (x) = 0.35180 0.12187
# Poissons Ratio (y) = 0.11295 0.24642
# Poissons Ratio (z) = 0.05435 0.34232
#
# Static dielectric constant tensor:
#      x y z
#    x 1.729160 0.000000 0.000000 
#    y 0.000000 1.990820 0.000000 
#    z 0.000000 0.000000 1.846570 
# 
# From -- ./inp_files/9481.got.cif
#   From: 2010.05.17/outbox.cif.g08.bks.cpg/sg24_5_cif.got.tgz:9481.got - 2010.06.04 00:33:39.
