data_PCOD9332805
_publ_section_title
;
Structure prediction by ZEFSAII (Michael W. Deem and Ramdas Pophale) SiO2 
 PCOD9332805
Probable space group: I 21 21 21
;
_chemical_formula_sum "Si O2"
_cell_formula_units_Z 48
_cell_length_a 27.534722
_cell_length_b 9.868405
_cell_length_c 7.490732
_cell_angle_alpha 90.000000
_cell_angle_beta 90.000000
_cell_angle_gamma 90.000000
_cell_volume 2035.410076
_symmetry_space_group_name_H-M "I 21 21 21"
_symmetry_group_IT_number 24
_symmetry_cell_setting 'orthorhombic'
loop_
_space_group_symop_operation_xyz
x,y,z
-x,1/2-y,z
x,-y,1/2-z
1/2-x,y,-z
1/2+x,1/2+y,1/2+z
1/2-x,-y,1/2+z
1/2+x,1/2-y,-z
-x,1/2+y,1/2-z
loop_
_atom_site_type_symbol
_atom_site_label
_atom_site_fract_x
_atom_site_fract_y
_atom_site_fract_z
Si Si1 0.724248 0.660545 0.752833
Si Si2 0.673574 0.316527 0.375501
Si Si3 0.134792 0.696227 0.391291
Si Si4 0.098442 0.023417 0.035342
Si Si5 0.109453 0.595664 0.993224
Si Si6 0.995678 0.091495 0.426430
O O1 0.714506 0.500000 0.750000
O O2 0.782370 0.670768 0.737055
O O3 0.689163 0.744619 0.624820
O O4 0.703923 0.708234 0.943212
O O5 0.639523 0.443839 0.425658
O O6 0.638168 0.189526 0.356430
O O7 0.103833 0.815564 0.483124
O O8 0.114110 0.669712 0.189099
O O9 0.132426 0.551227 0.482417
O O10 0.104965 0.000000 0.250000
O O11 0.045906 0.962042 0.990601
O O12 0.052578 0.580303 0.956120
O O13 0.000000 0.250000 0.377870
O O14 0.987829 0.000000 0.250000
#
# Coordination Sequence:
#
# PCOD9332805 Si02
#       6
#     8   8   8   8   8   8
#     4  10  18  31  52  68  90 135 172 208 241 284
#     4  10  18  31  50  67  94 134 169 204 244 281
#     4  10  17  30  45  64  99 129 164 193 242 289
#     4  11  17  28  45  67 100 130 163 202 238 298
#     4  10  18  29  44  68  99 134 157 197 243 305
#     4  11  19  25  41  68  97 137 161 185 249 308
#
# _framework density 23.582471999999999
#
# number of rings (size 3 to 8) (size 9 to 14) (size 15 to 20)
#    0.000    1.667    8.333    1.000    0.000    0.000 
#    0.000    0.000   25.667    0.000    0.000    0.000 
#    0.000    5.333   17.333    0.000    0.000    0.167 
#
# Total GULP energy -134151.385280 kJ/mol
# GULP energy per Si atom -5589.641053 kJ/mol
# Density = 2.352880 g / cm^3
# Si number density = 23.582472 Si / 1000 Ang^3
#
#
#
# Elastic Constant Matrix: (Units=GPa)
#
#
# Indices 1 2 3 4 5 6 
#
# 1 234.5956 86.7591 28.9741 0.0000 0.0000 0.0000
# 2 86.7591 201.7458 16.0197 0.0000 0.0001 0.0000
# 3 28.9741 16.0197 55.6436 0.0001 0.0001 0.0000
# 4 0.0000 0.0000 0.0001 6.8147 0.0001 0.0000
# 5 0.0000 0.0001 0.0001 0.0001 -122.6033 0.0000
# 6 0.0000 0.0000 0.0000 0.0000 0.0000 40.5014
#
#
#
# Elastic Compliance Matrix: (Units=1/GPa)
#
#
# Indices 1 2 3 4 5 6 
#
# 1 0.005310 -0.002112 -0.002157 0.000000 0.000000 0.000000
# 2 -0.002112 0.005913 -0.000602 0.000000 0.000000 0.000000
# 3 -0.002157 -0.000602 0.019268 0.000000 0.000000 0.000000
# 4 0.000000 0.000000 0.000000 0.146742 0.000000 0.000000
# 5 0.000000 0.000000 0.000000 0.000000 -0.008156 0.000000
# 6 0.000000 0.000000 0.000000 0.000000 0.000000 0.024691
#
#
# Mechanical properties :
#
#
# Convention : Reuss Voigt Hill
#
# Bulk Modulus (GPa) = 48.19771 83.94343 66.07057
# Shear Modulus (GPa) = 23.76126 8.95803 16.35965
#
# Velocity S-wave (km/s) = 3.17769 1.95111 2.63671
# Velocity P-wave (km/s) = 5.82631 6.38347 6.11125
#
# Compressibility (1/GPa) = 0.02074787
#
# Stress axis : x y z
#
# Youngs Moduli (GPa) = 188.31500 169.11974 51.89930
#
# Poissons Ratio (x) = 0.35724 0.11194
# Poissons Ratio (y) = 0.39779 0.03126
# Poissons Ratio (z) = 0.40618 0.10188
#
# Static dielectric constant tensor:
#      x y z
#    x 1.928080 0.000000 0.000000 
#    y 0.000000 2.174550 0.000000 
#    z 0.000000 0.000000 1.969450 
# 
# From -- ./inp_files/13238.got.cif
#   From: 2010.05.17/outbox.cif.g08.bks.cpg/sg24_7_cif.got.tgz:13238.got - 2010.06.04 00:33:39.
