data_PCOD9332601
_publ_section_title
;
Structure prediction by ZEFSAII (Michael W. Deem and Ramdas Pophale) SiO2 
 PCOD9332601
Probable space group: I 2 2 2
;
_chemical_formula_sum "Si O2"
_cell_formula_units_Z 28
_cell_length_a 20.502627
_cell_length_b 5.147095
_cell_length_c 11.274620
_cell_angle_alpha 90.000000
_cell_angle_beta 90.000000
_cell_angle_gamma 90.000000
_cell_volume 1189.799024
_symmetry_space_group_name_H-M "I 2 2 2"
_symmetry_group_IT_number 23
_symmetry_cell_setting 'orthorhombic'
loop_
_space_group_symop_operation_xyz
x,y,z
-x,-y,z
x,-y,-z
-x,y,-z
1/2+x,1/2+y,1/2+z
1/2-x,1/2-y,1/2+z
1/2+x,1/2-y,1/2-z
1/2-x,1/2+y,1/2-z
loop_
_atom_site_type_symbol
_atom_site_label
_atom_site_fract_x
_atom_site_fract_y
_atom_site_fract_z
Si Si1 0.246337 0.769191 0.329397
Si Si2 0.150745 0.000000 0.000000
Si Si3 0.544428 0.247808 0.659499
Si Si4 0.600738 0.747616 0.076555
O O1 0.241227 0.552543 0.225480
O O2 0.304155 0.667458 0.412437
O O3 0.178394 0.770831 0.399454
O O4 0.105707 0.804473 0.075411
O O5 0.500000 0.500000 0.646859
O O6 0.568259 0.233837 0.795114
O O7 0.500000 0.000000 0.632754
O O8 0.580204 0.500000 0.000000
O O9 0.586461 0.000000 0.000000
#
# Coordination Sequence:
#
# PCOD9332601 Si02
#       4
#     8   4   8   8
#     4  12  27  47  77 116 157 198 251 329 399 462
#     4  12  29  50  86 112 161 202 264 326 402 466
#     4  12  30  52  75 113 159 211 264 315 385 473
#     4  12  26  49  80 114 151 204 268 323 393 456
#
# _framework density 23.533384999999999
#
# number of rings (size 3 to 8) (size 9 to 14) (size 15 to 20)
#    0.000    0.000    4.286    3.857    4.000    8.000 
#    0.000    0.000    0.000    0.000    0.000    0.000 
#    0.000    0.000    0.000    0.000    0.000    0.000 
#
# Total GULP energy -78655.256646 kJ/mol
# GULP energy per Si atom -5618.232618 kJ/mol
# Density = 2.347982 g / cm^3
# Si number density = 23.533385 Si / 1000 Ang^3
#
#
#
# Elastic Constant Matrix: (Units=GPa)
#
#
# Indices 1 2 3 4 5 6 
#
# 1 137.5854 38.2007 62.5451 0.0000 0.0000 0.0000
# 2 38.2007 152.1250 40.6978 0.0000 0.0000 0.0000
# 3 62.5451 40.6978 155.0414 0.0000 0.0000 0.0000
# 4 0.0000 0.0000 0.0000 45.0679 0.0000 0.0000
# 5 0.0000 0.0000 0.0000 0.0000 25.7710 0.0000
# 6 0.0000 0.0000 0.0000 0.0000 0.0000 -40.1272
#
#
#
# Elastic Compliance Matrix: (Units=1/GPa)
#
#
# Indices 1 2 3 4 5 6 
#
# 1 0.009174 -0.001413 -0.003330 0.000000 0.000000 0.000000
# 2 -0.001413 0.007288 -0.001343 0.000000 0.000000 0.000000
# 3 -0.003330 -0.001343 0.008146 0.000000 0.000000 0.000000
# 4 0.000000 0.000000 0.000000 0.022189 0.000000 0.000000
# 5 0.000000 0.000000 0.000000 0.000000 0.038803 0.000000
# 6 0.000000 0.000000 0.000000 0.000000 0.000000 -0.024921
#
#
# Mechanical properties :
#
#
# Convention : Reuss Voigt Hill
#
# Bulk Modulus (GPa) = 80.41338 80.84878 80.63108
# Shear Modulus (GPa) = 64.93799 26.36287 45.65043
#
# Velocity S-wave (km/s) = 5.25870 3.35062 4.40911
# Velocity P-wave (km/s) = 8.43303 7.02840 7.76255
#
# Compressibility (1/GPa) = 0.01243574
#
# Stress axis : x y z
#
# Youngs Moduli (GPa) = 108.99946 137.21879 122.76226
#
# Poissons Ratio (x) = 0.19388 0.40881
# Poissons Ratio (y) = 0.15401 0.16487
# Poissons Ratio (z) = 0.36298 0.18428
#
# Static dielectric constant tensor:
#      x y z
#    x 1.862340 0.000000 0.000000 
#    y 0.000000 1.802630 0.000000 
#    z 0.000000 0.000000 1.928300 
# 
# From -- ./inp_files/17724.got.cif
#   From: 2010.05.17/outbox.cif.g08.bks.cpg/sg23_9_cif.got.tgz:17724.got - 2010.06.04 12:02:01.
