data_PCOD9332287
_publ_section_title
;
Structure prediction by ZEFSAII (Michael W. Deem and Ramdas Pophale) SiO2 
 PCOD9332287
Probable space group: I 2 2 2
;
_chemical_formula_sum "Si O2"
_cell_formula_units_Z 52
_cell_length_a 22.195494
_cell_length_b 5.801252
_cell_length_c 19.379791
_cell_angle_alpha 90.000000
_cell_angle_beta 90.000000
_cell_angle_gamma 90.000000
_cell_volume 2495.373943
_symmetry_space_group_name_H-M "I 2 2 2"
_symmetry_group_IT_number 23
_symmetry_cell_setting 'orthorhombic'
loop_
_space_group_symop_operation_xyz
x,y,z
-x,-y,z
x,-y,-z
-x,y,-z
1/2+x,1/2+y,1/2+z
1/2-x,1/2-y,1/2+z
1/2+x,1/2-y,1/2-z
1/2-x,1/2+y,1/2-z
loop_
_atom_site_type_symbol
_atom_site_label
_atom_site_fract_x
_atom_site_fract_y
_atom_site_fract_z
Si Si1 0.776912 0.560595 0.926764
Si Si2 0.172037 0.709587 0.802130
Si Si3 0.653148 0.672268 0.093088
Si Si4 0.584326 0.000000 0.000000
Si Si5 0.450293 0.677231 0.118115
Si Si6 0.774853 0.452547 0.658052
Si Si7 0.030162 0.251062 0.222369
O O1 0.814620 0.492693 0.858245
O O2 0.719631 0.394574 0.928437
O O3 0.742736 0.798906 0.908266
O O4 0.808369 0.500000 0.000000
O O5 0.203116 0.671273 0.727546
O O6 0.100801 0.748824 0.797862
O O7 0.211677 0.921862 0.828553
O O8 0.612399 0.466294 0.121869
O O9 0.621171 0.784572 0.028429
O O10 0.668656 0.876121 0.146034
O O11 0.554093 0.110928 0.066637
O O12 0.500000 0.500000 0.090084
O O13 0.470323 0.748054 0.194225
O O14 0.000000 0.500000 0.200811
O O15 0.000000 0.000000 0.201642
#
# Coordination Sequence:
#
# PCOD9332287 Si02
#       7
#     8   8   8   4   8   8   8
#     4  11  23  41  66 104 140 174 221 284 368 431
#     4  11  24  40  71 105 134 186 231 293 354 424
#     4  11  23  39  60  91 133 179 226 277 344 416
#     4  12  24  41  60  80 132 182 237 282 342 416
#     4  11  27  41  58  88 125 184 242 295 342 407
#     4  11  23  40  70 100 142 175 230 287 352 436
#     4  11  28  48  71  99 136 182 242 301 354 424
#
# _framework density 20.838560000000001
#
# number of rings (size 3 to 8) (size 9 to 14) (size 15 to 20)
#    0.000    0.923    1.538    5.077   12.923    3.692 
#    0.000    0.000    0.000    0.462    0.000    0.000 
#    0.000    0.000    0.000    0.000    0.000    0.000 
#
# Total GULP energy -145029.276348 kJ/mol
# GULP energy per Si atom -5578.049090 kJ/mol
# Density = 2.079113 g / cm^3
# Si number density = 20.838560 Si / 1000 Ang^3
#
#
#
# Elastic Constant Matrix: (Units=GPa)
#
#
# Indices 1 2 3 4 5 6 
#
# 1 119.9687 41.6591 10.3897 0.0000 0.0000 0.0000
# 2 41.6591 93.0050 22.9239 0.0000 0.0000 0.0000
# 3 10.3897 22.9239 58.3097 0.0000 0.0000 0.0000
# 4 0.0000 0.0000 0.0000 25.2180 0.0000 0.0000
# 5 0.0000 0.0000 0.0000 0.0000 4.3230 0.0000
# 6 0.0000 0.0000 0.0000 0.0000 0.0000 30.0950
#
#
#
# Elastic Compliance Matrix: (Units=1/GPa)
#
#
# Indices 1 2 3 4 5 6 
#
# 1 0.009871 -0.004416 -0.000023 0.000000 0.000000 0.000000
# 2 -0.004416 0.013881 -0.004670 0.000000 0.000000 0.000000
# 3 -0.000023 -0.004670 0.018990 0.000000 0.000000 0.000000
# 4 0.000000 0.000000 0.000000 0.039654 0.000000 0.000000
# 5 0.000000 0.000000 0.000000 0.000000 0.231321 0.000000
# 6 0.000000 0.000000 0.000000 0.000000 0.000000 0.033228
#
#
# Mechanical properties :
#
#
# Convention : Reuss Voigt Hill
#
# Bulk Modulus (GPa) = 40.77631 46.80320 43.78976
# Shear Modulus (GPa) = 13.39267 25.01457 19.20362
#
# Velocity S-wave (km/s) = 2.53788 3.46844 3.03899
# Velocity P-wave (km/s) = 5.31018 6.20876 5.77697
#
# Compressibility (1/GPa) = 0.02452404
#
# Stress axis : x y z
#
# Youngs Moduli (GPa) = 101.30838 72.03991 52.65930
#
# Poissons Ratio (x) = 0.31811 0.00120
# Poissons Ratio (y) = 0.44735 0.24594
# Poissons Ratio (z) = 0.00231 0.33646
#
# Static dielectric constant tensor:
#      x y z
#    x 1.768490 0.000000 0.000000 
#    y 0.000000 1.889830 0.000000 
#    z 0.000000 0.000000 1.817980 
# 
# From -- ./inp_files/27283.got.cif
#   From: 2010.05.17/outbox.cif.g08.bks.cpg/sg23_14_cif.got.tgz:27283.got - 2010.06.04 12:02:01.
