data_PCOD9332926
_publ_section_title
;
Structure prediction by ZEFSAII (Michael W. Deem and Ramdas Pophale) SiO2 
 PCOD9332926
Probable space group: I 21 21 21
;
_chemical_formula_sum "Si O2"
_cell_formula_units_Z 36
_cell_length_a 30.973555
_cell_length_b 5.348718
_cell_length_c 10.851641
_cell_angle_alpha 90.000000
_cell_angle_beta 90.000000
_cell_angle_gamma 90.000000
_cell_volume 1797.778464
_symmetry_space_group_name_H-M "I 21 21 21"
_symmetry_group_IT_number 24
_symmetry_cell_setting 'orthorhombic'
loop_
_space_group_symop_operation_xyz
x,y,z
-x,1/2-y,z
x,-y,1/2-z
1/2-x,y,-z
1/2+x,1/2+y,1/2+z
1/2-x,-y,1/2+z
1/2+x,1/2-y,-z
-x,1/2+y,1/2-z
loop_
_atom_site_type_symbol
_atom_site_label
_atom_site_fract_x
_atom_site_fract_y
_atom_site_fract_z
Si Si1 0.318737 0.851220 0.938109
Si Si2 0.412228 0.751537 0.880082
Si Si3 0.255725 0.000000 0.250000
Si Si4 0.796743 0.848797 0.564473
Si Si5 0.051306 0.750538 0.398086
O O1 0.361182 0.778355 0.861456
O O2 0.276310 0.878490 0.852250
O O3 0.314448 0.625741 0.037139
O O4 0.323497 0.127178 0.996632
O O5 0.435766 0.750511 0.747375
O O6 0.426283 0.498984 0.946888
O O7 0.429173 0.995073 0.949853
O O8 0.284937 0.221589 0.194619
O O9 0.750000 0.854382 0.500000
O O10 0.000000 0.750000 0.409079
#
# Coordination Sequence:
#
# PCOD9332926 Si02
#       5
#     8   8   4   8   8
#     4  11  22  35  52  78 102 136 189 221 261 325
#     4  10  18  29  44  65  97 130 161 212 245 283
#     4  10  22  40  58  72 108 148 180 236 286 304
#     4  10  22  36  52  75  99 133 184 230 267 321
#     4  10  18  29  45  69  96 136 175 193 243 324
#
# _framework density 20.024712999999998
#
# number of rings (size 3 to 8) (size 9 to 14) (size 15 to 20)
#    0.000    1.778    0.000    8.000    0.000   13.333 
#    0.000    0.000    0.000    0.000    0.000    0.000 
#    0.000    0.000    0.000   90.000    0.000   21.556 
#
# Total GULP energy -100338.469540 kJ/mol
# GULP energy per Si atom -5574.359419 kJ/mol
# Density = 1.997914 g / cm^3
# Si number density = 20.024713 Si / 1000 Ang^3
#
#
#
# Elastic Constant Matrix: (Units=GPa)
#
#
# Indices 1 2 3 4 5 6 
#
# 1 54.2901 19.3015 0.1223 0.0000 0.0000 0.0000
# 2 19.3015 186.8116 13.6205 0.0000 0.0000 0.0000
# 3 0.1223 13.6205 41.7477 0.0000 0.0000 0.0000
# 4 0.0000 0.0000 0.0000 18.4884 0.0000 0.0000
# 5 0.0000 0.0000 0.0000 0.0000 6.5219 0.0000
# 6 0.0000 0.0000 0.0000 0.0000 0.0000 31.2762
#
#
#
# Elastic Compliance Matrix: (Units=1/GPa)
#
#
# Indices 1 2 3 4 5 6 
#
# 1 0.019137 -0.002021 0.000603 0.000000 0.000000 0.000000
# 2 -0.002021 0.005697 -0.001853 0.000000 0.000000 0.000000
# 3 0.000603 -0.001853 0.024556 0.000000 0.000000 0.000000
# 4 0.000000 0.000000 0.000000 0.054088 0.000000 0.000000
# 5 0.000000 0.000000 0.000000 0.000000 0.153330 0.000000
# 6 0.000000 0.000000 0.000000 0.000000 0.000000 0.031973
#
#
# Mechanical properties :
#
#
# Convention : Reuss Voigt Hill
#
# Bulk Modulus (GPa) = 23.33795 38.77088 31.05441
# Shear Modulus (GPa) = 16.14959 27.91098 22.03028
#
# Velocity S-wave (km/s) = 2.84294 3.73745 3.32046
# Velocity P-wave (km/s) = 4.73881 6.16670 5.49930
#
# Compressibility (1/GPa) = 0.04284867
#
# Stress axis : x y z
#
# Youngs Moduli (GPa) = 52.25537 175.53393 40.72308
#
# Poissons Ratio (x) = 0.35479 -0.02457
# Poissons Ratio (y) = 0.10562 0.07545
# Poissons Ratio (z) = -0.03153 0.32522
#
# Static dielectric constant tensor:
#      x y z
#    x 1.687280 0.000000 0.000000 
#    y 0.000000 1.896700 0.000000 
#    z 0.000000 0.000000 1.744240 
# 
# From -- ./inp_files/2625.got.cif
#   From: 2010.05.17/outbox.cif.g08.bks.cpg/sg24_2_cif.got.tgz:2625.got - 2010.06.04 00:33:39.
