data_PCOD9332323
_publ_section_title
;
Structure prediction by ZEFSAII (Michael W. Deem and Ramdas Pophale) SiO2 
 PCOD9332323
Probable space group: I 2 2 2
;
_chemical_formula_sum "Si O2"
_cell_formula_units_Z 34
_cell_length_a 18.330902
_cell_length_b 7.847616
_cell_length_c 9.696167
_cell_angle_alpha 90.000000
_cell_angle_beta 90.000000
_cell_angle_gamma 90.000000
_cell_volume 1394.831242
_symmetry_space_group_name_H-M "I 2 2 2"
_symmetry_group_IT_number 23
_symmetry_cell_setting 'orthorhombic'
loop_
_space_group_symop_operation_xyz
x,y,z
-x,-y,z
x,-y,-z
-x,y,-z
1/2+x,1/2+y,1/2+z
1/2-x,1/2-y,1/2+z
1/2+x,1/2-y,1/2-z
1/2-x,1/2+y,1/2-z
loop_
_atom_site_type_symbol
_atom_site_label
_atom_site_fract_x
_atom_site_fract_y
_atom_site_fract_z
Si Si1 0.000000 0.500000 0.500000
Si Si2 0.520325 0.278997 0.653140
Si Si3 0.595653 0.070257 0.247867
Si Si4 0.355768 0.567641 0.845123
Si Si5 0.261264 0.920736 0.848927
O O1 0.055654 0.588566 0.600630
O O2 0.500000 0.332964 0.500000
O O3 0.563113 0.237088 0.310397
O O4 0.570557 0.386453 0.758350
O O5 0.563745 0.095471 0.669208
O O6 0.678952 0.041790 0.223408
O O7 0.305458 0.741232 0.859927
O O8 0.306909 0.439009 0.753475
O O9 0.370332 0.500000 0.000000
O O10 0.243901 0.000000 0.000000
#
# Coordination Sequence:
#
# PCOD9332323 Si02
#       5
#     2   8   8   8   8
#     4   8  12  28  50  96 134 172 250 282 342 396
#     4   9  19  37  66 106 145 186 239 302 372 443
#     4   9  17  32  66 105 142 187 251 294 354 444
#     4  11  25  45  73 110 146 197 258 314 383 452
#     4  11  23  42  71 106 149 196 251 313 371 446
#
# _framework density 24.375709000000001
#
# number of rings (size 3 to 8) (size 9 to 14) (size 15 to 20)
#    0.000    2.353    1.176    2.824    0.000    5.647 
#    0.000    0.000    0.000   21.882    0.000    1.647 
#    0.000    0.000    0.000    0.000    0.000    0.000 
#
# Total GULP energy -94656.369425 kJ/mol
# GULP energy per Si atom -5568.021731 kJ/mol
# Density = 2.432023 g / cm^3
# Si number density = 24.375709 Si / 1000 Ang^3
#
#
#
# Elastic Constant Matrix: (Units=GPa)
#
#
# Indices 1 2 3 4 5 6 
#
# 1 156.9144 52.6215 80.0045 0.0000 0.0000 0.0000
# 2 52.6215 138.5316 80.7576 0.0000 0.0000 0.0000
# 3 80.0045 80.7576 207.0022 0.0000 0.0000 0.0000
# 4 0.0000 0.0000 0.0000 23.3574 0.0000 0.0000
# 5 0.0000 0.0000 0.0000 0.0000 48.7725 0.0000
# 6 0.0000 0.0000 0.0000 0.0000 0.0000 37.8821
#
#
#
# Elastic Compliance Matrix: (Units=1/GPa)
#
#
# Indices 1 2 3 4 5 6 
#
# 1 0.008216 -0.001644 -0.002534 0.000000 0.000000 0.000000
# 2 -0.001644 0.009672 -0.003138 0.000000 0.000000 0.000000
# 3 -0.002534 -0.003138 0.007035 0.000000 0.000000 0.000000
# 4 0.000000 0.000000 0.000000 0.042813 0.000000 0.000000
# 5 0.000000 0.000000 0.000000 0.000000 0.020503 0.000000
# 6 0.000000 0.000000 0.000000 0.000000 0.000000 0.026398
#
#
# Mechanical properties :
#
#
# Convention : Reuss Voigt Hill
#
# Bulk Modulus (GPa) = 97.17209 103.24616 100.20913
# Shear Modulus (GPa) = 37.67903 41.27337 39.47620
#
# Velocity S-wave (km/s) = 3.93588 4.11934 4.02865
# Velocity P-wave (km/s) = 7.78497 8.06681 7.92714
#
# Compressibility (1/GPa) = 0.01029102
#
# Stress axis : x y z
#
# Youngs Moduli (GPa) = 121.71066 103.38771 142.15325
#
# Poissons Ratio (x) = 0.16992 0.36026
# Poissons Ratio (y) = 0.20004 0.44611
# Poissons Ratio (z) = 0.30845 0.32445
#
# Static dielectric constant tensor:
#      x y z
#    x 1.963650 0.000000 0.000000 
#    y 0.000000 2.044920 0.000000 
#    z 0.000000 0.000000 1.795550 
# 
# From -- ./inp_files/11679.got.cif
#   From: 2010.05.17/outbox.cif.g08.bks.cpg/sg23_6_cif.got.tgz:11679.got - 2010.06.04 12:02:01.
