data_PCOD9332456
_publ_section_title
;
Structure prediction by ZEFSAII (Michael W. Deem and Ramdas Pophale) SiO2 
 PCOD9332456
Probable space group: I 2 2 2
;
_chemical_formula_sum "Si O2"
_cell_formula_units_Z 24
_cell_length_a 17.697995
_cell_length_b 8.646377
_cell_length_c 6.714673
_cell_angle_alpha 90.000000
_cell_angle_beta 90.000000
_cell_angle_gamma 90.000000
_cell_volume 1027.503012
_symmetry_space_group_name_H-M "I 2 2 2"
_symmetry_group_IT_number 23
_symmetry_cell_setting 'orthorhombic'
loop_
_space_group_symop_operation_xyz
x,y,z
-x,-y,z
x,-y,-z
-x,y,-z
1/2+x,1/2+y,1/2+z
1/2-x,1/2-y,1/2+z
1/2+x,1/2-y,1/2-z
1/2-x,1/2+y,1/2-z
loop_
_atom_site_type_symbol
_atom_site_label
_atom_site_fract_x
_atom_site_fract_y
_atom_site_fract_z
Si Si1 0.679299 0.372118 0.368388
Si Si2 0.910450 0.812691 0.498851
Si Si3 0.825836 0.615569 0.837515
O O1 0.635564 0.500000 0.500000
O O2 0.751555 0.453108 0.267806
O O3 0.709322 0.248199 0.523492
O O4 0.627689 0.280114 0.213270
O O5 0.876347 0.704924 0.673704
O O6 0.000000 0.790980 0.500000
O O7 0.895954 0.000000 0.500000
O O8 0.862160 0.500000 0.000000
#
# Coordination Sequence:
#
# PCOD9332456 Si02
#       3
#     8   8   8
#     4  12  23  44  75 103 141 191 245 292 359 436
#     4  11  25  47  71 104 144 190 242 297 357 437
#     4  12  25  42  74 111 141 186 244 304 359 420
#
# _framework density 23.357595
#
# number of rings (size 3 to 8) (size 9 to 14) (size 15 to 20)
#    0.000    0.333    6.667    3.000    0.000    1.333 
#    0.000    5.000    0.000    0.000    0.000    0.000 
#    0.000    0.000    0.000    0.000    0.000    0.000 
#
# Total GULP energy -66938.510703 kJ/mol
# GULP energy per Si atom -5578.209225 kJ/mol
# Density = 2.330443 g / cm^3
# Si number density = 23.357595 Si / 1000 Ang^3
#
#
#
# Elastic Constant Matrix: (Units=GPa)
#
#
# Indices 1 2 3 4 5 6 
#
# 1 124.2637 31.5738 71.8152 0.0000 0.0000 0.0000
# 2 31.5738 94.6770 75.6145 0.0000 0.0000 0.0000
# 3 71.8152 75.6145 172.5183 0.0000 0.0000 0.0000
# 4 0.0000 0.0000 0.0000 74.9811 0.0000 0.0000
# 5 0.0000 0.0000 0.0000 0.0000 20.0020 0.0000
# 6 0.0000 0.0000 0.0000 0.0000 0.0000 26.1503
#
#
#
# Elastic Compliance Matrix: (Units=1/GPa)
#
#
# Indices 1 2 3 4 5 6 
#
# 1 0.010597 -0.000017 -0.004404 0.000000 0.000000 0.000000
# 2 -0.000017 0.016251 -0.007116 0.000000 0.000000 0.000000
# 3 -0.004404 -0.007116 0.010749 0.000000 0.000000 0.000000
# 4 0.000000 0.000000 0.000000 0.013337 0.000000 0.000000
# 5 0.000000 0.000000 0.000000 0.000000 0.049995 0.000000
# 6 0.000000 0.000000 0.000000 0.000000 0.000000 0.038240
#
#
# Mechanical properties :
#
#
# Convention : Reuss Voigt Hill
#
# Bulk Modulus (GPa) = 68.85414 83.27401 76.06407
# Shear Modulus (GPa) = 29.92540 38.39038 34.15789
#
# Velocity S-wave (km/s) = 3.58325 4.05852 3.82827
# Velocity P-wave (km/s) = 6.83095 7.59548 7.22334
#
# Compressibility (1/GPa) = 0.01452346
#
# Stress axis : x y z
#
# Youngs Moduli (GPa) = 94.36861 61.53523 93.03615
#
# Poissons Ratio (x) = 0.00103 0.40971
# Poissons Ratio (y) = 0.00158 0.66202
# Poissons Ratio (z) = 0.41558 0.43787
#
# Static dielectric constant tensor:
#      x y z
#    x 1.778530 0.000000 0.000000 
#    y 0.000000 2.025500 0.000000 
#    z 0.000000 0.000000 2.013220 
# 
# From -- ./inp_files/2848.got.cif
#   From: 2010.05.17/outbox.cif.g08.bks.cpg/sg23_2_cif.got.tgz:2848.got - 2010.06.04 12:02:01.
