data_PCOD9332008
_publ_section_title
;
Structure prediction by ZEFSAII (Michael W. Deem and Ramdas Pophale) SiO2 
 PCOD9332008
Probable space group: I 2 2 2
;
_chemical_formula_sum "Si O2"
_cell_formula_units_Z 38
_cell_length_a 10.865266
_cell_length_b 18.588552
_cell_length_c 7.165175
_cell_angle_alpha 90.000000
_cell_angle_beta 90.000000
_cell_angle_gamma 90.000000
_cell_volume 1447.147257
_symmetry_space_group_name_H-M "I 2 2 2"
_symmetry_group_IT_number 23
_symmetry_cell_setting 'orthorhombic'
loop_
_space_group_symop_operation_xyz
x,y,z
-x,-y,z
x,-y,-z
-x,y,-z
1/2+x,1/2+y,1/2+z
1/2-x,1/2-y,1/2+z
1/2+x,1/2-y,1/2-z
1/2-x,1/2+y,1/2-z
loop_
_atom_site_type_symbol
_atom_site_label
_atom_site_fract_x
_atom_site_fract_y
_atom_site_fract_z
Si Si1 0.836828 0.323227 0.727507
Si Si2 0.859301 0.490378 0.775823
Si Si3 0.637426 0.288301 0.966663
Si Si4 0.000000 0.215244 0.000000
Si Si5 0.500000 0.500000 0.000000
Si Si6 0.166171 0.896317 0.759492
O O1 0.833189 0.407228 0.743520
O O2 0.860373 0.294031 0.522141
O O3 0.933095 0.278008 0.859169
O O4 0.694854 0.298896 0.767837
O O5 0.773906 0.550012 0.678996
O O6 0.000000 0.500000 0.723676
O O7 0.846174 0.500000 0.000000
O O8 0.715210 0.337975 0.107119
O O9 0.500000 0.313085 0.000000
O O10 0.908360 0.151573 0.907873
O O11 0.579776 0.450226 0.138254
#
# Coordination Sequence:
#
# PCOD9332008 Si02
#       6
#     8   8   8   4   2   8
#     4  11  25  43  73 107 146 192 251 312 393 455
#     4  11  22  42  77 108 144 194 259 308 385 473
#     4  11  25  44  70 104 150 191 253 318 385 464
#     4  10  26  43  69 112 158 190 258 320 400 457
#     4  12  20  38  70  96 148 190 266 302 388 458
#     4  11  23  42  70 108 146 201 253 319 388 470
#
# _framework density 26.258557
#
# number of rings (size 3 to 8) (size 9 to 14) (size 15 to 20)
#    0.000    1.053    4.211    1.263    5.895    2.105 
#    0.000    2.105    0.000    5.684    0.000    0.000 
#    0.000    0.000    0.000    0.000    0.000    0.000 
#
# Total GULP energy -105924.735828 kJ/mol
# GULP energy per Si atom -5574.986096 kJ/mol
# Density = 2.619879 g / cm^3
# Si number density = 26.258557 Si / 1000 Ang^3
#
#
#
# Elastic Constant Matrix: (Units=GPa)
#
#
# Indices 1 2 3 4 5 6 
#
# 1 123.5620 59.1504 23.9507 0.0001 0.0001 0.0001
# 2 59.1504 244.1503 53.4550 0.0003 -0.0001 -0.0001
# 3 23.9507 53.4550 108.9176 0.0012 -0.0006 -0.0003
# 4 0.0001 0.0003 0.0012 101.3787 -0.0001 0.0001
# 5 0.0001 -0.0001 -0.0006 -0.0001 25.9617 0.0001
# 6 0.0001 -0.0001 -0.0003 0.0001 0.0001 43.8419
#
#
#
# Elastic Compliance Matrix: (Units=1/GPa)
#
#
# Indices 1 2 3 4 5 6 
#
# 1 0.009260 -0.002014 -0.001048 0.000000 0.000000 0.000000
# 2 -0.002014 0.005027 -0.002024 0.000000 0.000000 0.000000
# 3 -0.001048 -0.002024 0.010405 0.000000 0.000000 0.000000
# 4 0.000000 0.000000 0.000000 0.009864 0.000000 0.000000
# 5 0.000000 0.000000 0.000000 0.000000 0.038518 0.000000
# 6 0.000000 0.000000 0.000000 0.000000 0.000000 0.022809
#
#
# Mechanical properties :
#
#
# Convention : Reuss Voigt Hill
#
# Bulk Modulus (GPa) = 68.87007 83.30466 76.08737
# Shear Modulus (GPa) = 45.08711 56.90807 50.99759
#
# Velocity S-wave (km/s) = 4.14822 4.66039 4.41174
# Velocity P-wave (km/s) = 7.01628 7.79440 7.41555
#
# Compressibility (1/GPa) = 0.01452010
#
# Stress axis : x y z
#
# Youngs Moduli (GPa) = 107.98686 198.92597 96.10630
#
# Poissons Ratio (x) = 0.40066 0.10070
# Poissons Ratio (y) = 0.21750 0.19455
# Poissons Ratio (z) = 0.11315 0.40268
#
# Static dielectric constant tensor:
#      x y z
#    x 1.657320 0.000000 0.000000 
#    y 0.000000 1.994280 0.000000 
#    z 0.000000 0.000000 2.085590 
# 
# From -- ./inp_files/8239.got.cif
#   From: 2010.05.17/outbox.cif.g08.bks.cpg/sg23_5_cif.got.tgz:8239.got - 2010.06.04 12:02:01.
