data_PCOD9332944
_publ_section_title
;
Structure prediction by ZEFSAII (Michael W. Deem and Ramdas Pophale) SiO2 
 PCOD9332944
Probable space group: I 21 21 21
;
_chemical_formula_sum "Si O2"
_cell_formula_units_Z 40
_cell_length_a 12.846408
_cell_length_b 9.418737
_cell_length_c 18.543456
_cell_angle_alpha 90.000000
_cell_angle_beta 90.000000
_cell_angle_gamma 90.000000
_cell_volume 2243.701402
_symmetry_space_group_name_H-M "I 21 21 21"
_symmetry_group_IT_number 24
_symmetry_cell_setting 'orthorhombic'
loop_
_space_group_symop_operation_xyz
x,y,z
-x,1/2-y,z
x,-y,1/2-z
1/2-x,y,-z
1/2+x,1/2+y,1/2+z
1/2-x,-y,1/2+z
1/2+x,1/2-y,-z
-x,1/2+y,1/2-z
loop_
_atom_site_type_symbol
_atom_site_label
_atom_site_fract_x
_atom_site_fract_y
_atom_site_fract_z
Si Si1 0.462179 0.000000 0.750000
Si Si2 0.097389 0.653375 0.656712
Si Si3 0.500000 0.750000 0.648227
Si Si4 0.240322 0.085524 0.320221
Si Si5 0.101934 0.668258 0.830131
Si Si6 0.279059 0.178354 0.917042
O O1 0.519708 0.110551 0.801694
O O2 0.379908 0.096952 0.704493
O O3 0.092862 0.654318 0.743449
O O4 0.099416 0.487879 0.636047
O O5 0.203193 0.722668 0.629444
O O6 0.000000 0.750000 0.630871
O O7 0.397911 0.783252 0.601623
O O8 0.298108 0.230360 0.338223
O O9 0.289283 0.000000 0.250000
O O10 0.242703 0.979080 0.386950
O O11 0.000000 0.750000 0.856561
O O12 0.250000 0.191978 0.000000
#
# Coordination Sequence:
#
# PCOD9332944 Si02
#       6
#     4   8   4   8   8   8
#     4   8  18  32  60  78 114 144 198 264 284 344
#     4  10  20  33  54  86 115 146 186 237 288 347
#     4  10  20  38  58  90 112 150 204 246 308 348
#     4   9  17  36  53  78 111 149 200 245 291 343
#     4  10  18  29  56  84 113 145 187 238 284 340
#     4  11  23  37  56  83 118 157 190 245 305 370
#
# _framework density 17.827684000000001
#
# number of rings (size 3 to 8) (size 9 to 14) (size 15 to 20)
#    0.600    1.600    2.000    1.200    4.200    3.200 
#    0.000    1.000    0.000    0.000    0.000    0.000 
#    0.000    0.000    0.000    0.000    0.000    0.000 
#
# Total GULP energy -111371.055646 kJ/mol
# GULP energy per Si atom -5568.552782 kJ/mol
# Density = 1.778711 g / cm^3
# Si number density = 17.827684 Si / 1000 Ang^3
#
#
#
# Elastic Constant Matrix: (Units=GPa)
#
#
# Indices 1 2 3 4 5 6 
#
# 1 73.4896 55.7422 20.6160 0.0000 0.0000 0.0000
# 2 55.7422 130.5234 22.3976 0.0000 0.0000 0.0000
# 3 20.6160 22.3976 46.6334 0.0000 0.0000 0.0000
# 4 0.0000 0.0000 0.0000 7.9067 0.0000 0.0000
# 5 0.0000 0.0000 0.0000 0.0000 35.9280 0.0000
# 6 0.0000 0.0000 0.0000 0.0000 0.0000 23.7419
#
#
#
# Elastic Compliance Matrix: (Units=1/GPa)
#
#
# Indices 1 2 3 4 5 6 
#
# 1 0.021354 -0.008173 -0.005515 0.000000 0.000000 0.000000
# 2 -0.008173 0.011478 -0.001899 0.000000 0.000000 0.000000
# 3 -0.005515 -0.001899 0.024794 0.000000 0.000000 0.000000
# 4 0.000000 0.000000 0.000000 0.126476 0.000000 0.000000
# 5 0.000000 0.000000 0.000000 0.000000 0.027833 0.000000
# 6 0.000000 0.000000 0.000000 0.000000 0.000000 0.042120
#
#
# Mechanical properties :
#
#
# Convention : Reuss Voigt Hill
#
# Bulk Modulus (GPa) = 37.80566 49.79532 43.80049
# Shear Modulus (GPa) = 17.00413 23.64137 20.32275
#
# Velocity S-wave (km/s) = 3.09172 3.64552 3.37998
# Velocity P-wave (km/s) = 5.83071 6.76106 6.31304
#
# Compressibility (1/GPa) = 0.02645107
#
# Stress axis : x y z
#
# Youngs Moduli (GPa) = 46.83005 87.12398 40.33210
#
# Poissons Ratio (x) = 0.71208 0.22242
# Poissons Ratio (y) = 0.38275 0.07661
# Poissons Ratio (z) = 0.25826 0.16549
#
# Static dielectric constant tensor:
#      x y z
#    x 1.625210 0.000000 0.000000 
#    y 0.000000 1.619810 0.000000 
#    z 0.000000 0.000000 1.593780 
# 
# From -- ./inp_files/11068.got.cif
#   From: 2010.05.17/outbox.cif.g08.bks.cpg/sg24_6_cif.got.tgz:11068.got - 2010.06.04 00:33:39.
