data_PCOD9332600
_publ_section_title
;
Structure prediction by ZEFSAII (Michael W. Deem and Ramdas Pophale) SiO2 
 PCOD9332600
Probable space group: I 2 2 2
;
_chemical_formula_sum "Si O2"
_cell_formula_units_Z 26
_cell_length_a 8.066337
_cell_length_b 5.185949
_cell_length_c 28.755256
_cell_angle_alpha 90.000000
_cell_angle_beta 90.000000
_cell_angle_gamma 90.000000
_cell_volume 1202.878721
_symmetry_space_group_name_H-M "I 2 2 2"
_symmetry_group_IT_number 23
_symmetry_cell_setting 'orthorhombic'
loop_
_space_group_symop_operation_xyz
x,y,z
-x,-y,z
x,-y,-z
-x,y,-z
1/2+x,1/2+y,1/2+z
1/2-x,1/2-y,1/2+z
1/2+x,1/2-y,1/2-z
1/2-x,1/2+y,1/2-z
loop_
_atom_site_type_symbol
_atom_site_label
_atom_site_fract_x
_atom_site_fract_y
_atom_site_fract_z
Si Si1 0.000000 0.500000 0.500000
Si Si2 0.687839 0.095504 0.775465
Si Si3 0.815218 0.886009 0.550316
Si Si4 0.895652 0.260619 0.862513
O O1 0.865664 0.599647 0.537170
O O2 0.791893 0.852719 0.755661
O O3 0.500000 0.000000 0.777640
O O4 0.757744 0.173948 0.825711
O O5 0.688466 0.884925 0.591826
O O6 0.762174 0.000000 0.500000
O O7 0.000000 0.000000 0.560235
O O8 0.000000 0.500000 0.841513
O O9 0.000000 0.000000 0.872958
#
# Coordination Sequence:
#
# PCOD9332600 Si02
#       4
#     2   8   8   8
#     4   8  18  40  70  90 132 172 244 276 346 396
#     4  12  26  48  75 104 139 182 229 289 349 415
#     4   9  22  43  68  97 134 184 238 286 341 412
#     4  12  28  45  69 105 145 182 232 287 348 416
#
# _framework density 21.614816000000001
#
# number of rings (size 3 to 8) (size 9 to 14) (size 15 to 20)
#    0.000    1.538    0.000    5.538   10.769    3.077 
#    0.000    0.000    0.000    0.000    0.000    0.000 
#    0.000    0.000    0.000    0.000    0.000    0.000 
#
# Total GULP energy -72428.527719 kJ/mol
# GULP energy per Si atom -5571.425209 kJ/mol
# Density = 2.156562 g / cm^3
# Si number density = 21.614816 Si / 1000 Ang^3
#
#
#
# Elastic Constant Matrix: (Units=GPa)
#
#
# Indices 1 2 3 4 5 6 
#
# 1 100.8482 34.4604 64.8050 0.0000 0.0000 0.0000
# 2 34.4604 89.0549 36.9363 0.0000 0.0000 0.0000
# 3 64.8050 36.9363 123.0721 0.0000 0.0000 0.0000
# 4 0.0000 0.0000 0.0000 59.8395 0.0000 0.0000
# 5 0.0000 0.0000 0.0000 0.0000 39.1458 0.0000
# 6 0.0000 0.0000 0.0000 0.0000 0.0000 70.6765
#
#
#
# Elastic Compliance Matrix: (Units=1/GPa)
#
#
# Indices 1 2 3 4 5 6 
#
# 1 0.015666 -0.003016 -0.007344 0.000000 0.000000 0.000000
# 2 -0.003016 0.013406 -0.002435 0.000000 0.000000 0.000000
# 3 -0.007344 -0.002435 0.012723 0.000000 0.000000 0.000000
# 4 0.000000 0.000000 0.000000 0.016711 0.000000 0.000000
# 5 0.000000 0.000000 0.000000 0.000000 0.025545 0.000000
# 6 0.000000 0.000000 0.000000 0.000000 0.000000 0.014149
#
#
# Mechanical properties :
#
#
# Convention : Reuss Voigt Hill
#
# Bulk Modulus (GPa) = 61.71038 65.04206 63.37622
# Shear Modulus (GPa) = 38.70198 45.71728 42.20963
#
# Velocity S-wave (km/s) = 4.23606 4.60400 4.42386
# Velocity P-wave (km/s) = 7.24828 7.64324 7.44838
#
# Compressibility (1/GPa) = 0.01620473
#
# Stress axis : x y z
#
# Youngs Moduli (GPa) = 63.83433 74.59248 78.59705
#
# Poissons Ratio (x) = 0.22497 0.57719
# Poissons Ratio (y) = 0.19253 0.19141
# Poissons Ratio (z) = 0.46878 0.18166
#
# Static dielectric constant tensor:
#      x y z
#    x 1.784970 0.000000 0.000000 
#    y 0.000000 1.772610 0.000000 
#    z 0.000000 0.000000 1.730630 
# 
# From -- ./inp_files/582.got.cif
#   From: 2010.05.17/outbox.cif.g08.bks.cpg/sg23_1_cif.got.tgz:582.got - 2010.06.04 12:02:01.
