data_PCOD9332914
_publ_section_title
;
Structure prediction by ZEFSAII (Michael W. Deem and Ramdas Pophale) SiO2 
 PCOD9332914
Probable space group: I 21 21 21
;
_chemical_formula_sum "Si O2"
_cell_formula_units_Z 56
_cell_length_a 7.825661
_cell_length_b 22.724582
_cell_length_c 21.699707
_cell_angle_alpha 90.000000
_cell_angle_beta 90.000000
_cell_angle_gamma 90.000000
_cell_volume 3858.964684
_symmetry_space_group_name_H-M "I 21 21 21"
_symmetry_group_IT_number 24
_symmetry_cell_setting 'orthorhombic'
loop_
_space_group_symop_operation_xyz
x,y,z
-x,1/2-y,z
x,-y,1/2-z
1/2-x,y,-z
1/2+x,1/2+y,1/2+z
1/2-x,-y,1/2+z
1/2+x,1/2-y,-z
-x,1/2+y,1/2-z
loop_
_atom_site_type_symbol
_atom_site_label
_atom_site_fract_x
_atom_site_fract_y
_atom_site_fract_z
Si Si1 0.800899 0.509853 0.571496
Si Si2 0.199100 0.509854 0.571496
Si Si3 0.500000 0.531797 0.847231
Si Si4 0.305716 0.367352 0.142809
Si Si5 0.000000 0.594328 0.277029
Si Si6 0.296000 0.750000 0.571880
Si Si7 0.805714 0.632648 0.642809
O O1 0.750000 0.508855 0.500000
O O2 0.668844 0.470486 0.610496
O O3 0.781637 0.576379 0.597759
O O4 1.000000 0.493393 0.579010
O O5 0.250000 0.508854 0.500000
O O6 0.331156 0.470486 0.610496
O O7 0.218362 0.576380 0.597759
O O8 0.500001 0.582165 0.795618
O O9 0.500000 0.469841 0.809949
O O10 0.167314 0.373356 0.196868
O O11 0.275936 0.308159 0.104515
O O12 0.500001 0.369514 0.165973
O O13 0.832689 0.626645 0.303133
O O14 0.500000 0.750000 0.578284
O O15 0.250000 0.749999 0.500000
O O16 0.224064 0.808159 0.604514
#
# Coordination Sequence:
#
# PCOD9332914 Si02
#       7
#     8   8   8   8   8   8   8
#     4  10  18  28  45  66  90 120 152 188 232 274
#     4  10  18  28  45  66  90 120 152 188 232 274
#     4   9  18  30  46  64  88 115 155 194 224 273
#     4  10  20  32  46  64  89 122 157 194 229 267
#     4   9  18  33  46  62  86 121 157 191 228 269
#     4  12  22  32  46  67  93 122 159 196 234 266
#     4  10  20  32  46  64  89 122 157 194 229 267
#
# _framework density 14.511665000000001
#
# number of rings (size 3 to 8) (size 9 to 14) (size 15 to 20)
#    0.000    2.000    2.857    2.143    0.000    3.429 
#    0.000    5.714    0.000    0.000    0.000    0.000 
#    0.000    0.000    0.000    5.143    0.000    0.286 
#
# Total GULP energy -156124.855305 kJ/mol
# GULP energy per Si atom -5575.887689 kJ/mol
# Density = 1.447864 g / cm^3
# Si number density = 14.511665 Si / 1000 Ang^3
#
#
#
# Elastic Constant Matrix: (Units=GPa)
#
#
# Indices 1 2 3 4 5 6 
#
# 1 142.5684 36.3330 80.5787 0.0000 0.0000 0.0000
# 2 36.3330 42.8767 45.6786 0.0000 0.0000 0.0000
# 3 80.5787 45.6786 113.9302 0.0000 0.0000 0.0000
# 4 0.0000 0.0000 0.0000 20.3193 0.0000 0.0000
# 5 0.0000 0.0000 0.0000 0.0000 21.2325 0.0000
# 6 0.0000 0.0000 0.0000 0.0000 0.0000 9.4235
#
#
#
# Elastic Compliance Matrix: (Units=1/GPa)
#
#
# Indices 1 2 3 4 5 6 
#
# 1 0.011776 -0.001930 -0.007555 0.000000 0.000000 0.000000
# 2 -0.001930 0.041029 -0.015085 0.000000 0.000000 0.000000
# 3 -0.007555 -0.015085 0.020169 0.000000 0.000000 0.000000
# 4 0.000000 0.000000 0.000000 0.049214 0.000000 0.000000
# 5 0.000000 0.000000 0.000000 0.000000 0.047098 0.000000
# 6 0.000000 0.000000 0.000000 0.000000 0.000000 0.106118
#
#
# Mechanical properties :
#
#
# Convention : Reuss Voigt Hill
#
# Bulk Modulus (GPa) = 41.95719 69.39509 55.67614
# Shear Modulus (GPa) = 15.03815 19.31405 17.17610
#
# Velocity S-wave (km/s) = 3.22262 3.65215 3.44409
# Velocity P-wave (km/s) = 6.54390 8.10607 7.36651
#
# Compressibility (1/GPa) = 0.02383382
#
# Stress axis : x y z
#
# Youngs Moduli (GPa) = 84.91806 24.37312 49.58217
#
# Poissons Ratio (x) = 0.04705 0.37459
# Poissons Ratio (y) = 0.16392 0.74793
# Poissons Ratio (z) = 0.64154 0.36766
#
# Static dielectric constant tensor:
#      x y z
#    x 1.505350 0.000000 0.000000 
#    y 0.000000 1.452780 0.000000 
#    z 0.000000 0.000000 1.457500 
# 
# From -- ./inp_files/29769.got.cif
#   From: 2010.05.17/outbox.cif.g08.bks.cpg/sg24_15_cif.got.tgz:29769.got - 2010.06.04 00:33:39.
