data_PCOD9332207
_publ_section_title
;
Structure prediction by ZEFSAII (Michael W. Deem and Ramdas Pophale) SiO2 
 PCOD9332207
Probable space group: I 2 2 2
;
_chemical_formula_sum "Si O2"
_cell_formula_units_Z 56
_cell_length_a 13.673566
_cell_length_b 9.791504
_cell_length_c 21.501525
_cell_angle_alpha 90.000000
_cell_angle_beta 90.000000
_cell_angle_gamma 90.000000
_cell_volume 2878.726862
_symmetry_space_group_name_H-M "I 2 2 2"
_symmetry_group_IT_number 23
_symmetry_cell_setting 'orthorhombic'
loop_
_space_group_symop_operation_xyz
x,y,z
-x,-y,z
x,-y,-z
-x,y,-z
1/2+x,1/2+y,1/2+z
1/2-x,1/2-y,1/2+z
1/2+x,1/2-y,1/2-z
1/2-x,1/2+y,1/2-z
loop_
_atom_site_type_symbol
_atom_site_label
_atom_site_fract_x
_atom_site_fract_y
_atom_site_fract_z
Si Si1 0.903763 0.589254 0.250436
Si Si2 0.305129 0.741301 0.917739
Si Si3 0.012835 0.842743 0.574142
Si Si4 0.596652 0.584272 0.757121
Si Si5 0.735790 0.496487 0.346435
Si Si6 0.770244 0.474430 0.144228
Si Si7 0.772111 0.733642 0.435447
O O1 0.921586 0.752903 0.250003
O O2 0.821338 0.554103 0.301845
O O3 0.857805 0.535795 0.185274
O O4 0.000000 0.500000 0.263425
O O5 0.421398 0.746717 0.904687
O O6 0.272074 0.589897 0.900816
O O7 0.257194 0.845459 0.870460
O O8 0.278057 0.767141 0.989807
O O9 0.117238 0.775090 0.585770
O O10 0.000000 0.847987 0.500000
O O11 0.000000 0.000000 0.594518
O O12 0.500000 0.500000 0.774188
O O13 0.638408 0.514819 0.694323
O O14 0.684842 0.565812 0.806694
O O15 0.738034 0.591855 0.406727
O O16 0.793162 0.347506 0.099337
#
# Coordination Sequence:
#
# PCOD9332207 Si02
#       7
#     8   8   8   8   8   8   8
#     4  11  26  43  65  93 122 165 214 265 311 358
#     4  11  22  38  63  90 132 167 199 255 309 381
#     4   9  18  31  51  86 124 163 201 232 286 362
#     4  11  26  43  66  91 122 167 212 264 316 358
#     4  11  25  42  62  94 128 159 209 253 317 376
#     4  11  23  40  65  93 125 163 215 248 309 379
#     4  11  22  38  62  95 126 169 202 251 314 377
#
# _framework density 19.453043000000001
#
# number of rings (size 3 to 8) (size 9 to 14) (size 15 to 20)
#    0.000    1.286    4.286    0.857    8.000    0.000 
#    0.000    2.143    0.000    5.143    0.000    0.000 
#    0.000    0.000    0.000    0.000    0.000    0.000 
#
# Total GULP energy -156308.826425 kJ/mol
# GULP energy per Si atom -5582.458087 kJ/mol
# Density = 1.940877 g / cm^3
# Si number density = 19.453043 Si / 1000 Ang^3
#
#
#
# Elastic Constant Matrix: (Units=GPa)
#
#
# Indices 1 2 3 4 5 6 
#
# 1 40.9095 30.7963 12.6136 0.0000 0.0000 0.0000
# 2 30.7963 58.1328 -6.2788 0.0000 0.0000 0.0000
# 3 12.6136 -6.2788 65.8671 0.0000 0.0000 0.0000
# 4 0.0000 0.0000 0.0000 40.7000 0.0000 0.0000
# 5 0.0000 0.0000 0.0000 0.0000 18.0540 0.0000
# 6 0.0000 0.0000 0.0000 0.0000 0.0000 23.7106
#
#
#
# Elastic Compliance Matrix: (Units=1/GPa)
#
#
# Indices 1 2 3 4 5 6 
#
# 1 0.048315 -0.026871 -0.011814 0.000000 0.000000 0.000000
# 2 -0.026871 0.032326 0.008227 0.000000 0.000000 0.000000
# 3 -0.011814 0.008227 0.018229 0.000000 0.000000 0.000000
# 4 0.000000 0.000000 0.000000 0.024570 0.000000 0.000000
# 5 0.000000 0.000000 0.000000 0.000000 0.055389 0.000000
# 6 0.000000 0.000000 0.000000 0.000000 0.000000 0.042175
#
#
# Mechanical properties :
#
#
# Convention : Reuss Voigt Hill
#
# Bulk Modulus (GPa) = 26.34766 26.57464 26.46115
# Shear Modulus (GPa) = 16.97378 25.01148 20.99263
#
# Velocity S-wave (km/s) = 2.95710 3.58961 3.28860
# Velocity P-wave (km/s) = 5.02324 5.55616 5.29641
#
# Compressibility (1/GPa) = 0.03795403
#
# Stress axis : x y z
#
# Youngs Moduli (GPa) = 20.69735 30.93488 54.85847
#
# Poissons Ratio (x) = 0.83126 0.64809
# Poissons Ratio (y) = 0.55617 -0.45134
# Poissons Ratio (z) = 0.24452 -0.25451
#
# Static dielectric constant tensor:
#      x y z
#    x 1.681410 0.000000 0.000000 
#    y 0.000000 1.664470 0.000000 
#    z 0.000000 0.000000 1.688960 
# 
# From -- ./inp_files/22384.got.cif
#   From: 2010.05.17/outbox.cif.g08.bks.cpg/sg23_12_cif.got.tgz:22384.got - 2010.06.04 12:02:01.
