data_PCOD9332522
_publ_section_title
;
Structure prediction by ZEFSAII (Michael W. Deem and Ramdas Pophale) SiO2 
 PCOD9332522
Probable space group: I 2 2 2
;
_chemical_formula_sum "Si O2"
_cell_formula_units_Z 30
_cell_length_a 6.769251
_cell_length_b 21.417766
_cell_length_c 9.583606
_cell_angle_alpha 90.000000
_cell_angle_beta 90.000000
_cell_angle_gamma 90.000000
_cell_volume 1389.452607
_symmetry_space_group_name_H-M "I 2 2 2"
_symmetry_group_IT_number 23
_symmetry_cell_setting 'orthorhombic'
loop_
_space_group_symop_operation_xyz
x,y,z
-x,-y,z
x,-y,-z
-x,y,-z
1/2+x,1/2+y,1/2+z
1/2-x,1/2-y,1/2+z
1/2+x,1/2-y,1/2-z
1/2-x,1/2+y,1/2-z
loop_
_atom_site_type_symbol
_atom_site_label
_atom_site_fract_x
_atom_site_fract_y
_atom_site_fract_z
Si Si1 0.331481 0.948642 0.281850
Si Si2 0.000000 0.355675 0.000000
Si Si3 0.897386 0.841906 0.849199
Si Si4 0.000000 0.000000 0.500000
Si Si5 0.650094 0.723038 0.880498
O O1 0.456031 0.898941 0.369427
O O2 0.211750 0.908517 0.166891
O O3 0.158646 0.969741 0.391060
O O4 0.500000 0.000000 0.240766
O O5 0.181263 0.312997 0.961945
O O6 0.739532 0.786597 0.820973
O O7 0.059292 0.824878 0.731482
O O8 0.000000 0.836238 0.000000
O O9 0.500000 0.742299 0.000000
#
# Coordination Sequence:
#
# PCOD9332522 Si02
#       5
#     8   4   8   2   8
#     4  12  25  44  77 107 145 198 256 310 364 441
#     4  12  21  46  78 110 132 191 260 310 354 448
#     4  12  26  46  74 115 157 192 243 318 394 451
#     4  12  22  48  78 102 132 196 264 312 350 434
#     4  12  24  47  78 109 150 197 247 309 385 455
#
# _framework density 21.591239000000002
#
# number of rings (size 3 to 8) (size 9 to 14) (size 15 to 20)
#    0.000    0.000    6.667    4.800    0.000    0.000 
#    0.000    0.667    5.867    0.000    0.000    0.000 
#    0.000    0.000    0.000    0.000    0.000    0.000 
#
# Total GULP energy -83746.008770 kJ/mol
# GULP energy per Si atom -5583.067251 kJ/mol
# Density = 2.154210 g / cm^3
# Si number density = 21.591239 Si / 1000 Ang^3
#
#
#
# Elastic Constant Matrix: (Units=GPa)
#
#
# Indices 1 2 3 4 5 6 
#
# 1 101.9718 48.6385 15.6452 0.0019 0.0001 0.0000
# 2 48.6385 111.3324 15.5966 0.0011 0.0000 0.0000
# 3 15.6452 15.5966 68.3925 0.0025 0.0000 -0.0001
# 4 0.0019 0.0011 0.0025 362.2609 -0.0005 -0.0009
# 5 0.0001 0.0000 0.0000 -0.0005 29.7399 0.0000
# 6 0.0000 0.0000 -0.0001 -0.0009 0.0000 33.8656
#
#
#
# Elastic Compliance Matrix: (Units=1/GPa)
#
#
# Indices 1 2 3 4 5 6 
#
# 1 0.012572 -0.005257 -0.001677 0.000000 0.000000 0.000000
# 2 -0.005257 0.011477 -0.001415 0.000000 0.000000 0.000000
# 3 -0.001677 -0.001415 0.015328 0.000000 0.000000 0.000000
# 4 0.000000 0.000000 0.000000 0.002760 0.000000 0.000000
# 5 0.000000 0.000000 0.000000 0.000000 0.033625 0.000000
# 6 0.000000 0.000000 0.000000 0.000000 0.000000 0.029529
#
#
# Mechanical properties :
#
#
# Convention : Reuss Voigt Hill
#
# Bulk Modulus (GPa) = 44.09447 49.05081 46.57264
# Shear Modulus (GPa) = 38.59592 98.62770 68.61181
#
# Velocity S-wave (km/s) = 4.23256 6.76599 5.64328
# Velocity P-wave (km/s) = 6.65979 9.15453 8.00494
#
# Compressibility (1/GPa) = 0.02267858
#
# Stress axis : x y z
#
# Youngs Moduli (GPa) = 79.54480 87.13023 65.24142
#
# Poissons Ratio (x) = 0.45807 0.10940
# Poissons Ratio (y) = 0.41819 0.09229
# Poissons Ratio (z) = 0.13339 0.12326
#
# Static dielectric constant tensor:
#      x y z
#    x 0.753530 0.000000 0.000000 
#    y 0.000000 1.808150 0.000000 
#    z 0.000000 0.000000 1.757850 
# 
# From -- ./inp_files/1404.got.cif
#   From: 2010.05.17/outbox.cif.g08.bks.cpg/sg23_1_cif.got.tgz:1404.got - 2010.06.04 12:02:01.
