data_PCOD9332716
_publ_section_title
;
Structure prediction by ZEFSAII (Michael W. Deem and Ramdas Pophale) SiO2 
 PCOD9332716
Probable space group: I 21 21 21
;
_chemical_formula_sum "Si O2"
_cell_formula_units_Z 40
_cell_length_a 21.111637
_cell_length_b 7.881691
_cell_length_c 10.762534
_cell_angle_alpha 90.000000
_cell_angle_beta 90.000000
_cell_angle_gamma 90.000000
_cell_volume 1790.836143
_symmetry_space_group_name_H-M "I 21 21 21"
_symmetry_group_IT_number 24
_symmetry_cell_setting 'orthorhombic'
loop_
_space_group_symop_operation_xyz
x,y,z
-x,1/2-y,z
x,-y,1/2-z
1/2-x,y,-z
1/2+x,1/2+y,1/2+z
1/2-x,-y,1/2+z
1/2+x,1/2-y,-z
-x,1/2+y,1/2-z
loop_
_atom_site_type_symbol
_atom_site_label
_atom_site_fract_x
_atom_site_fract_y
_atom_site_fract_z
Si Si1 0.961900 0.574132 0.613229
Si Si2 0.281876 0.236780 0.672302
Si Si3 0.844908 0.398044 0.567520
Si Si4 0.411914 0.549531 0.102479
Si Si5 0.192815 0.614889 0.425610
O O1 0.956642 0.500000 0.750000
O O2 0.889448 0.563487 0.569676
O O3 0.000000 0.750000 0.617966
O O4 0.016960 0.464367 0.549478
O O5 0.213318 0.145787 0.660900
O O6 0.320909 0.132068 0.571563
O O7 0.278880 0.431730 0.621607
O O8 0.315051 0.266847 0.804715
O O9 0.891590 0.242821 0.595310
O O10 0.407793 0.500000 0.250000
O O11 0.364659 0.439376 0.015468
O O12 0.250000 0.700270 0.500000
#
# Coordination Sequence:
#
# PCOD9332716 Si02
#       5
#     8   8   8   8   8
#     4  11  23  38  60  92 124 169 223 285 348 411
#     4   9  18  31  57  93 130 179 215 269 342 401
#     4  10  18  35  60  87 130 169 217 278 336 412
#     4  10  18  32  57  92 128 171 218 272 328 404
#     4  10  16  28  55  96 136 172 222 262 325 419
#
# _framework density 22.335936
#
# number of rings (size 3 to 8) (size 9 to 14) (size 15 to 20)
#    0.000    2.000    4.000    4.200    0.000    0.000 
#    0.000    0.000   13.200    9.600    0.000    0.000 
#    0.000    0.000    0.000    0.000    0.000    0.000 
#
# Total GULP energy -111433.562674 kJ/mol
# GULP energy per Si atom -5571.678134 kJ/mol
# Density = 2.228510 g / cm^3
# Si number density = 22.335936 Si / 1000 Ang^3
#
#
#
# Elastic Constant Matrix: (Units=GPa)
#
#
# Indices 1 2 3 4 5 6 
#
# 1 140.4469 39.3831 39.9312 0.0000 0.0000 0.0000
# 2 39.3831 100.2193 21.0343 0.0000 0.0000 0.0000
# 3 39.9312 21.0343 103.1666 0.0000 0.0000 0.0000
# 4 0.0000 0.0000 0.0000 14.4631 0.0000 0.0000
# 5 0.0000 0.0000 0.0000 0.0000 15.7284 0.0000
# 6 0.0000 0.0000 0.0000 0.0000 0.0000 54.4781
#
#
#
# Elastic Compliance Matrix: (Units=1/GPa)
#
#
# Indices 1 2 3 4 5 6 
#
# 1 0.008710 -0.002836 -0.002793 0.000000 0.000000 0.000000
# 2 -0.002836 0.011348 -0.001216 0.000000 0.000000 0.000000
# 3 -0.002793 -0.001216 0.011022 0.000000 0.000000 0.000000
# 4 0.000000 0.000000 0.000000 0.069141 0.000000 0.000000
# 5 0.000000 0.000000 0.000000 0.000000 0.063579 0.000000
# 6 0.000000 0.000000 0.000000 0.000000 0.000000 0.018356
#
#
# Mechanical properties :
#
#
# Convention : Reuss Voigt Hill
#
# Bulk Modulus (GPa) = 57.50656 60.50332 59.00494
# Shear Modulus (GPa) = 24.79635 33.16620 28.98127
#
# Velocity S-wave (km/s) = 3.33551 3.85760 3.60602
# Velocity P-wave (km/s) = 6.37466 6.85478 6.61908
#
# Compressibility (1/GPa) = 0.01738932
#
# Stress axis : x y z
#
# Youngs Moduli (GPa) = 114.81685 88.12178 90.72839
#
# Poissons Ratio (x) = 0.24995 0.25338
# Poissons Ratio (y) = 0.32567 0.11031
# Poissons Ratio (z) = 0.32066 0.10714
#
# Static dielectric constant tensor:
#      x y z
#    x 1.916470 0.000000 0.000000 
#    y 0.000000 2.054990 0.000000 
#    z 0.000000 0.000000 1.663270 
# 
# From -- ./inp_files/22044.got.cif
#   From: 2010.05.17/outbox.cif.g08.bks.cpg/sg24_12_cif.got.tgz:22044.got - 2010.06.04 00:33:39.
