data_PCOD9332855
_publ_section_title
;
Structure prediction by ZEFSAII (Michael W. Deem and Ramdas Pophale) SiO2 
 PCOD9332855
Probable space group: I 21 21 21
;
_chemical_formula_sum "Si O2"
_cell_formula_units_Z 36
_cell_length_a 13.066034
_cell_length_b 9.944093
_cell_length_c 13.206353
_cell_angle_alpha 90.000000
_cell_angle_beta 90.000000
_cell_angle_gamma 90.000000
_cell_volume 1715.899560
_symmetry_space_group_name_H-M "I 21 21 21"
_symmetry_group_IT_number 24
_symmetry_cell_setting 'orthorhombic'
loop_
_space_group_symop_operation_xyz
x,y,z
-x,1/2-y,z
x,-y,1/2-z
1/2-x,y,-z
1/2+x,1/2+y,1/2+z
1/2-x,-y,1/2+z
1/2+x,1/2-y,-z
-x,1/2+y,1/2-z
loop_
_atom_site_type_symbol
_atom_site_label
_atom_site_fract_x
_atom_site_fract_y
_atom_site_fract_z
Si Si1 0.609783 0.015868 0.471069
Si Si2 0.716014 0.368018 0.803261
Si Si3 0.250000 0.268056 0.000000
Si Si4 0.542136 0.401584 0.162289
Si Si5 0.278580 0.612677 0.835404
O O1 0.671764 0.117010 0.397651
O O2 0.635353 0.067055 0.583332
O O3 0.669875 0.874195 0.452681
O O4 0.495973 0.978718 0.438631
O O5 0.671128 0.500000 0.750000
O O6 0.836703 0.393897 0.823839
O O7 0.701262 0.249656 0.722813
O O8 0.688303 0.315918 0.915741
O O9 0.500000 0.250000 0.169904
O O10 0.500604 0.500000 0.250000
O O11 0.270313 0.500000 0.750000
#
# Coordination Sequence:
#
# PCOD9332855 Si02
#       5
#     8   8   4   8   8
#     4  10  19  30  59  83 114 152 210 242 281 364
#     4  11  22  34  56  87 119 152 188 257 315 352
#     4  10  18  34  52  82 108 154 194 238 290 360
#     4  11  20  33  55  89 123 150 194 255 317 356
#     4  10  17  34  55  80 112 154 208 235 283 367
#
# _framework density 20.980250000000002
#
# number of rings (size 3 to 8) (size 9 to 14) (size 15 to 20)
#    0.000    1.778    6.667    2.000    0.000    1.778 
#    0.000    0.000    0.000    1.333    0.000    0.000 
#    0.000    0.000    0.000    0.000    0.000    0.000 
#
# Total GULP energy -100295.722303 kJ/mol
# GULP energy per Si atom -5571.984572 kJ/mol
# Density = 2.093250 g / cm^3
# Si number density = 20.980250 Si / 1000 Ang^3
#
#
#
# Elastic Constant Matrix: (Units=GPa)
#
#
# Indices 1 2 3 4 5 6 
#
# 1 27.8804 -7.4762 2.0575 0.0000 0.0000 0.0000
# 2 -7.4762 110.4539 43.8091 0.0000 0.0000 0.0000
# 3 2.0575 43.8091 123.8713 0.0000 0.0000 0.0000
# 4 0.0000 0.0000 0.0000 21.8493 0.0000 0.0000
# 5 0.0000 0.0000 0.0000 0.0000 5.0646 0.0000
# 6 0.0000 0.0000 0.0000 0.0000 0.0000 -8.9760
#
#
#
# Elastic Compliance Matrix: (Units=1/GPa)
#
#
# Indices 1 2 3 4 5 6 
#
# 1 0.036849 0.003184 -0.001738 0.000000 0.000000 0.000000
# 2 0.003184 0.010806 -0.003875 0.000000 0.000000 0.000000
# 3 -0.001738 -0.003875 0.009472 0.000000 0.000000 0.000000
# 4 0.000000 0.000000 0.000000 0.045768 0.000000 0.000000
# 5 0.000000 0.000000 0.000000 0.000000 0.197450 0.000000
# 6 0.000000 0.000000 0.000000 0.000000 0.000000 -0.111408
#
#
# Mechanical properties :
#
#
# Convention : Reuss Voigt Hill
#
# Bulk Modulus (GPa) = 19.13169 37.66514 28.39842
# Shear Modulus (GPa) = 23.67229 18.50860 21.09045
#
# Velocity S-wave (km/s) = 3.36268 2.97339 3.17401
# Velocity P-wave (km/s) = 4.92093 5.45708 5.19592
#
# Compressibility (1/GPa) = 0.05226930
#
# Stress axis : x y z
#
# Youngs Moduli (GPa) = 27.13750 92.54309 105.57380
#
# Poissons Ratio (x) = -0.29461 0.18348
# Poissons Ratio (y) = -0.08639 0.40905
# Poissons Ratio (z) = 0.04716 0.35856
#
# Static dielectric constant tensor:
#      x y z
#    x 1.798370 0.000000 0.000000 
#    y 0.000000 1.771870 0.000000 
#    z 0.000000 0.000000 1.886750 
# 
# From -- ./inp_files/12182.got.cif
#   From: 2010.05.17/outbox.cif.g08.bks.cpg/sg24_7_cif.got.tgz:12182.got - 2010.06.04 00:33:39.
