data_PCOD9332734
_publ_section_title
;
Structure prediction by ZEFSAII (Michael W. Deem and Ramdas Pophale) SiO2 
 PCOD9332734
Probable space group: I 21 21 21
;
_chemical_formula_sum "Si O2"
_cell_formula_units_Z 60
_cell_length_a 24.912329
_cell_length_b 10.114143
_cell_length_c 13.651339
_cell_angle_alpha 90.000000
_cell_angle_beta 90.000000
_cell_angle_gamma 90.000000
_cell_volume 3439.684995
_symmetry_space_group_name_H-M "I 21 21 21"
_symmetry_group_IT_number 24
_symmetry_cell_setting 'orthorhombic'
loop_
_space_group_symop_operation_xyz
x,y,z
-x,1/2-y,z
x,-y,1/2-z
1/2-x,y,-z
1/2+x,1/2+y,1/2+z
1/2-x,-y,1/2+z
1/2+x,1/2-y,-z
-x,1/2+y,1/2-z
loop_
_atom_site_type_symbol
_atom_site_label
_atom_site_fract_x
_atom_site_fract_y
_atom_site_fract_z
Si Si1 0.436576 0.729113 0.982021
Si Si2 0.335298 0.353704 0.144140
Si Si3 0.378295 0.747766 0.558067
Si Si4 0.080613 0.990727 0.137293
Si Si5 0.213009 0.426233 0.146352
Si Si6 0.046567 0.468105 0.137976
Si Si7 0.750000 0.138201 0.500000
Si Si8 0.152565 0.329653 0.633814
O O1 0.500000 0.750000 0.004385
O O2 0.397914 0.726793 0.075338
O O3 0.432326 0.588468 0.928051
O O4 0.417907 0.844921 0.908450
O O5 0.270820 0.357280 0.136343
O O6 0.347603 0.295458 0.251307
O O7 0.350209 0.509557 0.136255
O O8 0.363449 0.281514 0.054161
O O9 0.386474 0.901640 0.576883
O O10 0.331932 0.680308 0.623423
O O11 0.430295 0.667132 0.595239
O O12 0.017769 0.030615 0.135103
O O13 0.098124 0.000000 0.250000
O O14 0.208927 0.500000 0.250000
O O15 0.212673 0.542489 0.065712
O O16 0.062755 0.500000 0.250000
O O17 0.791964 0.205950 0.575374
#
# Coordination Sequence:
#
# PCOD9332734 Si02
#       8
#     8   8   8   8   8   8   4   8
#     4  10  20  37  59  81 114 153 191 236 286 340
#     4  10  19  34  57  84 115 142 181 256 288 322
#     4  12  20  33  58  86 112 148 190 231 293 345
#     4  10  23  38  52  79 124 153 178 233 294 347
#     4  11  18  30  52  88 113 138 184 241 288 328
#     4  10  19  35  57  84 108 146 197 240 281 337
#     4  10  16  30  54  84 110 140 180 238 278 328
#     4  10  18  35  57  84 114 141 189 237 295 321
#
# _framework density 17.443458
#
# number of rings (size 3 to 8) (size 9 to 14) (size 15 to 20)
#    0.000    1.600    6.667    1.600    0.000    3.200 
#    0.000    2.000    2.933    0.000    0.000    0.000 
#    0.000    0.000    0.000    0.000    0.000    0.000 
#
# Total GULP energy -167326.422764 kJ/mol
# GULP energy per Si atom -5577.547425 kJ/mol
# Density = 1.740376 g / cm^3
# Si number density = 17.443458 Si / 1000 Ang^3
#
#
#
# Elastic Constant Matrix: (Units=GPa)
#
#
# Indices 1 2 3 4 5 6 
#
# 1 30.1990 0.4238 19.6668 0.0000 0.0000 0.0000
# 2 0.4238 39.2683 5.2440 0.0000 0.0000 0.0000
# 3 19.6668 5.2440 122.6079 0.0000 0.0000 0.0000
# 4 0.0000 0.0000 0.0000 19.7508 0.0000 0.0000
# 5 0.0000 0.0000 0.0000 0.0000 25.9216 0.0000
# 6 0.0000 0.0000 0.0000 0.0000 0.0000 18.6957
#
#
#
# Elastic Compliance Matrix: (Units=1/GPa)
#
#
# Indices 1 2 3 4 5 6 
#
# 1 0.036982 0.000395 -0.005949 0.000000 0.000000 0.000000
# 2 0.000395 0.025616 -0.001159 0.000000 0.000000 0.000000
# 3 -0.005949 -0.001159 0.009160 0.000000 0.000000 0.000000
# 4 0.000000 0.000000 0.000000 0.050631 0.000000 0.000000
# 5 0.000000 0.000000 0.000000 0.000000 0.038578 0.000000
# 6 0.000000 0.000000 0.000000 0.000000 0.000000 0.053488
#
#
# Mechanical properties :
#
#
# Convention : Reuss Voigt Hill
#
# Bulk Modulus (GPa) = 17.14292 26.97160 22.05726
# Shear Modulus (GPa) = 20.21627 23.98965 22.10296
#
# Velocity S-wave (km/s) = 3.40804 3.71250 3.56353
# Velocity P-wave (km/s) = 5.03343 5.82003 5.44096
#
# Compressibility (1/GPa) = 0.05833313
#
# Stress axis : x y z
#
# Youngs Moduli (GPa) = 27.03991 39.03753 109.17151
#
# Poissons Ratio (x) = -0.01543 0.64946
# Poissons Ratio (y) = -0.01069 0.12653
# Poissons Ratio (z) = 0.16086 0.04525
#
# Static dielectric constant tensor:
#      x y z
#    x 1.611560 0.000000 0.000000 
#    y 0.000000 1.566220 0.000000 
#    z 0.000000 0.000000 1.618420 
# 
# From -- ./inp_files/22971.got.cif
#   From: 2010.05.17/outbox.cif.g08.bks.cpg/sg24_12_cif.got.tgz:22971.got - 2010.06.04 00:33:39.
