data_PCOD9332954
_publ_section_title
;
Structure prediction by ZEFSAII (Michael W. Deem and Ramdas Pophale) SiO2 
 PCOD9332954
Probable space group: I 21 21 21
;
_chemical_formula_sum "Si O2"
_cell_formula_units_Z 32
_cell_length_a 23.040026
_cell_length_b 10.610392
_cell_length_c 5.314587
_cell_angle_alpha 90.000000
_cell_angle_beta 90.000000
_cell_angle_gamma 90.000000
_cell_volume 1299.223642
_symmetry_space_group_name_H-M "I 21 21 21"
_symmetry_group_IT_number 24
_symmetry_cell_setting 'orthorhombic'
loop_
_space_group_symop_operation_xyz
x,y,z
-x,1/2-y,z
x,-y,1/2-z
1/2-x,y,-z
1/2+x,1/2+y,1/2+z
1/2-x,-y,1/2+z
1/2+x,1/2-y,-z
-x,1/2+y,1/2-z
loop_
_atom_site_type_symbol
_atom_site_label
_atom_site_fract_x
_atom_site_fract_y
_atom_site_fract_z
Si Si1 0.686875 0.716128 0.636075
Si Si2 0.000000 0.750000 0.045640
Si Si3 0.885037 0.000000 0.750000
Si Si4 0.370390 0.222478 0.349743
Si Si5 0.713245 0.000000 0.750000
Si Si6 0.039197 0.500000 0.250000
O O1 0.750000 0.696261 0.500000
O O2 0.643580 0.665115 0.421955
O O3 0.682260 0.867588 0.685472
O O4 0.666862 0.668724 0.914168
O O5 0.004127 0.626300 0.212519
O O6 0.060750 0.768199 0.899430
O O7 0.852774 0.869653 0.807278
O O8 0.924118 0.982387 0.503246
O O9 0.750000 0.023883 0.500000
#
# Coordination Sequence:
#
# PCOD9332954 Si02
#       6
#     8   4   4   8   4   4
#     4  11  21  33  50  78 114 159 200 246 295 353
#     4  10  24  42  62  94 120 162 198 250 304 356
#     4  10  20  35  56  85 118 165 194 243 300 354
#     4  11  21  35  56  79 118 153 201 246 297 358
#     4  10  18  30  48  74 114 156 204 240 286 358
#     4  10  22  39  62  87 128 155 202 243 300 364
#
# _framework density 24.630092999999999
#
# number of rings (size 3 to 8) (size 9 to 14) (size 15 to 20)
#    0.000    1.500    0.000    8.250    0.000   11.000 
#    0.000    0.000    0.000    0.000    0.000    3.500 
#    0.000    0.000    0.000    0.000    0.000    0.000 
#
# Total GULP energy -89293.509436 kJ/mol
# GULP energy per Si atom -5580.844340 kJ/mol
# Density = 2.457403 g / cm^3
# Si number density = 24.630093 Si / 1000 Ang^3
#
#
#
# Elastic Constant Matrix: (Units=GPa)
#
#
# Indices 1 2 3 4 5 6 
#
# 1 69.8914 6.3781 66.8279 0.0000 0.0000 0.0000
# 2 6.3781 40.4705 23.9421 0.0000 0.0000 0.0000
# 3 66.8279 23.9421 252.2201 0.0000 0.0000 0.0000
# 4 0.0000 0.0000 0.0000 16.7718 0.0000 0.0000
# 5 0.0000 0.0000 0.0000 0.0000 30.0886 0.0000
# 6 0.0000 0.0000 0.0000 0.0000 0.0000 23.1515
#
#
#
# Elastic Compliance Matrix: (Units=1/GPa)
#
#
# Indices 1 2 3 4 5 6 
#
# 1 0.019163 -0.000017 -0.005076 0.000000 0.000000 0.000000
# 2 -0.000017 0.026180 -0.002481 0.000000 0.000000 0.000000
# 3 -0.005076 -0.002481 0.005545 0.000000 0.000000 0.000000
# 4 0.000000 0.000000 0.000000 0.059624 0.000000 0.000000
# 5 0.000000 0.000000 0.000000 0.000000 0.033235 0.000000
# 6 0.000000 0.000000 0.000000 0.000000 0.000000 0.043194
#
#
# Mechanical properties :
#
#
# Convention : Reuss Voigt Hill
#
# Bulk Modulus (GPa) = 27.97957 61.87538 44.92748
# Shear Modulus (GPa) = 23.36442 31.69797 27.53119
#
# Velocity S-wave (km/s) = 3.08330 3.59132 3.34696
# Velocity P-wave (km/s) = 4.90512 6.50946 5.76339
#
# Compressibility (1/GPa) = 0.03574036
#
# Stress axis : x y z
#
# Youngs Moduli (GPa) = 52.18468 38.19777 180.33921
#
# Poissons Ratio (x) = 0.00066 0.91535
# Poissons Ratio (y) = 0.00090 0.44734
# Poissons Ratio (z) = 0.26487 0.09475
#
# Static dielectric constant tensor:
#      x y z
#    x 2.004610 0.000000 0.000000 
#    y 0.000000 2.016380 0.000000 
#    z 0.000000 0.000000 2.017960 
# 
# From -- ./inp_files/5309.got.cif
#   From: 2010.05.17/outbox.cif.g08.bks.cpg/sg24_3_cif.got.tgz:5309.got - 2010.06.04 00:33:39.
