data_PCOD9332586
_publ_section_title
;
Structure prediction by ZEFSAII (Michael W. Deem and Ramdas Pophale) SiO2 
 PCOD9332586
Probable space group: I 2 2 2
;
_chemical_formula_sum "Si O2"
_cell_formula_units_Z 34
_cell_length_a 6.486423
_cell_length_b 25.129691
_cell_length_c 8.939796
_cell_angle_alpha 90.000000
_cell_angle_beta 90.000000
_cell_angle_gamma 90.000000
_cell_volume 1457.202890
_symmetry_space_group_name_H-M "I 2 2 2"
_symmetry_group_IT_number 23
_symmetry_cell_setting 'orthorhombic'
loop_
_space_group_symop_operation_xyz
x,y,z
-x,-y,z
x,-y,-z
-x,y,-z
1/2+x,1/2+y,1/2+z
1/2-x,1/2-y,1/2+z
1/2+x,1/2-y,1/2-z
1/2-x,1/2+y,1/2-z
loop_
_atom_site_type_symbol
_atom_site_label
_atom_site_fract_x
_atom_site_fract_y
_atom_site_fract_z
Si Si1 0.331643 0.310290 0.113167
Si Si2 0.000000 0.645076 0.500000
Si Si3 0.000000 0.393912 0.000000
Si Si4 0.145307 0.449660 0.303009
Si Si5 0.000000 0.000000 0.000000
Si Si6 0.869972 0.205025 0.852471
O O1 0.195460 0.264893 0.193798
O O2 0.488314 0.329491 0.241953
O O3 0.192344 0.351561 0.019305
O O4 0.500000 0.285393 0.000000
O O5 0.107801 0.605614 0.614479
O O6 0.163617 0.676223 0.401438
O O7 0.072028 0.433360 0.134570
O O8 0.360289 0.467236 0.380752
O O9 0.000000 0.500000 0.338761
O O10 0.000000 0.214317 0.000000
#
# Coordination Sequence:
#
# PCOD9332586 Si02
#       6
#     8   4   4   8   2   8
#     4  12  26  46  70 112 165 212 268 325 400 487
#     4  12  25  46  78 112 154 208 265 328 412 490
#     4  12  29  48  79 118 164 215 269 342 424 492
#     4  12  27  52  79 114 156 201 275 352 407 496
#     4  12  26  52  88 114 156 212 286 344 432 492
#     4  12  26  43  72 109 159 217 261 322 393 488
#
# _framework density 23.332370000000001
#
# number of rings (size 3 to 8) (size 9 to 14) (size 15 to 20)
#    0.000    0.000    4.706    4.588    8.235    1.882 
#    0.000    1.176    0.000    0.000    0.000    0.000 
#    0.000    0.000    0.000    0.000    0.000    0.000 
#
# Total GULP energy -94642.143256 kJ/mol
# GULP energy per Si atom -5567.184897 kJ/mol
# Density = 2.327926 g / cm^3
# Si number density = 23.332370 Si / 1000 Ang^3
#
#
#
# Elastic Constant Matrix: (Units=GPa)
#
#
# Indices 1 2 3 4 5 6 
#
# 1 176.2144 81.8504 79.5449 0.0000 0.0000 0.0000
# 2 81.8504 115.8699 37.4315 -0.0001 0.0000 0.0000
# 3 79.5449 37.4315 150.6132 -0.0006 0.0002 0.0000
# 4 0.0000 -0.0001 -0.0006 35.7875 0.0000 -0.0001
# 5 0.0000 0.0000 0.0002 0.0000 51.2934 0.0000
# 6 0.0000 0.0000 0.0000 -0.0001 0.0000 24.3477
#
#
#
# Elastic Compliance Matrix: (Units=1/GPa)
#
#
# Indices 1 2 3 4 5 6 
#
# 1 0.010200 -0.005942 -0.003910 0.000000 0.000000 0.000000
# 2 -0.005942 0.012845 -0.000054 0.000000 0.000000 0.000000
# 3 -0.003910 -0.000054 0.008718 0.000000 0.000000 0.000000
# 4 0.000000 0.000000 0.000000 0.027943 0.000000 0.000000
# 5 0.000000 0.000000 0.000000 0.000000 0.019496 0.000000
# 6 0.000000 0.000000 0.000000 0.000000 0.000000 0.041072
#
#
# Mechanical properties :
#
#
# Convention : Reuss Voigt Hill
#
# Bulk Modulus (GPa) = 83.67859 93.37234 88.52547
# Shear Modulus (GPa) = 34.70521 38.54375 36.62448
#
# Velocity S-wave (km/s) = 3.86090 4.06882 3.96622
# Velocity P-wave (km/s) = 7.47108 7.88536 7.68102
#
# Compressibility (1/GPa) = 0.01195049
#
# Stress axis : x y z
#
# Youngs Moduli (GPa) = 98.03763 77.84884 114.70281
#
# Poissons Ratio (x) = 0.46259 0.44853
# Poissons Ratio (y) = 0.58256 0.00621
# Poissons Ratio (z) = 0.38336 0.00421
#
# Static dielectric constant tensor:
#      x y z
#    x 4.088770 0.000010 0.000020 
#    y 0.000010 2.112600 0.000000 
#    z 0.000020 0.000000 2.018680 
# 
# From -- ./inp_files/5811.got.cif
#   From: 2010.05.17/outbox.cif.g08.bks.cpg/sg23_3_cif.got.tgz:5811.got - 2010.06.04 12:02:01.
