data_PCOD9332007
_publ_section_title
;
Structure prediction by ZEFSAII (Michael W. Deem and Ramdas Pophale) SiO2 
 PCOD9332007
Probable space group: I 2 2 2
;
_chemical_formula_sum "Si O2"
_cell_formula_units_Z 44
_cell_length_a 14.512138
_cell_length_b 16.374102
_cell_length_c 8.446703
_cell_angle_alpha 90.000000
_cell_angle_beta 90.000000
_cell_angle_gamma 90.000000
_cell_volume 2007.132832
_symmetry_space_group_name_H-M "I 2 2 2"
_symmetry_group_IT_number 23
_symmetry_cell_setting 'orthorhombic'
loop_
_space_group_symop_operation_xyz
x,y,z
-x,-y,z
x,-y,-z
-x,y,-z
1/2+x,1/2+y,1/2+z
1/2-x,1/2-y,1/2+z
1/2+x,1/2-y,1/2-z
1/2-x,1/2+y,1/2-z
loop_
_atom_site_type_symbol
_atom_site_label
_atom_site_fract_x
_atom_site_fract_y
_atom_site_fract_z
Si Si1 0.000000 0.699854 0.500000
Si Si2 0.000000 0.709420 0.000000
Si Si3 0.037134 0.413363 0.749517
Si Si4 0.311994 0.500000 0.000000
Si Si5 0.155812 0.816788 0.458899
Si Si6 0.175006 0.772600 0.823190
Si Si7 0.737744 0.053604 0.848149
O O1 0.967457 0.636942 0.363322
O O2 0.070504 0.759820 0.408678
O O3 0.941738 0.647246 0.891641
O O4 0.076031 0.758506 0.902719
O O5 0.128942 0.430899 0.653142
O O6 0.000000 0.500000 0.803512
O O7 0.362863 0.413675 0.035036
O O8 0.260677 0.480404 0.830683
O O9 0.168718 0.783128 0.635962
O O10 0.249645 0.796237 0.366604
O O11 0.214638 0.859548 0.875911
O O12 0.763464 0.000000 0.000000
#
# Coordination Sequence:
#
# PCOD9332007 Si02
#       7
#     4   4   8   4   8   8   8
#     4  12  23  45  68 100 134 186 230 285 351 420
#     4  12  25  44  69  98 144 186 232 287 348 419
#     4  12  26  41  65 106 143 179 228 290 355 420
#     4  10  26  43  69 106 136 184 236 291 354 411
#     4  11  25  44  70  98 141 180 237 290 352 418
#     4  11  25  45  68 102 135 186 234 287 351 422
#     4  11  25  46  72 103 140 184 232 292 354 416
#
# _framework density 21.921818999999999
#
# number of rings (size 3 to 8) (size 9 to 14) (size 15 to 20)
#    0.000    0.727    3.636    3.818    7.636    0.364 
#    0.000    0.455    0.000    0.000    0.000    0.000 
#    0.000    0.000    0.000    0.000    0.000    0.000 
#
# Total GULP energy -122772.703012 kJ/mol
# GULP energy per Si atom -5580.577410 kJ/mol
# Density = 2.187192 g / cm^3
# Si number density = 21.921819 Si / 1000 Ang^3
#
#
#
# Elastic Constant Matrix: (Units=GPa)
#
#
# Indices 1 2 3 4 5 6 
#
# 1 61.9348 28.9679 -1.0995 0.0000 0.0000 0.0000
# 2 28.9679 139.7420 38.0033 0.0000 0.0000 0.0000
# 3 -1.0995 38.0033 72.4216 0.0000 0.0000 0.0000
# 4 0.0000 0.0000 0.0000 19.4402 0.0000 0.0000
# 5 0.0000 0.0000 0.0000 0.0000 21.2431 0.0000
# 6 0.0000 0.0000 0.0000 0.0000 0.0000 45.8522
#
#
#
# Elastic Compliance Matrix: (Units=1/GPa)
#
#
# Indices 1 2 3 4 5 6 
#
# 1 0.018304 -0.004514 0.002647 0.000000 0.000000 0.000000
# 2 -0.004514 0.009461 -0.005033 0.000000 0.000000 0.000000
# 3 0.002647 -0.005033 0.016489 0.000000 0.000000 0.000000
# 4 0.000000 0.000000 0.000000 0.051440 0.000000 0.000000
# 5 0.000000 0.000000 0.000000 0.000000 0.047074 0.000000
# 6 0.000000 0.000000 0.000000 0.000000 0.000000 0.021809
#
#
# Mechanical properties :
#
#
# Convention : Reuss Voigt Hill
#
# Bulk Modulus (GPa) = 32.83715 45.09353 38.96534
# Shear Modulus (GPa) = 26.52109 31.18888 28.85499
#
# Velocity S-wave (km/s) = 3.48200 3.77600 3.63198
# Velocity P-wave (km/s) = 5.58368 6.29490 5.94993
#
# Compressibility (1/GPa) = 0.03045331
#
# Stress axis : x y z
#
# Youngs Moduli (GPa) = 54.63178 105.70205 60.64550
#
# Poissons Ratio (x) = 0.47716 -0.16051
# Poissons Ratio (y) = 0.24662 0.30523
# Poissons Ratio (z) = -0.14460 0.53200
#
# Static dielectric constant tensor:
#      x y z
#    x 1.857720 0.000000 0.000000 
#    y 0.000000 1.801210 0.000000 
#    z 0.000000 0.000000 1.758400 
# 
# From -- ./inp_files/11013.got.cif
#   From: 2010.05.17/outbox.cif.g08.bks.cpg/sg23_6_cif.got.tgz:11013.got - 2010.06.04 12:02:01.
