data_PCOD9332168
_publ_section_title
;
Structure prediction by ZEFSAII (Michael W. Deem and Ramdas Pophale) SiO2 
 PCOD9332168
Probable space group: I 2 2 2
;
_chemical_formula_sum "Si O2"
_cell_formula_units_Z 56
_cell_length_a 13.986936
_cell_length_b 9.455516
_cell_length_c 20.520872
_cell_angle_alpha 90.000000
_cell_angle_beta 90.000000
_cell_angle_gamma 90.000000
_cell_volume 2713.961191
_symmetry_space_group_name_H-M "I 2 2 2"
_symmetry_group_IT_number 23
_symmetry_cell_setting 'orthorhombic'
loop_
_space_group_symop_operation_xyz
x,y,z
-x,-y,z
x,-y,-z
-x,y,-z
1/2+x,1/2+y,1/2+z
1/2-x,1/2-y,1/2+z
1/2+x,1/2-y,1/2-z
1/2-x,1/2+y,1/2-z
loop_
_atom_site_type_symbol
_atom_site_label
_atom_site_fract_x
_atom_site_fract_y
_atom_site_fract_z
Si Si1 0.173418 0.013977 0.638487
Si Si2 0.780088 0.500000 0.000000
Si Si3 0.154066 0.467552 0.235246
Si Si4 0.500000 0.000000 0.632113
Si Si5 0.380167 0.835911 0.847256
Si Si6 0.588610 0.244621 0.542529
Si Si7 0.095095 0.721968 0.644615
Si Si8 0.743500 0.057940 0.072268
O O1 0.247420 0.004549 0.698658
O O2 0.139444 0.173393 0.641729
O O3 0.222007 0.993515 0.567526
O O4 0.096333 0.890335 0.648227
O O5 0.843204 0.355830 0.998038
O O6 0.080310 0.434911 0.178288
O O7 0.124423 0.610392 0.273009
O O8 0.143273 0.346714 0.290452
O O9 0.454303 0.873644 0.590786
O O10 0.491799 0.846999 0.866431
O O11 0.298593 0.930413 0.882991
O O12 0.500000 0.302444 0.500000
O O13 0.653263 0.364196 0.577758
O O14 0.165301 0.678132 0.586309
O O15 0.740830 0.000000 0.000000
#
# Coordination Sequence:
#
# PCOD9332168 Si02
#       8
#     8   4   8   4   8   8   8   8
#     4  12  24  41  69 100 137 179 231 301 348 417
#     4  12  21  40  63 104 136 176 230 281 347 422
#     4  11  21  42  67  96 135 185 225 283 360 426
#     4  12  19  38  70 100 131 182 232 282 354 418
#     4  11  25  43  67 101 139 181 236 289 359 421
#     4  12  22  40  70 104 138 181 232 285 349 428
#     4  11  23  44  68  98 136 180 244 288 346 430
#     4  11  24  44  66  95 139 186 230 282 350 421
#
# _framework density 20.634045
#
# number of rings (size 3 to 8) (size 9 to 14) (size 15 to 20)
#    0.000    0.571    5.714    3.429    0.000    2.571 
#    0.000    0.714    0.000    0.000    0.000    0.000 
#    0.000    0.000    0.000    0.000    0.000    0.000 
#
# Total GULP energy -156174.857650 kJ/mol
# GULP energy per Si atom -5577.673487 kJ/mol
# Density = 2.058708 g / cm^3
# Si number density = 20.634045 Si / 1000 Ang^3
#
#
#
# Elastic Constant Matrix: (Units=GPa)
#
#
# Indices 1 2 3 4 5 6 
#
# 1 121.6581 60.8624 41.0425 0.0000 0.0000 0.0000
# 2 60.8624 160.2503 36.6468 0.0000 0.0000 0.0000
# 3 41.0425 36.6468 80.1689 0.0000 0.0000 0.0000
# 4 0.0000 0.0000 0.0000 -4.5749 0.0000 0.0000
# 5 0.0000 0.0000 0.0000 0.0000 17.7079 0.0000
# 6 0.0000 0.0000 0.0000 0.0000 0.0000 32.9972
#
#
#
# Elastic Compliance Matrix: (Units=1/GPa)
#
#
# Indices 1 2 3 4 5 6 
#
# 1 0.011326 -0.003323 -0.004279 0.000000 0.000000 0.000000
# 2 -0.003323 0.007944 -0.001930 0.000000 0.000000 0.000000
# 3 -0.004279 -0.001930 0.015547 0.000000 0.000000 0.000000
# 4 0.000000 0.000000 0.000000 -0.218584 0.000000 0.000000
# 5 0.000000 0.000000 0.000000 0.000000 0.056472 0.000000
# 6 0.000000 0.000000 0.000000 0.000000 0.000000 0.030306
#
#
# Mechanical properties :
#
#
# Convention : Reuss Voigt Hill
#
# Bulk Modulus (GPa) = 63.48517 71.02007 67.25262
# Shear Modulus (GPa) = -68.79956 24.12775 -22.33590
#
# Velocity S-wave (km/s) = -5.78058 3.42324 -3.29367
# Velocity P-wave (km/s) = 3.70399 7.07943 4.26608
#
# Compressibility (1/GPa) = 0.01575171
#
# Stress axis : x y z
#
# Youngs Moduli (GPa) = 88.29437 125.88722 64.32228
#
# Poissons Ratio (x) = 0.41831 0.27525
# Poissons Ratio (y) = 0.29339 0.12414
# Poissons Ratio (z) = 0.37784 0.24297
#
# Static dielectric constant tensor:
#      x y z
#    x 1.809740 0.000000 0.000000 
#    y 0.000000 1.763970 0.000000 
#    z 0.000000 0.000000 1.404380 
# 
# From -- ./inp_files/27017.got.cif
#   From: 2010.05.17/outbox.cif.g08.bks.cpg/sg23_14_cif.got.tgz:27017.got - 2010.06.04 12:02:01.
