data_PCOD9332079
_publ_section_title
;
Structure prediction by ZEFSAII (Michael W. Deem and Ramdas Pophale) SiO2 
 PCOD9332079
Probable space group: I 2 2 2
;
_chemical_formula_sum "Si O2"
_cell_formula_units_Z 48
_cell_length_a 21.904521
_cell_length_b 10.528696
_cell_length_c 9.587881
_cell_angle_alpha 90.000000
_cell_angle_beta 90.000000
_cell_angle_gamma 90.000000
_cell_volume 2211.215052
_symmetry_space_group_name_H-M "I 2 2 2"
_symmetry_group_IT_number 23
_symmetry_cell_setting 'orthorhombic'
loop_
_space_group_symop_operation_xyz
x,y,z
-x,-y,z
x,-y,-z
-x,y,-z
1/2+x,1/2+y,1/2+z
1/2-x,1/2-y,1/2+z
1/2+x,1/2-y,1/2-z
1/2-x,1/2+y,1/2-z
loop_
_atom_site_type_symbol
_atom_site_label
_atom_site_fract_x
_atom_site_fract_y
_atom_site_fract_z
Si Si1 0.561576 0.160234 0.412524
Si Si2 0.011075 0.348282 0.656397
Si Si3 0.645810 0.367080 0.561165
Si Si4 0.149055 0.266173 0.678217
Si Si5 0.319853 0.009883 0.656907
Si Si6 0.212941 0.365212 0.434675
O O1 0.500000 0.130170 0.500000
O O2 0.534017 0.213229 0.268446
O O3 0.603077 0.257691 0.499042
O O4 0.609102 0.050013 0.367501
O O5 0.080922 0.318537 0.682208
O O6 0.000000 0.500000 0.665597
O O7 0.000000 0.306162 0.500000
O O8 0.624861 0.500000 0.500000
O O9 0.647473 0.359583 0.728829
O O10 0.716824 0.349349 0.522120
O O11 0.186099 0.372698 0.768718
O O12 0.174220 0.263148 0.521458
O O13 0.295050 0.113828 0.768664
O O14 0.293465 0.000000 0.500000
O O15 0.190444 0.500000 0.500000
#
# Coordination Sequence:
#
# PCOD9332079 Si02
#       6
#     8   8   8   8   8   8
#     4  12  23  38  62  95 130 165 218 269 326 397
#     4  11  22  36  62 100 135 159 201 273 353 410
#     4  11  25  43  63  90 128 179 233 267 316 397
#     4  11  21  39  62  94 129 167 209 266 339 404
#     4  11  20  36  65 100 126 157 207 273 343 400
#     4   9  23  41  63  92 130 167 214 274 336 396
#
# _framework density 21.707522000000001
#
# number of rings (size 3 to 8) (size 9 to 14) (size 15 to 20)
#    0.000    1.167    5.000    1.000    7.000    0.333 
#    0.000    0.000    3.667    1.000    0.000    0.000 
#    0.000    0.000    0.000    0.000    0.000    0.000 
#
# Total GULP energy -133928.260932 kJ/mol
# GULP energy per Si atom -5580.344205 kJ/mol
# Density = 2.165811 g / cm^3
# Si number density = 21.707522 Si / 1000 Ang^3
#
#
#
# Elastic Constant Matrix: (Units=GPa)
#
#
# Indices 1 2 3 4 5 6 
#
# 1 70.0031 12.6142 22.8714 0.0000 0.0000 0.0000
# 2 12.6142 50.8600 25.4953 0.0000 0.0000 0.0000
# 3 22.8714 25.4953 172.3284 0.0000 0.0000 0.0000
# 4 0.0000 0.0000 0.0000 27.6070 0.0000 0.0000
# 5 0.0000 0.0000 0.0000 0.0000 25.9564 0.0000
# 6 0.0000 0.0000 0.0000 0.0000 0.0000 13.9495
#
#
#
# Elastic Compliance Matrix: (Units=1/GPa)
#
#
# Indices 1 2 3 4 5 6 
#
# 1 0.015347 -0.003008 -0.001592 0.000000 0.000000 0.000000
# 2 -0.003008 0.021827 -0.002830 0.000000 0.000000 0.000000
# 3 -0.001592 -0.002830 0.006433 0.000000 0.000000 0.000000
# 4 0.000000 0.000000 0.000000 0.036223 0.000000 0.000000
# 5 0.000000 0.000000 0.000000 0.000000 0.038526 0.000000
# 6 0.000000 0.000000 0.000000 0.000000 0.000000 0.071687
#
#
# Mechanical properties :
#
#
# Convention : Reuss Voigt Hill
#
# Bulk Modulus (GPa) = 34.78699 46.12813 40.45756
# Shear Modulus (GPa) = 23.31167 28.98330 26.14748
#
# Velocity S-wave (km/s) = 3.28059 3.65797 3.47441
# Velocity P-wave (km/s) = 5.51451 6.25595 5.89690
#
# Compressibility (1/GPa) = 0.02874638
#
# Stress axis : x y z
#
# Youngs Moduli (GPa) = 65.15825 45.81579 155.45320
#
# Poissons Ratio (x) = 0.13783 0.24745
# Poissons Ratio (y) = 0.19602 0.43991
# Poissons Ratio (z) = 0.10372 0.12965
#
# Static dielectric constant tensor:
#      x y z
#    x 1.791440 0.000000 0.000000 
#    y 0.000000 1.838600 0.000000 
#    z 0.000000 0.000000 1.873230 
# 
# From -- ./inp_files/12570.got.cif
#   From: 2010.05.17/outbox.cif.g08.bks.cpg/sg23_7_cif.got.tgz:12570.got - 2010.06.04 12:02:01.
