data_PCOD9332612
_publ_section_title
;
Structure prediction by ZEFSAII (Michael W. Deem and Ramdas Pophale) SiO2 
 PCOD9332612
Probable space group: I 2 2 2
;
_chemical_formula_sum "Si O2"
_cell_formula_units_Z 56
_cell_length_a 14.264971
_cell_length_b 7.418417
_cell_length_c 30.635396
_cell_angle_alpha 90.000000
_cell_angle_beta 90.000000
_cell_angle_gamma 90.000000
_cell_volume 3241.944932
_symmetry_space_group_name_H-M "I 2 2 2"
_symmetry_group_IT_number 23
_symmetry_cell_setting 'orthorhombic'
loop_
_space_group_symop_operation_xyz
x,y,z
-x,-y,z
x,-y,-z
-x,y,-z
1/2+x,1/2+y,1/2+z
1/2-x,1/2-y,1/2+z
1/2+x,1/2-y,1/2-z
1/2-x,1/2+y,1/2-z
loop_
_atom_site_type_symbol
_atom_site_label
_atom_site_fract_x
_atom_site_fract_y
_atom_site_fract_z
Si Si1 0.104811 0.716003 0.770177
Si Si2 0.391040 0.720972 0.904599
Si Si3 0.287845 0.715574 0.818478
Si Si4 0.608960 0.279028 0.095401
Si Si5 0.712155 0.284425 0.181522
Si Si6 0.113788 0.210158 0.500000
Si Si7 0.895190 0.283996 0.229823
O O1 0.187142 0.785457 0.801902
O O2 0.139589 0.750657 0.720898
O O3 0.101909 0.500000 0.775467
O O4 0.000000 0.785844 0.777388
O O5 0.328254 0.782766 0.864229
O O6 0.500000 0.772437 0.898131
O O7 0.390227 0.500000 0.905360
O O8 0.358467 0.783941 0.952651
O O9 0.279298 0.500000 0.822684
O O10 0.360411 0.749342 0.779102
O O11 0.671746 0.217234 0.135771
O O12 0.641533 0.216059 0.047349
O O13 0.812858 0.214542 0.198098
O O14 0.000000 0.215859 0.500000
O O15 0.141579 0.000000 0.500000
#
# Coordination Sequence:
#
# PCOD9332612 Si02
#       7
#     8   8   8   8   8   8   8
#     4   9  17  27  36  49  72  97 117 141 175 209
#     4   8  12  18  30  49  70  88 108 138 173 204
#     4   9  16  25  38  54  69  90 121 148 169 200
#     4   8  12  18  30  49  70  88 108 138 173 204
#     4   9  16  25  38  54  69  90 121 148 169 200
#     4   7  10  16  26  44  70  90 102 129 175 211
#     4   9  17  27  36  49  72  97 117 141 175 209
#
# _framework density 17.273581
#
# number of rings (size 3 to 8) (size 9 to 14) (size 15 to 20)
#    0.000    3.571    0.000    2.571    0.000    1.714 
#    0.000    0.000    0.000    0.000    0.000    2.000 
#    0.000   13.714    0.000    0.000    0.000   25.286 
#
# Total GULP energy -155924.492654 kJ/mol
# GULP energy per Si atom -5568.731880 kJ/mol
# Density = 1.723427 g / cm^3
# Si number density = 17.273581 Si / 1000 Ang^3
#
#
#
# Elastic Constant Matrix: (Units=GPa)
#
#
# Indices 1 2 3 4 5 6 
#
# 1 117.6461 5.9492 88.6388 0.0000 0.0000 0.0000
# 2 5.9492 56.5578 8.2979 0.0000 0.0000 0.0000
# 3 88.6388 8.2979 186.5193 0.0000 0.0000 0.0000
# 4 0.0000 0.0000 0.0000 6.5621 0.0000 0.0000
# 5 0.0000 0.0000 0.0000 0.0000 23.3949 0.0000
# 6 0.0000 0.0000 0.0000 0.0000 0.0000 1.6269
#
#
#
# Elastic Compliance Matrix: (Units=1/GPa)
#
#
# Indices 1 2 3 4 5 6 
#
# 1 0.013254 -0.000473 -0.006277 0.000000 0.000000 0.000000
# 2 -0.000473 0.017814 -0.000568 0.000000 0.000000 0.000000
# 3 -0.006277 -0.000568 0.008370 0.000000 0.000000 0.000000
# 4 0.000000 0.000000 0.000000 0.152390 0.000000 0.000000
# 5 0.000000 0.000000 0.000000 0.000000 0.042744 0.000000
# 6 0.000000 0.000000 0.000000 0.000000 0.000000 0.614657
#
#
# Mechanical properties :
#
#
# Convention : Reuss Voigt Hill
#
# Bulk Modulus (GPa) = 40.32079 62.94390 51.63235
# Shear Modulus (GPa) = 5.73307 23.50594 14.61951
#
# Velocity S-wave (km/s) = 1.82378 3.69291 2.91237
# Velocity P-wave (km/s) = 5.27523 7.39608 6.42378
#
# Compressibility (1/GPa) = 0.02480110
#
# Stress axis : x y z
#
# Youngs Moduli (GPa) = 75.45101 56.13535 119.47679
#
# Poissons Ratio (x) = 0.02656 0.75001
# Poissons Ratio (y) = 0.03570 0.06782
# Poissons Ratio (z) = 0.47364 0.03187
#
# Static dielectric constant tensor:
#      x y z
#    x 1.576660 0.000000 0.000000 
#    y 0.000000 1.693110 0.000000 
#    z 0.000000 0.000000 1.602950 
# 
# From -- ./inp_files/30581.got.cif
#   From: 2010.05.17/outbox.cif.g08.bks.cpg/sg23_16_cif.got.tgz:30581.got - 2010.06.04 12:02:01.
