data_PCOD9332151
_publ_section_title
;
Structure prediction by ZEFSAII (Michael W. Deem and Ramdas Pophale) SiO2 
 PCOD9332151
Probable space group: I 2 2 2
;
_chemical_formula_sum "Si O2"
_cell_formula_units_Z 56
_cell_length_a 9.366776
_cell_length_b 18.944652
_cell_length_c 15.065294
_cell_angle_alpha 90.000000
_cell_angle_beta 90.000000
_cell_angle_gamma 90.000000
_cell_volume 2673.341116
_symmetry_space_group_name_H-M "I 2 2 2"
_symmetry_group_IT_number 23
_symmetry_cell_setting 'orthorhombic'
loop_
_space_group_symop_operation_xyz
x,y,z
-x,-y,z
x,-y,-z
-x,y,-z
1/2+x,1/2+y,1/2+z
1/2-x,1/2-y,1/2+z
1/2+x,1/2-y,1/2-z
1/2-x,1/2+y,1/2-z
loop_
_atom_site_type_symbol
_atom_site_label
_atom_site_fract_x
_atom_site_fract_y
_atom_site_fract_z
Si Si1 0.567944 0.423107 0.593953
Si Si2 0.674347 0.171534 0.593993
Si Si3 0.094883 0.389756 0.415324
Si Si4 0.228877 0.674148 0.896511
Si Si5 0.534372 0.080338 0.286399
Si Si6 0.968444 0.229706 0.627945
Si Si7 0.986916 0.783737 0.168929
O O1 0.500000 0.500000 0.612135
O O2 0.500000 0.400785 0.500000
O O3 0.740307 0.417091 0.584414
O O4 0.508472 0.366713 0.663963
O O5 0.665726 0.151371 0.491239
O O6 0.583964 0.124622 0.660773
O O7 0.836374 0.176960 0.623617
O O8 0.607077 0.249264 0.606662
O O9 0.032027 0.412445 0.319809
O O10 0.080751 0.304151 0.413161
O O11 0.000000 0.413528 0.500000
O O12 0.181647 0.615696 0.824047
O O13 0.393024 0.692307 0.911416
O O14 0.158248 0.748314 0.865586
O O15 0.500000 0.000000 0.309123
O O16 0.005961 0.242155 0.730945
#
# Coordination Sequence:
#
# PCOD9332151 Si02
#       7
#     8   8   8   8   8   8   8
#     4  11  26  45  66  99 143 189 230 278 348 431
#     4  11  22  41  68 101 131 180 224 291 348 408
#     4  12  26  45  72 104 140 182 233 293 351 417
#     4  11  23  41  68 100 136 179 231 293 343 410
#     4  11  26  46  68  98 138 184 232 276 348 425
#     4  12  23  41  68 104 140 170 236 297 347 400
#     4  11  21  39  67  93 136 180 234 280 346 410
#
# _framework density 20.947571
#
# number of rings (size 3 to 8) (size 9 to 14) (size 15 to 20)
#    0.000    0.714    4.286    5.571    2.000    4.857 
#    0.000    0.714    0.000    1.714    0.000    0.000 
#    0.000    0.000    0.000    0.000    0.000    0.000 
#
# Total GULP energy -156391.123084 kJ/mol
# GULP energy per Si atom -5585.397253 kJ/mol
# Density = 2.089989 g / cm^3
# Si number density = 20.947571 Si / 1000 Ang^3
#
#
#
# Elastic Constant Matrix: (Units=GPa)
#
#
# Indices 1 2 3 4 5 6 
#
# 1 134.1747 58.3615 16.1953 0.0000 0.0000 0.0000
# 2 58.3615 110.0361 33.1999 0.0000 0.0000 0.0000
# 3 16.1953 33.1999 113.5630 0.0000 -0.0001 0.0000
# 4 0.0000 0.0000 0.0000 12.4882 0.0000 0.0000
# 5 0.0000 0.0000 -0.0001 0.0000 -36.8396 0.0000
# 6 0.0000 0.0000 0.0000 0.0000 0.0000 18.0311
#
#
#
# Elastic Compliance Matrix: (Units=1/GPa)
#
#
# Indices 1 2 3 4 5 6 
#
# 1 0.009690 -0.005179 0.000132 0.000000 0.000000 0.000000
# 2 -0.005179 0.012735 -0.002985 0.000000 0.000000 0.000000
# 3 0.000132 -0.002985 0.009659 0.000000 0.000000 0.000000
# 4 0.000000 0.000000 0.000000 0.080076 0.000000 0.000000
# 5 0.000000 0.000000 0.000000 0.000000 -0.027145 0.000000
# 6 0.000000 0.000000 0.000000 0.000000 0.000000 0.055460
#
#
# Mechanical properties :
#
#
# Convention : Reuss Voigt Hill
#
# Bulk Modulus (GPa) = 62.41607 63.69859 63.05733
# Shear Modulus (GPa) = 30.88731 15.40374 23.14552
#
# Velocity S-wave (km/s) = 3.84409 2.71467 3.32765
# Velocity P-wave (km/s) = 7.04015 6.34827 6.70314
#
# Compressibility (1/GPa) = 0.01602152
#
# Stress axis : x y z
#
# Youngs Moduli (GPa) = 103.20136 78.52119 103.52661
#
# Poissons Ratio (x) = 0.40668 -0.01369
# Poissons Ratio (y) = 0.53450 0.30898
# Poissons Ratio (z) = -0.01365 0.23435
#
# Static dielectric constant tensor:
#      x y z
#    x 1.793860 0.000000 0.000000 
#    y 0.000000 1.808000 0.000000 
#    z 0.000000 0.000000 1.786660 
# 
# From -- ./inp_files/20215.got.cif
#   From: 2010.05.17/outbox.cif.g08.bks.cpg/sg23_11_cif.got.tgz:20215.got - 2010.06.04 12:02:01.
