data_PCOD9332213
_publ_section_title
;
Structure prediction by ZEFSAII (Michael W. Deem and Ramdas Pophale) SiO2 
 PCOD9332213
Probable space group: I 2 2 2
;
_chemical_formula_sum "Si O2"
_cell_formula_units_Z 64
_cell_length_a 15.587718
_cell_length_b 17.921572
_cell_length_c 11.428614
_cell_angle_alpha 90.000000
_cell_angle_beta 90.000000
_cell_angle_gamma 90.000000
_cell_volume 3192.656583
_symmetry_space_group_name_H-M "I 2 2 2"
_symmetry_group_IT_number 23
_symmetry_cell_setting 'orthorhombic'
loop_
_space_group_symop_operation_xyz
x,y,z
-x,-y,z
x,-y,-z
-x,y,-z
1/2+x,1/2+y,1/2+z
1/2-x,1/2-y,1/2+z
1/2+x,1/2-y,1/2-z
1/2-x,1/2+y,1/2-z
loop_
_atom_site_type_symbol
_atom_site_label
_atom_site_fract_x
_atom_site_fract_y
_atom_site_fract_z
Si Si1 0.958848 0.649661 0.373215
Si Si2 0.731684 0.689628 0.623034
Si Si3 0.621081 0.689580 0.835785
Si Si4 0.377890 0.880638 0.717632
Si Si5 0.077079 0.960929 0.626027
Si Si6 0.758729 0.477337 0.816133
Si Si7 0.282966 0.076544 0.927899
Si Si8 0.716665 0.156310 0.495923
O O1 0.915569 0.727734 0.336731
O O2 0.882705 0.592039 0.399981
O O3 0.000000 0.662866 0.500000
O O4 0.028664 0.622743 0.277398
O O5 0.653139 0.668451 0.706445
O O6 0.817075 0.669110 0.697143
O O7 0.742907 0.642345 0.505245
O O8 0.716347 0.775981 0.594694
O O9 0.556321 0.626169 0.877662
O O10 0.701790 0.677818 0.922802
O O11 0.363294 0.849569 0.585927
O O12 0.335563 0.963611 0.708796
O O13 0.080768 0.000000 0.500000
O O14 0.172752 0.974732 0.670041
O O15 0.000000 0.000000 0.694562
O O16 0.743269 0.429382 0.699993
O O17 0.773758 0.421479 0.925077
O O18 0.273758 0.000000 0.000000
#
# Coordination Sequence:
#
# PCOD9332213 Si02
#       8
#     8   8   8   8   8   8   8   8
#     4  12  24  41  65 104 136 173 231 286 346 405
#     4  11  22  43  62  95 129 179 223 274 338 417
#     4  11  22  41  64  93 137 166 223 287 342 409
#     4  11  23  42  67  97 141 174 227 289 336 417
#     4  11  22  38  66 100 127 161 217 291 345 401
#     4  12  22  42  69 101 133 183 230 277 356 423
#     4  12  23  41  67  96 132 182 225 282 338 414
#     4  11  22  39  71  96 132 183 227 275 351 419
#
# _framework density 20.046001
#
# number of rings (size 3 to 8) (size 9 to 14) (size 15 to 20)
#    0.000    0.625    7.500    1.125    3.500    2.750 
#    0.000    2.500    0.000    7.125    0.000    0.000 
#    0.000    0.000    0.000    0.000    0.000    0.000 
#
# Total GULP energy -178520.068779 kJ/mol
# GULP energy per Si atom -5578.752149 kJ/mol
# Density = 2.000038 g / cm^3
# Si number density = 20.046001 Si / 1000 Ang^3
#
#
#
# Elastic Constant Matrix: (Units=GPa)
#
#
# Indices 1 2 3 4 5 6 
#
# 1 61.4489 31.8595 28.3837 0.0000 0.0000 0.0000
# 2 31.8595 100.0962 42.1992 0.0000 0.0000 0.0000
# 3 28.3837 42.1992 97.2840 0.0000 0.0000 0.0000
# 4 0.0000 0.0000 0.0000 39.9458 0.0000 0.0000
# 5 0.0000 0.0000 0.0000 0.0000 15.9035 0.0000
# 6 0.0000 0.0000 0.0000 0.0000 0.0000 29.8412
#
#
#
# Elastic Compliance Matrix: (Units=1/GPa)
#
#
# Indices 1 2 3 4 5 6 
#
# 1 0.020620 -0.004928 -0.003879 0.000000 0.000000 0.000000
# 2 -0.004928 0.013404 -0.004376 0.000000 0.000000 0.000000
# 3 -0.003879 -0.004376 0.013309 0.000000 0.000000 0.000000
# 4 0.000000 0.000000 0.000000 0.025034 0.000000 0.000000
# 5 0.000000 0.000000 0.000000 0.000000 0.062879 0.000000
# 6 0.000000 0.000000 0.000000 0.000000 0.000000 0.033511
#
#
# Mechanical properties :
#
#
# Convention : Reuss Voigt Hill
#
# Bulk Modulus (GPa) = 47.69330 51.52375 49.60852
# Shear Modulus (GPa) = 24.73869 27.56387 26.15128
#
# Velocity S-wave (km/s) = 3.51678 3.71216 3.61579
# Velocity P-wave (km/s) = 6.35090 6.64320 6.49869
#
# Compressibility (1/GPa) = 0.02096731
#
# Stress axis : x y z
#
# Youngs Moduli (GPa) = 48.49601 74.60462 75.13607
#
# Poissons Ratio (x) = 0.36766 0.29142
# Poissons Ratio (y) = 0.23899 0.32883
# Poissons Ratio (z) = 0.18809 0.32651
#
# Static dielectric constant tensor:
#      x y z
#    x 1.753950 0.000000 0.000000 
#    y 0.000000 1.780960 0.000000 
#    z 0.000000 0.000000 1.712430 
# 
# From -- ./inp_files/16958.got.cif
#   From: 2010.05.17/outbox.cif.g08.bks.cpg/sg23_9_cif.got.tgz:16958.got - 2010.06.04 12:02:01.
