data_PCOD9332481
_publ_section_title
;
Structure prediction by ZEFSAII (Michael W. Deem and Ramdas Pophale) SiO2 
 PCOD9332481
Probable space group: I 2 2 2
;
_chemical_formula_sum "Si O2"
_cell_formula_units_Z 38
_cell_length_a 26.042791
_cell_length_b 12.386731
_cell_length_c 4.898579
_cell_angle_alpha 90.000000
_cell_angle_beta 90.000000
_cell_angle_gamma 90.000000
_cell_volume 1580.208335
_symmetry_space_group_name_H-M "I 2 2 2"
_symmetry_group_IT_number 23
_symmetry_cell_setting 'orthorhombic'
loop_
_space_group_symop_operation_xyz
x,y,z
-x,-y,z
x,-y,-z
-x,y,-z
1/2+x,1/2+y,1/2+z
1/2-x,1/2-y,1/2+z
1/2+x,1/2-y,1/2-z
1/2-x,1/2+y,1/2-z
loop_
_atom_site_type_symbol
_atom_site_label
_atom_site_fract_x
_atom_site_fract_y
_atom_site_fract_z
Si Si1 0.000000 0.000000 0.000000
Si Si2 0.590987 0.361604 0.630234
Si Si3 0.402317 0.000000 0.000000
Si Si4 0.334837 0.500000 0.000000
Si Si5 0.669168 0.000000 0.500000
Si Si6 0.251495 0.324583 0.956354
Si Si7 0.440852 0.228716 0.909050
O O1 0.038250 0.927630 0.173763
O O2 0.580902 0.305774 0.334189
O O3 0.632528 0.445711 0.754672
O O4 0.593124 0.262458 0.834048
O O5 0.365453 0.967175 0.753107
O O6 0.433873 0.100665 0.876449
O O7 0.298356 0.404784 0.888024
O O8 0.706033 0.100230 0.429847
O O9 0.265678 0.239935 0.190175
O O10 0.500000 0.245743 0.000000
#
# Coordination Sequence:
#
# PCOD9332481 Si02
#       7
#     2   8   4   4   4   8   8
#     4  12  24  50  66 112 152 192 244 318 388 456
#     4  12  27  45  78 108 154 197 259 315 395 462
#     4  12  27  46  79 108 152 201 274 317 386 482
#     4  11  30  49  78 121 149 210 273 324 393 496
#     4  11  26  48  73 115 141 199 256 324 395 464
#     4  11  27  50  78 108 159 198 253 331 406 468
#     4  12  26  49  72 112 154 207 255 320 394 463
#
# _framework density 24.047461999999999
#
# number of rings (size 3 to 8) (size 9 to 14) (size 15 to 20)
#    0.000    0.421    2.105    4.105    8.842    6.737 
#    0.000    3.158    0.000    0.000    0.000    0.000 
#    0.000    0.000    0.000    0.000    0.000    0.000 
#
# Total GULP energy -106161.969246 kJ/mol
# GULP energy per Si atom -5587.472066 kJ/mol
# Density = 2.399273 g / cm^3
# Si number density = 24.047462 Si / 1000 Ang^3
#
#
#
# Elastic Constant Matrix: (Units=GPa)
#
#
# Indices 1 2 3 4 5 6 
#
# 1 102.0088 69.1325 36.8891 0.0000 0.0000 0.0000
# 2 69.1325 164.2859 40.2043 0.0000 0.0000 0.0000
# 3 36.8891 40.2043 118.7430 0.0000 0.0000 0.0000
# 4 0.0000 0.0000 0.0000 37.0263 0.0000 0.0000
# 5 0.0000 0.0000 0.0000 0.0000 35.3975 0.0000
# 6 0.0000 0.0000 0.0000 0.0000 0.0000 22.7231
#
#
#
# Elastic Compliance Matrix: (Units=1/GPa)
#
#
# Indices 1 2 3 4 5 6 
#
# 1 0.014439 -0.005428 -0.002648 0.000000 0.000000 0.000000
# 2 -0.005428 0.008677 -0.001252 0.000000 0.000000 0.000000
# 3 -0.002648 -0.001252 0.009668 0.000000 0.000000 0.000000
# 4 0.000000 0.000000 0.000000 0.027008 0.000000 0.000000
# 5 0.000000 0.000000 0.000000 0.000000 0.028251 0.000000
# 6 0.000000 0.000000 0.000000 0.000000 0.000000 0.044008
#
#
# Mechanical properties :
#
#
# Convention : Reuss Voigt Hill
#
# Bulk Modulus (GPa) = 70.77521 75.27662 73.02591
# Shear Modulus (GPa) = 32.17162 34.95018 33.56090
#
# Velocity S-wave (km/s) = 3.66162 3.81646 3.73984
# Velocity P-wave (km/s) = 6.88273 7.12684 7.00585
#
# Compressibility (1/GPa) = 0.01412924
#
# Stress axis : x y z
#
# Youngs Moduli (GPa) = 69.25518 115.24091 103.43445
#
# Poissons Ratio (x) = 0.62555 0.27388
# Poissons Ratio (y) = 0.37593 0.12947
# Poissons Ratio (z) = 0.18338 0.14425
#
# Static dielectric constant tensor:
#      x y z
#    x 1.942330 0.000000 0.000000 
#    y 0.000000 1.944360 0.000000 
#    z 0.000000 0.000000 1.956110 
# 
# From -- ./inp_files/4802.got.cif
#   From: 2010.05.17/outbox.cif.g08.bks.cpg/sg23_3_cif.got.tgz:4802.got - 2010.06.04 12:02:01.
