data_PCOD9332347
_publ_section_title
;
Structure prediction by ZEFSAII (Michael W. Deem and Ramdas Pophale) SiO2 
 PCOD9332347
Probable space group: I 2 2 2
;
_chemical_formula_sum "Si O2"
_cell_formula_units_Z 58
_cell_length_a 16.351765
_cell_length_b 14.553716
_cell_length_c 11.073852
_cell_angle_alpha 90.000000
_cell_angle_beta 90.000000
_cell_angle_gamma 90.000000
_cell_volume 2635.343604
_symmetry_space_group_name_H-M "I 2 2 2"
_symmetry_group_IT_number 23
_symmetry_cell_setting 'orthorhombic'
loop_
_space_group_symop_operation_xyz
x,y,z
-x,-y,z
x,-y,-z
-x,y,-z
1/2+x,1/2+y,1/2+z
1/2-x,1/2-y,1/2+z
1/2+x,1/2-y,1/2-z
1/2-x,1/2+y,1/2-z
loop_
_atom_site_type_symbol
_atom_site_label
_atom_site_fract_x
_atom_site_fract_y
_atom_site_fract_z
Si Si1 0.305625 0.404185 0.074081
Si Si2 0.140134 0.412818 0.656064
Si Si3 0.528143 0.899174 0.360258
Si Si4 0.485931 0.602034 0.857277
Si Si5 0.231493 0.218545 0.030393
Si Si6 0.903897 0.747878 0.234002
Si Si7 0.500000 0.000000 0.000000
Si Si8 0.720724 0.893857 0.824391
O O1 0.389883 0.375675 0.141285
O O2 0.266263 0.320109 0.999071
O O3 0.245447 0.412627 0.187064
O O4 0.315078 0.500000 0.000000
O O5 0.117033 0.394378 0.796948
O O6 0.195587 0.332142 0.603419
O O7 0.057059 0.432982 0.581021
O O8 0.188933 0.507499 0.636393
O O9 0.500000 0.896591 0.500000
O O10 0.477668 0.816351 0.306372
O O11 0.500000 0.000000 0.319821
O O12 0.500000 0.500000 0.807549
O O13 0.552958 0.667076 0.797950
O O14 0.500000 0.600783 0.000000
O O15 0.154252 0.226667 0.120528
O O16 0.215114 0.153717 0.914813
O O17 0.850198 0.682907 0.320429
#
# Coordination Sequence:
#
# PCOD9332347 Si02
#       8
#     8   8   8   8   8   8   2   8
#     4  11  25  44  69 105 143 194 247 295 362 437
#     4  12  23  43  71 106 141 184 238 299 370 429
#     4  11  24  43  70 103 138 182 233 298 366 433
#     4  11  23  44  72 104 136 189 247 303 350 431
#     4  11  26  44  69 108 143 195 232 305 371 444
#     4  11  25  44  69 105 143 187 242 302 370 436
#     4  12  20  40  70 104 134 178 232 298 360 408
#     4  11  24  43  71 105 146 188 236 308 370 441
#
# _framework density 22.008514999999999
#
# number of rings (size 3 to 8) (size 9 to 14) (size 15 to 20)
#    0.000    0.828    4.828    1.655    1.931    6.621 
#    2.483    0.000    0.000    0.828    0.000    0.000 
#    0.000    0.000    0.000    0.000    0.000    0.000 
#
# Total GULP energy -161852.291684 kJ/mol
# GULP energy per Si atom -5581.113506 kJ/mol
# Density = 2.195842 g / cm^3
# Si number density = 22.008515 Si / 1000 Ang^3
#
#
#
# Elastic Constant Matrix: (Units=GPa)
#
#
# Indices 1 2 3 4 5 6 
#
# 1 58.9802 50.6060 6.7595 0.0000 0.0000 0.0000
# 2 50.6060 126.5885 34.6061 0.0000 0.0000 0.0000
# 3 6.7595 34.6061 68.7512 0.0000 0.0000 0.0000
# 4 0.0000 0.0000 0.0000 14.3720 0.0000 0.0000
# 5 0.0000 0.0000 0.0000 0.0000 -42.4476 0.0000
# 6 0.0000 0.0000 0.0000 0.0000 0.0000 40.8087
#
#
#
# Elastic Compliance Matrix: (Units=1/GPa)
#
#
# Indices 1 2 3 4 5 6 
#
# 1 0.026382 -0.011407 0.003148 0.000000 0.000000 0.000000
# 2 -0.011407 0.014092 -0.005972 0.000000 0.000000 0.000000
# 3 0.003148 -0.005972 0.017242 0.000000 0.000000 0.000000
# 4 0.000000 0.000000 0.000000 0.069580 0.000000 0.000000
# 5 0.000000 0.000000 0.000000 0.000000 -0.023558 0.000000
# 6 0.000000 0.000000 0.000000 0.000000 0.000000 0.024505
#
#
# Mechanical properties :
#
#
# Convention : Reuss Voigt Hill
#
# Bulk Modulus (GPa) = 34.18384 48.69590 41.43987
# Shear Modulus (GPa) = 30.03827 13.36985 21.70406
#
# Velocity S-wave (km/s) = 3.69839 2.46740 3.14374
# Velocity P-wave (km/s) = 5.81406 5.50376 5.66104
#
# Compressibility (1/GPa) = 0.02925359
#
# Stress axis : x y z
#
# Youngs Moduli (GPa) = 37.90534 70.96046 57.99907
#
# Poissons Ratio (x) = 0.80945 -0.18258
# Poissons Ratio (y) = 0.43239 0.34636
# Poissons Ratio (z) = -0.11933 0.42377
#
# Static dielectric constant tensor:
#      x y z
#    x 1.837770 0.000000 0.000000 
#    y 0.000000 1.861180 0.000000 
#    z 0.000000 0.000000 1.978660 
# 
# From -- ./inp_files/17551.got.cif
#   From: 2010.05.17/outbox.cif.g08.bks.cpg/sg23_9_cif.got.tgz:17551.got - 2010.06.04 12:02:01.
