data_PCOD9332670
_publ_section_title
;
Structure prediction by ZEFSAII (Michael W. Deem and Ramdas Pophale) SiO2 
 PCOD9332670
Probable space group: I 21 21 21
;
_chemical_formula_sum "Si O2"
_cell_formula_units_Z 44
_cell_length_a 5.571456
_cell_length_b 24.734795
_cell_length_c 16.146488
_cell_angle_alpha 90.000000
_cell_angle_beta 90.000000
_cell_angle_gamma 90.000000
_cell_volume 2225.128491
_symmetry_space_group_name_H-M "I 21 21 21"
_symmetry_group_IT_number 24
_symmetry_cell_setting 'orthorhombic'
loop_
_space_group_symop_operation_xyz
x,y,z
-x,1/2-y,z
x,-y,1/2-z
1/2-x,y,-z
1/2+x,1/2+y,1/2+z
1/2-x,-y,1/2+z
1/2+x,1/2-y,-z
-x,1/2+y,1/2-z
loop_
_atom_site_type_symbol
_atom_site_label
_atom_site_fract_x
_atom_site_fract_y
_atom_site_fract_z
Si Si1 0.132688 0.199020 0.921417
Si Si2 0.014322 0.386678 0.804212
Si Si3 0.519083 0.840242 0.856722
Si Si4 0.500000 0.250000 0.787873
Si Si5 0.988762 0.313312 0.638518
Si Si6 0.013101 0.936451 0.263321
O O1 0.961901 0.157128 0.876149
O O2 0.299827 0.225278 0.849663
O O3 0.000000 0.250000 0.960222
O O4 0.250000 0.170510 0.000000
O O5 0.993501 0.351992 0.719429
O O6 0.755189 0.416245 0.810076
O O7 0.253102 0.422816 0.802931
O O8 0.543642 0.800082 0.775604
O O9 0.271806 0.823722 0.899864
O O10 0.496533 0.900682 0.821082
O O11 0.764074 0.829466 0.905109
O O12 0.000000 0.250000 0.660472
O O13 0.033412 0.000000 0.250000
#
# Coordination Sequence:
#
# PCOD9332670 Si02
#       6
#     8   8   8   4   8   8
#     4  12  23  31  44  64  92 126 161 191 234 279
#     4  10  20  31  45  60  84 108 142 191 235 264
#     4  10  18  24  43  55  76 102 133 174 224 253
#     4  12  18  32  40  60  84 120 144 188 226 262
#     4  10  14  24  37  55  72  99 126 159 206 255
#     4  10  19  32  47  62  77 103 143 193 245 276
#
# _framework density 19.774139999999999
#
# number of rings (size 3 to 8) (size 9 to 14) (size 15 to 20)
#    0.000    1.455    6.364    3.273    0.000    0.000 
#    0.000    0.000    0.000    0.000    0.000    0.000 
#    0.000    0.000    0.000    0.000    0.000    0.000 
#
# Total GULP energy -122556.344653 kJ/mol
# GULP energy per Si atom -5570.742939 kJ/mol
# Density = 1.972913 g / cm^3
# Si number density = 19.774140 Si / 1000 Ang^3
#
#
#
# Elastic Constant Matrix: (Units=GPa)
#
#
# Indices 1 2 3 4 5 6 
#
# 1 173.3385 31.0074 7.4476 0.0000 0.0000 0.0000
# 2 31.0074 124.4943 7.0700 0.0000 0.0000 0.0000
# 3 7.4476 7.0700 56.6837 0.0000 0.0000 0.0000
# 4 0.0000 0.0000 0.0000 -3.9924 0.0000 0.0000
# 5 0.0000 0.0000 0.0000 0.0000 -13.7643 0.0000
# 6 0.0000 0.0000 0.0000 0.0000 0.0000 30.9273
#
#
#
# Elastic Compliance Matrix: (Units=1/GPa)
#
#
# Indices 1 2 3 4 5 6 
#
# 1 0.006059 -0.001474 -0.000612 0.000000 0.000000 0.000000
# 2 -0.001474 0.008449 -0.000860 0.000000 0.000000 0.000000
# 3 -0.000612 -0.000860 0.017829 0.000000 0.000000 0.000000
# 4 0.000000 0.000000 0.000000 -0.250474 0.000000 0.000000
# 5 0.000000 0.000000 0.000000 0.000000 -0.072652 0.000000
# 6 0.000000 0.000000 0.000000 0.000000 0.000000 0.032334
#
#
# Mechanical properties :
#
#
# Convention : Reuss Voigt Hill
#
# Bulk Modulus (GPa) = 37.81591 49.50737 43.66164
# Shear Modulus (GPa) = -20.51306 23.23355 1.36024
#
# Velocity S-wave (km/s) = -3.22431 3.43147 0.83029
# Velocity P-wave (km/s) = 2.30301 6.38676 4.80076
#
# Compressibility (1/GPa) = 0.02644390
#
# Stress axis : x y z
#
# Youngs Moduli (GPa) = 165.04099 118.36347 56.08696
#
# Poissons Ratio (x) = 0.17451 0.03434
# Poissons Ratio (y) = 0.24333 0.04824
# Poissons Ratio (z) = 0.10104 0.10180
#
# Static dielectric constant tensor:
#      x y z
#    x 1.857300 0.000000 0.000000 
#    y 0.000000 1.655010 0.000000 
#    z 0.000000 0.000000 1.653640 
# 
# From -- ./inp_files/32108.got.cif
#   From: 2010.05.17/outbox.cif.g08.bks.cpg/sg24_17_cif.got.tgz:32108.got - 2010.06.04 00:33:39.
