data_PCOD9332699
_publ_section_title
;
Structure prediction by ZEFSAII (Michael W. Deem and Ramdas Pophale) SiO2 
 PCOD9332699
Probable space group: I 21 21 21
;
_chemical_formula_sum "Si O2"
_cell_formula_units_Z 48
_cell_length_a 12.655675
_cell_length_b 5.560114
_cell_length_c 24.805387
_cell_angle_alpha 90.000000
_cell_angle_beta 90.000000
_cell_angle_gamma 90.000000
_cell_volume 1745.480562
_symmetry_space_group_name_H-M "I 21 21 21"
_symmetry_group_IT_number 24
_symmetry_cell_setting 'orthorhombic'
loop_
_space_group_symop_operation_xyz
x,y,z
-x,1/2-y,z
x,-y,1/2-z
1/2-x,y,-z
1/2+x,1/2+y,1/2+z
1/2-x,-y,1/2+z
1/2+x,1/2-y,-z
-x,1/2+y,1/2-z
loop_
_atom_site_type_symbol
_atom_site_label
_atom_site_fract_x
_atom_site_fract_y
_atom_site_fract_z
Si Si1 0.786484 0.070013 0.920107
Si Si2 0.788344 0.424789 0.561317
Si Si3 0.886974 0.916830 0.335021
Si Si4 0.448297 0.494699 0.953197
Si Si5 0.332920 0.095397 0.670357
Si Si6 0.109359 0.756645 0.782722
O O1 0.842124 0.321252 0.928402
O O2 0.732871 0.084787 0.861130
O O3 0.847509 0.824043 0.928301
O O4 0.820888 0.039455 0.043082
O O5 0.750000 0.432591 0.500000
O O6 0.688742 0.417204 0.604494
O O7 0.889784 0.649940 0.312304
O O8 0.957481 0.973350 0.387943
O O9 0.889899 0.169491 0.306100
O O10 0.500000 0.750000 0.969668
O O11 0.500000 0.250000 0.975101
O O12 0.214479 0.142524 0.689850
O O13 0.130263 0.500000 0.750000
O O14 0.000000 0.750000 0.817009
O O15 0.081190 0.000000 0.750000
#
# Coordination Sequence:
#
# PCOD9332699 Si02
#       6
#     8   8   8   8   8   8
#     4   8  17  27  39  65  95 124 174 214 248 304
#     4  10  17  29  47  70  97 137 176 218 259 322
#     4   8  17  27  45  71  99 130 172 203 261 316
#     4  10  16  26  44  66 100 134 164 208 257 303
#     4  10  17  33  50  72 106 136 167 230 267 320
#     4  10  21  36  56  82 107 137 180 225 282 348
#
# _framework density 27.499590999999999
#
# number of rings (size 3 to 8) (size 9 to 14) (size 15 to 20)
#    1.000    1.667    0.000    3.500    0.000    0.000 
#    0.000    0.000    0.000    3.000    0.000    0.000 
#    0.000   37.333    0.000    0.000    0.000    0.000 
#
# Total GULP energy -133646.988158 kJ/mol
# GULP energy per Si atom -5568.624507 kJ/mol
# Density = 2.743700 g / cm^3
# Si number density = 27.499591 Si / 1000 Ang^3
#
#
#
# Elastic Constant Matrix: (Units=GPa)
#
#
# Indices 1 2 3 4 5 6 
#
# 1 109.4464 30.1575 20.1644 0.0000 0.0000 0.0000
# 2 30.1575 348.9690 30.1449 0.0000 0.0000 0.0000
# 3 20.1644 30.1449 65.4867 0.0000 0.0000 0.0000
# 4 0.0000 0.0000 0.0000 18.0282 0.0000 0.0000
# 5 0.0000 0.0000 0.0000 0.0000 15.3703 0.0000
# 6 0.0000 0.0000 0.0000 0.0000 0.0000 37.5840
#
#
#
# Elastic Compliance Matrix: (Units=1/GPa)
#
#
# Indices 1 2 3 4 5 6 
#
# 1 0.009810 -0.000611 -0.002739 0.000000 0.000000 0.000000
# 2 -0.000611 0.003022 -0.001203 0.000000 0.000000 0.000000
# 3 -0.002739 -0.001203 0.016668 0.000000 0.000000 0.000000
# 4 0.000000 0.000000 0.000000 0.055469 0.000000 0.000000
# 5 0.000000 0.000000 0.000000 0.000000 0.065061 0.000000
# 6 0.000000 0.000000 0.000000 0.000000 0.000000 0.026607
#
#
# Mechanical properties :
#
#
# Convention : Reuss Voigt Hill
#
# Bulk Modulus (GPa) = 49.03692 76.09287 62.56489
# Shear Modulus (GPa) = 25.96851 43.75885 34.86368
#
# Velocity S-wave (km/s) = 3.07632 3.99338 3.56447
# Velocity P-wave (km/s) = 5.52168 6.99953 6.30406
#
# Compressibility (1/GPa) = 0.02039280
#
# Stress axis : x y z
#
# Youngs Moduli (GPa) = 101.93696 330.87146 59.99679
#
# Poissons Ratio (x) = 0.20221 0.16435
# Poissons Ratio (y) = 0.06230 0.07218
# Poissons Ratio (z) = 0.27924 0.39806
#
# Static dielectric constant tensor:
#      x y z
#    x 2.204330 0.000000 0.000000 
#    y 0.000000 2.395000 0.000000 
#    z 0.000000 0.000000 2.268090 
# 
# From -- ./inp_files/37359.got.cif
#   From: 2010.05.17/outbox.cif.g08.bks.cpg/sg24_19_cif.got.tgz:37359.got - 2010.06.04 00:33:39.
