data_PCOD9332614
_publ_section_title
;
Structure prediction by ZEFSAII (Michael W. Deem and Ramdas Pophale) SiO2 
 PCOD9332614
Probable space group: I 2 2 2
;
_chemical_formula_sum "Si O2"
_cell_formula_units_Z 56
_cell_length_a 19.073307
_cell_length_b 21.756629
_cell_length_c 7.169721
_cell_angle_alpha 90.000000
_cell_angle_beta 90.000000
_cell_angle_gamma 90.000000
_cell_volume 2975.225319
_symmetry_space_group_name_H-M "I 2 2 2"
_symmetry_group_IT_number 23
_symmetry_cell_setting 'orthorhombic'
loop_
_space_group_symop_operation_xyz
x,y,z
-x,-y,z
x,-y,-z
-x,y,-z
1/2+x,1/2+y,1/2+z
1/2-x,1/2-y,1/2+z
1/2+x,1/2-y,1/2-z
1/2-x,1/2+y,1/2-z
loop_
_atom_site_type_symbol
_atom_site_label
_atom_site_fract_x
_atom_site_fract_y
_atom_site_fract_z
Si Si1 0.277632 0.700119 0.346066
Si Si2 0.166161 0.609252 0.765473
Si Si3 0.648592 0.132185 0.830339
Si Si4 0.580517 0.008020 0.772875
Si Si5 0.912136 0.737844 0.180804
Si Si6 0.301617 0.674598 0.780998
Si Si7 0.566700 0.744171 0.237579
O O1 0.223472 0.653834 0.249785
O O2 0.349964 0.717839 0.249348
O O3 0.294856 0.678858 0.555320
O O4 0.236000 0.764255 0.359384
O O5 0.165413 0.611995 0.540247
O O6 0.129317 0.545138 0.811388
O O7 0.117251 0.668091 0.815517
O O8 0.246614 0.620389 0.830032
O O9 0.609881 0.075931 0.733710
O O10 0.600269 0.192545 0.837592
O O11 0.500000 0.000000 0.715371
O O12 0.580767 0.000000 0.000000
O O13 0.983378 0.752176 0.289909
O O14 0.924206 0.751437 0.962496
O O15 0.384126 0.686435 0.821713
#
# Coordination Sequence:
#
# PCOD9332614 Si02
#       7
#     8   8   8   8   8   8   8
#     4   8  14  24  37  52  69  91 118 145 175 210
#     4   9  16  26  39  53  71  96 123 148 173 205
#     4   9  16  26  39  53  71  96 123 148 173 205
#     4   9  16  24  35  53  74  94 118 147 175 203
#     4   9  16  25  37  54  75  95 115 144 181 215
#     4   8  14  24  37  52  69  91 118 145 175 210
#     4   9  16  25  37  54  75  95 115 144 181 215
#
# _framework density 18.822102999999998
#
# number of rings (size 3 to 8) (size 9 to 14) (size 15 to 20)
#    0.000    3.286    0.000    0.857    0.000    1.714 
#    0.000    0.714    0.000    2.571    0.000    1.000 
#    0.000    8.000    0.000    0.000    0.000  101.000 
#
# Total GULP energy -155917.367500 kJ/mol
# GULP energy per Si atom -5568.477411 kJ/mol
# Density = 1.877926 g / cm^3
# Si number density = 18.822103 Si / 1000 Ang^3
#
#
#
# Elastic Constant Matrix: (Units=GPa)
#
#
# Indices 1 2 3 4 5 6 
#
# 1 169.1290 78.7326 -14.4425 0.0000 0.0000 0.0000
# 2 78.7326 88.4990 -4.9047 0.0000 0.0000 0.0000
# 3 -14.4425 -4.9047 48.6474 0.0000 0.0000 0.0000
# 4 0.0000 0.0000 0.0000 -0.3805 0.0000 0.0000
# 5 0.0000 0.0000 0.0000 0.0000 4.7892 0.0000
# 6 0.0000 0.0000 0.0000 0.0000 0.0000 28.3497
#
#
#
# Elastic Compliance Matrix: (Units=1/GPa)
#
#
# Indices 1 2 3 4 5 6 
#
# 1 0.010311 -0.009054 0.002148 0.000000 0.000000 0.000000
# 2 -0.009054 0.019313 -0.000741 0.000000 0.000000 0.000000
# 3 0.002148 -0.000741 0.021119 0.000000 0.000000 0.000000
# 4 0.000000 0.000000 0.000000 -2.628176 0.000000 0.000000
# 5 0.000000 0.000000 0.000000 0.000000 0.208805 0.000000
# 6 0.000000 0.000000 0.000000 0.000000 0.000000 0.035274
#
#
# Mechanical properties :
#
#
# Convention : Reuss Voigt Hill
#
# Bulk Modulus (GPa) = 28.20837 47.22736 37.71787
# Shear Modulus (GPa) = -2.16803 23.01101 10.42149
#
# Velocity S-wave (km/s) = -1.07441 3.50029 2.35560
# Velocity P-wave (km/s) = 3.67154 6.44065 5.24224
#
# Compressibility (1/GPa) = 0.03545047
#
# Stress axis : x y z
#
# Youngs Moduli (GPa) = 96.98503 51.77779 47.35036
#
# Poissons Ratio (x) = 0.46879 -0.10172
# Poissons Ratio (y) = 0.87810 0.03508
# Poissons Ratio (z) = -0.20835 0.03836
#
# Static dielectric constant tensor:
#      x y z
#    x 1.715160 0.000000 0.000000 
#    y 0.000000 1.621430 0.000000 
#    z 0.000000 0.000000 1.740510 
# 
# From -- ./inp_files/11371.got.cif
#   From: 2010.05.17/outbox.cif.g08.bks.cpg/sg23_6_cif.got.tgz:11371.got - 2010.06.04 12:02:01.
