data_PCOD9332526
_publ_section_title
;
Structure prediction by ZEFSAII (Michael W. Deem and Ramdas Pophale) SiO2 
 PCOD9332526
Probable space group: I 2 2 2
;
_chemical_formula_sum "Si O2"
_cell_formula_units_Z 64
_cell_length_a 28.252238
_cell_length_b 12.760113
_cell_length_c 9.280964
_cell_angle_alpha 90.000000
_cell_angle_beta 90.000000
_cell_angle_gamma 90.000000
_cell_volume 3345.803758
_symmetry_space_group_name_H-M "I 2 2 2"
_symmetry_group_IT_number 23
_symmetry_cell_setting 'orthorhombic'
loop_
_space_group_symop_operation_xyz
x,y,z
-x,-y,z
x,-y,-z
-x,y,-z
1/2+x,1/2+y,1/2+z
1/2-x,1/2-y,1/2+z
1/2+x,1/2-y,1/2-z
1/2-x,1/2+y,1/2-z
loop_
_atom_site_type_symbol
_atom_site_label
_atom_site_fract_x
_atom_site_fract_y
_atom_site_fract_z
Si Si1 0.282298 0.427733 0.868623
Si Si2 0.446188 0.134235 0.144899
Si Si3 0.227798 0.291186 0.530015
Si Si4 0.650300 0.844372 0.250814
Si Si5 0.051363 0.384084 0.305594
Si Si6 0.670664 0.394947 0.407177
Si Si7 0.131942 0.317697 0.082093
Si Si8 0.804063 0.447953 0.713086
O O1 0.269702 0.314796 0.936513
O O2 0.325802 0.420436 0.760378
O O3 0.239663 0.487596 0.783540
O O4 0.294881 0.500000 0.000000
O O5 0.401705 0.194006 0.210443
O O6 0.498199 0.163505 0.203330
O O7 0.446960 0.010805 0.188083
O O8 0.437683 0.143930 0.972936
O O9 0.192960 0.281760 0.670116
O O10 0.279710 0.333241 0.567330
O O11 0.208395 0.383704 0.428139
O O12 0.646278 0.857334 0.422822
O O13 0.657388 0.961893 0.190229
O O14 0.085632 0.350740 0.174426
O O15 0.668367 0.500000 0.500000
O O16 0.631748 0.307524 0.434635
O O17 0.174636 0.362819 0.178986
#
# Coordination Sequence:
#
# PCOD9332526 Si02
#       8
#     8   8   8   8   8   8   8   8
#     4  12  26  40  60  80 114 162 209 260 293 358
#     4   9  19  35  62  86 124 159 195 239 301 372
#     4  12  25  41  59  83 122 169 215 255 306 363
#     4  12  23  35  59  91 121 163 198 251 303 370
#     4   9  19  38  58  89 120 162 196 238 301 374
#     4  12  25  42  58  82 119 166 209 261 303 350
#     4  12  25  38  59  87 126 159 208 252 306 368
#     4  12  22  40  56  83 117 166 214 253 298 356
#
# _framework density 19.128439
#
# number of rings (size 3 to 8) (size 9 to 14) (size 15 to 20)
#    0.000    0.750    5.000    4.500    3.500    0.500 
#    0.000    1.250    0.000    0.000    0.000    1.750 
#    0.000    3.000    0.000    0.000    0.000    0.000 
#
# Total GULP energy -178372.524368 kJ/mol
# GULP energy per Si atom -5574.141386 kJ/mol
# Density = 1.908490 g / cm^3
# Si number density = 19.128439 Si / 1000 Ang^3
#
#
#
# Elastic Constant Matrix: (Units=GPa)
#
#
# Indices 1 2 3 4 5 6 
#
# 1 58.6449 8.4055 40.4839 0.0000 0.0000 0.0000
# 2 8.4055 86.5549 30.1032 0.0000 0.0000 0.0000
# 3 40.4839 30.1032 114.4928 0.0000 0.0000 0.0000
# 4 0.0000 0.0000 0.0000 28.1830 0.0000 0.0000
# 5 0.0000 0.0000 0.0000 0.0000 23.0594 0.0000
# 6 0.0000 0.0000 0.0000 0.0000 0.0000 12.2441
#
#
#
# Elastic Compliance Matrix: (Units=1/GPa)
#
#
# Indices 1 2 3 4 5 6 
#
# 1 0.022591 0.000643 -0.008157 0.000000 0.000000 0.000000
# 2 0.000643 0.012734 -0.003576 0.000000 0.000000 0.000000
# 3 -0.008157 -0.003576 0.012559 0.000000 0.000000 0.000000
# 4 0.000000 0.000000 0.000000 0.035482 0.000000 0.000000
# 5 0.000000 0.000000 0.000000 0.000000 0.043366 0.000000
# 6 0.000000 0.000000 0.000000 0.000000 0.000000 0.081672
#
#
# Mechanical properties :
#
#
# Convention : Reuss Voigt Hill
#
# Bulk Modulus (GPa) = 38.90349 46.40865 42.65607
# Shear Modulus (GPa) = 20.90726 24.74396 22.82561
#
# Velocity S-wave (km/s) = 3.30963 3.60052 3.45814
# Velocity P-wave (km/s) = 5.91499 6.44975 6.18815
#
# Compressibility (1/GPa) = 0.02570464
#
# Stress axis : x y z
#
# Youngs Moduli (GPa) = 44.26632 78.52687 79.62709
#
# Poissons Ratio (x) = -0.05050 0.64951
# Poissons Ratio (y) = -0.02847 0.28472
# Poissons Ratio (z) = 0.36108 0.28078
#
# Static dielectric constant tensor:
#      x y z
#    x 1.741140 0.000000 0.000000 
#    y 0.000000 1.695950 0.000000 
#    z 0.000000 0.000000 1.734340 
# 
# From -- ./inp_files/13485.got.cif
#   From: 2010.05.17/outbox.cif.g08.bks.cpg/sg23_7_cif.got.tgz:13485.got - 2010.06.04 12:02:01.
