data_PCOD9332947
_publ_section_title
;
Structure prediction by ZEFSAII (Michael W. Deem and Ramdas Pophale) SiO2 
 PCOD9332947
Probable space group: I 21 21 21
;
_chemical_formula_sum "Si O2"
_cell_formula_units_Z 52
_cell_length_a 18.543879
_cell_length_b 5.601258
_cell_length_c 20.528614
_cell_angle_alpha 90.000000
_cell_angle_beta 90.000000
_cell_angle_gamma 90.000000
_cell_volume 2132.287646
_symmetry_space_group_name_H-M "I 21 21 21"
_symmetry_group_IT_number 24
_symmetry_cell_setting 'orthorhombic'
loop_
_space_group_symop_operation_xyz
x,y,z
-x,1/2-y,z
x,-y,1/2-z
1/2-x,y,-z
1/2+x,1/2+y,1/2+z
1/2-x,-y,1/2+z
1/2+x,1/2-y,-z
-x,1/2+y,1/2-z
loop_
_atom_site_type_symbol
_atom_site_label
_atom_site_fract_x
_atom_site_fract_y
_atom_site_fract_z
Si Si1 0.787176 0.750000 0.816938
Si Si2 0.079227 0.750002 0.361224
Si Si3 0.657778 0.250000 0.170752
Si Si4 0.836762 0.750004 0.009631
Si Si5 0.500000 0.250000 0.207614
Si Si6 0.626653 0.750002 0.835163
Si Si7 0.336355 0.750004 0.508842
O O1 0.805800 0.498836 0.851443
O O2 0.829996 0.750000 0.749244
O O3 0.703233 0.750000 0.800076
O O4 0.805800 0.001163 0.851443
O O5 0.087229 0.500488 0.323778
O O6 0.142017 0.750004 0.415192
O O7 0.000000 0.750000 0.393032
O O8 0.087229 0.999518 0.323778
O O9 0.572251 0.250000 0.164601
O O10 0.854417 0.750004 0.086875
O O11 0.865900 0.500332 0.982994
O O12 0.865900 0.999677 0.982994
O O13 0.750000 0.750004 0.000000
O O14 0.500000 0.500000 0.250000
O O15 0.250000 0.750004 0.500000
#
# Coordination Sequence:
#
# PCOD9332947 Si02
#       7
#     8   8   8   8   4   8   8
#     4  10  18  30  44  69  99 125 157 199 242 282
#     4  10  19  31  46  69  98 121 156 205 258 285
#     4  10  19  30  48  72 100 124 162 197 244 287
#     4   8  14  25  41  63  91 112 146 187 234 269
#     4  12  16  30  48  74 104 128 158 200 244 286
#     4  10  19  30  47  69  98 121 160 200 250 284
#     4   8  14  25  42  63  90 114 143 185 237 289
#
# _framework density 24.386952000000001
#
# number of rings (size 3 to 8) (size 9 to 14) (size 15 to 20)
#    0.000    2.462    3.077    1.385    0.000    0.000 
#    0.000    0.000    0.000    0.000    0.000   43.077 
#  295.385    0.000    0.000    0.000    0.000    0.000 
#
# Total GULP energy -145051.235528 kJ/mol
# GULP energy per Si atom -5578.893674 kJ/mol
# Density = 2.433145 g / cm^3
# Si number density = 24.386952 Si / 1000 Ang^3
#
#
#
# Elastic Constant Matrix: (Units=GPa)
#
#
# Indices 1 2 3 4 5 6 
#
# 1 116.2529 35.3855 -8.4545 0.0000 0.0000 0.0000
# 2 35.3855 336.5234 -10.3369 0.0000 0.0000 0.0000
# 3 -8.4545 -10.3369 87.4999 0.0000 0.0000 0.0000
# 4 0.0000 0.0000 0.0000 -18.6411 0.0000 0.0000
# 5 0.0000 0.0000 0.0000 0.0000 -44.3130 0.0000
# 6 0.0000 0.0000 0.0000 0.0000 0.0000 24.2057
#
#
#
# Elastic Compliance Matrix: (Units=1/GPa)
#
#
# Indices 1 2 3 4 5 6 
#
# 1 0.008936 -0.000916 0.000755 0.000000 0.000000 0.000000
# 2 -0.000916 0.003076 0.000275 0.000000 0.000000 0.000000
# 3 0.000755 0.000275 0.011534 0.000000 0.000000 0.000000
# 4 0.000000 0.000000 0.000000 -0.053645 0.000000 0.000000
# 5 0.000000 0.000000 0.000000 0.000000 -0.022567 0.000000
# 6 0.000000 0.000000 0.000000 0.000000 0.000000 0.041313
#
#
# Mechanical properties :
#
#
# Convention : Reuss Voigt Hill
#
# Bulk Modulus (GPa) = 42.06377 63.71827 52.89102
# Shear Modulus (GPa) = -1367.79989 27.16245 -670.31872
#
# Velocity S-wave (km/s) = -23.70846 3.34100 -16.59712
# Velocity P-wave (km/s) = 27.05862 6.40842 18.58899
#
# Compressibility (1/GPa) = 0.02377343
#
# Stress axis : x y z
#
# Youngs Moduli (GPa) = 111.90951 325.05896 86.69998
#
# Poissons Ratio (x) = 0.29789 -0.06547
# Poissons Ratio (y) = 0.10255 -0.02383
# Poissons Ratio (z) = -0.08451 -0.08935
#
# Static dielectric constant tensor:
#      x y z
#    x 1.863250 0.000000 0.000000 
#    y 0.000000 2.042700 0.000000 
#    z 0.000000 0.000000 1.960000 
# 
# From -- ./inp_files/37513.got.cif
#   From: 2010.05.17/outbox.cif.g08.bks.cpg/sg24_19_cif.got.tgz:37513.got - 2010.06.04 00:33:39.
