data_PCOD9332273
_publ_section_title
;
Structure prediction by ZEFSAII (Michael W. Deem and Ramdas Pophale) SiO2 
 PCOD9332273
Probable space group: I 2 2 2
;
_chemical_formula_sum "Si O2"
_cell_formula_units_Z 32
_cell_length_a 8.415337
_cell_length_b 14.859323
_cell_length_c 10.675235
_cell_angle_alpha 90.000000
_cell_angle_beta 90.000000
_cell_angle_gamma 90.000000
_cell_volume 1334.897684
_symmetry_space_group_name_H-M "I 2 2 2"
_symmetry_group_IT_number 23
_symmetry_cell_setting 'orthorhombic'
loop_
_space_group_symop_operation_xyz
x,y,z
-x,-y,z
x,-y,-z
-x,y,-z
1/2+x,1/2+y,1/2+z
1/2-x,1/2-y,1/2+z
1/2+x,1/2-y,1/2-z
1/2-x,1/2+y,1/2-z
loop_
_atom_site_type_symbol
_atom_site_label
_atom_site_fract_x
_atom_site_fract_y
_atom_site_fract_z
Si Si1 0.175968 0.485118 0.807534
Si Si2 0.817617 0.836406 0.825695
Si Si3 0.401108 0.663275 0.129433
Si Si4 0.666122 0.898834 0.048013
O O1 0.228494 0.580370 0.746286
O O2 0.307943 0.432028 0.886065
O O3 0.160927 0.412261 0.694357
O O4 0.000000 0.500000 0.860691
O O5 0.721148 0.743268 0.834246
O O6 0.978114 0.834300 0.747042
O O7 0.814924 0.858815 0.974477
O O8 0.500000 0.674706 0.000000
O O9 0.500000 0.858183 0.000000
O O10 0.664616 0.000000 0.000000
#
# Coordination Sequence:
#
# PCOD9332273 Si02
#       4
#     8   8   8   8
#     4  11  22  45  80 110 146 205 264 326 406 472
#     4  11  24  44  74 105 153 205 257 328 398 464
#     4  12  29  48  73 113 164 209 265 333 398 486
#     4   9  16  36  74 103 136 181 253 326 374 448
#
# _framework density 23.971874
#
# number of rings (size 3 to 8) (size 9 to 14) (size 15 to 20)
#    0.000    1.250    5.000    3.000    3.500    3.000 
#    0.000    8.750    0.000    0.000    0.000    0.000 
#    0.000    0.000    0.000    0.000    0.000    0.000 
#
# Total GULP energy -89172.438793 kJ/mol
# GULP energy per Si atom -5573.277425 kJ/mol
# Density = 2.391731 g / cm^3
# Si number density = 23.971874 Si / 1000 Ang^3
#
#
#
# Elastic Constant Matrix: (Units=GPa)
#
#
# Indices 1 2 3 4 5 6 
#
# 1 140.7420 64.2635 54.0371 0.0000 0.0000 0.0000
# 2 64.2635 136.3852 52.5877 0.0001 0.0000 0.0000
# 3 54.0371 52.5877 101.8667 0.0000 0.0000 0.0000
# 4 0.0000 0.0001 0.0000 18.7334 0.0000 0.0000
# 5 0.0000 0.0000 0.0000 0.0000 27.1984 0.0000
# 6 0.0000 0.0000 0.0000 0.0000 0.0000 19.2328
#
#
#
# Elastic Compliance Matrix: (Units=1/GPa)
#
#
# Indices 1 2 3 4 5 6 
#
# 1 0.010003 -0.003330 -0.003587 0.000000 0.000000 0.000000
# 2 -0.003330 0.010263 -0.003532 0.000000 0.000000 0.000000
# 3 -0.003587 -0.003532 0.013543 0.000000 0.000000 0.000000
# 4 0.000000 0.000000 0.000000 0.053381 0.000000 0.000000
# 5 0.000000 0.000000 0.000000 0.000000 0.036767 0.000000
# 6 0.000000 0.000000 0.000000 0.000000 0.000000 0.051994
#
#
# Mechanical properties :
#
#
# Convention : Reuss Voigt Hill
#
# Bulk Modulus (GPa) = 77.45355 80.08561 78.76958
# Shear Modulus (GPa) = 24.85677 26.90663 25.88170
#
# Velocity S-wave (km/s) = 3.22361 3.35390 3.28940
# Velocity P-wave (km/s) = 6.79969 6.96267 6.88167
#
# Compressibility (1/GPa) = 0.01291096
#
# Stress axis : x y z
#
# Youngs Moduli (GPa) = 99.96954 97.43663 73.84011
#
# Poissons Ratio (x) = 0.32449 0.26487
# Poissons Ratio (y) = 0.33292 0.26078
# Poissons Ratio (z) = 0.35860 0.34411
#
# Static dielectric constant tensor:
#      x y z
#    x 2.020040 0.000000 0.000000 
#    y 0.000000 1.919060 0.000000 
#    z 0.000000 0.000000 2.045090 
# 
# From -- ./inp_files/14305.got.cif
#   From: 2010.05.17/outbox.cif.g08.bks.cpg/sg23_8_cif.got.tgz:14305.got - 2010.06.04 12:02:01.
