data_PCOD9332794
_publ_section_title
;
Structure prediction by ZEFSAII (Michael W. Deem and Ramdas Pophale) SiO2 
 PCOD9332794
Probable space group: I 21 21 21
;
_chemical_formula_sum "Si O2"
_cell_formula_units_Z 56
_cell_length_a 22.238953
_cell_length_b 26.166507
_cell_length_c 4.969871
_cell_angle_alpha 90.000000
_cell_angle_beta 90.000000
_cell_angle_gamma 90.000000
_cell_volume 2892.046058
_symmetry_space_group_name_H-M "I 21 21 21"
_symmetry_group_IT_number 24
_symmetry_cell_setting 'orthorhombic'
loop_
_space_group_symop_operation_xyz
x,y,z
-x,1/2-y,z
x,-y,1/2-z
1/2-x,y,-z
1/2+x,1/2+y,1/2+z
1/2-x,-y,1/2+z
1/2+x,1/2-y,-z
-x,1/2+y,1/2-z
loop_
_atom_site_type_symbol
_atom_site_label
_atom_site_fract_x
_atom_site_fract_y
_atom_site_fract_z
Si Si1 0.087742 0.623493 0.165318
Si Si2 0.290718 0.317586 0.733694
Si Si3 0.944181 0.056172 0.837475
Si Si4 0.534824 0.335684 0.557472
Si Si5 0.687478 0.639493 0.365943
Si Si6 0.655991 0.292405 0.638110
Si Si7 0.065007 0.899147 0.559797
O O1 0.149314 0.649125 0.255196
O O2 0.073991 0.578026 0.373674
O O3 0.034023 0.665776 0.151100
O O4 0.082821 0.596530 0.875522
O O5 0.250000 0.341045 0.500000
O O6 0.312862 0.262109 0.631070
O O7 0.250000 0.312990 0.000000
O O8 0.017287 0.058292 0.855579
O O9 0.924996 0.000000 0.750000
O O10 0.583869 0.291555 0.596064
O O11 0.541289 0.352196 0.247257
O O12 0.558958 0.382263 0.749000
O O13 0.750000 0.622060 0.500000
O O14 0.666717 0.684237 0.568712
O O15 0.635264 0.596793 0.373325
O O16 0.684210 0.667512 0.077068
#
# Coordination Sequence:
#
# PCOD9332794 Si02
#       7
#     8   8   8   8   8   8   8
#     4  10  21  37  56  80 106 132 166 211 269 317
#     4  12  24  37  53  74 107 145 175 207 251 308
#     4  10  19  36  61  82  98 123 166 221 275 327
#     4   8  16  31  50  73 103 131 166 214 252 288
#     4  10  17  28  46  71 107 145 180 208 232 281
#     4  10  19  31  49  74 102 140 185 213 236 279
#     4   8  16  28  46  76 104 128 162 210 260 296
#
# _framework density 19.363454000000001
#
# number of rings (size 3 to 8) (size 9 to 14) (size 15 to 20)
#    0.000    2.286    0.000    3.857    0.000    0.571 
#    0.000    0.000    0.000   20.571    0.000   12.000 
#    0.000    0.000    0.000    0.000    0.000    0.000 
#
# Total GULP energy -155887.944472 kJ/mol
# GULP energy per Si atom -5567.426588 kJ/mol
# Density = 1.931938 g / cm^3
# Si number density = 19.363454 Si / 1000 Ang^3
#
#
#
# Elastic Constant Matrix: (Units=GPa)
#
#
# Indices 1 2 3 4 5 6 
#
# 1 139.0596 24.6327 4.0423 0.0000 0.0000 0.0000
# 2 24.6327 15.3087 -2.6948 0.0000 0.0000 0.0000
# 3 4.0423 -2.6948 72.3549 0.0000 0.0000 0.0000
# 4 0.0000 0.0000 0.0000 10.3427 0.0000 0.0000
# 5 0.0000 0.0000 0.0000 0.0000 26.4076 0.0000
# 6 0.0000 0.0000 0.0000 0.0000 0.0000 10.9883
#
#
#
# Elastic Compliance Matrix: (Units=1/GPa)
#
#
# Indices 1 2 3 4 5 6 
#
# 1 0.010158 -0.016553 -0.001184 0.000000 0.000000 0.000000
# 2 -0.016553 0.092728 0.004378 0.000000 0.000000 0.000000
# 3 -0.001184 0.004378 0.014050 0.000000 0.000000 0.000000
# 4 0.000000 0.000000 0.000000 0.096686 0.000000 0.000000
# 5 0.000000 0.000000 0.000000 0.000000 0.037868 0.000000
# 6 0.000000 0.000000 0.000000 0.000000 0.000000 0.091006
#
#
# Mechanical properties :
#
#
# Convention : Reuss Voigt Hill
#
# Bulk Modulus (GPa) = 11.08420 30.96485 21.02452
# Shear Modulus (GPa) = 12.52235 22.93057 17.72646
#
# Velocity S-wave (km/s) = 2.54579 3.44498 3.02894
# Velocity P-wave (km/s) = 3.79185 5.64358 4.80771
#
# Compressibility (1/GPa) = 0.09021854
#
# Stress axis : x y z
#
# Youngs Moduli (GPa) = 98.44731 10.78424 71.17447
#
# Poissons Ratio (x) = 0.17851 0.08427
# Poissons Ratio (y) = 1.62959 -0.31163
# Poissons Ratio (z) = 0.11656 -0.04722
#
# Static dielectric constant tensor:
#      x y z
#    x 1.776320 0.000000 0.000000 
#    y 0.000000 1.634940 0.000000 
#    z 0.000000 0.000000 1.671230 
# 
# From -- ./inp_files/5802.got.cif
#   From: 2010.05.17/outbox.cif.g08.bks.cpg/sg24_3_cif.got.tgz:5802.got - 2010.06.04 00:33:39.
