data_PCOD9332465
_publ_section_title
;
Structure prediction by ZEFSAII (Michael W. Deem and Ramdas Pophale) SiO2 
 PCOD9332465
Probable space group: I 2 2 2
;
_chemical_formula_sum "Si O2"
_cell_formula_units_Z 48
_cell_length_a 8.900925
_cell_length_b 30.075434
_cell_length_c 8.292708
_cell_angle_alpha 90.000000
_cell_angle_beta 90.000000
_cell_angle_gamma 90.000000
_cell_volume 2219.951151
_symmetry_space_group_name_H-M "I 2 2 2"
_symmetry_group_IT_number 23
_symmetry_cell_setting 'orthorhombic'
loop_
_space_group_symop_operation_xyz
x,y,z
-x,-y,z
x,-y,-z
-x,y,-z
1/2+x,1/2+y,1/2+z
1/2-x,1/2-y,1/2+z
1/2+x,1/2-y,1/2-z
1/2-x,1/2+y,1/2-z
loop_
_atom_site_type_symbol
_atom_site_label
_atom_site_fract_x
_atom_site_fract_y
_atom_site_fract_z
Si Si1 0.825211 0.602490 0.960412
Si Si2 0.574957 0.451337 0.162030
Si Si3 0.960711 0.219126 0.176195
Si Si4 0.000000 0.905731 0.000000
Si Si5 0.246797 0.140935 0.793952
Si Si6 0.287297 0.804268 0.728708
Si Si7 0.500000 0.172489 0.000000
O O1 0.749172 0.559729 0.876050
O O2 0.794947 0.646968 0.851761
O O3 0.751979 0.611824 0.134789
O O4 0.000000 0.597326 0.000000
O O5 0.500000 0.500000 0.168037
O O6 0.545125 0.431425 0.337791
O O7 0.500000 0.430596 0.000000
O O8 0.830870 0.188020 0.249487
O O9 0.895694 0.268068 0.148814
O O10 0.116565 0.213626 0.271939
O O11 0.000000 0.201447 0.000000
O O12 0.854002 0.879697 0.935708
O O13 0.414587 0.146449 0.859900
O O14 0.361311 0.803850 0.908957
#
# Coordination Sequence:
#
# PCOD9332465 Si02
#       7
#     8   8   8   4   8   8   4
#     4  12  26  47  74 111 151 196 245 312 392 462
#     4  11  25  48  78 115 146 186 246 309 380 468
#     4  12  26  42  60  96 140 197 260 315 365 426
#     4  12  23  46  76 112 144 202 248 306 374 455
#     4  12  24  42  71 104 145 198 249 307 371 437
#     4  12  27  42  67  97 146 198 261 316 373 436
#     4  12  22  42  62  96 139 192 254 308 365 436
#
# _framework density 21.622098000000001
#
# number of rings (size 3 to 8) (size 9 to 14) (size 15 to 20)
#    0.000    0.167    5.833    3.750    2.333    0.000 
#    0.000    1.667    0.000    0.000    0.000    0.000 
#    0.000    0.000    0.000    0.000    0.000    0.000 
#
# Total GULP energy -133876.874256 kJ/mol
# GULP energy per Si atom -5578.203094 kJ/mol
# Density = 2.157289 g / cm^3
# Si number density = 21.622098 Si / 1000 Ang^3
#
#
#
# Elastic Constant Matrix: (Units=GPa)
#
#
# Indices 1 2 3 4 5 6 
#
# 1 145.2619 61.2764 29.5159 -0.0189 0.0003 -0.0005
# 2 61.2764 80.0223 24.9088 -0.0078 -0.0001 0.0003
# 3 29.5159 24.9088 105.8624 -0.0567 0.0027 0.0002
# 4 -0.0189 -0.0078 -0.0567 138.1210 -0.0088 0.0053
# 5 0.0003 -0.0001 0.0027 -0.0088 42.5646 -0.0003
# 6 -0.0005 0.0003 0.0002 0.0053 -0.0003 28.7322
#
#
#
# Elastic Compliance Matrix: (Units=1/GPa)
#
#
# Indices 1 2 3 4 5 6 
#
# 1 0.010285 -0.007535 -0.001095 0.000001 0.000000 0.000000
# 2 -0.007535 0.019004 -0.002371 -0.000001 0.000000 0.000000
# 3 -0.001095 -0.002371 0.010309 0.000004 -0.000001 0.000000
# 4 0.000001 -0.000001 0.000004 0.007240 0.000002 -0.000001
# 5 0.000000 0.000000 -0.000001 0.000002 0.023494 0.000000
# 6 0.000000 0.000000 0.000000 -0.000001 0.000000 0.034804
#
#
# Mechanical properties :
#
#
# Convention : Reuss Voigt Hill
#
# Bulk Modulus (GPa) = 56.82515 62.50542 59.66529
# Shear Modulus (GPa) = 37.59309 56.24660 46.91985
#
# Velocity S-wave (km/s) = 4.17423 5.10587 4.66337
# Velocity P-wave (km/s) = 7.04062 7.98316 7.52666
#
# Compressibility (1/GPa) = 0.01759784
#
# Stress axis : x y z
#
# Youngs Moduli (GPa) = 97.22861 52.61971 97.00011
#
# Poissons Ratio (x) = 0.39649 0.10618
# Poissons Ratio (y) = 0.73261 0.22996
# Poissons Ratio (z) = 0.10643 0.12475
#
# Static dielectric constant tensor:
#      x y z
#    x 1.655810 0.000000 -0.000010 
#    y 0.000000 1.879920 0.000000 
#    z -0.000010 0.000000 1.846090 
# 
# From -- ./inp_files/7411.got.cif
#   From: 2010.05.17/outbox.cif.g08.bks.cpg/sg23_4_cif.got.tgz:7411.got - 2010.06.04 12:02:01.
