data_PCOD9332858
_publ_section_title
;
Structure prediction by ZEFSAII (Michael W. Deem and Ramdas Pophale) SiO2 
 PCOD9332858
Probable space group: I 21 21 21
;
_chemical_formula_sum "Si O2"
_cell_formula_units_Z 48
_cell_length_a 10.146941
_cell_length_b 13.564363
_cell_length_c 17.387710
_cell_angle_alpha 90.000000
_cell_angle_beta 90.000000
_cell_angle_gamma 90.000000
_cell_volume 2393.188608
_symmetry_space_group_name_H-M "I 21 21 21"
_symmetry_group_IT_number 24
_symmetry_cell_setting 'orthorhombic'
loop_
_space_group_symop_operation_xyz
x,y,z
-x,1/2-y,z
x,-y,1/2-z
1/2-x,y,-z
1/2+x,1/2+y,1/2+z
1/2-x,-y,1/2+z
1/2+x,1/2-y,-z
-x,1/2+y,1/2-z
loop_
_atom_site_type_symbol
_atom_site_label
_atom_site_fract_x
_atom_site_fract_y
_atom_site_fract_z
Si Si1 0.361598 0.206707 0.407164
Si Si2 0.384614 0.670575 0.709323
Si Si3 0.539366 0.510915 0.613071
Si Si4 0.769059 0.500000 0.250000
Si Si5 0.386822 0.667707 0.884452
Si Si6 0.250000 0.024136 0.500000
Si Si7 0.863321 0.700426 0.721289
O O1 0.500000 0.250000 0.435857
O O2 0.241538 0.282325 0.418570
O O3 0.325429 0.101462 0.443610
O O4 0.368120 0.201134 0.314527
O O5 0.500000 0.750000 0.715974
O O6 0.444072 0.591139 0.651072
O O7 0.359379 0.632937 0.796245
O O8 0.253006 0.730426 0.689136
O O9 0.629702 0.465473 0.682772
O O10 0.448718 0.426907 0.576182
O O11 0.645994 0.539189 0.548724
O O12 0.681481 0.586238 0.288729
O O13 0.500000 0.750000 0.882231
O O14 0.000000 0.750000 0.694645
#
# Coordination Sequence:
#
# PCOD9332858 Si02
#       7
#     8   8   8   4   8   4   8
#     4  10  22  36  52  84 132 169 204 264 334 407
#     4  10  18  35  63  91 120 157 221 276 317 377
#     4  12  21  35  61  94 125 172 226 271 330 401
#     4  12  18  40  64  88 126 168 216 286 322 400
#     4  10  17  34  58  87 120 162 212 268 321 387
#     4  12  24  36  56  92 130 184 212 258 352 404
#     4  10  21  39  61  95 130 163 208 277 350 396
#
# _framework density 20.056923000000001
#
# number of rings (size 3 to 8) (size 9 to 14) (size 15 to 20)
#    0.000    1.333    6.667    1.000    2.333    0.000 
#    9.000    0.000    0.000    1.000    4.333    0.000 
#    0.000    0.000    0.000    0.000    0.000    0.000 
#
# Total GULP energy -133800.476952 kJ/mol
# GULP energy per Si atom -5575.019873 kJ/mol
# Density = 2.001127 g / cm^3
# Si number density = 20.056923 Si / 1000 Ang^3
#
#
#
# Elastic Constant Matrix: (Units=GPa)
#
#
# Indices 1 2 3 4 5 6 
#
# 1 164.2730 52.7398 20.5385 0.0000 0.0000 0.0000
# 2 52.7398 86.5334 15.0676 0.0000 0.0000 0.0000
# 3 20.5385 15.0676 55.7502 0.0000 0.0000 0.0000
# 4 0.0000 0.0000 0.0000 19.2181 0.0000 0.0000
# 5 0.0000 0.0000 0.0000 0.0000 38.2259 0.0000
# 6 0.0000 0.0000 0.0000 0.0000 0.0000 28.8893
#
#
#
# Elastic Compliance Matrix: (Units=1/GPa)
#
#
# Indices 1 2 3 4 5 6 
#
# 1 0.007710 -0.004412 -0.001648 0.000000 0.000000 0.000000
# 2 -0.004412 0.014652 -0.002335 0.000000 0.000000 0.000000
# 3 -0.001648 -0.002335 0.019175 0.000000 0.000000 0.000000
# 4 0.000000 0.000000 0.000000 0.052034 0.000000 0.000000
# 5 0.000000 0.000000 0.000000 0.000000 0.026160 0.000000
# 6 0.000000 0.000000 0.000000 0.000000 0.000000 0.034615
#
#
# Mechanical properties :
#
#
# Convention : Reuss Voigt Hill
#
# Bulk Modulus (GPa) = 40.40742 53.69426 47.05084
# Shear Modulus (GPa) = 27.87303 31.81402 29.84353
#
# Velocity S-wave (km/s) = 3.73191 3.98702 3.86157
# Velocity P-wave (km/s) = 6.22572 6.92994 6.58725
#
# Compressibility (1/GPa) = 0.02474793
#
# Stress axis : x y z
#
# Youngs Moduli (GPa) = 129.70240 68.25110 52.15071
#
# Poissons Ratio (x) = 0.30113 0.08594
# Poissons Ratio (y) = 0.57226 0.12175
# Poissons Ratio (z) = 0.21374 0.15933
#
# Static dielectric constant tensor:
#      x y z
#    x 1.673640 0.000000 0.000000 
#    y 0.000000 1.731270 0.000000 
#    z 0.000000 0.000000 1.770940 
# 
# From -- ./inp_files/32735.got.cif
#   From: 2010.05.17/outbox.cif.g08.bks.cpg/sg24_17_cif.got.tgz:32735.got - 2010.06.04 00:33:39.
