data_PCOD9332825
_publ_section_title
;
Structure prediction by ZEFSAII (Michael W. Deem and Ramdas Pophale) SiO2 
 PCOD9332825
Probable space group: I 21 21 21
;
_chemical_formula_sum "Si O2"
_cell_formula_units_Z 60
_cell_length_a 10.871425
_cell_length_b 23.305456
_cell_length_c 12.909362
_cell_angle_alpha 90.000000
_cell_angle_beta 90.000000
_cell_angle_gamma 90.000000
_cell_volume 3270.761358
_symmetry_space_group_name_H-M "I 21 21 21"
_symmetry_group_IT_number 24
_symmetry_cell_setting 'orthorhombic'
loop_
_space_group_symop_operation_xyz
x,y,z
-x,1/2-y,z
x,-y,1/2-z
1/2-x,y,-z
1/2+x,1/2+y,1/2+z
1/2-x,-y,1/2+z
1/2+x,1/2-y,-z
-x,1/2+y,1/2-z
loop_
_atom_site_type_symbol
_atom_site_label
_atom_site_fract_x
_atom_site_fract_y
_atom_site_fract_z
Si Si1 0.738420 0.129829 0.774672
Si Si2 0.500738 0.432746 0.223596
Si Si3 0.121724 0.070410 0.451632
Si Si4 0.021372 0.066902 0.233842
Si Si5 0.577748 0.338800 0.382351
Si Si6 0.310865 0.279357 0.387707
Si Si7 0.750000 0.892087 0.500000
Si Si8 0.491156 0.952094 0.508256
O O1 0.857388 0.087559 0.760969
O O2 0.607390 0.099958 0.755692
O O3 0.743596 0.184289 0.700338
O O4 0.751973 0.144888 0.895973
O O5 0.511289 0.500000 0.250000
O O6 0.574460 0.389271 0.297247
O O7 0.546104 0.428675 0.104364
O O8 0.250000 0.049038 0.500000
O O9 0.097073 0.129675 0.509034
O O10 0.113574 0.079524 0.328463
O O11 0.026175 0.020624 0.484431
O O12 0.067571 0.072286 0.114921
O O13 0.991783 0.000000 0.250000
O O14 0.445796 0.308055 0.387167
O O15 0.674248 0.288010 0.363941
O O16 0.250000 0.286402 0.500000
O O17 0.633080 0.933370 0.512080
#
# Coordination Sequence:
#
# PCOD9332825 Si02
#       8
#     8   8   8   8   8   8   4   8
#     4   9  17  30  55  84 109 142 174 233 294 335
#     4  10  17  31  53  81 113 144 184 226 279 345
#     4  11  21  35  51  73 109 153 189 221 271 331
#     4   9  18  33  51  80 114 142 182 228 283 341
#     4  10  21  35  52  78 106 145 189 233 272 331
#     4  10  20  35  54  77 107 140 186 235 282 325
#     4   8  16  32  58  84 116 136 172 236 294 352
#     4   9  18  34  51  82 111 146 179 228 287 336
#
# _framework density 18.344353000000002
#
# number of rings (size 3 to 8) (size 9 to 14) (size 15 to 20)
#    0.000    2.400    1.333    1.600    0.000    1.067 
#    8.400    0.000    0.000    3.200    0.000   11.200 
#    0.000    0.000    0.000    0.000    0.000    0.000 
#
# Total GULP energy -167047.423895 kJ/mol
# GULP energy per Si atom -5568.247463 kJ/mol
# Density = 1.830260 g / cm^3
# Si number density = 18.344353 Si / 1000 Ang^3
#
#
#
# Elastic Constant Matrix: (Units=GPa)
#
#
# Indices 1 2 3 4 5 6 
#
# 1 27.9756 20.5900 47.2820 0.0000 0.0000 0.0000
# 2 20.5900 116.5334 76.1102 -0.0002 0.0001 0.0001
# 3 47.2820 76.1102 174.1258 0.0000 0.0001 0.0001
# 4 0.0000 -0.0002 0.0000 27.1826 0.0001 0.0001
# 5 0.0000 0.0001 0.0001 0.0001 15.5484 0.0000
# 6 0.0000 0.0001 0.0001 0.0001 0.0000 12.9969
#
#
#
# Elastic Compliance Matrix: (Units=1/GPa)
#
#
# Indices 1 2 3 4 5 6 
#
# 1 0.066065 0.000061 -0.017966 0.000000 0.000000 0.000000
# 2 0.000061 0.012010 -0.005266 0.000000 0.000000 0.000000
# 3 -0.017966 -0.005266 0.012923 0.000000 0.000000 0.000000
# 4 0.000000 0.000000 0.000000 0.036788 0.000000 0.000000
# 5 0.000000 0.000000 0.000000 0.000000 0.064315 0.000000
# 6 0.000000 0.000000 0.000000 0.000000 0.000000 0.076942
#
#
# Mechanical properties :
#
#
# Convention : Reuss Voigt Hill
#
# Bulk Modulus (GPa) = 22.39337 67.39991 44.89664
# Shear Modulus (GPa) = 15.13912 22.78908 18.96410
#
# Velocity S-wave (km/s) = 2.87587 3.52844 3.21874
# Velocity P-wave (km/s) = 4.82299 7.30898 6.19203
#
# Compressibility (1/GPa) = 0.04465608
#
# Stress axis : x y z
#
# Youngs Moduli (GPa) = 15.13664 83.26530 77.38025
#
# Poissons Ratio (x) = -0.00508 1.39020
# Poissons Ratio (y) = -0.00092 0.40749
# Poissons Ratio (z) = 0.27194 0.43848
#
# Static dielectric constant tensor:
#      x y z
#    x 1.677380 0.000000 0.000000 
#    y 0.000000 1.600780 0.000000 
#    z 0.000000 0.000000 1.684930 
# 
# From -- ./inp_files/20127.got.cif
#   From: 2010.05.17/outbox.cif.g08.bks.cpg/sg24_11_cif.got.tgz:20127.got - 2010.06.04 00:33:39.
