data_PCOD9332050
_publ_section_title
;
Structure prediction by ZEFSAII (Michael W. Deem and Ramdas Pophale) SiO2 
 PCOD9332050
Probable space group: I 2 2 2
;
_chemical_formula_sum "Si O2"
_cell_formula_units_Z 48
_cell_length_a 14.174590
_cell_length_b 17.229494
_cell_length_c 9.598375
_cell_angle_alpha 90.000000
_cell_angle_beta 90.000000
_cell_angle_gamma 90.000000
_cell_volume 2344.124869
_symmetry_space_group_name_H-M "I 2 2 2"
_symmetry_group_IT_number 23
_symmetry_cell_setting 'orthorhombic'
loop_
_space_group_symop_operation_xyz
x,y,z
-x,-y,z
x,-y,-z
-x,y,-z
1/2+x,1/2+y,1/2+z
1/2-x,1/2-y,1/2+z
1/2+x,1/2-y,1/2-z
1/2-x,1/2+y,1/2-z
loop_
_atom_site_type_symbol
_atom_site_label
_atom_site_fract_x
_atom_site_fract_y
_atom_site_fract_z
Si Si1 0.997289 0.591604 0.332492
Si Si2 0.000000 0.000000 0.223550
Si Si3 0.810753 0.793032 0.039054
Si Si4 0.000000 0.126517 0.000000
Si Si5 0.200752 0.569552 0.612245
Si Si6 0.803901 0.972142 0.344632
Si Si7 0.817228 0.679141 0.782304
O O1 0.082118 0.642574 0.268757
O O2 0.000000 0.500000 0.291215
O O3 0.000000 0.597792 0.500000
O O4 0.887548 0.610685 0.310407
O O5 0.914858 0.968331 0.315122
O O6 0.035439 0.931328 0.121310
O O7 0.916420 0.823494 0.068180
O O8 0.757318 0.867149 0.973370
O O9 0.825007 0.728564 0.921769
O O10 0.740214 0.771894 0.165170
O O11 0.174366 0.500000 0.500000
O O12 0.261735 0.530518 0.731267
O O13 0.751624 0.892223 0.314374
O O14 0.785138 0.000000 0.500000
#
# Coordination Sequence:
#
# PCOD9332050 Si02
#       7
#     8   4   8   4   8   8   8
#     4  11  18  39  74 104 125 172 245 292 330 404
#     4  11  21  42  76 100 128 172 242 296 332 400
#     4  12  26  44  67 100 144 187 226 280 358 417
#     4  11  22  42  72 100 125 180 240 282 333 416
#     4  12  20  43  77  98 130 184 242 288 340 413
#     4  12  25  43  69 106 137 174 232 297 350 400
#     4  12  27  45  66 104 144 186 227 284 356 419
#
# _framework density 20.476724999999998
#
# number of rings (size 3 to 8) (size 9 to 14) (size 15 to 20)
#    0.000    0.333   10.000    0.250    2.333    1.333 
#    0.000    0.833    0.000    0.000    0.000    0.000 
#    0.000    0.000    0.000    0.000    0.000    0.000 
#
# Total GULP energy -133950.978319 kJ/mol
# GULP energy per Si atom -5581.290763 kJ/mol
# Density = 2.043012 g / cm^3
# Si number density = 20.476725 Si / 1000 Ang^3
#
#
#
# Elastic Constant Matrix: (Units=GPa)
#
#
# Indices 1 2 3 4 5 6 
#
# 1 135.6961 26.4120 22.2755 0.0000 0.0000 0.0000
# 2 26.4120 34.7720 11.5412 0.0000 0.0000 0.0000
# 3 22.2755 11.5412 86.8992 0.0000 0.0000 0.0000
# 4 0.0000 0.0000 0.0000 28.5198 0.0000 0.0000
# 5 0.0000 0.0000 0.0000 0.0000 93.1286 0.0000
# 6 0.0000 0.0000 0.0000 0.0000 0.0000 12.6512
#
#
#
# Elastic Compliance Matrix: (Units=1/GPa)
#
#
# Indices 1 2 3 4 5 6 
#
# 1 0.008815 -0.006220 -0.001434 0.000000 0.000000 0.000000
# 2 -0.006220 0.034474 -0.002984 0.000000 0.000000 0.000000
# 3 -0.001434 -0.002984 0.012271 0.000000 0.000000 0.000000
# 4 0.000000 0.000000 0.000000 0.035063 0.000000 0.000000
# 5 0.000000 0.000000 0.000000 0.000000 0.010738 0.000000
# 6 0.000000 0.000000 0.000000 0.000000 0.000000 0.079044
#
#
# Mechanical properties :
#
#
# Convention : Reuss Voigt Hill
#
# Bulk Modulus (GPa) = 29.16722 41.98049 35.57386
# Shear Modulus (GPa) = 23.46206 40.00249 31.73228
#
# Velocity S-wave (km/s) = 3.38863 4.42470 3.94086
# Velocity P-wave (km/s) = 5.43925 6.83009 6.17396
#
# Compressibility (1/GPa) = 0.03428506
#
# Stress axis : x y z
#
# Youngs Moduli (GPa) = 113.43729 29.00744 81.49033
#
# Poissons Ratio (x) = 0.18043 0.11683
# Poissons Ratio (y) = 0.70560 0.24317
# Poissons Ratio (z) = 0.16263 0.08656
#
# Static dielectric constant tensor:
#      x y z
#    x 1.808310 0.000000 0.000000 
#    y 0.000000 1.728420 0.000000 
#    z 0.000000 0.000000 1.750400 
# 
# From -- ./inp_files/9978.got.cif
#   From: 2010.05.17/outbox.cif.g08.bks.cpg/sg23_5_cif.got.tgz:9978.got - 2010.06.04 12:02:01.
