data_PCOD9332400
_publ_section_title
;
Structure prediction by ZEFSAII (Michael W. Deem and Ramdas Pophale) SiO2 
 PCOD9332400
Probable space group: I 2 2 2
;
_chemical_formula_sum "Si O2"
_cell_formula_units_Z 64
_cell_length_a 16.924030
_cell_length_b 11.570489
_cell_length_c 13.485290
_cell_angle_alpha 90.000000
_cell_angle_beta 90.000000
_cell_angle_gamma 90.000000
_cell_volume 2640.680088
_symmetry_space_group_name_H-M "I 2 2 2"
_symmetry_group_IT_number 23
_symmetry_cell_setting 'orthorhombic'
loop_
_space_group_symop_operation_xyz
x,y,z
-x,-y,z
x,-y,-z
-x,y,-z
1/2+x,1/2+y,1/2+z
1/2-x,1/2-y,1/2+z
1/2+x,1/2-y,1/2-z
1/2-x,1/2+y,1/2-z
loop_
_atom_site_type_symbol
_atom_site_label
_atom_site_fract_x
_atom_site_fract_y
_atom_site_fract_z
Si Si1 0.084551 0.560764 0.595247
Si Si2 0.736672 0.618945 0.060999
Si Si3 0.449942 0.189390 0.373128
Si Si4 0.395868 0.655159 0.793737
Si Si5 0.169570 0.916227 0.752422
Si Si6 0.162687 0.477448 0.795364
Si Si7 0.118297 0.757671 0.935491
Si Si8 0.950258 0.166603 0.597235
O O1 0.124710 0.500000 0.500000
O O2 0.126193 0.527282 0.696105
O O3 0.068547 0.697184 0.586431
O O4 0.000000 0.500000 0.602086
O O5 0.655325 0.667441 0.105274
O O6 0.791225 0.582308 0.153341
O O7 0.796937 0.712821 0.020268
O O8 0.727303 0.500000 0.000000
O O9 0.411391 0.231677 0.270276
O O10 0.401093 0.069953 0.375596
O O11 0.544841 0.184091 0.383424
O O12 0.423388 0.278968 0.458150
O O13 0.354642 0.550595 0.735915
O O14 0.485949 0.630077 0.820620
O O15 0.262708 0.897057 0.735683
O O16 0.139071 0.847093 0.848145
O O17 0.128887 0.884153 0.646237
O O18 0.000000 0.130878 0.500000
#
# Coordination Sequence:
#
# PCOD9332400 Si02
#       8
#     8   8   8   8   8   8   8   8
#     4  11  24  46  71 110 145 187 247 309 390 447
#     4  11  24  46  69 106 145 184 244 310 371 450
#     4  11  24  43  70 105 138 194 240 299 369 444
#     4  11  26  45  69 101 141 192 248 301 366 436
#     4  11  26  48  69 103 145 194 247 310 369 436
#     4  11  25  45  70 104 146 191 243 305 375 454
#     4  11  24  44  69 103 144 187 242 301 372 448
#     4  12  25  44  77 105 142 194 245 313 372 450
#
# _framework density 24.236180999999998
#
# number of rings (size 3 to 8) (size 9 to 14) (size 15 to 20)
#    0.000    0.875    3.750    2.625    5.250    2.000 
#    6.750    1.250    0.000    0.000    0.000    0.000 
#    0.000    0.000    0.000    0.000    0.000    0.000 
#
# Total GULP energy -178317.066201 kJ/mol
# GULP energy per Si atom -5572.408319 kJ/mol
# Density = 2.418102 g / cm^3
# Si number density = 24.236181 Si / 1000 Ang^3
#
#
#
# Elastic Constant Matrix: (Units=GPa)
#
#
# Indices 1 2 3 4 5 6 
#
# 1 129.8082 16.4916 14.1966 0.0000 0.0000 0.0000
# 2 16.4916 40.0504 -8.4855 0.0000 0.0000 0.0000
# 3 14.1966 -8.4855 71.1344 0.0000 0.0000 0.0000
# 4 0.0000 0.0000 0.0000 40.9700 0.0000 0.0000
# 5 0.0000 0.0000 0.0000 0.0000 29.3599 0.0000
# 6 0.0000 0.0000 0.0000 0.0000 0.0000 12.5523
#
#
#
# Elastic Compliance Matrix: (Units=1/GPa)
#
#
# Indices 1 2 3 4 5 6 
#
# 1 0.008439 -0.003931 -0.002153 0.000000 0.000000 0.000000
# 2 -0.003931 0.027447 0.004059 0.000000 0.000000 0.000000
# 3 -0.002153 0.004059 0.014972 0.000000 0.000000 0.000000
# 4 0.000000 0.000000 0.000000 0.024408 0.000000 0.000000
# 5 0.000000 0.000000 0.000000 0.000000 0.034060 0.000000
# 6 0.000000 0.000000 0.000000 0.000000 0.000000 0.079666
#
#
# Mechanical properties :
#
#
# Convention : Reuss Voigt Hill
#
# Bulk Modulus (GPa) = 21.36444 31.71093 26.53769
# Shear Modulus (GPa) = 23.96418 31.16248 27.56333
#
# Velocity S-wave (km/s) = 3.14789 3.58967 3.37602
# Velocity P-wave (km/s) = 4.69538 5.50396 5.11567
#
# Compressibility (1/GPa) = 0.04680674
#
# Stress axis : x y z
#
# Youngs Moduli (GPa) = 118.50380 36.43375 66.79255
#
# Poissons Ratio (x) = 0.14322 0.14381
# Poissons Ratio (y) = 0.46583 -0.27109
# Poissons Ratio (z) = 0.25514 -0.14787
#
# Static dielectric constant tensor:
#      x y z
#    x 2.233260 0.000000 0.000000 
#    y 0.000000 2.136380 0.000000 
#    z 0.000000 0.000000 2.019540 
# 
# From -- ./inp_files/22183.got.cif
#   From: 2010.05.17/outbox.cif.g08.bks.cpg/sg23_12_cif.got.tgz:22183.got - 2010.06.04 12:02:01.
