data_PCOD9332661
_publ_section_title
;
Structure prediction by ZEFSAII (Michael W. Deem and Ramdas Pophale) SiO2 
 PCOD9332661
Probable space group: I 2 2 2
;
_chemical_formula_sum "Si O2"
_cell_formula_units_Z 20
_cell_length_a 12.000000
_cell_length_b 9.000000
_cell_length_c 18.000000
_cell_angle_alpha 90.000000
_cell_angle_beta 90.000000
_cell_angle_gamma 90.000000
_cell_volume 1944.000000
_symmetry_space_group_name_H-M "I 2 2 2"
_symmetry_group_IT_number 23
_symmetry_cell_setting 'orthorhombic'
loop_
_space_group_symop_operation_xyz
x,y,z
-x,-y,z
x,-y,-z
-x,y,-z
1/2+x,1/2+y,1/2+z
1/2-x,1/2-y,1/2+z
1/2+x,1/2-y,1/2-z
1/2-x,1/2+y,1/2-z
loop_
_atom_site_type_symbol
_atom_site_label
_atom_site_fract_x
_atom_site_fract_y
_atom_site_fract_z
Si Si1 0.280145 0.285073 0.615558
Si Si2 0.624782 0.175417 0.525879
Si Si3 0.596237 0.877885 0.746273
Si Si4 0.554208 0.649804 0.184576
Si Si5 0.322927 0.389824 0.337395
O O1 0.286546 0.244568 0.529994
O O2 0.365672 0.191633 0.667823
O O3 0.158798 0.232018 0.645806
O O4 0.322453 0.454756 0.619637
O O5 0.500000 0.223461 0.500000
O O6 0.655606 0.246790 0.607535
O O7 0.628597 0.000000 0.500000
O O8 0.544781 0.763378 0.804506
O O9 0.709321 0.916483 0.789298
O O10 0.500000 0.000000 0.733857
O O11 0.500000 0.500000 0.151311
O O12 0.590392 0.618841 0.269911
#
# Coordination Sequence:
#
# PCOD9332661 Si02
#       5
#     8   8   8   8   8
#     4  11  24  41  67  97 131 175 222 275 332 407
#     4  11  27  43  65  95 135 174 219 281 342 401
#     4  11  23  40  68  97 133 168 219 278 336 394
#     4  11  23  40  68 100 131 170 222 278 337 392
#     4  11  24  42  65  99 130 175 225 272 332 412
#
# _framework density 10.288066000000001
#
# number of rings (size 3 to 8) (size 9 to 14) (size 15 to 20)
#    0.000    1.000    4.000    1.800    8.400    0.800 
#    0.000    1.000    0.000    0.000    0.000    0.000 
#    0.000    0.000    0.000    0.000    0.000    0.000 
#
# Total GULP energy -111339.439946 kJ/mol
# GULP energy per Si atom -5566.971997 kJ/mol
# Density = 1.026465 g / cm^3
# Si number density = 10.288066 Si / 1000 Ang^3
#
#
#
# Elastic Constant Matrix: (Units=GPa)
#
#
# Indices 1 2 3 4 5 6 
#
# 1 17.8155 -15.3208 13.0459 0.0000 0.0000 0.0000
# 2 -15.3208 72.2288 -2.0901 0.0000 0.0000 0.0000
# 3 13.0459 -2.0901 68.4786 0.0000 0.0000 0.0000
# 4 0.0000 0.0000 0.0000 36.8525 0.0000 0.0000
# 5 0.0000 0.0000 0.0000 0.0000 18.9060 0.0000
# 6 0.0000 0.0000 0.0000 0.0000 0.0000 26.4146
#
#
#
# Elastic Compliance Matrix: (Units=1/GPa)
#
#
# Indices 1 2 3 4 5 6 
#
# 1 0.081670 0.016888 -0.015044 0.000000 0.000000 0.000000
# 2 0.016888 0.017349 -0.002688 0.000000 0.000000 0.000000
# 3 -0.015044 -0.002688 0.017387 0.000000 0.000000 0.000000
# 4 0.000000 0.000000 0.000000 0.027135 0.000000 0.000000
# 5 0.000000 0.000000 0.000000 0.000000 0.052893 0.000000
# 6 0.000000 0.000000 0.000000 0.000000 0.000000 0.037858
#
#
# Mechanical properties :
#
#
# Convention : Reuss Voigt Hill
#
# Bulk Modulus (GPa) = 8.71688 16.64366 12.68027
# Shear Modulus (GPa) = 18.23359 27.29384 22.76371
#
# Velocity S-wave (km/s) = 2.98006 3.64604 3.32974
# Velocity P-wave (km/s) = 4.01081 5.08244 4.57809
#
# Compressibility (1/GPa) = 0.11471995
#
# Stress axis : x y z
#
# Youngs Moduli (GPa) = 12.24438 57.63909 57.51413
#
# Poissons Ratio (x) = -0.97342 0.86522
# Poissons Ratio (y) = -0.20678 0.15459
# Poissons Ratio (z) = 0.18420 0.15492
#
# Static dielectric constant tensor:
#      x y z
#    x 1.663880 0.000000 0.000000 
#    y 0.000000 1.866840 0.000000 
#    z 0.000000 0.000000 1.731220 
# 
# From -- ./inp_files/8174.got.cif
#   From: 2010.05.17/outbox.ucp.g08.bks.cvg/sg23_5_cif.got.tgz:8174.got - 2010.06.11 15:19:07.
