data_PCOD9332627
_publ_section_title
;
Structure prediction by ZEFSAII (Michael W. Deem and Ramdas Pophale) SiO2 
 PCOD9332627
Probable space group: I 2 2 2
;
_chemical_formula_sum "Si O2"
_cell_formula_units_Z 20
_cell_length_a 9.000000
_cell_length_b 27.000000
_cell_length_c 9.000000
_cell_angle_alpha 90.000000
_cell_angle_beta 90.000000
_cell_angle_gamma 90.000000
_cell_volume 2187.000000
_symmetry_space_group_name_H-M "I 2 2 2"
_symmetry_group_IT_number 23
_symmetry_cell_setting 'orthorhombic'
loop_
_space_group_symop_operation_xyz
x,y,z
-x,-y,z
x,-y,-z
-x,y,-z
1/2+x,1/2+y,1/2+z
1/2-x,1/2-y,1/2+z
1/2+x,1/2-y,1/2-z
1/2-x,1/2+y,1/2-z
loop_
_atom_site_type_symbol
_atom_site_label
_atom_site_fract_x
_atom_site_fract_y
_atom_site_fract_z
Si Si1 0.869520 0.195347 0.790714
Si Si2 0.938092 0.550862 0.831525
Si Si3 0.106520 0.647088 0.863963
Si Si4 0.786347 0.784071 0.865756
Si Si5 0.652879 0.400070 0.084889
O O1 0.779988 0.229992 0.673861
O O2 0.871229 0.140820 0.715114
O O3 0.042461 0.211402 0.809963
O O4 0.795450 0.201928 0.956975
O O5 0.760100 0.557324 0.845019
O O6 0.000000 0.500000 0.759968
O O7 0.010948 0.603354 0.783260
O O8 0.000000 0.549178 0.000000
O O9 0.178183 0.681988 0.738229
O O10 0.243722 0.624007 0.956300
O O11 0.000000 0.667957 0.000000
O O12 0.500000 0.414215 0.000000
#
# Coordination Sequence:
#
# PCOD9332627 Si02
#       5
#     8   8   8   8   8
#     4  11  25  37  57  84 119 161 209 254 300 363
#     4   8  17  34  57  86 117 145 189 245 307 365
#     4   9  19  35  58  79 119 155 195 243 303 355
#     4  11  24  39  56  83 120 165 209 251 303 361
#     4  10  18  35  58  84 115 153 196 253 301 361
#
# _framework density 9.1449470000000002
#
# number of rings (size 3 to 8) (size 9 to 14) (size 15 to 20)
#    0.000    2.600    2.000    1.200    8.400    0.000 
#    0.000    8.000    0.000    2.400    0.000    2.800 
#    0.000    0.000    0.000    0.000    0.000    0.000 
#
# Total GULP energy -111376.043648 kJ/mol
# GULP energy per Si atom -5568.802182 kJ/mol
# Density = 0.912413 g / cm^3
# Si number density = 9.144947 Si / 1000 Ang^3
#
#
#
# Elastic Constant Matrix: (Units=GPa)
#
#
# Indices 1 2 3 4 5 6 
#
# 1 139.1734 42.0106 30.4622 -0.0001 -0.0007 -0.0001
# 2 42.0106 82.8466 24.5429 0.0006 0.0004 0.0001
# 3 30.4622 24.5429 71.4778 0.0022 0.0041 0.0001
# 4 -0.0001 0.0006 0.0022 16.0719 0.0003 -0.0001
# 5 -0.0007 0.0004 0.0041 0.0003 35.2159 0.0005
# 6 -0.0001 0.0001 0.0001 -0.0001 0.0005 24.2859
#
#
#
# Elastic Compliance Matrix: (Units=1/GPa)
#
#
# Indices 1 2 3 4 5 6 
#
# 1 0.008864 -0.003758 -0.002487 0.000001 0.000001 0.000000
# 2 -0.003758 0.015031 -0.003559 0.000000 0.000000 0.000000
# 3 -0.002487 -0.003559 0.016273 -0.000002 -0.000002 0.000000
# 4 0.000001 0.000000 -0.000002 0.062220 -0.000001 0.000000
# 5 0.000001 0.000000 -0.000002 -0.000001 0.028396 -0.000001
# 6 0.000000 0.000000 0.000000 0.000000 -0.000001 0.041176
#
#
# Mechanical properties :
#
#
# Convention : Reuss Voigt Hill
#
# Bulk Modulus (GPa) = 48.64328 54.16990 51.40659
# Shear Modulus (GPa) = 25.19883 28.21356 26.70619
#
# Velocity S-wave (km/s) = 3.71583 3.93183 3.82535
# Velocity P-wave (km/s) = 6.71292 7.09183 6.90497
#
# Compressibility (1/GPa) = 0.02055783
#
# Stress axis : x y z
#
# Youngs Moduli (GPa) = 112.81469 66.53093 61.45323
#
# Poissons Ratio (x) = 0.25003 0.15285
# Poissons Ratio (y) = 0.42396 0.21873
# Poissons Ratio (z) = 0.28060 0.23681
#
# Static dielectric constant tensor:
#      x y z
#    x 1.658450 0.000000 0.000000 
#    y 0.000000 1.760220 0.000000 
#    z 0.000000 0.000000 1.610530 
# 
# From -- ./inp_files/7092.got.cif
#   From: 2010.05.17/outbox.ucp.g08.bks.cvg/sg23_4_cif.got.tgz:7092.got - 2010.06.11 15:19:07.
