data_PCOD9332726
_publ_section_title
;
Structure prediction by ZEFSAII (Michael W. Deem and Ramdas Pophale) SiO2 
 PCOD9332726
Probable space group: I 21 21 21
;
_chemical_formula_sum "Si O2"
_cell_formula_units_Z 48
_cell_length_a 24.169891
_cell_length_b 7.657287
_cell_length_c 11.987753
_cell_angle_alpha 90.000000
_cell_angle_beta 90.000000
_cell_angle_gamma 90.000000
_cell_volume 2218.642883
_symmetry_space_group_name_H-M "I 21 21 21"
_symmetry_group_IT_number 24
_symmetry_cell_setting 'orthorhombic'
loop_
_space_group_symop_operation_xyz
x,y,z
-x,1/2-y,z
x,-y,1/2-z
1/2-x,y,-z
1/2+x,1/2+y,1/2+z
1/2-x,-y,1/2+z
1/2+x,1/2-y,-z
-x,1/2+y,1/2-z
loop_
_atom_site_type_symbol
_atom_site_label
_atom_site_fract_x
_atom_site_fract_y
_atom_site_fract_z
Si Si1 0.208531 0.315863 0.185109
Si Si2 0.671966 0.798651 0.291356
Si Si3 0.040573 0.593701 0.137755
Si Si4 0.875909 0.905469 0.500975
Si Si5 0.813907 0.721566 0.956155
Si Si6 0.133950 0.865975 0.164200
O O1 0.210224 0.500000 0.250000
O O2 0.269827 0.276758 0.143890
O O3 0.160336 0.314481 0.094831
O O4 0.192023 0.180777 0.279772
O O5 0.625057 0.792832 0.385615
O O6 0.676431 0.691165 0.175831
O O7 0.669779 0.000000 0.250000
O O8 0.019761 0.500000 0.250000
O O9 0.063648 0.459424 0.045174
O O10 0.096455 0.694938 0.171161
O O11 0.000000 0.750000 0.099582
O O12 0.840481 0.085199 0.522011
O O13 0.750000 0.721296 0.000000
O O14 0.851094 0.597931 0.036177
O O15 0.107395 0.000000 0.250000
#
# Coordination Sequence:
#
# PCOD9332726 Si02
#       6
#     8   8   8   8   8   8
#     4  11  15  30  52  76 112 150 187 238 293 350
#     4   9  17  25  51  84 109 150 193 234 286 357
#     4  11  21  37  58  83 112 148 197 262 323 372
#     4  10  17  29  51  84 112 138 191 250 294 367
#     4  10  16  30  50  76 115 153 192 236 284 355
#     4  11  21  33  52  78 119 157 193 244 304 358
#
# _framework density 21.634848000000002
#
# number of rings (size 3 to 8) (size 9 to 14) (size 15 to 20)
#    0.000    1.667    6.667    3.000    0.000    0.000 
#    0.000    1.667    0.000    0.000    0.000   29.167 
#    0.000    0.000    0.000    0.000    0.000    0.000 
#
# Total GULP energy -133660.455238 kJ/mol
# GULP energy per Si atom -5569.185635 kJ/mol
# Density = 2.158561 g / cm^3
# Si number density = 21.634848 Si / 1000 Ang^3
#
#
#
# Elastic Constant Matrix: (Units=GPa)
#
#
# Indices 1 2 3 4 5 6 
#
# 1 66.9694 7.3896 47.1289 0.0000 0.0000 0.0000
# 2 7.3896 34.6916 28.2267 0.0000 0.0000 0.0000
# 3 47.1289 28.2267 169.7904 0.0000 0.0000 0.0000
# 4 0.0000 0.0000 0.0000 21.8259 0.0000 0.0000
# 5 0.0000 0.0000 0.0000 0.0000 8.1472 0.0000
# 6 0.0000 0.0000 0.0000 0.0000 0.0000 -10.4299
#
#
#
# Elastic Compliance Matrix: (Units=1/GPa)
#
#
# Indices 1 2 3 4 5 6 
#
# 1 0.018559 0.000275 -0.005197 0.000000 0.000000 0.000000
# 2 0.000275 0.033338 -0.005619 0.000000 0.000000 0.000000
# 3 -0.005197 -0.005619 0.008266 0.000000 0.000000 0.000000
# 4 0.000000 0.000000 0.000000 0.045817 0.000000 0.000000
# 5 0.000000 0.000000 0.000000 0.000000 0.122742 0.000000
# 6 0.000000 0.000000 0.000000 0.000000 0.000000 -0.095878
#
#
# Mechanical properties :
#
#
# Convention : Reuss Voigt Hill
#
# Bulk Modulus (GPa) = 25.58667 48.54909 37.06788
# Shear Modulus (GPa) = 29.94845 16.48905 23.21875
#
# Velocity S-wave (km/s) = 3.72461 2.76371 3.27954
# Velocity P-wave (km/s) = 5.50902 5.71603 5.61348
#
# Compressibility (1/GPa) = 0.03908286
#
# Stress axis : x y z
#
# Youngs Moduli (GPa) = 53.88120 29.99537 120.97251
#
# Poissons Ratio (x) = -0.00826 0.62873
# Poissons Ratio (y) = -0.01484 0.67972
# Poissons Ratio (z) = 0.28004 0.16854
#
# Static dielectric constant tensor:
#      x y z
#    x 1.779270 0.000000 0.000000 
#    y 0.000000 2.333380 0.000000 
#    z 0.000000 0.000000 1.954930 
# 
# From -- ./inp_files/22587.got.cif
#   From: 2010.05.17/outbox.cif.g08.bks.cpg/sg24_12_cif.got.tgz:22587.got - 2010.06.04 00:33:39.
