data_PCOD9332430
_publ_section_title
;
Structure prediction by ZEFSAII (Michael W. Deem and Ramdas Pophale) SiO2 
 PCOD9332430
Probable space group: I 2 2 2
;
_chemical_formula_sum "Si O2"
_cell_formula_units_Z 34
_cell_length_a 18.720065
_cell_length_b 7.145454
_cell_length_c 10.283664
_cell_angle_alpha 90.000000
_cell_angle_beta 90.000000
_cell_angle_gamma 90.000000
_cell_volume 1375.577484
_symmetry_space_group_name_H-M "I 2 2 2"
_symmetry_group_IT_number 23
_symmetry_cell_setting 'orthorhombic'
loop_
_space_group_symop_operation_xyz
x,y,z
-x,-y,z
x,-y,-z
-x,y,-z
1/2+x,1/2+y,1/2+z
1/2-x,1/2-y,1/2+z
1/2+x,1/2-y,1/2-z
1/2-x,1/2+y,1/2-z
loop_
_atom_site_type_symbol
_atom_site_label
_atom_site_fract_x
_atom_site_fract_y
_atom_site_fract_z
Si Si1 0.107353 0.100816 0.748293
Si Si2 0.388649 0.000000 0.500000
Si Si3 0.840377 0.000000 0.500000
Si Si4 0.273141 0.302730 0.427227
Si Si5 0.500000 0.000000 0.000000
Si Si6 0.541322 0.204547 0.261672
O O1 0.109889 0.116127 0.594772
O O2 0.187764 0.150015 0.791866
O O3 0.038007 0.214435 0.792546
O O4 0.091003 0.885609 0.776557
O O5 0.337576 0.180000 0.486078
O O6 0.431305 0.060310 0.629409
O O7 0.791411 0.843763 0.429239
O O8 0.258730 0.500000 0.500000
O O9 0.458133 0.877477 0.113028
#
# Coordination Sequence:
#
# PCOD9332430 Si02
#       6
#     8   4   4   8   2   8
#     4  11  25  49  74 109 151 196 250 314 382 453
#     4  11  24  48  78 115 142 196 256 318 386 444
#     4  11  28  46  76 104 154 209 252 300 380 461
#     4  11  25  47  74 107 144 196 256 314 361 443
#     4  12  24  40  64 108 152 196 232 288 382 476
#     4  11  25  47  78 110 156 192 247 319 392 454
#
# _framework density 24.716892999999999
#
# number of rings (size 3 to 8) (size 9 to 14) (size 15 to 20)
#    0.000    0.941    2.353    2.824    3.294    7.059 
#    8.471    0.000    0.000    0.000    0.000    0.000 
#    0.000    0.000    0.000    0.000    0.000    0.000 
#
# Total GULP energy -94772.358413 kJ/mol
# GULP energy per Si atom -5574.844613 kJ/mol
# Density = 2.466064 g / cm^3
# Si number density = 24.716893 Si / 1000 Ang^3
#
#
#
# Elastic Constant Matrix: (Units=GPa)
#
#
# Indices 1 2 3 4 5 6 
#
# 1 71.3104 38.8122 8.2684 0.0000 0.0000 0.0000
# 2 38.8122 173.3762 54.0049 0.0000 0.0000 0.0000
# 3 8.2684 54.0049 98.4318 0.0000 0.0000 0.0000
# 4 0.0000 0.0000 0.0000 46.3990 0.0000 0.0000
# 5 0.0000 0.0000 0.0000 0.0000 20.4689 0.0000
# 6 0.0000 0.0000 0.0000 0.0000 0.0000 -127.6197
#
#
#
# Elastic Compliance Matrix: (Units=1/GPa)
#
#
# Indices 1 2 3 4 5 6 
#
# 1 0.016015 -0.003819 0.000750 0.000000 0.000000 0.000000
# 2 -0.003819 0.007867 -0.003996 0.000000 0.000000 0.000000
# 3 0.000750 -0.003996 0.012289 0.000000 0.000000 0.000000
# 4 0.000000 0.000000 0.000000 0.021552 0.000000 0.000000
# 5 0.000000 0.000000 0.000000 0.000000 0.048855 0.000000
# 6 0.000000 0.000000 0.000000 0.000000 0.000000 -0.007836
#
#
# Mechanical properties :
#
#
# Convention : Reuss Voigt Hill
#
# Bulk Modulus (GPa) = 45.36873 60.58773 52.97823
# Shear Modulus (GPa) = 41.59128 3.98515 22.78821
#
# Velocity S-wave (km/s) = 4.10653 1.27115 3.03969
# Velocity P-wave (km/s) = 6.39375 5.16917 5.81379
#
# Compressibility (1/GPa) = 0.02204161
#
# Stress axis : x y z
#
# Youngs Moduli (GPa) = 62.44296 127.10934 81.37665
#
# Poissons Ratio (x) = 0.48538 -0.06102
# Poissons Ratio (y) = 0.23845 0.32515
# Poissons Ratio (z) = -0.04682 0.50788
#
# Static dielectric constant tensor:
#      x y z
#    x 1.930620 0.000000 0.000000 
#    y 0.000000 2.267970 0.000000 
#    z 0.000000 0.000000 2.111160 
# 
# From -- ./inp_files/1600.got.cif
#   From: 2010.05.17/outbox.cif.g08.bks.cpg/sg23_1_cif.got.tgz:1600.got - 2010.06.04 12:02:01.
