data_PCOD9332665
_publ_section_title
;
Structure prediction by ZEFSAII (Michael W. Deem and Ramdas Pophale) SiO2 
 PCOD9332665
Probable space group: I 2 2 2
;
_chemical_formula_sum "Si O2"
_cell_formula_units_Z 24
_cell_length_a 15.000000
_cell_length_b 18.000000
_cell_length_c 9.000000
_cell_angle_alpha 90.000000
_cell_angle_beta 90.000000
_cell_angle_gamma 90.000000
_cell_volume 2430.000000
_symmetry_space_group_name_H-M "I 2 2 2"
_symmetry_group_IT_number 23
_symmetry_cell_setting 'orthorhombic'
loop_
_space_group_symop_operation_xyz
x,y,z
-x,-y,z
x,-y,-z
-x,y,-z
1/2+x,1/2+y,1/2+z
1/2-x,1/2-y,1/2+z
1/2+x,1/2-y,1/2-z
1/2-x,1/2+y,1/2-z
loop_
_atom_site_type_symbol
_atom_site_label
_atom_site_fract_x
_atom_site_fract_y
_atom_site_fract_z
Si Si1 0.691035 0.823172 0.376551
Si Si2 0.164733 0.935705 0.113691
Si Si3 0.500000 0.772265 0.500000
Si Si4 0.301916 0.813572 0.982843
Si Si5 0.831110 0.951469 0.362998
Si Si6 0.508860 0.347847 0.264032
Si Si7 0.000000 0.737538 0.500000
O O1 0.586701 0.816143 0.431999
O O2 0.748850 0.757936 0.454066
O O3 0.748303 0.898286 0.407128
O O4 0.695511 0.814516 0.197052
O O5 0.241602 0.882640 0.044311
O O6 0.076752 0.891012 0.168600
O O7 0.201151 0.985413 0.248686
O O8 0.134915 0.000000 0.000000
O O9 0.458475 0.714058 0.381380
O O10 0.407566 0.807766 0.030312
O O11 0.911102 0.901528 0.291196
O O12 0.867546 0.000000 0.500000
O O13 0.476827 0.294987 0.131189
#
# Coordination Sequence:
#
# PCOD9332665 Si02
#       7
#     8   8   4   8   8   8   4
#     4  12  26  48  72 106 146 191 246 299 355 441
#     4  12  25  46  71 104 151 191 232 294 369 438
#     4  12  24  44  80 104 140 190 248 300 356 424
#     4  12  25  47  73 105 147 191 247 299 356 438
#     4  12  27  45  70 106 152 190 234 300 373 434
#     4  12  24  44  69 112 145 183 233 303 370 431
#     4  12  24  42  76 108 138 188 250 298 354 418
#
# _framework density 9.8765429999999999
#
# number of rings (size 3 to 8) (size 9 to 14) (size 15 to 20)
#    0.000    0.000    6.667    3.500    2.333    1.333 
#    0.000    0.833    0.000    0.000    0.000    0.000 
#    0.000    0.000    0.000    0.000    0.000    0.000 
#
# Total GULP energy -134106.429281 kJ/mol
# GULP energy per Si atom -5587.767887 kJ/mol
# Density = 0.985406 g / cm^3
# Si number density = 9.876543 Si / 1000 Ang^3
#
#
#
# Elastic Constant Matrix: (Units=GPa)
#
#
# Indices 1 2 3 4 5 6 
#
# 1 190.3545 72.2263 38.4062 0.0000 0.0000 0.0000
# 2 72.2263 117.9875 53.2201 0.0000 0.0000 0.0000
# 3 38.4062 53.2201 97.9653 0.0000 0.0000 0.0000
# 4 0.0000 0.0000 0.0000 48.6471 0.0000 0.0000
# 5 0.0000 0.0000 0.0000 0.0000 35.1201 0.0000
# 6 0.0000 0.0000 0.0000 0.0000 0.0000 32.7357
#
#
#
# Elastic Compliance Matrix: (Units=1/GPa)
#
#
# Indices 1 2 3 4 5 6 
#
# 1 0.006864 -0.003958 -0.000541 0.000000 0.000000 0.000000
# 2 -0.003958 0.013509 -0.005787 0.000000 0.000000 0.000000
# 3 -0.000541 -0.005787 0.013564 0.000000 0.000000 0.000000
# 4 0.000000 0.000000 0.000000 0.020556 0.000000 0.000000
# 5 0.000000 0.000000 0.000000 0.000000 0.028474 0.000000
# 6 0.000000 0.000000 0.000000 0.000000 0.000000 0.030548
#
#
# Mechanical properties :
#
#
# Convention : Reuss Voigt Hill
#
# Bulk Modulus (GPa) = 74.82326 81.55693 78.19010
# Shear Modulus (GPa) = 36.09047 39.46422 37.77735
#
# Velocity S-wave (km/s) = 4.27907 4.47461 4.37793
# Velocity P-wave (km/s) = 7.89781 8.25070 8.07618
#
# Compressibility (1/GPa) = 0.01336483
#
# Stress axis : x y z
#
# Youngs Moduli (GPa) = 145.68196 74.02649 73.72714
#
# Poissons Ratio (x) = 0.29300 0.03988
# Poissons Ratio (y) = 0.57661 0.42666
# Poissons Ratio (z) = 0.07879 0.42839
#
# Static dielectric constant tensor:
#      x y z
#    x 1.680140 0.000000 0.000000 
#    y 0.000000 1.687580 0.000000 
#    z 0.000000 0.000000 1.854780 
# 
# From -- ./inp_files/10001.got.cif
#   From: 2010.05.17/outbox.ucp.g08.bks.cvg/sg23_6_cif.got.tgz:10001.got - 2010.06.11 15:19:07.
