data_PCOD9332388
_publ_section_title
;
Structure prediction by ZEFSAII (Michael W. Deem and Ramdas Pophale) SiO2 
 PCOD9332388
Probable space group: I 2 2 2
;
_chemical_formula_sum "Si O2"
_cell_formula_units_Z 48
_cell_length_a 15.345636
_cell_length_b 8.479369
_cell_length_c 15.458442
_cell_angle_alpha 90.000000
_cell_angle_beta 90.000000
_cell_angle_gamma 90.000000
_cell_volume 2011.472726
_symmetry_space_group_name_H-M "I 2 2 2"
_symmetry_group_IT_number 23
_symmetry_cell_setting 'orthorhombic'
loop_
_space_group_symop_operation_xyz
x,y,z
-x,-y,z
x,-y,-z
-x,y,-z
1/2+x,1/2+y,1/2+z
1/2-x,1/2-y,1/2+z
1/2+x,1/2-y,1/2-z
1/2-x,1/2+y,1/2-z
loop_
_atom_site_type_symbol
_atom_site_label
_atom_site_fract_x
_atom_site_fract_y
_atom_site_fract_z
Si Si1 0.401277 0.310565 0.497911
Si Si2 0.177211 0.878011 0.705176
Si Si3 0.139007 0.398614 0.581865
Si Si4 0.707014 0.387225 0.664667
Si Si5 0.510356 0.686762 0.895625
Si Si6 0.734666 0.879279 0.575159
O O1 0.402392 0.500000 0.500000
O O2 0.500000 0.252695 0.500000
O O3 0.345331 0.293443 0.409446
O O4 0.350462 0.230034 0.577494
O O5 0.248635 0.744852 0.725621
O O6 0.102928 0.790000 0.650282
O O7 0.147271 0.987486 0.784454
O O8 0.226526 0.008406 0.647652
O O9 0.106950 0.500000 0.500000
O O10 0.213376 0.505564 0.627062
O O11 0.190057 0.243404 0.548933
O O12 0.059751 0.318369 0.634848
O O13 0.500000 0.500000 0.875863
O O14 0.500000 0.696148 0.000000
O O15 0.713736 0.000000 0.500000
#
# Coordination Sequence:
#
# PCOD9332388 Si02
#       6
#     8   8   8   8   8   8
#     4  11  24  45  75 106 137 190 255 307 353 432
#     4  12  27  44  72 106 149 197 240 303 380 442
#     4  12  22  42  76 106 142 190 250 309 367 447
#     4  12  25  48  71 104 146 196 244 302 379 439
#     4  11  24  41  70 108 142 186 247 307 363 441
#     4  12  20  42  73 104 143 192 245 298 362 445
#
# _framework density 23.863112000000001
#
# number of rings (size 3 to 8) (size 9 to 14) (size 15 to 20)
#    0.000    0.333    6.667    3.000    0.000    2.667 
#    3.000    0.000    3.667    0.000    0.000    0.000 
#    0.000    0.000    0.000    0.000    0.000    0.000 
#
# Total GULP energy -133924.697070 kJ/mol
# GULP energy per Si atom -5580.195711 kJ/mol
# Density = 2.380880 g / cm^3
# Si number density = 23.863112 Si / 1000 Ang^3
#
#
#
# Elastic Constant Matrix: (Units=GPa)
#
#
# Indices 1 2 3 4 5 6 
#
# 1 147.1460 52.9975 26.4049 0.0000 0.0000 0.0000
# 2 52.9975 109.2108 12.5584 0.0000 0.0000 0.0000
# 3 26.4049 12.5584 37.3431 0.0000 0.0000 0.0000
# 4 0.0000 0.0000 0.0000 43.1137 0.0000 0.0000
# 5 0.0000 0.0000 0.0000 0.0000 22.4407 0.0000
# 6 0.0000 0.0000 0.0000 0.0000 0.0000 30.8147
#
#
#
# Elastic Compliance Matrix: (Units=1/GPa)
#
#
# Indices 1 2 3 4 5 6 
#
# 1 0.009096 -0.003822 -0.005146 0.000000 0.000000 0.000000
# 2 -0.003822 0.011131 -0.001041 0.000000 0.000000 0.000000
# 3 -0.005146 -0.001041 0.030768 0.000000 0.000000 0.000000
# 4 0.000000 0.000000 0.000000 0.023195 0.000000 0.000000
# 5 0.000000 0.000000 0.000000 0.000000 0.044562 0.000000
# 6 0.000000 0.000000 0.000000 0.000000 0.000000 0.032452
#
#
# Mechanical properties :
#
#
# Convention : Reuss Voigt Hill
#
# Bulk Modulus (GPa) = 32.28281 53.06906 42.67594
# Shear Modulus (GPa) = 27.54100 32.72309 30.13205
#
# Velocity S-wave (km/s) = 3.40093 3.70710 3.55731
# Velocity P-wave (km/s) = 5.38326 6.37265 5.89873
#
# Compressibility (1/GPa) = 0.03097623
#
# Stress axis : x y z
#
# Youngs Moduli (GPa) = 109.93635 89.83772 32.50175
#
# Poissons Ratio (x) = 0.34339 0.16727
# Poissons Ratio (y) = 0.42022 0.03382
# Poissons Ratio (z) = 0.56577 0.09349
#
# Static dielectric constant tensor:
#      x y z
#    x 1.997780 0.000000 0.000000 
#    y 0.000000 1.902360 0.000000 
#    z 0.000000 0.000000 2.023270 
# 
# From -- ./inp_files/24745.got.cif
#   From: 2010.05.17/outbox.cif.g08.bks.cpg/sg23_13_cif.got.tgz:24745.got - 2010.06.04 12:02:01.
