data_PCOD9332872
_publ_section_title
;
Structure prediction by ZEFSAII (Michael W. Deem and Ramdas Pophale) SiO2 
 PCOD9332872
Probable space group: I 21 21 21
;
_chemical_formula_sum "Si O2"
_cell_formula_units_Z 52
_cell_length_a 11.165376
_cell_length_b 28.573775
_cell_length_c 9.377242
_cell_angle_alpha 90.000000
_cell_angle_beta 90.000000
_cell_angle_gamma 90.000000
_cell_volume 2991.686608
_symmetry_space_group_name_H-M "I 21 21 21"
_symmetry_group_IT_number 24
_symmetry_cell_setting 'orthorhombic'
loop_
_space_group_symop_operation_xyz
x,y,z
-x,1/2-y,z
x,-y,1/2-z
1/2-x,y,-z
1/2+x,1/2+y,1/2+z
1/2-x,-y,1/2+z
1/2+x,1/2-y,-z
-x,1/2+y,1/2-z
loop_
_atom_site_type_symbol
_atom_site_label
_atom_site_fract_x
_atom_site_fract_y
_atom_site_fract_z
Si Si1 0.588715 0.055611 0.049905
Si Si2 0.890433 0.213779 0.973826
Si Si3 0.889497 0.861761 0.768011
Si Si4 0.625630 0.496032 0.577224
Si Si5 0.622170 0.129228 0.809445
Si Si6 0.250000 0.524901 0.000000
Si Si7 0.971179 0.091891 0.451567
O O1 0.638976 0.086001 0.917257
O O2 0.469296 0.032455 0.987891
O O3 0.673803 0.012288 0.092560
O O4 0.571776 0.093040 0.174370
O O5 0.902636 0.173860 0.093930
O O6 0.000000 0.250000 0.986808
O O7 0.750000 0.230326 0.000000
O O8 0.908695 0.185441 0.824036
O O9 0.745496 0.863752 0.775720
O O10 0.948807 0.871926 0.920169
O O11 0.629176 0.500000 0.750000
O O12 0.750000 0.504863 0.500000
O O13 0.578686 0.444441 0.533201
O O14 0.519629 0.118563 0.697213
O O15 0.353013 0.558110 0.937446
#
# Coordination Sequence:
#
# PCOD9332872 Si02
#       7
#     8   8   8   8   8   4   8
#     4  10  19  32  51  76 108 149 189 228 261 316
#     4   9  20  39  63  84 111 141 183 238 298 369
#     4  10  19  33  56  87 113 137 178 234 291 336
#     4  11  25  38  48  67 110 162 203 232 261 320
#     4  10  17  35  54  84 115 137 179 230 291 331
#     4  10  18  26  52  80 118 138 182 212 270 324
#     4  11  21  32  53  81 113 146 183 231 279 324
#
# _framework density 17.381499999999999
#
# number of rings (size 3 to 8) (size 9 to 14) (size 15 to 20)
#    0.000    1.846    4.615    0.923    2.154    3.077 
#    0.000    5.385    0.000    0.000    0.000    0.000 
#    0.000    0.000    0.000    0.000    0.000    0.000 
#
# Total GULP energy -144759.780192 kJ/mol
# GULP energy per Si atom -5567.683854 kJ/mol
# Density = 1.734194 g / cm^3
# Si number density = 17.381500 Si / 1000 Ang^3
#
#
#
# Elastic Constant Matrix: (Units=GPa)
#
#
# Indices 1 2 3 4 5 6 
#
# 1 82.2696 43.8364 12.9446 -0.0001 -0.0001 0.0000
# 2 43.8364 74.0771 21.2511 0.0000 -0.0001 0.0000
# 3 12.9446 21.2511 72.8403 -0.0004 -0.0006 -0.0006
# 4 -0.0001 0.0000 -0.0004 8.0593 -0.0001 -0.0003
# 5 -0.0001 -0.0001 -0.0006 -0.0001 17.1379 -0.0002
# 6 0.0000 0.0000 -0.0006 -0.0003 -0.0002 -10.8205
#
#
#
# Elastic Compliance Matrix: (Units=1/GPa)
#
#
# Indices 1 2 3 4 5 6 
#
# 1 0.017754 -0.010478 -0.000098 0.000000 0.000000 0.000000
# 2 -0.010478 0.020916 -0.004240 0.000000 0.000000 0.000000
# 3 -0.000098 -0.004240 0.014983 0.000001 0.000000 -0.000001
# 4 0.000000 0.000000 0.000001 0.124080 0.000001 -0.000003
# 5 0.000000 0.000000 0.000000 0.000001 0.058350 -0.000001
# 6 0.000000 0.000000 -0.000001 -0.000003 -0.000001 -0.092417
#
#
# Mechanical properties :
#
#
# Convention : Reuss Voigt Hill
#
# Bulk Modulus (GPa) = 41.63089 42.80569 42.21829
# Shear Modulus (GPa) = 27.57775 12.95233 20.26504
#
# Velocity S-wave (km/s) = 3.98755 2.73276 3.41823
# Velocity P-wave (km/s) = 6.72340 5.88540 6.31831
#
# Compressibility (1/GPa) = 0.02402062
#
# Stress axis : x y z
#
# Youngs Moduli (GPa) = 56.32659 47.80949 66.74134
#
# Poissons Ratio (x) = 0.50094 0.00655
# Poissons Ratio (y) = 0.59018 0.28300
# Poissons Ratio (z) = 0.00553 0.20273
#
# Static dielectric constant tensor:
#      x y z
#    x 1.614710 0.000000 0.000000 
#    y 0.000000 1.589760 0.000000 
#    z 0.000000 0.000000 1.646550 
# 
# From -- ./inp_files/11577.got.cif
#   From: 2010.05.17/outbox.cif.g08.bks.cpg/sg24_6_cif.got.tgz:11577.got - 2010.06.04 00:33:39.
