data_PCOD9332883
_publ_section_title
;
Structure prediction by ZEFSAII (Michael W. Deem and Ramdas Pophale) SiO2 
 PCOD9332883
Probable space group: I 21 21 21
;
_chemical_formula_sum "Si O2"
_cell_formula_units_Z 56
_cell_length_a 31.556973
_cell_length_b 14.006065
_cell_length_c 5.655725
_cell_angle_alpha 90.000000
_cell_angle_beta 90.000000
_cell_angle_gamma 90.000000
_cell_volume 2499.768322
_symmetry_space_group_name_H-M "I 21 21 21"
_symmetry_group_IT_number 24
_symmetry_cell_setting 'orthorhombic'
loop_
_space_group_symop_operation_xyz
x,y,z
-x,1/2-y,z
x,-y,1/2-z
1/2-x,y,-z
1/2+x,1/2+y,1/2+z
1/2-x,-y,1/2+z
1/2+x,1/2-y,-z
-x,1/2+y,1/2-z
loop_
_atom_site_type_symbol
_atom_site_label
_atom_site_fract_x
_atom_site_fract_y
_atom_site_fract_z
Si Si1 0.195496 0.721174 0.360128
Si Si2 0.407323 0.920650 0.555743
Si Si3 0.250000 0.156172 0.500000
Si Si4 0.496320 0.132874 0.124375
Si Si5 0.666421 0.376431 0.239283
Si Si6 0.027648 0.347929 0.384459
Si Si7 0.385688 0.751841 0.898330
Si Si8 0.750000 0.946221 0.500000
O O1 0.183231 0.797094 0.557729
O O2 0.155915 0.699201 0.193038
O O3 0.210730 0.625294 0.478848
O O4 0.230361 0.774499 0.198932
O O5 0.447943 0.902131 0.395361
O O6 0.362183 0.943616 0.431677
O O7 0.401255 0.821195 0.690708
O O8 0.416879 0.000000 0.750000
O O9 0.291048 0.099136 0.393057
O O10 0.500000 0.250000 0.135122
O O11 0.520223 0.108035 0.876759
O O12 0.512182 0.098269 0.380586
O O13 0.631502 0.322738 0.399918
O O14 0.075582 0.317519 0.443573
O O15 0.000000 0.250000 0.372327
O O16 0.752329 0.000000 0.750000
#
# Coordination Sequence:
#
# PCOD9332883 Si02
#       8
#     8   8   4   8   8   8   8   4
#     4  10  21  37  61  99 125 166 216 271 332 405
#     4  11  23  38  57 100 135 167 221 295 352 399
#     4  10  17  36  64  92 127 162 234 266 327 410
#     4  10  19  35  59  86 127 167 220 266 322 388
#     4  10  20  35  62  91 124 170 225 273 333 408
#     4  10  18  33  59  90 121 158 226 259 313 372
#     4  10  21  36  62  96 122 172 220 281 320 406
#     4  12  25  40  66 102 141 168 214 278 353 398
#
# _framework density 22.402076000000001
#
# number of rings (size 3 to 8) (size 9 to 14) (size 15 to 20)
#    0.000    1.714    4.286    2.143    4.000    0.571 
#    0.000    0.000    0.000    0.857  137.429    0.000 
#    0.000    0.000    0.000    0.000    0.000    0.000 
#
# Total GULP energy -156316.353642 kJ/mol
# GULP energy per Si atom -5582.726916 kJ/mol
# Density = 2.235109 g / cm^3
# Si number density = 22.402076 Si / 1000 Ang^3
#
#
#
# Elastic Constant Matrix: (Units=GPa)
#
#
# Indices 1 2 3 4 5 6 
#
# 1 157.9297 12.7338 35.5029 -0.0001 0.0000 -0.0001
# 2 12.7338 50.8060 19.5857 0.0000 0.0000 0.0000
# 3 35.5029 19.5857 138.1654 -0.0003 -0.0003 -0.0002
# 4 -0.0001 0.0000 -0.0003 18.4990 0.0001 0.0003
# 5 0.0000 0.0000 -0.0003 0.0001 78.1857 -0.0001
# 6 -0.0001 0.0000 -0.0002 0.0003 -0.0001 -8.2936
#
#
#
# Elastic Compliance Matrix: (Units=1/GPa)
#
#
# Indices 1 2 3 4 5 6 
#
# 1 0.006776 -0.001087 -0.001587 0.000000 0.000000 0.000000
# 2 -0.001087 0.020995 -0.002697 0.000000 0.000000 0.000000
# 3 -0.001587 -0.002697 0.008028 0.000000 0.000000 0.000000
# 4 0.000000 0.000000 0.000000 0.054057 0.000000 0.000002
# 5 0.000000 0.000000 0.000000 0.000000 0.012790 0.000000
# 6 0.000000 0.000000 0.000000 0.000002 0.000000 -0.120575
#
#
# Mechanical properties :
#
#
# Convention : Reuss Voigt Hill
#
# Bulk Modulus (GPa) = 39.90810 53.61620 46.76215
# Shear Modulus (GPa) = 4292.93045 36.28346 2164.60696
#
# Velocity S-wave (km/s) = 43.82316 4.02885 31.11833
# Velocity P-wave (km/s) = 50.77873 6.75483 36.22228
#
# Compressibility (1/GPa) = 0.02505757
#
# Stress axis : x y z
#
# Youngs Moduli (GPa) = 147.57213 47.63110 124.56626
#
# Poissons Ratio (x) = 0.05175 0.19771
# Poissons Ratio (y) = 0.16034 0.33595
# Poissons Ratio (z) = 0.23423 0.12846
#
# Static dielectric constant tensor:
#      x y z
#    x 1.948550 0.000000 -0.000010 
#    y 0.000000 1.851370 0.000000 
#    z -0.000010 0.000000 2.569410 
# 
# From -- ./inp_files/7769.got.cif
#   From: 2010.05.17/outbox.cif.g08.bks.cpg/sg24_4_cif.got.tgz:7769.got - 2010.06.04 00:33:39.
