data_PCOD9332277
_publ_section_title
;
Structure prediction by ZEFSAII (Michael W. Deem and Ramdas Pophale) SiO2 
 PCOD9332277
Probable space group: I 2 2 2
;
_chemical_formula_sum "Si O2"
_cell_formula_units_Z 48
_cell_length_a 14.787716
_cell_length_b 16.228608
_cell_length_c 9.102648
_cell_angle_alpha 90.000000
_cell_angle_beta 90.000000
_cell_angle_gamma 90.000000
_cell_volume 2184.490298
_symmetry_space_group_name_H-M "I 2 2 2"
_symmetry_group_IT_number 23
_symmetry_cell_setting 'orthorhombic'
loop_
_space_group_symop_operation_xyz
x,y,z
-x,-y,z
x,-y,-z
-x,y,-z
1/2+x,1/2+y,1/2+z
1/2-x,1/2-y,1/2+z
1/2+x,1/2-y,1/2-z
1/2-x,1/2+y,1/2-z
loop_
_atom_site_type_symbol
_atom_site_label
_atom_site_fract_x
_atom_site_fract_y
_atom_site_fract_z
Si Si1 0.816287 0.184990 0.151135
Si Si2 0.841087 0.223782 0.492895
Si Si3 0.195786 0.517499 0.669836
Si Si4 0.500000 0.000000 0.781252
Si Si5 0.000000 0.351341 0.500000
Si Si6 0.000000 0.864463 0.000000
Si Si7 0.173122 0.950024 0.627653
Si Si8 0.500000 0.500000 0.260222
O O1 0.835845 0.213005 0.317578
O O2 0.758683 0.099407 0.165712
O O3 0.909943 0.178562 0.060129
O O4 0.752789 0.246653 0.061847
O O5 0.915613 0.292375 0.528660
O O6 0.861470 0.137098 0.571389
O O7 0.170856 0.500000 0.500000
O O8 0.260846 0.446633 0.733562
O O9 0.103970 0.519701 0.767411
O O10 0.517418 0.085754 0.867500
O O11 0.975858 0.924083 0.135468
O O12 0.224494 0.000000 0.500000
O O13 0.088895 0.009395 0.665292
#
# Coordination Sequence:
#
# PCOD9332277 Si02
#       8
#     8   8   8   4   4   4   8   4
#     4  12  27  47  70 110 151 192 247 312 380 451
#     4  12  29  45  71 109 151 195 246 313 381 447
#     4  12  22  46  74 102 137 193 249 294 365 450
#     4  11  22  46  77  96 129 188 257 286 343 438
#     4  11  24  44  69 102 132 184 247 300 354 433
#     4  11  24  46  70 110 141 186 256 301 372 458
#     4  12  26  44  67 104 152 190 239 306 379 452
#     4  11  23  40  74 104 134 200 240 296 378 452
#
# _framework density 21.973089999999999
#
# number of rings (size 3 to 8) (size 9 to 14) (size 15 to 20)
#    0.000    0.333    6.667    1.250   11.667    0.000 
#    0.000    0.417    0.000    0.000    0.000    0.000 
#    0.000    0.000    0.000    0.000    0.000    0.000 
#
# Total GULP energy -133930.850271 kJ/mol
# GULP energy per Si atom -5580.452095 kJ/mol
# Density = 2.192308 g / cm^3
# Si number density = 21.973090 Si / 1000 Ang^3
#
#
#
# Elastic Constant Matrix: (Units=GPa)
#
#
# Indices 1 2 3 4 5 6 
#
# 1 145.3979 26.0257 44.1659 0.0000 0.0000 0.0000
# 2 26.0257 95.2215 27.8628 0.0000 0.0000 0.0000
# 3 44.1659 27.8628 93.7112 0.0000 0.0000 0.0000
# 4 0.0000 0.0000 0.0000 21.1198 0.0000 0.0000
# 5 0.0000 0.0000 0.0000 0.0000 20.2627 0.0000
# 6 0.0000 0.0000 0.0000 0.0000 0.0000 30.8340
#
#
#
# Elastic Compliance Matrix: (Units=1/GPa)
#
#
# Indices 1 2 3 4 5 6 
#
# 1 0.008152 -0.001209 -0.003483 0.000000 0.000000 0.000000
# 2 -0.001209 0.011682 -0.002904 0.000000 0.000000 0.000000
# 3 -0.003483 -0.002904 0.013176 0.000000 0.000000 0.000000
# 4 0.000000 0.000000 0.000000 0.047349 0.000000 0.000000
# 5 0.000000 0.000000 0.000000 0.000000 0.049352 0.000000
# 6 0.000000 0.000000 0.000000 0.000000 0.000000 0.032432
#
#
# Mechanical properties :
#
#
# Convention : Reuss Voigt Hill
#
# Bulk Modulus (GPa) = 56.11873 58.93770 57.52821
# Shear Modulus (GPa) = 27.28185 30.19503 28.73844
#
# Velocity S-wave (km/s) = 3.52746 3.71102 3.62040
# Velocity P-wave (km/s) = 6.49506 6.72630 6.61169
#
# Compressibility (1/GPa) = 0.01781936
#
# Stress axis : x y z
#
# Youngs Moduli (GPa) = 122.67019 85.60263 75.89753
#
# Poissons Ratio (x) = 0.10350 0.26431
# Poissons Ratio (y) = 0.14831 0.22037
# Poissons Ratio (z) = 0.42720 0.24855
#
# Static dielectric constant tensor:
#      x y z
#    x 1.915450 0.000000 0.000000 
#    y 0.000000 1.808340 0.000000 
#    z 0.000000 0.000000 1.836550 
# 
# From -- ./inp_files/10014.got.cif
#   From: 2010.05.17/outbox.cif.g08.bks.cpg/sg23_6_cif.got.tgz:10014.got - 2010.06.04 12:02:01.
