data_PCOD9332320
_publ_section_title
;
Structure prediction by ZEFSAII (Michael W. Deem and Ramdas Pophale) SiO2 
 PCOD9332320
Probable space group: I 2 2 2
;
_chemical_formula_sum "Si O2"
_cell_formula_units_Z 48
_cell_length_a 15.113486
_cell_length_b 17.597073
_cell_length_c 8.396711
_cell_angle_alpha 90.000000
_cell_angle_beta 90.000000
_cell_angle_gamma 90.000000
_cell_volume 2233.131458
_symmetry_space_group_name_H-M "I 2 2 2"
_symmetry_group_IT_number 23
_symmetry_cell_setting 'orthorhombic'
loop_
_space_group_symop_operation_xyz
x,y,z
-x,-y,z
x,-y,-z
-x,y,-z
1/2+x,1/2+y,1/2+z
1/2-x,1/2-y,1/2+z
1/2+x,1/2-y,1/2-z
1/2-x,1/2+y,1/2-z
loop_
_atom_site_type_symbol
_atom_site_label
_atom_site_fract_x
_atom_site_fract_y
_atom_site_fract_z
Si Si1 0.144250 0.311380 0.158979
Si Si2 0.362760 0.420779 0.905222
Si Si3 0.481108 0.664131 0.322368
Si Si4 0.497227 0.089585 0.179122
Si Si5 0.313346 0.142859 0.298783
Si Si6 0.667547 0.702492 0.177215
O O1 0.093081 0.231254 0.182136
O O2 0.238166 0.325277 0.248067
O O3 0.074930 0.374101 0.216689
O O4 0.171946 0.319769 0.973758
O O5 0.445490 0.401909 0.792556
O O6 0.271072 0.412123 0.806886
O O7 0.367811 0.500000 0.000000
O O8 0.354958 0.349877 0.026865
O O9 0.500000 0.636402 0.500000
O O10 0.575280 0.698536 0.270179
O O11 0.404381 0.103391 0.261727
O O12 0.500000 0.000000 0.165594
O O13 0.500000 0.123650 0.000000
O O14 0.307300 0.208758 0.165543
#
# Coordination Sequence:
#
# PCOD9332320 Si02
#       6
#     8   8   8   8   8   8
#     4  11  23  42  68 105 138 177 242 292 366 437
#     4  11  28  48  72 105 148 198 249 304 374 449
#     4  12  23  43  73 104 144 185 249 302 363 447
#     4  11  26  41  65 105 145 181 224 294 379 445
#     4  11  23  43  74 102 139 186 240 295 364 440
#     4  11  24  42  72 105 135 189 239 304 359 435
#
# _framework density 21.494478999999998
#
# number of rings (size 3 to 8) (size 9 to 14) (size 15 to 20)
#    0.000    0.833    5.000    1.000    7.000    3.333 
#    0.000    1.667    0.000    0.000    0.000    0.000 
#    0.000    0.000    0.000    0.000    0.000    0.000 
#
# Total GULP energy -133906.568259 kJ/mol
# GULP energy per Si atom -5579.440344 kJ/mol
# Density = 2.144556 g / cm^3
# Si number density = 21.494479 Si / 1000 Ang^3
#
#
#
# Elastic Constant Matrix: (Units=GPa)
#
#
# Indices 1 2 3 4 5 6 
#
# 1 160.4557 40.0611 31.4419 0.0000 0.0000 0.0000
# 2 40.0611 93.2794 47.2235 0.0000 0.0000 0.0000
# 3 31.4419 47.2235 71.4322 0.0000 0.0000 0.0000
# 4 0.0000 0.0000 0.0000 -10.8666 0.0000 0.0000
# 5 0.0000 0.0000 0.0000 0.0000 28.0336 0.0000
# 6 0.0000 0.0000 0.0000 0.0000 0.0000 19.7080
#
#
#
# Elastic Compliance Matrix: (Units=1/GPa)
#
#
# Indices 1 2 3 4 5 6 
#
# 1 0.007111 -0.002209 -0.001670 0.000000 0.000000 0.000000
# 2 -0.002209 0.016799 -0.010134 0.000000 0.000000 0.000000
# 3 -0.001670 -0.010134 0.021434 0.000000 0.000000 0.000000
# 4 0.000000 0.000000 0.000000 -0.092025 0.000000 0.000000
# 5 0.000000 0.000000 0.000000 0.000000 0.035671 0.000000
# 6 0.000000 0.000000 0.000000 0.000000 0.000000 0.050741
#
#
# Mechanical properties :
#
#
# Convention : Reuss Voigt Hill
#
# Bulk Modulus (GPa) = 57.73868 62.51334 60.12601
# Shear Modulus (GPa) = 68.00046 21.13772 44.56909
#
# Velocity S-wave (km/s) = 5.63071 3.13933 4.55852
# Velocity P-wave (km/s) = 8.31827 6.50285 7.46595
#
# Compressibility (1/GPa) = 0.01731941
#
# Stress axis : x y z
#
# Youngs Moduli (GPa) = 140.62953 59.52614 46.65536
#
# Poissons Ratio (x) = 0.13147 0.07791
# Poissons Ratio (y) = 0.31059 0.47280
# Poissons Ratio (z) = 0.23484 0.60323
#
# Static dielectric constant tensor:
#      x y z
#    x 2.061540 0.000000 0.000000 
#    y 0.000000 1.743720 0.000000 
#    z 0.000000 0.000000 1.864030 
# 
# From -- ./inp_files/9925.got.cif
#   From: 2010.05.17/outbox.cif.g08.bks.cpg/sg23_5_cif.got.tgz:9925.got - 2010.06.04 12:02:01.
