data_PCOD9332131
_publ_section_title
;
Structure prediction by ZEFSAII (Michael W. Deem and Ramdas Pophale) SiO2 
 PCOD9332131
Probable space group: I 2 2 2
;
_chemical_formula_sum "Si O2"
_cell_formula_units_Z 40
_cell_length_a 9.164969
_cell_length_b 28.758021
_cell_length_c 7.994862
_cell_angle_alpha 90.000000
_cell_angle_beta 90.000000
_cell_angle_gamma 90.000000
_cell_volume 2107.176764
_symmetry_space_group_name_H-M "I 2 2 2"
_symmetry_group_IT_number 23
_symmetry_cell_setting 'orthorhombic'
loop_
_space_group_symop_operation_xyz
x,y,z
-x,-y,z
x,-y,-z
-x,y,-z
1/2+x,1/2+y,1/2+z
1/2-x,1/2-y,1/2+z
1/2+x,1/2-y,1/2-z
1/2-x,1/2+y,1/2-z
loop_
_atom_site_type_symbol
_atom_site_label
_atom_site_fract_x
_atom_site_fract_y
_atom_site_fract_z
Si Si1 0.868370 0.780649 0.378740
Si Si2 0.841596 0.882091 0.295034
Si Si3 0.678543 0.446587 0.510003
Si Si4 0.129070 0.703893 0.880349
Si Si5 0.191945 0.112374 0.674981
O O1 0.811393 0.826879 0.284534
O O2 0.920182 0.739291 0.261845
O O3 0.736906 0.766673 0.499982
O O4 0.000000 0.795346 0.500000
O O5 0.780758 0.913402 0.145853
O O6 0.791131 0.899589 0.478314
O O7 0.018148 0.883260 0.294884
O O8 0.726428 0.500000 0.500000
O O9 0.500000 0.447337 0.500000
O O10 0.734460 0.424209 0.682878
O O11 0.221484 0.660893 0.807431
O O12 0.000000 0.686778 0.000000
#
# Coordination Sequence:
#
# PCOD9332131 Si02
#       5
#     8   8   8   8   8
#     4  11  21  38  54  81 113 153 192 225 285 329
#     4   9  17  33  53  74 112 147 180 225 282 334
#     4   9  18  30  53  85 109 140 184 232 288 334
#     4  11  23  34  54  82 114 152 193 230 272 336
#     4   9  18  35  50  77 112 147 180 226 282 332
#
# _framework density 18.982745999999999
#
# number of rings (size 3 to 8) (size 9 to 14) (size 15 to 20)
#    0.000    2.200    4.000    1.200    2.800    1.600 
#    0.000    4.000    0.000    0.000    0.000   16.800 
#    0.000    0.000    0.000    0.000    0.000    0.000 
#
# Total GULP energy -111382.827947 kJ/mol
# GULP energy per Si atom -5569.141397 kJ/mol
# Density = 1.893954 g / cm^3
# Si number density = 18.982746 Si / 1000 Ang^3
#
#
#
# Elastic Constant Matrix: (Units=GPa)
#
#
# Indices 1 2 3 4 5 6 
#
# 1 21.5393 8.3999 13.8125 -0.0026 -0.0010 0.0008
# 2 8.3999 135.7694 102.0540 0.0013 0.0008 0.0004
# 3 13.8125 102.0540 103.3592 -0.0208 -0.0136 0.0055
# 4 -0.0026 0.0013 -0.0208 30.5227 -0.0031 0.0017
# 5 -0.0010 0.0008 -0.0136 -0.0031 13.0221 0.0011
# 6 0.0008 0.0004 0.0055 0.0017 0.0011 11.5099
#
#
#
# Elastic Compliance Matrix: (Units=1/GPa)
#
#
# Indices 1 2 3 4 5 6 
#
# 1 0.052883 0.007914 -0.014881 -0.000006 -0.000012 0.000003
# 2 0.007914 0.029752 -0.030434 -0.000021 -0.000033 0.000013
# 3 -0.014881 -0.030434 0.041714 0.000028 0.000044 -0.000018
# 4 -0.000006 -0.000021 0.000028 0.032762 0.000008 -0.000005
# 5 -0.000012 -0.000033 0.000044 0.000008 0.076793 -0.000007
# 6 0.000003 0.000013 -0.000018 -0.000005 -0.000007 0.086882
#
#
# Mechanical properties :
#
#
# Convention : Reuss Voigt Hill
#
# Bulk Modulus (GPa) = 20.18312 56.57786 38.38049
# Shear Modulus (GPa) = 12.13284 20.10436 16.11860
#
# Velocity S-wave (km/s) = 2.53089 3.25789 2.91713
# Velocity P-wave (km/s) = 4.38132 6.63486 5.62216
#
# Compressibility (1/GPa) = 0.04954634
#
# Stress axis : x y z
#
# Youngs Moduli (GPa) = 18.90959 33.61077 23.97303
#
# Poissons Ratio (x) = -0.26599 0.35674
# Poissons Ratio (y) = -0.14965 0.72960
# Poissons Ratio (z) = 0.28139 1.02292
#
# Static dielectric constant tensor:
#      x y z
#    x 1.694850 0.000000 0.000000 
#    y 0.000000 1.638540 0.000000 
#    z 0.000000 0.000000 1.699830 
# 
# From -- ./inp_files/7086.got.cif
#   From: 2010.05.17/outbox.cif.g08.bks.cpg/sg23_4_cif.got.tgz:7086.got - 2010.06.04 12:02:01.
