data_PCOD9332240
_publ_section_title
;
Structure prediction by ZEFSAII (Michael W. Deem and Ramdas Pophale) SiO2 
 PCOD9332240
Probable space group: I 2 2 2
;
_chemical_formula_sum "Si O2"
_cell_formula_units_Z 58
_cell_length_a 24.880480
_cell_length_b 12.560479
_cell_length_c 7.799173
_cell_angle_alpha 90.000000
_cell_angle_beta 90.000000
_cell_angle_gamma 90.000000
_cell_volume 2437.325377
_symmetry_space_group_name_H-M "I 2 2 2"
_symmetry_group_IT_number 23
_symmetry_cell_setting 'orthorhombic'
loop_
_space_group_symop_operation_xyz
x,y,z
-x,-y,z
x,-y,-z
-x,y,-z
1/2+x,1/2+y,1/2+z
1/2-x,1/2-y,1/2+z
1/2+x,1/2-y,1/2-z
1/2-x,1/2+y,1/2-z
loop_
_atom_site_type_symbol
_atom_site_label
_atom_site_fract_x
_atom_site_fract_y
_atom_site_fract_z
Si Si1 0.927909 0.335894 0.193623
Si Si2 0.639588 0.982585 0.798054
Si Si3 0.500000 0.000000 0.500000
Si Si4 0.402205 0.769035 0.349714
Si Si5 0.560496 0.672805 0.008757
Si Si6 0.699430 0.353461 0.317846
Si Si7 0.666281 0.561380 0.160525
Si Si8 0.259276 0.839608 0.146457
O O1 0.872371 0.403295 0.212288
O O2 0.941414 0.276665 0.368735
O O3 0.968806 0.424417 0.131222
O O4 0.930692 0.256954 0.031448
O O5 0.602006 0.891724 0.711279
O O6 0.697754 0.926454 0.786872
O O7 0.627473 0.000000 0.000000
O O8 0.343048 0.728346 0.395474
O O9 0.422517 0.704915 0.184099
O O10 0.608811 0.604325 0.095541
O O11 0.500000 0.627463 0.000000
O O12 0.667526 0.462618 0.291444
O O13 0.719306 0.281330 0.158857
O O14 0.746886 0.368304 0.451122
O O15 0.705108 0.648127 0.242941
O O16 0.692612 0.500000 0.000000
#
# Coordination Sequence:
#
# PCOD9332240 Si02
#       8
#     8   8   2   8   8   8   8   8
#     4  12  25  44  74 106 156 194 243 315 383 454
#     4  11  22  40  69 109 153 194 243 292 374 465
#     4  12  24  44  70 112 150 198 244 308 396 452
#     4  11  23  45  69 106 146 193 247 304 371 450
#     4  12  28  48  76 105 143 202 263 323 374 440
#     4  11  24  45  70 109 152 193 246 298 368 452
#     4  12  25  47  72 103 148 194 250 310 373 446
#     4  11  26  42  77 111 149 199 246 302 379 467
#
# _framework density 23.796576000000002
#
# number of rings (size 3 to 8) (size 9 to 14) (size 15 to 20)
#    0.000    0.552    4.138    3.724    1.931    5.793 
#    0.000    0.000    0.000    0.000    0.000    0.000 
#    0.000    0.000    0.000    0.000    0.000    0.000 
#
# Total GULP energy -161927.613151 kJ/mol
# GULP energy per Si atom -5583.710798 kJ/mol
# Density = 2.374241 g / cm^3
# Si number density = 23.796576 Si / 1000 Ang^3
#
#
#
# Elastic Constant Matrix: (Units=GPa)
#
#
# Indices 1 2 3 4 5 6 
#
# 1 69.5800 40.6565 24.6430 0.0000 0.0000 0.0000
# 2 40.6565 98.0489 23.1097 0.0000 0.0000 0.0000
# 3 24.6430 23.1097 110.2574 0.0000 0.0000 0.0000
# 4 0.0000 0.0000 0.0000 37.9209 0.0000 0.0000
# 5 0.0000 0.0000 0.0000 0.0000 28.0305 0.0000
# 6 0.0000 0.0000 0.0000 0.0000 0.0000 10.5593
#
#
#
# Elastic Compliance Matrix: (Units=1/GPa)
#
#
# Indices 1 2 3 4 5 6 
#
# 1 0.019779 -0.007532 -0.002842 0.000000 0.000000 0.000000
# 2 -0.007532 0.013597 -0.001167 0.000000 0.000000 0.000000
# 3 -0.002842 -0.001167 0.009949 0.000000 0.000000 0.000000
# 4 0.000000 0.000000 0.000000 0.026371 0.000000 0.000000
# 5 0.000000 0.000000 0.000000 0.000000 0.035675 0.000000
# 6 0.000000 0.000000 0.000000 0.000000 0.000000 0.094703
#
#
# Mechanical properties :
#
#
# Convention : Reuss Voigt Hill
#
# Bulk Modulus (GPa) = 49.39488 50.52273 49.95881
# Shear Modulus (GPa) = 21.74818 27.93393 24.84106
#
# Velocity S-wave (km/s) = 3.02639 3.42989 3.23444
# Velocity P-wave (km/s) = 5.74580 6.07969 5.91511
#
# Compressibility (1/GPa) = 0.02024501
#
# Stress axis : x y z
#
# Youngs Moduli (GPa) = 50.55748 73.54553 100.50833
#
# Poissons Ratio (x) = 0.55393 0.28566
# Poissons Ratio (y) = 0.38079 0.11725
# Poissons Ratio (z) = 0.14369 0.08579
#
# Static dielectric constant tensor:
#      x y z
#    x 1.970270 0.000000 0.000000 
#    y 0.000000 1.946060 0.000000 
#    z 0.000000 0.000000 1.964800 
# 
# From -- ./inp_files/13052.got.cif
#   From: 2010.05.17/outbox.cif.g08.bks.cpg/sg23_7_cif.got.tgz:13052.got - 2010.06.04 12:02:01.
