data_PCOD9332865
_publ_section_title
;
Structure prediction by ZEFSAII (Michael W. Deem and Ramdas Pophale) SiO2 
 PCOD9332865
Probable space group: I 21 21 21
;
_chemical_formula_sum "Si O2"
_cell_formula_units_Z 36
_cell_length_a 23.609692
_cell_length_b 7.480110
_cell_length_c 7.711786
_cell_angle_alpha 90.000000
_cell_angle_beta 90.000000
_cell_angle_gamma 90.000000
_cell_volume 1361.925262
_symmetry_space_group_name_H-M "I 21 21 21"
_symmetry_group_IT_number 24
_symmetry_cell_setting 'orthorhombic'
loop_
_space_group_symop_operation_xyz
x,y,z
-x,1/2-y,z
x,-y,1/2-z
1/2-x,y,-z
1/2+x,1/2+y,1/2+z
1/2-x,-y,1/2+z
1/2+x,1/2-y,-z
-x,1/2+y,1/2-z
loop_
_atom_site_type_symbol
_atom_site_label
_atom_site_fract_x
_atom_site_fract_y
_atom_site_fract_z
Si Si1 0.921618 0.000000 0.750000
Si Si2 0.167053 0.744363 0.853050
Si Si3 0.274033 0.202510 0.807292
Si Si4 0.499400 0.534285 0.945372
Si Si5 0.127197 0.906911 0.487660
O O1 0.876615 0.911486 0.885446
O O2 0.965764 0.937843 0.601017
O O3 0.231703 0.690872 0.817290
O O4 0.160967 0.904945 0.987471
O O5 0.137912 0.814571 0.672924
O O6 0.259289 0.000000 0.750000
O O7 0.250000 0.232737 0.000000
O O8 0.341034 0.207983 0.840786
O O9 0.500000 0.750000 0.979518
O O10 0.477565 0.500000 0.750000
O O11 0.563332 0.458839 0.951724
#
# Coordination Sequence:
#
# PCOD9332865 Si02
#       5
#     4   8   8   8   8
#     4  12  26  46  72 100 158 192 232 316 384 438
#     4  10  20  38  68 100 131 187 240 292 369 432
#     4  10  17  34  63  93 122 166 235 294 328 417
#     4  12  28  45  69 107 147 196 246 301 372 448
#     4  10  20  39  68  95 134 184 246 289 347 444
#
# _framework density 26.433171000000002
#
# number of rings (size 3 to 8) (size 9 to 14) (size 15 to 20)
#    0.000    1.333    6.667    2.000    3.111    0.000 
#    0.000    0.000   14.667    0.000    0.000    0.000 
#    0.000    0.000    0.000    0.000    0.000    0.000 
#
# Total GULP energy -100414.462075 kJ/mol
# GULP energy per Si atom -5578.581226 kJ/mol
# Density = 2.637301 g / cm^3
# Si number density = 26.433171 Si / 1000 Ang^3
#
#
#
# Elastic Constant Matrix: (Units=GPa)
#
#
# Indices 1 2 3 4 5 6 
#
# 1 201.8562 16.6158 34.8447 0.0000 0.0000 0.0000
# 2 16.6158 69.2044 -4.2312 0.0000 0.0000 0.0000
# 3 34.8447 -4.2312 157.3109 0.0000 0.0000 0.0000
# 4 0.0000 0.0000 0.0000 19.9988 0.0000 0.0000
# 5 0.0000 0.0000 0.0000 0.0000 -10.8431 0.0000
# 6 0.0000 0.0000 0.0000 0.0000 0.0000 17.3040
#
#
#
# Elastic Compliance Matrix: (Units=1/GPa)
#
#
# Indices 1 2 3 4 5 6 
#
# 1 0.005272 -0.001339 -0.001204 0.000000 0.000000 0.000000
# 2 -0.001339 0.014814 0.000695 0.000000 0.000000 0.000000
# 3 -0.001204 0.000695 0.006642 0.000000 0.000000 0.000000
# 4 0.000000 0.000000 0.000000 0.050003 0.000000 0.000000
# 5 0.000000 0.000000 0.000000 0.000000 -0.092224 0.000000
# 6 0.000000 0.000000 0.000000 0.000000 0.000000 0.057790
#
#
# Mechanical properties :
#
#
# Convention : Reuss Voigt Hill
#
# Bulk Modulus (GPa) = 43.41760 58.09224 50.75492
# Shear Modulus (GPa) = 93.16067 30.70140 61.93104
#
# Velocity S-wave (km/s) = 5.94309 3.41174 4.84563
# Velocity P-wave (km/s) = 7.97213 6.12737 7.10984
#
# Compressibility (1/GPa) = 0.02303213
#
# Stress axis : x y z
#
# Youngs Moduli (GPa) = 189.67854 67.50356 150.55294
#
# Poissons Ratio (x) = 0.09042 0.18124
# Poissons Ratio (y) = 0.25406 -0.10466
# Poissons Ratio (z) = 0.22834 -0.04692
#
# Static dielectric constant tensor:
#      x y z
#    x 2.136710 0.000000 0.000000 
#    y 0.000000 2.424850 0.000000 
#    z 0.000000 0.000000 2.035860 
# 
# From -- ./inp_files/14825.got.cif
#   From: 2010.05.17/outbox.cif.g08.bks.cpg/sg24_8_cif.got.tgz:14825.got - 2010.06.04 00:33:39.
