data_PCOD9332466
_publ_section_title
;
Structure prediction by ZEFSAII (Michael W. Deem and Ramdas Pophale) SiO2 
 PCOD9332466
Probable space group: I 2 2 2
;
_chemical_formula_sum "Si O2"
_cell_formula_units_Z 36
_cell_length_a 8.778981
_cell_length_b 13.345195
_cell_length_c 11.646905
_cell_angle_alpha 90.000000
_cell_angle_beta 90.000000
_cell_angle_gamma 90.000000
_cell_volume 1364.518934
_symmetry_space_group_name_H-M "I 2 2 2"
_symmetry_group_IT_number 23
_symmetry_cell_setting 'orthorhombic'
loop_
_space_group_symop_operation_xyz
x,y,z
-x,-y,z
x,-y,-z
-x,y,-z
1/2+x,1/2+y,1/2+z
1/2-x,1/2-y,1/2+z
1/2+x,1/2-y,1/2-z
1/2-x,1/2+y,1/2-z
loop_
_atom_site_type_symbol
_atom_site_label
_atom_site_fract_x
_atom_site_fract_y
_atom_site_fract_z
Si Si1 0.233353 0.082563 0.409489
Si Si2 0.295468 0.022914 0.809285
Si Si3 0.980010 0.838543 0.769071
Si Si4 0.935702 0.334246 0.382314
Si Si5 0.000000 0.723836 0.000000
O O1 0.329151 0.020898 0.315954
O O2 0.103772 0.130091 0.326954
O O3 0.348907 0.159344 0.470023
O O4 0.175089 0.000000 0.500000
O O5 0.130650 0.071530 0.803578
O O6 0.319279 0.927353 0.893003
O O7 0.415182 0.109128 0.834884
O O8 0.884826 0.751424 0.703775
O O9 0.035505 0.789436 0.887255
O O10 0.000000 0.290155 0.500000
#
# Coordination Sequence:
#
# PCOD9332466 Si02
#       5
#     8   8   8   8   4
#     4  12  28  49  85 121 174 223 289 357 437 520
#     4  11  25  50  75 120 166 219 284 353 442 505
#     4  12  28  51  82 132 164 229 293 359 433 518
#     4  11  26  49  82 117 168 233 291 356 439 527
#     4  12  27  56  87 124 178 230 286 365 435 538
#
# _framework density 26.382926000000001
#
# number of rings (size 3 to 8) (size 9 to 14) (size 15 to 20)
#    0.000    0.444    2.222    5.000    6.222    6.222 
#    0.000    1.111    0.000    0.000    0.000    0.000 
#    0.000    0.000    0.000    0.000    0.000    0.000 
#
# Total GULP energy -100917.854252 kJ/mol
# GULP energy per Si atom -5606.547458 kJ/mol
# Density = 2.632288 g / cm^3
# Si number density = 26.382926 Si / 1000 Ang^3
#
#
#
# Elastic Constant Matrix: (Units=GPa)
#
#
# Indices 1 2 3 4 5 6 
#
# 1 166.7796 88.5387 54.4765 0.0000 0.0000 0.0000
# 2 88.5387 118.1721 70.2910 0.0000 0.0000 0.0000
# 3 54.4765 70.2910 172.1581 0.0000 0.0000 0.0000
# 4 0.0000 0.0000 0.0000 64.4777 0.0000 0.0000
# 5 0.0000 0.0000 0.0000 0.0000 45.1212 0.0000
# 6 0.0000 0.0000 0.0000 0.0000 0.0000 35.7219
#
#
#
# Elastic Compliance Matrix: (Units=1/GPa)
#
#
# Indices 1 2 3 4 5 6 
#
# 1 0.009958 -0.007379 -0.000138 0.000000 0.000000 0.000000
# 2 -0.007379 0.016644 -0.004461 0.000000 0.000000 0.000000
# 3 -0.000138 -0.004461 0.007674 0.000000 0.000000 0.000000
# 4 0.000000 0.000000 0.000000 0.015509 0.000000 0.000000
# 5 0.000000 0.000000 0.000000 0.000000 0.022163 0.000000
# 6 0.000000 0.000000 0.000000 0.000000 0.000000 0.027994
#
#
# Mechanical properties :
#
#
# Convention : Reuss Voigt Hill
#
# Bulk Modulus (GPa) = 96.89810 98.19137 97.54473
# Shear Modulus (GPa) = 39.26559 45.31773 42.29166
#
# Velocity S-wave (km/s) = 3.86203 4.14900 4.00808
# Velocity P-wave (km/s) = 7.52956 7.76214 7.64674
#
# Compressibility (1/GPa) = 0.01032012
#
# Stress axis : x y z
#
# Youngs Moduli (GPa) = 100.41806 60.08158 130.31504
#
# Poissons Ratio (x) = 0.44333 0.01804
# Poissons Ratio (y) = 0.74097 0.58130
# Poissons Ratio (z) = 0.01390 0.26801
#
# Static dielectric constant tensor:
#      x y z
#    x 2.112570 0.000000 0.000000 
#    y 0.000000 2.104600 0.000000 
#    z 0.000000 0.000000 2.067220 
# 
# From -- ./inp_files/15534.got.cif
#   From: 2010.05.17/outbox.cif.g08.bks.cpg/sg23_8_cif.got.tgz:15534.got - 2010.06.04 12:02:01.
