data_PCOD9332233
_publ_section_title
;
Structure prediction by ZEFSAII (Michael W. Deem and Ramdas Pophale) SiO2 
 PCOD9332233
Probable space group: I 2 2 2
;
_chemical_formula_sum "Si O2"
_cell_formula_units_Z 58
_cell_length_a 11.116874
_cell_length_b 17.382499
_cell_length_c 12.285586
_cell_angle_alpha 90.000000
_cell_angle_beta 90.000000
_cell_angle_gamma 90.000000
_cell_volume 2374.054982
_symmetry_space_group_name_H-M "I 2 2 2"
_symmetry_group_IT_number 23
_symmetry_cell_setting 'orthorhombic'
loop_
_space_group_symop_operation_xyz
x,y,z
-x,-y,z
x,-y,-z
-x,y,-z
1/2+x,1/2+y,1/2+z
1/2-x,1/2-y,1/2+z
1/2+x,1/2-y,1/2-z
1/2-x,1/2+y,1/2-z
loop_
_atom_site_type_symbol
_atom_site_label
_atom_site_fract_x
_atom_site_fract_y
_atom_site_fract_z
Si Si1 0.696634 0.653224 0.474613
Si Si2 0.084518 0.414775 0.602792
Si Si3 0.518633 0.804522 0.716424
Si Si4 0.701202 0.516191 0.307321
Si Si5 0.205935 0.398041 0.105951
Si Si6 0.722979 0.817645 0.389414
Si Si7 0.500000 0.000000 0.500000
Si Si8 0.901249 0.146926 0.802382
O O1 0.808875 0.632651 0.549503
O O2 0.669821 0.581284 0.396431
O O3 0.735787 0.727742 0.409800
O O4 0.601887 0.669473 0.570342
O O5 0.010677 0.361949 0.685489
O O6 0.163625 0.483069 0.660386
O O7 0.000000 0.430173 0.500000
O O8 0.649320 0.825370 0.669708
O O9 0.419131 0.826677 0.627269
O O10 0.508437 0.713240 0.742719
O O11 0.711532 0.555135 0.189264
O O12 0.606554 0.445858 0.306988
O O13 0.092400 0.451457 0.074019
O O14 0.262379 0.367609 0.993397
O O15 0.788808 0.839864 0.278981
#
# Coordination Sequence:
#
# PCOD9332233 Si02
#       8
#     8   8   8   8   8   8   2   8
#     4  11  24  40  67  91 139 178 225 283 338 414
#     4  11  22  40  63 100 135 177 228 285 348 404
#     4  12  23  42  67  97 136 180 229 280 342 412
#     4  11  24  42  65 101 139 181 223 290 353 402
#     4  12  23  37  62  96 136 175 222 280 350 410
#     4  12  23  44  66 100 134 182 226 281 352 412
#     4  12  20  32  56  96 134 162 206 276 352 398
#     4  11  23  43  63  97 137 179 232 276 336 414
#
# _framework density 24.430774
#
# number of rings (size 3 to 8) (size 9 to 14) (size 15 to 20)
#    0.000    0.552    5.517    5.793    0.000    3.310 
#    0.000    0.690    0.000    3.310    0.000    1.931 
#    0.000    0.000    0.000    0.000    0.000    0.000 
#
# Total GULP energy -162063.034840 kJ/mol
# GULP energy per Si atom -5588.380512 kJ/mol
# Density = 2.437517 g / cm^3
# Si number density = 24.430774 Si / 1000 Ang^3
#
#
#
# Elastic Constant Matrix: (Units=GPa)
#
#
# Indices 1 2 3 4 5 6 
#
# 1 32.0700 12.3711 26.4136 0.0000 0.0000 0.0000
# 2 12.3711 158.0933 78.7246 0.0001 -0.0001 0.0000
# 3 26.4136 78.7246 145.2942 0.0003 -0.0003 -0.0001
# 4 0.0000 0.0001 0.0003 47.7046 -0.0002 0.0000
# 5 0.0000 -0.0001 -0.0003 -0.0002 5.9034 0.0001
# 6 0.0000 0.0000 -0.0001 0.0000 0.0001 48.5069
#
#
#
# Elastic Compliance Matrix: (Units=1/GPa)
#
#
# Indices 1 2 3 4 5 6 
#
# 1 0.036717 0.000617 -0.007009 0.000000 0.000000 0.000000
# 2 0.000617 0.008673 -0.004812 0.000000 0.000000 0.000000
# 3 -0.007009 -0.004812 0.010764 0.000000 0.000000 0.000000
# 4 0.000000 0.000000 0.000000 0.020962 0.000001 0.000000
# 5 0.000000 0.000000 0.000000 0.000001 0.169393 0.000000
# 6 0.000000 0.000000 0.000000 0.000000 0.000000 0.020616
#
#
# Mechanical properties :
#
#
# Convention : Reuss Voigt Hill
#
# Bulk Modulus (GPa) = 29.63275 63.38624 46.50949
# Shear Modulus (GPa) = 16.62344 34.95289 25.78816
#
# Velocity S-wave (km/s) = 2.61134 3.78655 3.25246
# Velocity P-wave (km/s) = 4.60952 6.71706 5.76049
#
# Compressibility (1/GPa) = 0.03374645
#
# Stress axis : x y z
#
# Youngs Moduli (GPa) = 27.23551 115.30002 92.90359
#
# Poissons Ratio (x) = -0.07117 0.65119
# Poissons Ratio (y) = -0.01681 0.44701
# Poissons Ratio (z) = 0.19090 0.55477
#
# Static dielectric constant tensor:
#      x y z
#    x 2.006100 0.000000 0.000000 
#    y 0.000000 2.052800 0.000000 
#    z 0.000000 0.000000 1.930100 
# 
# From -- ./inp_files/16934.got.cif
#   From: 2010.05.17/outbox.cif.g08.bks.cpg/sg23_9_cif.got.tgz:16934.got - 2010.06.04 12:02:01.
