data_PCOD9332565
_publ_section_title
;
Structure prediction by ZEFSAII (Michael W. Deem and Ramdas Pophale) SiO2 
 PCOD9332565
Probable space group: I 2 2 2
;
_chemical_formula_sum "Si O2"
_cell_formula_units_Z 32
_cell_length_a 11.783693
_cell_length_b 7.982805
_cell_length_c 13.906709
_cell_angle_alpha 90.000000
_cell_angle_beta 90.000000
_cell_angle_gamma 90.000000
_cell_volume 1308.161330
_symmetry_space_group_name_H-M "I 2 2 2"
_symmetry_group_IT_number 23
_symmetry_cell_setting 'orthorhombic'
loop_
_space_group_symop_operation_xyz
x,y,z
-x,-y,z
x,-y,-z
-x,y,-z
1/2+x,1/2+y,1/2+z
1/2-x,1/2-y,1/2+z
1/2+x,1/2-y,1/2-z
1/2-x,1/2+y,1/2-z
loop_
_atom_site_type_symbol
_atom_site_label
_atom_site_fract_x
_atom_site_fract_y
_atom_site_fract_z
Si Si1 0.814962 0.916300 0.700300
Si Si2 0.169465 0.231114 0.060486
Si Si3 0.500000 0.000000 0.000000
Si Si4 0.000000 0.500000 0.000000
Si Si5 0.000000 0.000000 0.826295
Si Si6 0.316943 0.797374 0.123412
O O1 0.779974 0.784115 0.619988
O O2 0.717536 0.900225 0.781424
O O3 0.827434 0.102549 0.655918
O O4 0.931011 0.876664 0.756018
O O5 0.093329 0.091367 0.110039
O O6 0.084075 0.386873 0.060929
O O7 0.213606 0.198609 0.953651
O O8 0.578774 0.117667 0.067635
#
# Coordination Sequence:
#
# PCOD9332565 Si02
#       6
#     8   8   2   2   4   8
#     4  12  27  51  80 120 163 210 276 334 396 484
#     4  12  27  51  77 120 162 213 271 333 403 486
#     4  12  32  50  86 118 166 220 258 334 420 472
#     4  12  24  44  80 106 156 216 260 318 412 476
#     4  12  28  47  85 114 164 218 265 336 407 474
#     4  12  28  54  81 118 166 211 273 333 401 488
#
# _framework density 24.461814
#
# number of rings (size 3 to 8) (size 9 to 14) (size 15 to 20)
#    0.000    0.000    5.000    3.000    3.500    4.500 
#    0.000    0.000    0.000    0.000    0.000    0.000 
#    0.000    0.000    0.000    0.000    0.000    0.000 
#
# Total GULP energy -89649.633055 kJ/mol
# GULP energy per Si atom -5603.102066 kJ/mol
# Density = 2.440614 g / cm^3
# Si number density = 24.461814 Si / 1000 Ang^3
#
#
#
# Elastic Constant Matrix: (Units=GPa)
#
#
# Indices 1 2 3 4 5 6 
#
# 1 85.5953 39.4306 42.2697 0.0000 0.0000 0.0000
# 2 39.4306 122.1578 56.1961 0.0000 0.0000 0.0000
# 3 42.2697 56.1961 143.4099 0.0000 0.0000 0.0000
# 4 0.0000 0.0000 0.0000 46.8868 0.0000 0.0000
# 5 0.0000 0.0000 0.0000 0.0000 33.3477 0.0000
# 6 0.0000 0.0000 0.0000 0.0000 0.0000 0.5828
#
#
#
# Elastic Compliance Matrix: (Units=1/GPa)
#
#
# Indices 1 2 3 4 5 6 
#
# 1 0.014724 -0.003362 -0.003022 0.000000 0.000000 0.000000
# 2 -0.003362 0.010754 -0.003223 0.000000 0.000000 0.000000
# 3 -0.003022 -0.003223 0.009127 0.000000 0.000000 0.000000
# 4 0.000000 0.000000 0.000000 0.021328 0.000000 0.000000
# 5 0.000000 0.000000 0.000000 0.000000 0.029987 0.000000
# 6 0.000000 0.000000 0.000000 0.000000 0.000000 1.715785
#
#
# Mechanical properties :
#
#
# Convention : Reuss Voigt Hill
#
# Bulk Modulus (GPa) = 64.97850 69.66176 67.32013
# Shear Modulus (GPa) = 2.73815 30.38124 16.55969
#
# Velocity S-wave (km/s) = 1.05914 3.52801 2.60467
# Velocity P-wave (km/s) = 5.30251 6.71828 6.05194
#
# Compressibility (1/GPa) = 0.01538970
#
# Stress axis : x y z
#
# Youngs Moduli (GPa) = 67.91451 92.98743 109.56717
#
# Poissons Ratio (x) = 0.31266 0.33116
# Poissons Ratio (y) = 0.22836 0.35314
# Poissons Ratio (z) = 0.20526 0.29970
#
# Static dielectric constant tensor:
#      x y z
#    x 1.950330 0.000000 0.000000 
#    y 0.000000 2.022500 0.000000 
#    z 0.000000 0.000000 1.948580 
# 
# From -- ./inp_files/7992.got.cif
#   From: 2010.05.17/outbox.cif.g08.bks.cpg/sg23_4_cif.got.tgz:7992.got - 2010.06.04 12:02:01.
