data_PCOD9332691
_publ_section_title
;
Structure prediction by ZEFSAII (Michael W. Deem and Ramdas Pophale) SiO2 
 PCOD9332691
Probable space group: I 21 21 21
;
_chemical_formula_sum "Si O2"
_cell_formula_units_Z 64
_cell_length_a 19.093782
_cell_length_b 26.702833
_cell_length_c 5.552925
_cell_angle_alpha 90.000000
_cell_angle_beta 90.000000
_cell_angle_gamma 90.000000
_cell_volume 2831.203635
_symmetry_space_group_name_H-M "I 21 21 21"
_symmetry_group_IT_number 24
_symmetry_cell_setting 'orthorhombic'
loop_
_space_group_symop_operation_xyz
x,y,z
-x,1/2-y,z
x,-y,1/2-z
1/2-x,y,-z
1/2+x,1/2+y,1/2+z
1/2-x,-y,1/2+z
1/2+x,1/2-y,-z
-x,1/2+y,1/2-z
loop_
_atom_site_type_symbol
_atom_site_label
_atom_site_fract_x
_atom_site_fract_y
_atom_site_fract_z
Si Si1 0.166910 0.059541 0.755691
Si Si2 0.334949 0.527489 0.004516
Si Si3 0.487981 0.190090 0.410450
Si Si4 0.143379 0.643018 0.900580
Si Si5 0.645047 0.183452 0.888832
Si Si6 0.291619 0.783133 0.749938
Si Si7 0.326790 0.899971 0.757832
Si Si8 0.515198 0.309388 0.911877
O O1 0.249767 0.073503 0.749427
O O2 0.137916 0.082039 0.505824
O O3 0.158817 0.000000 0.750000
O O4 0.138826 0.082464 0.006650
O O5 0.355933 0.500000 0.750000
O O6 0.356794 0.500000 0.250000
O O7 0.250000 0.528767 0.000000
O O8 0.359761 0.583826 0.059858
O O9 0.500000 0.250000 0.415197
O O10 0.565082 0.166384 0.405064
O O11 0.452423 0.175779 0.659245
O O12 0.448978 0.177912 0.163308
O O13 0.173654 0.665277 0.648342
O O14 0.178613 0.659415 0.151922
O O15 0.649124 0.241925 0.812100
O O16 0.563369 0.168183 0.906665
O O17 0.250000 0.778321 0.500000
O O18 0.310850 0.841168 0.765655
O O19 0.250000 0.770855 0.000000
O O20 0.500000 0.250000 0.917855
#
# Coordination Sequence:
#
# PCOD9332691 Si02
#       8
#     8   8   8   8   8   8   8   8
#     4  10  16  25  41  58  72  98 149 195 231 267
#     4  10  21  36  53  70  92 132 181 228 268 298
#     4   8  14  25  45  70  96 124 145 179 240 298
#     4  10  19  34  50  71  98 123 166 213 250 296
#     4  10  21  31  47  70  91 128 163 197 235 294
#     4  12  21  33  42  56  90 131 165 184 231 286
#     4  10  16  27  37  53  76 109 142 183 233 263
#     4   8  14  27  44  64  90 117 146 185 227 269
#
# _framework density 22.605225999999998
#
# number of rings (size 3 to 8) (size 9 to 14) (size 15 to 20)
#    0.000    2.250    2.500    3.375    0.000    1.500 
#    0.000    0.000    0.000    0.000    0.000    0.000 
#    0.000    0.000    0.000  234.000    4.000    3.375 
#
# Total GULP energy -178279.948482 kJ/mol
# GULP energy per Si atom -5571.248390 kJ/mol
# Density = 2.255378 g / cm^3
# Si number density = 22.605226 Si / 1000 Ang^3
#
#
#
# Elastic Constant Matrix: (Units=GPa)
#
#
# Indices 1 2 3 4 5 6 
#
# 1 30.8941 11.3253 21.0551 0.0000 0.0000 0.0000
# 2 11.3253 137.7710 55.3415 0.0000 0.0000 0.0000
# 3 21.0551 55.3415 291.4774 0.0000 0.0000 0.0000
# 4 0.0000 0.0000 0.0000 28.6494 0.0000 0.0000
# 5 0.0000 0.0000 0.0000 0.0000 1.3147 0.0000
# 6 0.0000 0.0000 0.0000 0.0000 0.0000 9.5336
#
#
#
# Elastic Compliance Matrix: (Units=1/GPa)
#
#
# Indices 1 2 3 4 5 6 
#
# 1 0.034541 -0.001989 -0.002117 0.000000 0.000000 0.000000
# 2 -0.001989 0.007972 -0.001370 0.000000 0.000000 0.000000
# 3 -0.002117 -0.001370 0.003844 0.000000 0.000000 0.000000
# 4 0.000000 0.000000 0.000000 0.034905 0.000000 0.000000
# 5 0.000000 0.000000 0.000000 0.000000 0.760649 0.000000
# 6 0.000000 0.000000 0.000000 0.000000 0.000000 0.104892
#
#
# Mechanical properties :
#
#
# Convention : Reuss Voigt Hill
#
# Bulk Modulus (GPa) = 28.24513 70.62071 49.43292
# Shear Modulus (GPa) = 5.15700 32.72757 18.94228
#
# Velocity S-wave (km/s) = 1.51205 3.80911 2.89789
# Velocity P-wave (km/s) = 3.94594 7.11719 5.75434
#
# Compressibility (1/GPa) = 0.03540433
#
# Stress axis : x y z
#
# Youngs Moduli (GPa) = 28.95128 125.43556 260.15457
#
# Poissons Ratio (x) = 0.24947 0.55087
# Poissons Ratio (y) = 0.05758 0.35641
# Poissons Ratio (z) = 0.06130 0.17184
#
# Static dielectric constant tensor:
#      x y z
#    x 1.807740 0.000000 0.000000 
#    y 0.000000 1.838700 0.000000 
#    z 0.000000 0.000000 2.093450 
# 
# From -- ./inp_files/7335.got.cif
#   From: 2010.05.17/outbox.cif.g08.bks.cpg/sg24_4_cif.got.tgz:7335.got - 2010.06.04 00:33:39.
