data_PCOD9332598
_publ_section_title
;
Structure prediction by ZEFSAII (Michael W. Deem and Ramdas Pophale) SiO2 
 PCOD9332598
Probable space group: I 2 2 2
;
_chemical_formula_sum "Si O2"
_cell_formula_units_Z 38
_cell_length_a 18.511027
_cell_length_b 5.255785
_cell_length_c 16.253134
_cell_angle_alpha 90.000000
_cell_angle_beta 90.000000
_cell_angle_gamma 90.000000
_cell_volume 1581.267050
_symmetry_space_group_name_H-M "I 2 2 2"
_symmetry_group_IT_number 23
_symmetry_cell_setting 'orthorhombic'
loop_
_space_group_symop_operation_xyz
x,y,z
-x,-y,z
x,-y,-z
-x,y,-z
1/2+x,1/2+y,1/2+z
1/2-x,1/2-y,1/2+z
1/2+x,1/2-y,1/2-z
1/2-x,1/2+y,1/2-z
loop_
_atom_site_type_symbol
_atom_site_label
_atom_site_fract_x
_atom_site_fract_y
_atom_site_fract_z
Si Si1 0.743168 0.514470 0.302487
Si Si2 0.382185 0.271549 0.620047
Si Si3 0.545542 0.246905 0.210088
Si Si4 0.150184 0.640944 0.575542
Si Si5 0.771914 0.500000 0.000000
Si Si6 0.500000 0.500000 0.500000
O O1 0.758030 0.788202 0.263499
O O2 0.667192 0.509601 0.350615
O O3 0.809779 0.448505 0.362336
O O4 0.413819 0.169037 0.705531
O O5 0.324691 0.102513 0.571029
O O6 0.447069 0.340269 0.559024
O O7 0.500000 0.500000 0.228246
O O8 0.598149 0.302283 0.133436
O O9 0.500000 0.000000 0.185509
O O10 0.112599 0.500000 0.500000
O O11 0.217453 0.793540 0.537544
#
# Coordination Sequence:
#
# PCOD9332598 Si02
#       6
#     8   8   8   8   4   2
#     4  12  26  47  81 117 151 207 265 335 396 470
#     4  12  27  48  82 112 167 203 270 320 416 480
#     4  12  32  53  80 115 161 221 265 320 405 500
#     4  12  28  50  81 118 159 203 281 341 408 474
#     4  12  28  51  81 124 152 210 266 356 406 470
#     4  12  28  46  72 116 166 214 256 324 402 504
#
# _framework density 24.031359999999999
#
# number of rings (size 3 to 8) (size 9 to 14) (size 15 to 20)
#    0.000    0.000    5.263    2.526    8.842    0.421 
#    0.000    0.000    0.000    0.000    0.000    0.000 
#    0.000    0.000    0.000    0.000    0.000    0.000 
#
# Total GULP energy -106394.639825 kJ/mol
# GULP energy per Si atom -5599.717886 kJ/mol
# Density = 2.397666 g / cm^3
# Si number density = 24.031360 Si / 1000 Ang^3
#
#
#
# Elastic Constant Matrix: (Units=GPa)
#
#
# Indices 1 2 3 4 5 6 
#
# 1 92.5850 31.0077 48.7063 0.0000 0.0000 0.0000
# 2 31.0077 78.7755 31.3209 0.0000 0.0000 0.0000
# 3 48.7063 31.3209 157.3132 0.0000 0.0000 0.0000
# 4 0.0000 0.0000 0.0000 34.7185 0.0000 0.0000
# 5 0.0000 0.0000 0.0000 0.0000 53.8489 0.0000
# 6 0.0000 0.0000 0.0000 0.0000 0.0000 20.3911
#
#
#
# Elastic Compliance Matrix: (Units=1/GPa)
#
#
# Indices 1 2 3 4 5 6 
#
# 1 0.014036 -0.004123 -0.003525 0.000000 0.000000 0.000000
# 2 -0.004123 0.014997 -0.001709 0.000000 0.000000 0.000000
# 3 -0.003525 -0.001709 0.007788 0.000000 0.000000 0.000000
# 4 0.000000 0.000000 0.000000 0.028803 0.000000 0.000000
# 5 0.000000 0.000000 0.000000 0.000000 0.018570 0.000000
# 6 0.000000 0.000000 0.000000 0.000000 0.000000 0.049041
#
#
# Mechanical properties :
#
#
# Convention : Reuss Voigt Hill
#
# Bulk Modulus (GPa) = 55.22864 61.19372 58.21118
# Shear Modulus (GPa) = 31.64823 36.30094 33.97458
#
# Velocity S-wave (km/s) = 3.63293 3.89082 3.76408
# Velocity P-wave (km/s) = 6.37411 6.76047 6.57013
#
# Compressibility (1/GPa) = 0.01810655
#
# Stress axis : x y z
#
# Youngs Moduli (GPa) = 71.24446 66.68018 128.39645
#
# Poissons Ratio (x) = 0.27495 0.45257
# Poissons Ratio (y) = 0.29377 0.21945
# Poissons Ratio (z) = 0.25112 0.11397
#
# Static dielectric constant tensor:
#      x y z
#    x 1.938400 0.000000 0.000000 
#    y 0.000000 1.916080 0.000000 
#    z 0.000000 0.000000 1.994240 
# 
# From -- ./inp_files/24976.got.cif
#   From: 2010.05.17/outbox.cif.g08.bks.cpg/sg23_13_cif.got.tgz:24976.got - 2010.06.04 12:02:01.
