data_PCOD9332299
_publ_section_title
;
Structure prediction by ZEFSAII (Michael W. Deem and Ramdas Pophale) SiO2 
 PCOD9332299
Probable space group: I 2 2 2
;
_chemical_formula_sum "Si O2"
_cell_formula_units_Z 64
_cell_length_a 13.152689
_cell_length_b 24.241910
_cell_length_c 9.363740
_cell_angle_alpha 90.000000
_cell_angle_beta 90.000000
_cell_angle_gamma 90.000000
_cell_volume 2985.593881
_symmetry_space_group_name_H-M "I 2 2 2"
_symmetry_group_IT_number 23
_symmetry_cell_setting 'orthorhombic'
loop_
_space_group_symop_operation_xyz
x,y,z
-x,-y,z
x,-y,-z
-x,y,-z
1/2+x,1/2+y,1/2+z
1/2-x,1/2-y,1/2+z
1/2+x,1/2-y,1/2-z
1/2-x,1/2+y,1/2-z
loop_
_atom_site_type_symbol
_atom_site_label
_atom_site_fract_x
_atom_site_fract_y
_atom_site_fract_z
Si Si1 0.233640 0.301227 0.983862
Si Si2 0.977372 0.563195 0.670070
Si Si3 0.049248 0.232978 0.356387
Si Si4 0.265335 0.891693 0.728433
Si Si5 0.550404 0.439232 0.145842
Si Si6 0.540839 0.644356 0.345409
Si Si7 0.879716 0.339551 0.747185
Si Si8 0.772295 0.828145 0.987254
O O1 0.346782 0.294968 0.915021
O O2 0.209554 0.328571 0.137073
O O3 0.186507 0.345971 0.877033
O O4 0.200396 0.236933 0.988002
O O5 0.859409 0.574394 0.707586
O O6 0.000000 0.500000 0.708417
O O7 0.000000 0.569535 0.500000
O O8 0.051131 0.606371 0.752867
O O9 0.981903 0.188026 0.277079
O O10 0.000000 0.254695 0.500000
O O11 0.058418 0.282583 0.244915
O O12 0.172818 0.927135 0.655353
O O13 0.220420 0.855350 0.858849
O O14 0.500000 0.500000 0.148517
O O15 0.509118 0.410549 0.287933
O O16 0.500000 0.414395 0.000000
O O17 0.500000 0.662397 0.500000
O O18 0.657929 0.638306 0.378613
O O19 0.836433 0.334776 0.585837
#
# Coordination Sequence:
#
# PCOD9332299 Si02
#       8
#     8   8   8   8   8   8   8   8
#     4  11  24  42  66 105 152 188 231 288 371 435
#     4  11  26  51  76 102 138 193 254 304 358 415
#     4  11  23  40  69 101 149 197 233 293 365 443
#     4  12  25  50  73 106 148 186 245 302 357 446
#     4  11  27  51  73 103 143 196 243 299 374 434
#     4  12  22  40  67 107 144 179 241 294 362 435
#     4  11  24  42  69 105 138 195 243 292 364 427
#     4  11  23  40  69 109 145 188 234 291 357 450
#
# _framework density 21.436271000000001
#
# number of rings (size 3 to 8) (size 9 to 14) (size 15 to 20)
#    0.000    0.750    3.750    3.750    5.250    1.750 
#    2.250    0.625    0.000    0.000    0.000    0.000 
#    0.000    0.000    0.000    0.000    0.000    0.000 
#
# Total GULP energy -178350.658868 kJ/mol
# GULP energy per Si atom -5573.458090 kJ/mol
# Density = 2.138748 g / cm^3
# Si number density = 21.436271 Si / 1000 Ang^3
#
#
#
# Elastic Constant Matrix: (Units=GPa)
#
#
# Indices 1 2 3 4 5 6 
#
# 1 83.5286 45.7845 32.8027 -0.0001 0.0000 0.0000
# 2 45.7845 105.8672 33.7111 -0.0002 0.0001 0.0000
# 3 32.8027 33.7111 100.7295 -0.0003 0.0005 0.0002
# 4 -0.0001 -0.0002 -0.0003 17.4976 0.0002 0.0001
# 5 0.0000 0.0001 0.0005 0.0002 31.3298 -0.0001
# 6 0.0000 0.0000 0.0002 0.0001 -0.0001 22.1541
#
#
#
# Elastic Compliance Matrix: (Units=1/GPa)
#
#
# Indices 1 2 3 4 5 6 
#
# 1 0.016656 -0.006129 -0.003373 0.000000 0.000000 0.000000
# 2 -0.006129 0.012828 -0.002297 0.000000 0.000000 0.000000
# 3 -0.003373 -0.002297 0.011795 0.000000 0.000000 0.000000
# 4 0.000000 0.000000 0.000000 0.057151 0.000000 0.000000
# 5 0.000000 0.000000 0.000000 0.000000 0.031919 0.000000
# 6 0.000000 0.000000 0.000000 0.000000 0.000000 0.045138
#
#
# Mechanical properties :
#
#
# Convention : Reuss Voigt Hill
#
# Bulk Modulus (GPa) = 56.55981 57.19132 56.87556
# Shear Modulus (GPa) = 24.39283 26.05144 25.22214
#
# Velocity S-wave (km/s) = 3.37697 3.48989 3.43390
# Velocity P-wave (km/s) = 6.45350 6.55567 6.50478
#
# Compressibility (1/GPa) = 0.01768040
#
# Stress axis : x y z
#
# Youngs Moduli (GPa) = 60.03783 77.95431 84.78380
#
# Poissons Ratio (x) = 0.47781 0.28596
# Poissons Ratio (y) = 0.36799 0.19476
# Poissons Ratio (z) = 0.20250 0.17907
#
# Static dielectric constant tensor:
#      x y z
#    x 1.936390 0.000000 0.000000 
#    y 0.000000 1.820080 0.000000 
#    z 0.000000 0.000000 1.778590 
# 
# From -- ./inp_files/10338.got.cif
#   From: 2010.05.17/outbox.cif.g08.bks.cpg/sg23_6_cif.got.tgz:10338.got - 2010.06.04 12:02:01.
