data_PCOD9332498
_publ_section_title
;
Structure prediction by ZEFSAII (Michael W. Deem and Ramdas Pophale) SiO2 
 PCOD9332498
Probable space group: I 2 2 2
;
_chemical_formula_sum "Si O2"
_cell_formula_units_Z 26
_cell_length_a 9.534918
_cell_length_b 13.562526
_cell_length_c 8.773235
_cell_angle_alpha 90.000000
_cell_angle_beta 90.000000
_cell_angle_gamma 90.000000
_cell_volume 1134.533460
_symmetry_space_group_name_H-M "I 2 2 2"
_symmetry_group_IT_number 23
_symmetry_cell_setting 'orthorhombic'
loop_
_space_group_symop_operation_xyz
x,y,z
-x,-y,z
x,-y,-z
-x,y,-z
1/2+x,1/2+y,1/2+z
1/2-x,1/2-y,1/2+z
1/2+x,1/2-y,1/2-z
1/2-x,1/2+y,1/2-z
loop_
_atom_site_type_symbol
_atom_site_label
_atom_site_fract_x
_atom_site_fract_y
_atom_site_fract_z
Si Si1 0.918394 0.208861 0.657326
Si Si2 0.000000 0.500000 0.000000
Si Si3 0.872164 0.360041 0.240511
Si Si4 0.000000 0.000000 0.214681
Si Si5 0.750080 0.500000 0.500000
O O1 0.752940 0.211294 0.685844
O O2 0.000000 0.224902 0.500000
O O3 0.988893 0.294110 0.755946
O O4 0.949130 0.095347 0.697550
O O5 0.100735 0.560282 0.111372
O O6 0.836021 0.418895 0.400168
O O7 0.865098 0.040331 0.120240
#
# Coordination Sequence:
#
# PCOD9332498 Si02
#       5
#     8   2   8   4   4
#     4  11  27  44  79 109 151 197 249 311 372 446
#     4  12  32  50  74 110 156 198 246 320 372 456
#     4  11  29  48  78 107 154 191 260 303 383 438
#     4   9  21  44  72 109 148 187 252 301 370 433
#     4   9  22  45  74 102 144 198 238 312 362 446
#
# _framework density 22.916909
#
# number of rings (size 3 to 8) (size 9 to 14) (size 15 to 20)
#    0.000    1.538    0.000    0.462   21.538    2.462 
#    0.000    0.000    0.000    0.000    0.000    0.000 
#    0.000    0.000    0.000    0.000    0.000    0.000 
#
# Total GULP energy -72498.970292 kJ/mol
# GULP energy per Si atom -5576.843869 kJ/mol
# Density = 2.286475 g / cm^3
# Si number density = 22.916909 Si / 1000 Ang^3
#
#
#
# Elastic Constant Matrix: (Units=GPa)
#
#
# Indices 1 2 3 4 5 6 
#
# 1 144.1722 47.5849 35.1819 0.0000 0.0000 0.0000
# 2 47.5849 93.2687 38.1831 0.0000 0.0000 0.0000
# 3 35.1819 38.1831 76.1610 0.0001 0.0000 0.0000
# 4 0.0000 0.0000 0.0001 -48.9402 0.0000 0.0000
# 5 0.0000 0.0000 0.0000 0.0000 23.3468 0.0000
# 6 0.0000 0.0000 0.0000 0.0000 0.0000 58.7633
#
#
#
# Elastic Compliance Matrix: (Units=1/GPa)
#
#
# Indices 1 2 3 4 5 6 
#
# 1 0.008634 -0.003488 -0.002240 0.000000 0.000000 0.000000
# 2 -0.003488 0.014900 -0.005859 0.000000 0.000000 0.000000
# 3 -0.002240 -0.005859 0.017102 0.000000 0.000000 0.000000
# 4 0.000000 0.000000 0.000000 -0.020433 0.000000 0.000000
# 5 0.000000 0.000000 0.000000 0.000000 0.042832 0.000000
# 6 0.000000 0.000000 0.000000 0.000000 0.000000 0.017017
#
#
# Mechanical properties :
#
#
# Convention : Reuss Voigt Hill
#
# Bulk Modulus (GPa) = 57.26447 61.72240 59.49343
# Shear Modulus (GPa) = 45.85218 19.47745 32.66482
#
# Velocity S-wave (km/s) = 4.47788 2.91849 3.77949
# Velocity P-wave (km/s) = 7.19565 6.19261 6.71289
#
# Compressibility (1/GPa) = 0.01746284
#
# Stress axis : x y z
#
# Youngs Moduli (GPa) = 115.82189 67.11510 58.47310
#
# Poissons Ratio (x) = 0.23410 0.13096
# Poissons Ratio (y) = 0.40400 0.34257
# Poissons Ratio (z) = 0.25940 0.39320
#
# Static dielectric constant tensor:
#      x y z
#    x 1.836320 0.000000 0.000000 
#    y 0.000000 1.808410 0.000000 
#    z 0.000000 0.000000 1.862670 
# 
# From -- ./inp_files/7673.got.cif
#   From: 2010.05.17/outbox.cif.g08.bks.cpg/sg23_4_cif.got.tgz:7673.got - 2010.06.04 12:02:01.
