data_PCOD9332532
_publ_section_title
;
Structure prediction by ZEFSAII (Michael W. Deem and Ramdas Pophale) SiO2 
 PCOD9332532
Probable space group: I 2 2 2
;
_chemical_formula_sum "Si O2"
_cell_formula_units_Z 32
_cell_length_a 22.175762
_cell_length_b 13.263307
_cell_length_c 4.890337
_cell_angle_alpha 90.000000
_cell_angle_beta 90.000000
_cell_angle_gamma 90.000000
_cell_volume 1438.365183
_symmetry_space_group_name_H-M "I 2 2 2"
_symmetry_group_IT_number 23
_symmetry_cell_setting 'orthorhombic'
loop_
_space_group_symop_operation_xyz
x,y,z
-x,-y,z
x,-y,-z
-x,y,-z
1/2+x,1/2+y,1/2+z
1/2-x,1/2-y,1/2+z
1/2+x,1/2-y,1/2-z
1/2-x,1/2+y,1/2-z
loop_
_atom_site_type_symbol
_atom_site_label
_atom_site_fract_x
_atom_site_fract_y
_atom_site_fract_z
Si Si1 0.859584 0.069851 0.742573
Si Si2 0.389620 0.110527 0.118984
Si Si3 0.757123 0.682923 0.706941
Si Si4 0.565535 0.230605 0.374489
O O1 0.794044 0.113040 0.660952
O O2 0.899970 0.163455 0.841585
O O3 0.885050 0.000000 0.500000
O O4 0.849177 0.000000 0.000000
O O5 0.317844 0.130735 0.102355
O O6 0.405829 0.144670 0.426329
O O7 0.427829 0.184490 0.926408
O O8 0.402195 0.000000 0.000000
O O9 0.727893 0.737343 0.444523
O O10 0.500000 0.248523 0.500000
#
# Coordination Sequence:
#
# PCOD9332532 Si02
#       4
#     8   8   8   8
#     4  12  25  44  73 104 140 187 239 296 366 433
#     4  12  25  45  73 106 141 189 237 294 369 438
#     4  12  22  43  72 103 146 182 225 300 371 431
#     4  12  27  48  70 101 146 190 244 302 351 424
#
# _framework density 22.247478999999998
#
# number of rings (size 3 to 8) (size 9 to 14) (size 15 to 20)
#    0.000    0.000    5.000    5.250    0.000    5.500 
#    0.000    1.250    0.000    0.000    0.000    0.000 
#    0.000    0.000    0.000    0.000    0.000    0.000 
#
# Total GULP energy -89453.242709 kJ/mol
# GULP energy per Si atom -5590.827669 kJ/mol
# Density = 2.219684 g / cm^3
# Si number density = 22.247479 Si / 1000 Ang^3
#
#
#
# Elastic Constant Matrix: (Units=GPa)
#
#
# Indices 1 2 3 4 5 6 
#
# 1 115.6818 30.6257 -15.8094 0.0000 0.0000 0.0000
# 2 30.6257 106.8288 7.9656 0.0000 0.0000 0.0000
# 3 -15.8094 7.9656 74.6975 0.0000 0.0000 0.0000
# 4 0.0000 0.0000 0.0000 44.8153 0.0000 0.0000
# 5 0.0000 0.0000 0.0000 0.0000 9.5498 0.0000
# 6 0.0000 0.0000 0.0000 0.0000 0.0000 -45.8858
#
#
#
# Elastic Compliance Matrix: (Units=1/GPa)
#
#
# Indices 1 2 3 4 5 6 
#
# 1 0.009758 -0.002975 0.002382 0.000000 0.000000 0.000000
# 2 -0.002975 0.010343 -0.001733 0.000000 0.000000 0.000000
# 3 0.002382 -0.001733 0.014076 0.000000 0.000000 0.000000
# 4 0.000000 0.000000 0.000000 0.022314 0.000000 0.000000
# 5 0.000000 0.000000 0.000000 0.000000 0.104714 0.000000
# 6 0.000000 0.000000 0.000000 0.000000 0.000000 -0.021793
#
#
# Mechanical properties :
#
#
# Convention : Reuss Voigt Hill
#
# Bulk Modulus (GPa) = 33.86795 38.08577 35.97686
# Shear Modulus (GPa) = 32.48791 19.99095 26.23943
#
# Velocity S-wave (km/s) = 3.82553 3.00087 3.43801
# Velocity P-wave (km/s) = 5.89654 5.40030 5.65387
#
# Compressibility (1/GPa) = 0.02952644
#
# Stress axis : x y z
#
# Youngs Moduli (GPa) = 102.48447 96.68542 71.04134
#
# Poissons Ratio (x) = 0.28763 -0.16925
# Poissons Ratio (y) = 0.30489 0.12308
# Poissons Ratio (z) = -0.24416 0.16752
#
# Static dielectric constant tensor:
#      x y z
#    x 1.827510 0.000000 0.000000 
#    y 0.000000 1.858620 0.000000 
#    z 0.000000 0.000000 1.798570 
# 
# From -- ./inp_files/1357.got.cif
#   From: 2010.05.17/outbox.cif.g08.bks.cpg/sg23_1_cif.got.tgz:1357.got - 2010.06.04 12:02:01.
