data_PCOD9332127
_publ_section_title
;
Structure prediction by ZEFSAII (Michael W. Deem and Ramdas Pophale) SiO2 
 PCOD9332127
Probable space group: I 2 2 2
;
_chemical_formula_sum "Si O2"
_cell_formula_units_Z 64
_cell_length_a 19.693403
_cell_length_b 18.313458
_cell_length_c 8.714055
_cell_angle_alpha 90.000000
_cell_angle_beta 90.000000
_cell_angle_gamma 90.000000
_cell_volume 3142.761482
_symmetry_space_group_name_H-M "I 2 2 2"
_symmetry_group_IT_number 23
_symmetry_cell_setting 'orthorhombic'
loop_
_space_group_symop_operation_xyz
x,y,z
-x,-y,z
x,-y,-z
-x,y,-z
1/2+x,1/2+y,1/2+z
1/2-x,1/2-y,1/2+z
1/2+x,1/2-y,1/2-z
1/2-x,1/2+y,1/2-z
loop_
_atom_site_type_symbol
_atom_site_label
_atom_site_fract_x
_atom_site_fract_y
_atom_site_fract_z
Si Si1 0.657555 0.326688 0.043195
Si Si2 0.259908 0.113646 0.687137
Si Si3 0.066965 0.963833 0.168598
Si Si4 0.434972 0.292938 0.396838
Si Si5 0.293749 0.532329 0.218852
Si Si6 0.817210 0.245949 0.869936
Si Si7 0.068849 0.709155 0.417543
Si Si8 0.789382 0.367159 0.457753
O O1 0.669981 0.405851 0.117568
O O2 0.678884 0.276737 0.191205
O O3 0.694774 0.342825 0.879831
O O4 0.588641 0.285804 0.001193
O O5 0.317669 0.166440 0.617881
O O6 0.254112 0.029442 0.646163
O O7 0.270400 0.113294 0.868924
O O8 0.060164 0.876659 0.161367
O O9 0.141163 0.985838 0.226850
O O10 0.000000 0.000000 0.247252
O O11 0.067098 0.000000 0.000000
O O12 0.500000 0.278454 0.500000
O O13 0.372432 0.286951 0.515455
O O14 0.434240 0.234498 0.259314
O O15 0.247885 0.574968 0.345139
O O16 0.747576 0.209278 0.923922
O O17 0.130940 0.651272 0.436795
O O18 0.000000 0.683134 0.500000
#
# Coordination Sequence:
#
# PCOD9332127 Si02
#       8
#     8   8   8   8   8   8   8   8
#     4  11  23  40  63 101 135 173 216 282 327 408
#     4  12  21  40  66  96 133 173 219 283 336 398
#     4  11  21  37  61  94 136 179 220 258 322 417
#     4  12  26  43  67  97 135 184 221 276 343 409
#     4  11  25  40  66  99 138 174 229 274 344 409
#     4  11  22  38  67  95 134 172 231 264 332 410
#     4  12  26  43  67  96 134 174 236 291 340 404
#     4  11  24  42  66  96 131 182 229 282 341 404
#
# _framework density 20.364256000000001
#
# number of rings (size 3 to 8) (size 9 to 14) (size 15 to 20)
#    0.000    0.625    3.750    6.000    5.250    0.000 
#    0.000    0.000    0.000    1.500    0.000    0.875 
#    0.000    0.000    0.000    0.000    0.000    0.000 
#
# Total GULP energy -178225.974788 kJ/mol
# GULP energy per Si atom -5569.561712 kJ/mol
# Density = 2.031791 g / cm^3
# Si number density = 20.364256 Si / 1000 Ang^3
#
#
#
# Elastic Constant Matrix: (Units=GPa)
#
#
# Indices 1 2 3 4 5 6 
#
# 1 119.7372 31.8096 52.6669 0.0000 0.0000 0.0000
# 2 31.8096 98.3674 35.9540 0.0000 0.0000 0.0000
# 3 52.6669 35.9540 94.4115 0.0000 0.0000 0.0000
# 4 0.0000 0.0000 0.0000 39.7212 0.0000 0.0000
# 5 0.0000 0.0000 0.0000 0.0000 15.8252 0.0000
# 6 0.0000 0.0000 0.0000 0.0000 0.0000 31.0787
#
#
#
# Elastic Compliance Matrix: (Units=1/GPa)
#
#
# Indices 1 2 3 4 5 6 
#
# 1 0.011271 -0.001564 -0.005692 0.000000 0.000000 0.000000
# 2 -0.001564 0.012027 -0.003707 0.000000 0.000000 0.000000
# 3 -0.005692 -0.003707 0.015179 0.000000 0.000000 0.000000
# 4 0.000000 0.000000 0.000000 0.025175 0.000000 0.000000
# 5 0.000000 0.000000 0.000000 0.000000 0.063191 0.000000
# 6 0.000000 0.000000 0.000000 0.000000 0.000000 0.032176
#
#
# Mechanical properties :
#
#
# Convention : Reuss Voigt Hill
#
# Bulk Modulus (GPa) = 60.42404 61.48637 60.95521
# Shear Modulus (GPa) = 26.81510 30.13072 28.47291
#
# Velocity S-wave (km/s) = 3.63267 3.85071 3.74328
# Velocity P-wave (km/s) = 6.87976 7.07315 6.97713
#
# Compressibility (1/GPa) = 0.01654970
#
# Stress axis : x y z
#
# Youngs Moduli (GPa) = 88.72596 83.14654 65.88134
#
# Poissons Ratio (x) = 0.13007 0.37497
# Poissons Ratio (y) = 0.13880 0.24425
# Poissons Ratio (z) = 0.50499 0.30826
#
# Static dielectric constant tensor:
#      x y z
#    x 1.616480 0.000000 0.000000 
#    y 0.000000 1.752210 0.000000 
#    z 0.000000 0.000000 1.813370 
# 
# From -- ./inp_files/11426.got.cif
#   From: 2010.05.17/outbox.cif.g08.bks.cpg/sg23_6_cif.got.tgz:11426.got - 2010.06.04 12:02:01.
