data_PCOD9332389
_publ_section_title
;
Structure prediction by ZEFSAII (Michael W. Deem and Ramdas Pophale) SiO2 
 PCOD9332389
Probable space group: I 2 2 2
;
_chemical_formula_sum "Si O2"
_cell_formula_units_Z 64
_cell_length_a 14.305050
_cell_length_b 9.398566
_cell_length_c 22.676450
_cell_angle_alpha 90.000000
_cell_angle_beta 90.000000
_cell_angle_gamma 90.000000
_cell_volume 3048.779688
_symmetry_space_group_name_H-M "I 2 2 2"
_symmetry_group_IT_number 23
_symmetry_cell_setting 'orthorhombic'
loop_
_space_group_symop_operation_xyz
x,y,z
-x,-y,z
x,-y,-z
-x,y,-z
1/2+x,1/2+y,1/2+z
1/2-x,1/2-y,1/2+z
1/2+x,1/2-y,1/2-z
1/2-x,1/2+y,1/2-z
loop_
_atom_site_type_symbol
_atom_site_label
_atom_site_fract_x
_atom_site_fract_y
_atom_site_fract_z
Si Si1 0.895292 0.173984 0.498682
Si Si2 0.647291 0.693010 0.655110
Si Si3 0.108161 0.841522 0.983107
Si Si4 0.063734 0.875525 0.286833
Si Si5 0.300229 0.604890 0.885256
Si Si6 0.777765 0.114442 0.194428
Si Si7 0.436281 0.139320 0.759136
Si Si8 0.233655 0.302929 0.921596
O O1 0.839567 0.199297 0.438584
O O2 0.836076 0.231693 0.552741
O O3 0.000000 0.226474 0.500000
O O4 0.897224 0.000000 0.500000
O O5 0.616254 0.679672 0.587011
O O6 0.733945 0.799413 0.653513
O O7 0.685410 0.543104 0.678607
O O8 0.574113 0.768827 0.698728
O O9 0.163491 0.732511 0.025104
O O10 0.000000 0.833893 0.000000
O O11 0.143195 0.000000 0.000000
O O12 0.112693 0.939960 0.344960
O O13 0.996822 0.743390 0.300949
O O14 0.146561 0.832538 0.242395
O O15 0.000000 0.000000 0.260259
O O16 0.241275 0.469952 0.907087
O O17 0.669649 0.113183 0.217110
O O18 0.785285 0.213039 0.136699
O O19 0.500000 0.000000 0.750339
#
# Coordination Sequence:
#
# PCOD9332389 Si02
#       8
#     8   8   8   8   8   8   8   8
#     4   9  20  38  63  99 135 173 223 279 343 407
#     4  12  25  47  71 100 143 191 227 296 360 419
#     4  11  25  45  71 102 137 186 237 285 355 433
#     4  12  26  45  73 103 141 190 241 287 364 430
#     4  11  24  41  71 100 145 177 232 297 352 415
#     4  12  27  47  71 101 146 190 238 289 358 431
#     4  12  29  46  72 109 143 187 243 300 355 425
#     4  11  24  43  72 101 136 186 236 288 350 420
#
# _framework density 20.992004999999999
#
# number of rings (size 3 to 8) (size 9 to 14) (size 15 to 20)
#    0.000    0.750    5.000    1.500    8.750    0.000 
#    0.000    0.625    0.000    0.750    0.000    0.000 
#    0.000    0.000    0.000    0.000    0.000    0.000 
#
# Total GULP energy -178736.157821 kJ/mol
# GULP energy per Si atom -5585.504932 kJ/mol
# Density = 2.094423 g / cm^3
# Si number density = 20.992005 Si / 1000 Ang^3
#
#
#
# Elastic Constant Matrix: (Units=GPa)
#
#
# Indices 1 2 3 4 5 6 
#
# 1 87.8424 28.9138 26.5333 0.0000 0.0000 0.0000
# 2 28.9138 84.2893 22.5028 0.0000 0.0000 0.0000
# 3 26.5333 22.5028 94.7130 0.0000 0.0000 0.0000
# 4 0.0000 0.0000 0.0000 22.2927 0.0000 0.0000
# 5 0.0000 0.0000 0.0000 0.0000 30.9199 0.0000
# 6 0.0000 0.0000 0.0000 0.0000 0.0000 1.8135
#
#
#
# Elastic Compliance Matrix: (Units=1/GPa)
#
#
# Indices 1 2 3 4 5 6 
#
# 1 0.013526 -0.003874 -0.002869 0.000000 0.000000 0.000000
# 2 -0.003874 0.013777 -0.002188 0.000000 0.000000 0.000000
# 3 -0.002869 -0.002188 0.011882 0.000000 0.000000 0.000000
# 4 0.000000 0.000000 0.000000 0.044858 0.000000 0.000000
# 5 0.000000 0.000000 0.000000 0.000000 0.032342 0.000000
# 6 0.000000 0.000000 0.000000 0.000000 0.000000 0.551434
#
#
# Mechanical properties :
#
#
# Convention : Reuss Voigt Hill
#
# Bulk Modulus (GPa) = 46.89759 46.97162 46.93461
# Shear Modulus (GPa) = 7.21723 23.59818 15.40771
#
# Velocity S-wave (km/s) = 1.85622 3.35647 2.71215
# Velocity P-wave (km/s) = 5.19454 6.11929 5.67578
#
# Compressibility (1/GPa) = 0.02132306
#
# Stress axis : x y z
#
# Youngs Moduli (GPa) = 73.93370 72.58537 84.16287
#
# Poissons Ratio (x) = 0.28118 0.24144
# Poissons Ratio (y) = 0.28641 0.18415
# Poissons Ratio (z) = 0.21210 0.15882
#
# Static dielectric constant tensor:
#      x y z
#    x 1.772100 0.000000 0.000000 
#    y 0.000000 1.746680 0.000000 
#    z 0.000000 0.000000 1.822640 
# 
# From -- ./inp_files/28583.got.cif
#   From: 2010.05.17/outbox.cif.g08.bks.cpg/sg23_15_cif.got.tgz:28583.got - 2010.06.04 12:02:01.
