data_PCOD9332800
_publ_section_title
;
Structure prediction by ZEFSAII (Michael W. Deem and Ramdas Pophale) SiO2 
 PCOD9332800
Probable space group: I 21 21 21
;
_chemical_formula_sum "Si O2"
_cell_formula_units_Z 44
_cell_length_a 8.383149
_cell_length_b 12.830003
_cell_length_c 25.192877
_cell_angle_alpha 90.000000
_cell_angle_beta 90.000000
_cell_angle_gamma 90.000000
_cell_volume 2709.640716
_symmetry_space_group_name_H-M "I 21 21 21"
_symmetry_group_IT_number 24
_symmetry_cell_setting 'orthorhombic'
loop_
_space_group_symop_operation_xyz
x,y,z
-x,1/2-y,z
x,-y,1/2-z
1/2-x,y,-z
1/2+x,1/2+y,1/2+z
1/2-x,-y,1/2+z
1/2+x,1/2-y,-z
-x,1/2+y,1/2-z
loop_
_atom_site_type_symbol
_atom_site_label
_atom_site_fract_x
_atom_site_fract_y
_atom_site_fract_z
Si Si1 0.953520 0.127329 0.332485
Si Si2 0.457705 0.865881 0.277515
Si Si3 0.667636 0.500000 0.750000
Si Si4 0.442926 0.130062 0.437947
Si Si5 0.060496 0.869194 0.054625
Si Si6 0.909230 0.936121 0.828620
O O1 0.767120 0.109339 0.323406
O O2 0.000000 0.250000 0.330378
O O3 0.059332 0.064841 0.290485
O O4 0.985842 0.085749 0.392101
O O5 0.500000 0.750000 0.295074
O O6 0.485871 0.872883 0.214080
O O7 0.282809 0.918648 0.281836
O O8 0.575699 0.946019 0.307224
O O9 0.500000 0.250000 0.434921
O O10 0.250823 0.129540 0.436881
O O11 0.484427 0.086666 0.496716
O O12 0.521007 0.074402 0.387584
O O13 0.000000 0.750000 0.052297
#
# Coordination Sequence:
#
# PCOD9332800 Si02
#       6
#     8   8   4   8   8   8
#     4  11  20  32  48  74 105 129 158 199 239 292
#     4  10  20  35  50  69  95 127 166 207 243 286
#     4  10  20  32  52  72  96 132 166 196 246 292
#     4  10  17  29  46  69  99 129 159 195 240 297
#     4   9  18  28  44  69  98 129 159 194 242 290
#     4  10  20  31  49  72  97 128 163 194 246 297
#
# _framework density 16.238316999999999
#
# number of rings (size 3 to 8) (size 9 to 14) (size 15 to 20)
#    0.000    2.182    0.000    7.091    0.000    2.182 
#    0.000    0.000    0.000    0.000    0.000   11.455 
#    0.000    0.000    0.000    0.000    0.000    0.000 
#
# Total GULP energy -122535.346003 kJ/mol
# GULP energy per Si atom -5569.788455 kJ/mol
# Density = 1.620136 g / cm^3
# Si number density = 16.238317 Si / 1000 Ang^3
#
#
#
# Elastic Constant Matrix: (Units=GPa)
#
#
# Indices 1 2 3 4 5 6 
#
# 1 79.6873 21.4148 35.5589 0.0000 0.0000 0.0000
# 2 21.4148 84.5692 35.5658 0.0000 0.0000 0.0000
# 3 35.5589 35.5658 110.8654 0.0000 0.0000 0.0000
# 4 0.0000 0.0000 0.0000 19.1812 0.0000 0.0000
# 5 0.0000 0.0000 0.0000 0.0000 26.4918 0.0000
# 6 0.0000 0.0000 0.0000 0.0000 0.0000 21.0856
#
#
#
# Elastic Compliance Matrix: (Units=1/GPa)
#
#
# Indices 1 2 3 4 5 6 
#
# 1 0.014945 -0.002044 -0.004138 0.000000 0.000000 0.000000
# 2 -0.002044 0.013948 -0.003819 0.000000 0.000000 0.000000
# 3 -0.004138 -0.003819 0.011572 0.000000 0.000000 0.000000
# 4 0.000000 0.000000 0.000000 0.052134 0.000000 0.000000
# 5 0.000000 0.000000 0.000000 0.000000 0.037748 0.000000
# 6 0.000000 0.000000 0.000000 0.000000 0.000000 0.047426
#
#
# Mechanical properties :
#
#
# Convention : Reuss Voigt Hill
#
# Bulk Modulus (GPa) = 48.86717 51.13343 50.00030
# Shear Modulus (GPa) = 24.43844 25.52389 24.98116
#
# Velocity S-wave (km/s) = 3.88362 3.96893 3.92651
# Velocity P-wave (km/s) = 7.09007 7.24989 7.17043
#
# Compressibility (1/GPa) = 0.02046364
#
# Stress axis : x y z
#
# Youngs Moduli (GPa) = 66.91329 71.69289 86.41427
#
# Poissons Ratio (x) = 0.14656 0.35754
# Poissons Ratio (y) = 0.13679 0.33002
# Poissons Ratio (z) = 0.27686 0.27379
#
# Static dielectric constant tensor:
#      x y z
#    x 1.524340 0.000000 0.000000 
#    y 0.000000 1.538810 0.000000 
#    z 0.000000 0.000000 1.577740 
# 
# From -- ./inp_files/35102.got.cif
#   From: 2010.05.17/outbox.cif.g08.bks.cpg/sg24_18_cif.got.tgz:35102.got - 2010.06.04 00:33:39.
