data_PCOD9332650
_publ_section_title
;
Structure prediction by ZEFSAII (Michael W. Deem and Ramdas Pophale) SiO2 
 PCOD9332650
Probable space group: I 2 2 2
;
_chemical_formula_sum "Si O2"
_cell_formula_units_Z 32
_cell_length_a 12.000000
_cell_length_b 30.000000
_cell_length_c 9.000000
_cell_angle_alpha 90.000000
_cell_angle_beta 90.000000
_cell_angle_gamma 90.000000
_cell_volume 3240.000000
_symmetry_space_group_name_H-M "I 2 2 2"
_symmetry_group_IT_number 23
_symmetry_cell_setting 'orthorhombic'
loop_
_space_group_symop_operation_xyz
x,y,z
-x,-y,z
x,-y,-z
-x,y,-z
1/2+x,1/2+y,1/2+z
1/2-x,1/2-y,1/2+z
1/2+x,1/2-y,1/2-z
1/2-x,1/2+y,1/2-z
loop_
_atom_site_type_symbol
_atom_site_label
_atom_site_fract_x
_atom_site_fract_y
_atom_site_fract_z
Si Si1 0.833182 0.250920 0.694423
Si Si2 0.981028 0.836480 0.324804
Si Si3 0.289308 0.616404 0.755667
Si Si4 0.626604 0.837081 0.978790
Si Si5 0.874524 0.388179 0.028813
Si Si6 0.373967 0.782382 0.515107
Si Si7 0.371959 0.448229 0.468886
Si Si8 0.765594 0.885712 0.204906
O O1 0.923530 0.211228 0.708257
O O2 0.878320 0.286556 0.576120
O O3 0.711963 0.236884 0.634117
O O4 0.821379 0.274243 0.853547
O O5 0.881672 0.869686 0.276068
O O6 0.000000 0.839019 0.500000
O O7 0.102229 0.850614 0.259839
O O8 0.195570 0.637235 0.648128
O O9 0.220883 0.607184 0.904714
O O10 0.337031 0.570241 0.690962
O O11 0.701597 0.844907 0.124105
O O12 0.500000 0.853483 0.000000
O O13 0.884229 0.334654 0.047319
O O14 0.819999 0.405924 0.178299
O O15 0.000000 0.404839 0.000000
O O16 0.500000 0.764021 0.500000
O O17 0.359775 0.500000 0.500000
O O18 0.500000 0.435911 0.500000
O O19 0.295939 0.421258 0.581849
#
# Coordination Sequence:
#
# PCOD9332650 Si02
#       8
#     8   8   8   8   8   8   8   8
#     4  12  25  41  58  88 129 172 230 283 324 364
#     4  12  23  38  62  92 127 170 214 271 328 378
#     4  11  22  42  67  94 130 172 212 265 336 389
#     4  11  25  40  61  86 125 179 225 266 319 375
#     4  11  22  42  64  88 124 174 221 261 312 390
#     4  11  26  41  59  84 125 172 226 278 328 374
#     4  10  22  42  71 104 133 159 201 263 333 417
#     4  11  22  41  67  93 128 166 214 260 331 394
#
# _framework density 9.8765429999999999
#
# number of rings (size 3 to 8) (size 9 to 14) (size 15 to 20)
#    0.000    0.875    5.000    1.875    3.500    0.000 
#    0.000    0.625    0.000   16.500    0.000    0.000 
#    0.000    0.000    0.000    0.000    0.000    0.000 
#
# Total GULP energy -178581.974614 kJ/mol
# GULP energy per Si atom -5580.686707 kJ/mol
# Density = 0.985406 g / cm^3
# Si number density = 9.876543 Si / 1000 Ang^3
#
#
#
# Elastic Constant Matrix: (Units=GPa)
#
#
# Indices 1 2 3 4 5 6 
#
# 1 131.5726 31.5103 29.2637 0.0005 -0.0004 -0.0002
# 2 31.5103 30.6905 14.0264 0.0004 -0.0001 -0.0001
# 3 29.2637 14.0264 66.7130 0.0016 0.0001 -0.0004
# 4 0.0005 0.0004 0.0016 4.5050 0.0000 -0.0001
# 5 -0.0004 -0.0001 0.0001 0.0000 31.6176 0.0000
# 6 -0.0002 -0.0001 -0.0004 -0.0001 0.0000 18.6792
#
#
#
# Elastic Compliance Matrix: (Units=1/GPa)
#
#
# Indices 1 2 3 4 5 6 
#
# 1 0.010465 -0.009566 -0.002579 0.000001 0.000000 0.000000
# 2 -0.009566 0.044791 -0.005221 -0.000001 0.000000 0.000000
# 3 -0.002579 -0.005221 0.017219 -0.000005 0.000000 0.000000
# 4 0.000001 -0.000001 -0.000005 0.221974 0.000000 0.000001
# 5 0.000000 0.000000 0.000000 0.000000 0.031628 0.000000
# 6 0.000000 0.000000 0.000000 0.000001 0.000000 0.053536
#
#
# Mechanical properties :
#
#
# Convention : Reuss Voigt Hill
#
# Bulk Modulus (GPa) = 26.49560 42.06409 34.27984
# Shear Modulus (GPa) = 11.71164 21.23873 16.47519
#
# Velocity S-wave (km/s) = 2.43760 3.28260 2.89114
# Velocity P-wave (km/s) = 4.62223 5.97565 5.34198
#
# Compressibility (1/GPa) = 0.03774212
#
# Stress axis : x y z
#
# Youngs Moduli (GPa) = 95.55742 22.32599 58.07619
#
# Poissons Ratio (x) = 0.21356 0.14979
# Poissons Ratio (y) = 0.91407 0.30323
# Poissons Ratio (z) = 0.24647 0.11657
#
# Static dielectric constant tensor:
#      x y z
#    x 1.704010 0.000000 0.000000 
#    y 0.000000 1.692670 0.000000 
#    z 0.000000 0.000000 1.762120 
# 
# From -- ./inp_files/8968.got.cif
#   From: 2010.05.17/outbox.ucp.g08.bks.cvg/sg23_5_cif.got.tgz:8968.got - 2010.06.11 15:19:07.
