data_PCOD9332002
_publ_section_title
;
Structure prediction by ZEFSAII (Michael W. Deem and Ramdas Pophale) SiO2 
 PCOD9332002
Probable space group: I 2 2 2
;
_chemical_formula_sum "Si O2"
_cell_formula_units_Z 30
_cell_length_a 5.970210
_cell_length_b 13.220940
_cell_length_c 16.194053
_cell_angle_alpha 90.000000
_cell_angle_beta 90.000000
_cell_angle_gamma 90.000000
_cell_volume 1278.225561
_symmetry_space_group_name_H-M "I 2 2 2"
_symmetry_group_IT_number 23
_symmetry_cell_setting 'orthorhombic'
loop_
_space_group_symop_operation_xyz
x,y,z
-x,-y,z
x,-y,-z
-x,y,-z
1/2+x,1/2+y,1/2+z
1/2-x,1/2-y,1/2+z
1/2+x,1/2-y,1/2-z
1/2-x,1/2+y,1/2-z
loop_
_atom_site_type_symbol
_atom_site_label
_atom_site_fract_x
_atom_site_fract_y
_atom_site_fract_z
Si Si1 0.973006 0.163560 0.629808
Si Si2 0.317643 0.345508 0.301061
Si Si3 0.312882 0.325818 0.568864
Si Si4 0.000000 0.500000 0.602674
Si Si5 0.500000 0.500000 0.000000
O O1 0.130289 0.129488 0.706261
O O2 0.140385 0.234918 0.577810
O O3 0.790001 0.236423 0.673864
O O4 0.885945 0.076862 0.567212
O O5 0.554241 0.345250 0.347078
O O6 0.151651 0.426774 0.340749
O O7 0.500000 0.309203 0.500000
O O8 0.168763 0.425530 0.555711
#
# Coordination Sequence:
#
# PCOD9332002 Si02
#       5
#     8   8   8   4   2
#     4  11  25  47  71 107 150 201 249 310 388 466
#     4  11  23  45  75 101 149 202 246 309 384 470
#     4  11  24  46  72 106 148 190 243 316 383 449
#     4  10  26  41  72 113 136 188 256 311 368 458
#     4  12  28  44  74 110 154 182 260 320 374 454
#
# _framework density 23.470037000000001
#
# number of rings (size 3 to 8) (size 9 to 14) (size 15 to 20)
#    0.000    1.067    2.667    2.400    3.733    6.400 
#    4.800    1.333    0.000    0.000    0.000    0.000 
#    0.000    0.000    0.000    0.000    0.000    0.000 
#
# Total GULP energy -83840.908405 kJ/mol
# GULP energy per Si atom -5589.393894 kJ/mol
# Density = 2.341662 g / cm^3
# Si number density = 23.470037 Si / 1000 Ang^3
#
#
#
# Elastic Constant Matrix: (Units=GPa)
#
#
# Indices 1 2 3 4 5 6 
#
# 1 87.7974 19.4634 27.3919 0.0000 0.0000 0.0000
# 2 19.4634 81.0716 38.1170 0.0000 0.0000 0.0000
# 3 27.3919 38.1170 144.9501 0.0000 0.0000 0.0000
# 4 0.0000 0.0000 0.0000 33.3581 0.0000 0.0000
# 5 0.0000 0.0000 0.0000 0.0000 41.0997 0.0000
# 6 0.0000 0.0000 0.0000 0.0000 0.0000 6.2140
#
#
#
# Elastic Compliance Matrix: (Units=1/GPa)
#
#
# Indices 1 2 3 4 5 6 
#
# 1 0.012422 -0.002144 -0.001784 0.000000 0.000000 0.000000
# 2 -0.002144 0.014445 -0.003393 0.000000 0.000000 0.000000
# 3 -0.001784 -0.003393 0.008128 0.000000 0.000000 0.000000
# 4 0.000000 0.000000 0.000000 0.029978 0.000000 0.000000
# 5 0.000000 0.000000 0.000000 0.000000 0.024331 0.000000
# 6 0.000000 0.000000 0.000000 0.000000 0.000000 0.160928
#
#
# Mechanical properties :
#
#
# Convention : Reuss Voigt Hill
#
# Bulk Modulus (GPa) = 49.13162 53.75153 51.44158
# Shear Modulus (GPa) = 18.40553 31.39080 24.89817
#
# Velocity S-wave (km/s) = 2.80342 3.66113 3.26060
# Velocity P-wave (km/s) = 5.60875 6.38935 6.01173
#
# Compressibility (1/GPa) = 0.02035349
#
# Stress axis : x y z
#
# Youngs Moduli (GPa) = 80.50531 69.22873 123.02605
#
# Poissons Ratio (x) = 0.14839 0.21944
# Poissons Ratio (y) = 0.17256 0.41748
# Poissons Ratio (z) = 0.14360 0.23492
#
# Static dielectric constant tensor:
#      x y z
#    x 1.838070 0.000000 0.000000 
#    y 0.000000 1.941960 0.000000 
#    z 0.000000 0.000000 2.046780 
# 
# From -- ./inp_files/2955.got.cif
#   From: 2010.05.17/outbox.cif.g08.bks.cpg/sg23_2_cif.got.tgz:2955.got - 2010.06.04 12:02:01.
