data_PCOD9332218
_publ_section_title
;
Structure prediction by ZEFSAII (Michael W. Deem and Ramdas Pophale) SiO2 
 PCOD9332218
Probable space group: I 2 2 2
;
_chemical_formula_sum "Si O2"
_cell_formula_units_Z 64
_cell_length_a 10.836951
_cell_length_b 10.007768
_cell_length_c 29.786496
_cell_angle_alpha 90.000000
_cell_angle_beta 90.000000
_cell_angle_gamma 90.000000
_cell_volume 3230.455446
_symmetry_space_group_name_H-M "I 2 2 2"
_symmetry_group_IT_number 23
_symmetry_cell_setting 'orthorhombic'
loop_
_space_group_symop_operation_xyz
x,y,z
-x,-y,z
x,-y,-z
-x,y,-z
1/2+x,1/2+y,1/2+z
1/2-x,1/2-y,1/2+z
1/2+x,1/2-y,1/2-z
1/2-x,1/2+y,1/2-z
loop_
_atom_site_type_symbol
_atom_site_label
_atom_site_fract_x
_atom_site_fract_y
_atom_site_fract_z
Si Si1 0.360510 0.979445 0.867168
Si Si2 0.767763 0.758574 0.894185
Si Si3 0.356362 0.862969 0.766879
Si Si4 0.231149 0.755686 0.925417
Si Si5 0.367519 0.654377 0.512452
Si Si6 0.017336 0.346303 0.131605
Si Si7 0.646920 0.510600 0.946894
Si Si8 0.628747 0.158439 0.270061
O O1 0.304807 0.128046 0.867543
O O2 0.500000 0.000000 0.882279
O O3 0.356769 0.909563 0.818727
O O4 0.291232 0.880356 0.900710
O O5 0.832613 0.829335 0.936531
O O6 0.691673 0.640578 0.918956
O O7 0.878417 0.705443 0.863485
O O8 0.496246 0.813456 0.754788
O O9 0.244002 0.757505 0.759659
O O10 0.338608 0.003494 0.740441
O O11 0.095027 0.733672 0.905322
O O12 0.300889 0.616427 0.919913
O O13 0.228999 0.782231 0.978362
O O14 0.371771 0.500000 0.500000
O O15 0.500000 0.715234 0.500000
O O16 0.093424 0.334070 0.177462
O O17 0.000000 0.500000 0.117672
O O18 0.500000 0.500000 0.947244
O O19 0.687122 0.500000 0.000000
#
# Coordination Sequence:
#
# PCOD9332218 Si02
#       8
#     8   8   8   8   8   8   8   8
#     4  12  26  46  66  99 139 182 230 280 345 413
#     4  12  25  41  70 101 135 181 234 287 338 409
#     4  11  25  47  74 102 140 179 226 289 352 434
#     4  12  23  42  67  95 139 176 227 286 340 405
#     4  11  22  39  61  97 137 176 224 285 350 394
#     4  12  24  42  70 102 135 169 221 286 349 409
#     4  11  24  41  62  93 136 187 233 274 331 407
#     4  11  25  48  73 103 139 178 221 288 356 421
#
# _framework density 19.811447000000001
#
# number of rings (size 3 to 8) (size 9 to 14) (size 15 to 20)
#    0.000    0.500    8.750    0.750    1.750    1.000 
#    0.000    2.500    0.000    0.000    0.000    0.000 
#    0.000    0.000    0.000    0.000    0.000    0.000 
#
# Total GULP energy -178594.531746 kJ/mol
# GULP energy per Si atom -5581.079117 kJ/mol
# Density = 1.976636 g / cm^3
# Si number density = 19.811447 Si / 1000 Ang^3
#
#
#
# Elastic Constant Matrix: (Units=GPa)
#
#
# Indices 1 2 3 4 5 6 
#
# 1 120.4825 66.9098 3.8191 0.0000 0.0000 0.0000
# 2 66.9098 115.6014 0.4383 0.0000 0.0000 0.0000
# 3 3.8191 0.4383 49.0167 0.0000 0.0000 0.0000
# 4 0.0000 0.0000 0.0000 0.9392 0.0000 0.0000
# 5 0.0000 0.0000 0.0000 0.0000 17.7866 0.0000
# 6 0.0000 0.0000 0.0000 0.0000 0.0000 42.4041
#
#
#
# Elastic Compliance Matrix: (Units=1/GPa)
#
#
# Indices 1 2 3 4 5 6 
#
# 1 0.012271 -0.007099 -0.000893 0.000000 0.000000 0.000000
# 2 -0.007099 0.012758 0.000439 0.000000 0.000000 0.000000
# 3 -0.000893 0.000439 0.020467 0.000000 0.000000 0.000000
# 4 0.000000 0.000000 0.000000 1.064789 0.000000 0.000000
# 5 0.000000 0.000000 0.000000 0.000000 0.056222 0.000000
# 6 0.000000 0.000000 0.000000 0.000000 0.000000 0.023583
#
#
# Mechanical properties :
#
#
# Convention : Reuss Voigt Hill
#
# Bulk Modulus (GPa) = 32.90530 47.49277 40.19903
# Shear Modulus (GPa) = 4.11413 26.48818 15.30116
#
# Velocity S-wave (km/s) = 1.44262 3.66049 2.78211
# Velocity P-wave (km/s) = 4.40683 6.47225 5.53670
#
# Compressibility (1/GPa) = 0.03039024
#
# Stress axis : x y z
#
# Youngs Moduli (GPa) = 81.49595 78.38519 48.85951
#
# Poissons Ratio (x) = 0.55644 0.04361
# Poissons Ratio (y) = 0.57852 -0.02145
# Poissons Ratio (z) = 0.07274 -0.03441
#
# Static dielectric constant tensor:
#      x y z
#    x 1.771100 0.000000 0.000000 
#    y 0.000000 1.708850 0.000000 
#    z 0.000000 0.000000 1.704550 
# 
# From -- ./inp_files/30481.got.cif
#   From: 2010.05.17/outbox.cif.g08.bks.cpg/sg23_16_cif.got.tgz:30481.got - 2010.06.04 12:02:01.
