data_PCOD9332333
_publ_section_title
;
Structure prediction by ZEFSAII (Michael W. Deem and Ramdas Pophale) SiO2 
 PCOD9332333
Probable space group: I 2 2 2
;
_chemical_formula_sum "Si O2"
_cell_formula_units_Z 36
_cell_length_a 4.833970
_cell_length_b 11.690081
_cell_length_c 28.638020
_cell_angle_alpha 90.000000
_cell_angle_beta 90.000000
_cell_angle_gamma 90.000000
_cell_volume 1618.320216
_symmetry_space_group_name_H-M "I 2 2 2"
_symmetry_group_IT_number 23
_symmetry_cell_setting 'orthorhombic'
loop_
_space_group_symop_operation_xyz
x,y,z
-x,-y,z
x,-y,-z
-x,y,-z
1/2+x,1/2+y,1/2+z
1/2-x,1/2-y,1/2+z
1/2+x,1/2-y,1/2-z
1/2-x,1/2+y,1/2-z
loop_
_atom_site_type_symbol
_atom_site_label
_atom_site_fract_x
_atom_site_fract_y
_atom_site_fract_z
Si Si1 0.646719 0.313632 0.395208
Si Si2 0.000000 0.000000 0.817572
Si Si3 0.243498 0.076450 0.644143
Si Si4 0.374655 0.128633 0.951638
Si Si5 0.899231 0.172080 0.256888
O O1 0.613364 0.403462 0.353121
O O2 0.609827 0.181636 0.382741
O O3 0.446462 0.356635 0.437935
O O4 0.966759 0.313633 0.409360
O O5 0.180204 0.075733 0.781280
O O6 0.110061 0.126249 0.690987
O O7 0.500000 0.000000 0.658832
O O8 0.000000 0.000000 0.620528
O O9 0.500000 0.000000 0.950417
O O10 0.500000 0.176688 0.000000
O O11 0.202875 0.218413 0.246424
#
# Coordination Sequence:
#
# PCOD9332333 Si02
#       5
#     8   4   8   8   8
#     4  12  25  42  70 103 137 177 230 289 343 421
#     4  12  26  40  69 100 142 178 237 282 346 402
#     4  12  26  46  66  94 137 194 239 282 338 402
#     4  11  23  43  70 105 141 170 210 282 373 435
#     4  12  27  42  62  94 140 188 230 285 336 397
#
# _framework density 22.245290000000001
#
# number of rings (size 3 to 8) (size 9 to 14) (size 15 to 20)
#    0.000    0.222    5.556    3.333    3.111    3.556 
#    0.000    0.000    0.000   10.000    0.000    0.000 
#    0.000    0.000    0.000    0.000    0.000    0.000 
#
# Total GULP energy -100434.596151 kJ/mol
# GULP energy per Si atom -5579.699786 kJ/mol
# Density = 2.219466 g / cm^3
# Si number density = 22.245290 Si / 1000 Ang^3
#
#
#
# Elastic Constant Matrix: (Units=GPa)
#
#
# Indices 1 2 3 4 5 6 
#
# 1 70.7919 10.3349 7.1213 0.0000 0.0000 0.0000
# 2 10.3349 101.7214 24.4170 0.0000 0.0000 0.0000
# 3 7.1213 24.4170 59.4235 0.0000 0.0000 0.0000
# 4 0.0000 0.0000 0.0000 35.5757 0.0000 0.0000
# 5 0.0000 0.0000 0.0000 0.0000 17.4266 0.0000
# 6 0.0000 0.0000 0.0000 0.0000 0.0000 43.1219
#
#
#
# Elastic Compliance Matrix: (Units=1/GPa)
#
#
# Indices 1 2 3 4 5 6 
#
# 1 0.014422 -0.001165 -0.001249 0.000000 0.000000 0.000000
# 2 -0.001165 0.011001 -0.004380 0.000000 0.000000 0.000000
# 3 -0.001249 -0.004380 0.018778 0.000000 0.000000 0.000000
# 4 0.000000 0.000000 0.000000 0.028109 0.000000 0.000000
# 5 0.000000 0.000000 0.000000 0.000000 0.057384 0.000000
# 6 0.000000 0.000000 0.000000 0.000000 0.000000 0.023190
#
#
# Mechanical properties :
#
#
# Convention : Reuss Voigt Hill
#
# Bulk Modulus (GPa) = 32.66924 35.07591 33.87258
# Shear Modulus (GPa) = 28.30023 31.89574 30.09799
#
# Velocity S-wave (km/s) = 3.57065 3.79069 3.68231
# Velocity P-wave (km/s) = 5.63180 5.91279 5.77401
#
# Compressibility (1/GPa) = 0.03060983
#
# Stress axis : x y z
#
# Youngs Moduli (GPa) = 69.33978 90.90375 53.25375
#
# Poissons Ratio (x) = 0.10593 0.06654
# Poissons Ratio (y) = 0.08080 0.23328
# Poissons Ratio (z) = 0.08664 0.39820
#
# Static dielectric constant tensor:
#      x y z
#    x 1.206890 0.000000 0.000000 
#    y 0.000000 1.946710 0.000000 
#    z 0.000000 0.000000 1.822950 
# 
# From -- ./inp_files/28854.got.cif
#   From: 2010.05.17/outbox.cif.g08.bks.cpg/sg23_15_cif.got.tgz:28854.got - 2010.06.04 12:02:01.
