data_PCOD9332842
_publ_section_title
;
Structure prediction by ZEFSAII (Michael W. Deem and Ramdas Pophale) SiO2 
 PCOD9332842
Probable space group: I 21 21 21
;
_chemical_formula_sum "Si O2"
_cell_formula_units_Z 44
_cell_length_a 14.098593
_cell_length_b 13.240368
_cell_length_c 9.152975
_cell_angle_alpha 90.000000
_cell_angle_beta 90.000000
_cell_angle_gamma 90.000000
_cell_volume 1708.590965
_symmetry_space_group_name_H-M "I 21 21 21"
_symmetry_group_IT_number 24
_symmetry_cell_setting 'orthorhombic'
loop_
_space_group_symop_operation_xyz
x,y,z
-x,1/2-y,z
x,-y,1/2-z
1/2-x,y,-z
1/2+x,1/2+y,1/2+z
1/2-x,-y,1/2+z
1/2+x,1/2-y,-z
-x,1/2+y,1/2-z
loop_
_atom_site_type_symbol
_atom_site_label
_atom_site_fract_x
_atom_site_fract_y
_atom_site_fract_z
Si Si1 0.824267 0.648290 0.383619
Si Si2 0.622897 0.572623 0.928451
Si Si3 0.000000 0.750000 0.469831
Si Si4 0.885697 0.765083 0.906274
Si Si5 0.392528 0.448733 0.598711
Si Si6 0.091898 0.591344 0.654458
O O1 0.750000 0.693038 0.500000
O O2 0.822044 0.612396 0.215630
O O3 0.849477 0.541532 0.460512
O O4 0.907876 0.730473 0.377305
O O5 0.508484 0.565221 0.897711
O O6 0.643942 0.652140 0.056029
O O7 0.013027 0.655224 0.573315
O O8 0.856760 0.828312 0.761461
O O9 0.000000 0.750000 0.894385
O O10 0.860809 0.838787 0.042174
O O11 0.363411 0.500000 0.750000
O O12 0.359890 0.528080 0.474236
O O13 0.050501 0.500000 0.750000
#
# Coordination Sequence:
#
# PCOD9332842 Si02
#       6
#     8   8   4   8   8   8
#     4  11  25  43  63 104 142 184 248 309 365 444
#     4  10  20  40  61  90 148 185 230 301 373 437
#     4  12  22  38  70  96 132 186 236 302 368 428
#     4   9  19  31  54  89 136 177 233 287 353 428
#     4  10  17  32  58  92 132 171 232 299 352 424
#     4  10  20  34  54  99 132 166 236 295 344 429
#
# _framework density 25.752213999999999
#
# number of rings (size 3 to 8) (size 9 to 14) (size 15 to 20)
#    0.000    1.818    4.545    0.000    6.364    0.000 
#    9.818    0.000    0.000    0.000   14.182    0.000 
#    0.000    0.000    0.000    0.000    0.000    0.000 
#
# Total GULP energy -122772.985356 kJ/mol
# GULP energy per Si atom -5580.590243 kJ/mol
# Density = 2.569360 g / cm^3
# Si number density = 25.752214 Si / 1000 Ang^3
#
#
#
# Elastic Constant Matrix: (Units=GPa)
#
#
# Indices 1 2 3 4 5 6 
#
# 1 89.1729 11.4314 24.0482 0.0000 0.0000 0.0000
# 2 11.4314 122.0382 63.0319 0.0000 0.0000 0.0000
# 3 24.0482 63.0319 114.4679 0.0000 0.0000 0.0000
# 4 0.0000 0.0000 0.0000 43.3835 0.0000 0.0000
# 5 0.0000 0.0000 0.0000 0.0000 10.3371 0.0000
# 6 0.0000 0.0000 0.0000 0.0000 0.0000 -5.0438
#
#
#
# Elastic Compliance Matrix: (Units=1/GPa)
#
#
# Indices 1 2 3 4 5 6 
#
# 1 0.011893 0.000247 -0.002634 0.000000 0.000000 0.000000
# 2 0.000247 0.011456 -0.006360 0.000000 0.000000 0.000000
# 3 -0.002634 -0.006360 0.012792 0.000000 0.000000 0.000000
# 4 0.000000 0.000000 0.000000 0.023050 0.000000 0.000000
# 5 0.000000 0.000000 0.000000 0.000000 0.096739 0.000000
# 6 0.000000 0.000000 0.000000 0.000000 0.000000 -0.198262
#
#
# Mechanical properties :
#
#
# Convention : Reuss Voigt Hill
#
# Bulk Modulus (GPa) = 53.63357 58.07802 55.85580
# Shear Modulus (GPa) = -268.51041 24.87984 -121.81528
#
# Velocity S-wave (km/s) = -10.22220 3.11163 -6.88517
# Velocity P-wave (km/s) = 10.88358 5.95913 6.43977
#
# Compressibility (1/GPa) = 0.01864504
#
# Stress axis : x y z
#
# Youngs Moduli (GPa) = 84.08310 87.29057 78.17564
#
# Poissons Ratio (x) = -0.02153 0.20594
# Poissons Ratio (y) = -0.02073 0.49720
# Poissons Ratio (z) = 0.22150 0.55517
#
# Static dielectric constant tensor:
#      x y z
#    x 2.156680 0.000000 0.000000 
#    y 0.000000 1.990370 0.000000 
#    z 0.000000 0.000000 2.058790 
# 
# From -- ./inp_files/14081.got.cif
#   From: 2010.05.17/outbox.cif.g08.bks.cpg/sg24_8_cif.got.tgz:14081.got - 2010.06.04 00:33:39.
