data_PCOD9332143
_publ_section_title
;
Structure prediction by ZEFSAII (Michael W. Deem and Ramdas Pophale) SiO2 
 PCOD9332143
Probable space group: I 2 2 2
;
_chemical_formula_sum "Si O2"
_cell_formula_units_Z 40
_cell_length_a 9.153341
_cell_length_b 13.078132
_cell_length_c 16.087118
_cell_angle_alpha 90.000000
_cell_angle_beta 90.000000
_cell_angle_gamma 90.000000
_cell_volume 1925.766403
_symmetry_space_group_name_H-M "I 2 2 2"
_symmetry_group_IT_number 23
_symmetry_cell_setting 'orthorhombic'
loop_
_space_group_symop_operation_xyz
x,y,z
-x,-y,z
x,-y,-z
-x,y,-z
1/2+x,1/2+y,1/2+z
1/2-x,1/2-y,1/2+z
1/2+x,1/2-y,1/2-z
1/2-x,1/2+y,1/2-z
loop_
_atom_site_type_symbol
_atom_site_label
_atom_site_fract_x
_atom_site_fract_y
_atom_site_fract_z
Si Si1 0.177660 0.125047 0.753078
Si Si2 0.175408 0.983588 0.906931
Si Si3 0.326170 0.515893 0.096251
Si Si4 0.050914 0.617288 0.094759
Si Si5 0.380945 0.292140 0.693691
O O1 0.261743 0.231204 0.745366
O O2 0.002346 0.142325 0.756824
O O3 0.223864 0.062935 0.835553
O O4 0.214062 0.061936 0.670031
O O5 0.194577 0.869732 0.871073
O O6 0.000000 0.000000 0.912330
O O7 0.234778 0.000000 0.000000
O O8 0.500000 0.500000 0.094296
O O9 0.225636 0.615383 0.111514
O O10 0.280606 0.500000 0.000000
O O11 0.000000 0.500000 0.113443
O O12 0.975005 0.705476 0.147223
O O13 0.000000 0.636661 0.000000
#
# Coordination Sequence:
#
# PCOD9332143 Si02
#       5
#     8   8   8   8   8
#     4  11  24  41  63  98 131 168 230 272 328 414
#     4   9  21  43  63  93 128 174 222 278 329 396
#     4  11  22  40  62  93 137 167 203 279 343 386
#     4  11  21  39  63  98 127 164 226 277 323 397
#     4  11  24  38  68  95 128 180 221 272 346 401
#
# _framework density 20.770951
#
# number of rings (size 3 to 8) (size 9 to 14) (size 15 to 20)
#    0.000    1.400    4.000    1.800   11.200    0.000 
#    0.000    0.000    0.000    1.200    0.000    0.000 
#    0.000    0.000    0.000    0.000    0.000    0.000 
#
# Total GULP energy -111423.475528 kJ/mol
# GULP energy per Si atom -5571.173776 kJ/mol
# Density = 2.072368 g / cm^3
# Si number density = 20.770951 Si / 1000 Ang^3
#
#
#
# Elastic Constant Matrix: (Units=GPa)
#
#
# Indices 1 2 3 4 5 6 
#
# 1 77.5047 14.6568 32.9923 0.0000 0.0000 0.0000
# 2 14.6568 94.5044 81.7414 0.0000 0.0000 0.0000
# 3 32.9923 81.7414 166.2573 0.0000 0.0000 0.0000
# 4 0.0000 0.0000 0.0000 23.0432 0.0000 0.0000
# 5 0.0000 0.0000 0.0000 0.0000 1.6695 0.0000
# 6 0.0000 0.0000 0.0000 0.0000 0.0000 38.0387
#
#
#
# Elastic Compliance Matrix: (Units=1/GPa)
#
#
# Indices 1 2 3 4 5 6 
#
# 1 0.014102 0.000406 -0.002998 0.000000 0.000000 0.000000
# 2 0.000406 0.018423 -0.009138 0.000000 0.000000 0.000000
# 3 -0.002998 -0.009138 0.011103 0.000000 0.000000 0.000000
# 4 0.000000 0.000000 0.000000 0.043397 0.000000 0.000000
# 5 0.000000 0.000000 0.000000 0.000000 0.598984 0.000000
# 6 0.000000 0.000000 0.000000 0.000000 0.000000 0.026289
#
#
# Mechanical properties :
#
#
# Convention : Reuss Voigt Hill
#
# Bulk Modulus (GPa) = 49.58657 66.33858 57.96258
# Shear Modulus (GPa) = 6.73420 26.47534 16.60477
#
# Velocity S-wave (km/s) = 1.80254 3.57407 2.83047
# Velocity P-wave (km/s) = 5.31574 7.00282 6.21677
#
# Compressibility (1/GPa) = 0.02016675
#
# Stress axis : x y z
#
# Youngs Moduli (GPa) = 70.91259 54.28123 90.06947
#
# Poissons Ratio (x) = -0.02204 0.27003
# Poissons Ratio (y) = -0.02880 0.82307
# Poissons Ratio (z) = 0.21260 0.49603
#
# Static dielectric constant tensor:
#      x y z
#    x 1.819590 0.000000 0.000000 
#    y 0.000000 1.752510 0.000000 
#    z 0.000000 0.000000 1.158840 
# 
# From -- ./inp_files/19783.got.cif
#   From: 2010.05.17/outbox.cif.g08.bks.cpg/sg23_10_cif.got.tgz:19783.got - 2010.06.04 12:02:01.
