data_PCOD9332230
_publ_section_title
;
Structure prediction by ZEFSAII (Michael W. Deem and Ramdas Pophale) SiO2 
 PCOD9332230
Probable space group: I 2 2 2
;
_chemical_formula_sum "Si O2"
_cell_formula_units_Z 38
_cell_length_a 24.811677
_cell_length_b 8.563386
_cell_length_c 7.832190
_cell_angle_alpha 90.000000
_cell_angle_beta 90.000000
_cell_angle_gamma 90.000000
_cell_volume 1664.120819
_symmetry_space_group_name_H-M "I 2 2 2"
_symmetry_group_IT_number 23
_symmetry_cell_setting 'orthorhombic'
loop_
_space_group_symop_operation_xyz
x,y,z
-x,-y,z
x,-y,-z
-x,y,-z
1/2+x,1/2+y,1/2+z
1/2-x,1/2-y,1/2+z
1/2+x,1/2-y,1/2-z
1/2-x,1/2+y,1/2-z
loop_
_atom_site_type_symbol
_atom_site_label
_atom_site_fract_x
_atom_site_fract_y
_atom_site_fract_z
Si Si1 0.642641 0.253158 0.953164
Si Si2 0.000000 0.000000 0.000000
Si Si3 0.664235 0.468776 0.280066
Si Si4 0.561342 0.948885 0.233996
Si Si5 0.916084 0.247545 0.927531
Si Si6 0.765562 0.500000 0.500000
O O1 0.644848 0.363942 0.787313
O O2 0.590544 0.145551 0.916473
O O3 0.694712 0.144408 0.973145
O O4 0.647622 0.363321 0.116799
O O5 0.961694 0.884555 0.108581
O O6 0.637434 0.358093 0.425769
O O7 0.725757 0.494959 0.336810
O O8 0.565409 0.834184 0.399331
O O9 0.500000 0.000000 0.203483
O O10 0.589767 0.109343 0.295645
#
# Coordination Sequence:
#
# PCOD9332230 Si02
#       6
#     8   2   8   8   8   4
#     4  11  25  44  70 103 145 187 244 305 379 440
#     4  12  18  34  64  98 132 184 244 294 314 410
#     4  11  25  44  70 105 139 185 244 312 371 435
#     4  11  22  44  69 106 150 201 242 295 358 430
#     4  11  22  39  70 104 143 194 251 288 350 436
#     4  12  23  46  71  99 138 189 236 306 372 460
#
# _framework density 22.834880999999999
#
# number of rings (size 3 to 8) (size 9 to 14) (size 15 to 20)
#    0.000    0.842    2.105    6.316    0.000    0.000 
#    0.000   10.000    0.000    0.000    0.000    0.000 
#    0.000    0.000    0.000    0.000    0.000    0.000 
#
# Total GULP energy -105986.326715 kJ/mol
# GULP energy per Si atom -5578.227722 kJ/mol
# Density = 2.278291 g / cm^3
# Si number density = 22.834881 Si / 1000 Ang^3
#
#
#
# Elastic Constant Matrix: (Units=GPa)
#
#
# Indices 1 2 3 4 5 6 
#
# 1 127.4095 71.8470 26.1429 0.0000 0.0000 0.0000
# 2 71.8470 181.7809 45.4468 0.0000 0.0000 0.0000
# 3 26.1429 45.4468 133.5820 0.0000 0.0000 0.0000
# 4 0.0000 0.0000 0.0000 40.3064 0.0000 0.0000
# 5 0.0000 0.0000 0.0000 0.0000 16.1165 0.0000
# 6 0.0000 0.0000 0.0000 0.0000 0.0000 86.3951
#
#
#
# Elastic Compliance Matrix: (Units=1/GPa)
#
#
# Indices 1 2 3 4 5 6 
#
# 1 0.010156 -0.003844 -0.000680 0.000000 0.000000 0.000000
# 2 -0.003844 0.007468 -0.001788 0.000000 0.000000 0.000000
# 3 -0.000680 -0.001788 0.008227 0.000000 0.000000 0.000000
# 4 0.000000 0.000000 0.000000 0.024810 0.000000 0.000000
# 5 0.000000 0.000000 0.000000 0.000000 0.062048 0.000000
# 6 0.000000 0.000000 0.000000 0.000000 0.000000 0.011575
#
#
# Mechanical properties :
#
#
# Convention : Reuss Voigt Hill
#
# Bulk Modulus (GPa) = 75.60464 81.07175 78.33820
# Shear Modulus (GPa) = 35.38151 48.51932 41.95042
#
# Velocity S-wave (km/s) = 3.94058 4.61454 4.29081
# Velocity P-wave (km/s) = 7.34066 7.99829 7.67652
#
# Compressibility (1/GPa) = 0.01322670
#
# Stress axis : x y z
#
# Youngs Moduli (GPa) = 98.46519 133.91304 121.54399
#
# Poissons Ratio (x) = 0.51477 0.08262
# Poissons Ratio (y) = 0.37851 0.21735
# Poissons Ratio (z) = 0.06693 0.23947
#
# Static dielectric constant tensor:
#      x y z
#    x 1.823330 0.000000 0.000000 
#    y 0.000000 1.999460 0.000000 
#    z 0.000000 0.000000 1.836560 
# 
# From -- ./inp_files/12426.got.cif
#   From: 2010.05.17/outbox.cif.g08.bks.cpg/sg23_7_cif.got.tgz:12426.got - 2010.06.04 12:02:01.
