data_PCOD9332182
_publ_section_title
;
Structure prediction by ZEFSAII (Michael W. Deem and Ramdas Pophale) SiO2 
 PCOD9332182
Probable space group: I 2 2 2
;
_chemical_formula_sum "Si O2"
_cell_formula_units_Z 64
_cell_length_a 11.650410
_cell_length_b 13.345902
_cell_length_c 21.907754
_cell_angle_alpha 90.000000
_cell_angle_beta 90.000000
_cell_angle_gamma 90.000000
_cell_volume 3406.332172
_symmetry_space_group_name_H-M "I 2 2 2"
_symmetry_group_IT_number 23
_symmetry_cell_setting 'orthorhombic'
loop_
_space_group_symop_operation_xyz
x,y,z
-x,-y,z
x,-y,-z
-x,y,-z
1/2+x,1/2+y,1/2+z
1/2-x,1/2-y,1/2+z
1/2+x,1/2-y,1/2-z
1/2-x,1/2+y,1/2-z
loop_
_atom_site_type_symbol
_atom_site_label
_atom_site_fract_x
_atom_site_fract_y
_atom_site_fract_z
Si Si1 0.636446 0.500000 0.568581
Si Si2 0.237448 0.687967 0.375130
Si Si3 0.130448 0.881758 0.233581
Si Si4 0.737448 0.812033 0.875130
Si Si5 0.133875 0.115000 0.619119
Si Si6 0.130448 0.881758 0.766419
Si Si7 0.500000 0.119052 0.929343
Si Si8 0.366125 0.615000 0.119119
O O1 0.500000 0.500000 0.570656
O O2 0.681584 0.500000 0.500000
O O3 0.680376 0.604879 0.595474
O O4 0.680376 0.395121 0.595474
O O5 0.226423 0.801453 0.400169
O O6 0.277390 0.680428 0.304874
O O7 0.110482 0.649789 0.390555
O O8 0.222610 0.819572 0.195126
O O9 0.136146 0.877216 0.306869
O O10 1.000000 0.852170 0.216277
O O11 0.144870 1.000000 0.218098
O O12 0.610482 0.850211 0.890555
O O13 0.726423 0.698547 0.900169
O O14 0.000000 0.135290 0.600574
O O15 0.159124 0.000000 0.602091
O O16 0.136146 0.877216 0.693131
O O17 0.500000 0.000000 0.934309
O O18 0.500000 0.158149 0.000000
#
# Coordination Sequence:
#
# PCOD9332182 Si02
#       8
#     8   8   8   8   8   8   8   8
#     4  11  24  39  59  85 107 136 185 237 287 332
#     4  12  19  33  56  79 108 145 183 223 278 327
#     4   9  17  31  52  79 110 144 181 221 270 324
#     4  12  19  33  56  79 108 145 183 223 278 327
#     4   9  19  34  52  79 113 150 184 217 261 328
#     4   9  17  31  52  79 110 144 181 221 270 324
#     4  11  22  34  49  77 113 145 176 225 289 332
#     4   9  19  34  52  79 113 150 184 217 261 328
#
# _framework density 18.788537000000002
#
# number of rings (size 3 to 8) (size 9 to 14) (size 15 to 20)
#    0.000    1.750    3.750    3.750    0.000    0.000 
#    0.000    0.000    0.000    6.750    0.000    1.750 
#    0.000    0.000    0.000    0.000    0.000    0.000 
#
# Total GULP energy -178202.155519 kJ/mol
# GULP energy per Si atom -5568.817360 kJ/mol
# Density = 1.874577 g / cm^3
# Si number density = 18.788537 Si / 1000 Ang^3
#
#
#
# Elastic Constant Matrix: (Units=GPa)
#
#
# Indices 1 2 3 4 5 6 
#
# 1 51.3736 22.1460 9.6068 0.0000 0.0000 0.0000
# 2 22.1460 123.4740 0.8361 0.0000 0.0000 0.0000
# 3 9.6068 0.8361 28.8864 0.0000 0.0000 0.0000
# 4 0.0000 0.0000 0.0000 12.7861 0.0000 0.0000
# 5 0.0000 0.0000 0.0000 0.0000 8.8408 0.0000
# 6 0.0000 0.0000 0.0000 0.0000 0.0000 19.4448
#
#
#
# Elastic Compliance Matrix: (Units=1/GPa)
#
#
# Indices 1 2 3 4 5 6 
#
# 1 0.022571 -0.003998 -0.007391 0.000000 0.000000 0.000000
# 2 -0.003998 0.008809 0.001075 0.000000 0.000000 0.000000
# 3 -0.007391 0.001075 0.037045 0.000000 0.000000 0.000000
# 4 0.000000 0.000000 0.000000 0.078210 0.000000 0.000000
# 5 0.000000 0.000000 0.000000 0.000000 0.113112 0.000000
# 6 0.000000 0.000000 0.000000 0.000000 0.000000 0.051428
#
#
# Mechanical properties :
#
#
# Convention : Reuss Voigt Hill
#
# Bulk Modulus (GPa) = 20.92211 29.87910 25.40060
# Shear Modulus (GPa) = 14.37879 19.62403 17.00141
#
# Velocity S-wave (km/s) = 2.76940 3.23533 3.01139
# Velocity P-wave (km/s) = 4.62448 5.46753 5.06358
#
# Compressibility (1/GPa) = 0.04779633
#
# Stress axis : x y z
#
# Youngs Moduli (GPa) = 44.30496 113.52414 26.99409
#
# Poissons Ratio (x) = 0.45389 0.19951
# Poissons Ratio (y) = 0.17714 -0.02901
# Poissons Ratio (z) = 0.32744 -0.12201
#
# Static dielectric constant tensor:
#      x y z
#    x 1.617450 0.000000 0.000000 
#    y 0.000000 1.717900 0.000000 
#    z 0.000000 0.000000 1.722230 
# 
# From -- ./inp_files/29511.got.cif
#   From: 2010.05.17/outbox.cif.g08.bks.cpg/sg23_15_cif.got.tgz:29511.got - 2010.06.04 12:02:01.
