data_PCOD9332193
_publ_section_title
;
Structure prediction by ZEFSAII (Michael W. Deem and Ramdas Pophale) SiO2 
 PCOD9332193
Probable space group: I 2 2 2
;
_chemical_formula_sum "Si O2"
_cell_formula_units_Z 40
_cell_length_a 32.287401
_cell_length_b 12.008690
_cell_length_c 4.829261
_cell_angle_alpha 90.000000
_cell_angle_beta 90.000000
_cell_angle_gamma 90.000000
_cell_volume 1872.446419
_symmetry_space_group_name_H-M "I 2 2 2"
_symmetry_group_IT_number 23
_symmetry_cell_setting 'orthorhombic'
loop_
_space_group_symop_operation_xyz
x,y,z
-x,-y,z
x,-y,-z
-x,y,-z
1/2+x,1/2+y,1/2+z
1/2-x,1/2-y,1/2+z
1/2+x,1/2-y,1/2-z
1/2-x,1/2+y,1/2-z
loop_
_atom_site_type_symbol
_atom_site_label
_atom_site_fract_x
_atom_site_fract_y
_atom_site_fract_z
Si Si1 0.221698 0.254182 0.158455
Si Si2 0.148017 0.421796 0.252878
Si Si3 0.451546 0.634151 0.471184
Si Si4 0.166499 0.064685 0.252366
Si Si5 0.902685 0.220545 0.484979
O O1 0.238523 0.237751 0.466949
O O2 0.186985 0.349631 0.143166
O O3 0.197937 0.141568 0.086401
O O4 0.163501 0.500000 0.500000
O O5 0.114517 0.339212 0.401494
O O6 0.132519 0.500000 0.000000
O O7 0.447135 0.500000 0.500000
O O8 0.500000 0.660197 0.500000
O O9 0.440034 0.675315 0.167865
O O10 0.419627 0.700930 0.675010
O O11 0.134398 0.137406 0.430299
O O12 0.188896 0.000000 0.500000
O O13 0.145029 0.000000 0.000000
#
# Coordination Sequence:
#
# PCOD9332193 Si02
#       5
#     8   8   8   8   8
#     4  11  24  39  57  86 119 154 202 258 315 372
#     4  11  24  42  64  87 117 166 219 264 310 364
#     4  11  22  37  62  96 130 161 191 238 314 389
#     4  11  22  36  57  84 115 154 195 242 305 368
#     4  11  22  39  61  88 123 158 203 252 296 370
#
# _framework density 21.362425999999999
#
# number of rings (size 3 to 8) (size 9 to 14) (size 15 to 20)
#    0.000    1.000    0.000    7.800    0.000   12.800 
#    0.000    0.000    0.000    9.000    0.000    0.000 
#    0.000    0.000    0.000    0.000    0.000    0.000 
#
# Total GULP energy -111596.236768 kJ/mol
# GULP energy per Si atom -5579.811838 kJ/mol
# Density = 2.131380 g / cm^3
# Si number density = 21.362426 Si / 1000 Ang^3
#
#
#
# Elastic Constant Matrix: (Units=GPa)
#
#
# Indices 1 2 3 4 5 6 
#
# 1 66.7292 15.2571 -21.0017 0.0003 0.0003 -0.0001
# 2 15.2571 76.5432 16.7471 -0.0003 -0.0005 0.0002
# 3 -21.0017 16.7471 76.6401 -0.0037 0.0004 -0.0014
# 4 0.0003 -0.0003 -0.0037 24.0866 0.0001 -0.0005
# 5 0.0003 -0.0005 0.0004 0.0001 43.5692 -0.0002
# 6 -0.0001 0.0002 -0.0014 -0.0005 -0.0002 14.8725
#
#
#
# Elastic Compliance Matrix: (Units=1/GPa)
#
#
# Indices 1 2 3 4 5 6 
#
# 1 0.017995 -0.004900 0.006002 0.000001 0.000000 0.000001
# 2 -0.004900 0.015055 -0.004632 0.000000 0.000000 -0.000001
# 3 0.006002 -0.004632 0.015705 0.000002 0.000000 0.000002
# 4 0.000001 0.000000 0.000002 0.041517 0.000000 0.000001
# 5 0.000000 0.000000 0.000000 0.000000 0.022952 0.000000
# 6 0.000001 -0.000001 0.000002 0.000001 0.000000 0.067238
#
#
# Mechanical properties :
#
#
# Convention : Reuss Voigt Hill
#
# Bulk Modulus (GPa) = 23.98433 26.87973 25.43203
# Shear Modulus (GPa) = 24.82360 30.43301 27.62830
#
# Velocity S-wave (km/s) = 3.41254 3.77849 3.60017
# Velocity P-wave (km/s) = 5.17484 5.62548 5.40486
#
# Compressibility (1/GPa) = 0.04169388
#
# Stress axis : x y z
#
# Youngs Moduli (GPa) = 55.56996 66.42400 63.67399
#
# Poissons Ratio (x) = 0.32549 -0.38217
# Poissons Ratio (y) = 0.27230 0.29497
# Poissons Ratio (z) = -0.33353 0.30771
#
# Static dielectric constant tensor:
#      x y z
#    x 1.724160 0.000000 0.000000 
#    y 0.000000 1.842760 0.000000 
#    z 0.000000 0.000000 1.737270 
# 
# From -- ./inp_files/5273.got.cif
#   From: 2010.05.17/outbox.cif.g08.bks.cpg/sg23_3_cif.got.tgz:5273.got - 2010.06.04 12:02:01.
