data_PCOD9332361
_publ_section_title
;
Structure prediction by ZEFSAII (Michael W. Deem and Ramdas Pophale) SiO2 
 PCOD9332361
Probable space group: I 2 2 2
;
_chemical_formula_sum "Si O2"
_cell_formula_units_Z 34
_cell_length_a 19.648389
_cell_length_b 9.399289
_cell_length_c 7.960631
_cell_angle_alpha 90.000000
_cell_angle_beta 90.000000
_cell_angle_gamma 90.000000
_cell_volume 1470.176391
_symmetry_space_group_name_H-M "I 2 2 2"
_symmetry_group_IT_number 23
_symmetry_cell_setting 'orthorhombic'
loop_
_space_group_symop_operation_xyz
x,y,z
-x,-y,z
x,-y,-z
-x,y,-z
1/2+x,1/2+y,1/2+z
1/2-x,1/2-y,1/2+z
1/2+x,1/2-y,1/2-z
1/2-x,1/2+y,1/2-z
loop_
_atom_site_type_symbol
_atom_site_label
_atom_site_fract_x
_atom_site_fract_y
_atom_site_fract_z
Si Si1 0.500000 0.000000 0.500000
Si Si2 0.224680 0.896077 0.249237
Si Si3 0.414133 0.342515 0.080485
Si Si4 0.544023 0.246349 0.262423
Si Si5 0.318258 0.679172 0.374063
O O1 0.460784 0.894271 0.374061
O O2 0.162490 0.835052 0.357675
O O3 0.294885 0.833729 0.314369
O O4 0.218518 0.065833 0.247483
O O5 0.207957 0.849498 0.059743
O O6 0.469150 0.311756 0.226890
O O7 0.424825 0.500000 0.000000
O O8 0.427575 0.233789 0.927677
O O9 0.601064 0.342029 0.353941
#
# Coordination Sequence:
#
# PCOD9332361 Si02
#       5
#     2   8   8   8   8
#     4  12  28  46  62 108 152 190 236 308 384 458
#     4  11  25  43  70 108 144 194 250 306 381 440
#     4  11  23  45  76 108 138 190 256 313 360 447
#     4  11  24  44  70 103 142 191 241 304 376 435
#     4  11  25  44  70 104 148 194 247 311 370 457
#
# _framework density 23.126474999999999
#
# number of rings (size 3 to 8) (size 9 to 14) (size 15 to 20)
#    0.000    0.941    2.353    4.235    0.000    5.647 
#    0.000    2.353    0.000    0.000    0.000    0.000 
#    0.000    0.000    0.000    0.000    0.000    0.000 
#
# Total GULP energy -95015.873293 kJ/mol
# GULP energy per Si atom -5589.169017 kJ/mol
# Density = 2.307384 g / cm^3
# Si number density = 23.126475 Si / 1000 Ang^3
#
#
#
# Elastic Constant Matrix: (Units=GPa)
#
#
# Indices 1 2 3 4 5 6 
#
# 1 88.6267 16.9698 33.8899 0.0000 0.0000 0.0000
# 2 16.9698 92.6731 38.3552 0.0000 0.0000 0.0000
# 3 33.8899 38.3552 91.5298 0.0000 0.0000 0.0000
# 4 0.0000 0.0000 0.0000 51.7409 0.0000 0.0000
# 5 0.0000 0.0000 0.0000 0.0000 39.1251 0.0000
# 6 0.0000 0.0000 0.0000 0.0000 0.0000 16.7235
#
#
#
# Elastic Compliance Matrix: (Units=1/GPa)
#
#
# Indices 1 2 3 4 5 6 
#
# 1 0.013162 -0.000476 -0.004674 0.000000 0.000000 0.000000
# 2 -0.000476 0.013072 -0.005302 0.000000 0.000000 0.000000
# 3 -0.004674 -0.005302 0.014878 0.000000 0.000000 0.000000
# 4 0.000000 0.000000 0.000000 0.019327 0.000000 0.000000
# 5 0.000000 0.000000 0.000000 0.000000 0.025559 0.000000
# 6 0.000000 0.000000 0.000000 0.000000 0.000000 0.059796
#
#
# Mechanical properties :
#
#
# Convention : Reuss Voigt Hill
#
# Bulk Modulus (GPa) = 49.48350 50.13993 49.81172
# Shear Modulus (GPa) = 28.82973 33.75887 31.29430
#
# Velocity S-wave (km/s) = 3.53457 3.82481 3.68255
# Velocity P-wave (km/s) = 6.17260 6.42132 6.29819
#
# Compressibility (1/GPa) = 0.02020875
#
# Stress axis : x y z
#
# Youngs Moduli (GPa) = 75.97853 76.49978 67.21518
#
# Poissons Ratio (x) = 0.03639 0.31416
# Poissons Ratio (y) = 0.03614 0.35635
# Poissons Ratio (z) = 0.35512 0.40557
#
# Static dielectric constant tensor:
#      x y z
#    x 1.844900 0.000000 0.000000 
#    y 0.000000 1.893290 0.000000 
#    z 0.000000 0.000000 1.879080 
# 
# From -- ./inp_files/11656.got.cif
#   From: 2010.05.17/outbox.cif.g08.bks.cpg/sg23_6_cif.got.tgz:11656.got - 2010.06.04 12:02:01.
