data_PCOD9332694
_publ_section_title
;
Structure prediction by ZEFSAII (Michael W. Deem and Ramdas Pophale) SiO2 
 PCOD9332694
Probable space group: I 21 21 21
;
_chemical_formula_sum "Si O2"
_cell_formula_units_Z 56
_cell_length_a 13.062711
_cell_length_b 33.572725
_cell_length_c 5.570039
_cell_angle_alpha 90.000000
_cell_angle_beta 90.000000
_cell_angle_gamma 90.000000
_cell_volume 2442.745083
_symmetry_space_group_name_H-M "I 21 21 21"
_symmetry_group_IT_number 24
_symmetry_cell_setting 'orthorhombic'
loop_
_space_group_symop_operation_xyz
x,y,z
-x,1/2-y,z
x,-y,1/2-z
1/2-x,y,-z
1/2+x,1/2+y,1/2+z
1/2-x,-y,1/2+z
1/2+x,1/2-y,-z
-x,1/2+y,1/2-z
loop_
_atom_site_type_symbol
_atom_site_label
_atom_site_fract_x
_atom_site_fract_y
_atom_site_fract_z
Si Si1 0.627379 0.476795 0.998687
Si Si2 0.377371 0.251166 0.895273
Si Si3 0.878707 0.156382 0.088238
Si Si4 0.099369 0.221632 0.606675
Si Si5 0.583787 0.628719 0.072909
Si Si6 0.407806 0.110584 0.931441
Si Si7 0.850268 0.883538 0.914915
O O1 0.608433 0.500000 0.750000
O O2 0.565842 0.435673 0.971611
O O3 0.605822 0.500000 0.250000
O O4 0.750000 0.467507 0.000000
O O5 0.500000 0.250000 0.874242
O O6 0.358275 0.297375 0.947546
O O7 0.344067 0.235705 0.634892
O O8 0.349170 0.226452 0.132335
O O9 0.847635 0.147353 0.362437
O O10 0.996964 0.141594 0.078955
O O11 0.836301 0.133098 0.854064
O O12 0.066192 0.176105 0.567569
O O13 0.000000 0.250000 0.625574
O O14 0.644103 0.621059 0.318008
O O15 0.472383 0.605858 0.080167
O O16 0.638025 0.614817 0.831779
O O17 0.750000 0.909516 0.000000
#
# Coordination Sequence:
#
# PCOD9332694 Si02
#       7
#     8   8   8   8   8   8   8
#     4  10  21  37  57  83 110 133 160 193 244 313
#     4  10  16  25  41  63  88 117 155 206 248 281
#     4  10  19  30  45  72  96 122 173 212 243 302
#     4  10  16  25  41  65  90 117 155 206 247 280
#     4  10  19  30  47  76  99 123 172 211 242 298
#     4  10  18  32  51  72 103 129 154 204 245 279
#     4  10  18  29  43  63  96 127 155 202 254 287
#
# _framework density 22.925031000000001
#
# number of rings (size 3 to 8) (size 9 to 14) (size 15 to 20)
#    0.000    2.000    0.000    9.857    0.000    0.000 
#    0.000    0.000    0.000    0.000    0.000   74.000 
#    0.000  182.857    0.000    0.000    0.000    0.000 
#
# Total GULP energy -155968.253108 kJ/mol
# GULP energy per Si atom -5570.294754 kJ/mol
# Density = 2.287285 g / cm^3
# Si number density = 22.925031 Si / 1000 Ang^3
#
#
#
# Elastic Constant Matrix: (Units=GPa)
#
#
# Indices 1 2 3 4 5 6 
#
# 1 84.9789 4.6863 47.5394 -0.0305 0.0397 -0.0045
# 2 4.6863 87.5437 34.1627 0.0218 0.0008 -0.0173
# 3 47.5394 34.1627 268.8878 -0.0007 0.1274 -0.0688
# 4 -0.0305 0.0218 -0.0007 36.7087 0.0229 -0.0123
# 5 0.0397 0.0008 0.1274 0.0229 28.8379 0.0305
# 6 -0.0045 -0.0173 -0.0688 -0.0123 0.0305 12.3837
#
#
#
# Elastic Compliance Matrix: (Units=1/GPa)
#
#
# Indices 1 2 3 4 5 6 
#
# 1 0.013063 0.000213 -0.002337 0.000011 -0.000008 -0.000008
# 2 0.000213 0.012022 -0.001565 -0.000007 0.000006 0.000008
# 3 -0.002337 -0.001565 0.004331 -0.000001 -0.000016 0.000021
# 4 0.000011 -0.000007 -0.000001 0.027242 -0.000022 0.000027
# 5 -0.000008 0.000006 -0.000016 -0.000022 0.034677 -0.000085
# 6 -0.000008 0.000008 0.000021 0.000027 -0.000085 0.080752
#
#
# Mechanical properties :
#
#
# Convention : Reuss Voigt Hill
#
# Bulk Modulus (GPa) = 45.37588 68.24303 56.80946
# Shear Modulus (GPa) = 26.76507 39.25417 33.00962
#
# Velocity S-wave (km/s) = 3.42058 4.14246 3.79871
# Velocity P-wave (km/s) = 5.95287 7.26034 6.63887
#
# Compressibility (1/GPa) = 0.02203814
#
# Stress axis : x y z
#
# Youngs Moduli (GPa) = 76.55191 83.17929 230.89474
#
# Poissons Ratio (x) = -0.01768 0.53950
# Poissons Ratio (y) = -0.01627 0.36136
# Poissons Ratio (z) = 0.17887 0.13018
#
# Static dielectric constant tensor:
#      x y z
#    x 2.010990 0.000010 0.000030 
#    y 0.000010 1.795840 -0.000050 
#    z 0.000030 -0.000050 1.936990 
# 
# From -- ./inp_files/3981.got.cif
#   From: 2010.05.17/outbox.cif.g08.bks.cpg/sg24_2_cif.got.tgz:3981.got - 2010.06.04 00:33:39.
