data_PCOD9332732
_publ_section_title
;
Structure prediction by ZEFSAII (Michael W. Deem and Ramdas Pophale) SiO2 
 PCOD9332732
Probable space group: I 21 21 21
;
_chemical_formula_sum "Si O2"
_cell_formula_units_Z 64
_cell_length_a 10.166201
_cell_length_b 11.119328
_cell_length_c 27.578801
_cell_angle_alpha 90.000000
_cell_angle_beta 90.000000
_cell_angle_gamma 90.000000
_cell_volume 3117.544164
_symmetry_space_group_name_H-M "I 21 21 21"
_symmetry_group_IT_number 24
_symmetry_cell_setting 'orthorhombic'
loop_
_space_group_symop_operation_xyz
x,y,z
-x,1/2-y,z
x,-y,1/2-z
1/2-x,y,-z
1/2+x,1/2+y,1/2+z
1/2-x,-y,1/2+z
1/2+x,1/2-y,-z
-x,1/2+y,1/2-z
loop_
_atom_site_type_symbol
_atom_site_label
_atom_site_fract_x
_atom_site_fract_y
_atom_site_fract_z
Si Si1 0.186259 0.205274 0.606817
Si Si2 0.503335 0.949889 0.164838
Si Si3 0.781210 0.202322 0.712243
Si Si4 0.789743 0.051402 0.444650
Si Si5 0.758196 0.872057 0.636848
Si Si6 0.636480 0.674801 0.306642
Si Si7 0.448870 0.508841 0.801578
Si Si8 0.447884 0.116255 0.602668
O O1 0.053617 0.130200 0.620029
O O2 0.232184 0.229218 0.661859
O O3 0.209632 0.334874 0.580077
O O4 0.299175 0.121481 0.584216
O O5 0.579336 0.867982 0.204208
O O6 0.616686 0.044010 0.150307
O O7 0.391479 0.034781 0.186893
O O8 0.786268 0.285930 0.758672
O O9 0.662178 0.108601 0.712008
O O10 0.750000 0.044944 0.500000
O O11 0.944538 0.075260 0.436368
O O12 0.770923 0.926455 0.415675
O O13 0.793999 0.734407 0.646381
O O14 0.641238 0.904199 0.674592
O O15 0.500000 0.750000 0.302928
O O16 0.521000 0.500000 0.750000
O O17 0.537043 0.545927 0.846994
O O18 0.500000 0.250000 0.614159
#
# Coordination Sequence:
#
# PCOD9332732 Si02
#       8
#     8   8   8   8   8   8   8   8
#     4  11  20  36  52  76 119 145 172 231 284 326
#     4  10  21  34  49  82 115 148 183 221 282 329
#     4  11  19  31  53  79 112 154 185 220 266 330
#     4  10  20  37  61  84  97 136 187 236 286 344
#     4   9  18  33  54  79 102 136 181 233 272 321
#     4  10  20  31  51  79 115 150 185 228 267 327
#     4  10  16  30  54  71 101 145 189 212 261 325
#     4   9  18  36  50  74 107 142 171 225 278 319
#
# _framework density 20.528980000000001
#
# number of rings (size 3 to 8) (size 9 to 14) (size 15 to 20)
#    0.000    2.000    6.250    1.125    0.000    2.500 
#    9.000    0.000    0.000    3.000    3.250    0.000 
#    0.000    0.000    0.000    0.000    0.000    0.000 
#
# Total GULP energy -178166.300218 kJ/mol
# GULP energy per Si atom -5567.696882 kJ/mol
# Density = 2.048226 g / cm^3
# Si number density = 20.528980 Si / 1000 Ang^3
#
#
#
# Elastic Constant Matrix: (Units=GPa)
#
#
# Indices 1 2 3 4 5 6 
#
# 1 37.7507 17.1327 18.8734 0.0000 0.0000 0.0000
# 2 17.1327 51.0593 15.8466 0.0000 0.0000 0.0000
# 3 18.8734 15.8466 108.6534 0.0000 0.0000 0.0000
# 4 0.0000 0.0000 0.0000 9.4360 0.0000 0.0000
# 5 0.0000 0.0000 0.0000 0.0000 8.0233 0.0000
# 6 0.0000 0.0000 0.0000 0.0000 0.0000 12.3891
#
#
#
# Elastic Compliance Matrix: (Units=1/GPa)
#
#
# Indices 1 2 3 4 5 6 
#
# 1 0.033079 -0.009758 -0.004323 0.000000 0.000000 0.000000
# 2 -0.009758 0.023392 -0.001717 0.000000 0.000000 0.000000
# 3 -0.004323 -0.001717 0.010205 0.000000 0.000000 0.000000
# 4 0.000000 0.000000 0.000000 0.105977 0.000000 0.000000
# 5 0.000000 0.000000 0.000000 0.000000 0.124638 0.000000
# 6 0.000000 0.000000 0.000000 0.000000 0.000000 0.080716
#
#
# Mechanical properties :
#
#
# Convention : Reuss Voigt Hill
#
# Bulk Modulus (GPa) = 28.50518 33.46321 30.98420
# Shear Modulus (GPa) = 11.86816 15.67706 13.77261
#
# Velocity S-wave (km/s) = 2.40702 2.76643 2.59296
# Velocity P-wave (km/s) = 4.65193 5.15170 4.90818
#
# Compressibility (1/GPa) = 0.03508134
#
# Stress axis : x y z
#
# Youngs Moduli (GPa) = 30.23032 42.74947 97.99280
#
# Poissons Ratio (x) = 0.41715 0.42361
# Poissons Ratio (y) = 0.29499 0.16822
# Poissons Ratio (z) = 0.13068 0.07339
#
# Static dielectric constant tensor:
#      x y z
#    x 1.946920 0.000000 0.000000 
#    y 0.000000 1.779650 0.000000 
#    z 0.000000 0.000000 1.712860 
# 
# From -- ./inp_files/37273.got.cif
#   From: 2010.05.17/outbox.cif.g08.bks.cpg/sg24_19_cif.got.tgz:37273.got - 2010.06.04 00:33:39.
