data_PCOD9332431
_publ_section_title
;
Structure prediction by ZEFSAII (Michael W. Deem and Ramdas Pophale) SiO2 
 PCOD9332431
Probable space group: I 2 2 2
;
_chemical_formula_sum "Si O2"
_cell_formula_units_Z 26
_cell_length_a 17.704167
_cell_length_b 5.190920
_cell_length_c 12.263844
_cell_angle_alpha 90.000000
_cell_angle_beta 90.000000
_cell_angle_gamma 90.000000
_cell_volume 1127.058480
_symmetry_space_group_name_H-M "I 2 2 2"
_symmetry_group_IT_number 23
_symmetry_cell_setting 'orthorhombic'
loop_
_space_group_symop_operation_xyz
x,y,z
-x,-y,z
x,-y,-z
-x,y,-z
1/2+x,1/2+y,1/2+z
1/2-x,1/2-y,1/2+z
1/2+x,1/2-y,1/2-z
1/2-x,1/2+y,1/2-z
loop_
_atom_site_type_symbol
_atom_site_label
_atom_site_fract_x
_atom_site_fract_y
_atom_site_fract_z
Si Si1 0.409184 0.519606 0.124511
Si Si2 0.800210 0.345394 0.755776
Si Si3 0.077743 0.353772 0.824487
Si Si4 0.000000 0.000000 0.000000
O O1 0.500000 0.500000 0.119605
O O2 0.364671 0.768591 0.168094
O O3 0.395502 0.310602 0.219845
O O4 0.382517 0.500000 0.000000
O O5 0.745697 0.582279 0.723118
O O6 0.853610 0.454651 0.852000
O O7 0.000000 0.500000 0.796192
O O8 0.052605 0.170711 0.922250
#
# Coordination Sequence:
#
# PCOD9332431 Si02
#       4
#     8   8   8   2
#     4  11  24  48  83 117 150 204 265 322 382 466
#     4  12  26  49  80 111 168 203 250 325 400 475
#     4  12  24  49  80 114 154 202 272 325 388 465
#     4  12  26  48  82 118 140 214 278 340 372 466
#
# _framework density 23.068899999999999
#
# number of rings (size 3 to 8) (size 9 to 14) (size 15 to 20)
#    0.000    0.308    7.692    0.462    0.000    1.231 
#    0.000    9.231    0.000    0.000    0.000    0.000 
#    0.000    0.000    0.000    0.000    0.000    0.000 
#
# Total GULP energy -72492.238057 kJ/mol
# GULP energy per Si atom -5576.326004 kJ/mol
# Density = 2.301639 g / cm^3
# Si number density = 23.068900 Si / 1000 Ang^3
#
#
#
# Elastic Constant Matrix: (Units=GPa)
#
#
# Indices 1 2 3 4 5 6 
#
# 1 159.6645 93.1353 39.9815 0.0000 0.0000 0.0000
# 2 93.1353 179.2641 77.5714 0.0000 0.0000 0.0000
# 3 39.9815 77.5714 130.6878 0.0000 0.0000 0.0000
# 4 0.0000 0.0000 0.0000 51.8060 0.0000 0.0000
# 5 0.0000 0.0000 0.0000 0.0000 -4.2244 0.0000
# 6 0.0000 0.0000 0.0000 0.0000 0.0000 32.7282
#
#
#
# Elastic Compliance Matrix: (Units=1/GPa)
#
#
# Indices 1 2 3 4 5 6 
#
# 1 0.008987 -0.004682 0.000030 0.000000 0.000000 0.000000
# 2 -0.004682 0.009945 -0.004471 0.000000 0.000000 0.000000
# 3 0.000030 -0.004471 0.010297 0.000000 0.000000 0.000000
# 4 0.000000 0.000000 0.000000 0.019303 0.000000 0.000000
# 5 0.000000 0.000000 0.000000 0.000000 -0.236720 0.000000
# 6 0.000000 0.000000 0.000000 0.000000 0.000000 0.030555
#
#
# Mechanical properties :
#
#
# Convention : Reuss Voigt Hill
#
# Bulk Modulus (GPa) = 91.05425 98.99923 95.02674
# Shear Modulus (GPa) = -36.83876 33.32384 -1.75746
#
# Velocity S-wave (km/s) = -4.00046 3.80483 -0.87378
# Velocity P-wave (km/s) = 4.26826 7.89367 6.34539
#
# Compressibility (1/GPa) = 0.01098246
#
# Stress axis : x y z
#
# Youngs Moduli (GPa) = 111.27572 100.54887 97.12007
#
# Poissons Ratio (x) = 0.47075 -0.00288
# Poissons Ratio (y) = 0.52097 0.43422
# Poissons Ratio (z) = -0.00330 0.44955
#
# Static dielectric constant tensor:
#      x y z
#    x 1.891190 0.000000 0.000000 
#    y 0.000000 1.996690 0.000000 
#    z 0.000000 0.000000 1.962900 
# 
# From -- ./inp_files/17114.got.cif
#   From: 2010.05.17/outbox.cif.g08.bks.cpg/sg23_9_cif.got.tgz:17114.got - 2010.06.04 12:02:01.
