data_PCOD9332740
_publ_section_title
;
Structure prediction by ZEFSAII (Michael W. Deem and Ramdas Pophale) SiO2 
 PCOD9332740
Probable space group: I 21 21 21
;
_chemical_formula_sum "Si O2"
_cell_formula_units_Z 44
_cell_length_a 15.405192
_cell_length_b 15.067965
_cell_length_c 9.090516
_cell_angle_alpha 90.000000
_cell_angle_beta 90.000000
_cell_angle_gamma 90.000000
_cell_volume 2110.135062
_symmetry_space_group_name_H-M "I 21 21 21"
_symmetry_group_IT_number 24
_symmetry_cell_setting 'orthorhombic'
loop_
_space_group_symop_operation_xyz
x,y,z
-x,1/2-y,z
x,-y,1/2-z
1/2-x,y,-z
1/2+x,1/2+y,1/2+z
1/2-x,-y,1/2+z
1/2+x,1/2-y,-z
-x,1/2+y,1/2-z
loop_
_atom_site_type_symbol
_atom_site_label
_atom_site_fract_x
_atom_site_fract_y
_atom_site_fract_z
Si Si1 0.339756 0.872989 0.429744
Si Si2 0.347977 0.574931 0.476279
Si Si3 0.904139 0.770172 0.331298
Si Si4 0.045952 0.000000 0.750000
Si Si5 0.230756 0.767602 0.848909
Si Si6 0.109774 0.603510 0.866212
O O1 0.250000 0.905676 0.500000
O O2 0.383512 0.804245 0.543744
O O3 0.313410 0.820940 0.282125
O O4 0.400926 0.950980 0.376009
O O5 0.250000 0.603219 0.500000
O O6 0.404640 0.635647 0.582553
O O7 0.361808 0.589981 0.303853
O O8 0.359639 0.469242 0.486175
O O9 0.821909 0.767507 0.220994
O O10 0.000000 0.750000 0.267918
O O11 0.990278 0.076155 0.663144
O O12 0.159871 0.693836 0.898626
O O13 0.250000 0.819402 0.000000
#
# Coordination Sequence:
#
# PCOD9332740 Si02
#       6
#     8   8   8   4   8   8
#     4  10  22  41  67  91 119 173 215 260 317 370
#     4  10  16  31  57  84 125 161 203 247 303 370
#     4  11  20  38  64  91 123 169 219 257 304 387
#     4  10  22  38  64  98 114 160 222 266 300 382
#     4  11  23  41  61  93 133 167 202 263 330 379
#     4  10  20  33  57  97 124 158 203 257 318 363
#
# _framework density 20.851747
#
# number of rings (size 3 to 8) (size 9 to 14) (size 15 to 20)
#    0.000    1.818    3.636    3.273    0.000    0.727 
#    3.273    0.000    0.000    0.000    0.000    0.000 
#    0.000    0.000    0.000    0.000    0.000    0.000 
#
# Total GULP energy -122498.645513 kJ/mol
# GULP energy per Si atom -5568.120251 kJ/mol
# Density = 2.080429 g / cm^3
# Si number density = 20.851747 Si / 1000 Ang^3
#
#
#
# Elastic Constant Matrix: (Units=GPa)
#
#
# Indices 1 2 3 4 5 6 
#
# 1 119.2210 46.6306 25.4482 0.0000 0.0000 0.0000
# 2 46.6306 54.8363 31.1653 0.0000 0.0000 0.0000
# 3 25.4482 31.1653 85.2036 0.0000 0.0000 0.0000
# 4 0.0000 0.0000 0.0000 7.0857 0.0000 0.0000
# 5 0.0000 0.0000 0.0000 0.0000 8.3737 0.0000
# 6 0.0000 0.0000 0.0000 0.0000 0.0000 41.1484
#
#
#
# Elastic Compliance Matrix: (Units=1/GPa)
#
#
# Indices 1 2 3 4 5 6 
#
# 1 0.012570 -0.010801 0.000196 0.000000 0.000000 0.000000
# 2 -0.010801 0.032302 -0.008589 0.000000 0.000000 0.000000
# 3 0.000196 -0.008589 0.014820 0.000000 0.000000 0.000000
# 4 0.000000 0.000000 0.000000 0.141130 0.000000 0.000000
# 5 0.000000 0.000000 0.000000 0.000000 0.119422 0.000000
# 6 0.000000 0.000000 0.000000 0.000000 0.000000 0.024302
#
#
# Mechanical properties :
#
#
# Convention : Reuss Voigt Hill
#
# Bulk Modulus (GPa) = 46.93867 51.74988 49.34428
# Shear Modulus (GPa) = 12.81932 21.72267 17.27100
#
# Velocity S-wave (km/s) = 2.48217 3.23114 2.88110
# Velocity P-wave (km/s) = 5.54747 6.22834 5.89774
#
# Compressibility (1/GPa) = 0.02130440
#
# Stress axis : x y z
#
# Youngs Moduli (GPa) = 79.55173 30.95743 67.47739
#
# Poissons Ratio (x) = 0.33437 -0.01324
# Poissons Ratio (y) = 0.85923 0.57959
# Poissons Ratio (z) = -0.01561 0.26591
#
# Static dielectric constant tensor:
#      x y z
#    x 1.822680 0.000000 0.000000 
#    y 0.000000 1.844690 0.000000 
#    z 0.000000 0.000000 1.734170 
# 
# From -- ./inp_files/12640.got.cif
#   From: 2010.05.17/outbox.cif.g08.bks.cpg/sg24_7_cif.got.tgz:12640.got - 2010.06.04 00:33:39.
