data_PCOD9332836
_publ_section_title
;
Structure prediction by ZEFSAII (Michael W. Deem and Ramdas Pophale) SiO2 
 PCOD9332836
Probable space group: I 21 21 21
;
_chemical_formula_sum "Si O2"
_cell_formula_units_Z 64
_cell_length_a 20.745255
_cell_length_b 20.803194
_cell_length_c 8.550290
_cell_angle_alpha 90.000000
_cell_angle_beta 90.000000
_cell_angle_gamma 90.000000
_cell_volume 3690.027830
_symmetry_space_group_name_H-M "I 21 21 21"
_symmetry_group_IT_number 24
_symmetry_cell_setting 'orthorhombic'
loop_
_space_group_symop_operation_xyz
x,y,z
-x,1/2-y,z
x,-y,1/2-z
1/2-x,y,-z
1/2+x,1/2+y,1/2+z
1/2-x,-y,1/2+z
1/2+x,1/2-y,-z
-x,1/2+y,1/2-z
loop_
_atom_site_type_symbol
_atom_site_label
_atom_site_fract_x
_atom_site_fract_y
_atom_site_fract_z
Si Si1 0.998962 0.671444 0.855467
Si Si2 0.134643 0.903425 0.845209
Si Si3 0.988602 0.673155 0.202099
Si Si4 0.543461 0.183556 0.022357
Si Si5 0.274678 0.208442 0.351712
Si Si6 0.823775 0.757290 0.550374
Si Si7 0.174033 0.970627 0.517740
Si Si8 0.151334 0.852018 0.318125
O O1 0.930569 0.636528 0.827951
O O2 0.000000 0.750000 0.861287
O O3 0.036459 0.654296 0.695803
O O4 0.016193 0.650921 0.034178
O O5 0.185245 0.852311 0.909236
O O6 0.160529 0.931078 0.678899
O O7 0.133653 0.964371 0.960390
O O8 0.017711 0.648268 0.366733
O O9 0.000000 0.750000 0.204971
O O10 0.912148 0.660794 0.217205
O O11 0.500000 0.250000 0.029385
O O12 0.619137 0.196589 0.998628
O O13 0.250000 0.247094 0.500000
O O14 0.318953 0.248628 0.235650
O O15 0.214776 0.178025 0.259490
O O16 0.750000 0.771756 0.500000
O O17 0.848147 0.689714 0.478344
O O18 0.250000 0.985875 0.500000
O O19 0.156970 0.925245 0.372202
#
# Coordination Sequence:
#
# PCOD9332836 Si02
#       8
#     8   8   8   8   8   8   8   8
#     4  10  21  34  53  75  96 125 187 240 282 334
#     4  11  21  35  49  74 102 139 194 243 273 322
#     4  10  19  32  51  74  93 127 184 235 277 329
#     4  10  17  32  53  67  97 133 169 224 282 330
#     4  11  20  30  45  68  97 130 178 231 271 305
#     4  10  19  32  49  72 101 133 178 224 276 335
#     4  11  21  35  52  68 105 152 193 231 274 324
#     4  11  18  34  50  67  96 137 185 229 268 320
#
# _framework density 17.344042000000002
#
# number of rings (size 3 to 8) (size 9 to 14) (size 15 to 20)
#    0.000    1.500    5.000    3.750    0.000    1.000 
#    0.000    0.000    0.000    0.000    0.000    0.000 
#    0.000    0.000    0.000    0.000   57.000   24.500 
#
# Total GULP energy -178156.683265 kJ/mol
# GULP energy per Si atom -5567.396352 kJ/mol
# Density = 1.730457 g / cm^3
# Si number density = 17.344042 Si / 1000 Ang^3
#
#
#
# Elastic Constant Matrix: (Units=GPa)
#
#
# Indices 1 2 3 4 5 6 
#
# 1 78.7523 27.0775 6.3138 0.0000 0.0000 0.0000
# 2 27.0775 29.7733 -3.9282 0.0000 0.0000 0.0000
# 3 6.3138 -3.9282 99.1602 0.0000 0.0000 0.0000
# 4 0.0000 0.0000 0.0000 5.9485 0.0000 0.0000
# 5 0.0000 0.0000 0.0000 0.0000 22.3630 0.0000
# 6 0.0000 0.0000 0.0000 0.0000 0.0000 20.3365
#
#
#
# Elastic Compliance Matrix: (Units=1/GPa)
#
#
# Indices 1 2 3 4 5 6 
#
# 1 0.018820 -0.017365 -0.001886 0.000000 0.000000 0.000000
# 2 -0.017365 0.049786 0.003078 0.000000 0.000000 0.000000
# 3 -0.001886 0.003078 0.010327 0.000000 0.000000 0.000000
# 4 0.000000 0.000000 0.000000 0.168110 0.000000 0.000000
# 5 0.000000 0.000000 0.000000 0.000000 0.044717 0.000000
# 6 0.000000 0.000000 0.000000 0.000000 0.000000 0.049173
#
#
# Mechanical properties :
#
#
# Convention : Reuss Voigt Hill
#
# Bulk Modulus (GPa) = 21.46556 29.62353 25.54455
# Shear Modulus (GPa) = 12.85989 21.61110 17.23549
#
# Velocity S-wave (km/s) = 2.72593 3.53374 3.15579
# Velocity P-wave (km/s) = 4.72343 5.81092 5.29516
#
# Compressibility (1/GPa) = 0.04658625
#
# Stress axis : x y z
#
# Youngs Moduli (GPa) = 53.13565 20.08614 96.83613
#
# Poissons Ratio (x) = 0.34879 0.18265
# Poissons Ratio (y) = 0.92268 -0.29805
# Poissons Ratio (z) = 0.10022 -0.06182
#
# Static dielectric constant tensor:
#      x y z
#    x 1.608050 0.000000 0.000000 
#    y 0.000000 1.574270 0.000000 
#    z 0.000000 0.000000 1.725410 
# 
# From -- ./inp_files/14682.got.cif
#   From: 2010.05.17/outbox.cif.g08.bks.cpg/sg24_8_cif.got.tgz:14682.got - 2010.06.04 00:33:39.
