data_PCOD9332782
_publ_section_title
;
Structure prediction by ZEFSAII (Michael W. Deem and Ramdas Pophale) SiO2 
 PCOD9332782
Probable space group: I 21 21 21
;
_chemical_formula_sum "Si O2"
_cell_formula_units_Z 52
_cell_length_a 27.658365
_cell_length_b 8.336426
_cell_length_c 9.880636
_cell_angle_alpha 90.000000
_cell_angle_beta 90.000000
_cell_angle_gamma 90.000000
_cell_volume 2278.197145
_symmetry_space_group_name_H-M "I 21 21 21"
_symmetry_group_IT_number 24
_symmetry_cell_setting 'orthorhombic'
loop_
_space_group_symop_operation_xyz
x,y,z
-x,1/2-y,z
x,-y,1/2-z
1/2-x,y,-z
1/2+x,1/2+y,1/2+z
1/2-x,-y,1/2+z
1/2+x,1/2-y,-z
-x,1/2+y,1/2-z
loop_
_atom_site_type_symbol
_atom_site_label
_atom_site_fract_x
_atom_site_fract_y
_atom_site_fract_z
Si Si1 0.789714 0.000000 0.750000
Si Si2 0.206233 0.168499 0.742605
Si Si3 0.852734 0.387792 0.467131
Si Si4 0.650437 0.966069 0.968494
Si Si5 0.056795 0.950133 0.594608
Si Si6 0.807454 0.707641 0.465927
Si Si7 0.445222 0.564387 0.402274
O O1 0.762633 0.830647 0.758958
O O2 0.821822 0.020932 0.615003
O O3 0.173383 0.145882 0.611956
O O4 0.173574 0.192322 0.876420
O O5 0.233158 0.000000 0.750000
O O6 0.906747 0.450066 0.499822
O O7 0.825925 0.541831 0.404430
O O8 0.845942 0.210917 0.404615
O O9 0.672533 0.127915 0.904598
O O10 0.594235 0.989260 0.999685
O O11 0.060880 0.756813 0.588229
O O12 0.000298 0.983356 0.564996
O O13 0.066152 0.000000 0.750000
O O14 0.750000 0.708111 0.500000
O O15 0.435764 0.500000 0.250000
#
# Coordination Sequence:
#
# PCOD9332782 Si02
#       7
#     4   8   8   8   8   8   8
#     4   8  14  22  36  52  68  88 124 154 194 232
#     4   8  15  25  39  54  67  94 125 162 201 238
#     4  10  18  29  45  56  76 106 138 173 209 244
#     4  10  17  27  41  54  73 101 129 168 208 239
#     4  10  18  25  36  57  82 105 133 171 209 239
#     4  10  19  29  40  56  76  98 134 180 213 242
#     4  10  18  25  36  57  82 104 133 171 207 241
#
# _framework density 22.825066
#
# number of rings (size 3 to 8) (size 9 to 14) (size 15 to 20)
#    0.000    2.462    2.308    2.308    2.154    2.462 
#    0.000    0.000    0.000    0.000    0.000    0.000 
#    0.000    0.000    0.000    0.000    0.000    0.000 
#
# Total GULP energy -144792.359118 kJ/mol
# GULP energy per Si atom -5568.936889 kJ/mol
# Density = 2.277312 g / cm^3
# Si number density = 22.825066 Si / 1000 Ang^3
#
#
#
# Elastic Constant Matrix: (Units=GPa)
#
#
# Indices 1 2 3 4 5 6 
#
# 1 142.1823 66.1436 16.9733 0.0000 0.0000 0.0000
# 2 66.1436 281.5398 6.5050 0.0000 0.0000 0.0000
# 3 16.9733 6.5050 37.7785 0.0000 0.0000 0.0000
# 4 0.0000 0.0000 0.0000 -4.1275 0.0000 0.0000
# 5 0.0000 0.0000 0.0000 0.0000 21.7385 0.0000
# 6 0.0000 0.0000 0.0000 0.0000 0.0000 41.2565
#
#
#
# Elastic Compliance Matrix: (Units=1/GPa)
#
#
# Indices 1 2 3 4 5 6 
#
# 1 0.008312 -0.001874 -0.003412 0.000000 0.000000 0.000000
# 2 -0.001874 0.003989 0.000155 0.000000 0.000000 0.000000
# 3 -0.003412 0.000155 0.027976 0.000000 0.000000 0.000000
# 4 0.000000 0.000000 0.000000 -0.242280 0.000000 0.000000
# 5 0.000000 0.000000 0.000000 0.000000 0.046001 0.000000
# 6 0.000000 0.000000 0.000000 0.000000 0.000000 0.024239
#
#
# Mechanical properties :
#
#
# Convention : Reuss Voigt Hill
#
# Bulk Modulus (GPa) = 33.31595 71.19385 52.25490
# Shear Modulus (GPa) = -44.84482 36.56541 -4.13970
#
# Velocity S-wave (km/s) = -4.43732 4.00682 -1.34819
# Velocity P-wave (km/s) = 3.40958 7.25706 4.52989
#
# Compressibility (1/GPa) = 0.03001565
#
# Stress axis : x y z
#
# Youngs Moduli (GPa) = 120.30315 250.71549 35.74459
#
# Poissons Ratio (x) = 0.46985 0.12196
# Poissons Ratio (y) = 0.22545 -0.00555
# Poissons Ratio (z) = 0.41046 -0.03891
#
# Static dielectric constant tensor:
#      x y z
#    x 1.832060 0.000000 0.000000 
#    y 0.000000 2.010620 0.000000 
#    z 0.000000 0.000000 1.965620 
# 
# From -- ./inp_files/25254.got.cif
#   From: 2010.05.17/outbox.cif.g08.bks.cpg/sg24_13_cif.got.tgz:25254.got - 2010.06.04 00:33:39.
