data_PCOD9332521
_publ_section_title
;
Structure prediction by ZEFSAII (Michael W. Deem and Ramdas Pophale) SiO2 
 PCOD9332521
Probable space group: I 2 2 2
;
_chemical_formula_sum "Si O2"
_cell_formula_units_Z 52
_cell_length_a 12.828696
_cell_length_b 17.947390
_cell_length_c 9.167545
_cell_angle_alpha 90.000000
_cell_angle_beta 90.000000
_cell_angle_gamma 90.000000
_cell_volume 2110.750323
_symmetry_space_group_name_H-M "I 2 2 2"
_symmetry_group_IT_number 23
_symmetry_cell_setting 'orthorhombic'
loop_
_space_group_symop_operation_xyz
x,y,z
-x,-y,z
x,-y,-z
-x,y,-z
1/2+x,1/2+y,1/2+z
1/2-x,1/2-y,1/2+z
1/2+x,1/2-y,1/2-z
1/2-x,1/2+y,1/2-z
loop_
_atom_site_type_symbol
_atom_site_label
_atom_site_fract_x
_atom_site_fract_y
_atom_site_fract_z
Si Si1 0.631076 0.282028 0.776248
Si Si2 0.980933 0.374806 0.327887
Si Si3 0.148815 0.675302 0.895993
Si Si4 0.000000 0.128192 0.500000
Si Si5 0.663731 0.952904 0.368196
Si Si6 0.391092 0.337467 0.539765
Si Si7 0.614712 0.459074 0.222004
O O1 0.589325 0.198707 0.794187
O O2 0.737806 0.294056 0.859646
O O3 0.656147 0.317172 0.617473
O O4 0.543385 0.328049 0.862392
O O5 0.910762 0.441549 0.267992
O O6 0.000000 0.377660 0.500000
O O7 0.085860 0.368135 0.230047
O O8 0.087423 0.754441 0.901466
O O9 0.164313 0.627321 0.043624
O O10 0.909689 0.079359 0.567932
O O11 0.771322 0.993265 0.313898
O O12 0.618792 0.000000 0.500000
O O13 0.500000 0.374704 0.500000
O O14 0.351465 0.395676 0.659256
O O15 0.500000 0.500000 0.254125
#
# Coordination Sequence:
#
# PCOD9332521 Si02
#       7
#     8   8   8   4   8   8   8
#     4  12  25  41  77 117 160 206 267 339 416 482
#     4  12  27  47  78 121 160 205 279 354 404 502
#     4  12  26  46  76 118 158 216 272 335 416 498
#     4  12  21  44  72 112 150 207 256 332 406 493
#     4  12  27  52  81 112 155 222 267 339 423 509
#     4  12  24  45  69 111 159 208 257 337 404 488
#     4  12  27  47  77 115 162 209 273 331 417 511
#
# _framework density 24.635788000000002
#
# number of rings (size 3 to 8) (size 9 to 14) (size 15 to 20)
#    0.000    0.000    6.923    2.538    4.308    1.538 
#    0.000    1.538    0.000    0.000    0.000    0.000 
#    0.000    0.000    0.000    0.000    0.000    0.000 
#
# Total GULP energy -144968.008957 kJ/mol
# GULP energy per Si atom -5575.692652 kJ/mol
# Density = 2.457972 g / cm^3
# Si number density = 24.635788 Si / 1000 Ang^3
#
#
#
# Elastic Constant Matrix: (Units=GPa)
#
#
# Indices 1 2 3 4 5 6 
#
# 1 125.7207 28.5922 35.6039 0.0000 0.0000 0.0000
# 2 28.5922 83.2851 46.5007 0.0000 0.0000 0.0000
# 3 35.6039 46.5007 155.5961 0.0000 0.0000 0.0000
# 4 0.0000 0.0000 0.0000 36.8146 0.0000 0.0000
# 5 0.0000 0.0000 0.0000 0.0000 22.1960 0.0000
# 6 0.0000 0.0000 0.0000 0.0000 0.0000 29.3423
#
#
#
# Elastic Compliance Matrix: (Units=1/GPa)
#
#
# Indices 1 2 3 4 5 6 
#
# 1 0.008855 -0.002291 -0.001342 0.000000 0.000000 0.000000
# 2 -0.002291 0.015004 -0.003960 0.000000 0.000000 0.000000
# 3 -0.001342 -0.003960 0.007917 0.000000 0.000000 0.000000
# 4 0.000000 0.000000 0.000000 0.027163 0.000000 0.000000
# 5 0.000000 0.000000 0.000000 0.000000 0.045053 0.000000
# 6 0.000000 0.000000 0.000000 0.000000 0.000000 0.034080
#
#
# Mechanical properties :
#
#
# Convention : Reuss Voigt Hill
#
# Bulk Modulus (GPa) = 60.27035 65.11061 62.69048
# Shear Modulus (GPa) = 31.48828 34.59757 33.04293
#
# Velocity S-wave (km/s) = 3.57900 3.75155 3.66629
# Velocity P-wave (km/s) = 6.44955 6.72697 6.58972
#
# Compressibility (1/GPa) = 0.01659191
#
# Stress axis : x y z
#
# Youngs Moduli (GPa) = 112.92934 66.64713 126.30534
#
# Poissons Ratio (x) = 0.15269 0.16945
# Poissons Ratio (y) = 0.25872 0.50016
# Poissons Ratio (z) = 0.15150 0.26392
#
# Static dielectric constant tensor:
#      x y z
#    x 2.063580 0.000000 0.000000 
#    y 0.000000 2.109610 0.000000 
#    z 0.000000 0.000000 1.920640 
# 
# From -- ./inp_files/10157.got.cif
#   From: 2010.05.17/outbox.cif.g08.bks.cpg/sg23_6_cif.got.tgz:10157.got - 2010.06.04 12:02:01.
