data_PCOD9332125
_publ_section_title
;
Structure prediction by ZEFSAII (Michael W. Deem and Ramdas Pophale) SiO2 
 PCOD9332125
Probable space group: I 2 2 2
;
_chemical_formula_sum "Si O2"
_cell_formula_units_Z 64
_cell_length_a 15.373695
_cell_length_b 9.808400
_cell_length_c 21.125606
_cell_angle_alpha 90.000000
_cell_angle_beta 90.000000
_cell_angle_gamma 90.000000
_cell_volume 3185.558649
_symmetry_space_group_name_H-M "I 2 2 2"
_symmetry_group_IT_number 23
_symmetry_cell_setting 'orthorhombic'
loop_
_space_group_symop_operation_xyz
x,y,z
-x,-y,z
x,-y,-z
-x,y,-z
1/2+x,1/2+y,1/2+z
1/2-x,1/2-y,1/2+z
1/2+x,1/2-y,1/2-z
1/2-x,1/2+y,1/2-z
loop_
_atom_site_type_symbol
_atom_site_label
_atom_site_fract_x
_atom_site_fract_y
_atom_site_fract_z
Si Si1 0.059464 0.626026 0.870888
Si Si2 0.811297 0.749412 0.366143
Si Si3 0.293545 0.511217 0.574079
Si Si4 0.184075 0.289649 0.753897
Si Si5 0.099886 0.991433 0.424673
Si Si6 0.054694 0.874050 0.164193
Si Si7 0.748479 0.290242 0.878286
Si Si8 0.911408 0.559336 0.276061
O O1 0.158623 0.638855 0.895534
O O2 0.070270 0.602958 0.795646
O O3 0.000000 0.500000 0.895133
O O4 0.004971 0.766398 0.874303
O O5 0.775348 0.631701 0.412102
O O6 0.736986 0.803611 0.318764
O O7 0.851376 0.874275 0.401919
O O8 0.878938 0.680056 0.318920
O O9 0.314951 0.500000 0.500000
O O10 0.374739 0.558600 0.617194
O O11 0.258241 0.364848 0.597307
O O12 0.100962 0.204482 0.777960
O O13 0.236591 0.215422 0.698136
O O14 0.157167 0.436365 0.727742
O O15 0.095936 0.000000 0.500000
O O16 0.162338 0.865972 0.403959
O O17 0.000000 0.000000 0.400442
O O18 0.000000 0.000000 0.189980
O O19 0.000000 0.500000 0.303580
#
# Coordination Sequence:
#
# PCOD9332125 Si02
#       8
#     8   8   8   8   8   8   8   8
#     4  11  22  41  65  98 144 181 214 278 351 420
#     4  11  24  41  70  97 130 178 225 276 348 410
#     4  11  25  44  69  96 135 187 237 283 331 402
#     4  11  23  38  64 103 137 172 219 274 355 412
#     4  11  28  49  69  97 135 184 240 293 336 400
#     4  11  23  41  64  99 139 179 225 279 343 410
#     4  12  24  44  71 100 140 179 229 288 356 412
#     4  11  21  37  60  96 137 169 209 269 344 419
#
# _framework density 20.090667
#
# number of rings (size 3 to 8) (size 9 to 14) (size 15 to 20)
#    0.000    0.875    6.250    1.500    3.500    1.750 
#    0.000    0.000    0.000    2.250    0.000    0.000 
#    0.000    0.000    0.000    0.000    0.000    0.000 
#
# Total GULP energy -178738.356503 kJ/mol
# GULP energy per Si atom -5585.573641 kJ/mol
# Density = 2.004494 g / cm^3
# Si number density = 20.090667 Si / 1000 Ang^3
#
#
#
# Elastic Constant Matrix: (Units=GPa)
#
#
# Indices 1 2 3 4 5 6 
#
# 1 111.0352 55.8722 6.8973 0.0000 0.0000 0.0000
# 2 55.8722 112.9923 14.1528 0.0000 0.0000 0.0000
# 3 6.8973 14.1528 54.9458 0.0000 0.0000 0.0000
# 4 0.0000 0.0000 0.0000 45.5068 0.0000 0.0000
# 5 0.0000 0.0000 0.0000 0.0000 20.6418 0.0000
# 6 0.0000 0.0000 0.0000 0.0000 0.0000 34.5557
#
#
#
# Elastic Compliance Matrix: (Units=1/GPa)
#
#
# Indices 1 2 3 4 5 6 
#
# 1 0.011989 -0.005931 0.000023 0.000000 0.000000 0.000000
# 2 -0.005931 0.012080 -0.002367 0.000000 0.000000 0.000000
# 3 0.000023 -0.002367 0.018807 0.000000 0.000000 0.000000
# 4 0.000000 0.000000 0.000000 0.021975 0.000000 0.000000
# 5 0.000000 0.000000 0.000000 0.000000 0.048445 0.000000
# 6 0.000000 0.000000 0.000000 0.000000 0.000000 0.028939
#
#
# Mechanical properties :
#
#
# Convention : Reuss Voigt Hill
#
# Bulk Modulus (GPa) = 37.98733 48.09089 43.03911
# Shear Modulus (GPa) = 29.84003 33.61091 31.72547
#
# Velocity S-wave (km/s) = 3.85810 4.09462 3.97812
# Velocity P-wave (km/s) = 6.22861 6.80760 6.52453
#
# Compressibility (1/GPa) = 0.02632457
#
# Stress axis : x y z
#
# Youngs Moduli (GPa) = 83.40740 82.78466 53.17301
#
# Poissons Ratio (x) = 0.49102 -0.00121
# Poissons Ratio (y) = 0.49472 0.12585
# Poissons Ratio (z) = -0.00190 0.19594
#
# Static dielectric constant tensor:
#      x y z
#    x 1.761130 0.000000 0.000000 
#    y 0.000000 1.703810 0.000000 
#    z 0.000000 0.000000 1.667570 
# 
# From -- ./inp_files/28574.got.cif
#   From: 2010.05.17/outbox.cif.g08.bks.cpg/sg23_15_cif.got.tgz:28574.got - 2010.06.04 12:02:01.
