data_PCOD9332574
_publ_section_title
;
Structure prediction by ZEFSAII (Michael W. Deem and Ramdas Pophale) SiO2 
 PCOD9332574
Probable space group: I 2 2 2
;
_chemical_formula_sum "Si O2"
_cell_formula_units_Z 32
_cell_length_a 17.429118
_cell_length_b 12.677258
_cell_length_c 6.237042
_cell_angle_alpha 90.000000
_cell_angle_beta 90.000000
_cell_angle_gamma 90.000000
_cell_volume 1378.095796
_symmetry_space_group_name_H-M "I 2 2 2"
_symmetry_group_IT_number 23
_symmetry_cell_setting 'orthorhombic'
loop_
_space_group_symop_operation_xyz
x,y,z
-x,-y,z
x,-y,-z
-x,y,-z
1/2+x,1/2+y,1/2+z
1/2-x,1/2-y,1/2+z
1/2+x,1/2-y,1/2-z
1/2-x,1/2+y,1/2-z
loop_
_atom_site_type_symbol
_atom_site_label
_atom_site_fract_x
_atom_site_fract_y
_atom_site_fract_z
Si Si1 0.336813 0.381586 0.955003
Si Si2 0.500000 0.693547 0.000000
Si Si3 0.297090 0.812514 0.301302
Si Si4 0.929538 0.643812 0.847394
Si Si5 0.856187 0.500000 0.500000
O O1 0.427659 0.376108 0.936928
O O2 0.310322 0.309167 0.759240
O O3 0.310788 0.500000 0.000000
O O4 0.292399 0.321974 0.144346
O O5 0.464820 0.764599 0.807979
O O6 0.355664 0.835126 0.498601
O O7 0.314457 0.900349 0.117293
O O8 0.905684 0.552139 0.686581
O O9 0.000000 0.617909 0.000000
#
# Coordination Sequence:
#
# PCOD9332574 Si02
#       5
#     8   4   8   8   4
#     4  12  27  51  80 108 157 208 264 328 401 480
#     4  12  25  51  74 112 162 209 267 320 396 486
#     4  12  28  49  79 115 157 207 276 336 404 479
#     4  12  24  47  77 116 160 206 263 338 402 469
#     4  12  26  47  78 118 161 210 268 346 399 470
#
# _framework density 23.220447
#
# number of rings (size 3 to 8) (size 9 to 14) (size 15 to 20)
#    0.000    0.000    5.000    4.125    3.500    7.500 
#    0.000    0.000    0.000    0.000    0.000    0.000 
#    0.000    0.000    0.000    0.000    0.000    0.000 
#
# Total GULP energy -89357.627706 kJ/mol
# GULP energy per Si atom -5584.851732 kJ/mol
# Density = 2.316760 g / cm^3
# Si number density = 23.220447 Si / 1000 Ang^3
#
#
#
# Elastic Constant Matrix: (Units=GPa)
#
#
# Indices 1 2 3 4 5 6 
#
# 1 122.8366 25.6680 30.6978 0.0000 0.0000 0.0000
# 2 25.6680 135.1381 52.7746 0.0000 0.0000 0.0000
# 3 30.6978 52.7746 113.8784 0.0000 0.0000 0.0000
# 4 0.0000 0.0000 0.0000 42.2760 0.0000 0.0000
# 5 0.0000 0.0000 0.0000 0.0000 50.4862 0.0000
# 6 0.0000 0.0000 0.0000 0.0000 0.0000 -190.4158
#
#
#
# Elastic Compliance Matrix: (Units=1/GPa)
#
#
# Indices 1 2 3 4 5 6 
#
# 1 0.008820 -0.000912 -0.001955 0.000000 0.000000 0.000000
# 2 -0.000912 0.009129 -0.003985 0.000000 0.000000 0.000000
# 3 -0.001955 -0.003985 0.011155 0.000000 0.000000 0.000000
# 4 0.000000 0.000000 0.000000 0.023654 0.000000 0.000000
# 5 0.000000 0.000000 0.000000 0.000000 0.019807 0.000000
# 6 0.000000 0.000000 0.000000 0.000000 0.000000 -0.005252
#
#
# Mechanical properties :
#
#
# Convention : Reuss Voigt Hill
#
# Bulk Modulus (GPa) = 64.93195 65.57043 65.25119
# Shear Modulus (GPa) = 58.03746 -2.01654 28.01046
#
# Velocity S-wave (km/s) = 5.00484 -0.93291 3.47693
# Velocity P-wave (km/s) = 7.83721 5.20952 6.65436
#
# Compressibility (1/GPa) = 0.01540074
#
# Stress axis : x y z
#
# Youngs Moduli (GPa) = 113.37867 109.53810 89.64540
#
# Poissons Ratio (x) = 0.09987 0.17526
# Poissons Ratio (y) = 0.10338 0.35723
# Poissons Ratio (z) = 0.22166 0.43651
#
# Static dielectric constant tensor:
#      x y z
#    x 1.879460 0.000000 0.000000 
#    y 0.000000 1.946130 0.000000 
#    z 0.000000 0.000000 1.963600 
# 
# From -- ./inp_files/2998.got.cif
#   From: 2010.05.17/outbox.cif.g08.bks.cpg/sg23_2_cif.got.tgz:2998.got - 2010.06.04 12:02:01.
