data_PCOD9332014
_publ_section_title
;
Structure prediction by ZEFSAII (Michael W. Deem and Ramdas Pophale) SiO2 
 PCOD9332014
Probable space group: I 2 2 2
;
_chemical_formula_sum "Si O2"
_cell_formula_units_Z 52
_cell_length_a 13.695399
_cell_length_b 19.460051
_cell_length_c 9.583834
_cell_angle_alpha 90.000000
_cell_angle_beta 90.000000
_cell_angle_gamma 90.000000
_cell_volume 2554.217913
_symmetry_space_group_name_H-M "I 2 2 2"
_symmetry_group_IT_number 23
_symmetry_cell_setting 'orthorhombic'
loop_
_space_group_symop_operation_xyz
x,y,z
-x,-y,z
x,-y,-z
-x,y,-z
1/2+x,1/2+y,1/2+z
1/2-x,1/2-y,1/2+z
1/2+x,1/2-y,1/2-z
1/2-x,1/2+y,1/2-z
loop_
_atom_site_type_symbol
_atom_site_label
_atom_site_fract_x
_atom_site_fract_y
_atom_site_fract_z
Si Si1 0.790749 0.862992 0.482440
Si Si2 0.193119 0.619005 0.299360
Si Si3 0.288997 0.000000 0.000000
Si Si4 0.206841 0.210644 0.963267
Si Si5 0.000000 0.793924 0.500000
Si Si6 0.000000 0.758350 0.000000
Si Si7 0.980595 0.676533 0.265283
Si Si8 0.787314 0.395065 0.728154
O O1 0.761886 0.896584 0.333491
O O2 0.736506 0.789424 0.474481
O O3 0.747607 0.904464 0.614209
O O4 0.903854 0.841963 0.507097
O O5 0.162957 0.554019 0.394431
O O6 0.249433 0.670619 0.403782
O O7 0.091404 0.651575 0.253480
O O8 0.242709 0.051308 0.883680
O O9 0.252825 0.179683 0.823523
O O10 0.091680 0.199196 0.948205
O O11 0.980585 0.739255 0.375190
O O12 0.955301 0.710805 0.119115
O O13 0.904462 0.614500 0.291219
#
# Coordination Sequence:
#
# PCOD9332014 Si02
#       8
#     8   8   4   8   4   4   8   8
#     4  12  21  38  61  93 121 156 191 252 295 357
#     4  11  23  39  61  86 125 157 205 236 296 346
#     4  10  26  45  60  81 114 170 200 251 284 351
#     4  11  20  37  58  90 124 160 184 241 297 364
#     4  12  22  32  62  94 128 146 190 236 314 352
#     4  12  22  32  58  92 132 152 186 230 314 354
#     4  12  20  34  59  93 122 162 183 240 290 373
#     4  11  23  39  61  86 125 157 205 236 296 346
#
# _framework density 20.358483
#
# number of rings (size 3 to 8) (size 9 to 14) (size 15 to 20)
#    0.000    0.615    6.154    3.692    0.000    1.846 
#    0.000    0.000    0.000   20.308    0.000    0.000 
#    0.000    0.000    0.000    0.000    0.000    0.000 
#
# Total GULP energy -144933.096209 kJ/mol
# GULP energy per Si atom -5574.349854 kJ/mol
# Density = 2.031215 g / cm^3
# Si number density = 20.358483 Si / 1000 Ang^3
#
#
#
# Elastic Constant Matrix: (Units=GPa)
#
#
# Indices 1 2 3 4 5 6 
#
# 1 119.5519 3.2534 -1.5374 0.0000 0.0000 0.0000
# 2 3.2534 40.1986 17.6833 0.0000 0.0000 0.0000
# 3 -1.5374 17.6833 119.3728 0.0000 0.0000 0.0000
# 4 0.0000 0.0000 0.0000 13.5375 0.0000 0.0000
# 5 0.0000 0.0000 0.0000 0.0000 25.6918 0.0000
# 6 0.0000 0.0000 0.0000 0.0000 0.0000 4.2041
#
#
#
# Elastic Compliance Matrix: (Units=1/GPa)
#
#
# Indices 1 2 3 4 5 6 
#
# 1 0.008389 -0.000777 0.000223 0.000000 0.000000 0.000000
# 2 -0.000777 0.026683 -0.003963 0.000000 0.000000 0.000000
# 3 0.000223 -0.003963 0.008967 0.000000 0.000000 0.000000
# 4 0.000000 0.000000 0.000000 0.073869 0.000000 0.000000
# 5 0.000000 0.000000 0.000000 0.000000 0.038923 0.000000
# 6 0.000000 0.000000 0.000000 0.000000 0.000000 0.237861
#
#
# Mechanical properties :
#
#
# Convention : Reuss Voigt Hill
#
# Bulk Modulus (GPa) = 28.56735 35.32465 31.94600
# Shear Modulus (GPa) = 12.03681 26.00162 19.01921
#
# Velocity S-wave (km/s) = 2.43419 3.57765 3.05981
# Velocity P-wave (km/s) = 4.68647 5.86985 5.31122
#
# Compressibility (1/GPa) = 0.03500500
#
# Stress axis : x y z
#
# Youngs Moduli (GPa) = 119.20962 37.47773 111.52005
#
# Poissons Ratio (x) = 0.02912 -0.02489
# Poissons Ratio (y) = 0.09263 0.44191
# Poissons Ratio (z) = -0.02660 0.14851
#
# Static dielectric constant tensor:
#      x y z
#    x 1.708550 0.000000 0.000000 
#    y 0.000000 1.756910 0.000000 
#    z 0.000000 0.000000 1.777480 
# 
# From -- ./inp_files/10183.got.cif
#   From: 2010.05.17/outbox.cif.g08.bks.cpg/sg23_6_cif.got.tgz:10183.got - 2010.06.04 12:02:01.
