data_PCOD9332737
_publ_section_title
;
Structure prediction by ZEFSAII (Michael W. Deem and Ramdas Pophale) SiO2 
 PCOD9332737
Probable space group: I 21 21 21
;
_chemical_formula_sum "Si O2"
_cell_formula_units_Z 44
_cell_length_a 7.912028
_cell_length_b 18.117429
_cell_length_c 14.057534
_cell_angle_alpha 90.000000
_cell_angle_beta 90.000000
_cell_angle_gamma 90.000000
_cell_volume 2015.085724
_symmetry_space_group_name_H-M "I 21 21 21"
_symmetry_group_IT_number 24
_symmetry_cell_setting 'orthorhombic'
loop_
_space_group_symop_operation_xyz
x,y,z
-x,1/2-y,z
x,-y,1/2-z
1/2-x,y,-z
1/2+x,1/2+y,1/2+z
1/2-x,-y,1/2+z
1/2+x,1/2-y,-z
-x,1/2+y,1/2-z
loop_
_atom_site_type_symbol
_atom_site_label
_atom_site_fract_x
_atom_site_fract_y
_atom_site_fract_z
Si Si1 0.517112 0.121567 0.450800
Si Si2 0.207452 0.000000 0.250000
Si Si3 0.353315 0.854888 0.855293
Si Si4 0.585810 0.535916 0.433340
Si Si5 0.624507 0.181142 0.085787
Si Si6 0.184642 0.287960 0.707972
O O1 0.481385 0.151718 0.556413
O O2 0.333881 0.130275 0.399329
O O3 0.656709 0.161016 0.385484
O O4 0.534682 0.033603 0.454096
O O5 0.109563 0.928781 0.206523
O O6 0.332357 0.967972 0.329422
O O7 0.320631 0.777573 0.802663
O O8 0.750000 0.531408 0.500000
O O9 0.482910 0.610028 0.441850
O O10 0.500000 0.250000 0.092647
O O11 0.707228 0.171544 0.190891
O O12 0.750000 0.196244 0.000000
O O13 0.000000 0.250000 0.712816
#
# Coordination Sequence:
#
# PCOD9332737 Si02
#       6
#     8   4   8   8   8   8
#     4   9  16  32  56  90 115 159 213 262 321 376
#     4  10  16  30  58  92 124 154 216 264 318 390
#     4   9  16  29  53  89 119 148 204 270 311 374
#     4  11  19  34  62  91 122 165 213 270 317 383
#     4  11  23  39  60  92 126 171 215 264 323 393
#     4   9  18  33  59  88 119 162 213 260 319 385
#
# _framework density 21.8353
#
# number of rings (size 3 to 8) (size 9 to 14) (size 15 to 20)
#    0.000    2.182    3.636    4.909    0.000    0.000 
#    0.000    0.000   16.000   32.727    0.000    0.000 
#    0.000    0.000    0.000    0.000    0.000    0.000 
#
# Total GULP energy -122787.330957 kJ/mol
# GULP energy per Si atom -5581.242316 kJ/mol
# Density = 2.178560 g / cm^3
# Si number density = 21.835300 Si / 1000 Ang^3
#
#
#
# Elastic Constant Matrix: (Units=GPa)
#
#
# Indices 1 2 3 4 5 6 
#
# 1 59.3489 40.4964 44.1426 0.0000 0.0001 0.0000
# 2 40.4964 133.3145 37.1965 0.0000 0.0003 0.0000
# 3 44.1426 37.1965 122.8186 0.0000 0.0005 0.0000
# 4 0.0000 0.0000 0.0000 31.9653 0.0002 0.0000
# 5 0.0001 0.0003 0.0005 0.0002 4778.7126 0.0001
# 6 0.0000 0.0000 0.0000 0.0000 0.0001 0.3849
#
#
#
# Elastic Compliance Matrix: (Units=1/GPa)
#
#
# Indices 1 2 3 4 5 6 
#
# 1 0.026699 -0.005934 -0.007799 0.000000 0.000000 0.000000
# 2 -0.005934 0.009512 -0.000748 0.000000 0.000000 0.000000
# 3 -0.007799 -0.000748 0.011172 0.000000 0.000000 0.000000
# 4 0.000000 0.000000 0.000000 0.031284 0.000000 0.000000
# 5 0.000000 0.000000 0.000000 0.000000 0.000209 0.000000
# 6 0.000000 0.000000 0.000000 0.000000 0.000000 2.597838
#
#
# Mechanical properties :
#
#
# Convention : Reuss Voigt Hill
#
# Bulk Modulus (GPa) = 54.28585 62.12810 58.20697
# Shear Modulus (GPa) = 1.84378 975.12234 488.48306
#
# Velocity S-wave (km/s) = 0.91991 21.15538 14.97325
# Velocity P-wave (km/s) = 5.10331 25.00497 18.04567
#
# Compressibility (1/GPa) = 0.01842101
#
# Stress axis : x y z
#
# Youngs Moduli (GPa) = 37.45395 105.12564 89.51237
#
# Poissons Ratio (x) = 0.62386 0.69809
# Poissons Ratio (y) = 0.22227 0.06696
# Poissons Ratio (z) = 0.29210 0.07864
#
# Static dielectric constant tensor:
#      x y z
#    x 1.850840 0.000000 0.000000 
#    y 0.000000 1.808670 0.000000 
#    z 0.000000 0.000000 1.788200 
# 
# From -- ./inp_files/24695.got.cif
#   From: 2010.05.17/outbox.cif.g08.bks.cpg/sg24_13_cif.got.tgz:24695.got - 2010.06.04 00:33:39.
