data_PCOD9332735
_publ_section_title
;
Structure prediction by ZEFSAII (Michael W. Deem and Ramdas Pophale) SiO2 
 PCOD9332735
Probable space group: I 21 21 21
;
_chemical_formula_sum "Si O2"
_cell_formula_units_Z 56
_cell_length_a 5.396315
_cell_length_b 16.348138
_cell_length_c 30.175664
_cell_angle_alpha 90.000000
_cell_angle_beta 90.000000
_cell_angle_gamma 90.000000
_cell_volume 2662.088095
_symmetry_space_group_name_H-M "I 21 21 21"
_symmetry_group_IT_number 24
_symmetry_cell_setting 'orthorhombic'
loop_
_space_group_symop_operation_xyz
x,y,z
-x,1/2-y,z
x,-y,1/2-z
1/2-x,y,-z
1/2+x,1/2+y,1/2+z
1/2-x,-y,1/2+z
1/2+x,1/2-y,-z
-x,1/2+y,1/2-z
loop_
_atom_site_type_symbol
_atom_site_label
_atom_site_fract_x
_atom_site_fract_y
_atom_site_fract_z
Si Si1 0.997656 0.565201 0.209663
Si Si2 0.451936 0.562452 0.630877
Si Si3 0.246131 0.841382 0.951889
Si Si4 0.756381 0.923618 0.075304
Si Si5 0.452184 0.155005 0.157979
Si Si6 0.504879 0.598778 0.242192
Si Si7 0.245663 0.725022 0.863930
O O1 0.983258 0.500000 0.250000
O O2 0.005840 0.509229 0.166557
O O3 0.239603 0.618476 0.220762
O O4 0.738191 0.611279 0.210654
O O5 0.350158 0.514428 0.587484
O O6 0.707712 0.615659 0.633820
O O7 0.210588 0.612023 0.645681
O O8 0.509240 0.886434 0.950001
O O9 0.240451 0.779714 0.910154
O O10 0.011915 0.903683 0.946288
O O11 0.250000 0.799540 0.000000
O O12 0.740516 0.867987 0.119854
O O13 0.500000 0.250000 0.148466
O O14 0.432037 0.139897 0.210917
O O15 0.485794 0.500000 0.250000
O O16 0.500000 0.750000 0.842207
O O17 0.000000 0.750000 0.839403
#
# Coordination Sequence:
#
# PCOD9332735 Si02
#       7
#     8   8   8   8   8   8   8
#     4  10  16  30  55  76  95 135 187 215 263 335
#     4  12  21  36  54  80 110 149 183 232 289 339
#     4  10  19  34  55  81 114 151 187 229 274 320
#     4  10  21  32  50  81 108 149 190 222 273 331
#     4  12  23  35  55  81 108 139 183 244 293 331
#     4  10  16  32  53  77  98 130 182 224 269 334
#     4   8  16  29  47  72 105 141 182 220 256 306
#
# _framework density 21.03612
#
# number of rings (size 3 to 8) (size 9 to 14) (size 15 to 20)
#    0.000    1.714    5.714    1.714    0.000    5.143 
#    0.000    0.000    0.000    7.714    0.000    0.000 
#    0.000   32.000    0.000    0.000    0.000    0.000 
#
# Total GULP energy -156166.862859 kJ/mol
# GULP energy per Si atom -5577.387959 kJ/mol
# Density = 2.098824 g / cm^3
# Si number density = 21.036120 Si / 1000 Ang^3
#
#
#
# Elastic Constant Matrix: (Units=GPa)
#
#
# Indices 1 2 3 4 5 6 
#
# 1 224.4617 52.0932 13.1163 0.0000 0.0000 0.0000
# 2 52.0932 76.7131 28.3277 0.0000 0.0000 -0.0001
# 3 13.1163 28.3277 32.7989 0.0000 0.0000 -0.0001
# 4 0.0000 0.0000 0.0000 12.2696 0.0000 -0.0001
# 5 0.0000 0.0000 0.0000 0.0000 4.4806 0.0000
# 6 0.0000 -0.0001 -0.0001 -0.0001 0.0000 897.2559
#
#
#
# Elastic Compliance Matrix: (Units=1/GPa)
#
#
# Indices 1 2 3 4 5 6 
#
# 1 0.005336 -0.004163 0.001462 0.000000 0.000000 0.000000
# 2 -0.004163 0.022388 -0.017671 0.000000 0.000000 0.000000
# 3 0.001462 -0.017671 0.045166 0.000000 0.000000 0.000000
# 4 0.000000 0.000000 0.000000 0.081503 0.000000 0.000000
# 5 0.000000 0.000000 0.000000 0.000000 0.223187 0.000000
# 6 0.000000 0.000000 0.000000 0.000000 0.000000 0.001115
#
#
# Mechanical properties :
#
#
# Convention : Reuss Voigt Hill
#
# Bulk Modulus (GPa) = 31.10879 57.89425 44.50152
# Shear Modulus (GPa) = 11.62373 198.83031 105.22702
#
# Velocity S-wave (km/s) = 2.35321 9.73261 7.08030
# Velocity P-wave (km/s) = 4.71210 12.40481 9.38305
#
# Compressibility (1/GPa) = 0.03214525
#
# Stress axis : x y z
#
# Youngs Moduli (GPa) = 187.41029 44.66655 22.14032
#
# Poissons Ratio (x) = 0.18596 -0.03237
# Poissons Ratio (y) = 0.78023 0.39125
# Poissons Ratio (z) = -0.27397 0.78931
#
# Static dielectric constant tensor:
#      x y z
#    x 1.859930 0.000000 0.000000 
#    y 0.000000 1.764890 0.000000 
#    z 0.000000 0.000000 1.775880 
# 
# From -- ./inp_files/37917.got.cif
#   From: 2010.05.17/outbox.cif.g08.bks.cpg/sg24_19_cif.got.tgz:37917.got - 2010.06.04 00:33:39.
