data_PCOD9332316
_publ_section_title
;
Structure prediction by ZEFSAII (Michael W. Deem and Ramdas Pophale) SiO2 
 PCOD9332316
Probable space group: I 2 2 2
;
_chemical_formula_sum "Si O2"
_cell_formula_units_Z 64
_cell_length_a 12.916570
_cell_length_b 14.879956
_cell_length_c 17.711808
_cell_angle_alpha 90.000000
_cell_angle_beta 90.000000
_cell_angle_gamma 90.000000
_cell_volume 3404.173955
_symmetry_space_group_name_H-M "I 2 2 2"
_symmetry_group_IT_number 23
_symmetry_cell_setting 'orthorhombic'
loop_
_space_group_symop_operation_xyz
x,y,z
-x,-y,z
x,-y,-z
-x,y,-z
1/2+x,1/2+y,1/2+z
1/2-x,1/2-y,1/2+z
1/2+x,1/2-y,1/2-z
1/2-x,1/2+y,1/2-z
loop_
_atom_site_type_symbol
_atom_site_label
_atom_site_fract_x
_atom_site_fract_y
_atom_site_fract_z
Si Si1 0.973936 0.603863 0.914115
Si Si2 0.459443 0.601879 0.077678
Si Si3 0.878771 0.480452 0.411253
Si Si4 0.268434 0.212329 0.103380
Si Si5 0.768298 0.362433 0.679378
Si Si6 0.913243 0.731749 0.197286
Si Si7 0.590326 0.670220 0.215135
Si Si8 0.242665 0.697584 0.063794
O O1 0.856517 0.639238 0.910388
O O2 0.000000 0.500000 0.900652
O O3 0.050355 0.657167 0.860878
O O4 0.000000 0.623957 0.000000
O O5 0.500000 0.500000 0.071722
O O6 0.509992 0.628396 0.156563
O O7 0.340095 0.631020 0.077068
O O8 0.500000 0.648264 0.000000
O O9 0.867702 0.500000 0.500000
O O10 0.833967 0.379663 0.402721
O O11 0.813399 0.550242 0.361384
O O12 0.000000 0.500000 0.392337
O O13 0.160805 0.201438 0.149621
O O14 0.335333 0.274648 0.159083
O O15 0.247952 0.262924 0.022771
O O16 0.850960 0.315575 0.735144
O O17 0.667904 0.384507 0.730696
O O18 0.745959 0.285651 0.616958
O O19 0.017665 0.773376 0.229757
#
# Coordination Sequence:
#
# PCOD9332316 Si02
#       8
#     8   8   8   8   8   8   8   8
#     4  11  25  43  69  98 132 175 225 272 325 404
#     4  11  25  41  65  96 129 171 224 273 332 399
#     4  11  24  41  68 101 131 170 232 280 328 401
#     4  11  24  40  68  96 130 177 224 272 337 403
#     4  11  24  41  67  96 134 172 222 276 339 396
#     4  11  23  42  64  98 135 177 217 274 343 400
#     4  11  23  42  65  94 135 176 218 276 343 396
#     4  12  22  43  72  94 130 175 225 271 332 404
#
# _framework density 18.800450000000001
#
# number of rings (size 3 to 8) (size 9 to 14) (size 15 to 20)
#    0.000    0.875    6.250    0.750    0.000    6.500 
#    0.000    0.000    0.000    0.750    0.000    0.000 
#    0.000    0.000    0.000    0.000    0.000    0.000 
#
# Total GULP energy -178306.122199 kJ/mol
# GULP energy per Si atom -5572.066319 kJ/mol
# Density = 1.875766 g / cm^3
# Si number density = 18.800450 Si / 1000 Ang^3
#
#
#
# Elastic Constant Matrix: (Units=GPa)
#
#
# Indices 1 2 3 4 5 6 
#
# 1 81.8798 15.9753 37.5056 0.0000 0.0000 0.0000
# 2 15.9753 76.2134 31.6436 0.0000 0.0000 0.0000
# 3 37.5056 31.6436 120.8483 0.0000 0.0000 0.0000
# 4 0.0000 0.0000 0.0000 32.2705 0.0000 0.0000
# 5 0.0000 0.0000 0.0000 0.0000 34.6967 0.0000
# 6 0.0000 0.0000 0.0000 0.0000 0.0000 -54.0861
#
#
#
# Elastic Compliance Matrix: (Units=1/GPa)
#
#
# Indices 1 2 3 4 5 6 
#
# 1 0.014351 -0.001300 -0.004113 0.000000 0.000000 0.000000
# 2 -0.001300 0.014839 -0.003482 0.000000 0.000000 0.000000
# 3 -0.004113 -0.003482 0.010463 0.000000 0.000000 0.000000
# 4 0.000000 0.000000 0.000000 0.030988 0.000000 0.000000
# 5 0.000000 0.000000 0.000000 0.000000 0.028821 0.000000
# 6 0.000000 0.000000 0.000000 0.000000 0.000000 -0.018489
#
#
# Mechanical properties :
#
#
# Convention : Reuss Voigt Hill
#
# Bulk Modulus (GPa) = 45.74146 49.91005 47.82576
# Shear Modulus (GPa) = 47.14648 15.49733 31.32191
#
# Velocity S-wave (km/s) = 5.01316 2.87419 4.08612
# Velocity P-wave (km/s) = 7.60867 6.13347 6.91055
#
# Compressibility (1/GPa) = 0.02186201
#
# Stress axis : x y z
#
# Youngs Moduli (GPa) = 69.68219 67.38835 95.57307
#
# Poissons Ratio (x) = 0.08762 0.39313
# Poissons Ratio (y) = 0.09061 0.33279
# Poissons Ratio (z) = 0.28663 0.23465
#
# Static dielectric constant tensor:
#      x y z
#    x 1.694430 0.000000 0.000000 
#    y 0.000000 1.624960 0.000000 
#    z 0.000000 0.000000 2.478820 
# 
# From -- ./inp_files/24442.got.cif
#   From: 2010.05.17/outbox.cif.g08.bks.cpg/sg23_13_cif.got.tgz:24442.got - 2010.06.04 12:02:01.
