data_PCOD9332194
_publ_section_title
;
Structure prediction by ZEFSAII (Michael W. Deem and Ramdas Pophale) SiO2 
 PCOD9332194
Probable space group: I 2 2 2
;
_chemical_formula_sum "Si O2"
_cell_formula_units_Z 64
_cell_length_a 11.861407
_cell_length_b 13.234097
_cell_length_c 23.252893
_cell_angle_alpha 90.000000
_cell_angle_beta 90.000000
_cell_angle_gamma 90.000000
_cell_volume 3650.123130
_symmetry_space_group_name_H-M "I 2 2 2"
_symmetry_group_IT_number 23
_symmetry_cell_setting 'orthorhombic'
loop_
_space_group_symop_operation_xyz
x,y,z
-x,-y,z
x,-y,-z
-x,y,-z
1/2+x,1/2+y,1/2+z
1/2-x,1/2-y,1/2+z
1/2+x,1/2-y,1/2-z
1/2-x,1/2+y,1/2-z
loop_
_atom_site_type_symbol
_atom_site_label
_atom_site_fract_x
_atom_site_fract_y
_atom_site_fract_z
Si Si1 0.634781 1.000000 0.432372
Si Si2 0.129356 0.881452 0.729781
Si Si3 0.734624 0.689325 0.119664
Si Si4 0.765376 0.189325 0.619664
Si Si5 0.366801 0.384538 0.367341
Si Si6 0.500000 0.381554 0.068698
Si Si7 0.133199 0.884538 0.867341
Si Si8 0.870644 0.881452 0.729781
O O1 0.686416 0.900876 0.402819
O O2 0.500000 0.000000 0.427745
O O3 0.666273 0.000000 0.500000
O O4 0.686416 0.099124 0.402819
O O5 0.213356 0.823029 0.688094
O O6 0.147111 0.876611 0.798037
O O7 1.000000 0.848666 0.718972
O O8 0.137405 1.000000 0.713921
O O9 0.612686 0.670979 0.091656
O O10 0.790963 0.796645 0.106307
O O11 0.713356 0.676971 0.188094
O O12 0.709037 0.296645 0.606307
O O13 0.887314 0.170979 0.591656
O O14 0.500000 0.368776 0.379384
O O15 0.338403 0.500000 0.383906
O O16 0.352889 0.376611 0.298037
O O17 0.500000 0.500000 0.086823
O O18 0.500000 0.379724 0.000000
#
# Coordination Sequence:
#
# PCOD9332194 Si02
#       8
#     8   8   8   8   8   8   8   8
#     4  11  24  37  53  81 113 142 183 239 291 328
#     4   9  16  30  52  82 112 146 181 219 271 335
#     4  12  19  34  58  81 110 147 185 230 279 334
#     4  12  19  34  58  81 110 147 185 230 279 334
#     4   9  20  36  55  79 112 151 190 223 268 332
#     4  11  22  36  57  87 113 143 184 229 287 340
#     4   9  20  36  55  79 112 151 190 223 268 332
#     4   9  16  30  52  82 112 146 181 219 271 335
#
# _framework density 17.533655
#
# number of rings (size 3 to 8) (size 9 to 14) (size 15 to 20)
#    0.000    1.750    3.750    3.750    0.000    0.000 
#    0.000    0.625    0.000    3.750    0.000    8.750 
#    0.000    0.000    0.000    0.000    0.000    0.000 
#
# Total GULP energy -178561.612706 kJ/mol
# GULP energy per Si atom -5580.050397 kJ/mol
# Density = 1.749375 g / cm^3
# Si number density = 17.533655 Si / 1000 Ang^3
#
#
#
# Elastic Constant Matrix: (Units=GPa)
#
#
# Indices 1 2 3 4 5 6 
#
# 1 94.1765 85.2139 25.3451 0.0000 0.0000 0.0000
# 2 85.2139 155.4738 25.0452 0.0000 0.0000 0.0000
# 3 25.3451 25.0452 29.0748 0.0000 0.0000 0.0000
# 4 0.0000 0.0000 0.0000 12.1644 0.0000 0.0000
# 5 0.0000 0.0000 0.0000 0.0000 12.6629 0.0000
# 6 0.0000 0.0000 0.0000 0.0000 0.0000 35.4749
#
#
#
# Elastic Compliance Matrix: (Units=1/GPa)
#
#
# Indices 1 2 3 4 5 6 
#
# 1 0.023764 -0.011249 -0.011026 0.000000 0.000000 0.000000
# 2 -0.011249 0.012793 -0.001214 0.000000 0.000000 0.000000
# 3 -0.011026 -0.001214 0.045051 0.000000 0.000000 0.000000
# 4 0.000000 0.000000 0.000000 0.082207 0.000000 0.000000
# 5 0.000000 0.000000 0.000000 0.000000 0.078971 0.000000
# 6 0.000000 0.000000 0.000000 0.000000 0.000000 0.028189
#
#
# Mechanical properties :
#
#
# Convention : Reuss Voigt Hill
#
# Bulk Modulus (GPa) = 28.87596 61.10372 44.98984
# Shear Modulus (GPa) = 15.17472 21.60183 18.38827
#
# Velocity S-wave (km/s) = 2.94507 3.51382 3.24194
# Velocity P-wave (km/s) = 5.29803 7.16852 6.30305
#
# Compressibility (1/GPa) = 0.03463089
#
# Stress axis : x y z
#
# Youngs Moduli (GPa) = 42.08102 78.16902 22.19689
#
# Poissons Ratio (x) = 0.87929 0.24474
# Poissons Ratio (y) = 0.47335 0.02695
# Poissons Ratio (z) = 0.46397 0.09491
#
# Static dielectric constant tensor:
#      x y z
#    x 1.580650 0.000000 0.000000 
#    y 0.000000 1.588850 0.000000 
#    z 0.000000 0.000000 1.623770 
# 
# From -- ./inp_files/18424.got.cif
#   From: 2010.05.17/outbox.cif.g08.bks.cpg/sg23_10_cif.got.tgz:18424.got - 2010.06.04 12:02:01.
