data_PCOD9332559
_publ_section_title
;
Structure prediction by ZEFSAII (Michael W. Deem and Ramdas Pophale) SiO2 
 PCOD9332559
Probable space group: I 2 2 2
;
_chemical_formula_sum "Si O2"
_cell_formula_units_Z 40
_cell_length_a 25.351336
_cell_length_b 8.222108
_cell_length_c 8.910910
_cell_angle_alpha 90.000000
_cell_angle_beta 90.000000
_cell_angle_gamma 90.000000
_cell_volume 1857.402756
_symmetry_space_group_name_H-M "I 2 2 2"
_symmetry_group_IT_number 23
_symmetry_cell_setting 'orthorhombic'
loop_
_space_group_symop_operation_xyz
x,y,z
-x,-y,z
x,-y,-z
-x,y,-z
1/2+x,1/2+y,1/2+z
1/2-x,1/2-y,1/2+z
1/2+x,1/2-y,1/2-z
1/2-x,1/2+y,1/2-z
loop_
_atom_site_type_symbol
_atom_site_label
_atom_site_fract_x
_atom_site_fract_y
_atom_site_fract_z
Si Si1 0.714765 0.611574 0.134732
Si Si2 0.501022 0.801637 0.173755
Si Si3 0.614289 0.810191 0.807005
Si Si4 0.116111 0.689185 0.326526
Si Si5 0.795876 0.879259 0.128382
O O1 0.665953 0.702405 0.212488
O O2 0.756828 0.738939 0.072783
O O3 0.738328 0.492050 0.259111
O O4 0.694942 0.500000 0.000000
O O5 0.444710 0.755295 0.241624
O O6 0.558732 0.752429 0.231291
O O7 0.500000 0.000000 0.172824
O O8 0.500000 0.748502 0.000000
O O9 0.657942 0.703936 0.724345
O O10 0.621988 0.002345 0.775892
O O11 0.615677 0.803859 0.989721
O O12 0.814836 0.000000 0.000000
#
# Coordination Sequence:
#
# PCOD9332559 Si02
#       5
#     8   8   8   8   8
#     4  12  24  41  61  86 119 166 213 257 306 363
#     4   7  12  26  54  91 117 145 191 248 304 359
#     4   9  17  34  60  90 123 156 198 256 309 362
#     4   9  17  33  63  90 117 154 207 256 300 358
#     4  12  26  40  58  88 127 168 206 257 316 372
#
# _framework density 21.535450000000001
#
# number of rings (size 3 to 8) (size 9 to 14) (size 15 to 20)
#    0.000    2.200    2.000    4.800    2.800    0.000 
#    0.000    1.000    0.000    2.400    0.000    4.200 
#    0.000    0.000    0.000    0.000    0.000    0.000 
#
# Total GULP energy -111528.660506 kJ/mol
# GULP energy per Si atom -5576.433025 kJ/mol
# Density = 2.148643 g / cm^3
# Si number density = 21.535450 Si / 1000 Ang^3
#
#
#
# Elastic Constant Matrix: (Units=GPa)
#
#
# Indices 1 2 3 4 5 6 
#
# 1 144.0467 60.3514 16.1686 0.0000 0.0000 0.0000
# 2 60.3514 85.2991 33.3669 0.0000 0.0000 0.0000
# 3 16.1686 33.3669 34.7133 0.0000 0.0000 0.0000
# 4 0.0000 0.0000 0.0000 28.3057 0.0000 0.0000
# 5 0.0000 0.0000 0.0000 0.0000 15.9907 0.0000
# 6 0.0000 0.0000 0.0000 0.0000 0.0000 24.5466
#
#
#
# Elastic Compliance Matrix: (Units=1/GPa)
#
#
# Indices 1 2 3 4 5 6 
#
# 1 0.010122 -0.008522 0.003476 0.000000 0.000000 0.000000
# 2 -0.008522 0.025962 -0.020986 0.000000 0.000000 0.000000
# 3 0.003476 -0.020986 0.047360 0.000000 0.000000 0.000000
# 4 0.000000 0.000000 0.000000 0.035329 0.000000 0.000000
# 5 0.000000 0.000000 0.000000 0.000000 0.062536 0.000000
# 6 0.000000 0.000000 0.000000 0.000000 0.000000 0.040739
#
#
# Mechanical properties :
#
#
# Convention : Reuss Voigt Hill
#
# Bulk Modulus (GPa) = 31.86524 53.75921 42.81222
# Shear Modulus (GPa) = 17.57035 24.04676 20.80855
#
# Velocity S-wave (km/s) = 2.85946 3.34520 3.11182
# Velocity P-wave (km/s) = 5.07255 6.31964 5.73012
#
# Compressibility (1/GPa) = 0.03138216
#
# Stress axis : x y z
#
# Youngs Moduli (GPa) = 98.79155 38.51808 21.11494
#
# Poissons Ratio (x) = 0.32824 -0.07340
# Poissons Ratio (y) = 0.84187 0.44311
# Poissons Ratio (z) = -0.34344 0.80833
#
# Static dielectric constant tensor:
#      x y z
#    x 1.809150 0.000000 0.000000 
#    y 0.000000 1.804010 0.000000 
#    z 0.000000 0.000000 1.785830 
# 
# From -- ./inp_files/12891.got.cif
#   From: 2010.05.17/outbox.cif.g08.bks.cpg/sg23_7_cif.got.tgz:12891.got - 2010.06.04 12:02:01.
