data_PCOD9332408
_publ_section_title
;
Structure prediction by ZEFSAII (Michael W. Deem and Ramdas Pophale) SiO2 
 PCOD9332408
Probable space group: I 2 2 2
;
_chemical_formula_sum "Si O2"
_cell_formula_units_Z 36
_cell_length_a 11.872712
_cell_length_b 10.863262
_cell_length_c 12.074669
_cell_angle_alpha 90.000000
_cell_angle_beta 90.000000
_cell_angle_gamma 90.000000
_cell_volume 1557.347111
_symmetry_space_group_name_H-M "I 2 2 2"
_symmetry_group_IT_number 23
_symmetry_cell_setting 'orthorhombic'
loop_
_space_group_symop_operation_xyz
x,y,z
-x,-y,z
x,-y,-z
-x,y,-z
1/2+x,1/2+y,1/2+z
1/2-x,1/2-y,1/2+z
1/2+x,1/2-y,1/2-z
1/2-x,1/2+y,1/2-z
loop_
_atom_site_type_symbol
_atom_site_label
_atom_site_fract_x
_atom_site_fract_y
_atom_site_fract_z
Si Si1 0.660991 0.134524 0.043703
Si Si2 0.394152 0.901632 0.301991
Si Si3 0.853027 0.888995 0.584243
Si Si4 0.000000 0.000000 0.755012
Si Si5 0.896638 0.848882 0.074170
O O1 0.632660 0.131709 0.173807
O O2 0.626931 0.259333 0.978386
O O3 0.791227 0.142827 0.006088
O O4 0.622396 0.000000 0.000000
O O5 0.270592 0.921582 0.361545
O O6 0.426349 0.781050 0.370694
O O7 0.500000 0.000000 0.307936
O O8 0.872736 0.000000 0.500000
O O9 0.944395 0.895617 0.680831
O O10 0.897372 0.055992 0.825147
O O11 0.000000 0.879235 0.000000
#
# Coordination Sequence:
#
# PCOD9332408 Si02
#       5
#     8   8   8   4   8
#     4  11  25  47  71 108 149 196 247 317 378 460
#     4  11  27  44  73 110 151 199 247 314 386 461
#     4  11  26  46  77 105 150 197 256 311 384 458
#     4  12  24  48  76 108 140 200 252 316 382 462
#     4  11  24  43  76 105 145 193 253 309 376 456
#
# _framework density 23.116233000000001
#
# number of rings (size 3 to 8) (size 9 to 14) (size 15 to 20)
#    0.000    0.889    0.000    6.000    9.333    2.222 
#    0.000    0.000    0.000    0.000    0.000    0.000 
#    0.000    0.000    0.000    0.000    0.000    0.000 
#
# Total GULP energy -100353.720168 kJ/mol
# GULP energy per Si atom -5575.206676 kJ/mol
# Density = 2.306362 g / cm^3
# Si number density = 23.116233 Si / 1000 Ang^3
#
#
#
# Elastic Constant Matrix: (Units=GPa)
#
#
# Indices 1 2 3 4 5 6 
#
# 1 150.4419 57.5554 66.8837 0.0000 0.0000 0.0000
# 2 57.5554 166.3093 76.8821 0.0000 0.0000 0.0000
# 3 66.8837 76.8821 131.9243 0.0000 0.0000 0.0000
# 4 0.0000 0.0000 0.0000 54.3865 0.0000 0.0000
# 5 0.0000 0.0000 0.0000 0.0000 4.2153 0.0000
# 6 0.0000 0.0000 0.0000 0.0000 0.0000 -82.2863
#
#
#
# Elastic Compliance Matrix: (Units=1/GPa)
#
#
# Indices 1 2 3 4 5 6 
#
# 1 0.008796 -0.001345 -0.003676 0.000000 0.000000 0.000000
# 2 -0.001345 0.008436 -0.004234 0.000000 0.000000 0.000000
# 3 -0.003676 -0.004234 0.011911 0.000000 0.000000 0.000000
# 4 0.000000 0.000000 0.000000 0.018387 0.000000 0.000000
# 5 0.000000 0.000000 0.000000 0.000000 0.237231 0.000000
# 6 0.000000 0.000000 0.000000 0.000000 0.000000 -0.012153
#
#
# Mechanical properties :
#
#
# Convention : Reuss Voigt Hill
#
# Bulk Modulus (GPa) = 94.04477 94.59088 94.31783
# Shear Modulus (GPa) = 16.96864 11.75340 14.36102
#
# Velocity S-wave (km/s) = 2.71229 2.25733 2.49520
# Velocity P-wave (km/s) = 7.11199 6.91394 7.01366
#
# Compressibility (1/GPa) = 0.01063323
#
# Stress axis : x y z
#
# Youngs Moduli (GPa) = 113.69248 118.54285 83.95439
#
# Poissons Ratio (x) = 0.15942 0.30858
# Poissons Ratio (y) = 0.15289 0.35549
# Poissons Ratio (z) = 0.41788 0.50195
#
# Static dielectric constant tensor:
#      x y z
#    x 1.850420 0.000000 0.000000 
#    y 0.000000 1.920540 0.000000 
#    z 0.000000 0.000000 1.815690 
# 
# From -- ./inp_files/15363.got.cif
#   From: 2010.05.17/outbox.cif.g08.bks.cpg/sg23_8_cif.got.tgz:15363.got - 2010.06.04 12:02:01.
