data_PCOD9332421
_publ_section_title
;
Structure prediction by ZEFSAII (Michael W. Deem and Ramdas Pophale) SiO2 
 PCOD9332421
Probable space group: I 2 2 2
;
_chemical_formula_sum "Si O2"
_cell_formula_units_Z 54
_cell_length_a 10.519203
_cell_length_b 19.153651
_cell_length_c 11.517249
_cell_angle_alpha 90.000000
_cell_angle_beta 90.000000
_cell_angle_gamma 90.000000
_cell_volume 2320.508493
_symmetry_space_group_name_H-M "I 2 2 2"
_symmetry_group_IT_number 23
_symmetry_cell_setting 'orthorhombic'
loop_
_space_group_symop_operation_xyz
x,y,z
-x,-y,z
x,-y,-z
-x,y,-z
1/2+x,1/2+y,1/2+z
1/2-x,1/2-y,1/2+z
1/2+x,1/2-y,1/2-z
1/2-x,1/2+y,1/2-z
loop_
_atom_site_type_symbol
_atom_site_label
_atom_site_fract_x
_atom_site_fract_y
_atom_site_fract_z
Si Si1 0.525809 0.842720 0.234583
Si Si2 0.841378 0.897667 0.838573
Si Si3 0.000000 0.000000 0.000000
Si Si4 0.000000 0.500000 0.805634
Si Si5 0.073000 0.195497 0.215902
Si Si6 0.754690 0.831078 0.417673
Si Si7 0.710679 0.180827 0.973634
Si Si8 0.757072 0.046093 0.406996
O O1 0.493266 0.924955 0.241749
O O2 0.427995 0.779174 0.260772
O O3 0.631798 0.831428 0.335235
O O4 0.592166 0.829364 0.111083
O O5 0.812162 0.934177 0.717168
O O6 0.932453 0.831674 0.812168
O O7 0.724974 0.871601 0.918370
O O8 0.915914 0.951775 0.918110
O O9 0.129787 0.502198 0.878513
O O10 0.128338 0.155864 0.328991
O O11 0.164769 0.175700 0.109273
O O12 0.785031 0.757349 0.474193
O O13 0.732256 0.883252 0.523221
O O14 0.834492 0.000000 0.500000
#
# Coordination Sequence:
#
# PCOD9332421 Si02
#       8
#     8   8   2   4   8   8   8   8
#     4  11  25  43  75 108 145 190 245 307 368 453
#     4  12  27  46  74 103 143 198 244 309 371 443
#     4  12  28  48  74  94 148 190 244 298 376 450
#     4  12  27  48  75 108 148 199 235 296 404 452
#     4  11  24  48  74 106 141 199 250 304 379 431
#     4  11  25  44  74 104 146 185 249 314 352 446
#     4  11  24  46  71 107 141 189 252 305 363 444
#     4  12  28  47  71 108 149 189 245 303 372 458
#
# _framework density 23.270762999999999
#
# number of rings (size 3 to 8) (size 9 to 14) (size 15 to 20)
#    0.000    0.593    4.444    2.000    8.296    3.556 
#    0.000    0.741    0.000    0.000    0.000    0.000 
#    0.000    0.000    0.000    0.000    0.000    0.000 
#
# Total GULP energy -151079.212025 kJ/mol
# GULP energy per Si atom -5595.526371 kJ/mol
# Density = 2.321780 g / cm^3
# Si number density = 23.270763 Si / 1000 Ang^3
#
#
#
# Elastic Constant Matrix: (Units=GPa)
#
#
# Indices 1 2 3 4 5 6 
#
# 1 37.2077 14.4201 34.9599 0.0000 0.0000 0.0000
# 2 14.4201 133.9488 58.1528 0.0000 0.0000 0.0001
# 3 34.9599 58.1528 186.0124 0.0001 0.0000 0.0000
# 4 0.0000 0.0000 0.0001 46.4178 0.0000 0.0000
# 5 0.0000 0.0000 0.0000 0.0000 19.2523 0.0000
# 6 0.0000 0.0001 0.0000 0.0000 0.0000 25.6818
#
#
#
# Elastic Compliance Matrix: (Units=1/GPa)
#
#
# Indices 1 2 3 4 5 6 
#
# 1 0.032753 -0.000988 -0.005847 0.000000 0.000000 0.000000
# 2 -0.000988 0.008668 -0.002524 0.000000 0.000000 0.000000
# 3 -0.005847 -0.002524 0.007264 0.000000 0.000000 0.000000
# 4 0.000000 0.000000 0.000000 0.021543 0.000000 0.000000
# 5 0.000000 0.000000 0.000000 0.000000 0.051942 0.000000
# 6 0.000000 0.000000 0.000000 0.000000 0.000000 0.038938
#
#
# Mechanical properties :
#
#
# Convention : Reuss Voigt Hill
#
# Bulk Modulus (GPa) = 33.37000 63.58160 48.47580
# Shear Modulus (GPa) = 26.34158 34.91278 30.62718
#
# Velocity S-wave (km/s) = 3.36811 3.87755 3.63178
# Velocity P-wave (km/s) = 5.43108 6.88688 6.20184
#
# Compressibility (1/GPa) = 0.02996703
#
# Stress axis : x y z
#
# Youngs Moduli (GPa) = 30.53193 115.37092 137.66509
#
# Poissons Ratio (x) = 0.11393 0.80492
# Poissons Ratio (y) = 0.03015 0.34749
# Poissons Ratio (z) = 0.17852 0.29122
#
# Static dielectric constant tensor:
#      x y z
#    x 1.925320 0.000000 0.000000 
#    y 0.000000 1.878270 0.000000 
#    z 0.000000 0.000000 1.858630 
# 
# From -- ./inp_files/15953.got.cif
#   From: 2010.05.17/outbox.cif.g08.bks.cpg/sg23_8_cif.got.tgz:15953.got - 2010.06.04 12:02:01.
