data_PCOD9332701
_publ_section_title
;
Structure prediction by ZEFSAII (Michael W. Deem and Ramdas Pophale) SiO2 
 PCOD9332701
Probable space group: I 21 21 21
;
_chemical_formula_sum "Si O2"
_cell_formula_units_Z 40
_cell_length_a 9.795092
_cell_length_b 7.907349
_cell_length_c 20.121809
_cell_angle_alpha 90.000000
_cell_angle_beta 90.000000
_cell_angle_gamma 90.000000
_cell_volume 1558.498717
_symmetry_space_group_name_H-M "I 21 21 21"
_symmetry_group_IT_number 24
_symmetry_cell_setting 'orthorhombic'
loop_
_space_group_symop_operation_xyz
x,y,z
-x,1/2-y,z
x,-y,1/2-z
1/2-x,y,-z
1/2+x,1/2+y,1/2+z
1/2-x,-y,1/2+z
1/2+x,1/2-y,-z
-x,1/2+y,1/2-z
loop_
_atom_site_type_symbol
_atom_site_label
_atom_site_fract_x
_atom_site_fract_y
_atom_site_fract_z
Si Si1 0.224394 0.672521 0.287623
Si Si2 0.000000 0.250000 0.707599
Si Si3 0.804118 0.500000 0.250000
Si Si4 0.173669 0.536555 0.897031
Si Si5 0.768851 0.584278 0.100850
Si Si6 0.971254 0.549168 0.999166
O O1 0.192809 0.500000 0.250000
O O2 0.370784 0.744558 0.258528
O O3 0.245785 0.614210 0.362446
O O4 0.126797 0.824261 0.267982
O O5 0.055605 0.395687 0.655803
O O6 0.741935 0.537143 0.176496
O O7 0.260811 0.709648 0.905292
O O8 0.104563 0.475091 0.964925
O O9 0.651928 0.517075 0.052256
O O10 0.912658 0.518683 0.072165
O O11 0.000000 0.750000 0.994762
#
# Coordination Sequence:
#
# PCOD9332701 Si02
#       6
#     8   4   4   8   8   8
#     4  10  21  29  49  84 123 141 178 225 297 348
#     4  10  16  26  46  80 118 138 168 226 288 336
#     4  12  20  34  56  92 118 142 182 242 292 336
#     4  10  17  33  50  80 115 148 190 221 280 346
#     4  10  19  31  56  82 114 148 190 231 287 336
#     4   9  18  34  54  81 111 155 193 228 278 343
#
# _framework density 25.665724999999998
#
# number of rings (size 3 to 8) (size 9 to 14) (size 15 to 20)
#    0.000    2.000    7.000    0.000    7.000    0.000 
#    0.000    0.000    0.000   16.800    0.000    0.000 
#    0.000    0.000    0.000    0.000    0.000    0.000 
#
# Total GULP energy -111394.487934 kJ/mol
# GULP energy per Si atom -5569.724397 kJ/mol
# Density = 2.560731 g / cm^3
# Si number density = 25.665725 Si / 1000 Ang^3
#
#
#
# Elastic Constant Matrix: (Units=GPa)
#
#
# Indices 1 2 3 4 5 6 
#
# 1 72.5310 26.6721 39.6789 0.0000 0.0000 0.0000
# 2 26.6721 113.3216 29.4088 0.0000 0.0000 0.0000
# 3 39.6789 29.4088 135.1321 0.0000 0.0000 0.0000
# 4 0.0000 0.0000 0.0000 17.9898 0.0000 0.0000
# 5 0.0000 0.0000 0.0000 0.0000 -28.3737 0.0000
# 6 0.0000 0.0000 0.0000 0.0000 0.0000 5.6272
#
#
#
# Elastic Compliance Matrix: (Units=1/GPa)
#
#
# Indices 1 2 3 4 5 6 
#
# 1 0.017290 -0.002917 -0.004442 0.000000 0.000000 0.000000
# 2 -0.002917 0.009845 -0.001286 0.000000 0.000000 0.000000
# 3 -0.004442 -0.001286 0.008984 0.000000 0.000000 0.000000
# 4 0.000000 0.000000 0.000000 0.055587 0.000000 0.000000
# 5 0.000000 0.000000 0.000000 0.000000 -0.035244 0.000000
# 6 0.000000 0.000000 0.000000 0.000000 0.000000 0.177708
#
#
# Mechanical properties :
#
#
# Convention : Reuss Voigt Hill
#
# Bulk Modulus (GPa) = 53.10875 56.94493 55.02684
# Shear Modulus (GPa) = 19.39968 14.06365 16.73167
#
# Velocity S-wave (km/s) = 2.75227 2.34338 2.55602
# Velocity P-wave (km/s) = 5.55314 5.43666 5.49521
#
# Compressibility (1/GPa) = 0.01882929
#
# Stress axis : x y z
#
# Youngs Moduli (GPa) = 57.83742 101.57761 111.30425
#
# Poissons Ratio (x) = 0.29627 0.49442
# Poissons Ratio (y) = 0.16869 0.14315
# Poissons Ratio (z) = 0.25692 0.13064
#
# Static dielectric constant tensor:
#      x y z
#    x 2.149650 0.000000 0.000000 
#    y 0.000000 2.191620 0.000000 
#    z 0.000000 0.000000 2.049170 
# 
# From -- ./inp_files/33264.got.cif
#   From: 2010.05.17/outbox.cif.g08.bks.cpg/sg24_17_cif.got.tgz:33264.got - 2010.06.04 00:33:39.
