data_PCOD9332575
_publ_section_title
;
Structure prediction by ZEFSAII (Michael W. Deem and Ramdas Pophale) SiO2 
 PCOD9332575
Probable space group: I 2 2 2
;
_chemical_formula_sum "Si O2"
_cell_formula_units_Z 32
_cell_length_a 6.890338
_cell_length_b 23.325827
_cell_length_c 9.131444
_cell_angle_alpha 90.000000
_cell_angle_beta 90.000000
_cell_angle_gamma 90.000000
_cell_volume 1467.631541
_symmetry_space_group_name_H-M "I 2 2 2"
_symmetry_group_IT_number 23
_symmetry_cell_setting 'orthorhombic'
loop_
_space_group_symop_operation_xyz
x,y,z
-x,-y,z
x,-y,-z
-x,y,-z
1/2+x,1/2+y,1/2+z
1/2-x,1/2-y,1/2+z
1/2+x,1/2-y,1/2-z
1/2-x,1/2+y,1/2-z
loop_
_atom_site_type_symbol
_atom_site_label
_atom_site_fract_x
_atom_site_fract_y
_atom_site_fract_z
Si Si1 0.309815 0.213388 0.903487
Si Si2 0.500000 0.000000 0.000000
Si Si3 0.000000 0.878310 0.000000
Si Si4 0.790126 0.062946 0.767722
Si Si5 0.432233 0.171589 0.347344
Si Si6 0.000000 0.000000 0.500000
O O1 0.385222 0.190036 0.749216
O O2 0.189845 0.271064 0.879146
O O3 0.180062 0.164446 0.977443
O O4 0.500000 0.224906 0.000000
O O5 0.644167 0.967323 0.115202
O O6 0.020555 0.919409 0.860714
O O7 0.690764 0.123123 0.729617
O O8 0.859140 0.033207 0.616584
O O9 0.500000 0.146607 0.500000
#
# Coordination Sequence:
#
# PCOD9332575 Si02
#       6
#     8   2   4   8   8   2
#     4  12  24  48  71 117 152 201 245 292 370 489
#     4  12  28  56  80 106 146 210 280 306 372 468
#     4  12  24  51  78 108 148 211 250 290 386 482
#     4  12  28  49  78 108 148 199 254 322 379 442
#     4  12  26  42  75 110 155 191 238 306 379 443
#     4  12  32  48  72 118 148 184 264 348 378 412
#
# _framework density 21.803839
#
# number of rings (size 3 to 8) (size 9 to 14) (size 15 to 20)
#    0.000    0.000    3.750    6.000    8.750    0.000 
#    0.000    0.000    0.000    0.000    0.000    0.000 
#    0.000    0.000    0.000    0.000    0.000    0.000 
#
# Total GULP energy -89454.686053 kJ/mol
# GULP energy per Si atom -5590.917878 kJ/mol
# Density = 2.175421 g / cm^3
# Si number density = 21.803839 Si / 1000 Ang^3
#
#
#
# Elastic Constant Matrix: (Units=GPa)
#
#
# Indices 1 2 3 4 5 6 
#
# 1 82.7846 33.5724 50.7456 -0.0001 0.0005 -0.0002
# 2 33.5724 91.8136 68.2951 0.0000 0.0002 0.0000
# 3 50.7456 68.2951 177.0219 -0.0001 -0.0019 0.0031
# 4 -0.0001 0.0000 -0.0001 60.4876 0.0003 0.0004
# 5 0.0005 0.0002 -0.0019 0.0003 26.8524 0.0008
# 6 -0.0002 0.0000 0.0031 0.0004 0.0008 42.9103
#
#
#
# Elastic Compliance Matrix: (Units=1/GPa)
#
#
# Indices 1 2 3 4 5 6 
#
# 1 0.015327 -0.003276 -0.003130 0.000000 0.000000 0.000000
# 2 -0.003276 0.015976 -0.005224 0.000000 0.000000 0.000000
# 3 -0.003130 -0.005224 0.008562 0.000000 0.000001 -0.000001
# 4 0.000000 0.000000 0.000000 0.016532 0.000000 0.000000
# 5 0.000000 0.000000 0.000001 0.000000 0.037241 -0.000001
# 6 0.000000 0.000000 -0.000001 0.000000 -0.000001 0.023304
#
#
# Mechanical properties :
#
#
# Convention : Reuss Voigt Hill
#
# Bulk Modulus (GPa) = 60.22775 72.98291 66.60533
# Shear Modulus (GPa) = 34.30861 39.31721 36.81291
#
# Velocity S-wave (km/s) = 3.97106 4.25105 4.11343
# Velocity P-wave (km/s) = 6.97913 7.59212 7.29207
#
# Compressibility (1/GPa) = 0.01660364
#
# Stress axis : x y z
#
# Youngs Moduli (GPa) = 65.24599 62.59523 116.80020
#
# Poissons Ratio (x) = 0.20509 0.36553
# Poissons Ratio (y) = 0.21377 0.61019
# Poissons Ratio (z) = 0.20419 0.32701
#
# Static dielectric constant tensor:
#      x y z
#    x 1.757090 0.000000 0.000000 
#    y 0.000000 1.761250 0.000000 
#    z 0.000000 0.000000 1.770220 
# 
# From -- ./inp_files/880.got.cif
#   From: 2010.05.17/outbox.cif.g08.bks.cpg/sg23_1_cif.got.tgz:880.got - 2010.06.04 12:02:01.
