data_PCOD9332653
_publ_section_title
;
Structure prediction by ZEFSAII (Michael W. Deem and Ramdas Pophale) SiO2 
 PCOD9332653
Probable space group: I 2 2 2
;
_chemical_formula_sum "Si O2"
_cell_formula_units_Z 32
_cell_length_a 12.000000
_cell_length_b 9.000000
_cell_length_c 30.000000
_cell_angle_alpha 90.000000
_cell_angle_beta 90.000000
_cell_angle_gamma 90.000000
_cell_volume 3240.000000
_symmetry_space_group_name_H-M "I 2 2 2"
_symmetry_group_IT_number 23
_symmetry_cell_setting 'orthorhombic'
loop_
_space_group_symop_operation_xyz
x,y,z
-x,-y,z
x,-y,-z
-x,y,-z
1/2+x,1/2+y,1/2+z
1/2-x,1/2-y,1/2+z
1/2+x,1/2-y,1/2-z
1/2-x,1/2+y,1/2-z
loop_
_atom_site_type_symbol
_atom_site_label
_atom_site_fract_x
_atom_site_fract_y
_atom_site_fract_z
Si Si1 0.303102 0.411640 0.316309
Si Si2 0.540923 0.337039 0.761632
Si Si3 0.284229 0.593228 0.838411
Si Si4 0.380146 0.078303 0.745861
Si Si5 0.239392 0.797595 0.602869
Si Si6 0.369353 0.962498 0.053148
Si Si7 0.675233 0.359251 0.391718
Si Si8 0.482367 0.821589 0.553984
O O1 0.376751 0.315323 0.281005
O O2 0.203393 0.476768 0.285003
O O3 0.253737 0.302401 0.353156
O O4 0.358421 0.536402 0.348887
O O5 0.500000 0.500000 0.752353
O O6 0.609997 0.350956 0.808186
O O7 0.428556 0.239387 0.760197
O O8 0.188891 0.567478 0.800122
O O9 0.295801 0.454449 0.873369
O O10 0.241445 0.725425 0.869094
O O11 0.500000 0.000000 0.742313
O O12 0.155677 0.707686 0.569620
O O13 0.358018 0.799704 0.575426
O O14 0.500000 0.000000 0.065205
O O15 0.267795 0.053943 0.077720
O O16 0.359485 0.000000 0.000000
O O17 0.571357 0.285542 0.419482
O O18 0.500000 0.793982 0.500000
O O19 0.500000 0.000000 0.560454
#
# Coordination Sequence:
#
# PCOD9332653 Si02
#       8
#     8   8   8   8   8   8   8   8
#     4  10  24  38  58  95 121 171 228 260 328 385
#     4  11  23  38  59  85 132 176 215 275 314 381
#     4  11  24  39  60 100 126 172 232 263 335 392
#     4  11  23  40  62  84 131 180 216 275 319 379
#     4  11  23  41  68  97 133 170 222 285 335 417
#     4  10  24  47  70  94 128 172 219 278 350 419
#     4  11  23  41  67  96 132 168 218 275 330 418
#     4  11  24  42  68 102 135 169 210 280 360 416
#
# _framework density 9.8765429999999999
#
# number of rings (size 3 to 8) (size 9 to 14) (size 15 to 20)
#    0.000    1.250    1.250    3.750    5.250   10.500 
#    0.000    3.125    0.000    1.500    0.000    0.000 
#    0.000    0.000    0.000    0.000    0.000    0.000 
#
# Total GULP energy -178345.418714 kJ/mol
# GULP energy per Si atom -5573.294335 kJ/mol
# Density = 0.985406 g / cm^3
# Si number density = 9.876543 Si / 1000 Ang^3
#
#
#
# Elastic Constant Matrix: (Units=GPa)
#
#
# Indices 1 2 3 4 5 6 
#
# 1 102.9586 6.7188 39.2404 0.0000 0.0000 0.0000
# 2 6.7188 88.8446 28.6552 0.0000 0.0000 0.0000
# 3 39.2404 28.6552 137.1752 0.0000 0.0000 0.0000
# 4 0.0000 0.0000 0.0000 36.5254 0.0000 0.0000
# 5 0.0000 0.0000 0.0000 0.0000 36.1050 0.0000
# 6 0.0000 0.0000 0.0000 0.0000 0.0000 33.6041
#
#
#
# Elastic Compliance Matrix: (Units=1/GPa)
#
#
# Indices 1 2 3 4 5 6 
#
# 1 0.010904 0.000195 -0.003160 0.000000 0.000000 0.000000
# 2 0.000195 0.012072 -0.002577 0.000000 0.000000 0.000000
# 3 -0.003160 -0.002577 0.008732 0.000000 0.000000 0.000000
# 4 0.000000 0.000000 0.000000 0.027378 0.000000 0.000000
# 5 0.000000 0.000000 0.000000 0.000000 0.027697 0.000000
# 6 0.000000 0.000000 0.000000 0.000000 0.000000 0.029758
#
#
# Mechanical properties :
#
#
# Convention : Reuss Voigt Hill
#
# Bulk Modulus (GPa) = 48.48937 53.13415 50.81176
# Shear Modulus (GPa) = 37.17406 38.20449 37.68928
#
# Velocity S-wave (km/s) = 4.34284 4.40261 4.37283
# Velocity P-wave (km/s) = 7.05323 7.26647 7.16064
#
# Compressibility (1/GPa) = 0.02062308
#
# Stress axis : x y z
#
# Youngs Moduli (GPa) = 91.70709 82.83489 114.51739
#
# Poissons Ratio (x) = -0.01612 0.36187
# Poissons Ratio (y) = -0.01784 0.29517
# Poissons Ratio (z) = 0.28979 0.21350
#
# Static dielectric constant tensor:
#      x y z
#    x 1.655660 0.000000 0.000000 
#    y 0.000000 1.728160 0.000000 
#    z 0.000000 0.000000 1.700120 
# 
# From -- ./inp_files/30501.got.cif
#   From: 2010.05.17/outbox.ucp.g08.bks.cvg/sg23_16_cif.got.tgz:30501.got - 2010.06.11 15:19:07.
