data_PCOD9332453
_publ_section_title
;
Structure prediction by ZEFSAII (Michael W. Deem and Ramdas Pophale) SiO2 
 PCOD9332453
Probable space group: I 2 2 2
;
_chemical_formula_sum "Si O2"
_cell_formula_units_Z 40
_cell_length_a 8.739177
_cell_length_b 23.817780
_cell_length_c 8.022070
_cell_angle_alpha 90.000000
_cell_angle_beta 90.000000
_cell_angle_gamma 90.000000
_cell_volume 1669.776183
_symmetry_space_group_name_H-M "I 2 2 2"
_symmetry_group_IT_number 23
_symmetry_cell_setting 'orthorhombic'
loop_
_space_group_symop_operation_xyz
x,y,z
-x,-y,z
x,-y,-z
-x,y,-z
1/2+x,1/2+y,1/2+z
1/2-x,1/2-y,1/2+z
1/2+x,1/2-y,1/2-z
1/2-x,1/2+y,1/2-z
loop_
_atom_site_type_symbol
_atom_site_label
_atom_site_fract_x
_atom_site_fract_y
_atom_site_fract_z
Si Si1 0.277787 0.688785 0.331862
Si Si2 0.790743 0.385781 0.647429
Si Si3 0.404825 0.895342 0.671425
Si Si4 0.179646 0.001405 0.297721
Si Si5 0.912160 0.799994 0.661070
O O1 0.264691 0.641637 0.475006
O O2 0.201457 0.659685 0.169426
O O3 0.174702 0.742187 0.375623
O O4 0.451234 0.706698 0.295860
O O5 0.745542 0.448962 0.695011
O O6 0.705832 0.345894 0.778592
O O7 0.969474 0.383034 0.687399
O O8 0.500000 0.906323 0.500000
O O9 0.294465 0.946274 0.725841
O O10 0.180516 0.000000 0.500000
O O11 0.000000 0.000000 0.250604
O O12 0.000000 0.820777 0.500000
#
# Coordination Sequence:
#
# PCOD9332453 Si02
#       5
#     8   8   8   8   8
#     4  12  27  48  74 113 152 201 264 336 404 469
#     4  12  26  45  75 111 156 198 267 332 391 474
#     4  12  24  45  76 110 150 207 263 319 398 479
#     4  11  25  46  75 113 151 202 261 317 391 480
#     4  12  26  47  74 107 152 208 262 325 404 485
#
# _framework density 23.955307000000001
#
# number of rings (size 3 to 8) (size 9 to 14) (size 15 to 20)
#    0.000    0.200    2.000    7.800    2.800    2.400 
#    0.000    3.000    0.000    0.000    0.000    0.000 
#    0.000    0.000    0.000    0.000    0.000    0.000 
#
# Total GULP energy -111909.251867 kJ/mol
# GULP energy per Si atom -5595.462593 kJ/mol
# Density = 2.390078 g / cm^3
# Si number density = 23.955307 Si / 1000 Ang^3
#
#
#
# Elastic Constant Matrix: (Units=GPa)
#
#
# Indices 1 2 3 4 5 6 
#
# 1 116.6278 6.4415 6.0119 -0.0020 -0.0011 -0.0046
# 2 6.4415 51.8098 0.2418 -0.0029 -0.0008 -0.0057
# 3 6.0119 0.2418 93.8205 0.0045 0.0024 0.0031
# 4 -0.0020 -0.0029 0.0045 26.6886 0.0006 0.0019
# 5 -0.0011 -0.0008 0.0024 0.0006 27.0634 0.0005
# 6 -0.0046 -0.0057 0.0031 0.0019 0.0005 65.2952
#
#
#
# Elastic Compliance Matrix: (Units=1/GPa)
#
#
# Indices 1 2 3 4 5 6 
#
# 1 0.008662 -0.001074 -0.000552 0.000001 0.000000 0.000001
# 2 -0.001074 0.019435 0.000019 0.000002 0.000001 0.000002
# 3 -0.000552 0.000019 0.010694 -0.000002 -0.000001 -0.000001
# 4 0.000001 0.000002 -0.000002 0.037469 -0.000001 -0.000001
# 5 0.000000 0.000001 -0.000001 -0.000001 0.036950 0.000000
# 6 0.000001 0.000002 -0.000001 -0.000001 0.000000 0.015315
#
#
# Mechanical properties :
#
#
# Convention : Reuss Voigt Hill
#
# Bulk Modulus (GPa) = 28.10952 31.96094 30.03523
# Shear Modulus (GPa) = 34.81902 40.44697 37.63300
#
# Velocity S-wave (km/s) = 3.81661 4.11351 3.96784
# Velocity P-wave (km/s) = 5.58406 5.99435 5.79284
#
# Compressibility (1/GPa) = 0.03557514
#
# Stress axis : x y z
#
# Youngs Moduli (GPa) = 115.44551 51.45391 93.51039
#
# Poissons Ratio (x) = 0.05528 0.05164
# Poissons Ratio (y) = 0.12403 -0.00175
# Poissons Ratio (z) = 0.06376 -0.00097
#
# Static dielectric constant tensor:
#      x y z
#    x 2.007390 0.000000 0.000000 
#    y 0.000000 1.872940 0.000000 
#    z 0.000000 0.000000 1.879410 
# 
# From -- ./inp_files/7087.got.cif
#   From: 2010.05.17/outbox.cif.g08.bks.cpg/sg23_4_cif.got.tgz:7087.got - 2010.06.04 12:02:01.
