data_PCOD9332649
_publ_section_title
;
Structure prediction by ZEFSAII (Michael W. Deem and Ramdas Pophale) SiO2 
 PCOD9332649
Probable space group: I 2 2 2
;
_chemical_formula_sum "Si O2"
_cell_formula_units_Z 24
_cell_length_a 15.000000
_cell_length_b 27.000000
_cell_length_c 6.000000
_cell_angle_alpha 90.000000
_cell_angle_beta 90.000000
_cell_angle_gamma 90.000000
_cell_volume 2430.000000
_symmetry_space_group_name_H-M "I 2 2 2"
_symmetry_group_IT_number 23
_symmetry_cell_setting 'orthorhombic'
loop_
_space_group_symop_operation_xyz
x,y,z
-x,-y,z
x,-y,-z
-x,y,-z
1/2+x,1/2+y,1/2+z
1/2-x,1/2-y,1/2+z
1/2+x,1/2-y,1/2-z
1/2-x,1/2+y,1/2-z
loop_
_atom_site_type_symbol
_atom_site_label
_atom_site_fract_x
_atom_site_fract_y
_atom_site_fract_z
Si Si1 0.818987 0.500000 0.000000
Si Si2 0.824963 0.653628 0.088904
Si Si3 0.910375 0.569087 0.351951
Si Si4 0.643950 0.643797 0.361376
Si Si5 0.408141 0.739350 0.372060
Si Si6 0.757000 0.411083 0.294406
Si Si7 0.000000 0.824766 0.500000
O O1 0.883939 0.525033 0.183276
O O2 0.758629 0.456723 0.115675
O O3 0.901345 0.618614 0.198694
O O4 0.732404 0.642416 0.214057
O O5 0.851639 0.710438 0.129091
O O6 0.801156 0.635567 0.838322
O O7 0.828903 0.572321 0.523990
O O8 0.000000 0.565207 0.500000
O O9 0.637319 0.696661 0.481788
O O10 0.667574 0.605100 0.566524
O O11 0.558434 0.644261 0.187162
O O12 0.500000 0.751866 0.500000
O O13 0.434452 0.711835 0.140318
#
# Coordination Sequence:
#
# PCOD9332649 Si02
#       7
#     4   8   8   8   8   8   4
#     4  10  22  41  60  88 128 167 224 278 326 385
#     4  10  23  36  59  88 130 172 222 262 311 376
#     4  10  23  38  60  89 128 177 222 265 319 378
#     4  10  22  38  59  89 125 167 221 265 322 383
#     4  10  23  36  59  86 125 175 216 256 307 370
#     4  10  22  39  59  89 124 169 221 267 327 379
#     4  10  22  40  58  90 126 165 227 260 324 380
#
# _framework density 9.8765429999999999
#
# number of rings (size 3 to 8) (size 9 to 14) (size 15 to 20)
#    0.000    2.000    0.000    1.500    8.167    6.667 
#    0.000    0.000    0.000    0.000    0.000    0.000 
#    0.000 1180.000    0.000    0.000    0.000    0.000 
#
# Total GULP energy -133831.774286 kJ/mol
# GULP energy per Si atom -5576.323929 kJ/mol
# Density = 0.985406 g / cm^3
# Si number density = 9.876543 Si / 1000 Ang^3
#
#
#
# Elastic Constant Matrix: (Units=GPa)
#
#
# Indices 1 2 3 4 5 6 
#
# 1 74.9620 47.0612 40.7168 -0.0038 0.0012 0.0002
# 2 47.0612 97.9601 46.8032 0.0020 0.0021 -0.0007
# 3 40.7168 46.8032 128.5557 0.0318 -0.0094 -0.0111
# 4 -0.0038 0.0020 0.0318 32.9047 -0.0001 -0.0024
# 5 0.0012 0.0021 -0.0094 -0.0001 40.2311 -0.0003
# 6 0.0002 -0.0007 -0.0111 -0.0024 -0.0003 20.6024
#
#
#
# Elastic Compliance Matrix: (Units=1/GPa)
#
#
# Indices 1 2 3 4 5 6 
#
# 1 0.020316 -0.008093 -0.003488 0.000006 -0.000001 -0.000002
# 2 -0.008093 0.015582 -0.003110 0.000001 -0.000001 -0.000001
# 3 -0.003488 -0.003110 0.010016 -0.000010 0.000003 0.000005
# 4 0.000006 0.000001 -0.000010 0.030391 0.000000 0.000004
# 5 -0.000001 -0.000001 0.000003 0.000000 0.024856 0.000000
# 6 -0.000002 -0.000001 0.000005 0.000004 0.000000 0.048538
#
#
# Mechanical properties :
#
#
# Convention : Reuss Voigt Hill
#
# Bulk Modulus (GPa) = 60.49067 63.40446 61.94756
# Shear Modulus (GPa) = 27.08691 29.87408 28.48050
#
# Velocity S-wave (km/s) = 3.70709 3.89315 3.80126
# Velocity P-wave (km/s) = 7.00095 7.23719 7.12005
#
# Compressibility (1/GPa) = 0.01653148
#
# Stress axis : x y z
#
# Youngs Moduli (GPa) = 49.22304 64.17618 99.84489
#
# Poissons Ratio (x) = 0.51941 0.34825
# Poissons Ratio (y) = 0.39838 0.31047
# Poissons Ratio (z) = 0.17169 0.19956
#
# Static dielectric constant tensor:
#      x y z
#    x 1.703040 0.000000 0.000000 
#    y 0.000000 1.716020 -0.000010 
#    z 0.000000 -0.000010 1.781520 
# 
# From -- ./inp_files/2620.got.cif
#   From: 2010.05.17/outbox.ucp.g08.bks.cvg/sg23_2_cif.got.tgz:2620.got - 2010.06.11 15:19:07.
