data_PCOD9332092
_publ_section_title
;
Structure prediction by ZEFSAII (Michael W. Deem and Ramdas Pophale) SiO2 
 PCOD9332092
Probable space group: I 2 2 2
;
_chemical_formula_sum "Si O2"
_cell_formula_units_Z 46
_cell_length_a 16.314860
_cell_length_b 6.258935
_cell_length_c 21.815960
_cell_angle_alpha 90.000000
_cell_angle_beta 90.000000
_cell_angle_gamma 90.000000
_cell_volume 2227.707266
_symmetry_space_group_name_H-M "I 2 2 2"
_symmetry_group_IT_number 23
_symmetry_cell_setting 'orthorhombic'
loop_
_space_group_symop_operation_xyz
x,y,z
-x,-y,z
x,-y,-z
-x,y,-z
1/2+x,1/2+y,1/2+z
1/2-x,1/2-y,1/2+z
1/2+x,1/2-y,1/2-z
1/2-x,1/2+y,1/2-z
loop_
_atom_site_type_symbol
_atom_site_label
_atom_site_fract_x
_atom_site_fract_y
_atom_site_fract_z
Si Si1 0.500000 0.500000 0.000000
Si Si2 0.734560 0.000000 0.000000
Si Si3 0.867900 0.796197 0.412230
Si Si4 0.771328 0.663066 0.094321
Si Si5 0.855834 0.679269 0.278206
Si Si6 0.319216 0.479605 0.310298
Si Si7 0.590902 0.917818 0.339038
O O1 0.442457 0.637654 0.044535
O O2 0.680932 0.110437 0.052734
O O3 0.778728 0.800317 0.032348
O O4 0.892141 0.703961 0.345834
O O5 0.807568 0.004953 0.405553
O O6 0.849209 0.522535 0.111365
O O7 0.775855 0.840597 0.148006
O O8 0.757626 0.657196 0.287012
O O9 0.886086 0.500016 0.230334
O O10 0.866590 0.901807 0.243481
O O11 0.385567 0.330252 0.342648
O O12 0.500000 0.000000 0.349888
#
# Coordination Sequence:
#
# PCOD9332092 Si02
#       7
#     2   4   8   8   8   8   8
#     4  12  28  46  64 104 152 172 244 288 344 412
#     4  12  22  43  72  95 130 192 242 278 351 425
#     4  12  25  45  66  99 138 193 232 292 342 424
#     4  11  22  42  72  95 133 182 243 282 354 423
#     4  11  21  38  67  98 133 183 234 275 350 427
#     4  11  20  39  71  98 129 181 233 288 347 428
#     4  11  25  42  66 108 142 176 228 302 362 419
#
# _framework density 20.649034
#
# number of rings (size 3 to 8) (size 9 to 14) (size 15 to 20)
#    0.000    0.696    6.957    1.043    0.000    4.522 
#    3.130    0.000    0.000   14.609    0.000    0.000 
#    0.000    0.000    0.000    0.000    0.000    0.000 
#
# Total GULP energy -128370.624551 kJ/mol
# GULP energy per Si atom -5581.331502 kJ/mol
# Density = 2.060204 g / cm^3
# Si number density = 20.649034 Si / 1000 Ang^3
#
#
#
# Elastic Constant Matrix: (Units=GPa)
#
#
# Indices 1 2 3 4 5 6 
#
# 1 80.7525 19.2161 15.5868 0.0000 0.0000 0.0000
# 2 19.2161 90.5665 17.4021 0.0000 0.0000 0.0000
# 3 15.5868 17.4021 105.6516 0.0000 0.0000 0.0000
# 4 0.0000 0.0000 0.0000 31.9900 0.0000 0.0000
# 5 0.0000 0.0000 0.0000 0.0000 24.4181 0.0000
# 6 0.0000 0.0000 0.0000 0.0000 0.0000 2.3696
#
#
#
# Elastic Compliance Matrix: (Units=1/GPa)
#
#
# Indices 1 2 3 4 5 6 
#
# 1 0.013282 -0.002521 -0.001544 0.000000 0.000000 0.000000
# 2 -0.002521 0.011881 -0.001585 0.000000 0.000000 0.000000
# 3 -0.001544 -0.001585 0.009954 0.000000 0.000000 0.000000
# 4 0.000000 0.000000 0.000000 0.031260 0.000000 0.000000
# 5 0.000000 0.000000 0.000000 0.000000 0.040953 0.000000
# 6 0.000000 0.000000 0.000000 0.000000 0.000000 0.422007
#
#
# Mechanical properties :
#
#
# Convention : Reuss Voigt Hill
#
# Bulk Modulus (GPa) = 41.98910 42.37562 42.18236
# Shear Modulus (GPa) = 9.11451 26.73991 17.92721
#
# Velocity S-wave (km/s) = 2.10323 3.60248 2.94970
# Velocity P-wave (km/s) = 5.12610 6.15387 5.66335
#
# Compressibility (1/GPa) = 0.02381570
#
# Stress axis : x y z
#
# Youngs Moduli (GPa) = 75.29245 84.16707 100.46267
#
# Poissons Ratio (x) = 0.21221 0.15513
# Poissons Ratio (y) = 0.18984 0.15923
# Poissons Ratio (z) = 0.11626 0.13340
#
# Static dielectric constant tensor:
#      x y z
#    x 1.720110 0.000000 0.000000 
#    y 0.000000 1.860240 0.000000 
#    z 0.000000 0.000000 1.783930 
# 
# From -- ./inp_files/28634.got.cif
#   From: 2010.05.17/outbox.cif.g08.bks.cpg/sg23_15_cif.got.tgz:28634.got - 2010.06.04 12:02:01.
