data_PCOD9332724
_publ_section_title
;
Structure prediction by ZEFSAII (Michael W. Deem and Ramdas Pophale) SiO2 
 PCOD9332724
Probable space group: I 21 21 21
;
_chemical_formula_sum "Si O2"
_cell_formula_units_Z 48
_cell_length_a 5.426789
_cell_length_b 13.869277
_cell_length_c 28.563627
_cell_angle_alpha 90.000000
_cell_angle_beta 90.000000
_cell_angle_gamma 90.000000
_cell_volume 2149.859663
_symmetry_space_group_name_H-M "I 21 21 21"
_symmetry_group_IT_number 24
_symmetry_cell_setting 'orthorhombic'
loop_
_space_group_symop_operation_xyz
x,y,z
-x,1/2-y,z
x,-y,1/2-z
1/2-x,y,-z
1/2+x,1/2+y,1/2+z
1/2-x,-y,1/2+z
1/2+x,1/2-y,-z
-x,1/2+y,1/2-z
loop_
_atom_site_type_symbol
_atom_site_label
_atom_site_fract_x
_atom_site_fract_y
_atom_site_fract_z
Si Si1 0.122473 0.889992 0.271619
Si Si2 0.627763 0.113962 0.267604
Si Si3 0.913335 0.461382 0.126934
Si Si4 0.503648 0.863292 0.022187
Si Si5 0.248628 0.808077 0.444293
Si Si6 0.075268 0.576034 0.872723
O O1 0.875645 0.844336 0.252740
O O2 0.377116 0.847811 0.253977
O O3 0.094805 0.894830 0.327304
O O4 0.123031 0.000000 0.250000
O O5 0.641034 0.124932 0.323478
O O6 0.628736 0.000000 0.250000
O O7 0.793604 0.406676 0.083064
O O8 0.701589 0.539052 0.137907
O O9 0.190714 0.502290 0.120238
O O10 0.500000 0.750000 0.009358
O O11 0.538760 0.870974 0.077892
O O12 0.250000 0.903826 0.000000
O O13 0.750000 0.908596 0.000000
O O14 0.500000 0.750000 0.431901
O O15 0.250000 0.823359 0.500000
O O16 0.000000 0.750000 0.432719
#
# Coordination Sequence:
#
# PCOD9332724 Si02
#       6
#     8   8   8   8   8   8
#     4  10  16  30  49  81 116 150 173 222 290 353
#     4  10  16  30  49  80 118 150 174 222 290 354
#     4  12  21  33  61  93 111 146 198 246 282 335
#     4  10  23  43  60  79 118 165 194 231 300 362
#     4  10  23  43  59  76 113 160 191 230 298 358
#     4  12  21  33  60  93 113 145 197 248 281 331
#
# _framework density 22.32704
#
# number of rings (size 3 to 8) (size 9 to 14) (size 15 to 20)
#    0.000    1.333    6.667    2.000    0.000    2.000 
#    0.000    0.000    0.000    3.000    0.000    0.000 
#    0.000    0.000    0.000    0.000    0.000    0.000 
#
# Total GULP energy -133869.468735 kJ/mol
# GULP energy per Si atom -5577.894531 kJ/mol
# Density = 2.227622 g / cm^3
# Si number density = 22.327040 Si / 1000 Ang^3
#
#
#
# Elastic Constant Matrix: (Units=GPa)
#
#
# Indices 1 2 3 4 5 6 
#
# 1 205.9074 28.3437 42.3642 0.0000 0.0000 0.0000
# 2 28.3437 27.8324 -3.6521 0.0000 0.0000 0.0000
# 3 42.3642 -3.6521 49.9815 0.0000 0.0000 0.0000
# 4 0.0000 0.0000 0.0000 -262.2660 0.0000 0.0000
# 5 0.0000 0.0000 0.0000 0.0000 33.8735 0.0000
# 6 0.0000 0.0000 0.0000 0.0000 0.0000 17.9113
#
#
#
# Elastic Compliance Matrix: (Units=1/GPa)
#
#
# Indices 1 2 3 4 5 6 
#
# 1 0.007455 -0.008502 -0.006940 0.000000 0.000000 0.000000
# 2 -0.008502 0.045974 0.010566 0.000000 0.000000 0.000000
# 3 -0.006940 0.010566 0.026662 0.000000 0.000000 0.000000
# 4 0.000000 0.000000 0.000000 -0.003813 0.000000 0.000000
# 5 0.000000 0.000000 0.000000 0.000000 0.029522 0.000000
# 6 0.000000 0.000000 0.000000 0.000000 0.000000 0.055831
#
#
# Mechanical properties :
#
#
# Convention : Reuss Voigt Hill
#
# Bulk Modulus (GPa) = 14.21707 46.42587 30.32147
# Shear Modulus (GPa) = 25.66353 -27.65188 -0.99417
#
# Velocity S-wave (km/s) = 3.39401 -3.52304 -0.66801
# Velocity P-wave (km/s) = 4.66268 2.07114 3.60764
#
# Compressibility (1/GPa) = 0.07033800
#
# Stress axis : x y z
#
# Youngs Moduli (GPa) = 134.14252 21.75128 37.50700
#
# Poissons Ratio (x) = 0.18494 0.26029
# Poissons Ratio (y) = 1.14052 -0.39629
# Poissons Ratio (z) = 0.93093 -0.22982
#
# Static dielectric constant tensor:
#      x y z
#    x 1.879230 0.000000 0.000000 
#    y 0.000000 1.919800 0.000000 
#    z 0.000000 0.000000 1.852330 
# 
# From -- ./inp_files/37966.got.cif
#   From: 2010.05.17/outbox.cif.g08.bks.cpg/sg24_19_cif.got.tgz:37966.got - 2010.06.04 00:33:39.
