data_PCOD9332486
_publ_section_title
;
Structure prediction by ZEFSAII (Michael W. Deem and Ramdas Pophale) SiO2 
 PCOD9332486
Probable space group: I 2 2 2
;
_chemical_formula_sum "Si O2"
_cell_formula_units_Z 44
_cell_length_a 7.565664
_cell_length_b 6.744705
_cell_length_c 31.681197
_cell_angle_alpha 90.000000
_cell_angle_beta 90.000000
_cell_angle_gamma 90.000000
_cell_volume 1616.633564
_symmetry_space_group_name_H-M "I 2 2 2"
_symmetry_group_IT_number 23
_symmetry_cell_setting 'orthorhombic'
loop_
_space_group_symop_operation_xyz
x,y,z
-x,-y,z
x,-y,-z
-x,y,-z
1/2+x,1/2+y,1/2+z
1/2-x,1/2-y,1/2+z
1/2+x,1/2-y,1/2-z
1/2-x,1/2+y,1/2-z
loop_
_atom_site_type_symbol
_atom_site_label
_atom_site_fract_x
_atom_site_fract_y
_atom_site_fract_z
Si Si1 0.000000 0.500000 0.077478
Si Si2 0.637531 0.626763 0.297499
Si Si3 0.370323 0.126833 0.877723
Si Si4 0.839881 0.117359 0.043650
Si Si5 0.148776 0.881025 0.367015
Si Si6 0.861535 0.374991 0.784313
O O1 0.091374 0.659338 0.046626
O O2 0.160226 0.403756 0.106265
O O3 0.705391 0.634375 0.345520
O O4 0.799440 0.626547 0.264132
O O5 0.590299 0.375560 0.292233
O O6 0.587343 0.874462 0.289883
O O7 0.327528 0.115044 0.927224
O O8 0.414064 0.376304 0.874190
O O9 0.403670 0.871042 0.871234
O O10 0.000000 0.000000 0.065503
O O11 0.812875 0.000000 0.000000
O O12 0.199065 0.881240 0.317423
#
# Coordination Sequence:
#
# PCOD9332486 Si02
#       6
#     4   8   8   8   8   8
#     4  12  24  51  82 118 160 210 260 330 413 474
#     4  12  24  41  63 101 152 209 261 329 398 463
#     4  12  24  44  71 108 151 204 261 323 403 486
#     4  11  26  49  80 117 157 205 259 332 408 489
#     4  12  23  43  74 111 148 204 262 321 390 474
#     4  12  23  40  63 101 149 203 265 326 381 459
#
# _framework density 27.217055999999999
#
# number of rings (size 3 to 8) (size 9 to 14) (size 15 to 20)
#    0.000    0.182    2.727    8.182    0.000    1.818 
#    0.000    0.909    0.000    0.000    0.000    0.000 
#    0.000    0.000    0.000    0.000    0.000    0.000 
#
# Total GULP energy -122908.005811 kJ/mol
# GULP energy per Si atom -5586.727537 kJ/mol
# Density = 2.715511 g / cm^3
# Si number density = 27.217056 Si / 1000 Ang^3
#
#
#
# Elastic Constant Matrix: (Units=GPa)
#
#
# Indices 1 2 3 4 5 6 
#
# 1 186.8945 95.3523 87.1541 0.0000 0.0000 0.0000
# 2 95.3523 261.7675 19.9884 0.0000 0.0000 0.0000
# 3 87.1541 19.9884 119.2898 0.0000 0.0000 0.0000
# 4 0.0000 0.0000 0.0000 52.0504 0.0000 0.0000
# 5 0.0000 0.0000 0.0000 0.0000 12.0188 0.0000
# 6 0.0000 0.0000 0.0000 0.0000 0.0000 103.8342
#
#
#
# Elastic Compliance Matrix: (Units=1/GPa)
#
#
# Indices 1 2 3 4 5 6 
#
# 1 0.010205 -0.003189 -0.006922 0.000000 0.000000 0.000000
# 2 -0.003189 0.004866 0.001514 0.000000 0.000000 0.000000
# 3 -0.006922 0.001514 0.013186 0.000000 0.000000 0.000000
# 4 0.000000 0.000000 0.000000 0.019212 0.000000 0.000000
# 5 0.000000 0.000000 0.000000 0.000000 0.083203 0.000000
# 6 0.000000 0.000000 0.000000 0.000000 0.000000 0.009631
#
#
# Mechanical properties :
#
#
# Convention : Reuss Voigt Hill
#
# Bulk Modulus (GPa) = 90.37227 108.10461 99.23844
# Shear Modulus (GPa) = 31.02037 57.94449 44.48243
#
# Velocity S-wave (km/s) = 3.37967 4.61909 4.04711
# Velocity P-wave (km/s) = 6.96462 8.26158 7.64067
#
# Compressibility (1/GPa) = 0.01106534
#
# Stress axis : x y z
#
# Youngs Moduli (GPa) = 97.98732 205.50161 75.83623
#
# Poissons Ratio (x) = 0.65533 0.52492
# Poissons Ratio (y) = 0.31247 -0.11485
# Poissons Ratio (z) = 0.67825 -0.31122
#
# Static dielectric constant tensor:
#      x y z
#    x 2.085700 0.000000 0.000000 
#    y 0.000000 2.385070 0.000000 
#    z 0.000000 0.000000 1.878490 
# 
# From -- ./inp_files/2502.got.cif
#   From: 2010.05.17/outbox.cif.g08.bks.cpg/sg23_2_cif.got.tgz:2502.got - 2010.06.04 12:02:01.
