data_PCOD9332554
_publ_section_title
;
Structure prediction by ZEFSAII (Michael W. Deem and Ramdas Pophale) SiO2 
 PCOD9332554
Probable space group: I 2 2 2
;
_chemical_formula_sum "Si O2"
_cell_formula_units_Z 26
_cell_length_a 29.054721
_cell_length_b 7.232063
_cell_length_c 5.396445
_cell_angle_alpha 90.000000
_cell_angle_beta 90.000000
_cell_angle_gamma 90.000000
_cell_volume 1133.931096
_symmetry_space_group_name_H-M "I 2 2 2"
_symmetry_group_IT_number 23
_symmetry_cell_setting 'orthorhombic'
loop_
_space_group_symop_operation_xyz
x,y,z
-x,-y,z
x,-y,-z
-x,y,-z
1/2+x,1/2+y,1/2+z
1/2-x,1/2-y,1/2+z
1/2+x,1/2-y,1/2-z
1/2-x,1/2+y,1/2-z
loop_
_atom_site_type_symbol
_atom_site_label
_atom_site_fract_x
_atom_site_fract_y
_atom_site_fract_z
Si Si1 0.500000 0.500000 0.000000
Si Si2 0.377921 0.268889 0.732996
Si Si3 0.775748 0.206552 0.900853
Si Si4 0.585099 0.313645 0.764223
O O1 0.533751 0.377317 0.831721
O O2 0.325743 0.217613 0.673242
O O3 0.385586 0.493544 0.748503
O O4 0.408981 0.217336 0.498078
O O5 0.394521 0.206679 0.001635
O O6 0.746941 0.199262 0.643711
O O7 0.782505 0.000000 0.000000
#
# Coordination Sequence:
#
# PCOD9332554 Si02
#       4
#     2   8   8   8
#     4   8  16  22  40  74  88 146 162 210 236 346
#     4   9  17  30  45  64  95 140 168 200 271 321
#     4  12  24  37  57  78 106 143 197 231 270 324
#     4   9  16  26  46  62 107 127 178 192 274 330
#
# _framework density 22.929082000000001
#
# number of rings (size 3 to 8) (size 9 to 14) (size 15 to 20)
#    0.000    2.462    3.077    2.769    4.308    9.846 
#    0.000    0.000    0.000    0.000    0.000    0.000 
#    0.000    0.000    0.000  444.462    0.000    0.000 
#
# Total GULP energy -72532.015221 kJ/mol
# GULP energy per Si atom -5579.385786 kJ/mol
# Density = 2.287689 g / cm^3
# Si number density = 22.929082 Si / 1000 Ang^3
#
#
#
# Elastic Constant Matrix: (Units=GPa)
#
#
# Indices 1 2 3 4 5 6 
#
# 1 173.9708 1.8185 87.1624 0.0000 0.0000 0.0000
# 2 1.8185 53.8406 12.0324 0.0000 0.0000 0.0000
# 3 87.1624 12.0324 261.4997 0.0000 0.0001 0.0000
# 4 0.0000 0.0000 0.0000 0.8715 0.0000 0.0000
# 5 0.0000 0.0000 0.0001 0.0000 103.3412 0.0000
# 6 0.0000 0.0000 0.0000 0.0000 0.0000 4.1390
#
#
#
# Elastic Compliance Matrix: (Units=1/GPa)
#
#
# Indices 1 2 3 4 5 6 
#
# 1 0.006905 0.000284 -0.002315 0.000000 0.000000 0.000000
# 2 0.000284 0.018778 -0.000959 0.000000 0.000000 0.000000
# 3 -0.002315 -0.000959 0.004640 0.000000 0.000000 0.000000
# 4 0.000000 0.000000 0.000000 1.147390 -0.000001 0.000000
# 5 0.000000 0.000000 0.000000 -0.000001 0.009677 0.000000
# 6 0.000000 0.000000 0.000000 0.000000 0.000000 0.241602
#
#
# Mechanical properties :
#
#
# Convention : Reuss Voigt Hill
#
# Bulk Modulus (GPa) = 41.07788 76.81532 58.94660
# Shear Modulus (GPa) = 3.46480 47.55687 25.51084
#
# Velocity S-wave (km/s) = 1.23060 4.55915 3.33918
# Velocity P-wave (km/s) = 4.46914 7.82870 6.37424
#
# Compressibility (1/GPa) = 0.02434400
#
# Stress axis : x y z
#
# Youngs Moduli (GPa) = 144.82786 53.25384 215.53174
#
# Poissons Ratio (x) = -0.01513 0.49886
# Poissons Ratio (y) = -0.04114 0.20663
# Poissons Ratio (z) = 0.33521 0.05106
#
# Static dielectric constant tensor:
#      x y z
#    x 1.811720 0.000000 0.000000 
#    y 0.000000 1.617050 0.000000 
#    z 0.000000 0.000000 1.973820 
# 
# From -- ./inp_files/536.got.cif
#   From: 2010.05.17/outbox.cif.g08.bks.cpg/sg23_1_cif.got.tgz:536.got - 2010.06.04 12:02:01.
