data_PCOD9332662
_publ_section_title
;
Structure prediction by ZEFSAII (Michael W. Deem and Ramdas Pophale) SiO2 
 PCOD9332662
Probable space group: I 2 2 2
;
_chemical_formula_sum "Si O2"
_cell_formula_units_Z 30
_cell_length_a 12.000000
_cell_length_b 12.000000
_cell_length_c 21.000000
_cell_angle_alpha 90.000000
_cell_angle_beta 90.000000
_cell_angle_gamma 90.000000
_cell_volume 3024.000000
_symmetry_space_group_name_H-M "I 2 2 2"
_symmetry_group_IT_number 23
_symmetry_cell_setting 'orthorhombic'
loop_
_space_group_symop_operation_xyz
x,y,z
-x,-y,z
x,-y,-z
-x,y,-z
1/2+x,1/2+y,1/2+z
1/2-x,1/2-y,1/2+z
1/2+x,1/2-y,1/2-z
1/2-x,1/2+y,1/2-z
loop_
_atom_site_type_symbol
_atom_site_label
_atom_site_fract_x
_atom_site_fract_y
_atom_site_fract_z
Si Si1 0.069813 0.827499 0.066259
Si Si2 0.475604 0.688709 0.145364
Si Si3 0.500000 0.500000 0.241997
Si Si4 0.702531 0.604072 0.083609
Si Si5 0.925305 0.607768 0.279098
Si Si6 0.192083 0.980390 0.163395
Si Si7 0.132478 0.763640 0.842188
Si Si8 0.734166 0.646701 0.936559
O O1 0.141989 0.930399 0.096784
O O2 0.157470 0.725032 0.061445
O O3 0.979338 0.791762 0.118877
O O4 0.000000 0.847387 0.000000
O O5 0.449065 0.598812 0.200188
O O6 0.581188 0.632440 0.111328
O O7 0.496086 0.809787 0.175228
O O8 0.368683 0.700949 0.100547
O O9 0.598011 0.551593 0.284547
O O10 0.788289 0.688221 0.114922
O O11 0.744441 0.477183 0.093646
O O12 0.698788 0.625660 0.008794
O O13 0.811526 0.568041 0.314934
O O14 0.892253 0.688026 0.219928
O O15 0.000000 0.500000 0.261673
O O16 0.189845 0.115086 0.166297
#
# Coordination Sequence:
#
# PCOD9332662 Si02
#       8
#     8   8   4   8   8   8   8   8
#     4  12  25  48  73 101 140 185 240 295 346 419
#     4  12  22  44  71  99 140 183 230 290 350 426
#     4  12  22  42  68 102 134 186 236 288 348 422
#     4  11  24  43  68 103 142 178 235 288 356 416
#     4  12  28  44  71 105 146 182 232 297 363 427
#     4  12  25  47  71 102 137 187 241 282 357 428
#     4  12  26  44  70 103 137 185 233 292 353 424
#     4  11  24  43  72 103 134 186 231 292 348 423
#
# _framework density 9.9206350000000008
#
# number of rings (size 3 to 8) (size 9 to 14) (size 15 to 20)
#    0.000    0.267    6.667    2.000    1.867    3.200 
#    0.000    0.000    0.000    0.800    0.000    0.000 
#    0.000    0.000    0.000    0.000    0.000    0.000 
#
# Total GULP energy -167574.912230 kJ/mol
# GULP energy per Si atom -5585.830408 kJ/mol
# Density = 0.989806 g / cm^3
# Si number density = 9.920635 Si / 1000 Ang^3
#
#
#
# Elastic Constant Matrix: (Units=GPa)
#
#
# Indices 1 2 3 4 5 6 
#
# 1 81.8832 47.8601 38.3965 0.0000 0.0000 0.0000
# 2 47.8601 155.1738 69.8742 0.0000 0.0000 0.0000
# 3 38.3965 69.8742 81.5133 0.0000 0.0000 0.0000
# 4 0.0000 0.0000 0.0000 25.5160 0.0000 0.0000
# 5 0.0000 0.0000 0.0000 0.0000 39.6441 0.0000
# 6 0.0000 0.0000 0.0000 0.0000 0.0000 36.0059
#
#
#
# Elastic Compliance Matrix: (Units=1/GPa)
#
#
# Indices 1 2 3 4 5 6 
#
# 1 0.016273 -0.002553 -0.005477 0.000000 0.000000 0.000000
# 2 -0.002553 0.010896 -0.008138 0.000000 0.000000 0.000000
# 3 -0.005477 -0.008138 0.021824 0.000000 0.000000 0.000000
# 4 0.000000 0.000000 0.000000 0.039191 0.000000 0.000000
# 5 0.000000 0.000000 0.000000 0.000000 0.025224 0.000000
# 6 0.000000 0.000000 0.000000 0.000000 0.000000 0.027773
#
#
# Mechanical properties :
#
#
# Convention : Reuss Voigt Hill
#
# Bulk Modulus (GPa) = 60.03301 70.09246 65.06274
# Shear Modulus (GPa) = 27.92215 31.06251 29.49233
#
# Velocity S-wave (km/s) = 3.75544 3.96100 3.85959
# Velocity P-wave (km/s) = 7.00905 7.50484 7.26118
#
# Compressibility (1/GPa) = 0.01665750
#
# Stress axis : x y z
#
# Youngs Moduli (GPa) = 61.45207 91.77517 45.82163
#
# Poissons Ratio (x) = 0.23428 0.25097
# Poissons Ratio (y) = 0.15687 0.37289
# Poissons Ratio (z) = 0.33657 0.74686
#
# Static dielectric constant tensor:
#      x y z
#    x 1.672170 0.000000 0.000000 
#    y 0.000000 1.720260 0.000000 
#    z 0.000000 0.000000 1.750330 
# 
# From -- ./inp_files/26760.got.cif
#   From: 2010.05.17/outbox.ucp.g08.bks.cvg/sg23_14_cif.got.tgz:26760.got - 2010.06.11 15:19:07.
