data_PCOD9332667
_publ_section_title
;
Structure prediction by ZEFSAII (Michael W. Deem and Ramdas Pophale) SiO2 
 PCOD9332667
Probable space group: I 21 21 21
;
_chemical_formula_sum "Si O2"
_cell_formula_units_Z 32
_cell_length_a 7.445302
_cell_length_b 27.131901
_cell_length_c 5.155828
_cell_angle_alpha 90.000000
_cell_angle_beta 90.000000
_cell_angle_gamma 90.000000
_cell_volume 1041.504050
_symmetry_space_group_name_H-M "I 21 21 21"
_symmetry_group_IT_number 24
_symmetry_cell_setting 'orthorhombic'
loop_
_space_group_symop_operation_xyz
x,y,z
-x,1/2-y,z
x,-y,1/2-z
1/2-x,y,-z
1/2+x,1/2+y,1/2+z
1/2-x,-y,1/2+z
1/2+x,1/2-y,-z
-x,1/2+y,1/2-z
loop_
_atom_site_type_symbol
_atom_site_label
_atom_site_fract_x
_atom_site_fract_y
_atom_site_fract_z
Si Si1 0.038164 0.695101 0.037882
Si Si2 0.967395 0.977707 0.480330
Si Si3 0.458900 0.363358 0.087779
Si Si4 0.052521 0.093889 0.373011
O O1 0.956537 0.683343 0.750647
O O2 0.000000 0.750000 0.128745
O O3 0.970681 0.653836 0.251957
O O4 0.250000 0.694744 0.000000
O O5 0.750000 0.971708 0.500000
O O6 0.995370 0.034672 0.346607
O O7 0.048536 0.000000 0.750000
O O8 0.043374 0.917108 0.467393
O O9 0.428029 0.391553 0.379165
O O10 0.250000 0.357719 0.000000
O O11 0.250000 0.094086 0.500000
#
# Coordination Sequence:
#
# PCOD9332667 Si02
#       4
#     8   8   8   8
#     4  10  21  38  60  82 114 155 193 235 291 340
#     4  10  13  26  52  76 109 153 188 217 273 350
#     4   8  17  31  48  79 112 148 184 231 283 335
#     4   8  17  31  48  79 112 148 184 231 283 335
#
# _framework density 30.724796000000001
#
# number of rings (size 3 to 8) (size 9 to 14) (size 15 to 20)
#    3.000    0.000    2.500    0.000    0.000    2.000 
#    0.000    0.000    0.000   15.000    0.000    0.000 
#    0.000   20.000    0.000    0.000    0.000    0.000 
#
# Total GULP energy -89312.397380 kJ/mol
# GULP energy per Si atom -5582.024836 kJ/mol
# Density = 3.065487 g / cm^3
# Si number density = 30.724796 Si / 1000 Ang^3
#
#
#
# Elastic Constant Matrix: (Units=GPa)
#
#
# Indices 1 2 3 4 5 6 
#
# 1 193.4128 63.7839 28.3315 0.0022 -0.0055 0.0025
# 2 63.7839 322.4184 94.3169 0.0081 -0.0027 0.0024
# 3 28.3315 94.3169 326.3360 0.0088 -0.0214 0.0406
# 4 0.0022 0.0081 0.0088 75.1791 0.0008 -0.0066
# 5 -0.0055 -0.0027 -0.0214 0.0008 50.2323 0.0078
# 6 0.0025 0.0024 0.0406 -0.0066 0.0078 67.6638
#
#
#
# Elastic Compliance Matrix: (Units=1/GPa)
#
#
# Indices 1 2 3 4 5 6 
#
# 1 0.005541 -0.001044 -0.000179 0.000000 0.000000 0.000000
# 2 -0.001044 0.003585 -0.000945 0.000000 0.000000 0.000000
# 3 -0.000179 -0.000945 0.003353 0.000000 0.000001 -0.000002
# 4 0.000000 0.000000 0.000000 0.013302 0.000000 0.000001
# 5 0.000000 0.000000 0.000001 0.000000 0.019908 -0.000002
# 6 0.000000 0.000000 -0.000002 0.000001 -0.000002 0.014779
#
#
# Mechanical properties :
#
#
# Convention : Reuss Voigt Hill
#
# Bulk Modulus (GPa) = 122.82638 135.00354 128.91496
# Shear Modulus (GPa) = 74.05515 82.33070 78.19292
#
# Velocity S-wave (km/s) = 4.91478 5.18212 5.05022
# Velocity P-wave (km/s) = 8.50117 8.93537 8.72097
#
# Compressibility (1/GPa) = 0.00814157
#
# Stress axis : x y z
#
# Youngs Moduli (GPa) = 180.48132 278.97260 298.22800
#
# Poissons Ratio (x) = 0.29115 0.05350
# Poissons Ratio (y) = 0.18836 0.28195
# Poissons Ratio (z) = 0.03238 0.26374
#
# Static dielectric constant tensor:
#      x y z
#    x 2.086000 0.000000 0.000030 
#    y 0.000000 2.789560 0.000080 
#    z 0.000030 0.000080 1.705680 
# 
# From -- ./inp_files/6856.got.cif
#   From: 2010.05.17/outbox.cif.g08.bks.cpg/sg24_4_cif.got.tgz:6856.got - 2010.06.04 00:33:39.
