data_PCOD9332679
_publ_section_title
;
Structure prediction by ZEFSAII (Michael W. Deem and Ramdas Pophale) SiO2 
 PCOD9332679
Probable space group: I 21 21 21
;
_chemical_formula_sum "Si O2"
_cell_formula_units_Z 44
_cell_length_a 5.413580
_cell_length_b 23.468080
_cell_length_c 15.753445
_cell_angle_alpha 90.000000
_cell_angle_beta 90.000000
_cell_angle_gamma 90.000000
_cell_volume 2001.417349
_symmetry_space_group_name_H-M "I 21 21 21"
_symmetry_group_IT_number 24
_symmetry_cell_setting 'orthorhombic'
loop_
_space_group_symop_operation_xyz
x,y,z
-x,1/2-y,z
x,-y,1/2-z
1/2-x,y,-z
1/2+x,1/2+y,1/2+z
1/2-x,-y,1/2+z
1/2+x,1/2-y,-z
-x,1/2+y,1/2-z
loop_
_atom_site_type_symbol
_atom_site_label
_atom_site_fract_x
_atom_site_fract_y
_atom_site_fract_z
Si Si1 0.611594 0.828554 0.736515
Si Si2 0.001705 0.670581 0.455255
Si Si3 0.498304 0.044309 0.026639
Si Si4 0.113921 0.163821 0.676232
Si Si5 0.091092 0.564346 0.723277
Si Si6 0.750000 0.286517 0.500000
O O1 0.543359 0.812739 0.641118
O O2 0.371159 0.813870 0.788245
O O3 0.664651 0.896817 0.729833
O O4 0.867349 0.809000 0.780757
O O5 0.250000 0.689813 0.500000
O O6 0.998277 0.601834 0.469125
O O7 0.750000 0.689454 0.500000
O O8 0.502136 0.063490 0.125119
O O9 0.750000 0.013247 0.000000
O O10 0.250000 0.012468 0.000000
O O11 0.140887 0.175352 0.576950
O O12 0.086929 0.098893 0.711935
O O13 0.127828 0.500000 0.750000
O O14 0.500000 0.250000 0.524616
#
# Coordination Sequence:
#
# PCOD9332679 Si02
#       6
#     8   8   8   8   8   4
#     4  10  19  36  56  85 128 163 205 271 333 399
#     4  10  15  26  50  77 111 156 202 248 291 363
#     4  10  17  31  49  73 109 154 212 252 283 367
#     4  10  22  41  63  89 128 163 223 286 351 408
#     4  10  22  37  55  88 130 183 215 267 338 418
#     4  12  26  48  78 100 124 174 246 316 374 416
#
# _framework density 21.984418999999999
#
# number of rings (size 3 to 8) (size 9 to 14) (size 15 to 20)
#    1.091    0.727    3.636    4.364    0.000    0.727 
#    1.636    0.000    0.000    0.000    0.000    0.000 
#    0.000  132.364    0.000    0.000    0.000    0.000 
#
# Total GULP energy -122542.057522 kJ/mol
# GULP energy per Si atom -5570.093524 kJ/mol
# Density = 2.193438 g / cm^3
# Si number density = 21.984419 Si / 1000 Ang^3
#
#
#
# Elastic Constant Matrix: (Units=GPa)
#
#
# Indices 1 2 3 4 5 6 
#
# 1 217.8257 29.9373 69.0057 0.0000 0.0000 0.0000
# 2 29.9373 81.0899 29.7693 0.0000 0.0000 0.0000
# 3 69.0057 29.7693 182.3477 0.0000 0.0000 0.0000
# 4 0.0000 0.0000 0.0000 12.6637 0.0000 0.0000
# 5 0.0000 0.0000 0.0000 0.0000 37.7663 0.0000
# 6 0.0000 0.0000 0.0000 0.0000 0.0000 11.2582
#
#
#
# Elastic Compliance Matrix: (Units=1/GPa)
#
#
# Indices 1 2 3 4 5 6 
#
# 1 0.005344 -0.001309 -0.001809 0.000000 0.000000 0.000000
# 2 -0.001309 0.013439 -0.001699 0.000000 0.000000 0.000000
# 3 -0.001809 -0.001699 0.006446 0.000000 0.000000 0.000000
# 4 0.000000 0.000000 0.000000 0.078966 0.000000 0.000000
# 5 0.000000 0.000000 0.000000 0.000000 0.026479 0.000000
# 6 0.000000 0.000000 0.000000 0.000000 0.000000 0.088824
#
#
# Mechanical properties :
#
#
# Convention : Reuss Voigt Hill
#
# Bulk Modulus (GPa) = 64.11848 82.07645 73.09746
# Shear Modulus (GPa) = 21.33760 35.84102 28.58931
#
# Velocity S-wave (km/s) = 3.11879 4.04207 3.61007
# Velocity P-wave (km/s) = 6.49599 7.69411 7.12030
#
# Compressibility (1/GPa) = 0.01559613
#
# Stress axis : x y z
#
# Youngs Moduli (GPa) = 187.13847 74.41137 155.14132
#
# Poissons Ratio (x) = 0.09739 0.28057
# Poissons Ratio (y) = 0.24494 0.26353
# Poissons Ratio (z) = 0.33844 0.12640
#
# Static dielectric constant tensor:
#      x y z
#    x 1.930510 0.000000 0.000000 
#    y 0.000000 1.817530 0.000000 
#    z 0.000000 0.000000 2.367190 
# 
# From -- ./inp_files/23841.got.cif
#   From: 2010.05.17/outbox.cif.g08.bks.cpg/sg24_12_cif.got.tgz:23841.got - 2010.06.04 00:33:39.
