data_PCOD9332081
_publ_section_title
;
Structure prediction by ZEFSAII (Michael W. Deem and Ramdas Pophale) SiO2 
 PCOD9332081
Probable space group: I 2 2 2
;
_chemical_formula_sum "Si O2"
_cell_formula_units_Z 64
_cell_length_a 19.073409
_cell_length_b 9.639240
_cell_length_c 18.418687
_cell_angle_alpha 90.000000
_cell_angle_beta 90.000000
_cell_angle_gamma 90.000000
_cell_volume 3386.333936
_symmetry_space_group_name_H-M "I 2 2 2"
_symmetry_group_IT_number 23
_symmetry_cell_setting 'orthorhombic'
loop_
_space_group_symop_operation_xyz
x,y,z
-x,-y,z
x,-y,-z
-x,y,-z
1/2+x,1/2+y,1/2+z
1/2-x,1/2-y,1/2+z
1/2+x,1/2-y,1/2-z
1/2-x,1/2+y,1/2-z
loop_
_atom_site_type_symbol
_atom_site_label
_atom_site_fract_x
_atom_site_fract_y
_atom_site_fract_z
Si Si1 0.697481 0.208194 0.671829
Si Si2 0.411584 0.397789 0.724520
Si Si3 0.061828 0.887654 0.602646
Si Si4 0.239726 0.019820 0.207799
Si Si5 0.449641 0.716526 0.708390
Si Si6 0.031726 0.352994 0.636501
Si Si7 0.213639 0.858818 0.530630
Si Si8 0.321831 0.893075 0.935014
O O1 0.719710 0.079664 0.722660
O O2 0.719275 0.356319 0.709298
O O3 0.612759 0.210013 0.664798
O O4 0.740210 0.197951 0.597121
O O5 0.418927 0.398527 0.811956
O O6 0.331025 0.388065 0.703717
O O7 0.432423 0.553702 0.702679
O O8 0.466579 0.285049 0.693618
O O9 0.134480 0.892161 0.559455
O O10 0.026419 0.737660 0.595695
O O11 0.000000 0.000000 0.586598
O O12 0.284401 0.049425 0.136353
O O13 0.444018 0.769448 0.791607
O O14 0.097500 0.373510 0.585290
O O15 0.000000 0.500000 0.659192
O O16 0.207992 0.750498 0.465261
O O17 0.244839 0.000000 0.500000
O O18 0.313827 0.000000 0.000000
#
# Coordination Sequence:
#
# PCOD9332081 Si02
#       8
#     8   8   8   8   8   8   8   8
#     4  11  23  40  64  92 119 164 208 258 304 365
#     4   9  17  35  63  88 112 151 203 259 295 354
#     4  11  20  37  57  85 120 164 214 241 286 363
#     4  11  23  38  66  89 122 160 210 256 309 358
#     4   9  18  36  60  88 118 146 202 258 304 347
#     4  11  22  33  57  84 122 166 198 239 300 368
#     4  12  27  39  60  89 128 168 211 248 304 365
#     4  12  25  43  54  86 131 168 200 251 304 366
#
# _framework density 18.899494000000001
#
# number of rings (size 3 to 8) (size 9 to 14) (size 15 to 20)
#    0.000    1.250    6.250    1.500    1.750    3.000 
#    0.000    0.000    0.000    0.750    0.000    0.875 
#    0.000    0.000    0.000    0.000    0.000    0.000 
#
# Total GULP energy -178531.354077 kJ/mol
# GULP energy per Si atom -5579.104815 kJ/mol
# Density = 1.885648 g / cm^3
# Si number density = 18.899494 Si / 1000 Ang^3
#
#
#
# Elastic Constant Matrix: (Units=GPa)
#
#
# Indices 1 2 3 4 5 6 
#
# 1 66.4145 7.5259 4.9193 0.0000 0.0000 0.0000
# 2 7.5259 58.8598 -3.1962 0.0000 0.0000 0.0000
# 3 4.9193 -3.1962 28.9324 0.0000 0.0000 0.0000
# 4 0.0000 0.0000 0.0000 26.0462 0.0000 0.0000
# 5 0.0000 0.0000 0.0000 0.0000 -2.3660 0.0000
# 6 0.0000 0.0000 0.0000 0.0000 0.0000 20.6184
#
#
#
# Elastic Compliance Matrix: (Units=1/GPa)
#
#
# Indices 1 2 3 4 5 6 
#
# 1 0.015512 -0.002139 -0.002874 0.000000 0.000000 0.000000
# 2 -0.002139 0.017387 0.002285 0.000000 0.000000 0.000000
# 3 -0.002874 0.002285 0.035304 0.000000 0.000000 0.000000
# 4 0.000000 0.000000 0.000000 0.038393 0.000000 0.000000
# 5 0.000000 0.000000 0.000000 0.000000 -0.422652 0.000000
# 6 0.000000 0.000000 0.000000 0.000000 0.000000 0.048500
#
#
# Mechanical properties :
#
#
# Convention : Reuss Voigt Hill
#
# Bulk Modulus (GPa) = 15.93721 19.18940 17.56331
# Shear Modulus (GPa) = -20.73127 18.52357 -1.10385
#
# Velocity S-wave (km/s) = -3.31557 3.13407 -0.76507
# Velocity P-wave (km/s) = 2.49128 4.82410 2.92109
#
# Compressibility (1/GPa) = 0.06274623
#
# Stress axis : x y z
#
# Youngs Moduli (GPa) = 64.46512 57.51383 28.32509
#
# Poissons Ratio (x) = 0.12305 0.08140
# Poissons Ratio (y) = 0.13792 -0.06471
# Poissons Ratio (z) = 0.18526 -0.13139
#
# Static dielectric constant tensor:
#      x y z
#    x 1.665820 0.000000 0.000000 
#    y 0.000000 1.652750 0.000000 
#    z 0.000000 0.000000 1.639760 
# 
# From -- ./inp_files/25269.got.cif
#   From: 2010.05.17/outbox.cif.g08.bks.cpg/sg23_13_cif.got.tgz:25269.got - 2010.06.04 12:02:01.
