data_PCOD9332183
_publ_section_title
;
Structure prediction by ZEFSAII (Michael W. Deem and Ramdas Pophale) SiO2 
 PCOD9332183
Probable space group: I 2 2 2
;
_chemical_formula_sum "Si O2"
_cell_formula_units_Z 64
_cell_length_a 14.329658
_cell_length_b 11.913042
_cell_length_c 20.967773
_cell_angle_alpha 90.000000
_cell_angle_beta 90.000000
_cell_angle_gamma 90.000000
_cell_volume 3579.404704
_symmetry_space_group_name_H-M "I 2 2 2"
_symmetry_group_IT_number 23
_symmetry_cell_setting 'orthorhombic'
loop_
_space_group_symop_operation_xyz
x,y,z
-x,-y,z
x,-y,-z
-x,y,-z
1/2+x,1/2+y,1/2+z
1/2-x,1/2-y,1/2+z
1/2+x,1/2-y,1/2-z
1/2-x,1/2+y,1/2-z
loop_
_atom_site_type_symbol
_atom_site_label
_atom_site_fract_x
_atom_site_fract_y
_atom_site_fract_z
Si Si1 0.105920 0.131259 0.128763
Si Si2 0.392305 0.630124 0.217504
Si Si3 0.202616 0.268068 0.386096
Si Si4 0.894081 0.131259 0.128763
Si Si5 0.892305 0.130124 0.282496
Si Si6 0.202616 0.268068 0.613904
Si Si7 0.611467 1.000000 0.075663
Si Si8 0.109265 0.134018 0.500000
O O1 0.112096 0.137286 0.205954
O O2 0.188125 0.208921 0.103294
O O3 0.000000 0.161123 0.110261
O O4 0.121126 1.000000 0.111221
O O5 0.322706 0.712237 0.181348
O O6 0.373920 0.500000 0.200191
O O7 0.500000 0.655363 0.198520
O O8 0.311875 0.291079 0.396705
O O9 0.153638 0.388845 0.393044
O O10 0.158343 0.187011 0.438691
O O11 0.887905 0.137286 0.205954
O O12 0.822706 0.212237 0.318652
O O13 0.153637 0.388845 0.606956
O O14 0.158343 0.187011 0.561310
O O15 0.500000 0.000000 0.081570
O O16 0.634450 0.000000 0.000000
O O17 0.000000 0.166240 0.500000
O O18 0.115402 0.000000 0.500000
#
# Coordination Sequence:
#
# PCOD9332183 Si02
#       8
#     8   8   8   8   8   8   8   8
#     4   9  19  36  55  79 108 142 185 223 259 313
#     4   9  18  33  55  81 109 141 179 222 265 315
#     4  12  20  34  56  80 109 142 180 220 268 323
#     4   9  19  36  55  79 108 142 185 223 259 313
#     4   9  18  33  55  81 109 141 179 222 265 315
#     4  12  20  34  56  80 109 142 180 220 268 323
#     4  11  22  34  49  77 115 145 168 215 280 327
#     4  11  24  39  58  83 108 139 179 220 266 324
#
# _framework density 17.880068000000001
#
# number of rings (size 3 to 8) (size 9 to 14) (size 15 to 20)
#    0.000    1.750    2.500    5.250    0.000    2.000 
#    0.000    0.625    0.000    6.000    0.000    0.000 
#    0.000    0.000    0.000    0.000    0.000    0.000 
#
# Total GULP energy -178686.048161 kJ/mol
# GULP energy per Si atom -5583.939005 kJ/mol
# Density = 1.783937 g / cm^3
# Si number density = 17.880068 Si / 1000 Ang^3
#
#
#
# Elastic Constant Matrix: (Units=GPa)
#
#
# Indices 1 2 3 4 5 6 
#
# 1 142.3707 57.2659 20.1713 0.0000 0.0000 0.0000
# 2 57.2659 73.6987 16.4232 0.0000 0.0000 0.0000
# 3 20.1713 16.4232 19.6948 0.0000 0.0000 0.0000
# 4 0.0000 0.0000 0.0000 11.9697 0.0000 0.0000
# 5 0.0000 0.0000 0.0000 0.0000 19.3896 0.0000
# 6 0.0000 0.0000 0.0000 0.0000 0.0000 8.4750
#
#
#
# Elastic Compliance Matrix: (Units=1/GPa)
#
#
# Indices 1 2 3 4 5 6 
#
# 1 0.010588 -0.007137 -0.004893 0.000000 0.000000 0.000000
# 2 -0.007137 0.021476 -0.010599 0.000000 0.000000 0.000000
# 3 -0.004893 -0.010599 0.064625 0.000000 0.000000 0.000000
# 4 0.000000 0.000000 0.000000 0.083544 0.000000 0.000000
# 5 0.000000 0.000000 0.000000 0.000000 0.051574 0.000000
# 6 0.000000 0.000000 0.000000 0.000000 0.000000 0.117994
#
#
# Mechanical properties :
#
#
# Convention : Reuss Voigt Hill
#
# Bulk Modulus (GPa) = 19.44354 47.05390 33.24872
# Shear Modulus (GPa) = 12.13000 17.42713 14.77857
#
# Velocity S-wave (km/s) = 2.60745 3.12535 2.87808
# Velocity P-wave (km/s) = 4.46801 6.27673 5.44796
#
# Compressibility (1/GPa) = 0.05143096
#
# Stress axis : x y z
#
# Youngs Moduli (GPa) = 94.44931 46.56340 15.47400
#
# Poissons Ratio (x) = 0.33231 0.07571
# Poissons Ratio (y) = 0.67405 0.16401
# Poissons Ratio (z) = 0.46211 0.49354
#
# Static dielectric constant tensor:
#      x y z
#    x 1.619220 0.000000 0.000000 
#    y 0.000000 1.579970 0.000000 
#    z 0.000000 0.000000 1.638100 
# 
# From -- ./inp_files/28415.got.cif
#   From: 2010.05.17/outbox.cif.g08.bks.cpg/sg23_15_cif.got.tgz:28415.got - 2010.06.04 12:02:01.
