data_PCOD9332457
_publ_section_title
;
Structure prediction by ZEFSAII (Michael W. Deem and Ramdas Pophale) SiO2 
 PCOD9332457
Probable space group: I 2 2 2
;
_chemical_formula_sum "Si O2"
_cell_formula_units_Z 24
_cell_length_a 17.484333
_cell_length_b 6.926560
_cell_length_c 6.909209
_cell_angle_alpha 90.000000
_cell_angle_beta 90.000000
_cell_angle_gamma 90.000000
_cell_volume 836.748611
_symmetry_space_group_name_H-M "I 2 2 2"
_symmetry_group_IT_number 23
_symmetry_cell_setting 'orthorhombic'
loop_
_space_group_symop_operation_xyz
x,y,z
-x,-y,z
x,-y,-z
-x,y,-z
1/2+x,1/2+y,1/2+z
1/2-x,1/2-y,1/2+z
1/2+x,1/2-y,1/2-z
1/2-x,1/2+y,1/2-z
loop_
_atom_site_type_symbol
_atom_site_label
_atom_site_fract_x
_atom_site_fract_y
_atom_site_fract_z
Si Si1 0.843814 0.827173 0.368791
Si Si2 0.090128 0.521352 0.303919
Si Si3 0.172211 0.196938 0.979707
O O1 0.896298 0.652192 0.484939
O O2 0.828037 0.970876 0.157430
O O3 0.758042 0.771721 0.441960
O O4 0.874627 0.000000 0.500000
O O5 0.140529 0.336146 0.184415
O O6 0.000000 0.500000 0.266742
O O7 0.116569 0.693636 0.163578
#
# Coordination Sequence:
#
# PCOD9332457 Si02
#       3
#     8   8   8
#     4  12  24  43  75 112 150 199 260 321 387 465
#     4  11  25  47  72 105 153 204 255 319 392 464
#     4  12  24  43  75 111 151 201 259 321 388 464
#
# _framework density 28.682451
#
# number of rings (size 3 to 8) (size 9 to 14) (size 15 to 20)
#    0.000    0.333    0.000   12.000    0.000    2.667 
#    0.000   13.333    0.000    0.000    0.000    0.000 
#    0.000    0.000    0.000    0.000    0.000    0.000 
#
# Total GULP energy -67072.255561 kJ/mol
# GULP energy per Si atom -5589.354630 kJ/mol
# Density = 2.861717 g / cm^3
# Si number density = 28.682451 Si / 1000 Ang^3
#
#
#
# Elastic Constant Matrix: (Units=GPa)
#
#
# Indices 1 2 3 4 5 6 
#
# 1 259.7184 119.2871 61.4932 0.0000 0.0000 0.0000
# 2 119.2871 392.2166 106.2028 0.0000 0.0000 0.0000
# 3 61.4932 106.2028 320.0871 0.0000 0.0000 0.0000
# 4 0.0000 0.0000 0.0000 84.2638 0.0000 0.0000
# 5 0.0000 0.0000 0.0000 0.0000 47.6621 0.0000
# 6 0.0000 0.0000 0.0000 0.0000 0.0000 61.1373
#
#
#
# Elastic Compliance Matrix: (Units=1/GPa)
#
#
# Indices 1 2 3 4 5 6 
#
# 1 0.004535 -0.001256 -0.000454 0.000000 0.000000 0.000000
# 2 -0.001256 0.003149 -0.000804 0.000000 0.000000 0.000000
# 3 -0.000454 -0.000804 0.003478 0.000000 0.000000 0.000000
# 4 0.000000 0.000000 0.000000 0.011867 0.000000 0.000000
# 5 0.000000 0.000000 0.000000 0.000000 0.020981 0.000000
# 6 0.000000 0.000000 0.000000 0.000000 0.000000 0.016357
#
#
# Mechanical properties :
#
#
# Convention : Reuss Voigt Hill
#
# Bulk Modulus (GPa) = 163.02955 171.77648 167.40301
# Shear Modulus (GPa) = 74.13970 84.28193 79.21081
#
# Velocity S-wave (km/s) = 5.08965 5.42663 5.26084
# Velocity P-wave (km/s) = 9.56568 9.96411 9.76693
#
# Compressibility (1/GPa) = 0.00613386
#
# Stress axis : x y z
#
# Youngs Moduli (GPa) = 220.51366 317.53639 287.51572
#
# Poissons Ratio (x) = 0.39888 0.13065
# Poissons Ratio (y) = 0.27700 0.23104
# Poissons Ratio (z) = 0.10021 0.25516
#
# Static dielectric constant tensor:
#      x y z
#    x 1.947000 0.000000 0.000000 
#    y 0.000000 3.434280 0.000000 
#    z 0.000000 0.000000 2.304640 
# 
# From -- ./inp_files/10513.got.cif
#   From: 2010.05.17/outbox.cif.g08.bks.cpg/sg23_6_cif.got.tgz:10513.got - 2010.06.04 12:02:01.
