data_PCOD9332163
_publ_section_title
;
Structure prediction by ZEFSAII (Michael W. Deem and Ramdas Pophale) SiO2 
 PCOD9332163
Probable space group: I 2 2 2
;
_chemical_formula_sum "Si O2"
_cell_formula_units_Z 48
_cell_length_a 17.468906
_cell_length_b 13.879434
_cell_length_c 8.757143
_cell_angle_alpha 90.000000
_cell_angle_beta 90.000000
_cell_angle_gamma 90.000000
_cell_volume 2123.244000
_symmetry_space_group_name_H-M "I 2 2 2"
_symmetry_group_IT_number 23
_symmetry_cell_setting 'orthorhombic'
loop_
_space_group_symop_operation_xyz
x,y,z
-x,-y,z
x,-y,-z
-x,y,-z
1/2+x,1/2+y,1/2+z
1/2-x,1/2-y,1/2+z
1/2+x,1/2-y,1/2-z
1/2-x,1/2+y,1/2-z
loop_
_atom_site_type_symbol
_atom_site_label
_atom_site_fract_x
_atom_site_fract_y
_atom_site_fract_z
Si Si1 0.080789 0.480235 0.176878
Si Si2 0.409497 0.716615 0.032867
Si Si3 0.831134 0.593127 0.598775
Si Si4 0.666690 0.599760 0.457836
Si Si5 0.141932 0.728734 0.862305
Si Si6 0.786516 0.908067 0.606867
O O1 0.144517 0.554003 0.237511
O O2 0.095213 0.367158 0.181013
O O3 0.000000 0.500000 0.256744
O O4 0.075004 0.500000 0.000000
O O5 0.375078 0.713045 0.205708
O O6 0.500000 0.714225 0.000000
O O7 0.376393 0.814037 0.956084
O O8 0.368104 0.628561 0.950714
O O9 0.853938 0.500000 0.500000
O O10 0.741438 0.608511 0.568595
O O11 0.625219 0.500000 0.500000
O O12 0.623361 0.699083 0.497090
O O13 0.701460 0.583709 0.289644
O O14 0.223357 0.677671 0.902639
O O15 0.766337 0.000000 0.500000
#
# Coordination Sequence:
#
# PCOD9332163 Si02
#       6
#     8   8   8   8   8   8
#     4  11  25  40  63 104 146 191 234 305 381 457
#     4  12  26  44  71 107 149 203 252 317 400 474
#     4  11  21  41  64  99 143 181 243 293 377 444
#     4  11  24  43  70 104 141 188 252 317 371 455
#     4  12  22  45  69 108 147 198 253 310 392 464
#     4  12  25  46  73 105 144 196 261 325 381 467
#
# _framework density 22.606916999999999
#
# number of rings (size 3 to 8) (size 9 to 14) (size 15 to 20)
#    0.000    0.500    5.000    3.500    2.333    1.667 
#    0.000    0.000    0.000    1.000    0.000    0.000 
#    0.000    0.000    0.000    0.000    0.000    0.000 
#
# Total GULP energy -133851.338226 kJ/mol
# GULP energy per Si atom -5577.139093 kJ/mol
# Density = 2.255546 g / cm^3
# Si number density = 22.606917 Si / 1000 Ang^3
#
#
#
# Elastic Constant Matrix: (Units=GPa)
#
#
# Indices 1 2 3 4 5 6 
#
# 1 96.3936 22.8110 11.1143 0.0000 0.0000 0.0000
# 2 22.8110 102.1617 26.7571 0.0000 0.0000 0.0000
# 3 11.1143 26.7571 92.4315 0.0000 0.0000 0.0000
# 4 0.0000 0.0000 0.0000 34.1591 0.0000 0.0000
# 5 0.0000 0.0000 0.0000 0.0000 12.3933 0.0000
# 6 0.0000 0.0000 0.0000 0.0000 0.0000 28.6441
#
#
#
# Elastic Compliance Matrix: (Units=1/GPa)
#
#
# Indices 1 2 3 4 5 6 
#
# 1 0.010990 -0.002281 -0.000661 0.000000 0.000000 0.000000
# 2 -0.002281 0.011065 -0.002929 0.000000 0.000000 0.000000
# 3 -0.000661 -0.002929 0.011746 0.000000 0.000000 0.000000
# 4 0.000000 0.000000 0.000000 0.029275 0.000000 0.000000
# 5 0.000000 0.000000 0.000000 0.000000 0.080689 0.000000
# 6 0.000000 0.000000 0.000000 0.000000 0.000000 0.034911
#
#
# Mechanical properties :
#
#
# Convention : Reuss Voigt Hill
#
# Bulk Modulus (GPa) = 45.33204 45.81686 45.57445
# Shear Modulus (GPa) = 25.28182 30.39291 27.83736
#
# Velocity S-wave (km/s) = 3.34776 3.67059 3.51289
# Velocity P-wave (km/s) = 5.91939 6.18669 6.05451
#
# Compressibility (1/GPa) = 0.02205945
#
# Stress axis : x y z
#
# Youngs Moduli (GPa) = 90.99101 90.37728 85.13422
#
# Poissons Ratio (x) = 0.20612 0.05630
# Poissons Ratio (y) = 0.20752 0.24934
# Poissons Ratio (z) = 0.06017 0.26470
#
# Static dielectric constant tensor:
#      x y z
#    x 1.904590 0.000000 0.000000 
#    y 0.000000 1.878430 0.000000 
#    z 0.000000 0.000000 3.484370 
# 
# From -- ./inp_files/11053.got.cif
#   From: 2010.05.17/outbox.cif.g08.bks.cpg/sg23_6_cif.got.tgz:11053.got - 2010.06.04 12:02:01.
