data_PCOD9332834
_publ_section_title
;
Structure prediction by ZEFSAII (Michael W. Deem and Ramdas Pophale) SiO2 
 PCOD9332834
Probable space group: I 21 21 21
;
_chemical_formula_sum "Si O2"
_cell_formula_units_Z 52
_cell_length_a 9.030506
_cell_length_b 23.705226
_cell_length_c 14.917313
_cell_angle_alpha 90.000000
_cell_angle_beta 90.000000
_cell_angle_gamma 90.000000
_cell_volume 3193.351963
_symmetry_space_group_name_H-M "I 21 21 21"
_symmetry_group_IT_number 24
_symmetry_cell_setting 'orthorhombic'
loop_
_space_group_symop_operation_xyz
x,y,z
-x,1/2-y,z
x,-y,1/2-z
1/2-x,y,-z
1/2+x,1/2+y,1/2+z
1/2-x,-y,1/2+z
1/2+x,1/2-y,-z
-x,1/2+y,1/2-z
loop_
_atom_site_type_symbol
_atom_site_label
_atom_site_fract_x
_atom_site_fract_y
_atom_site_fract_z
Si Si1 0.750000 0.385852 0.000000
Si Si2 0.542922 0.903311 0.766834
Si Si3 0.417551 0.010928 0.092933
Si Si4 0.728353 0.045058 0.147585
Si Si5 0.192126 0.000000 0.250000
Si Si6 0.986741 0.316265 0.111551
Si Si7 0.599747 0.945267 0.950455
Si Si8 0.750000 0.861292 0.500000
O O1 0.863315 0.430278 0.952438
O O2 0.660772 0.345562 0.930572
O O3 0.697143 0.932933 0.737495
O O4 0.412515 0.946019 0.739428
O O5 0.523768 0.849243 0.703910
O O6 0.546296 0.902137 0.874289
O O7 0.566720 0.019279 0.150276
O O8 0.290152 0.992571 0.161109
O O9 0.470548 0.966396 0.017121
O O10 0.843207 0.002575 0.099135
O O11 0.710525 0.098019 0.081897
O O12 0.000000 0.250000 0.129057
O O13 0.111261 0.327068 0.035778
O O14 0.750000 0.925089 0.000000
#
# Coordination Sequence:
#
# PCOD9332834 Si02
#       8
#     4   8   8   8   4   8   8   4
#     4  12  19  36  54  78 116 140 179 224 278 326
#     4  11  21  36  52  75 110 145 185 221 269 332
#     4  11  21  31  51  83 115 146 167 217 279 337
#     4  10  17  32  52  72 110 148 175 211 265 336
#     4  12  22  30  52  86 116 146 164 218 290 334
#     4  11  23  37  55  77 107 152 188 230 271 324
#     4  10  19  32  52  80 108 143 185 217 262 338
#     4  10  17  34  52  78 104 142 189 210 268 334
#
# _framework density 16.283829000000001
#
# number of rings (size 3 to 8) (size 9 to 14) (size 15 to 20)
#    0.000    1.231    6.923    2.308    4.308    0.000 
#    0.000    0.000    0.000    0.000    4.000    0.000 
#    0.000    0.000    0.000    0.000    0.000    0.000 
#
# Total GULP energy -144904.363098 kJ/mol
# GULP energy per Si atom -5573.244735 kJ/mol
# Density = 1.624677 g / cm^3
# Si number density = 16.283829 Si / 1000 Ang^3
#
#
#
# Elastic Constant Matrix: (Units=GPa)
#
#
# Indices 1 2 3 4 5 6 
#
# 1 75.6877 21.4754 43.1316 0.0000 0.0000 0.0000
# 2 21.4754 74.5964 45.2129 0.0000 0.0000 0.0000
# 3 43.1316 45.2129 108.7997 0.0000 0.0000 0.0000
# 4 0.0000 0.0000 0.0000 18.8878 0.0000 0.0000
# 5 0.0000 0.0000 0.0000 0.0000 36.5037 0.0000
# 6 0.0000 0.0000 0.0000 0.0000 0.0000 12.1576
#
#
#
# Elastic Compliance Matrix: (Units=1/GPa)
#
#
# Indices 1 2 3 4 5 6 
#
# 1 0.017134 -0.001090 -0.006339 0.000000 0.000000 0.000000
# 2 -0.001090 0.017988 -0.007043 0.000000 0.000000 0.000000
# 3 -0.006339 -0.007043 0.014631 0.000000 0.000000 0.000000
# 4 0.000000 0.000000 0.000000 0.052944 0.000000 0.000000
# 5 0.000000 0.000000 0.000000 0.000000 0.027394 0.000000
# 6 0.000000 0.000000 0.000000 0.000000 0.000000 0.082253
#
#
# Mechanical properties :
#
#
# Convention : Reuss Voigt Hill
#
# Bulk Modulus (GPa) = 48.05849 53.19151 50.62500
# Shear Modulus (GPa) = 20.14292 23.46076 21.80184
#
# Velocity S-wave (km/s) = 3.52090 3.79983 3.66302
# Velocity P-wave (km/s) = 6.79015 7.21025 7.00335
#
# Compressibility (1/GPa) = 0.02080798
#
# Stress axis : x y z
#
# Youngs Moduli (GPa) = 58.36293 55.59243 68.34774
#
# Poissons Ratio (x) = 0.06062 0.43328
# Poissons Ratio (y) = 0.06364 0.48136
# Poissons Ratio (z) = 0.36999 0.39153
#
# Static dielectric constant tensor:
#      x y z
#    x 1.582690 0.000000 0.000000 
#    y 0.000000 1.523450 0.000000 
#    z 0.000000 0.000000 1.590490 
# 
# From -- ./inp_files/25170.got.cif
#   From: 2010.05.17/outbox.cif.g08.bks.cpg/sg24_13_cif.got.tgz:25170.got - 2010.06.04 00:33:39.
