data_PCOD9332859
_publ_section_title
;
Structure prediction by ZEFSAII (Michael W. Deem and Ramdas Pophale) SiO2 
 PCOD9332859
Probable space group: I 21 21 21
;
_chemical_formula_sum "Si O2"
_cell_formula_units_Z 64
_cell_length_a 16.871713
_cell_length_b 13.175868
_cell_length_c 15.853948
_cell_angle_alpha 90.000000
_cell_angle_beta 90.000000
_cell_angle_gamma 90.000000
_cell_volume 3524.324134
_symmetry_space_group_name_H-M "I 21 21 21"
_symmetry_group_IT_number 24
_symmetry_cell_setting 'orthorhombic'
loop_
_space_group_symop_operation_xyz
x,y,z
-x,1/2-y,z
x,-y,1/2-z
1/2-x,y,-z
1/2+x,1/2+y,1/2+z
1/2-x,-y,1/2+z
1/2+x,1/2-y,-z
-x,1/2+y,1/2-z
loop_
_atom_site_type_symbol
_atom_site_label
_atom_site_fract_x
_atom_site_fract_y
_atom_site_fract_z
Si Si1 0.746169 0.966611 0.625701
Si Si2 0.774509 0.800516 0.097707
Si Si3 0.620788 0.101990 0.007142
Si Si4 0.749318 0.770335 0.275306
Si Si5 0.059033 0.044127 0.031767
Si Si6 0.826989 0.681207 0.561060
Si Si7 0.068538 0.168795 0.387253
Si Si8 0.923866 0.321496 0.197494
O O1 0.678240 0.907743 0.573156
O O2 0.829787 0.963272 0.575678
O O3 0.759472 0.890271 0.703043
O O4 0.715619 0.081524 0.624189
O O5 0.724848 0.756288 0.177524
O O6 0.852707 0.733677 0.102267
O O7 0.750000 0.799025 0.000000
O O8 0.623754 0.218731 0.034832
O O9 0.532273 0.067376 0.989980
O O10 0.701465 0.703951 0.343822
O O11 0.841458 0.739274 0.289995
O O12 0.081612 0.103896 0.118161
O O13 0.067214 0.925920 0.051021
O O14 0.117753 0.085847 0.959704
O O15 0.750000 0.676653 0.500000
O O16 0.061512 0.130438 0.290073
O O17 0.000000 0.250000 0.401974
O O18 0.000000 0.250000 0.181413
#
# Coordination Sequence:
#
# PCOD9332859 Si02
#       8
#     8   8   8   8   8   8   8   8
#     4  10  17  34  58  88 120 149 195 241 301 353
#     4  11  22  38  59  82 114 162 205 236 294 357
#     4  10  18  31  57  89 121 150 184 248 293 358
#     4  10  20  35  56  89 122 147 194 253 294 352
#     4  12  21  33  59  84 121 161 195 239 309 354
#     4  11  19  35  56  88 120 148 193 246 301 349
#     4  10  24  38  53  81 122 158 202 240 283 363
#     4  10  19  34  55  86 121 155 187 237 303 366
#
# _framework density 18.159510000000001
#
# number of rings (size 3 to 8) (size 9 to 14) (size 15 to 20)
#    0.000    1.500    5.000    3.375    0.000    0.500 
#    0.000    5.000    0.000    3.000    0.000    0.000 
#    0.000    0.000    0.000    0.000    0.000    0.000 
#
# Total GULP energy -178290.065907 kJ/mol
# GULP energy per Si atom -5571.564560 kJ/mol
# Density = 1.811818 g / cm^3
# Si number density = 18.159510 Si / 1000 Ang^3
#
#
#
# Elastic Constant Matrix: (Units=GPa)
#
#
# Indices 1 2 3 4 5 6 
#
# 1 70.6343 45.1777 39.3209 0.0000 0.0000 0.0000
# 2 45.1777 72.9361 38.7412 0.0000 0.0000 0.0000
# 3 39.3209 38.7412 133.4674 0.0000 0.0000 0.0000
# 4 0.0000 0.0000 0.0000 13.6347 0.0000 0.0000
# 5 0.0000 0.0000 0.0000 0.0000 -13.1059 0.0000
# 6 0.0000 0.0000 0.0000 0.0000 0.0000 17.9729
#
#
#
# Elastic Compliance Matrix: (Units=1/GPa)
#
#
# Indices 1 2 3 4 5 6 
#
# 1 0.024649 -0.013490 -0.003346 0.000000 0.000000 0.000000
# 2 -0.013490 0.023593 -0.002874 0.000000 0.000000 0.000000
# 3 -0.003346 -0.002874 0.009312 0.000000 0.000000 0.000000
# 4 0.000000 0.000000 0.000000 0.073342 0.000000 0.000000
# 5 0.000000 0.000000 0.000000 0.000000 -0.076302 0.000000
# 6 0.000000 0.000000 0.000000 0.000000 0.000000 0.055639
#
#
# Mechanical properties :
#
#
# Convention : Reuss Voigt Hill
#
# Bulk Modulus (GPa) = 55.14581 58.16859 56.65720
# Shear Modulus (GPa) = 32.11316 13.95354 23.03335
#
# Velocity S-wave (km/s) = 4.20979 2.77499 3.56531
# Velocity P-wave (km/s) = 7.35276 6.50915 6.94378
#
# Compressibility (1/GPa) = 0.01813374
#
# Stress axis : x y z
#
# Youngs Moduli (GPa) = 40.57036 42.38477 107.38356
#
# Poissons Ratio (x) = 0.57179 0.35929
# Poissons Ratio (y) = 0.54731 0.30861
# Poissons Ratio (z) = 0.13574 0.12181
#
# Static dielectric constant tensor:
#      x y z
#    x 1.583810 0.000000 0.000000 
#    y 0.000000 1.625900 0.000000 
#    z 0.000000 0.000000 1.695220 
# 
# From -- ./inp_files/27206.got.cif
#   From: 2010.05.17/outbox.cif.g08.bks.cpg/sg24_14_cif.got.tgz:27206.got - 2010.06.04 00:33:39.
