data_PCOD9332901
_publ_section_title
;
Structure prediction by ZEFSAII (Michael W. Deem and Ramdas Pophale) SiO2 
 PCOD9332901
Probable space group: I 21 21 21
;
_chemical_formula_sum "Si O2"
_cell_formula_units_Z 48
_cell_length_a 30.857686
_cell_length_b 9.419805
_cell_length_c 8.422999
_cell_angle_alpha 90.000000
_cell_angle_beta 90.000000
_cell_angle_gamma 90.000000
_cell_volume 2448.341630
_symmetry_space_group_name_H-M "I 21 21 21"
_symmetry_group_IT_number 24
_symmetry_cell_setting 'orthorhombic'
loop_
_space_group_symop_operation_xyz
x,y,z
-x,1/2-y,z
x,-y,1/2-z
1/2-x,y,-z
1/2+x,1/2+y,1/2+z
1/2-x,-y,1/2+z
1/2+x,1/2-y,-z
-x,1/2+y,1/2-z
loop_
_atom_site_type_symbol
_atom_site_label
_atom_site_fract_x
_atom_site_fract_y
_atom_site_fract_z
Si Si1 0.654665 0.593610 0.980000
Si Si2 0.250000 0.212104 0.000000
Si Si3 0.070643 0.658334 0.310045
Si Si4 0.556612 0.591907 0.911499
Si Si5 0.487585 0.402371 0.110770
Si Si6 0.210767 0.000000 0.750000
Si Si7 0.666476 0.276461 0.842028
O O1 0.603124 0.609169 0.995704
O O2 0.662033 0.433909 0.915824
O O3 0.672764 0.699760 0.846353
O O4 0.680421 0.598593 0.141973
O O5 0.293097 0.291281 0.936570
O O6 0.238548 0.105198 0.856778
O O7 0.073131 0.500000 0.250000
O O8 0.049149 0.754454 0.170791
O O9 0.042571 0.651762 0.468452
O O10 0.118970 0.709155 0.352874
O O11 0.562607 0.500000 0.750000
O O12 0.524088 0.503519 0.024762
O O13 0.500000 0.250000 0.187499
O O14 0.468248 0.500000 0.250000
#
# Coordination Sequence:
#
# PCOD9332901 Si02
#       7
#     8   4   8   8   8   4   8
#     4   9  16  31  54  84 123 152 200 256 319 382
#     4  10  18  30  54  82 124 158 206 256 330 390
#     4  11  24  42  67  88 124 174 225 267 318 397
#     4  11  20  42  67  88 122 175 218 259 318 390
#     4  12  27  42  64  98 135 166 216 278 329 390
#     4  10  18  26  52  92 126 158 196 268 326 390
#     4   9  17  35  56  83 112 157 206 259 315 380
#
# _framework density 19.605108000000001
#
# number of rings (size 3 to 8) (size 9 to 14) (size 15 to 20)
#    0.000    1.667    5.000    2.500    3.500    0.000 
#    0.000    0.000    0.000    5.000    0.000    0.000 
#    0.000    0.000    0.000    0.000    0.000    0.000 
#
# Total GULP energy -133733.181768 kJ/mol
# GULP energy per Si atom -5572.215907 kJ/mol
# Density = 1.956049 g / cm^3
# Si number density = 19.605108 Si / 1000 Ang^3
#
#
#
# Elastic Constant Matrix: (Units=GPa)
#
#
# Indices 1 2 3 4 5 6 
#
# 1 65.0976 30.1721 19.6879 0.0000 0.0000 0.0000
# 2 30.1721 80.2614 20.0967 0.0000 0.0000 0.0000
# 3 19.6879 20.0967 67.2869 0.0000 0.0000 0.0000
# 4 0.0000 0.0000 0.0000 29.3961 0.0000 0.0000
# 5 0.0000 0.0000 0.0000 0.0000 32.3354 0.0000
# 6 0.0000 0.0000 0.0000 0.0000 0.0000 5.8538
#
#
#
# Elastic Compliance Matrix: (Units=1/GPa)
#
#
# Indices 1 2 3 4 5 6 
#
# 1 0.019459 -0.006365 -0.003792 0.000000 0.000000 0.000000
# 2 -0.006365 0.015549 -0.002781 0.000000 0.000000 0.000000
# 3 -0.003792 -0.002781 0.016802 0.000000 0.000000 0.000000
# 4 0.000000 0.000000 0.000000 0.034018 0.000000 0.000000
# 5 0.000000 0.000000 0.000000 0.000000 0.030926 0.000000
# 6 0.000000 0.000000 0.000000 0.000000 0.000000 0.170829
#
#
# Mechanical properties :
#
#
# Convention : Reuss Voigt Hill
#
# Bulk Modulus (GPa) = 38.56382 39.17324 38.86853
# Shear Modulus (GPa) = 15.52291 23.02967 19.27629
#
# Velocity S-wave (km/s) = 2.81691 3.43107 3.13905
# Velocity P-wave (km/s) = 5.50390 5.97669 5.74517
#
# Compressibility (1/GPa) = 0.02593104
#
# Stress axis : x y z
#
# Youngs Moduli (GPa) = 51.39059 64.31427 59.51631
#
# Poissons Ratio (x) = 0.40939 0.22571
# Poissons Ratio (y) = 0.32712 0.16554
# Poissons Ratio (z) = 0.19489 0.17889
#
# Static dielectric constant tensor:
#      x y z
#    x 1.775860 0.000000 0.000000 
#    y 0.000000 1.732750 0.000000 
#    z 0.000000 0.000000 2.171540 
# 
# From -- ./inp_files/16876.got.cif
#   From: 2010.05.17/outbox.cif.g08.bks.cpg/sg24_9_cif.got.tgz:16876.got - 2010.06.04 00:33:39.
