data_PCOD9332029
_publ_section_title
;
Structure prediction by ZEFSAII (Michael W. Deem and Ramdas Pophale) SiO2 
 PCOD9332029
Probable space group: I 2 2 2
;
_chemical_formula_sum "Si O2"
_cell_formula_units_Z 28
_cell_length_a 12.739129
_cell_length_b 17.517202
_cell_length_c 5.254623
_cell_angle_alpha 90.000000
_cell_angle_beta 90.000000
_cell_angle_gamma 90.000000
_cell_volume 1172.589594
_symmetry_space_group_name_H-M "I 2 2 2"
_symmetry_group_IT_number 23
_symmetry_cell_setting 'orthorhombic'
loop_
_space_group_symop_operation_xyz
x,y,z
-x,-y,z
x,-y,-z
-x,y,-z
1/2+x,1/2+y,1/2+z
1/2-x,1/2-y,1/2+z
1/2+x,1/2-y,1/2-z
1/2-x,1/2+y,1/2-z
loop_
_atom_site_type_symbol
_atom_site_label
_atom_site_fract_x
_atom_site_fract_y
_atom_site_fract_z
Si Si1 0.396985 0.614111 0.839218
Si Si2 0.320664 0.927951 0.179085
Si Si3 0.312427 0.232744 0.066750
Si Si4 0.000000 0.500000 0.000000
Si Si5 0.000000 0.000000 0.000000
O O1 0.274776 0.591034 0.878124
O O2 0.396559 0.705636 0.831105
O O3 0.417647 0.564068 0.593497
O O4 0.500000 0.589627 0.000000
O O5 0.424766 0.947604 0.331955
O O6 0.338447 0.853553 0.003669
O O7 0.298827 0.000000 0.000000
O O8 0.227347 0.234069 0.294349
#
# Coordination Sequence:
#
# PCOD9332029 Si02
#       5
#     8   8   8   2   2
#     4  11  27  46  79 118 164 204 267 335 411 483
#     4  11  27  52  79 114 161 213 277 334 409 485
#     4  10  26  51  81 116 164 213 263 334 403 483
#     4  12  30  48  84 110 156 218 282 338 392 492
#     4  12  26  44  82 124 156 214 258 340 418 488
#
# _framework density 23.878772999999999
#
# number of rings (size 3 to 8) (size 9 to 14) (size 15 to 20)
#    0.000    1.143    1.429    0.857   20.000    2.286 
#   10.286    1.429    0.000    0.000    0.000    0.000 
#    0.000    0.000    0.000    0.000    0.000    0.000 
#
# Total GULP energy -77957.712396 kJ/mol
# GULP energy per Si atom -5568.408028 kJ/mol
# Density = 2.382442 g / cm^3
# Si number density = 23.878773 Si / 1000 Ang^3
#
#
#
# Elastic Constant Matrix: (Units=GPa)
#
#
# Indices 1 2 3 4 5 6 
#
# 1 139.8401 57.1409 26.4092 0.0000 0.0000 0.0000
# 2 57.1409 248.4849 58.8476 0.0000 0.0000 0.0000
# 3 26.4092 58.8476 64.2642 0.0000 0.0000 0.0000
# 4 0.0000 0.0000 0.0000 57.0133 0.0000 0.0000
# 5 0.0000 0.0000 0.0000 0.0000 16.3790 0.0000
# 6 0.0000 0.0000 0.0000 0.0000 0.0000 33.9363
#
#
#
# Elastic Compliance Matrix: (Units=1/GPa)
#
#
# Indices 1 2 3 4 5 6 
#
# 1 0.008103 -0.001372 -0.002073 0.000000 0.000000 0.000000
# 2 -0.001372 0.005371 -0.004355 0.000000 0.000000 0.000000
# 3 -0.002073 -0.004355 0.020400 0.000000 0.000000 0.000000
# 4 0.000000 0.000000 0.000000 0.017540 0.000000 0.000000
# 5 0.000000 0.000000 0.000000 0.000000 0.061054 0.000000
# 6 0.000000 0.000000 0.000000 0.000000 0.000000 0.029467
#
#
# Mechanical properties :
#
#
# Convention : Reuss Voigt Hill
#
# Bulk Modulus (GPa) = 54.72144 81.93164 68.32654
# Shear Modulus (GPa) = 30.55718 42.14514 36.35116
#
# Velocity S-wave (km/s) = 3.58114 4.20570 3.90593
# Velocity P-wave (km/s) = 6.32973 7.61380 7.00127
#
# Compressibility (1/GPa) = 0.01827437
#
# Stress axis : x y z
#
# Youngs Moduli (GPa) = 123.40553 186.17631 49.01885
#
# Poissons Ratio (x) = 0.25551 0.10163
# Poissons Ratio (y) = 0.16936 0.21345
# Poissons Ratio (z) = 0.25586 0.81071
#
# Static dielectric constant tensor:
#      x y z
#    x 2.001190 0.000000 0.000000 
#    y 0.000000 1.889830 0.000000 
#    z 0.000000 0.000000 2.052730 
# 
# From -- ./inp_files/1276.got.cif
#   From: 2010.05.17/outbox.cif.g08.bks.cpg/sg23_1_cif.got.tgz:1276.got - 2010.06.04 12:02:01.
