data_PCOD9332921
_publ_section_title
;
Structure prediction by ZEFSAII (Michael W. Deem and Ramdas Pophale) SiO2 
 PCOD9332921
Probable space group: I 21 21 21
;
_chemical_formula_sum "Si O2"
_cell_formula_units_Z 48
_cell_length_a 12.340951
_cell_length_b 7.118383
_cell_length_c 21.282188
_cell_angle_alpha 90.000000
_cell_angle_beta 90.000000
_cell_angle_gamma 90.000000
_cell_volume 1869.589475
_symmetry_space_group_name_H-M "I 21 21 21"
_symmetry_group_IT_number 24
_symmetry_cell_setting 'orthorhombic'
loop_
_space_group_symop_operation_xyz
x,y,z
-x,1/2-y,z
x,-y,1/2-z
1/2-x,y,-z
1/2+x,1/2+y,1/2+z
1/2-x,-y,1/2+z
1/2+x,1/2-y,-z
-x,1/2+y,1/2-z
loop_
_atom_site_type_symbol
_atom_site_label
_atom_site_fract_x
_atom_site_fract_y
_atom_site_fract_z
Si Si1 0.693460 0.453262 0.917387
Si Si2 0.129294 0.045633 0.819124
Si Si3 0.910847 0.971232 0.635332
Si Si4 0.678331 0.000341 0.599356
Si Si5 0.511608 0.470034 0.820484
Si Si6 0.495706 0.034136 0.995846
O O1 0.799259 0.514838 0.879268
O O2 0.699376 0.223292 0.915836
O O3 0.599978 0.527753 0.870318
O O4 0.631943 0.511189 0.982358
O O5 0.117895 0.270723 0.831872
O O6 0.009495 0.956182 0.822443
O O7 0.175945 0.000000 0.750000
O O8 0.798010 0.068753 0.616800
O O9 0.970319 0.959904 0.567708
O O10 0.606210 0.041674 0.660828
O O11 0.595252 0.061440 0.543240
O O12 0.500000 0.250000 0.829347
O O13 0.544101 0.500000 0.750000
O O14 0.500000 0.250000 0.973389
#
# Coordination Sequence:
#
# PCOD9332921 Si02
#       6
#     8   8   8   8   8   8
#     4   8  16  27  43  63  89 123 153 203 250 296
#     4  10  19  29  40  61  95 131 163 185 233 303
#     4  10  18  29  42  64  91 130 158 196 241 294
#     4   8  16  26  42  65  92 121 152 200 251 300
#     4   9  16  28  44  65  93 130 169 203 250 302
#     4   9  14  26  44  67  90 113 153 200 261 297
#
# _framework density 25.674085999999999
#
# number of rings (size 3 to 8) (size 9 to 14) (size 15 to 20)
#    0.000    3.000    1.667    3.000    0.000    1.333 
#    0.000    0.000    0.000    0.000    0.000    0.000 
#   20.000    0.000    8.000    2.667    0.667    0.000 
#
# Total GULP energy -133604.720437 kJ/mol
# GULP energy per Si atom -5566.863352 kJ/mol
# Density = 2.561565 g / cm^3
# Si number density = 25.674086 Si / 1000 Ang^3
#
#
#
# Elastic Constant Matrix: (Units=GPa)
#
#
# Indices 1 2 3 4 5 6 
#
# 1 166.4016 -3.5105 3.6470 0.0000 0.0000 0.0000
# 2 -3.5105 97.8437 -12.5605 0.0000 0.0000 0.0000
# 3 3.6470 -12.5605 131.5672 0.0000 0.0000 0.0000
# 4 0.0000 0.0000 0.0000 0.1281 0.0000 0.0000
# 5 0.0000 0.0000 0.0000 0.0000 19.7303 0.0000
# 6 0.0000 0.0000 0.0000 0.0000 0.0000 -24.2662
#
#
#
# Elastic Compliance Matrix: (Units=1/GPa)
#
#
# Indices 1 2 3 4 5 6 
#
# 1 0.006017 0.000197 -0.000148 0.000000 0.000000 0.000000
# 2 0.000197 0.010354 0.000983 0.000000 0.000000 0.000000
# 3 -0.000148 0.000983 0.007699 0.000000 0.000000 0.000000
# 4 0.000000 0.000000 0.000000 7.807414 0.000000 0.000000
# 5 0.000000 0.000000 0.000000 0.000000 0.050683 0.000000
# 6 0.000000 0.000000 0.000000 0.000000 0.000000 -0.041210
#
#
# Mechanical properties :
#
#
# Convention : Reuss Voigt Hill
#
# Bulk Modulus (GPa) = 38.26586 41.21830 39.74208
# Shear Modulus (GPa) = 0.63714 26.33421 13.48567
#
# Velocity S-wave (km/s) = 0.49870 3.20615 2.29435
# Velocity P-wave (km/s) = 3.90748 5.45849 4.74677
#
# Compressibility (1/GPa) = 0.02613296
#
# Stress axis : x y z
#
# Youngs Moduli (GPa) = 166.19701 96.58444 129.89336
#
# Poissons Ratio (x) = -0.01902 0.01922
# Poissons Ratio (y) = -0.03272 -0.12768
# Poissons Ratio (z) = 0.02460 -0.09494
#
# Static dielectric constant tensor:
#      x y z
#    x 2.081020 0.000000 0.000000 
#    y 0.000000 2.091170 0.000000 
#    z 0.000000 0.000000 1.966340 
# 
# From -- ./inp_files/33329.got.cif
#   From: 2010.05.17/outbox.cif.g08.bks.cpg/sg24_17_cif.got.tgz:33329.got - 2010.06.04 00:33:39.
