data_PCOD9332870
_publ_section_title
;
Structure prediction by ZEFSAII (Michael W. Deem and Ramdas Pophale) SiO2 
 PCOD9332870
Probable space group: I 21 21 21
;
_chemical_formula_sum "Si O2"
_cell_formula_units_Z 60
_cell_length_a 16.575550
_cell_length_b 16.389091
_cell_length_c 13.294732
_cell_angle_alpha 90.000000
_cell_angle_beta 90.000000
_cell_angle_gamma 90.000000
_cell_volume 3611.622929
_symmetry_space_group_name_H-M "I 21 21 21"
_symmetry_group_IT_number 24
_symmetry_cell_setting 'orthorhombic'
loop_
_space_group_symop_operation_xyz
x,y,z
-x,1/2-y,z
x,-y,1/2-z
1/2-x,y,-z
1/2+x,1/2+y,1/2+z
1/2-x,-y,1/2+z
1/2+x,1/2-y,-z
-x,1/2+y,1/2-z
loop_
_atom_site_type_symbol
_atom_site_label
_atom_site_fract_x
_atom_site_fract_y
_atom_site_fract_z
Si Si1 0.112652 0.420468 0.687200
Si Si2 0.381107 0.706693 0.690695
Si Si3 0.660605 0.677484 0.509354
Si Si4 0.055390 0.588463 0.034535
Si Si5 0.799135 0.076889 0.316392
Si Si6 0.489324 0.596658 0.544930
Si Si7 0.000000 0.750000 0.142539
Si Si8 0.081854 0.301425 0.864999
O O1 0.085320 0.500000 0.750000
O O2 0.063791 0.407136 0.585368
O O3 0.206014 0.434422 0.657556
O O4 0.107687 0.344676 0.763118
O O5 0.345285 0.765159 0.607106
O O6 0.312959 0.651751 0.741064
O O7 0.449210 0.649182 0.636089
O O8 0.424253 0.753328 0.781846
O O9 0.750000 0.640674 0.500000
O O10 0.582218 0.620101 0.522691
O O11 0.643718 0.738045 0.415456
O O12 0.142957 0.588327 0.088662
O O13 0.019099 0.499654 0.060630
O O14 0.009497 0.667358 0.078331
O O15 0.826511 0.000000 0.250000
O O16 0.438448 0.628814 0.448272
O O17 0.000000 0.250000 0.850509
#
# Coordination Sequence:
#
# PCOD9332870 Si02
#       8
#     8   8   8   8   8   8   4   8
#     4  11  21  34  51  79 110 145 178 218 271 332
#     4  10  17  35  53  81 111 139 176 220 270 331
#     4  10  19  32  56  84 109 135 173 230 274 313
#     4  11  22  36  52  80 109 147 183 226 263 326
#     4  10  20  31  52  79 111 141 173 218 278 324
#     4  10  18  34  55  80 110 138 180 221 263 325
#     4  10  22  34  56  80 102 144 188 216 270 322
#     4   9  19  34  53  79 106 143 179 217 268 323
#
# _framework density 16.613029999999998
#
# number of rings (size 3 to 8) (size 9 to 14) (size 15 to 20)
#    0.000    1.867    4.000    2.000    0.933    0.000 
#    0.000    0.000    0.000    3.200    6.933    0.000 
#    0.000    0.000    0.000    0.000    0.000    0.000 
#
# Total GULP energy -167209.174809 kJ/mol
# GULP energy per Si atom -5573.639160 kJ/mol
# Density = 1.657522 g / cm^3
# Si number density = 16.613030 Si / 1000 Ang^3
#
#
#
# Elastic Constant Matrix: (Units=GPa)
#
#
# Indices 1 2 3 4 5 6 
#
# 1 55.4321 16.9167 19.9933 0.0000 0.0000 0.0000
# 2 16.9167 78.5081 40.5826 0.0000 0.0000 0.0000
# 3 19.9933 40.5826 100.7540 0.0000 0.0000 0.0000
# 4 0.0000 0.0000 0.0000 22.6370 0.0000 0.0000
# 5 0.0000 0.0000 0.0000 0.0000 15.6925 0.0000
# 6 0.0000 0.0000 0.0000 0.0000 0.0000 15.8726
#
#
#
# Elastic Compliance Matrix: (Units=1/GPa)
#
#
# Indices 1 2 3 4 5 6 
#
# 1 0.019920 -0.002840 -0.002809 0.000000 0.000000 0.000000
# 2 -0.002840 0.016492 -0.006079 0.000000 0.000000 0.000000
# 3 -0.002809 -0.006079 0.012931 0.000000 0.000000 0.000000
# 4 0.000000 0.000000 0.000000 0.044176 0.000000 0.000000
# 5 0.000000 0.000000 0.000000 0.000000 0.063725 0.000000
# 6 0.000000 0.000000 0.000000 0.000000 0.000000 0.063002
#
#
# Mechanical properties :
#
#
# Convention : Reuss Voigt Hill
#
# Bulk Modulus (GPa) = 38.63019 43.29772 40.96396
# Shear Modulus (GPa) = 19.81525 21.32051 20.56788
#
# Velocity S-wave (km/s) = 3.45737 3.58629 3.52242
# Velocity P-wave (km/s) = 6.26429 6.57782 6.42297
#
# Compressibility (1/GPa) = 0.02588649
#
# Stress axis : x y z
#
# Youngs Moduli (GPa) = 50.20086 60.63540 77.33263
#
# Poissons Ratio (x) = 0.17223 0.21721
# Poissons Ratio (y) = 0.14259 0.47012
# Poissons Ratio (z) = 0.14100 0.36861
#
# Static dielectric constant tensor:
#      x y z
#    x 1.559500 0.000000 0.000000 
#    y 0.000000 1.565900 0.000000 
#    z 0.000000 0.000000 1.563200 
# 
# From -- ./inp_files/21019.got.cif
#   From: 2010.05.17/outbox.cif.g08.bks.cpg/sg24_11_cif.got.tgz:21019.got - 2010.06.04 00:33:39.
