data_PCOD9332392
_publ_section_title
;
Structure prediction by ZEFSAII (Michael W. Deem and Ramdas Pophale) SiO2 
 PCOD9332392
Probable space group: I 2 2 2
;
_chemical_formula_sum "Si O2"
_cell_formula_units_Z 64
_cell_length_a 12.509749
_cell_length_b 14.094748
_cell_length_c 17.855389
_cell_angle_alpha 90.000000
_cell_angle_beta 90.000000
_cell_angle_gamma 90.000000
_cell_volume 3148.293609
_symmetry_space_group_name_H-M "I 2 2 2"
_symmetry_group_IT_number 23
_symmetry_cell_setting 'orthorhombic'
loop_
_space_group_symop_operation_xyz
x,y,z
-x,-y,z
x,-y,-z
-x,y,-z
1/2+x,1/2+y,1/2+z
1/2-x,1/2-y,1/2+z
1/2+x,1/2-y,1/2-z
1/2-x,1/2+y,1/2-z
loop_
_atom_site_type_symbol
_atom_site_label
_atom_site_fract_x
_atom_site_fract_y
_atom_site_fract_z
Si Si1 0.711789 0.817514 0.174278
Si Si2 0.382318 0.748363 0.675761
Si Si3 0.977656 0.603346 0.087179
Si Si4 0.177653 0.757620 0.581955
Si Si5 0.767726 0.147062 0.421169
Si Si6 0.439439 0.588233 0.302418
Si Si7 0.510305 0.893948 0.089348
Si Si8 0.884628 0.034172 0.635014
O O1 0.670056 0.812539 0.258928
O O2 0.701179 0.708160 0.150428
O O3 0.831173 0.861243 0.166192
O O4 0.625861 0.865287 0.119864
O O5 0.450070 0.819250 0.625424
O O6 0.283732 0.716528 0.622394
O O7 0.466629 0.668282 0.704633
O O8 0.857403 0.636688 0.087136
O O9 0.000000 0.500000 0.121694
O O10 0.000000 0.596590 0.000000
O O11 0.198662 0.790975 0.494856
O O12 0.145884 0.859391 0.615067
O O13 0.081578 0.685121 0.602915
O O14 0.810356 0.041033 0.407704
O O15 0.500000 0.500000 0.343420
O O16 0.395442 0.539550 0.225379
O O17 0.500000 0.000000 0.121157
O O18 0.500000 0.900820 0.000000
O O19 0.000000 0.000000 0.607715
#
# Coordination Sequence:
#
# PCOD9332392 Si02
#       8
#     8   8   8   8   8   8   8   8
#     4  12  25  45  70 101 140 185 236 296 365 420
#     4  12  25  45  70 102 145 185 238 297 359 431
#     4  11  24  42  67 104 143 184 231 288 361 438
#     4  12  24  43  72 110 139 188 234 292 366 430
#     4  12  24  43  73 101 142 184 233 295 363 437
#     4  11  25  46  68  99 142 189 240 292 351 430
#     4  11  26  47  71 100 139 187 241 298 352 428
#     4  11  24  43  68 102 142 181 229 290 362 438
#
# _framework density 20.328472999999999
#
# number of rings (size 3 to 8) (size 9 to 14) (size 15 to 20)
#    0.000    0.500    5.000    4.125    3.500    1.000 
#    0.000    0.000    0.000    2.625    0.000    0.000 
#    0.000    0.000    0.000    0.000    0.000    0.000 
#
# Total GULP energy -178194.122463 kJ/mol
# GULP energy per Si atom -5568.566327 kJ/mol
# Density = 2.028220 g / cm^3
# Si number density = 20.328473 Si / 1000 Ang^3
#
#
#
# Elastic Constant Matrix: (Units=GPa)
#
#
# Indices 1 2 3 4 5 6 
#
# 1 127.6050 50.1165 24.5970 0.0000 0.0000 0.0000
# 2 50.1165 112.7903 11.8690 0.0000 0.0000 0.0000
# 3 24.5970 11.8690 60.2741 0.0000 0.0000 0.0000
# 4 0.0000 0.0000 0.0000 -4.2889 0.0000 0.0000
# 5 0.0000 0.0000 0.0000 0.0000 -310.7316 0.0000
# 6 0.0000 0.0000 0.0000 0.0000 0.0000 20.3246
#
#
#
# Elastic Compliance Matrix: (Units=1/GPa)
#
#
# Indices 1 2 3 4 5 6 
#
# 1 0.010100 -0.004140 -0.003306 0.000000 0.000000 0.000000
# 2 -0.004140 0.010750 -0.000428 0.000000 0.000000 0.000000
# 3 -0.003306 -0.000428 0.018024 0.000000 0.000000 0.000000
# 4 0.000000 0.000000 0.000000 -0.233159 0.000000 0.000000
# 5 0.000000 0.000000 0.000000 0.000000 -0.003218 0.000000
# 6 0.000000 0.000000 0.000000 0.000000 0.000000 0.049202
#
#
# Mechanical properties :
#
#
# Convention : Reuss Voigt Hill
#
# Bulk Modulus (GPa) = 43.23915 52.64825 47.94370
# Shear Modulus (GPa) = -40.04986 -44.66673 -42.35830
#
# Velocity S-wave (km/s) = -4.44344 -4.69257 -4.56970
# Velocity P-wave (km/s) = 2.23810 1.84534 2.05114
#
# Compressibility (1/GPa) = 0.02312719
#
# Stress axis : x y z
#
# Youngs Moduli (GPa) = 99.01064 93.01933 55.48042
#
# Poissons Ratio (x) = 0.38508 0.18344
# Poissons Ratio (y) = 0.40988 0.02372
# Poissons Ratio (z) = 0.32737 0.03977
#
# Static dielectric constant tensor:
#      x y z
#    x 1.645180 0.000000 0.000000 
#    y 0.000000 4.220940 0.000000 
#    z 0.000000 0.000000 1.749910 
# 
# From -- ./inp_files/24448.got.cif
#   From: 2010.05.17/outbox.cif.g08.bks.cpg/sg23_13_cif.got.tgz:24448.got - 2010.06.04 12:02:01.
