data_PCOD9332169
_publ_section_title
;
Structure prediction by ZEFSAII (Michael W. Deem and Ramdas Pophale) SiO2 
 PCOD9332169
Probable space group: I 2 2 2
;
_chemical_formula_sum "Si O2"
_cell_formula_units_Z 48
_cell_length_a 8.478134
_cell_length_b 20.723758
_cell_length_c 12.658016
_cell_angle_alpha 90.000000
_cell_angle_beta 90.000000
_cell_angle_gamma 90.000000
_cell_volume 2223.998188
_symmetry_space_group_name_H-M "I 2 2 2"
_symmetry_group_IT_number 23
_symmetry_cell_setting 'orthorhombic'
loop_
_space_group_symop_operation_xyz
x,y,z
-x,-y,z
x,-y,-z
-x,y,-z
1/2+x,1/2+y,1/2+z
1/2-x,1/2-y,1/2+z
1/2+x,1/2-y,1/2-z
1/2-x,1/2+y,1/2-z
loop_
_atom_site_type_symbol
_atom_site_label
_atom_site_fract_x
_atom_site_fract_y
_atom_site_fract_z
Si Si1 0.330730 0.601525 0.459959
Si Si2 0.097124 0.753909 0.901928
Si Si3 0.365611 0.315221 0.231666
Si Si4 0.138966 0.414756 0.341285
Si Si5 0.554896 0.570958 0.879622
Si Si6 0.188824 0.557111 0.259524
O O1 0.500000 0.579565 0.500000
O O2 0.337855 0.678829 0.450603
O O3 0.189724 0.577253 0.536173
O O4 0.321891 0.575796 0.342341
O O5 0.248171 0.718696 0.851586
O O6 0.974315 0.770415 0.806616
O O7 0.000000 0.722403 0.000000
O O8 0.250956 0.357496 0.305273
O O9 0.475387 0.367318 0.173781
O O10 0.166743 0.481176 0.277855
O O11 0.959341 0.403085 0.305769
O O12 0.500000 0.500000 0.839032
O O13 0.742367 0.572933 0.854930
O O14 0.500000 0.572707 0.000000
#
# Coordination Sequence:
#
# PCOD9332169 Si02
#       6
#     8   8   8   8   8   8
#     4  11  21  42  68 101 140 178 223 283 351 423
#     4  11  26  46  68 103 137 181 241 283 348 423
#     4  12  25  45  72  96 134 189 230 287 349 415
#     4  11  23  41  69 105 142 177 224 283 363 411
#     4  11  24  45  72 100 134 184 243 290 353 416
#     4  11  23  40  69 107 140 174 222 291 349 433
#
# _framework density 21.582751999999999
#
# number of rings (size 3 to 8) (size 9 to 14) (size 15 to 20)
#    0.000    0.833    6.667    1.000    2.333    4.667 
#    0.000    0.000    0.000    0.000    0.000    0.000 
#    0.000    0.000    0.000    0.000    0.000    0.000 
#
# Total GULP energy -133895.413935 kJ/mol
# GULP energy per Si atom -5578.975581 kJ/mol
# Density = 2.153363 g / cm^3
# Si number density = 21.582752 Si / 1000 Ang^3
#
#
#
# Elastic Constant Matrix: (Units=GPa)
#
#
# Indices 1 2 3 4 5 6 
#
# 1 112.6491 30.4688 47.0175 0.0000 0.0000 0.0000
# 2 30.4688 54.8690 20.0043 0.0000 0.0000 0.0000
# 3 47.0175 20.0043 102.8289 0.0000 0.0000 0.0000
# 4 0.0000 0.0000 0.0000 27.0410 0.0000 0.0000
# 5 0.0000 0.0000 0.0000 0.0000 35.6962 0.0000
# 6 0.0000 0.0000 0.0000 0.0000 0.0000 35.9110
#
#
#
# Elastic Compliance Matrix: (Units=1/GPa)
#
#
# Indices 1 2 3 4 5 6 
#
# 1 0.012161 -0.005086 -0.004571 0.000000 0.000000 0.000000
# 2 -0.005086 0.021744 -0.001904 0.000000 0.000000 0.000000
# 3 -0.004571 -0.001904 0.012185 0.000000 0.000000 0.000000
# 4 0.000000 0.000000 0.000000 0.036981 0.000000 0.000000
# 5 0.000000 0.000000 0.000000 0.000000 0.028014 0.000000
# 6 0.000000 0.000000 0.000000 0.000000 0.000000 0.027847
#
#
# Mechanical properties :
#
#
# Convention : Reuss Voigt Hill
#
# Bulk Modulus (GPa) = 43.54109 51.70314 47.62211
# Shear Modulus (GPa) = 29.46194 31.25339 30.35767
#
# Velocity S-wave (km/s) = 3.69869 3.80948 3.75450
# Velocity P-wave (km/s) = 6.20147 6.58463 6.39592
#
# Compressibility (1/GPa) = 0.02296681
#
# Stress axis : x y z
#
# Youngs Moduli (GPa) = 82.23252 45.98970 82.06587
#
# Poissons Ratio (x) = 0.23392 0.37511
# Poissons Ratio (y) = 0.41827 0.15628
# Poissons Ratio (z) = 0.37587 0.08758
#
# Static dielectric constant tensor:
#      x y z
#    x 1.916540 0.000000 0.000000 
#    y 0.000000 1.790980 0.000000 
#    z 0.000000 0.000000 1.809310 
# 
# From -- ./inp_files/8678.got.cif
#   From: 2010.05.17/outbox.cif.g08.bks.cpg/sg23_5_cif.got.tgz:8678.got - 2010.06.04 12:02:01.
