data_PCOD9332743
_publ_section_title
;
Structure prediction by ZEFSAII (Michael W. Deem and Ramdas Pophale) SiO2 
 PCOD9332743
Probable space group: I 21 21 21
;
_chemical_formula_sum "Si O2"
_cell_formula_units_Z 60
_cell_length_a 11.274589
_cell_length_b 23.147459
_cell_length_c 10.795468
_cell_angle_alpha 90.000000
_cell_angle_beta 90.000000
_cell_angle_gamma 90.000000
_cell_volume 2817.380583
_symmetry_space_group_name_H-M "I 21 21 21"
_symmetry_group_IT_number 24
_symmetry_cell_setting 'orthorhombic'
loop_
_space_group_symop_operation_xyz
x,y,z
-x,1/2-y,z
x,-y,1/2-z
1/2-x,y,-z
1/2+x,1/2+y,1/2+z
1/2-x,-y,1/2+z
1/2+x,1/2-y,-z
-x,1/2+y,1/2-z
loop_
_atom_site_type_symbol
_atom_site_label
_atom_site_fract_x
_atom_site_fract_y
_atom_site_fract_z
Si Si1 0.247651 0.174232 0.147257
Si Si2 0.895999 0.453901 0.635649
Si Si3 0.355909 0.933023 0.791649
Si Si4 0.295790 0.500000 0.250000
Si Si5 0.504155 0.142482 0.209201
Si Si6 0.892520 0.089448 0.243813
Si Si7 0.743798 0.802823 0.650389
Si Si8 0.960299 0.956774 0.524014
O O1 0.180686 0.116419 0.190786
O O2 0.380996 0.176199 0.202235
O O3 0.201057 0.238027 0.179650
O O4 0.250000 0.171944 0.000000
O O5 0.895140 0.500000 0.750000
O O6 0.763241 0.430792 0.627169
O O7 0.985904 0.403164 0.677498
O O8 0.938806 0.494270 0.524769
O O9 0.488798 0.913386 0.824119
O O10 0.364179 0.000000 0.750000
O O11 0.215710 0.447133 0.297020
O O12 0.367759 0.478697 0.129062
O O13 0.625374 0.178613 0.201963
O O14 0.498671 0.102991 0.085277
O O15 0.848192 0.152217 0.207573
O O16 0.917288 0.056824 0.112637
O O17 0.750000 0.809547 0.500000
#
# Coordination Sequence:
#
# PCOD9332743 Si02
#       8
#     8   8   8   4   8   8   8   8
#     4  10  22  33  51  76 108 151 192 227 277 339
#     4   8  16  31  53  70  99 137 187 238 271 311
#     4  10  21  37  51  72 107 142 185 235 271 322
#     4  12  20  34  50  78 114 148 188 242 278 326
#     4  10  16  32  48  71 104 146 187 229 267 319
#     4  12  22  34  56  80 116 154 186 230 290 340
#     4  11  20  32  48  77 114 148 187 224 267 351
#     4  11  18  33  57  77 106 155 190 230 283 330
#
# _framework density 21.296377
#
# number of rings (size 3 to 8) (size 9 to 14) (size 15 to 20)
#    0.000    1.600    5.333    2.400    0.000    0.533 
#    0.000    0.000    0.000    0.000    0.000    0.000 
#    0.000   29.867    0.000    0.000    0.000    0.000 
#
# Total GULP energy -167335.844197 kJ/mol
# GULP energy per Si atom -5577.861473 kJ/mol
# Density = 2.124791 g / cm^3
# Si number density = 21.296377 Si / 1000 Ang^3
#
#
#
# Elastic Constant Matrix: (Units=GPa)
#
#
# Indices 1 2 3 4 5 6 
#
# 1 97.3371 31.4803 2.1310 -0.0001 0.0000 0.0000
# 2 31.4803 149.1071 21.8828 -0.0001 0.0000 0.0000
# 3 2.1310 21.8828 41.8371 0.0004 -0.0002 0.0000
# 4 -0.0001 -0.0001 0.0004 22.0259 0.0000 0.0000
# 5 0.0000 0.0000 -0.0002 0.0000 9.3680 0.0000
# 6 0.0000 0.0000 0.0000 0.0000 0.0000 23.9283
#
#
#
# Elastic Compliance Matrix: (Units=1/GPa)
#
#
# Indices 1 2 3 4 5 6 
#
# 1 0.011046 -0.002437 0.000712 0.000000 0.000000 0.000000
# 2 -0.002437 0.007802 -0.003957 0.000000 0.000000 0.000000
# 3 0.000712 -0.003957 0.025935 0.000000 0.000000 0.000000
# 4 0.000000 0.000000 0.000000 0.045401 0.000000 0.000000
# 5 0.000000 0.000000 0.000000 0.000000 0.106746 0.000000
# 6 0.000000 0.000000 0.000000 0.000000 0.000000 0.041792
#
#
# Mechanical properties :
#
#
# Convention : Reuss Voigt Hill
#
# Bulk Modulus (GPa) = 29.92173 44.36325 37.14249
# Shear Modulus (GPa) = 19.14063 26.58359 22.86211
#
# Velocity S-wave (km/s) = 3.00121 3.53692 3.28002
# Velocity P-wave (km/s) = 5.10787 6.12832 5.64122
#
# Compressibility (1/GPa) = 0.03342053
#
# Stress axis : x y z
#
# Youngs Moduli (GPa) = 90.53039 128.17781 38.55730
#
# Poissons Ratio (x) = 0.31231 -0.02744
# Poissons Ratio (y) = 0.22058 0.15255
# Poissons Ratio (z) = -0.06444 0.50714
#
# Static dielectric constant tensor:
#      x y z
#    x 1.854720 0.000000 0.000000 
#    y 0.000000 1.792850 0.000000 
#    z 0.000000 0.000000 1.811230 
# 
# From -- ./inp_files/26124.got.cif
#   From: 2010.05.17/outbox.cif.g08.bks.cpg/sg24_14_cif.got.tgz:26124.got - 2010.06.04 00:33:39.
