data_PCOD9332776
_publ_section_title
;
Structure prediction by ZEFSAII (Michael W. Deem and Ramdas Pophale) SiO2 
 PCOD9332776
Probable space group: I 21 21 21
;
_chemical_formula_sum "Si O2"
_cell_formula_units_Z 44
_cell_length_a 24.527847
_cell_length_b 9.243674
_cell_length_c 8.568997
_cell_angle_alpha 90.000000
_cell_angle_beta 90.000000
_cell_angle_gamma 90.000000
_cell_volume 1942.826595
_symmetry_space_group_name_H-M "I 21 21 21"
_symmetry_group_IT_number 24
_symmetry_cell_setting 'orthorhombic'
loop_
_space_group_symop_operation_xyz
x,y,z
-x,1/2-y,z
x,-y,1/2-z
1/2-x,y,-z
1/2+x,1/2+y,1/2+z
1/2-x,-y,1/2+z
1/2+x,1/2-y,-z
-x,1/2+y,1/2-z
loop_
_atom_site_type_symbol
_atom_site_label
_atom_site_fract_x
_atom_site_fract_y
_atom_site_fract_z
Si Si1 0.485624 0.414821 0.595459
Si Si2 0.092328 0.045321 0.570629
Si Si3 0.133674 0.657413 0.088629
Si Si4 0.750000 0.143175 0.500000
Si Si5 0.340209 0.799631 0.582944
Si Si6 0.778212 0.661016 0.707066
O O1 0.500000 0.250000 0.632811
O O2 0.499446 0.500000 0.750000
O O3 0.527697 0.450112 0.459978
O O4 0.421523 0.431987 0.561973
O O5 0.121613 0.195683 0.514124
O O6 0.098020 0.000000 0.750000
O O7 0.117109 0.924202 0.456335
O O8 0.138907 0.704219 0.271699
O O9 0.190986 0.577776 0.047171
O O10 0.766601 0.242361 0.644242
O O11 0.282183 0.862843 0.638107
O O12 0.319303 0.753839 0.408925
O O13 0.797135 0.500000 0.750000
#
# Coordination Sequence:
#
# PCOD9332776 Si02
#       6
#     8   8   8   4   8   8
#     4  10  22  42  64  87 116 155 203 249 300 360
#     4  11  20  32  53  83 116 152 192 246 309 365
#     4  10  20  35  55  80 113 155 197 243 296 356
#     4  10  18  30  50  76 114 156 192 240 296 346
#     4  10  18  29  49  79 116 154 195 237 292 359
#     4  10  17  25  44  80 120 156 190 235 294 358
#
# _framework density 22.647414999999999
#
# number of rings (size 3 to 8) (size 9 to 14) (size 15 to 20)
#    0.000    1.818    0.000    8.727    0.000    0.000 
#    0.000   10.000    0.000    5.455    0.000    0.000 
#    0.000    0.000    0.000    0.000    0.000    0.000 
#
# Total GULP energy -122645.928330 kJ/mol
# GULP energy per Si atom -5574.814924 kJ/mol
# Density = 2.259587 g / cm^3
# Si number density = 22.647415 Si / 1000 Ang^3
#
#
#
# Elastic Constant Matrix: (Units=GPa)
#
#
# Indices 1 2 3 4 5 6 
#
# 1 200.0565 21.7581 41.4948 0.0000 0.0000 0.0000
# 2 21.7581 23.1532 25.7488 0.0000 0.0000 0.0000
# 3 41.4948 25.7488 117.4217 0.0000 0.0000 0.0000
# 4 0.0000 0.0000 0.0000 16.0515 0.0000 0.0000
# 5 0.0000 0.0000 0.0000 0.0000 16.7108 0.0000
# 6 0.0000 0.0000 0.0000 0.0000 0.0000 -91.4892
#
#
#
# Elastic Compliance Matrix: (Units=1/GPa)
#
#
# Indices 1 2 3 4 5 6 
#
# 1 0.005674 -0.004103 -0.001105 0.000000 0.000000 0.000000
# 2 -0.004103 0.060087 -0.011726 0.000000 0.000000 0.000000
# 3 -0.001105 -0.011726 0.011478 0.000000 0.000000 0.000000
# 4 0.000000 0.000000 0.000000 0.062299 0.000000 0.000000
# 5 0.000000 0.000000 0.000000 0.000000 0.059842 0.000000
# 6 0.000000 0.000000 0.000000 0.000000 0.000000 -0.010930
#
#
# Mechanical properties :
#
#
# Convention : Reuss Voigt Hill
#
# Bulk Modulus (GPa) = 23.05719 57.62608 40.34164
# Shear Modulus (GPa) = 21.11697 5.02994 13.07345
#
# Velocity S-wave (km/s) = 3.05687 1.49191 2.40523
# Velocity P-wave (km/s) = 4.76050 5.33553 5.05619
#
# Compressibility (1/GPa) = 0.04337041
#
# Stress axis : x y z
#
# Youngs Moduli (GPa) = 176.23951 16.64250 87.12047
#
# Poissons Ratio (x) = 0.06828 0.09631
# Poissons Ratio (y) = 0.72308 1.02160
# Poissons Ratio (z) = 0.19482 0.19516
#
# Static dielectric constant tensor:
#      x y z
#    x 1.926180 0.000000 0.000000 
#    y 0.000000 1.848840 0.000000 
#    z 0.000000 0.000000 1.899120 
# 
# From -- ./inp_files/15761.got.cif
#   From: 2010.05.17/outbox.cif.g08.bks.cpg/sg24_8_cif.got.tgz:15761.got - 2010.06.04 00:33:39.
