data_PCOD9332864
_publ_section_title
;
Structure prediction by ZEFSAII (Michael W. Deem and Ramdas Pophale) SiO2 
 PCOD9332864
Probable space group: I 21 21 21
;
_chemical_formula_sum "Si O2"
_cell_formula_units_Z 64
_cell_length_a 9.501975
_cell_length_b 31.358057
_cell_length_c 11.126294
_cell_angle_alpha 90.000000
_cell_angle_beta 90.000000
_cell_angle_gamma 90.000000
_cell_volume 3315.229209
_symmetry_space_group_name_H-M "I 21 21 21"
_symmetry_group_IT_number 24
_symmetry_cell_setting 'orthorhombic'
loop_
_space_group_symop_operation_xyz
x,y,z
-x,1/2-y,z
x,-y,1/2-z
1/2-x,y,-z
1/2+x,1/2+y,1/2+z
1/2-x,-y,1/2+z
1/2+x,1/2-y,-z
-x,1/2+y,1/2-z
loop_
_atom_site_type_symbol
_atom_site_label
_atom_site_fract_x
_atom_site_fract_y
_atom_site_fract_z
Si Si1 0.037536 0.136122 0.867600
Si Si2 0.951619 0.891512 0.189619
Si Si3 0.647666 0.016439 0.615465
Si Si4 0.005272 0.800248 0.420843
Si Si5 0.415088 0.427543 0.956263
Si Si6 0.665263 0.252686 0.385084
Si Si7 0.746335 0.825839 0.269431
Si Si8 0.207490 0.837520 0.216390
O O1 0.171884 0.136035 0.783365
O O2 0.893200 0.148283 0.801219
O O3 0.056477 0.174289 0.963355
O O4 0.009346 0.093193 0.941073
O O5 0.919258 0.937116 0.132026
O O6 0.943177 0.901767 0.333352
O O7 0.833703 0.854859 0.175462
O O8 0.099003 0.870003 0.154337
O O9 0.750000 0.020290 0.500000
O O10 0.702308 0.000000 0.750000
O O11 0.552338 0.976481 0.575100
O O12 0.850872 0.816588 0.380783
O O13 0.000000 0.750000 0.441295
O O14 0.109256 0.812246 0.311959
O O15 0.250000 0.424549 0.000000
O O16 0.500000 0.250000 0.406613
O O17 0.750000 0.237236 0.500000
O O18 0.703569 0.220318 0.279063
O O19 0.715909 0.300620 0.358100
#
# Coordination Sequence:
#
# PCOD9332864 Si02
#       8
#     8   8   8   8   8   8   8   8
#     4  12  21  35  57  99 129 167 204 254 325 395
#     4  10  21  37  60  95 124 167 209 261 329 385
#     4   9  20  38  66 103 130 163 217 281 341 408
#     4  11  22  32  57  87 130 167 197 253 313 385
#     4  10  17  34  62  97 130 162 202 263 326 396
#     4  12  28  46  62  83 118 174 226 277 320 370
#     4  11  22  38  60  89 124 162 214 262 312 382
#     4  11  24  39  58  91 128 167 214 260 317 390
#
# _framework density 19.304849999999998
#
# number of rings (size 3 to 8) (size 9 to 14) (size 15 to 20)
#    0.000    1.250    6.250    0.750    5.250    1.500 
#    0.000    0.000    0.000    0.000   39.000    0.000 
#    0.000    0.000    0.000    0.000    0.000    0.000 
#
# Total GULP energy -178520.592902 kJ/mol
# GULP energy per Si atom -5578.768528 kJ/mol
# Density = 1.926091 g / cm^3
# Si number density = 19.304850 Si / 1000 Ang^3
#
#
#
# Elastic Constant Matrix: (Units=GPa)
#
#
# Indices 1 2 3 4 5 6 
#
# 1 86.8123 32.6586 27.0099 -0.0003 0.0000 0.0001
# 2 32.6586 138.1066 26.2507 -0.0005 -0.0001 0.0007
# 3 27.0099 26.2507 47.2163 0.0007 0.0012 -0.0008
# 4 -0.0003 -0.0005 0.0007 -0.2645 -0.0002 -0.0004
# 5 0.0000 -0.0001 0.0012 -0.0002 8.2694 0.0000
# 6 0.0001 0.0007 -0.0008 -0.0004 0.0000 27.6902
#
#
#
# Elastic Compliance Matrix: (Units=1/GPa)
#
#
# Indices 1 2 3 4 5 6 
#
# 1 0.014526 -0.002075 -0.007156 -0.000031 0.000001 0.000000
# 2 -0.002075 0.008393 -0.003479 -0.000022 0.000001 0.000000
# 3 -0.007156 -0.003479 0.027207 0.000086 -0.000004 0.000001
# 4 -0.000031 -0.000022 0.000086 -3.780983 -0.000091 -0.000061
# 5 0.000001 0.000001 -0.000004 -0.000091 0.120928 0.000000
# 6 0.000000 0.000000 0.000001 -0.000061 0.000000 0.036114
#
#
# Mechanical properties :
#
#
# Convention : Reuss Voigt Hill
#
# Bulk Modulus (GPa) = 40.47646 49.33040 44.90343
# Shear Modulus (GPa) = -1.41237 19.55342 9.07053
#
# Velocity S-wave (km/s) = -0.85627 3.18602 2.16997
# Velocity P-wave (km/s) = 4.47604 6.25645 5.43958
#
# Compressibility (1/GPa) = 0.02470572
#
# Stress axis : x y z
#
# Youngs Moduli (GPa) = 68.84151 119.15060 36.75518
#
# Poissons Ratio (x) = 0.24722 0.26302
# Poissons Ratio (y) = 0.14284 0.12788
# Poissons Ratio (z) = 0.49263 0.41455
#
# Static dielectric constant tensor:
#      x y z
#    x 1.685820 0.000000 0.000000 
#    y 0.000000 1.694550 0.000000 
#    z 0.000000 0.000000 1.686830 
# 
# From -- ./inp_files/18916.got.cif
#   From: 2010.05.17/outbox.cif.g08.bks.cpg/sg24_10_cif.got.tgz:18916.got - 2010.06.04 00:33:39.
