data_PCOD9332626
_publ_section_title
;
Structure prediction by ZEFSAII (Michael W. Deem and Ramdas Pophale) SiO2 
 PCOD9332626
Probable space group: I 2 2 2
;
_chemical_formula_sum "Si O2"
_cell_formula_units_Z 28
_cell_length_a 15.000000
_cell_length_b 21.000000
_cell_length_c 9.000000
_cell_angle_alpha 90.000000
_cell_angle_beta 90.000000
_cell_angle_gamma 90.000000
_cell_volume 2835.000000
_symmetry_space_group_name_H-M "I 2 2 2"
_symmetry_group_IT_number 23
_symmetry_cell_setting 'orthorhombic'
loop_
_space_group_symop_operation_xyz
x,y,z
-x,-y,z
x,-y,-z
-x,y,-z
1/2+x,1/2+y,1/2+z
1/2-x,1/2-y,1/2+z
1/2+x,1/2-y,1/2-z
1/2-x,1/2+y,1/2-z
loop_
_atom_site_type_symbol
_atom_site_label
_atom_site_fract_x
_atom_site_fract_y
_atom_site_fract_z
Si Si1 0.648357 0.737368 0.720920
Si Si2 0.590789 0.105947 0.791451
Si Si3 0.161068 0.276238 0.872363
Si Si4 0.026590 0.829960 0.171873
Si Si5 0.391119 0.871585 0.136429
Si Si6 0.089418 0.973625 0.171692
Si Si7 0.784360 0.509825 0.320462
O O1 0.741331 0.720144 0.799244
O O2 0.663918 0.754622 0.545665
O O3 0.569973 0.684796 0.744430
O O4 0.613842 0.801833 0.797130
O O5 0.612826 0.157095 0.664401
O O6 0.485469 0.097531 0.816429
O O7 0.646034 0.041856 0.761745
O O8 0.619384 0.130549 0.957158
O O9 0.099263 0.223573 0.791118
O O10 0.074203 0.898115 0.180269
O O11 0.000000 0.822106 0.000000
O O12 0.316257 0.918111 0.201058
O O13 0.183477 0.996427 0.234809
O O14 0.000000 0.000000 0.244528
O O15 0.090061 0.000000 0.000000
O O16 0.784438 0.500000 0.500000
#
# Coordination Sequence:
#
# PCOD9332626 Si02
#       7
#     8   8   8   8   8   8   8
#     4  11  23  38  60  84 122 161 199 253 308 366
#     4  10  20  35  59  89 119 155 203 247 302 366
#     4  11  23  38  58  85 121 158 206 248 304 367
#     4  10  20  36  56  84 118 154 192 244 300 360
#     4  10  19  37  58  86 122 157 197 248 309 355
#     4  10  18  30  52  82 113 145 193 242 296 343
#     4   9  19  32  56  86 120 158 196 252 298 355
#
# _framework density 9.8765429999999999
#
# number of rings (size 3 to 8) (size 9 to 14) (size 15 to 20)
#    0.000    1.857    2.857    2.143    2.000    4.000 
#    0.000    0.714    0.000    1.714    0.000    0.000 
#    0.000    0.000    0.000    0.000    0.000    0.000 
#
# Total GULP energy -156084.198429 kJ/mol
# GULP energy per Si atom -5574.435658 kJ/mol
# Density = 0.985406 g / cm^3
# Si number density = 9.876543 Si / 1000 Ang^3
#
#
#
# Elastic Constant Matrix: (Units=GPa)
#
#
# Indices 1 2 3 4 5 6 
#
# 1 74.0254 3.9049 -6.8129 0.0000 0.0000 0.0000
# 2 3.9049 64.8201 -11.4669 0.0000 0.0000 0.0000
# 3 -6.8129 -11.4669 23.2499 0.0000 0.0000 0.0000
# 4 0.0000 0.0000 0.0000 22.8546 0.0000 0.0000
# 5 0.0000 0.0000 0.0000 0.0000 9.3014 0.0000
# 6 0.0000 0.0000 0.0000 0.0000 0.0000 13.4678
#
#
#
# Elastic Compliance Matrix: (Units=1/GPa)
#
#
# Indices 1 2 3 4 5 6 
#
# 1 0.013884 -0.000128 0.004005 0.000000 0.000000 0.000000
# 2 -0.000128 0.016903 0.008299 0.000000 0.000000 0.000000
# 3 0.004005 0.008299 0.048278 0.000000 0.000000 0.000000
# 4 0.000000 0.000000 0.000000 0.043755 0.000000 0.000000
# 5 0.000000 0.000000 0.000000 0.000000 0.107510 0.000000
# 6 0.000000 0.000000 0.000000 0.000000 0.000000 0.074251
#
#
# Mechanical properties :
#
#
# Convention : Reuss Voigt Hill
#
# Bulk Modulus (GPa) = 9.66942 14.81619 12.24280
# Shear Modulus (GPa) = 15.88808 20.88943 18.38876
#
# Velocity S-wave (km/s) = 2.83916 3.25549 3.05443
# Velocity P-wave (km/s) = 3.95645 4.65274 4.31865
#
# Compressibility (1/GPa) = 0.10341886
#
# Stress axis : x y z
#
# Youngs Moduli (GPa) = 72.02404 59.16043 20.71343
#
# Poissons Ratio (x) = 0.00756 -0.08297
# Poissons Ratio (y) = 0.00921 -0.17191
# Poissons Ratio (z) = -0.28849 -0.49099
#
# Static dielectric constant tensor:
#      x y z
#    x 1.732870 0.000000 0.000000 
#    y 0.000000 1.775860 0.000000 
#    z 0.000000 0.000000 1.699910 
# 
# From -- ./inp_files/10206.got.cif
#   From: 2010.05.17/outbox.ucp.g08.bks.cvg/sg23_6_cif.got.tgz:10206.got - 2010.06.11 15:19:07.
