data_PCOD9332820
_publ_section_title
;
Structure prediction by ZEFSAII (Michael W. Deem and Ramdas Pophale) SiO2 
 PCOD9332820
Probable space group: I 21 21 21
;
_chemical_formula_sum "Si O2"
_cell_formula_units_Z 60
_cell_length_a 11.398493
_cell_length_b 11.374449
_cell_length_c 27.983113
_cell_angle_alpha 90.000000
_cell_angle_beta 90.000000
_cell_angle_gamma 90.000000
_cell_volume 3628.054738
_symmetry_space_group_name_H-M "I 21 21 21"
_symmetry_group_IT_number 24
_symmetry_cell_setting 'orthorhombic'
loop_
_space_group_symop_operation_xyz
x,y,z
-x,1/2-y,z
x,-y,1/2-z
1/2-x,y,-z
1/2+x,1/2+y,1/2+z
1/2-x,-y,1/2+z
1/2+x,1/2-y,-z
-x,1/2+y,1/2-z
loop_
_atom_site_type_symbol
_atom_site_label
_atom_site_fract_x
_atom_site_fract_y
_atom_site_fract_z
Si Si1 0.357130 0.571085 0.889583
Si Si2 0.547301 0.375918 0.868960
Si Si3 0.000000 0.750000 0.176966
Si Si4 0.183908 0.034112 0.046225
Si Si5 0.678915 0.553899 0.799987
Si Si6 0.891538 0.103643 0.594857
Si Si7 0.960707 0.883722 0.010876
Si Si8 0.347772 0.121280 0.384310
O O1 0.437105 0.458167 0.881502
O O2 0.413127 0.673865 0.856936
O O3 0.221195 0.544525 0.881455
O O4 0.372916 0.610664 0.944544
O O5 0.500000 0.250000 0.854434
O O6 0.629399 0.374040 0.916225
O O7 0.618532 0.447547 0.829199
O O8 0.919519 0.656674 0.205155
O O9 0.271493 0.949255 0.076263
O O10 0.075416 0.956517 0.026705
O O11 0.250000 0.083581 0.000000
O O12 0.718921 0.500000 0.750000
O O13 0.780133 0.604752 0.834425
O O14 0.907110 0.073927 0.538954
O O15 0.860799 0.242596 0.600521
O O16 0.018024 0.077689 0.617622
O O17 0.000000 0.750000 0.003210
#
# Coordination Sequence:
#
# PCOD9332820 Si02
#       8
#     8   8   4   8   8   8   8   8
#     4  10  19  31  50  75 115 138 168 223 255 314
#     4   9  21  37  54  76 100 140 183 224 269 303
#     4  10  18  34  54  82 102 126 170 216 292 296
#     4  10  17  31  49  69 107 147 183 212 251 307
#     4  10  21  36  60  78 104 135 171 233 268 332
#     4  11  18  28  47  79 116 143 171 206 257 322
#     4  11  17  24  44  76 113 148 173 207 253 316
#     4  10  19  31  48  78 111 147 170 209 268 323
#
# _framework density 16.537787000000002
#
# number of rings (size 3 to 8) (size 9 to 14) (size 15 to 20)
#    0.000    1.867    4.667    2.000    0.933    0.000 
#    0.000    2.667    0.000    8.800    0.000    0.000 
#    0.000    0.000    0.000    0.000    0.000    0.000 
#
# Total GULP energy -167226.147753 kJ/mol
# GULP energy per Si atom -5574.204925 kJ/mol
# Density = 1.650015 g / cm^3
# Si number density = 16.537787 Si / 1000 Ang^3
#
#
#
# Elastic Constant Matrix: (Units=GPa)
#
#
# Indices 1 2 3 4 5 6 
#
# 1 100.1355 5.7289 22.9831 0.0000 0.0000 0.0000
# 2 5.7289 45.4897 9.4489 0.0000 0.0000 0.0000
# 3 22.9831 9.4489 68.2319 0.0000 0.0000 0.0000
# 4 0.0000 0.0000 0.0000 12.6631 0.0000 0.0000
# 5 0.0000 0.0000 0.0000 0.0000 15.0234 0.0000
# 6 0.0000 0.0000 0.0000 0.0000 0.0000 11.8749
#
#
#
# Elastic Compliance Matrix: (Units=1/GPa)
#
#
# Indices 1 2 3 4 5 6 
#
# 1 0.010840 -0.000625 -0.003565 0.000000 0.000000 0.000000
# 2 -0.000625 0.022670 -0.002929 0.000000 0.000000 0.000000
# 3 -0.003565 -0.002929 0.016262 0.000000 0.000000 0.000000
# 4 0.000000 0.000000 0.000000 0.078970 0.000000 0.000000
# 5 0.000000 0.000000 0.000000 0.000000 0.066563 0.000000
# 6 0.000000 0.000000 0.000000 0.000000 0.000000 0.084211
#
#
# Mechanical properties :
#
#
# Convention : Reuss Voigt Hill
#
# Bulk Modulus (GPa) = 28.14086 32.24211 30.19149
# Shear Modulus (GPa) = 16.36132 19.62536 17.99334
#
# Velocity S-wave (km/s) = 3.14877 3.44859 3.30208
# Velocity P-wave (km/s) = 5.50207 5.94940 5.73010
#
# Compressibility (1/GPa) = 0.03553552
#
# Stress axis : x y z
#
# Youngs Moduli (GPa) = 92.24713 44.11099 61.49181
#
# Poissons Ratio (x) = 0.02756 0.21922
# Poissons Ratio (y) = 0.05763 0.18011
# Poissons Ratio (z) = 0.32886 0.12920
#
# Static dielectric constant tensor:
#      x y z
#    x 1.589300 0.000000 0.000000 
#    y 0.000000 1.540920 0.000000 
#    z 0.000000 0.000000 1.563980 
# 
# From -- ./inp_files/38656.got.cif
#   From: 2010.05.17/outbox.cif.g08.bks.cpg/sg24_20_cif.got.tgz:38656.got - 2010.06.04 00:33:39.
