data_PCOD9332229
_publ_section_title
;
Structure prediction by ZEFSAII (Michael W. Deem and Ramdas Pophale) SiO2 
 PCOD9332229
Probable space group: I 2 2 2
;
_chemical_formula_sum "Si O2"
_cell_formula_units_Z 34
_cell_length_a 21.590957
_cell_length_b 7.865395
_cell_length_c 8.109744
_cell_angle_alpha 90.000000
_cell_angle_beta 90.000000
_cell_angle_gamma 90.000000
_cell_volume 1377.208122
_symmetry_space_group_name_H-M "I 2 2 2"
_symmetry_group_IT_number 23
_symmetry_cell_setting 'orthorhombic'
loop_
_space_group_symop_operation_xyz
x,y,z
-x,-y,z
x,-y,-z
-x,y,-z
1/2+x,1/2+y,1/2+z
1/2-x,1/2-y,1/2+z
1/2+x,1/2-y,1/2-z
1/2-x,1/2+y,1/2-z
loop_
_atom_site_type_symbol
_atom_site_label
_atom_site_fract_x
_atom_site_fract_y
_atom_site_fract_z
Si Si1 0.000000 0.000000 0.500000
Si Si2 0.707416 0.734943 0.081755
Si Si3 0.597583 0.425179 0.755216
Si Si4 0.930558 0.729574 0.062713
Si Si5 0.822120 0.585591 0.239236
O O1 0.954617 0.884701 0.609773
O O2 0.663158 0.590505 0.157255
O O3 0.776717 0.666827 0.102674
O O4 0.698697 0.902330 0.195820
O O5 0.686303 0.795337 0.901279
O O6 0.425010 0.394964 0.682098
O O7 0.600737 0.297847 0.603265
O O8 0.891035 0.591822 0.163041
O O9 0.000000 0.692646 0.000000
#
# Coordination Sequence:
#
# PCOD9332229 Si02
#       5
#     2   8   8   8   8
#     4  12  20  38  68 102 132 186 230 294 344 438
#     4  11  25  44  70 106 140 191 235 314 362 444
#     4  11  22  39  68  99 136 181 242 284 358 421
#     4  11  22  43  67 101 140 188 237 296 351 439
#     4  11  25  45  69 104 148 183 248 296 379 430
#
# _framework density 24.687626999999999
#
# number of rings (size 3 to 8) (size 9 to 14) (size 15 to 20)
#    0.000    0.941    2.353    4.941    0.000    9.412 
#    0.000    3.529    0.000    0.000    0.000    0.000 
#    0.000    0.000    0.000    0.000    0.000    0.000 
#
# Total GULP energy -95166.664056 kJ/mol
# GULP energy per Si atom -5598.039062 kJ/mol
# Density = 2.463144 g / cm^3
# Si number density = 24.687627 Si / 1000 Ang^3
#
#
#
# Elastic Constant Matrix: (Units=GPa)
#
#
# Indices 1 2 3 4 5 6 
#
# 1 152.9671 31.6720 48.8213 0.0000 0.0000 0.0000
# 2 31.6720 135.8419 28.8753 0.0000 0.0000 0.0000
# 3 48.8213 28.8753 136.7858 0.0000 0.0000 0.0000
# 4 0.0000 0.0000 0.0000 40.0958 0.0000 0.0000
# 5 0.0000 0.0000 0.0000 0.0000 54.8253 0.0000
# 6 0.0000 0.0000 0.0000 0.0000 0.0000 22.9629
#
#
#
# Elastic Compliance Matrix: (Units=1/GPa)
#
#
# Indices 1 2 3 4 5 6 
#
# 1 0.007574 -0.001247 -0.002440 0.000000 0.000000 0.000000
# 2 -0.001247 0.007913 -0.001225 0.000000 0.000000 0.000000
# 3 -0.002440 -0.001225 0.008440 0.000000 0.000000 0.000000
# 4 0.000000 0.000000 0.000000 0.024940 0.000000 0.000000
# 5 0.000000 0.000000 0.000000 0.000000 0.018240 0.000000
# 6 0.000000 0.000000 0.000000 0.000000 0.000000 0.043549
#
#
# Mechanical properties :
#
#
# Convention : Reuss Voigt Hill
#
# Bulk Modulus (GPa) = 70.91112 71.59244 71.25178
# Shear Modulus (GPa) = 39.94187 44.65856 42.30021
#
# Velocity S-wave (km/s) = 4.02666 4.25778 4.14384
# Velocity P-wave (km/s) = 7.09961 7.29616 7.19855
#
# Compressibility (1/GPa) = 0.01410216
#
# Stress axis : x y z
#
# Youngs Moduli (GPa) = 132.02351 126.37844 118.47974
#
# Poissons Ratio (x) = 0.15763 0.28911
# Poissons Ratio (y) = 0.16467 0.14516
# Poissons Ratio (z) = 0.32216 0.15484
#
# Static dielectric constant tensor:
#      x y z
#    x 1.956250 0.000000 0.000000 
#    y 0.000000 1.998130 0.000000 
#    z 0.000000 0.000000 1.963640 
# 
# From -- ./inp_files/11672.got.cif
#   From: 2010.05.17/outbox.cif.g08.bks.cpg/sg23_6_cif.got.tgz:11672.got - 2010.06.04 12:02:01.
