data_PCOD9332572
_publ_section_title
;
Structure prediction by ZEFSAII (Michael W. Deem and Ramdas Pophale) SiO2 
 PCOD9332572
Probable space group: I 2 2 2
;
_chemical_formula_sum "Si O2"
_cell_formula_units_Z 26
_cell_length_a 29.993146
_cell_length_b 7.466680
_cell_length_c 5.059409
_cell_angle_alpha 90.000000
_cell_angle_beta 90.000000
_cell_angle_gamma 90.000000
_cell_volume 1133.050716
_symmetry_space_group_name_H-M "I 2 2 2"
_symmetry_group_IT_number 23
_symmetry_cell_setting 'orthorhombic'
loop_
_space_group_symop_operation_xyz
x,y,z
-x,-y,z
x,-y,-z
-x,y,-z
1/2+x,1/2+y,1/2+z
1/2-x,1/2-y,1/2+z
1/2+x,1/2-y,1/2-z
1/2-x,1/2+y,1/2-z
loop_
_atom_site_type_symbol
_atom_site_label
_atom_site_fract_x
_atom_site_fract_y
_atom_site_fract_z
Si Si1 0.433495 0.304937 0.603405
Si Si2 0.275948 0.696150 0.879481
Si Si3 0.121182 0.296583 0.588357
Si Si4 0.500000 0.000000 0.500000
O O1 0.450120 0.500000 0.500000
O O2 0.402206 0.320201 0.859242
O O3 0.469521 0.146010 0.655401
O O4 0.403463 0.235303 0.362726
O O5 0.254517 0.698876 0.590300
O O6 0.276493 0.500000 0.000000
O O7 0.326467 0.763415 0.877656
O O8 0.115194 0.500000 0.500000
#
# Coordination Sequence:
#
# PCOD9332572 Si02
#       4
#     8   8   8   2
#     4  12  26  46  73 103 139 186 232 291 350 419
#     4  12  25  43  67 101 137 183 232 286 346 414
#     4  12  24  47  70 101 141 184 231 288 353 414
#     4  12  26  50  72 108 140 182 246 286 364 408
#
# _framework density 22.946901
#
# number of rings (size 3 to 8) (size 9 to 14) (size 15 to 20)
#    0.000    0.000    3.077    7.846    0.000    2.462 
#    0.000    3.077    0.000    0.000    0.000    0.000 
#    0.000    0.000    0.000    0.000    0.000    0.000 
#
# Total GULP energy -72769.862773 kJ/mol
# GULP energy per Si atom -5597.681752 kJ/mol
# Density = 2.289467 g / cm^3
# Si number density = 22.946901 Si / 1000 Ang^3
#
#
#
# Elastic Constant Matrix: (Units=GPa)
#
#
# Indices 1 2 3 4 5 6 
#
# 1 152.0911 44.9940 48.6981 -0.0001 -0.0001 -0.0001
# 2 44.9940 156.5562 21.1425 -0.0005 -0.0002 -0.0004
# 3 48.6981 21.1425 122.8013 -0.0005 -0.0002 -0.0004
# 4 -0.0001 -0.0005 -0.0005 33.1671 -0.0002 -0.0005
# 5 -0.0001 -0.0002 -0.0002 -0.0002 -9.3816 -0.0002
# 6 -0.0001 -0.0004 -0.0004 -0.0005 -0.0002 -25.5776
#
#
#
# Elastic Compliance Matrix: (Units=1/GPa)
#
#
# Indices 1 2 3 4 5 6 
#
# 1 0.008064 -0.001931 -0.002865 0.000000 0.000000 0.000000
# 2 -0.001931 0.007002 -0.000440 0.000000 0.000000 0.000000
# 3 -0.002865 -0.000440 0.009355 0.000000 0.000000 0.000000
# 4 0.000000 0.000000 0.000000 0.030150 -0.000001 -0.000001
# 5 0.000000 0.000000 0.000000 -0.000001 -0.106592 0.000001
# 6 0.000000 0.000000 0.000000 -0.000001 0.000001 -0.039097
#
#
# Mechanical properties :
#
#
# Convention : Reuss Voigt Hill
#
# Bulk Modulus (GPa) = 71.68943 73.45755 72.57349
# Shear Modulus (GPa) = -65.79230 20.74919 -22.52155
#
# Velocity S-wave (km/s) = -5.36039 3.01030 -3.13623
# Velocity P-wave (km/s) = 2.64621 6.64560 4.31054
#
# Compressibility (1/GPa) = 0.01394906
#
# Stress axis : x y z
#
# Youngs Moduli (GPa) = 124.01460 142.82214 106.89193
#
# Poissons Ratio (x) = 0.27572 0.30628
# Poissons Ratio (y) = 0.23941 0.04702
# Poissons Ratio (z) = 0.35534 0.06283
#
# Static dielectric constant tensor:
#      x y z
#    x 1.942280 0.000000 0.000000 
#    y 0.000000 1.897370 0.000000 
#    z 0.000000 0.000000 1.864150 
# 
# From -- ./inp_files/4701.got.cif
#   From: 2010.05.17/outbox.cif.g08.bks.cpg/sg23_3_cif.got.tgz:4701.got - 2010.06.04 12:02:01.
