data_PCOD9332372
_publ_section_title
;
Structure prediction by ZEFSAII (Michael W. Deem and Ramdas Pophale) SiO2 
 PCOD9332372
Probable space group: I 2 2 2
;
_chemical_formula_sum "Si O2"
_cell_formula_units_Z 28
_cell_length_a 14.326769
_cell_length_b 7.659161
_cell_length_c 11.750833
_cell_angle_alpha 90.000000
_cell_angle_beta 90.000000
_cell_angle_gamma 90.000000
_cell_volume 1289.431013
_symmetry_space_group_name_H-M "I 2 2 2"
_symmetry_group_IT_number 23
_symmetry_cell_setting 'orthorhombic'
loop_
_space_group_symop_operation_xyz
x,y,z
-x,-y,z
x,-y,-z
-x,y,-z
1/2+x,1/2+y,1/2+z
1/2-x,1/2-y,1/2+z
1/2+x,1/2-y,1/2-z
1/2-x,1/2+y,1/2-z
loop_
_atom_site_type_symbol
_atom_site_label
_atom_site_fract_x
_atom_site_fract_y
_atom_site_fract_z
Si Si1 0.102739 0.937332 0.337132
Si Si2 0.337011 0.766312 0.059781
Si Si3 0.120850 0.165941 0.921338
Si Si4 0.000000 0.500000 0.000000
Si Si5 0.000000 0.500000 0.500000
O O1 0.142206 0.809560 0.433492
O O2 0.099823 0.868562 0.210640
O O3 0.161692 0.113512 0.347414
O O4 0.000000 0.000000 0.372078
O O5 0.232610 0.832556 0.063778
O O6 0.426442 0.891714 0.076847
O O7 0.072213 0.353445 0.948008
O O8 0.092176 0.000000 0.000000
#
# Coordination Sequence:
#
# PCOD9332372 Si02
#       5
#     8   8   8   2   2
#     4  11  23  47  72 102 152 198 250 321 382 465
#     4  11  24  45  75 110 146 195 257 319 388 462
#     4  12  28  48  75 111 157 201 260 318 392 467
#     4  12  26  54  72 108 158 212 256 308 392 478
#     4  12  20  44  76 110 146 186 254 324 390 460
#
# _framework density 21.715005999999999
#
# number of rings (size 3 to 8) (size 9 to 14) (size 15 to 20)
#    0.000    0.571    4.286    4.714    4.000    1.143 
#   10.286    0.000    0.000    0.000    0.000    0.000 
#    0.000    0.000    0.000    0.000    0.000    0.000 
#
# Total GULP energy -78047.364455 kJ/mol
# GULP energy per Si atom -5574.811747 kJ/mol
# Density = 2.166558 g / cm^3
# Si number density = 21.715006 Si / 1000 Ang^3
#
#
#
# Elastic Constant Matrix: (Units=GPa)
#
#
# Indices 1 2 3 4 5 6 
#
# 1 160.6765 36.9383 15.5746 0.0000 0.0000 0.0000
# 2 36.9383 147.4844 54.4778 0.0000 0.0000 0.0000
# 3 15.5746 54.4778 113.5803 0.0000 0.0000 0.0000
# 4 0.0000 0.0000 0.0000 33.1615 0.0000 0.0000
# 5 0.0000 0.0000 0.0000 0.0000 22.0567 0.0000
# 6 0.0000 0.0000 0.0000 0.0000 0.0000 34.5587
#
#
#
# Elastic Compliance Matrix: (Units=1/GPa)
#
#
# Indices 1 2 3 4 5 6 
#
# 1 0.006606 -0.001604 -0.000136 0.000000 0.000000 0.000000
# 2 -0.001604 0.008630 -0.003919 0.000000 0.000000 0.000000
# 3 -0.000136 -0.003919 0.010703 0.000000 0.000000 0.000000
# 4 0.000000 0.000000 0.000000 0.030155 0.000000 0.000000
# 5 0.000000 0.000000 0.000000 0.000000 0.045338 0.000000
# 6 0.000000 0.000000 0.000000 0.000000 0.000000 0.028936
#
#
# Mechanical properties :
#
#
# Convention : Reuss Voigt Hill
#
# Bulk Modulus (GPa) = 68.40455 70.63585 69.52020
# Shear Modulus (GPa) = 34.11566 38.93874 36.52720
#
# Velocity S-wave (km/s) = 3.96796 4.23918 4.10581
# Velocity P-wave (km/s) = 7.25000 7.52064 7.38656
#
# Compressibility (1/GPa) = 0.01461891
#
# Stress axis : x y z
#
# Youngs Moduli (GPa) = 151.38523 115.87726 93.43267
#
# Poissons Ratio (x) = 0.18587 0.01275
# Poissons Ratio (y) = 0.24283 0.36619
# Poissons Ratio (z) = 0.02065 0.45415
#
# Static dielectric constant tensor:
#      x y z
#    x 1.806550 0.000000 0.000000 
#    y 0.000000 1.933130 0.000000 
#    z 0.000000 0.000000 1.736320 
# 
# From -- ./inp_files/9209.got.cif
#   From: 2010.05.17/outbox.cif.g08.bks.cpg/sg23_5_cif.got.tgz:9209.got - 2010.06.04 12:02:01.
