data_PCOD9332217
_publ_section_title
;
Structure prediction by ZEFSAII (Michael W. Deem and Ramdas Pophale) SiO2 
 PCOD9332217
Probable space group: I 2 2 2
;
_chemical_formula_sum "Si O2"
_cell_formula_units_Z 48
_cell_length_a 14.269677
_cell_length_b 8.918842
_cell_length_c 19.501241
_cell_angle_alpha 90.000000
_cell_angle_beta 90.000000
_cell_angle_gamma 90.000000
_cell_volume 2481.903335
_symmetry_space_group_name_H-M "I 2 2 2"
_symmetry_group_IT_number 23
_symmetry_cell_setting 'orthorhombic'
loop_
_space_group_symop_operation_xyz
x,y,z
-x,-y,z
x,-y,-z
-x,y,-z
1/2+x,1/2+y,1/2+z
1/2-x,1/2-y,1/2+z
1/2+x,1/2-y,1/2-z
1/2-x,1/2+y,1/2-z
loop_
_atom_site_type_symbol
_atom_site_label
_atom_site_fract_x
_atom_site_fract_y
_atom_site_fract_z
Si Si1 0.236944 0.648686 0.465756
Si Si2 0.155947 0.440600 0.069433
Si Si3 0.972306 0.163142 0.695576
Si Si4 0.168388 0.668966 0.316493
Si Si5 0.342457 0.116434 0.717910
Si Si6 0.354654 0.613042 0.057560
O O1 0.274701 0.500000 0.500000
O O2 0.315075 0.771250 0.448484
O O3 0.188286 0.614704 0.393631
O O4 0.167178 0.732007 0.518669
O O5 0.114526 0.437277 0.145153
O O6 0.253687 0.536693 0.076101
O O7 0.108458 0.500000 0.000000
O O8 0.907808 0.263436 0.744331
O O9 0.917283 0.133179 0.624282
O O10 0.067308 0.254449 0.683948
O O11 0.000000 0.000000 0.724543
O O12 0.245435 0.795549 0.297555
O O13 0.173057 0.528729 0.265146
O O14 0.394274 0.500000 0.000000
#
# Coordination Sequence:
#
# PCOD9332217 Si02
#       6
#     8   8   8   8   8   8
#     4   9  17  30  51  81 115 144 179 225 274 332
#     4   8  17  35  57  81 106 145 190 230 284 346
#     4  12  23  37  57  85 118 156 193 230 277 334
#     4  11  23  37  56  85 117 153 189 229 282 338
#     4  11  22  39  58  82 116 151 190 237 284 337
#     4   9  18  34  54  79 117 159 187 217 270 347
#
# _framework density 19.339994999999998
#
# number of rings (size 3 to 8) (size 9 to 14) (size 15 to 20)
#    0.000    2.333    0.000    6.500    0.000    3.667 
#    0.000    1.667    0.000    2.000    0.000    1.167 
#    0.000    0.000    0.000    0.000    0.000    0.000 
#
# Total GULP energy -133931.523522 kJ/mol
# GULP energy per Si atom -5580.480147 kJ/mol
# Density = 1.929598 g / cm^3
# Si number density = 19.339995 Si / 1000 Ang^3
#
#
#
# Elastic Constant Matrix: (Units=GPa)
#
#
# Indices 1 2 3 4 5 6 
#
# 1 62.0070 11.0917 35.3678 0.0000 0.0000 0.0000
# 2 11.0917 111.4727 72.1278 0.0000 0.0000 0.0000
# 3 35.3678 72.1278 143.0009 0.0000 0.0000 0.0000
# 4 0.0000 0.0000 0.0000 35.3574 0.0000 0.0000
# 5 0.0000 0.0000 0.0000 0.0000 6.7687 0.0000
# 6 0.0000 0.0000 0.0000 0.0000 0.0000 21.7131
#
#
#
# Elastic Compliance Matrix: (Units=1/GPa)
#
#
# Indices 1 2 3 4 5 6 
#
# 1 0.018992 0.001707 -0.005558 0.000000 0.000000 0.000000
# 2 0.001707 0.013470 -0.007216 0.000000 0.000000 0.000000
# 3 -0.005558 -0.007216 0.012007 0.000000 0.000000 0.000000
# 4 0.000000 0.000000 0.000000 0.028283 0.000000 0.000000
# 5 0.000000 0.000000 0.000000 0.000000 0.147740 0.000000
# 6 0.000000 0.000000 0.000000 0.000000 0.000000 0.046055
#
#
# Mechanical properties :
#
#
# Convention : Reuss Voigt Hill
#
# Bulk Modulus (GPa) = 44.77423 61.51724 53.14574
# Shear Modulus (GPa) = 16.88461 25.96071 21.42266
#
# Velocity S-wave (km/s) = 2.95793 3.66776 3.33180
# Velocity P-wave (km/s) = 5.90484 7.05790 6.50696
#
# Compressibility (1/GPa) = 0.02233427
#
# Stress axis : x y z
#
# Youngs Moduli (GPa) = 52.65338 74.23759 83.28204
#
# Poissons Ratio (x) = -0.12669 0.46288
# Poissons Ratio (y) = -0.08985 0.60099
# Poissons Ratio (z) = 0.29265 0.53572
#
# Static dielectric constant tensor:
#      x y z
#    x 1.683560 0.000000 0.000000 
#    y 0.000000 1.665240 0.000000 
#    z 0.000000 0.000000 1.699670 
# 
# From -- ./inp_files/24723.got.cif
#   From: 2010.05.17/outbox.cif.g08.bks.cpg/sg23_13_cif.got.tgz:24723.got - 2010.06.04 12:02:01.
