data_PCOD9332952
_publ_section_title
;
Structure prediction by ZEFSAII (Michael W. Deem and Ramdas Pophale) SiO2 
 PCOD9332952
Probable space group: I 21 21 21
;
_chemical_formula_sum "Si O2"
_cell_formula_units_Z 32
_cell_length_a 31.681500
_cell_length_b 11.170264
_cell_length_c 5.130226
_cell_angle_alpha 90.000000
_cell_angle_beta 90.000000
_cell_angle_gamma 90.000000
_cell_volume 1815.539367
_symmetry_space_group_name_H-M "I 21 21 21"
_symmetry_group_IT_number 24
_symmetry_cell_setting 'orthorhombic'
loop_
_space_group_symop_operation_xyz
x,y,z
-x,1/2-y,z
x,-y,1/2-z
1/2-x,y,-z
1/2+x,1/2+y,1/2+z
1/2-x,-y,1/2+z
1/2+x,1/2-y,-z
-x,1/2+y,1/2-z
loop_
_atom_site_type_symbol
_atom_site_label
_atom_site_fract_x
_atom_site_fract_y
_atom_site_fract_z
Si Si1 0.750000 0.585962 0.000000
Si Si2 0.512874 0.500000 0.250000
Si Si3 0.960660 0.839577 0.389830
Si Si4 0.073867 0.225567 0.615788
Si Si5 0.842214 0.586436 0.000078
O O1 0.749558 0.500000 0.250000
O O2 0.795794 0.647812 0.009098
O O3 0.482706 0.455424 0.016755
O O4 0.542302 0.610006 0.148721
O O5 0.927723 0.790945 0.605964
O O6 0.000000 0.750000 0.392353
O O7 0.941405 0.817726 0.105822
O O8 0.119030 0.175615 0.531485
O O9 0.847432 0.500000 0.250000
O O10 0.843209 0.500000 0.750000
#
# Coordination Sequence:
#
# PCOD9332952 Si02
#       5
#     4   4   8   8   8
#     4   8  16  28  44  66  94 126 156 186 240 302
#     4  10  22  38  50  68 104 138 164 220 256 274
#     4  10  22  34  48  69  93 128 173 208 243 290
#     4  11  21  33  50  72  93 131 173 200 242 301
#     4  10  18  30  47  69  97 129 159 197 243 295
#
# _framework density 17.625616000000001
#
# number of rings (size 3 to 8) (size 9 to 14) (size 15 to 20)
#    0.000    2.000    1.250    3.750    3.500    5.000 
#    0.000    0.000    0.000    0.000    0.000    0.000 
#    0.000    4.000    0.000    2.000    0.000    0.000 
#
# Total GULP energy -89149.482422 kJ/mol
# GULP energy per Si atom -5571.842651 kJ/mol
# Density = 1.758550 g / cm^3
# Si number density = 17.625616 Si / 1000 Ang^3
#
#
#
# Elastic Constant Matrix: (Units=GPa)
#
#
# Indices 1 2 3 4 5 6 
#
# 1 140.1570 39.2296 16.8058 0.0051 0.0004 -0.0003
# 2 39.2296 48.7491 17.3443 0.0090 0.0018 -0.0006
# 3 16.8058 17.3443 121.9496 0.0184 0.0029 -0.0023
# 4 0.0051 0.0090 0.0184 16.5132 0.0017 -0.0018
# 5 0.0004 0.0018 0.0029 0.0017 20.9276 -0.0003
# 6 -0.0003 -0.0006 -0.0023 -0.0018 -0.0003 27.0128
#
#
#
# Elastic Compliance Matrix: (Units=1/GPa)
#
#
# Indices 1 2 3 4 5 6 
#
# 1 0.009215 -0.007335 -0.000227 0.000001 0.000000 0.000000
# 2 -0.007335 0.027445 -0.002893 -0.000009 -0.000002 0.000000
# 3 -0.000227 -0.002893 0.008643 -0.000008 -0.000001 0.000001
# 4 0.000001 -0.000009 -0.000008 0.060557 -0.000005 0.000004
# 5 0.000000 -0.000002 -0.000001 -0.000005 0.047784 0.000000
# 6 0.000000 0.000000 0.000001 0.000004 0.000000 0.037020
#
#
# Mechanical properties :
#
#
# Convention : Reuss Voigt Hill
#
# Bulk Modulus (GPa) = 40.99304 50.84612 45.91958
# Shear Modulus (GPa) = 22.75795 28.72245 25.74020
#
# Velocity S-wave (km/s) = 3.59721 4.04119 3.82565
# Velocity P-wave (km/s) = 6.36878 7.11937 6.75451
#
# Compressibility (1/GPa) = 0.02439438
#
# Stress axis : x y z
#
# Youngs Moduli (GPa) = 108.51788 36.43662 115.70398
#
# Poissons Ratio (x) = 0.26726 0.02623
# Poissons Ratio (y) = 0.79597 0.33468
# Poissons Ratio (z) = 0.02460 0.10539
#
# Static dielectric constant tensor:
#      x y z
#    x 1.636970 0.000000 0.000000 
#    y 0.000000 1.646130 0.000000 
#    z 0.000000 0.000000 1.627470 
# 
# From -- ./inp_files/2425.got.cif
#   From: 2010.05.17/outbox.cif.g08.bks.cpg/sg24_2_cif.got.tgz:2425.got - 2010.06.04 00:33:39.
