data_PCOD9332651
_publ_section_title
;
Structure prediction by ZEFSAII (Michael W. Deem and Ramdas Pophale) SiO2 
 PCOD9332651
Probable space group: I 2 2 2
;
_chemical_formula_sum "Si O2"
_cell_formula_units_Z 24
_cell_length_a 15.000000
_cell_length_b 15.000000
_cell_length_c 12.000000
_cell_angle_alpha 90.000000
_cell_angle_beta 90.000000
_cell_angle_gamma 90.000000
_cell_volume 2700.000000
_symmetry_space_group_name_H-M "I 2 2 2"
_symmetry_group_IT_number 23
_symmetry_cell_setting 'orthorhombic'
loop_
_space_group_symop_operation_xyz
x,y,z
-x,-y,z
x,-y,-z
-x,y,-z
1/2+x,1/2+y,1/2+z
1/2-x,1/2-y,1/2+z
1/2+x,1/2-y,1/2-z
1/2-x,1/2+y,1/2-z
loop_
_atom_site_type_symbol
_atom_site_label
_atom_site_fract_x
_atom_site_fract_y
_atom_site_fract_z
Si Si1 0.645391 0.646697 0.114175
Si Si2 0.848107 0.574025 0.095201
Si Si3 0.606737 0.987100 0.842484
Si Si4 0.500000 0.500000 0.500000
Si Si5 0.500000 0.500000 0.000000
Si Si6 0.500000 0.797204 0.500000
Si Si7 0.181612 0.348411 0.513027
Si Si8 0.877139 0.150447 0.113291
O O1 0.747043 0.612845 0.092495
O O2 0.570056 0.572822 0.064567
O O3 0.635984 0.650764 0.251069
O O4 0.647782 0.749461 0.058060
O O5 0.865386 0.529985 0.215488
O O6 0.854694 0.500000 0.000000
O O7 0.927790 0.644185 0.068643
O O8 0.500000 0.000000 0.851395
O O9 0.629017 0.896280 0.911025
O O10 0.661171 0.073473 0.893057
O O11 0.434542 0.563568 0.573612
O O12 0.439541 0.734066 0.579024
O O13 0.284009 0.344473 0.460976
#
# Coordination Sequence:
#
# PCOD9332651 Si02
#       8
#     8   8   8   2   2   4   8   8
#     4  12  27  47  73 103 143 185 233 297 351 430
#     4  12  25  46  70 102 144 180 229 293 351 413
#     4  11  25  44  71 107 138 188 237 291 350 411
#     4  10  22  44  74  94 140 180 236 292 336 436
#     4  12  30  52  72 102 136 188 238 292 370 420
#     4  11  25  45  67 106 134 186 237 277 349 421
#     4  11  24  44  71 101 143 180 236 289 346 415
#     4  11  24  45  69 102 138 185 235 282 352 412
#
# _framework density 8.8888890000000007
#
# number of rings (size 3 to 8) (size 9 to 14) (size 15 to 20)
#    0.000    0.667    4.167    3.750    7.000    0.000 
#    0.000    0.000    0.000    0.000    0.000    0.000 
#    0.000    0.000    0.000    0.000    0.000    0.000 
#
# Total GULP energy -133682.235093 kJ/mol
# GULP energy per Si atom -5570.093129 kJ/mol
# Density = 0.886866 g / cm^3
# Si number density = 8.888889 Si / 1000 Ang^3
#
#
#
# Elastic Constant Matrix: (Units=GPa)
#
#
# Indices 1 2 3 4 5 6 
#
# 1 169.1253 70.9278 58.6129 0.0000 0.0000 0.0000
# 2 70.9278 158.6830 83.1865 0.0000 0.0000 0.0000
# 3 58.6129 83.1865 167.0652 0.0000 0.0000 0.0000
# 4 0.0000 0.0000 0.0000 35.0405 0.0000 0.0000
# 5 0.0000 0.0000 0.0000 0.0000 39.7772 0.0000
# 6 0.0000 0.0000 0.0000 0.0000 0.0000 52.8080
#
#
#
# Elastic Compliance Matrix: (Units=1/GPa)
#
#
# Indices 1 2 3 4 5 6 
#
# 1 0.007479 -0.002662 -0.001298 0.000000 0.000000 0.000000
# 2 -0.002662 0.009476 -0.003784 0.000000 0.000000 0.000000
# 3 -0.001298 -0.003784 0.008325 0.000000 0.000000 0.000000
# 4 0.000000 0.000000 0.000000 0.028538 0.000000 0.000000
# 5 0.000000 0.000000 0.000000 0.000000 0.025140 0.000000
# 6 0.000000 0.000000 0.000000 0.000000 0.000000 0.018937
#
#
# Mechanical properties :
#
#
# Convention : Reuss Voigt Hill
#
# Bulk Modulus (GPa) = 102.13872 102.25865 102.19868
# Shear Modulus (GPa) = 42.86374 44.33489 43.59931
#
# Velocity S-wave (km/s) = 4.91561 4.99925 4.95761
# Velocity P-wave (km/s) = 9.47604 9.53775 9.50695
#
# Compressibility (1/GPa) = 0.00979061
#
# Stress axis : x y z
#
# Youngs Moduli (GPa) = 133.70218 105.53325 120.11435
#
# Poissons Ratio (x) = 0.28098 0.15595
# Poissons Ratio (y) = 0.35598 0.45453
# Poissons Ratio (z) = 0.17359 0.39935
#
# Static dielectric constant tensor:
#      x y z
#    x 1.626070 0.000000 0.000000 
#    y 0.000000 1.636220 0.000000 
#    z 0.000000 0.000000 1.619720 
# 
# From -- ./inp_files/16754.got.cif
#   From: 2010.05.17/outbox.ucp.g08.bks.cvg/sg23_9_cif.got.tgz:16754.got - 2010.06.11 15:19:07.
