data_PCOD9332507
_publ_section_title
;
Structure prediction by ZEFSAII (Michael W. Deem and Ramdas Pophale) SiO2 
 PCOD9332507
Probable space group: I 2 2 2
;
_chemical_formula_sum "Si O2"
_cell_formula_units_Z 34
_cell_length_a 20.493006
_cell_length_b 9.629243
_cell_length_c 7.790832
_cell_angle_alpha 90.000000
_cell_angle_beta 90.000000
_cell_angle_gamma 90.000000
_cell_volume 1537.381509
_symmetry_space_group_name_H-M "I 2 2 2"
_symmetry_group_IT_number 23
_symmetry_cell_setting 'orthorhombic'
loop_
_space_group_symop_operation_xyz
x,y,z
-x,-y,z
x,-y,-z
-x,y,-z
1/2+x,1/2+y,1/2+z
1/2-x,1/2-y,1/2+z
1/2+x,1/2-y,1/2-z
1/2-x,1/2+y,1/2-z
loop_
_atom_site_type_symbol
_atom_site_label
_atom_site_fract_x
_atom_site_fract_y
_atom_site_fract_z
Si Si1 0.000000 0.000000 0.500000
Si Si2 0.330704 0.210346 0.205207
Si Si3 0.226413 0.012648 0.797933
Si Si4 0.384746 0.319167 0.851885
Si Si5 0.575784 0.833559 0.511495
O O1 0.951352 0.902163 0.392054
O O2 0.294890 0.064063 0.226229
O O3 0.276339 0.329171 0.236676
O O4 0.384431 0.228218 0.351950
O O5 0.362158 0.234479 0.019692
O O6 0.170842 0.931139 0.693891
O O7 0.211253 0.000000 0.000000
O O8 0.395508 0.221792 0.688922
O O9 0.500000 0.793785 0.500000
O O10 0.579832 0.000000 0.500000
#
# Coordination Sequence:
#
# PCOD9332507 Si02
#       5
#     2   8   8   8   8
#     4  12  24  48  86 114 156 198 254 330 378 460
#     4  12  27  49  75 113 155 198 254 314 382 457
#     4  12  26  46  74 113 149 203 245 312 385 448
#     4  12  26  47  77 114 150 198 255 313 380 452
#     4  11  28  50  76 110 151 202 256 315 383 457
#
# _framework density 22.115527
#
# number of rings (size 3 to 8) (size 9 to 14) (size 15 to 20)
#    0.000    0.235    4.706    2.824    6.588    0.000 
#    0.000    2.353    0.000    0.000    0.000    0.000 
#    0.000    0.000    0.000    0.000    0.000    0.000 
#
# Total GULP energy -95318.190575 kJ/mol
# GULP energy per Si atom -5606.952387 kJ/mol
# Density = 2.206519 g / cm^3
# Si number density = 22.115527 Si / 1000 Ang^3
#
#
#
# Elastic Constant Matrix: (Units=GPa)
#
#
# Indices 1 2 3 4 5 6 
#
# 1 120.5715 32.5760 57.9343 0.0000 0.0000 0.0000
# 2 32.5760 73.8790 30.0599 0.0000 0.0000 0.0000
# 3 57.9343 30.0599 174.0955 0.0000 0.0000 0.0000
# 4 0.0000 0.0000 0.0000 32.0743 0.0000 0.0000
# 5 0.0000 0.0000 0.0000 0.0000 20.9854 0.0000
# 6 0.0000 0.0000 0.0000 0.0000 0.0000 33.6591
#
#
#
# Elastic Compliance Matrix: (Units=1/GPa)
#
#
# Indices 1 2 3 4 5 6 
#
# 1 0.010653 -0.003501 -0.002940 0.000000 0.000000 0.000000
# 2 -0.003501 0.015709 -0.001547 0.000000 0.000000 0.000000
# 3 -0.002940 -0.001547 0.006990 0.000000 0.000000 0.000000
# 4 0.000000 0.000000 0.000000 0.031178 0.000000 0.000000
# 5 0.000000 0.000000 0.000000 0.000000 0.047652 0.000000
# 6 0.000000 0.000000 0.000000 0.000000 0.000000 0.029710
#
#
# Mechanical properties :
#
#
# Convention : Reuss Voigt Hill
#
# Bulk Modulus (GPa) = 57.55740 67.74294 62.65017
# Shear Modulus (GPa) = 30.55135 33.87547 32.21341
#
# Velocity S-wave (km/s) = 3.72081 3.91800 3.82068
# Velocity P-wave (km/s) = 6.67394 7.15301 6.91763
#
# Compressibility (1/GPa) = 0.01737396
#
# Stress axis : x y z
#
# Youngs Moduli (GPa) = 93.87457 63.65840 143.06872
#
# Poissons Ratio (x) = 0.22285 0.42068
# Poissons Ratio (y) = 0.32863 0.22139
# Poissons Ratio (z) = 0.27603 0.09851
#
# Static dielectric constant tensor:
#      x y z
#    x 1.808510 0.000000 0.000000 
#    y 0.000000 1.819280 0.000000 
#    z 0.000000 0.000000 1.780020 
# 
# From -- ./inp_files/11670.got.cif
#   From: 2010.05.17/outbox.cif.g08.bks.cpg/sg23_6_cif.got.tgz:11670.got - 2010.06.04 12:02:01.
