data_PCOD9332078
_publ_section_title
;
Structure prediction by ZEFSAII (Michael W. Deem and Ramdas Pophale) SiO2 
 PCOD9332078
Probable space group: I 2 2 2
;
_chemical_formula_sum "Si O2"
_cell_formula_units_Z 64
_cell_length_a 17.240925
_cell_length_b 9.357380
_cell_length_c 20.175662
_cell_angle_alpha 90.000000
_cell_angle_beta 90.000000
_cell_angle_gamma 90.000000
_cell_volume 3254.937266
_symmetry_space_group_name_H-M "I 2 2 2"
_symmetry_group_IT_number 23
_symmetry_cell_setting 'orthorhombic'
loop_
_space_group_symop_operation_xyz
x,y,z
-x,-y,z
x,-y,-z
-x,y,-z
1/2+x,1/2+y,1/2+z
1/2-x,1/2-y,1/2+z
1/2+x,1/2-y,1/2-z
1/2-x,1/2+y,1/2-z
loop_
_atom_site_type_symbol
_atom_site_label
_atom_site_fract_x
_atom_site_fract_y
_atom_site_fract_z
Si Si1 0.084639 0.431448 0.433806
Si Si2 0.827170 0.654956 0.642650
Si Si3 0.167759 0.554670 0.816824
Si Si4 0.198628 0.004775 0.792404
Si Si5 0.935097 0.120220 0.607531
Si Si6 0.937412 0.805868 0.242651
Si Si7 0.608332 0.240808 0.713688
Si Si8 0.208568 0.933539 0.426584
O O1 0.120021 0.500000 0.500000
O O2 0.132610 0.504087 0.374681
O O3 0.074833 0.261334 0.437414
O O4 0.000000 0.500000 0.427176
O O5 0.739702 0.608171 0.659871
O O6 0.866293 0.722059 0.708603
O O7 0.827289 0.774513 0.585284
O O8 0.239311 0.527335 0.766008
O O9 0.115083 0.677739 0.785181
O O10 0.115365 0.414301 0.817503
O O11 0.210516 0.573765 0.886916
O O12 0.116879 0.942402 0.768679
O O13 0.173790 0.158846 0.819155
O O14 0.953115 0.190058 0.678774
O O15 0.853339 0.038774 0.608359
O O16 0.000000 0.000000 0.590251
O O17 0.021323 0.798388 0.209357
O O18 0.216084 0.000000 0.500000
#
# Coordination Sequence:
#
# PCOD9332078 Si02
#       8
#     8   8   8   8   8   8   8   8
#     4  11  24  40  57  85 127 174 220 256 305 379
#     4  11  22  40  59  91 128 164 208 266 324 388
#     4  11  22  39  58  91 128 162 208 263 320 384
#     4  11  20  36  61  86 126 154 196 262 330 386
#     4  12  24  39  65  94 132 167 213 265 326 398
#     4  12  21  38  61  93 125 160 200 264 334 396
#     4  11  22  35  62  91 123 158 201 261 336 391
#     4  12  24  40  61  87 126 175 221 259 308 381
#
# _framework density 19.662438000000002
#
# number of rings (size 3 to 8) (size 9 to 14) (size 15 to 20)
#    0.000    0.625    3.750    6.750    1.750    1.250 
#    0.000    0.000    0.000    1.500    0.000    0.000 
#    0.000    0.000    0.000    0.000    0.000    0.000 
#
# Total GULP energy -178555.530654 kJ/mol
# GULP energy per Si atom -5579.860333 kJ/mol
# Density = 1.961769 g / cm^3
# Si number density = 19.662438 Si / 1000 Ang^3
#
#
#
# Elastic Constant Matrix: (Units=GPa)
#
#
# Indices 1 2 3 4 5 6 
#
# 1 98.8331 35.9978 10.2656 0.0000 0.0000 0.0000
# 2 35.9978 113.4066 24.3869 0.0000 0.0000 0.0000
# 3 10.2656 24.3869 43.9451 0.0000 0.0000 0.0000
# 4 0.0000 0.0000 0.0000 17.6836 0.0000 0.0000
# 5 0.0000 0.0000 0.0000 0.0000 17.3218 0.0000
# 6 0.0000 0.0000 0.0000 0.0000 0.0000 38.2755
#
#
#
# Elastic Compliance Matrix: (Units=1/GPa)
#
#
# Indices 1 2 3 4 5 6 
#
# 1 0.011462 -0.003478 -0.000748 0.000000 0.000000 0.000000
# 2 -0.003478 0.011068 -0.005330 0.000000 0.000000 0.000000
# 3 -0.000748 -0.005330 0.025888 0.000000 0.000000 0.000000
# 4 0.000000 0.000000 0.000000 0.056550 0.000000 0.000000
# 5 0.000000 0.000000 0.000000 0.000000 0.057731 0.000000
# 6 0.000000 0.000000 0.000000 0.000000 0.000000 0.026126
#
#
# Mechanical properties :
#
#
# Convention : Reuss Voigt Hill
#
# Bulk Modulus (GPa) = 34.12014 44.16505 39.14260
# Shear Modulus (GPa) = 22.96695 27.02514 24.99604
#
# Velocity S-wave (km/s) = 3.42140 3.71139 3.56934
# Velocity P-wave (km/s) = 5.74444 6.39345 6.07762
#
# Compressibility (1/GPa) = 0.02930820
#
# Stress axis : x y z
#
# Youngs Moduli (GPa) = 87.24190 90.35235 38.62797
#
# Poissons Ratio (x) = 0.31421 0.02888
# Poissons Ratio (y) = 0.30339 0.20587
# Poissons Ratio (z) = 0.06524 0.48154
#
# Static dielectric constant tensor:
#      x y z
#    x 1.686190 0.000000 0.000000 
#    y 0.000000 1.752890 0.000000 
#    z 0.000000 0.000000 1.744890 
# 
# From -- ./inp_files/27182.got.cif
#   From: 2010.05.17/outbox.cif.g08.bks.cpg/sg23_14_cif.got.tgz:27182.got - 2010.06.04 12:02:01.
