data_PCOD9332360
_publ_section_title
;
Structure prediction by ZEFSAII (Michael W. Deem and Ramdas Pophale) SiO2 
 PCOD9332360
Probable space group: I 2 2 2
;
_chemical_formula_sum "Si O2"
_cell_formula_units_Z 40
_cell_length_a 17.751311
_cell_length_b 11.408680
_cell_length_c 9.072444
_cell_angle_alpha 90.000000
_cell_angle_beta 90.000000
_cell_angle_gamma 90.000000
_cell_volume 1837.342529
_symmetry_space_group_name_H-M "I 2 2 2"
_symmetry_group_IT_number 23
_symmetry_cell_setting 'orthorhombic'
loop_
_space_group_symop_operation_xyz
x,y,z
-x,-y,z
x,-y,-z
-x,y,-z
1/2+x,1/2+y,1/2+z
1/2-x,1/2-y,1/2+z
1/2+x,1/2-y,1/2-z
1/2-x,1/2+y,1/2-z
loop_
_atom_site_type_symbol
_atom_site_label
_atom_site_fract_x
_atom_site_fract_y
_atom_site_fract_z
Si Si1 0.168164 0.065007 0.353740
Si Si2 0.526688 0.720821 0.831750
Si Si3 0.334237 0.847736 0.582503
Si Si4 0.080081 0.457011 0.194630
Si Si5 0.103040 0.903240 0.125946
O O1 0.104941 0.155390 0.308323
O O2 0.247079 0.124532 0.392551
O O3 0.141040 0.000000 0.500000
O O4 0.164749 0.967315 0.228371
O O5 0.551393 0.856387 0.805327
O O6 0.466792 0.654133 0.721768
O O7 0.500000 0.707322 0.000000
O O8 0.367208 0.897337 0.428624
O O9 0.355499 0.712933 0.571248
O O10 0.375888 0.919251 0.716391
O O11 0.000000 0.500000 0.138766
O O12 0.083067 0.000000 0.000000
#
# Coordination Sequence:
#
# PCOD9332360 Si02
#       5
#     8   8   8   8   8
#     4  12  26  46  74 103 154 198 238 320 386 437
#     4  12  27  47  76 111 152 197 255 319 385 454
#     4  11  25  47  74 108 150 195 256 316 369 452
#     4  11  23  45  76 106 143 202 254 306 375 449
#     4  12  28  49  78 111 146 200 259 309 379 467
#
# _framework density 21.770572000000001
#
# number of rings (size 3 to 8) (size 9 to 14) (size 15 to 20)
#    0.000    0.400    6.000    3.000    2.800    6.800 
#    0.000    0.000    0.000    0.000    0.000    0.000 
#    0.000    0.000    0.000    0.000    0.000    0.000 
#
# Total GULP energy -111404.973641 kJ/mol
# GULP energy per Si atom -5570.248682 kJ/mol
# Density = 2.172102 g / cm^3
# Si number density = 21.770572 Si / 1000 Ang^3
#
#
#
# Elastic Constant Matrix: (Units=GPa)
#
#
# Indices 1 2 3 4 5 6 
#
# 1 98.6925 14.4341 3.1533 0.0000 0.0000 0.0000
# 2 14.4341 146.8277 34.6928 0.0000 0.0000 0.0000
# 3 3.1533 34.6928 73.1213 0.0000 0.0000 0.0000
# 4 0.0000 0.0000 0.0000 -49.3595 0.0000 0.0000
# 5 0.0000 0.0000 0.0000 0.0000 7.3240 0.0000
# 6 0.0000 0.0000 0.0000 0.0000 0.0000 25.2276
#
#
#
# Elastic Compliance Matrix: (Units=1/GPa)
#
#
# Indices 1 2 3 4 5 6 
#
# 1 0.010280 -0.001020 0.000041 0.000000 0.000000 0.000000
# 2 -0.001020 0.007772 -0.003643 0.000000 0.000000 0.000000
# 3 0.000041 -0.003643 0.015403 0.000000 0.000000 0.000000
# 4 0.000000 0.000000 0.000000 -0.020260 0.000000 0.000000
# 5 0.000000 0.000000 0.000000 0.000000 0.136537 0.000000
# 6 0.000000 0.000000 0.000000 0.000000 0.000000 0.039639
#
#
# Mechanical properties :
#
#
# Convention : Reuss Voigt Hill
#
# Bulk Modulus (GPa) = 41.30665 47.02244 44.16455
# Shear Modulus (GPa) = 24.19112 14.39584 19.29348
#
# Velocity S-wave (km/s) = 3.33706 2.57427 2.98017
# Velocity P-wave (km/s) = 5.81917 5.52103 5.67206
#
# Compressibility (1/GPa) = 0.02420917
#
# Stress axis : x y z
#
# Youngs Moduli (GPa) = 97.27256 128.66910 64.92337
#
# Poissons Ratio (x) = 0.13127 -0.00264
# Poissons Ratio (y) = 0.09924 0.23654
# Poissons Ratio (z) = -0.00396 0.46879
#
# Static dielectric constant tensor:
#      x y z
#    x 1.903100 0.000000 0.000000 
#    y 0.000000 1.867690 0.000000 
#    z 0.000000 0.000000 1.835490 
# 
# From -- ./inp_files/10731.got.cif
#   From: 2010.05.17/outbox.cif.g08.bks.cpg/sg23_6_cif.got.tgz:10731.got - 2010.06.04 12:02:01.
