data_PCOD9332606
_publ_section_title
;
Structure prediction by ZEFSAII (Michael W. Deem and Ramdas Pophale) SiO2 
 PCOD9332606
Probable space group: I 2 2 2
;
_chemical_formula_sum "Si O2"
_cell_formula_units_Z 48
_cell_length_a 26.039330
_cell_length_b 8.849467
_cell_length_c 7.281812
_cell_angle_alpha 90.000000
_cell_angle_beta 90.000000
_cell_angle_gamma 90.000000
_cell_volume 1677.978461
_symmetry_space_group_name_H-M "I 2 2 2"
_symmetry_group_IT_number 23
_symmetry_cell_setting 'orthorhombic'
loop_
_space_group_symop_operation_xyz
x,y,z
-x,-y,z
x,-y,-z
-x,y,-z
1/2+x,1/2+y,1/2+z
1/2-x,1/2-y,1/2+z
1/2+x,1/2-y,1/2-z
1/2-x,1/2+y,1/2-z
loop_
_atom_site_type_symbol
_atom_site_label
_atom_site_fract_x
_atom_site_fract_y
_atom_site_fract_z
Si Si1 0.367887 0.500000 0.000000
Si Si2 0.706908 0.609513 0.736491
Si Si3 0.127073 0.000000 0.000000
Si Si4 0.957469 0.216231 0.151080
Si Si5 0.548526 0.250821 0.020221
Si Si6 0.577868 0.005290 0.317967
Si Si7 0.813188 0.555816 0.309906
O O1 0.326627 0.482099 0.161038
O O2 0.404642 0.362748 0.947834
O O3 0.669155 0.625732 0.562785
O O4 0.763857 0.548073 0.724231
O O5 0.705914 0.772700 0.827901
O O6 0.087527 0.090984 0.868932
O O7 0.992450 0.183844 0.351781
O O8 0.939568 0.377596 0.019673
O O9 0.000000 0.170899 0.000000
O O10 0.568948 0.157617 0.817589
O O11 0.551109 0.113153 0.166462
O O12 0.638171 0.038625 0.318307
O O13 0.835598 0.500000 0.500000
#
# Coordination Sequence:
#
# PCOD9332606 Si02
#       7
#     4   8   4   8   8   8   8
#     4  12  27  50  80 122 170 224 293 366 450 542
#     4  12  29  49  85 123 168 229 295 366 456 537
#     4  12  27  54  82 124 168 226 301 374 454 542
#     4  12  28  48  84 119 169 227 295 369 446 538
#     4  12  27  49  80 120 167 227 289 362 449 536
#     4  12  28  50  79 117 170 223 289 363 441 531
#     4  12  29  51  83 120 177 229 293 368 450 539
#
# _framework density 28.60585
#
# number of rings (size 3 to 8) (size 9 to 14) (size 15 to 20)
#    0.000    0.000    4.167    4.000    8.167    4.333 
#    0.000    1.667    0.000    0.000    0.000    0.000 
#    0.000    0.000    0.000    0.000    0.000    0.000 
#
# Total GULP energy -133868.063125 kJ/mol
# GULP energy per Si atom -5577.835964 kJ/mol
# Density = 2.854074 g / cm^3
# Si number density = 28.605850 Si / 1000 Ang^3
#
#
#
# Elastic Constant Matrix: (Units=GPa)
#
#
# Indices 1 2 3 4 5 6 
#
# 1 222.3587 39.4342 55.9394 0.0000 0.0000 0.0000
# 2 39.4342 153.3531 40.7301 0.0000 0.0000 0.0000
# 3 55.9394 40.7301 226.7177 0.0000 0.0000 0.0000
# 4 0.0000 0.0000 0.0000 45.2649 0.0000 0.0000
# 5 0.0000 0.0000 0.0000 0.0000 34.0424 0.0000
# 6 0.0000 0.0000 0.0000 0.0000 0.0000 48.9403
#
#
#
# Elastic Compliance Matrix: (Units=1/GPa)
#
#
# Indices 1 2 3 4 5 6 
#
# 1 0.004935 -0.000993 -0.001039 0.000000 0.000000 0.000000
# 2 -0.000993 0.007047 -0.001021 0.000000 0.000000 0.000000
# 3 -0.001039 -0.001021 0.004851 0.000000 0.000000 0.000000
# 4 0.000000 0.000000 0.000000 0.022092 0.000000 0.000000
# 5 0.000000 0.000000 0.000000 0.000000 0.029375 0.000000
# 6 0.000000 0.000000 0.000000 0.000000 0.000000 0.020433
#
#
# Mechanical properties :
#
#
# Convention : Reuss Voigt Hill
#
# Bulk Modulus (GPa) = 93.22836 97.18188 95.20512
# Shear Modulus (GPa) = 50.80522 56.73791 53.77157
#
# Velocity S-wave (km/s) = 4.21888 4.45841 4.34030
# Velocity P-wave (km/s) = 7.50955 7.78137 7.64667
#
# Compressibility (1/GPa) = 0.01072635
#
# Stress axis : x y z
#
# Youngs Moduli (GPa) = 202.64382 141.89576 206.15926
#
# Poissons Ratio (x) = 0.14090 0.21424
# Poissons Ratio (y) = 0.20122 0.21051
# Poissons Ratio (z) = 0.21059 0.14489
#
# Static dielectric constant tensor:
#      x y z
#    x 2.054190 0.000000 0.000000 
#    y 0.000000 2.278250 0.000000 
#    z 0.000000 0.000000 3.074670 
# 
# From -- ./inp_files/13396.got.cif
#   From: 2010.05.17/outbox.cif.g08.bks.cpg/sg23_7_cif.got.tgz:13396.got - 2010.06.04 12:02:01.
