data_PCOD9332949
_publ_section_title
;
Structure prediction by ZEFSAII (Michael W. Deem and Ramdas Pophale) SiO2 
 PCOD9332949
Probable space group: I 21 21 21
;
_chemical_formula_sum "Si O2"
_cell_formula_units_Z 40
_cell_length_a 5.401578
_cell_length_b 16.027443
_cell_length_c 24.136313
_cell_angle_alpha 90.000000
_cell_angle_beta 90.000000
_cell_angle_gamma 90.000000
_cell_volume 2089.564695
_symmetry_space_group_name_H-M "I 21 21 21"
_symmetry_group_IT_number 24
_symmetry_cell_setting 'orthorhombic'
loop_
_space_group_symop_operation_xyz
x,y,z
-x,1/2-y,z
x,-y,1/2-z
1/2-x,y,-z
1/2+x,1/2+y,1/2+z
1/2-x,-y,1/2+z
1/2+x,1/2-y,-z
-x,1/2+y,1/2-z
loop_
_atom_site_type_symbol
_atom_site_label
_atom_site_fract_x
_atom_site_fract_y
_atom_site_fract_z
Si Si1 0.750000 0.464797 0.313405
Si Si2 0.750000 0.196561 0.934855
Si Si3 0.250000 0.449022 0.154685
Si Si4 0.250000 0.226944 0.348403
Si Si5 0.750000 0.204477 0.228485
O O1 0.750000 0.500000 0.250000
O O2 0.501149 0.498740 0.342175
O O3 0.750000 0.365162 0.321676
O O4 0.998851 0.498740 0.342175
O O5 0.500000 0.250000 0.924334
O O6 0.750000 0.115566 0.896203
O O7 0.000000 0.250000 0.924334
O O8 0.750000 0.174564 0.000000
O O9 0.250000 0.389563 0.208851
O O10 0.500000 0.250000 0.379669
O O11 0.250000 0.287542 0.294516
O O12 0.000000 0.250000 0.379669
O O13 0.500000 0.250000 0.208444
O O14 0.000000 0.250000 0.208444
#
# Coordination Sequence:
#
# PCOD9332949 Si02
#       5
#     8   8   8   8   8
#     4  12  23  34  50  77 109 143 184 228 268 323
#     4  10  21  38  60  85 113 148 190 234 279 334
#     4  12  22  35  53  78 109 142 184 228 276 323
#     4  10  19  33  47  64  95 137 175 208 252 305
#     4  10  18  30  46  64  91 134 175 204 246 305
#
# _framework density 19.142742999999999
#
# number of rings (size 3 to 8) (size 9 to 14) (size 15 to 20)
#    0.000    1.200    0.000   10.200    0.000    0.000 
#    0.000    0.000    0.000    0.000    0.000    0.000 
#    0.000   16.000    0.000    0.000    0.000    0.000 
#
# Total GULP energy -111748.661411 kJ/mol
# GULP energy per Si atom -5587.433071 kJ/mol
# Density = 1.909917 g / cm^3
# Si number density = 19.142743 Si / 1000 Ang^3
#
#
#
# Elastic Constant Matrix: (Units=GPa)
#
#
# Indices 1 2 3 4 5 6 
#
# 1 226.6215 66.7623 27.5011 0.0000 0.0000 0.0000
# 2 66.7623 91.5026 12.2211 0.0000 0.0000 0.0000
# 3 27.5011 12.2211 59.0124 0.0000 0.0000 0.0000
# 4 0.0000 0.0000 0.0000 3.5096 0.0000 0.0000
# 5 0.0000 0.0000 0.0000 0.0000 -6.6622 0.0000
# 6 0.0000 0.0000 0.0000 0.0000 0.0000 43.3343
#
#
#
# Elastic Compliance Matrix: (Units=1/GPa)
#
#
# Indices 1 2 3 4 5 6 
#
# 1 0.005818 -0.003993 -0.001884 0.000000 0.000000 0.000000
# 2 -0.003993 0.013980 -0.001034 0.000000 0.000000 0.000000
# 3 -0.001884 -0.001034 0.018038 0.000000 0.000000 0.000000
# 4 0.000000 0.000000 0.000000 0.284932 0.000000 0.000000
# 5 0.000000 0.000000 0.000000 0.000000 -0.150100 0.000000
# 6 0.000000 0.000000 0.000000 0.000000 0.000000 0.023076
#
#
# Mechanical properties :
#
#
# Convention : Reuss Voigt Hill
#
# Bulk Modulus (GPa) = 41.64496 65.56726 53.60611
# Shear Modulus (GPa) = 22.98098 26.07979 24.53039
#
# Velocity S-wave (km/s) = 3.46859 3.69505 3.58361
# Velocity P-wave (km/s) = 6.15172 7.24781 6.72214
#
# Compressibility (1/GPa) = 0.02401251
#
# Stress axis : x y z
#
# Youngs Moduli (GPa) = 171.89115 71.52978 55.43882
#
# Poissons Ratio (x) = 0.28562 0.10446
# Poissons Ratio (y) = 0.68636 0.05734
# Poissons Ratio (z) = 0.32388 0.07399
#
# Static dielectric constant tensor:
#      x y z
#    x 1.821350 0.000000 0.000000 
#    y 0.000000 1.682720 0.000000 
#    z 0.000000 0.000000 1.637030 
# 
# From -- ./inp_files/3632.got.cif
#   From: 2010.05.17/outbox.cif.g08.bks.cpg/sg24_2_cif.got.tgz:3632.got - 2010.06.04 00:33:39.
