data_PCOD9332307
_publ_section_title
;
Structure prediction by ZEFSAII (Michael W. Deem and Ramdas Pophale) SiO2 
 PCOD9332307
Probable space group: I 2 2 2
;
_chemical_formula_sum "Si O2"
_cell_formula_units_Z 40
_cell_length_a 27.548383
_cell_length_b 5.432357
_cell_length_c 12.842803
_cell_angle_alpha 90.000000
_cell_angle_beta 90.000000
_cell_angle_gamma 90.000000
_cell_volume 1921.959518
_symmetry_space_group_name_H-M "I 2 2 2"
_symmetry_group_IT_number 23
_symmetry_cell_setting 'orthorhombic'
loop_
_space_group_symop_operation_xyz
x,y,z
-x,-y,z
x,-y,-z
-x,y,-z
1/2+x,1/2+y,1/2+z
1/2-x,1/2-y,1/2+z
1/2+x,1/2-y,1/2-z
1/2-x,1/2+y,1/2-z
loop_
_atom_site_type_symbol
_atom_site_label
_atom_site_fract_x
_atom_site_fract_y
_atom_site_fract_z
Si Si1 0.858668 0.520338 0.620561
Si Si2 0.555070 0.021268 0.723525
Si Si3 0.314717 0.620305 0.275662
Si Si4 0.262640 0.641358 0.891573
Si Si5 0.409751 0.502003 0.623300
O O1 0.872597 0.500000 0.500000
O O2 0.907023 0.583085 0.684524
O O3 0.839169 0.286592 0.685954
O O4 0.811141 0.693805 0.614810
O O5 0.557617 0.261551 0.650029
O O6 0.500000 0.000000 0.761270
O O7 0.571109 0.763710 0.666879
O O8 0.268899 0.514203 0.213728
O O9 0.289962 0.739844 0.376818
O O10 0.357657 0.454090 0.320442
O O11 0.264552 0.500000 0.000000
O O12 0.403703 0.500000 0.500000
#
# Coordination Sequence:
#
# PCOD9332307 Si02
#       5
#     8   8   8   8   8
#     4  11  23  41  65  92 130 176 222 281 340 403
#     4  11  25  45  70 101 133 174 229 288 347 410
#     4  11  24  39  63  97 135 175 225 273 331 405
#     4  12  23  39  66  94 134 180 226 274 336 406
#     4  11  25  44  70  99 138 177 223 283 343 410
#
# _framework density 20.812093000000001
#
# number of rings (size 3 to 8) (size 9 to 14) (size 15 to 20)
#    0.000    0.800    6.000    1.200    0.000    8.400 
#    0.000    0.000    0.000    2.400    0.000    0.000 
#    0.000    0.000    0.000    0.000    0.000    0.000 
#
# Total GULP energy -111468.900933 kJ/mol
# GULP energy per Si atom -5573.445047 kJ/mol
# Density = 2.076472 g / cm^3
# Si number density = 20.812093 Si / 1000 Ang^3
#
#
#
# Elastic Constant Matrix: (Units=GPa)
#
#
# Indices 1 2 3 4 5 6 
#
# 1 106.6182 19.0664 41.7626 0.0000 0.0000 0.0000
# 2 19.0664 66.6071 30.9564 0.0000 0.0000 0.0000
# 3 41.7626 30.9564 124.7959 0.0000 0.0000 0.0000
# 4 0.0000 0.0000 0.0000 21.6753 0.0000 0.0000
# 5 0.0000 0.0000 0.0000 0.0000 18.6226 0.0000
# 6 0.0000 0.0000 0.0000 0.0000 0.0000 26.0373
#
#
#
# Elastic Compliance Matrix: (Units=1/GPa)
#
#
# Indices 1 2 3 4 5 6 
#
# 1 0.010946 -0.001617 -0.003262 0.000000 0.000000 0.000000
# 2 -0.001617 0.017209 -0.003728 0.000000 0.000000 0.000000
# 3 -0.003262 -0.003728 0.010029 0.000000 0.000000 0.000000
# 4 0.000000 0.000000 0.000000 0.046135 0.000000 0.000000
# 5 0.000000 0.000000 0.000000 0.000000 0.053698 0.000000
# 6 0.000000 0.000000 0.000000 0.000000 0.000000 0.038407
#
#
# Mechanical properties :
#
#
# Convention : Reuss Voigt Hill
#
# Bulk Modulus (GPa) = 47.68551 53.51024 50.59787
# Shear Modulus (GPa) = 24.92172 27.01608 25.96890
#
# Velocity S-wave (km/s) = 3.46419 3.60682 3.53622
# Velocity P-wave (km/s) = 6.24203 6.56601 6.40607
#
# Compressibility (1/GPa) = 0.02097073
#
# Stress axis : x y z
#
# Youngs Moduli (GPa) = 91.35590 58.10980 99.70775
#
# Poissons Ratio (x) = 0.09398 0.32524
# Poissons Ratio (y) = 0.14776 0.37166
# Poissons Ratio (z) = 0.29800 0.21660
#
# Static dielectric constant tensor:
#      x y z
#    x 1.748880 0.000000 0.000000 
#    y 0.000000 2.044840 0.000000 
#    z 0.000000 0.000000 1.714390 
# 
# From -- ./inp_files/1697.got.cif
#   From: 2010.05.17/outbox.cif.g08.bks.cpg/sg23_1_cif.got.tgz:1697.got - 2010.06.04 12:02:01.
