data_PCOD9332382
_publ_section_title
;
Structure prediction by ZEFSAII (Michael W. Deem and Ramdas Pophale) SiO2 
 PCOD9332382
Probable space group: I 2 2 2
;
_chemical_formula_sum "Si O2"
_cell_formula_units_Z 40
_cell_length_a 18.389013
_cell_length_b 8.868549
_cell_length_c 11.825723
_cell_angle_alpha 90.000000
_cell_angle_beta 90.000000
_cell_angle_gamma 90.000000
_cell_volume 1928.584588
_symmetry_space_group_name_H-M "I 2 2 2"
_symmetry_group_IT_number 23
_symmetry_cell_setting 'orthorhombic'
loop_
_space_group_symop_operation_xyz
x,y,z
-x,-y,z
x,-y,-z
-x,y,-z
1/2+x,1/2+y,1/2+z
1/2-x,1/2-y,1/2+z
1/2+x,1/2-y,1/2-z
1/2-x,1/2+y,1/2-z
loop_
_atom_site_type_symbol
_atom_site_label
_atom_site_fract_x
_atom_site_fract_y
_atom_site_fract_z
Si Si1 0.635038 0.178951 0.480069
Si Si2 0.705879 0.351026 0.920589
Si Si3 0.889546 0.123553 0.203904
Si Si4 0.922042 0.327755 0.538808
Si Si5 0.450421 0.715681 0.280008
O O1 0.712619 0.212790 0.420544
O O2 0.630446 0.289110 0.588528
O O3 0.568000 0.204274 0.396560
O O4 0.636176 0.000000 0.500000
O O5 0.675148 0.373953 0.794627
O O6 0.706012 0.500000 0.000000
O O7 0.646613 0.245803 0.979390
O O8 0.963707 0.206041 0.243199
O O9 0.916086 0.950153 0.199520
O O10 0.923478 0.500000 0.500000
O O11 0.916348 0.299751 0.672649
O O12 0.000000 0.258631 0.500000
#
# Coordination Sequence:
#
# PCOD9332382 Si02
#       5
#     8   8   8   8   8
#     4  11  28  43  66 102 142 185 227 286 348 407
#     4  11  24  45  68 100 138 181 228 275 349 414
#     4  11  24  44  73  98 134 186 234 283 339 418
#     4  11  24  40  66 105 136 173 225 287 353 396
#     4  11  24  45  71  98 135 182 237 281 339 420
#
# _framework density 20.740600000000001
#
# number of rings (size 3 to 8) (size 9 to 14) (size 15 to 20)
#    0.000    1.000    4.000    1.200    5.600    5.200 
#    0.000    0.000    0.000    0.000    0.000    0.000 
#    0.000    0.000    0.000    0.000    0.000    0.000 
#
# Total GULP energy -111655.817643 kJ/mol
# GULP energy per Si atom -5582.790882 kJ/mol
# Density = 2.069339 g / cm^3
# Si number density = 20.740600 Si / 1000 Ang^3
#
#
#
# Elastic Constant Matrix: (Units=GPa)
#
#
# Indices 1 2 3 4 5 6 
#
# 1 57.8424 22.6713 14.2091 0.0000 0.0000 0.0000
# 2 22.6713 59.7624 32.9937 0.0000 0.0000 0.0000
# 3 14.2091 32.9937 124.2657 0.0000 0.0000 0.0000
# 4 0.0000 0.0000 0.0000 35.1796 0.0000 0.0000
# 5 0.0000 0.0000 0.0000 0.0000 33.7592 0.0000
# 6 0.0000 0.0000 0.0000 0.0000 0.0000 40.5899
#
#
#
# Elastic Compliance Matrix: (Units=1/GPa)
#
#
# Indices 1 2 3 4 5 6 
#
# 1 0.020319 -0.007529 -0.000324 0.000000 0.000000 0.000000
# 2 -0.007529 0.022397 -0.005086 0.000000 0.000000 0.000000
# 3 -0.000324 -0.005086 0.009435 0.000000 0.000000 0.000000
# 4 0.000000 0.000000 0.000000 0.028426 0.000000 0.000000
# 5 0.000000 0.000000 0.000000 0.000000 0.029622 0.000000
# 6 0.000000 0.000000 0.000000 0.000000 0.000000 0.024637
#
#
# Mechanical properties :
#
#
# Convention : Reuss Voigt Hill
#
# Bulk Modulus (GPa) = 38.06283 42.40207 40.23245
# Shear Modulus (GPa) = 29.50376 33.37217 31.43797
#
# Velocity S-wave (km/s) = 3.77571 4.01562 3.89751
# Velocity P-wave (km/s) = 6.11553 6.47986 6.30033
#
# Compressibility (1/GPa) = 0.02627235
#
# Stress axis : x y z
#
# Youngs Moduli (GPa) = 49.21489 44.64921 105.99238
#
# Poissons Ratio (x) = 0.33617 0.03438
# Poissons Ratio (y) = 0.37054 0.53904
# Poissons Ratio (z) = 0.01596 0.22707
#
# Static dielectric constant tensor:
#      x y z
#    x 1.740110 0.000000 0.000000 
#    y 0.000000 1.726730 0.000000 
#    z 0.000000 0.000000 1.791600 
# 
# From -- ./inp_files/8176.got.cif
#   From: 2010.05.17/outbox.cif.g08.bks.cpg/sg23_5_cif.got.tgz:8176.got - 2010.06.04 12:02:01.
