data_PCOD9332155
_publ_section_title
;
Structure prediction by ZEFSAII (Michael W. Deem and Ramdas Pophale) SiO2 
 PCOD9332155
Probable space group: I 2 2 2
;
_chemical_formula_sum "Si O2"
_cell_formula_units_Z 40
_cell_length_a 9.144561
_cell_length_b 24.863111
_cell_length_c 9.378577
_cell_angle_alpha 90.000000
_cell_angle_beta 90.000000
_cell_angle_gamma 90.000000
_cell_volume 2132.334230
_symmetry_space_group_name_H-M "I 2 2 2"
_symmetry_group_IT_number 23
_symmetry_cell_setting 'orthorhombic'
loop_
_space_group_symop_operation_xyz
x,y,z
-x,-y,z
x,-y,-z
-x,y,-z
1/2+x,1/2+y,1/2+z
1/2-x,1/2-y,1/2+z
1/2+x,1/2-y,1/2-z
1/2-x,1/2+y,1/2-z
loop_
_atom_site_type_symbol
_atom_site_label
_atom_site_fract_x
_atom_site_fract_y
_atom_site_fract_z
Si Si1 0.848943 0.096301 0.309950
Si Si2 0.668675 0.994460 0.327045
Si Si3 0.181401 0.890837 0.634715
Si Si4 0.896885 0.773171 0.363467
Si Si5 0.389494 0.704128 0.630810
O O1 0.785285 0.112381 0.465461
O O2 0.849167 0.147518 0.206340
O O3 0.019282 0.085236 0.341349
O O4 0.765204 0.042626 0.262581
O O5 0.715425 0.933868 0.291876
O O6 0.500000 0.000000 0.292595
O O7 0.687780 0.000000 0.500000
O O8 0.174847 0.829727 0.685349
O O9 0.764628 0.733356 0.398602
O O10 0.000000 0.783970 0.500000
O O11 0.012950 0.759629 0.239764
O O12 0.500000 0.695129 0.500000
#
# Coordination Sequence:
#
# PCOD9332155 Si02
#       5
#     8   8   8   8   8
#     4   9  17  33  52  77 110 145 188 233 281 349
#     4   9  17  28  49  84 113 138 183 242 297 335
#     4   9  16  32  54  75 108 150 186 231 284 340
#     4  11  21  40  57  86 119 158 202 244 286 349
#     4  11  23  36  59  86 119 161 198 242 295 347
#
# _framework density 18.758783999999999
#
# number of rings (size 3 to 8) (size 9 to 14) (size 15 to 20)
#    0.000    2.200    4.000    1.800    0.000    4.000 
#    3.600    0.000    0.000    9.600    0.000    5.600 
#    0.000    0.000    0.000    0.000    0.000    0.000 
#
# Total GULP energy -111358.727687 kJ/mol
# GULP energy per Si atom -5567.936384 kJ/mol
# Density = 1.871609 g / cm^3
# Si number density = 18.758784 Si / 1000 Ang^3
#
#
#
# Elastic Constant Matrix: (Units=GPa)
#
#
# Indices 1 2 3 4 5 6 
#
# 1 93.0329 81.2082 21.6407 -0.0006 0.0001 0.0000
# 2 81.2082 110.9380 21.7631 -0.0003 0.0000 0.0000
# 3 21.6407 21.7631 25.5188 -0.0030 0.0001 0.0001
# 4 -0.0006 -0.0003 -0.0030 11.5121 0.0000 0.0000
# 5 0.0001 0.0000 0.0001 0.0000 15.0903 0.0000
# 6 0.0000 0.0000 0.0001 0.0000 0.0000 31.8037
#
#
#
# Elastic Compliance Matrix: (Units=1/GPa)
#
#
# Indices 1 2 3 4 5 6 
#
# 1 0.031198 -0.021193 -0.008383 -0.000001 0.000000 0.000000
# 2 -0.021193 0.025222 -0.003537 -0.000001 0.000000 0.000000
# 3 -0.008383 -0.003537 0.049313 0.000013 0.000000 0.000000
# 4 -0.000001 -0.000001 0.000013 0.086865 0.000000 0.000000
# 5 0.000000 0.000000 0.000000 0.000000 0.066268 0.000000
# 6 0.000000 0.000000 0.000000 0.000000 0.000000 0.031443
#
#
# Mechanical properties :
#
#
# Convention : Reuss Voigt Hill
#
# Bulk Modulus (GPa) = 25.31282 53.19039 39.25160
# Shear Modulus (GPa) = 13.52435 18.67307 16.09871
#
# Velocity S-wave (km/s) = 2.68798 3.15847 2.93268
# Velocity P-wave (km/s) = 4.81215 6.45892 5.69537
#
# Compressibility (1/GPa) = 0.03950567
#
# Stress axis : x y z
#
# Youngs Moduli (GPa) = 32.05305 39.64854 20.27877
#
# Poissons Ratio (x) = 0.84027 0.17000
# Poissons Ratio (y) = 0.67930 0.07173
# Poissons Ratio (z) = 0.26870 0.14025
#
# Static dielectric constant tensor:
#      x y z
#    x 1.644220 0.000000 0.000000 
#    y 0.000000 1.661770 0.000000 
#    z 0.000000 0.000000 1.687680 
# 
# From -- ./inp_files/7095.got.cif
#   From: 2010.05.17/outbox.cif.g08.bks.cpg/sg23_4_cif.got.tgz:7095.got - 2010.06.04 12:02:01.
