data_PCOD9332775
_publ_section_title
;
Structure prediction by ZEFSAII (Michael W. Deem and Ramdas Pophale) SiO2 
 PCOD9332775
Probable space group: I 21 21 21
;
_chemical_formula_sum "Si O2"
_cell_formula_units_Z 36
_cell_length_a 7.281012
_cell_length_b 5.650444
_cell_length_c 38.785268
_cell_angle_alpha 90.000000
_cell_angle_beta 90.000000
_cell_angle_gamma 90.000000
_cell_volume 1595.662794
_symmetry_space_group_name_H-M "I 21 21 21"
_symmetry_group_IT_number 24
_symmetry_cell_setting 'orthorhombic'
loop_
_space_group_symop_operation_xyz
x,y,z
-x,1/2-y,z
x,-y,1/2-z
1/2-x,y,-z
1/2+x,1/2+y,1/2+z
1/2-x,-y,1/2+z
1/2+x,1/2-y,-z
-x,1/2+y,1/2-z
loop_
_atom_site_type_symbol
_atom_site_label
_atom_site_fract_x
_atom_site_fract_y
_atom_site_fract_z
Si Si1 0.692971 0.607360 0.068740
Si Si2 0.105466 0.500000 0.750000
Si Si3 0.750000 0.871321 0.000000
Si Si4 0.794274 0.016540 0.827284
Si Si5 0.000000 0.250000 0.970867
Si Si6 0.276658 0.980849 0.146661
O O1 0.500000 0.750000 0.073464
O O2 0.766997 0.576174 0.106822
O O3 0.780607 0.735588 0.035835
O O4 0.656208 0.345900 0.054113
O O5 0.203645 0.450965 0.786188
O O6 0.000000 0.750000 0.756573
O O7 0.924323 0.037705 0.993152
O O8 0.711228 0.255950 0.843412
O O9 0.712422 0.757223 0.834271
O O10 0.003249 0.999150 0.843431
#
# Coordination Sequence:
#
# PCOD9332775 Si02
#       6
#     8   4   4   8   4   8
#     4  10  19  31  48  67  92 124 166 223 268 312
#     4  12  16  24  34  52  86 116 158 206 250 290
#     4  10  22  34  52  76  98 132 172 226 288 320
#     4  10  17  25  37  59  82 120 158 208 257 293
#     4  10  20  36  52  72 100 130 168 224 282 324
#     4  10  17  26  40  59  82 114 161 206 258 290
#
# _framework density 22.561156
#
# number of rings (size 3 to 8) (size 9 to 14) (size 15 to 20)
#    0.000    1.778    6.667    2.000    3.111    0.000 
#    0.000    0.000    0.000    0.000    0.000    0.000 
#    0.000    0.000    0.000    0.000    0.000    0.000 
#
# Total GULP energy -100286.000770 kJ/mol
# GULP energy per Si atom -5571.444487 kJ/mol
# Density = 2.250981 g / cm^3
# Si number density = 22.561156 Si / 1000 Ang^3
#
#
#
# Elastic Constant Matrix: (Units=GPa)
#
#
# Indices 1 2 3 4 5 6 
#
# 1 39.7255 4.2494 8.2119 0.0000 0.0000 0.0000
# 2 4.2494 174.9715 52.9067 0.0000 0.0000 0.0000
# 3 8.2119 52.9067 202.1060 0.0000 0.0000 0.0000
# 4 0.0000 0.0000 0.0000 13.4824 0.0000 0.0000
# 5 0.0000 0.0000 0.0000 0.0000 25.4459 0.0000
# 6 0.0000 0.0000 0.0000 0.0000 0.0000 4.4870
#
#
#
# Elastic Compliance Matrix: (Units=1/GPa)
#
#
# Indices 1 2 3 4 5 6 
#
# 1 0.025404 -0.000331 -0.000946 0.000000 0.000000 0.000000
# 2 -0.000331 0.006211 -0.001612 0.000000 0.000000 0.000000
# 3 -0.000946 -0.001612 0.005408 0.000000 0.000000 0.000000
# 4 0.000000 0.000000 0.000000 0.074171 0.000000 0.000000
# 5 0.000000 0.000000 0.000000 0.000000 0.039299 0.000000
# 6 0.000000 0.000000 0.000000 0.000000 0.000000 0.222864
#
#
# Mechanical properties :
#
#
# Convention : Reuss Voigt Hill
#
# Bulk Modulus (GPa) = 32.00528 60.83767 46.42148
# Shear Modulus (GPa) = 12.83534 32.11206 22.47370
#
# Velocity S-wave (km/s) = 2.38778 3.77680 3.15957
# Velocity P-wave (km/s) = 4.67106 6.78551 5.82503
#
# Compressibility (1/GPa) = 0.03124484
#
# Stress axis : x y z
#
# Youngs Moduli (GPa) = 39.36451 161.00978 184.89736
#
# Poissons Ratio (x) = 0.05330 0.17482
# Poissons Ratio (y) = 0.01303 0.29813
# Poissons Ratio (z) = 0.03722 0.25961
#
# Static dielectric constant tensor:
#      x y z
#    x 1.947170 0.000000 0.000000 
#    y 0.000000 1.806010 0.000000 
#    z 0.000000 0.000000 1.828690 
# 
# From -- ./inp_files/38507.got.cif
#   From: 2010.05.17/outbox.cif.g08.bks.cpg/sg24_20_cif.got.tgz:38507.got - 2010.06.04 00:33:39.
