data_PCOD9332704
_publ_section_title
;
Structure prediction by ZEFSAII (Michael W. Deem and Ramdas Pophale) SiO2 
 PCOD9332704
Probable space group: I 21 21 21
;
_chemical_formula_sum "Si O2"
_cell_formula_units_Z 36
_cell_length_a 10.282656
_cell_length_b 9.104494
_cell_length_c 18.695005
_cell_angle_alpha 90.000000
_cell_angle_beta 90.000000
_cell_angle_gamma 90.000000
_cell_volume 1750.196080
_symmetry_space_group_name_H-M "I 21 21 21"
_symmetry_group_IT_number 24
_symmetry_cell_setting 'orthorhombic'
loop_
_space_group_symop_operation_xyz
x,y,z
-x,1/2-y,z
x,-y,1/2-z
1/2-x,y,-z
1/2+x,1/2+y,1/2+z
1/2-x,-y,1/2+z
1/2+x,1/2-y,-z
-x,1/2+y,1/2-z
loop_
_atom_site_type_symbol
_atom_site_label
_atom_site_fract_x
_atom_site_fract_y
_atom_site_fract_z
Si Si1 0.633211 0.837007 0.782777
Si Si2 0.155725 0.557929 0.068484
Si Si3 0.000000 0.250000 0.930724
Si Si4 0.770961 0.754464 0.364718
Si Si5 0.378805 0.994031 0.535630
O O1 0.500000 0.750000 0.790973
O O2 0.710727 0.757338 0.719777
O O3 0.609146 0.000000 0.750000
O O4 0.698332 0.854147 0.860486
O O5 0.154456 0.386986 0.094763
O O6 0.003696 0.589980 0.054197
O O7 0.250000 0.571213 0.000000
O O8 0.122627 0.292048 0.883270
O O9 0.059363 0.121357 0.979213
O O10 0.824523 0.603850 0.398668
O O11 0.250000 0.064544 0.500000
#
# Coordination Sequence:
#
# PCOD9332704 Si02
#       5
#     8   8   4   8   8
#     4  10  22  37  60  83 114 152 195 235 284 336
#     4  11  18  33  56  81 112 151 193 228 281 351
#     4  10  16  26  52  84 120 138 184 244 296 320
#     4  10  17  30  53  85 116 145 188 243 290 328
#     4  10  17  28  52  88 115 143 183 244 287 326
#
# _framework density 20.569123000000001
#
# number of rings (size 3 to 8) (size 9 to 14) (size 15 to 20)
#    0.000    1.778    4.444    3.333    0.000    0.000 
#    0.000    1.111    7.333    1.333    0.000    0.000 
#    0.000    0.000    0.000    0.000    0.000    0.000 
#
# Total GULP energy -100414.962820 kJ/mol
# GULP energy per Si atom -5578.609046 kJ/mol
# Density = 2.052231 g / cm^3
# Si number density = 20.569123 Si / 1000 Ang^3
#
#
#
# Elastic Constant Matrix: (Units=GPa)
#
#
# Indices 1 2 3 4 5 6 
#
# 1 120.2304 3.7298 53.5561 0.0000 0.0000 0.0000
# 2 3.7298 34.1723 19.5695 0.0000 0.0000 0.0000
# 3 53.5561 19.5695 179.8575 0.0000 0.0000 0.0000
# 4 0.0000 0.0000 0.0000 -2.7721 0.0000 0.0000
# 5 0.0000 0.0000 0.0000 0.0000 27.1920 0.0000
# 6 0.0000 0.0000 0.0000 0.0000 0.0000 0.3121
#
#
#
# Elastic Compliance Matrix: (Units=1/GPa)
#
#
# Indices 1 2 3 4 5 6 
#
# 1 0.009602 0.000628 -0.002928 0.000000 0.000000 0.000000
# 2 0.000628 0.031249 -0.003587 0.000000 0.000000 0.000000
# 3 -0.002928 -0.003587 0.006822 0.000000 0.000000 0.000000
# 4 0.000000 0.000000 0.000000 -0.360739 0.000000 0.000000
# 5 0.000000 0.000000 0.000000 0.000000 0.036775 0.000000
# 6 0.000000 0.000000 0.000000 0.000000 0.000000 3.203998
#
#
# Mechanical properties :
#
#
# Convention : Reuss Voigt Hill
#
# Bulk Modulus (GPa) = 27.85472 54.21899 41.03686
# Shear Modulus (GPa) = 1.69408 22.10673 11.90041
#
# Velocity S-wave (km/s) = 0.90851 3.28190 2.40793
# Velocity P-wave (km/s) = 3.83040 6.38575 5.26544
#
# Compressibility (1/GPa) = 0.03590055
#
# Stress axis : x y z
#
# Youngs Moduli (GPa) = 104.14574 32.00083 146.58452
#
# Poissons Ratio (x) = -0.02011 0.42913
# Poissons Ratio (y) = -0.06545 0.52583
# Poissons Ratio (z) = 0.30489 0.11479
#
# Static dielectric constant tensor:
#      x y z
#    x 1.754190 0.000000 0.000000 
#    y 0.000000 1.597150 0.000000 
#    z 0.000000 0.000000 1.760440 
# 
# From -- ./inp_files/19564.got.cif
#   From: 2010.05.17/outbox.cif.g08.bks.cpg/sg24_10_cif.got.tgz:19564.got - 2010.06.04 00:33:39.
