data_PCOD9332777
_publ_section_title
;
Structure prediction by ZEFSAII (Michael W. Deem and Ramdas Pophale) SiO2 
 PCOD9332777
Probable space group: I 21 21 21
;
_chemical_formula_sum "Si O2"
_cell_formula_units_Z 32
_cell_length_a 32.440931
_cell_length_b 7.049947
_cell_length_c 5.360553
_cell_angle_alpha 90.000000
_cell_angle_beta 90.000000
_cell_angle_gamma 90.000000
_cell_volume 1225.995160
_symmetry_space_group_name_H-M "I 21 21 21"
_symmetry_group_IT_number 24
_symmetry_cell_setting 'orthorhombic'
loop_
_space_group_symop_operation_xyz
x,y,z
-x,1/2-y,z
x,-y,1/2-z
1/2-x,y,-z
1/2+x,1/2+y,1/2+z
1/2-x,-y,1/2+z
1/2+x,1/2-y,-z
-x,1/2+y,1/2-z
loop_
_atom_site_type_symbol
_atom_site_label
_atom_site_fract_x
_atom_site_fract_y
_atom_site_fract_z
Si Si1 0.417414 0.707255 0.014117
Si Si2 0.951862 0.222670 0.015809
Si Si3 0.708675 0.776789 0.667292
Si Si4 0.323450 0.712869 0.176303
O O1 0.439240 0.801026 0.248672
O O2 0.369132 0.693031 0.068711
O O3 0.426869 0.797981 0.750447
O O4 0.437815 0.497832 0.998982
O O5 0.000000 0.250000 0.060517
O O6 0.750000 0.748726 0.500000
O O7 0.675602 0.706923 0.459441
O O8 0.704821 0.000000 0.750000
O O9 0.703086 0.695797 0.949387
O O10 0.307860 0.500000 0.250000
#
# Coordination Sequence:
#
# PCOD9332777 Si02
#       4
#     8   8   8   8
#     4  10  19  31  44  63  82 107 143 179 207 249
#     4  10  19  30  45  61  79 102 134 181 220 248
#     4  10  18  25  34  54  76 101 138 174 195 219
#     4  10  17  26  41  52  75 108 133 174 203 222
#
# _framework density 26.101246
#
# number of rings (size 3 to 8) (size 9 to 14) (size 15 to 20)
#    0.000    2.000    2.500    5.250    7.000    0.000 
#    0.000    0.000    0.000    0.000    0.000    0.000 
#    0.000    0.000    0.000    0.000    0.000    0.000 
#
# Total GULP energy -89255.390835 kJ/mol
# GULP energy per Si atom -5578.461927 kJ/mol
# Density = 2.604184 g / cm^3
# Si number density = 26.101246 Si / 1000 Ang^3
#
#
#
# Elastic Constant Matrix: (Units=GPa)
#
#
# Indices 1 2 3 4 5 6 
#
# 1 177.1997 10.8379 76.4121 0.0000 0.0000 0.0000
# 2 10.8379 122.4756 23.2727 0.0000 0.0000 0.0000
# 3 76.4121 23.2727 324.8553 0.0000 0.0000 0.0000
# 4 0.0000 0.0000 0.0000 -30.1077 0.0000 0.0000
# 5 0.0000 0.0000 0.0000 0.0000 48.9005 0.0000
# 6 0.0000 0.0000 0.0000 0.0000 0.0000 -9.0814
#
#
#
# Elastic Compliance Matrix: (Units=1/GPa)
#
#
# Indices 1 2 3 4 5 6 
#
# 1 0.006290 -0.000279 -0.001459 0.000000 0.000000 0.000000
# 2 -0.000279 0.008290 -0.000528 0.000000 0.000000 0.000000
# 3 -0.001459 -0.000528 0.003459 0.000000 0.000000 0.000000
# 4 0.000000 0.000000 0.000000 -0.033214 0.000000 0.000000
# 5 0.000000 0.000000 0.000000 0.000000 0.020450 0.000000
# 6 0.000000 0.000000 0.000000 0.000000 0.000000 -0.110116
#
#
# Mechanical properties :
#
#
# Convention : Reuss Voigt Hill
#
# Bulk Modulus (GPa) = 74.04495 93.95290 83.99892
# Shear Modulus (GPa) = -52.18930 36.20947 -7.98992
#
# Velocity S-wave (km/s) = -4.47642 3.72865 -1.75151
# Velocity P-wave (km/s) = 1.30849 7.38991 5.30674
#
# Compressibility (1/GPa) = 0.01350531
#
# Stress axis : x y z
#
# Youngs Moduli (GPa) = 158.98796 120.62765 289.06493
#
# Poissons Ratio (x) = 0.03369 0.42188
# Poissons Ratio (y) = 0.04440 0.15269
# Poissons Ratio (z) = 0.23204 0.06372
#
# Static dielectric constant tensor:
#      x y z
#    x 2.052220 0.000000 0.000000 
#    y 0.000000 2.058240 0.000000 
#    z 0.000000 0.000000 2.228750 
# 
# From -- ./inp_files/7450.got.cif
#   From: 2010.05.17/outbox.cif.g08.bks.cpg/sg24_4_cif.got.tgz:7450.got - 2010.06.04 00:33:39.
