data_PCOD9332605
_publ_section_title
;
Structure prediction by ZEFSAII (Michael W. Deem and Ramdas Pophale) SiO2 
 PCOD9332605
Probable space group: I 2 2 2
;
_chemical_formula_sum "Si O2"
_cell_formula_units_Z 26
_cell_length_a 7.637402
_cell_length_b 29.201447
_cell_length_c 5.359745
_cell_angle_alpha 90.000000
_cell_angle_beta 90.000000
_cell_angle_gamma 90.000000
_cell_volume 1195.347426
_symmetry_space_group_name_H-M "I 2 2 2"
_symmetry_group_IT_number 23
_symmetry_cell_setting 'orthorhombic'
loop_
_space_group_symop_operation_xyz
x,y,z
-x,-y,z
x,-y,-z
-x,y,-z
1/2+x,1/2+y,1/2+z
1/2-x,1/2-y,1/2+z
1/2+x,1/2-y,1/2-z
1/2-x,1/2+y,1/2-z
loop_
_atom_site_type_symbol
_atom_site_label
_atom_site_fract_x
_atom_site_fract_y
_atom_site_fract_z
Si Si1 0.292768 0.622266 0.771923
Si Si2 0.500000 0.500000 0.500000
Si Si3 0.802837 0.274795 0.903025
Si Si4 0.314496 0.415935 0.730461
O O1 0.264132 0.675069 0.829071
O O2 0.500277 0.611392 0.751161
O O3 0.218495 0.605780 0.506927
O O4 0.225965 0.592323 0.005024
O O5 0.377538 0.467071 0.665700
O O6 0.795790 0.245297 0.647266
O O7 0.000000 0.278055 0.000000
#
# Coordination Sequence:
#
# PCOD9332605 Si02
#       4
#     8   2   8   8
#     4   9  19  34  50  80 110 155 184 237 303 337
#     4   8  16  30  48  98 110 146 192 238 314 326
#     4  12  27  41  62  87 118 162 211 261 298 365
#     4   9  18  30  59  79 121 148 186 252 282 373
#
# _framework density 21.750997000000002
#
# number of rings (size 3 to 8) (size 9 to 14) (size 15 to 20)
#    0.000    2.462    0.000    2.769   12.923    9.846 
#    0.000    0.000    0.000    0.000    0.000   25.846 
#    0.000    0.000    0.000    0.000    0.000    0.000 
#
# Total GULP energy -72536.059912 kJ/mol
# GULP energy per Si atom -5579.696916 kJ/mol
# Density = 2.170149 g / cm^3
# Si number density = 21.750997 Si / 1000 Ang^3
#
#
#
# Elastic Constant Matrix: (Units=GPa)
#
#
# Indices 1 2 3 4 5 6 
#
# 1 55.0525 28.5677 10.9954 0.0304 -0.0040 -0.0021
# 2 28.5677 176.3477 83.9972 0.0652 -0.0024 -0.0067
# 3 10.9954 83.9972 239.5649 0.2511 -0.0083 -0.0201
# 4 0.0304 0.0652 0.2511 147.4940 0.0119 0.0238
# 5 -0.0040 -0.0024 -0.0083 0.0119 12.9822 -0.0025
# 6 -0.0021 -0.0067 -0.0201 0.0238 -0.0025 3.7479
#
#
#
# Elastic Compliance Matrix: (Units=1/GPa)
#
#
# Indices 1 2 3 4 5 6 
#
# 1 0.019845 -0.003339 0.000260 -0.000003 0.000006 0.000007
# 2 -0.003339 0.007369 -0.002431 0.000002 -0.000001 -0.000002
# 3 0.000260 -0.002431 0.005015 -0.000008 0.000003 0.000023
# 4 -0.000003 0.000002 -0.000008 0.006780 -0.000006 -0.000043
# 5 0.000006 -0.000001 0.000003 -0.000006 0.077028 0.000051
# 6 0.000007 -0.000002 0.000023 -0.000043 0.000051 0.266815
#
#
# Mechanical properties :
#
#
# Convention : Reuss Voigt Hill
#
# Bulk Modulus (GPa) = 47.14759 79.78730 63.46745
# Shear Modulus (GPa) = 12.47066 56.00514 34.23790
#
# Velocity S-wave (km/s) = 2.39704 5.07978 3.97178
# Velocity P-wave (km/s) = 5.42072 8.43608 7.09054
#
# Compressibility (1/GPa) = 0.02120999
#
# Stress axis : x y z
#
# Youngs Moduli (GPa) = 50.39043 135.70046 199.41996
#
# Poissons Ratio (x) = 0.45304 -0.05180
# Poissons Ratio (y) = 0.16823 0.48471
# Poissons Ratio (z) = -0.01309 0.32983
#
# Static dielectric constant tensor:
#      x y z
#    x 1.518520 0.000110 -0.000250 
#    y 0.000110 1.759290 0.000000 
#    z -0.000250 0.000000 1.934820 
# 
# From -- ./inp_files/611.got.cif
#   From: 2010.05.17/outbox.cif.g08.bks.cpg/sg23_1_cif.got.tgz:611.got - 2010.06.04 12:02:01.
