data_PCOD9332503
_publ_section_title
;
Structure prediction by ZEFSAII (Michael W. Deem and Ramdas Pophale) SiO2 
 PCOD9332503
Probable space group: I 2 2 2
;
_chemical_formula_sum "Si O2"
_cell_formula_units_Z 24
_cell_length_a 7.900974
_cell_length_b 7.037714
_cell_length_c 16.562596
_cell_angle_alpha 90.000000
_cell_angle_beta 90.000000
_cell_angle_gamma 90.000000
_cell_volume 920.959761
_symmetry_space_group_name_H-M "I 2 2 2"
_symmetry_group_IT_number 23
_symmetry_cell_setting 'orthorhombic'
loop_
_space_group_symop_operation_xyz
x,y,z
-x,-y,z
x,-y,-z
-x,y,-z
1/2+x,1/2+y,1/2+z
1/2-x,1/2-y,1/2+z
1/2+x,1/2-y,1/2-z
1/2-x,1/2+y,1/2-z
loop_
_atom_site_type_symbol
_atom_site_label
_atom_site_fract_x
_atom_site_fract_y
_atom_site_fract_z
Si Si1 0.904188 0.201613 0.419284
Si Si2 0.808117 0.538799 0.844217
Si Si3 0.198206 0.029603 0.834640
O O1 0.840346 0.383996 0.368218
O O2 0.000000 0.258420 0.500000
O O3 0.722260 0.098132 0.420021
O O4 0.000000 0.000000 0.393202
O O5 0.763366 0.756238 0.861085
O O6 0.710983 0.476580 0.762358
O O7 0.000000 0.500000 0.819944
O O8 0.000000 0.000000 0.856901
#
# Coordination Sequence:
#
# PCOD9332503 Si02
#       3
#     8   8   8
#     4  11  27  49  75 118 176 230 282 352 444 531
#     4  12  24  43  83 130 171 218 295 379 438 513
#     4  12  24  45  82 128 168 223 298 372 438 519
#
# _framework density 26.059771000000001
#
# number of rings (size 3 to 8) (size 9 to 14) (size 15 to 20)
#    0.000    0.333    6.667    1.000    4.667    1.333 
#    0.000    6.667    0.000    8.000    0.000    2.333 
#    0.000    0.000    0.000    0.000    0.000    0.000 
#
# Total GULP energy -66832.961640 kJ/mol
# GULP energy per Si atom -5569.413470 kJ/mol
# Density = 2.600046 g / cm^3
# Si number density = 26.059771 Si / 1000 Ang^3
#
#
#
# Elastic Constant Matrix: (Units=GPa)
#
#
# Indices 1 2 3 4 5 6 
#
# 1 104.1732 50.7526 49.0827 0.0000 0.0000 0.0000
# 2 50.7526 193.2924 40.0187 0.0000 0.0000 0.0000
# 3 49.0827 40.0187 116.5403 0.0000 0.0000 0.0000
# 4 0.0000 0.0000 0.0000 33.3483 0.0000 0.0000
# 5 0.0000 0.0000 0.0000 0.0000 55.5567 0.0000
# 6 0.0000 0.0000 0.0000 0.0000 0.0000 49.6925
#
#
#
# Elastic Compliance Matrix: (Units=1/GPa)
#
#
# Indices 1 2 3 4 5 6 
#
# 1 0.012970 -0.002449 -0.004622 0.000000 0.000000 0.000000
# 2 -0.002449 0.006032 -0.001040 0.000000 0.000000 0.000000
# 3 -0.004622 -0.001040 0.010884 0.000000 0.000000 0.000000
# 4 0.000000 0.000000 0.000000 0.029987 0.000000 0.000000
# 5 0.000000 0.000000 0.000000 0.000000 0.018000 0.000000
# 6 0.000000 0.000000 0.000000 0.000000 0.000000 0.020124
#
#
# Mechanical properties :
#
#
# Convention : Reuss Voigt Hill
#
# Bulk Modulus (GPa) = 73.17703 77.07935 75.12819
# Shear Modulus (GPa) = 42.09763 45.99630 44.04696
#
# Velocity S-wave (km/s) = 4.02360 4.20578 4.11570
# Velocity P-wave (km/s) = 7.05175 7.29568 7.17475
#
# Compressibility (1/GPa) = 0.01366549
#
# Stress axis : x y z
#
# Youngs Moduli (GPa) = 77.10152 165.78915 91.87540
#
# Poissons Ratio (x) = 0.40596 0.42461
# Poissons Ratio (y) = 0.18879 0.09555
# Poissons Ratio (z) = 0.35634 0.17241
#
# Static dielectric constant tensor:
#      x y z
#    x 2.431000 0.000000 0.000000 
#    y 0.000000 2.158110 0.000000 
#    z 0.000000 0.000000 1.996430 
# 
# From -- ./inp_files/19427.got.cif
#   From: 2010.05.17/outbox.cif.g08.bks.cpg/sg23_10_cif.got.tgz:19427.got - 2010.06.04 12:02:01.
