data_PCOD9332280
_publ_section_title
;
Structure prediction by ZEFSAII (Michael W. Deem and Ramdas Pophale) SiO2 
 PCOD9332280
Probable space group: I 2 2 2
;
_chemical_formula_sum "Si O2"
_cell_formula_units_Z 38
_cell_length_a 9.181783
_cell_length_b 25.362412
_cell_length_c 7.587601
_cell_angle_alpha 90.000000
_cell_angle_beta 90.000000
_cell_angle_gamma 90.000000
_cell_volume 1766.941059
_symmetry_space_group_name_H-M "I 2 2 2"
_symmetry_group_IT_number 23
_symmetry_cell_setting 'orthorhombic'
loop_
_space_group_symop_operation_xyz
x,y,z
-x,-y,z
x,-y,-z
-x,y,-z
1/2+x,1/2+y,1/2+z
1/2-x,1/2-y,1/2+z
1/2+x,1/2-y,1/2-z
1/2-x,1/2+y,1/2-z
loop_
_atom_site_type_symbol
_atom_site_label
_atom_site_fract_x
_atom_site_fract_y
_atom_site_fract_z
Si Si1 0.530660 0.817830 0.793822
Si Si2 0.231101 0.254720 0.877236
Si Si3 0.500000 0.000000 0.000000
Si Si4 0.423196 0.074488 0.320542
Si Si5 0.500000 0.326053 0.500000
Si Si6 0.117395 0.136218 0.363194
O O1 0.673955 0.784800 0.757946
O O2 0.398706 0.785766 0.713415
O O3 0.529461 0.876445 0.724399
O O4 0.500000 0.819088 0.000000
O O5 0.142736 0.211028 0.988137
O O6 0.337961 0.303668 0.923564
O O7 0.418645 0.962422 0.854872
O O8 0.500000 0.053533 0.500000
O O9 0.263555 0.100673 0.350851
O O10 0.465032 0.358770 0.675510
O O11 0.000000 0.114789 0.500000
#
# Coordination Sequence:
#
# PCOD9332280 Si02
#       6
#     8   8   2   8   4   8
#     4  11  23  39  61  98 143 192 235 288 348 429
#     4  11  23  36  57 100 148 200 245 274 341 437
#     4  12  26  56  80 108 136 180 250 334 372 440
#     4  11  27  46  80 109 138 183 248 312 380 436
#     4  12  26  38  64  95 156 213 244 280 356 424
#     4  11  27  43  67 108 152 197 244 301 360 446
#
# _framework density 21.506093
#
# number of rings (size 3 to 8) (size 9 to 14) (size 15 to 20)
#    0.000    0.842    3.158    3.474   11.789    0.000 
#    0.000    0.000    0.000    9.474    0.000    0.000 
#    0.000    0.000    0.000    0.000    0.000    0.000 
#
# Total GULP energy -105979.726402 kJ/mol
# GULP energy per Si atom -5577.880337 kJ/mol
# Density = 2.145714 g / cm^3
# Si number density = 21.506093 Si / 1000 Ang^3
#
#
#
# Elastic Constant Matrix: (Units=GPa)
#
#
# Indices 1 2 3 4 5 6 
#
# 1 74.9162 19.4694 13.1898 0.0014 -0.0002 0.0003
# 2 19.4694 95.1246 24.5325 0.0019 0.0000 0.0001
# 3 13.1898 24.5325 128.6632 0.0004 -0.0016 -0.0027
# 4 0.0014 0.0019 0.0004 36.3337 0.0008 -0.0013
# 5 -0.0002 0.0000 -0.0016 0.0008 33.2434 -0.0001
# 6 0.0003 0.0001 -0.0027 -0.0013 -0.0001 -13.8357
#
#
#
# Elastic Compliance Matrix: (Units=1/GPa)
#
#
# Indices 1 2 3 4 5 6 
#
# 1 0.014207 -0.002663 -0.000949 0.000000 0.000000 0.000000
# 2 -0.002663 0.011555 -0.001930 0.000000 0.000000 0.000000
# 3 -0.000949 -0.001930 0.008238 0.000000 0.000000 -0.000002
# 4 0.000000 0.000000 0.000000 0.027523 -0.000001 -0.000003
# 5 0.000000 0.000000 0.000000 -0.000001 0.030081 0.000000
# 6 0.000000 0.000000 -0.000002 -0.000003 0.000000 -0.072277
#
#
# Mechanical properties :
#
#
# Convention : Reuss Voigt Hill
#
# Bulk Modulus (GPa) = 43.63753 45.89860 44.76806
# Shear Modulus (GPa) = 131.40524 27.24911 79.32717
#
# Velocity S-wave (km/s) = 7.82522 3.56341 6.07997
# Velocity P-wave (km/s) = 10.09853 6.19024 8.37554
#
# Compressibility (1/GPa) = 0.02291606
#
# Stress axis : x y z
#
# Youngs Moduli (GPa) = 70.38588 86.53944 121.39565
#
# Poissons Ratio (x) = 0.23047 0.11516
# Poissons Ratio (y) = 0.18745 0.23433
# Poissons Ratio (z) = 0.06677 0.16705
#
# Static dielectric constant tensor:
#      x y z
#    x 1.755250 0.000000 0.000000 
#    y 0.000000 1.812770 0.000000 
#    z 0.000000 0.000000 2.051560 
# 
# From -- ./inp_files/6954.got.cif
#   From: 2010.05.17/outbox.cif.g08.bks.cpg/sg23_4_cif.got.tgz:6954.got - 2010.06.04 12:02:01.
