data_PCOD9332850
_publ_section_title
;
Structure prediction by ZEFSAII (Michael W. Deem and Ramdas Pophale) SiO2 
 PCOD9332850
Probable space group: I 21 21 21
;
_chemical_formula_sum "Si O2"
_cell_formula_units_Z 40
_cell_length_a 14.669826
_cell_length_b 16.060087
_cell_length_c 6.900386
_cell_angle_alpha 90.000000
_cell_angle_beta 90.000000
_cell_angle_gamma 90.000000
_cell_volume 1625.721846
_symmetry_space_group_name_H-M "I 21 21 21"
_symmetry_group_IT_number 24
_symmetry_cell_setting 'orthorhombic'
loop_
_space_group_symop_operation_xyz
x,y,z
-x,1/2-y,z
x,-y,1/2-z
1/2-x,y,-z
1/2+x,1/2+y,1/2+z
1/2-x,-y,1/2+z
1/2+x,1/2-y,-z
-x,1/2+y,1/2-z
loop_
_atom_site_type_symbol
_atom_site_label
_atom_site_fract_x
_atom_site_fract_y
_atom_site_fract_z
Si Si1 0.812809 0.098646 0.755872
Si Si2 0.134742 0.324230 0.338513
Si Si3 0.567199 0.354706 0.581815
Si Si4 0.645962 0.525218 0.474121
Si Si5 0.505940 0.655288 0.372798
O O1 0.840662 0.134777 0.545652
O O2 0.716997 0.144876 0.797273
O O3 0.905660 0.114934 0.873766
O O4 0.795396 0.000000 0.750000
O O5 0.127831 0.224451 0.357640
O O6 0.030634 0.353478 0.311100
O O7 0.619383 0.442047 0.590972
O O8 0.541347 0.341847 0.352254
O O9 0.634557 0.500000 0.250000
O O10 0.750000 0.549443 0.500000
O O11 0.577671 0.601609 0.492865
O O12 0.500000 0.750000 0.438611
#
# Coordination Sequence:
#
# PCOD9332850 Si02
#       5
#     8   8   8   8   8
#     4  10  18  29  50  82 114 143 195 243 297 358
#     4   9  17  29  52  81 111 146 193 244 307 346
#     4   9  16  33  54  84 114 147 198 258 297 352
#     4  10  22  35  61  91 119 157 203 252 306 355
#     4  10  17  33  57  83 116 154 197 247 298 364
#
# _framework density 24.604455999999999
#
# number of rings (size 3 to 8) (size 9 to 14) (size 15 to 20)
#    0.000    2.400    4.000    3.000    2.800    0.000 
#    0.000    1.000    8.800    0.000    5.200    0.000 
#    0.000    0.000    0.000    0.000    0.000    0.000 
#
# Total GULP energy -111959.135308 kJ/mol
# GULP energy per Si atom -5597.956765 kJ/mol
# Density = 2.454846 g / cm^3
# Si number density = 24.604456 Si / 1000 Ang^3
#
#
#
# Elastic Constant Matrix: (Units=GPa)
#
#
# Indices 1 2 3 4 5 6 
#
# 1 229.6903 167.2408 45.6341 0.0000 0.0000 0.0000
# 2 167.2408 220.8480 43.9734 0.0000 0.0000 0.0000
# 3 45.6341 43.9734 72.0313 0.0000 0.0000 0.0000
# 4 0.0000 0.0000 0.0000 28.7322 0.0000 0.0000
# 5 0.0000 0.0000 0.0000 0.0000 51.0668 0.0000
# 6 0.0000 0.0000 0.0000 0.0000 0.0000 52.8174
#
#
#
# Elastic Compliance Matrix: (Units=1/GPa)
#
#
# Indices 1 2 3 4 5 6 
#
# 1 0.009936 -0.007139 -0.001937 0.000000 0.000000 0.000000
# 2 -0.007139 0.010283 -0.001755 0.000000 0.000000 0.000000
# 3 -0.001937 -0.001755 0.016181 0.000000 0.000000 0.000000
# 4 0.000000 0.000000 0.000000 0.034804 0.000000 0.000000
# 5 0.000000 0.000000 0.000000 0.000000 0.019582 0.000000
# 6 0.000000 0.000000 0.000000 0.000000 0.000000 0.018933
#
#
# Mechanical properties :
#
#
# Convention : Reuss Voigt Hill
#
# Bulk Modulus (GPa) = 67.84497 115.14072 91.49284
# Shear Modulus (GPa) = 36.68492 44.23803 40.46148
#
# Velocity S-wave (km/s) = 3.86552 4.24485 4.05962
# Velocity P-wave (km/s) = 6.89617 8.42159 7.69676
#
# Compressibility (1/GPa) = 0.01473949
#
# Stress axis : x y z
#
# Youngs Moduli (GPa) = 100.63996 97.24337 61.79922
#
# Poissons Ratio (x) = 0.69421 0.11970
# Poissons Ratio (y) = 0.71845 0.10847
# Poissons Ratio (z) = 0.19493 0.17068
#
# Static dielectric constant tensor:
#      x y z
#    x 1.229910 0.000000 0.000000 
#    y 0.000000 1.865390 0.000000 
#    z 0.000000 0.000000 2.120410 
# 
# From -- ./inp_files/12285.got.cif
#   From: 2010.05.17/outbox.cif.g08.bks.cpg/sg24_7_cif.got.tgz:12285.got - 2010.06.04 00:33:39.
