data_PCOD9332897
_publ_section_title
;
Structure prediction by ZEFSAII (Michael W. Deem and Ramdas Pophale) SiO2 
 PCOD9332897
Probable space group: I 21 21 21
;
_chemical_formula_sum "Si O2"
_cell_formula_units_Z 52
_cell_length_a 10.249690
_cell_length_b 21.365013
_cell_length_c 9.571083
_cell_angle_alpha 90.000000
_cell_angle_beta 90.000000
_cell_angle_gamma 90.000000
_cell_volume 2095.921315
_symmetry_space_group_name_H-M "I 21 21 21"
_symmetry_group_IT_number 24
_symmetry_cell_setting 'orthorhombic'
loop_
_space_group_symop_operation_xyz
x,y,z
-x,1/2-y,z
x,-y,1/2-z
1/2-x,y,-z
1/2+x,1/2+y,1/2+z
1/2-x,-y,1/2+z
1/2+x,1/2-y,-z
-x,1/2+y,1/2-z
loop_
_atom_site_type_symbol
_atom_site_label
_atom_site_fract_x
_atom_site_fract_y
_atom_site_fract_z
Si Si1 0.016629 0.545407 0.058089
Si Si2 0.753350 0.340783 0.193467
Si Si3 0.750000 0.609905 0.000000
Si Si4 0.501582 0.910607 0.617366
Si Si5 0.607554 0.827566 0.984722
Si Si6 0.172459 0.696796 0.314636
Si Si7 0.472094 0.318446 0.219049
O O1 0.036857 0.472452 0.030762
O O2 0.020630 0.563608 0.223030
O O3 0.113138 0.597309 0.998320
O O4 0.876354 0.565568 0.997591
O O5 0.768811 0.349515 0.360473
O O6 0.852379 0.388134 0.120927
O O7 0.798489 0.269685 0.155065
O O8 0.599769 0.355375 0.169556
O O9 0.592276 0.850216 0.585933
O O10 0.582911 0.808901 0.825180
O O11 0.750000 0.798411 0.000000
O O12 0.513717 0.811856 0.111606
O O13 0.318105 0.667698 0.294534
O O14 0.500000 0.250000 0.157180
#
# Coordination Sequence:
#
# PCOD9332897 Si02
#       7
#     8   8   4   8   8   8   8
#     4   9  17  30  44  60  90 127 166 193 228 272
#     4  10  18  27  43  69  96 121 155 191 243 290
#     4  10  18  26  46  68  92 126 154 202 240 280
#     4   9  18  30  44  59  92 132 163 190 220 288
#     4   9  16  26  42  64  93 120 152 190 230 279
#     4   9  18  27  41  66  97 123 153 182 238 290
#     4   9  17  25  40  65  98 121 142 186 237 285
#
# _framework density 24.810091
#
# number of rings (size 3 to 8) (size 9 to 14) (size 15 to 20)
#    0.000    2.769    1.538    0.462    5.385    0.000 
#    0.000    0.000    3.385    3.692    0.000    0.000 
#    9.231    0.000    0.000    0.000    0.000    0.000 
#
# Total GULP energy -144899.471124 kJ/mol
# GULP energy per Si atom -5573.056582 kJ/mol
# Density = 2.475362 g / cm^3
# Si number density = 24.810091 Si / 1000 Ang^3
#
#
#
# Elastic Constant Matrix: (Units=GPa)
#
#
# Indices 1 2 3 4 5 6 
#
# 1 123.8728 24.8364 -5.0728 0.0000 0.0000 0.0000
# 2 24.8364 137.2443 6.1046 0.0000 0.0000 0.0000
# 3 -5.0728 6.1046 81.2142 0.0000 -0.0001 0.0000
# 4 0.0000 0.0000 0.0000 15.2338 0.0000 0.0000
# 5 0.0000 0.0000 -0.0001 0.0000 22.9949 0.0000
# 6 0.0000 0.0000 0.0000 0.0000 0.0000 19.4856
#
#
#
# Elastic Compliance Matrix: (Units=1/GPa)
#
#
# Indices 1 2 3 4 5 6 
#
# 1 0.008410 -0.001550 0.000642 0.000000 0.000000 0.000000
# 2 -0.001550 0.007597 -0.000668 0.000000 0.000000 0.000000
# 3 0.000642 -0.000668 0.012403 0.000000 0.000000 0.000000
# 4 0.000000 0.000000 0.000000 0.065644 0.000000 0.000000
# 5 0.000000 0.000000 0.000000 0.000000 0.043488 0.000000
# 6 0.000000 0.000000 0.000000 0.000000 0.000000 0.051320
#
#
# Mechanical properties :
#
#
# Convention : Reuss Voigt Hill
#
# Bulk Modulus (GPa) = 39.59300 43.78531 41.68915
# Shear Modulus (GPa) = 24.94595 32.64039 28.79317
#
# Velocity S-wave (km/s) = 3.17436 3.63107 3.41037
# Velocity P-wave (km/s) = 5.42481 5.93852 5.68747
#
# Compressibility (1/GPa) = 0.02525699
#
# Stress axis : x y z
#
# Youngs Moduli (GPa) = 118.90684 131.63852 80.62296
#
# Poissons Ratio (x) = 0.20410 -0.05175
# Poissons Ratio (y) = 0.18436 0.05384
# Poissons Ratio (z) = -0.07632 0.08791
#
# Static dielectric constant tensor:
#      x y z
#    x 1.966760 0.000000 0.000000 
#    y 0.000000 1.982880 0.000000 
#    z 0.000000 0.000000 2.142090 
# 
# From -- ./inp_files/25937.got.cif
#   From: 2010.05.17/outbox.cif.g08.bks.cpg/sg24_13_cif.got.tgz:25937.got - 2010.06.04 00:33:39.
