data_PCOD9332647
_publ_section_title
;
Structure prediction by ZEFSAII (Michael W. Deem and Ramdas Pophale) SiO2 
 PCOD9332647
Probable space group: I 2 2 2
;
_chemical_formula_sum "Si O2"
_cell_formula_units_Z 24
_cell_length_a 9.000000
_cell_length_b 30.000000
_cell_length_c 9.000000
_cell_angle_alpha 90.000000
_cell_angle_beta 90.000000
_cell_angle_gamma 90.000000
_cell_volume 2430.000000
_symmetry_space_group_name_H-M "I 2 2 2"
_symmetry_group_IT_number 23
_symmetry_cell_setting 'orthorhombic'
loop_
_space_group_symop_operation_xyz
x,y,z
-x,-y,z
x,-y,-z
-x,y,-z
1/2+x,1/2+y,1/2+z
1/2-x,1/2-y,1/2+z
1/2+x,1/2-y,1/2-z
1/2-x,1/2+y,1/2-z
loop_
_atom_site_type_symbol
_atom_site_label
_atom_site_fract_x
_atom_site_fract_y
_atom_site_fract_z
Si Si1 0.028294 0.237073 0.827817
Si Si2 0.199191 0.307323 0.185400
Si Si3 0.177818 0.588736 0.172969
Si Si4 0.364311 0.670174 0.106471
Si Si5 0.829100 0.997460 0.681519
Si Si6 0.838560 0.592184 0.188775
O O1 0.965780 0.287147 0.803487
O O2 0.933431 0.205084 0.719703
O O3 0.193684 0.225119 0.777231
O O4 0.000000 0.226454 0.000000
O O5 0.217801 0.358745 0.233465
O O6 0.251729 0.307682 0.012787
O O7 0.284603 0.630801 0.196396
O O8 0.245626 0.542380 0.227348
O O9 0.011092 0.591628 0.231929
O O10 0.166918 0.589516 0.991879
O O11 0.500000 0.652761 0.000000
O O12 0.751806 0.951774 0.734698
O O13 0.825216 0.000000 0.500000
O O14 0.000000 0.000000 0.726801
#
# Coordination Sequence:
#
# PCOD9332647 Si02
#       6
#     8   8   8   8   8   8
#     4  11  23  37  56  79 111 147 186 231 275 320
#     4  10  22  36  58  79 110 143 189 228 275 330
#     4   9  17  28  51  71 108 145 177 217 273 332
#     4   9  20  35  55  81 109 146 189 227 272 326
#     4   9  17  25  44  74 110 140 173 217 273 329
#     4   9  18  30  46  75 107 142 178 221 273 331
#
# _framework density 9.8765429999999999
#
# number of rings (size 3 to 8) (size 9 to 14) (size 15 to 20)
#    0.000    2.500    0.000    1.500   16.333    2.000 
#    0.000    0.000    0.000    0.000    0.000    2.333 
#    0.000    2.667    0.000    0.667    0.000    0.000 
#
# Total GULP energy -133812.962849 kJ/mol
# GULP energy per Si atom -5575.540119 kJ/mol
# Density = 0.985406 g / cm^3
# Si number density = 9.876543 Si / 1000 Ang^3
#
#
#
# Elastic Constant Matrix: (Units=GPa)
#
#
# Indices 1 2 3 4 5 6 
#
# 1 115.5615 66.1071 3.5475 0.0000 0.0000 0.0000
# 2 66.1071 116.8020 14.2699 0.0000 0.0000 0.0000
# 3 3.5475 14.2699 20.6181 -0.0002 -0.0003 -0.0001
# 4 0.0000 0.0000 -0.0002 10.7613 0.0000 0.0000
# 5 0.0000 0.0000 -0.0003 0.0000 12.5991 0.0000
# 6 0.0000 0.0000 -0.0001 0.0000 0.0000 42.3053
#
#
#
# Elastic Compliance Matrix: (Units=1/GPa)
#
#
# Indices 1 2 3 4 5 6 
#
# 1 0.012977 -0.007725 0.003114 0.000000 0.000000 0.000000
# 2 -0.007725 0.013951 -0.008326 0.000000 0.000000 0.000000
# 3 0.003114 -0.008326 0.053728 0.000001 0.000001 0.000000
# 4 0.000000 0.000000 0.000001 0.092925 0.000000 0.000000
# 5 0.000000 0.000000 0.000001 0.000000 0.079371 0.000000
# 6 0.000000 0.000000 0.000000 0.000000 0.000000 0.023638
#
#
# Mechanical properties :
#
#
# Convention : Reuss Voigt Hill
#
# Bulk Modulus (GPa) = 18.25465 46.75897 32.50681
# Shear Modulus (GPa) = 15.58967 24.40361 19.99664
#
# Velocity S-wave (km/s) = 2.81237 3.51869 3.18517
# Velocity P-wave (km/s) = 4.45054 6.34282 5.47899
#
# Compressibility (1/GPa) = 0.05478058
#
# Stress axis : x y z
#
# Youngs Moduli (GPa) = 77.05974 71.67970 18.61228
#
# Poissons Ratio (x) = 0.55373 -0.05796
# Poissons Ratio (y) = 0.59529 0.15497
# Poissons Ratio (z) = -0.23995 0.59683
#
# Static dielectric constant tensor:
#      x y z
#    x 1.753360 0.000000 0.000000 
#    y 0.000000 1.706050 0.000000 
#    z 0.000000 0.000000 1.670190 
# 
# From -- ./inp_files/7386.got.cif
#   From: 2010.05.17/outbox.ucp.g08.bks.cvg/sg23_4_cif.got.tgz:7386.got - 2010.06.11 15:19:07.
