data_PCOD9332105
_publ_section_title
;
Structure prediction by ZEFSAII (Michael W. Deem and Ramdas Pophale) SiO2 
 PCOD9332105
Probable space group: I 2 2 2
;
_chemical_formula_sum "Si O2"
_cell_formula_units_Z 56
_cell_length_a 20.271316
_cell_length_b 7.858982
_cell_length_c 15.958767
_cell_angle_alpha 90.000000
_cell_angle_beta 90.000000
_cell_angle_gamma 90.000000
_cell_volume 2542.421613
_symmetry_space_group_name_H-M "I 2 2 2"
_symmetry_group_IT_number 23
_symmetry_cell_setting 'orthorhombic'
loop_
_space_group_symop_operation_xyz
x,y,z
-x,-y,z
x,-y,-z
-x,y,-z
1/2+x,1/2+y,1/2+z
1/2-x,1/2-y,1/2+z
1/2+x,1/2-y,1/2-z
1/2-x,1/2+y,1/2-z
loop_
_atom_site_type_symbol
_atom_site_label
_atom_site_fract_x
_atom_site_fract_y
_atom_site_fract_z
Si Si1 0.925014 0.208625 0.819506
Si Si2 0.873983 0.791169 0.000000
Si Si3 0.500000 0.802191 0.099854
Si Si4 0.140975 0.193719 0.340057
Si Si5 0.140976 0.806280 0.340056
Si Si6 0.774301 0.301057 0.500000
Si Si7 0.425014 0.708625 0.680493
O O1 0.869593 0.270050 0.753108
O O2 1.000000 0.260954 0.797681
O O3 0.924037 0.000000 0.816071
O O4 0.908835 0.260596 0.913956
O O5 0.798889 0.725428 0.999999
O O6 0.908836 0.739405 0.913957
O O7 0.875246 0.000000 0.000000
O O8 0.434073 0.707763 0.127418
O O9 0.565929 0.707766 0.127418
O O10 0.500000 0.000000 0.128460
O O11 0.500000 0.807197 0.000000
O O12 0.185684 0.263712 0.414820
O O13 0.162215 0.000000 0.329291
O O14 0.185686 0.736287 0.414818
O O15 0.130408 0.729950 0.246890
O O16 0.764017 0.500000 0.500000
#
# Coordination Sequence:
#
# PCOD9332105 Si02
#       7
#     8   8   8   8   8   8   8
#     4   9  17  32  56  86 110 137 184 236 282 324
#     4   9  19  35  55  78 113 150 185 231 276 325
#     4  11  21  33  53  82 114 147 181 224 280 334
#     4  11  21  34  56  85 113 144 183 229 276 327
#     4  11  21  34  56  85 113 144 183 229 276 327
#     4  11  23  37  52  80 116 155 189 218 271 337
#     4   9  17  32  56  86 110 137 184 236 282 324
#
# _framework density 22.026244999999999
#
# number of rings (size 3 to 8) (size 9 to 14) (size 15 to 20)
#    0.000    1.857    2.857    2.143    0.000    3.429 
#    0.000    0.000    0.000    5.143    0.000    1.000 
#    0.000    0.000    0.000    0.000    0.000    0.000 
#
# Total GULP energy -156187.984577 kJ/mol
# GULP energy per Si atom -5578.142306 kJ/mol
# Density = 2.197611 g / cm^3
# Si number density = 22.026245 Si / 1000 Ang^3
#
#
#
# Elastic Constant Matrix: (Units=GPa)
#
#
# Indices 1 2 3 4 5 6 
#
# 1 69.3932 -4.3185 31.9129 0.0000 0.0000 0.0000
# 2 -4.3185 23.9019 11.6486 0.0000 0.0000 0.0000
# 3 31.9129 11.6486 175.2911 0.0000 0.0000 0.0000
# 4 0.0000 0.0000 0.0000 -8.9645 0.0000 0.0000
# 5 0.0000 0.0000 0.0000 0.0000 66.9296 0.0000
# 6 0.0000 0.0000 0.0000 0.0000 0.0000 3.4967
#
#
#
# Elastic Compliance Matrix: (Units=1/GPa)
#
#
# Indices 1 2 3 4 5 6 
#
# 1 0.016184 0.004506 -0.003246 0.000000 0.000000 0.000000
# 2 0.004506 0.044492 -0.003777 0.000000 0.000000 0.000000
# 3 -0.003246 -0.003777 0.006547 0.000000 0.000000 0.000000
# 4 0.000000 0.000000 0.000000 -0.111551 0.000000 0.000000
# 5 0.000000 0.000000 0.000000 0.000000 0.014941 0.000000
# 6 0.000000 0.000000 0.000000 0.000000 0.000000 0.285983
#
#
# Mechanical properties :
#
#
# Convention : Reuss Voigt Hill
#
# Bulk Modulus (GPa) = 16.08002 38.56360 27.32181
# Shear Modulus (GPa) = 17.70788 27.58190 22.64489
#
# Velocity S-wave (km/s) = 2.83847 3.54252 3.20986
# Velocity P-wave (km/s) = 4.24956 5.85480 5.11554
#
# Compressibility (1/GPa) = 0.06218899
#
# Stress axis : x y z
#
# Youngs Moduli (GPa) = 61.79046 22.47574 152.74864
#
# Poissons Ratio (x) = -0.10127 0.49579
# Poissons Ratio (y) = -0.27842 0.57693
# Poissons Ratio (z) = 0.20056 0.08489
#
# Static dielectric constant tensor:
#      x y z
#    x 1.773790 0.000000 0.000000 
#    y 0.000000 1.809790 0.000000 
#    z 0.000000 0.000000 1.863950 
# 
# From -- ./inp_files/22388.got.cif
#   From: 2010.05.17/outbox.cif.g08.bks.cpg/sg23_12_cif.got.tgz:22388.got - 2010.06.04 12:02:01.
