data_PCOD9332823
_publ_section_title
;
Structure prediction by ZEFSAII (Michael W. Deem and Ramdas Pophale) SiO2 
 PCOD9332823
Probable space group: I 21 21 21
;
_chemical_formula_sum "Si O2"
_cell_formula_units_Z 36
_cell_length_a 13.643036
_cell_length_b 8.784834
_cell_length_c 12.848911
_cell_angle_alpha 90.000000
_cell_angle_beta 90.000000
_cell_angle_gamma 90.000000
_cell_volume 1539.965195
_symmetry_space_group_name_H-M "I 21 21 21"
_symmetry_group_IT_number 24
_symmetry_cell_setting 'orthorhombic'
loop_
_space_group_symop_operation_xyz
x,y,z
-x,1/2-y,z
x,-y,1/2-z
1/2-x,y,-z
1/2+x,1/2+y,1/2+z
1/2-x,-y,1/2+z
1/2+x,1/2-y,-z
-x,1/2+y,1/2-z
loop_
_atom_site_type_symbol
_atom_site_label
_atom_site_fract_x
_atom_site_fract_y
_atom_site_fract_z
Si Si1 0.853425 0.690064 0.411676
Si Si2 0.147260 0.661935 0.617884
Si Si3 0.911379 0.171171 0.292651
Si Si4 0.320122 0.320579 0.350619
Si Si5 0.250000 0.911067 0.000000
O O1 0.897148 0.742614 0.522546
O O2 0.762636 0.804862 0.395385
O O3 0.907537 0.712484 0.304980
O O4 0.809224 0.523352 0.424385
O O5 0.136119 0.480815 0.611187
O O6 0.131566 0.711190 0.737784
O O7 0.799841 0.165299 0.338205
O O8 0.000000 0.250000 0.358097
O O9 0.929212 0.000000 0.250000
O O10 0.325877 0.188032 0.433986
#
# Coordination Sequence:
#
# PCOD9332823 Si02
#       5
#     8   8   8   8   4
#     4   9  18  32  46  72 102 137 175 219 271 313
#     4   8  15  30  50  67 100 134 174 215 272 315
#     4  11  23  36  52  74 110 152 180 214 262 331
#     4  10  17  31  51  79 102 139 177 219 274 320
#     4  10  20  26  52  80 110 132 170 238 264 322
#
# _framework density 23.377153
#
# number of rings (size 3 to 8) (size 9 to 14) (size 15 to 20)
#    0.000    2.667    4.444    1.333    3.111    7.111 
#    0.000    0.000    0.000    0.000    0.000    7.778 
#    0.000    0.000    0.000    0.000    0.000    0.000 
#
# Total GULP energy -100258.559282 kJ/mol
# GULP energy per Si atom -5569.919960 kJ/mol
# Density = 2.332395 g / cm^3
# Si number density = 23.377153 Si / 1000 Ang^3
#
#
#
# Elastic Constant Matrix: (Units=GPa)
#
#
# Indices 1 2 3 4 5 6 
#
# 1 45.9048 -26.4326 -30.5798 0.0000 0.0000 0.0000
# 2 -26.4326 89.8994 39.2504 0.0000 0.0000 0.0000
# 3 -30.5798 39.2504 70.6853 0.0000 0.0000 0.0000
# 4 0.0000 0.0000 0.0000 -27.3462 0.0000 0.0000
# 5 0.0000 0.0000 0.0000 0.0000 -2.5101 0.0000
# 6 0.0000 0.0000 0.0000 0.0000 0.0000 4.2316
#
#
#
# Elastic Compliance Matrix: (Units=1/GPa)
#
#
# Indices 1 2 3 4 5 6 
#
# 1 0.031884 0.004425 0.011337 0.000000 0.000000 0.000000
# 2 0.004425 0.015298 -0.006580 0.000000 0.000000 0.000000
# 3 0.011337 -0.006580 0.022705 0.000000 0.000000 0.000000
# 4 0.000000 0.000000 0.000000 -0.036568 0.000000 0.000000
# 5 0.000000 0.000000 0.000000 0.000000 -0.398392 0.000000
# 6 0.000000 0.000000 0.000000 0.000000 0.000000 0.236315
#
#
# Mechanical properties :
#
#
# Convention : Reuss Voigt Hill
#
# Bulk Modulus (GPa) = 11.33141 18.99616 15.16378
# Shear Modulus (GPa) = -42.47931 9.82516 -16.32708
#
# Velocity S-wave (km/s) = -4.26740 2.05232 -2.64563
# Velocity P-wave (km/s) = 4.40718 3.70939 1.68280
#
# Compressibility (1/GPa) = 0.08825030
#
# Stress axis : x y z
#
# Youngs Moduli (GPa) = 31.36351 65.37004 44.04236
#
# Poissons Ratio (x) = -0.28927 -0.49929
# Poissons Ratio (y) = -0.13879 0.28980
# Poissons Ratio (z) = -0.35555 0.43014
#
# Static dielectric constant tensor:
#      x y z
#    x 2.017360 0.000000 0.000000 
#    y 0.000000 1.842310 0.000000 
#    z 0.000000 0.000000 2.007510 
# 
# From -- ./inp_files/26871.got.cif
#   From: 2010.05.17/outbox.cif.g08.bks.cpg/sg24_14_cif.got.tgz:26871.got - 2010.06.04 00:33:39.
