data_PCOD9332120
_publ_section_title
;
Structure prediction by ZEFSAII (Michael W. Deem and Ramdas Pophale) SiO2 
 PCOD9332120
Probable space group: I 2 2 2
;
_chemical_formula_sum "Si O2"
_cell_formula_units_Z 64
_cell_length_a 16.609828
_cell_length_b 9.480119
_cell_length_c 21.304278
_cell_angle_alpha 90.000000
_cell_angle_beta 90.000000
_cell_angle_gamma 90.000000
_cell_volume 3354.638637
_symmetry_space_group_name_H-M "I 2 2 2"
_symmetry_group_IT_number 23
_symmetry_cell_setting 'orthorhombic'
loop_
_space_group_symop_operation_xyz
x,y,z
-x,-y,z
x,-y,-z
-x,y,-z
1/2+x,1/2+y,1/2+z
1/2-x,1/2-y,1/2+z
1/2+x,1/2-y,1/2-z
1/2-x,1/2+y,1/2-z
loop_
_atom_site_type_symbol
_atom_site_label
_atom_site_fract_x
_atom_site_fract_y
_atom_site_fract_z
Si Si1 0.691464 0.784107 0.851780
Si Si2 0.904930 0.503689 0.721229
Si Si3 0.045856 0.349771 0.941255
Si Si4 0.422159 0.436937 0.783999
Si Si5 0.171363 0.348617 0.158353
Si Si6 0.772327 0.416207 0.058797
Si Si7 0.469846 0.653968 0.353020
Si Si8 0.817871 0.209931 0.256045
O O1 0.646423 0.930841 0.835328
O O2 0.628790 0.671997 0.823284
O O3 0.719519 0.715256 0.917150
O O4 0.772688 0.783360 0.810243
O O5 0.879827 0.423167 0.785791
O O6 0.877495 0.662880 0.731903
O O7 0.000000 0.500000 0.710507
O O8 0.138166 0.365494 0.959147
O O9 0.000000 0.500000 0.932437
O O10 0.036077 0.262648 0.877726
O O11 0.000000 0.279397 0.000000
O O12 0.500000 0.500000 0.818454
O O13 0.457452 0.364446 0.721289
O O14 0.362743 0.561842 0.763374
O O15 0.207488 0.468792 0.113218
O O16 0.113704 0.231187 0.126576
O O17 0.246169 0.277956 0.193374
O O18 0.736113 0.500000 0.000000
O O19 0.500000 0.500000 0.375583
#
# Coordination Sequence:
#
# PCOD9332120 Si02
#       8
#     8   8   8   8   8   8   8   8
#     4  11  22  38  58  91 122 157 211 262 316 387
#     4  11  23  36  61  93 124 166 205 258 331 389
#     4  11  22  41  59  84 123 171 222 258 302 383
#     4  11  22  36  54  90 122 156 195 257 328 382
#     4  11  22  36  58  87 125 162 205 253 321 381
#     4  12  23  39  64  88 124 173 220 261 309 389
#     4  11  24  34  56  87 126 161 210 259 315 375
#     4  11  21  37  56  86 128 160 197 259 329 379
#
# _framework density 19.078061000000002
#
# number of rings (size 3 to 8) (size 9 to 14) (size 15 to 20)
#    0.000    0.875    7.500    1.500    7.000    0.250 
#    0.000    0.000    0.000    1.125    0.000    0.875 
#    0.000    0.000    0.000    0.000    0.000    0.000 
#
# Total GULP energy -178587.927295 kJ/mol
# GULP energy per Si atom -5580.872728 kJ/mol
# Density = 1.903464 g / cm^3
# Si number density = 19.078061 Si / 1000 Ang^3
#
#
#
# Elastic Constant Matrix: (Units=GPa)
#
#
# Indices 1 2 3 4 5 6 
#
# 1 64.6783 -0.4797 12.6437 0.0000 0.0000 0.0000
# 2 -0.4797 49.0734 11.5181 0.0000 0.0000 0.0000
# 3 12.6437 11.5181 50.1640 0.0000 0.0000 0.0000
# 4 0.0000 0.0000 0.0000 -23.0307 0.0000 0.0000
# 5 0.0000 0.0000 0.0000 0.0000 18.6758 0.0000
# 6 0.0000 0.0000 0.0000 0.0000 0.0000 32.3972
#
#
#
# Elastic Compliance Matrix: (Units=1/GPa)
#
#
# Indices 1 2 3 4 5 6 
#
# 1 0.016328 0.001190 -0.004389 0.000000 0.000000 0.000000
# 2 0.001190 0.021625 -0.005265 0.000000 0.000000 0.000000
# 3 -0.004389 -0.005265 0.022250 0.000000 0.000000 0.000000
# 4 0.000000 0.000000 0.000000 -0.043420 0.000000 0.000000
# 5 0.000000 0.000000 0.000000 0.000000 0.053545 0.000000
# 6 0.000000 0.000000 0.000000 0.000000 0.000000 0.030867
#
#
# Mechanical properties :
#
#
# Convention : Reuss Voigt Hill
#
# Bulk Modulus (GPa) = 23.10829 23.47552 23.29191
# Shear Modulus (GPa) = 37.72238 14.95736 26.33987
#
# Velocity S-wave (km/s) = 4.45147 2.80305 3.71972
# Velocity P-wave (km/s) = 6.20963 4.77576 5.53929
#
# Compressibility (1/GPa) = 0.04327452
#
# Stress axis : x y z
#
# Youngs Moduli (GPa) = 61.24499 46.24262 44.94448
#
# Poissons Ratio (x) = -0.05501 0.19724
# Poissons Ratio (y) = -0.07286 0.23664
# Poissons Ratio (z) = 0.26878 0.24347
#
# Static dielectric constant tensor:
#      x y z
#    x 1.800780 0.000000 0.000000 
#    y 0.000000 1.715970 0.000000 
#    z 0.000000 0.000000 1.697310 
# 
# From -- ./inp_files/28659.got.cif
#   From: 2010.05.17/outbox.cif.g08.bks.cpg/sg23_15_cif.got.tgz:28659.got - 2010.06.04 12:02:01.
