data_PCOD9332282
_publ_section_title
;
Structure prediction by ZEFSAII (Michael W. Deem and Ramdas Pophale) SiO2 
 PCOD9332282
Probable space group: I 2 2 2
;
_chemical_formula_sum "Si O2"
_cell_formula_units_Z 34
_cell_length_a 6.010678
_cell_length_b 18.034538
_cell_length_c 12.098372
_cell_angle_alpha 90.000000
_cell_angle_beta 90.000000
_cell_angle_gamma 90.000000
_cell_volume 1311.461115
_symmetry_space_group_name_H-M "I 2 2 2"
_symmetry_group_IT_number 23
_symmetry_cell_setting 'orthorhombic'
loop_
_space_group_symop_operation_xyz
x,y,z
-x,-y,z
x,-y,-z
-x,y,-z
1/2+x,1/2+y,1/2+z
1/2-x,1/2-y,1/2+z
1/2+x,1/2-y,1/2-z
1/2-x,1/2+y,1/2-z
loop_
_atom_site_type_symbol
_atom_site_label
_atom_site_fract_x
_atom_site_fract_y
_atom_site_fract_z
Si Si1 0.888898 0.276160 0.890785
Si Si2 0.867380 0.606642 0.394193
Si Si3 0.373983 0.926464 0.686742
Si Si4 0.500000 0.500000 0.500000
Si Si5 0.525507 0.339363 0.782373
O O1 0.636192 0.304567 0.890708
O O2 0.034589 0.350933 0.869809
O O3 0.882429 0.216907 0.791013
O O4 0.000000 0.241613 0.000000
O O5 0.673675 0.551894 0.435140
O O6 0.730488 0.650984 0.302330
O O7 0.000000 0.638016 0.500000
O O8 0.061371 0.574715 0.316270
O O9 0.109414 0.913227 0.687135
O O10 0.500000 0.000000 0.642360
#
# Coordination Sequence:
#
# PCOD9332282 Si02
#       5
#     8   8   8   2   8
#     4  11  26  44  73 109 148 201 259 312 389 459
#     4  11  23  36  65 103 144 193 246 309 384 455
#     4  11  24  45  69 103 150 201 260 317 381 458
#     4  12  22  40  60 106 144 198 236 312 396 454
#     4  11  24  45  70 107 151 202 250 320 381 457
#
# _framework density 25.925283
#
# number of rings (size 3 to 8) (size 9 to 14) (size 15 to 20)
#    0.000    0.941    2.353    4.588    4.941    4.235 
#    0.000    0.000    0.000    5.647    0.000    0.000 
#    0.000    0.000    0.000    0.000    0.000    0.000 
#
# Total GULP energy -94841.697580 kJ/mol
# GULP energy per Si atom -5578.923387 kJ/mol
# Density = 2.586628 g / cm^3
# Si number density = 25.925283 Si / 1000 Ang^3
#
#
#
# Elastic Constant Matrix: (Units=GPa)
#
#
# Indices 1 2 3 4 5 6 
#
# 1 137.1398 32.3617 37.9939 0.0000 0.0000 0.0000
# 2 32.3617 88.1131 11.1455 0.0000 0.0000 0.0000
# 3 37.9939 11.1455 83.8118 0.0000 0.0000 0.0000
# 4 0.0000 0.0000 0.0000 23.2301 0.0000 0.0000
# 5 0.0000 0.0000 0.0000 0.0000 47.1318 0.0000
# 6 0.0000 0.0000 0.0000 0.0000 0.0000 42.0907
#
#
#
# Elastic Compliance Matrix: (Units=1/GPa)
#
#
# Indices 1 2 3 4 5 6 
#
# 1 0.008984 -0.002832 -0.003696 0.000000 0.000000 0.000000
# 2 -0.002832 0.012436 -0.000370 0.000000 0.000000 0.000000
# 3 -0.003696 -0.000370 0.013656 0.000000 0.000000 0.000000
# 4 0.000000 0.000000 0.000000 0.043048 0.000000 0.000000
# 5 0.000000 0.000000 0.000000 0.000000 0.021217 0.000000
# 6 0.000000 0.000000 0.000000 0.000000 0.000000 0.023758
#
#
# Mechanical properties :
#
#
# Convention : Reuss Voigt Hill
#
# Bulk Modulus (GPa) = 46.99224 52.45188 49.72206
# Shear Modulus (GPa) = 34.72490 37.66143 36.19316
#
# Velocity S-wave (km/s) = 3.66378 3.81555 3.74044
# Velocity P-wave (km/s) = 6.00526 6.29977 6.15428
#
# Compressibility (1/GPa) = 0.02128011
#
# Stress axis : x y z
#
# Youngs Moduli (GPa) = 111.30734 80.41163 73.22670
#
# Poissons Ratio (x) = 0.22774 0.27065
# Poissons Ratio (y) = 0.31524 0.02709
# Poissons Ratio (z) = 0.41140 0.02974
#
# Static dielectric constant tensor:
#      x y z
#    x 2.204370 0.000000 0.000000 
#    y 0.000000 2.140600 0.000000 
#    z 0.000000 0.000000 2.095650 
# 
# From -- ./inp_files/13836.got.cif
#   From: 2010.05.17/outbox.cif.g08.bks.cpg/sg23_7_cif.got.tgz:13836.got - 2010.06.04 12:02:01.
