data_PCOD9332133
_publ_section_title
;
Structure prediction by ZEFSAII (Michael W. Deem and Ramdas Pophale) SiO2 
 PCOD9332133
Probable space group: I 2 2 2
;
_chemical_formula_sum "Si O2"
_cell_formula_units_Z 52
_cell_length_a 9.755000
_cell_length_b 13.291151
_cell_length_c 20.673642
_cell_angle_alpha 90.000000
_cell_angle_beta 90.000000
_cell_angle_gamma 90.000000
_cell_volume 2680.444734
_symmetry_space_group_name_H-M "I 2 2 2"
_symmetry_group_IT_number 23
_symmetry_cell_setting 'orthorhombic'
loop_
_space_group_symop_operation_xyz
x,y,z
-x,-y,z
x,-y,-z
-x,y,-z
1/2+x,1/2+y,1/2+z
1/2-x,1/2-y,1/2+z
1/2+x,1/2-y,1/2-z
1/2-x,1/2+y,1/2-z
loop_
_atom_site_type_symbol
_atom_site_label
_atom_site_fract_x
_atom_site_fract_y
_atom_site_fract_z
Si Si1 0.963187 0.789843 0.341244
Si Si2 0.336296 0.386777 0.503741
Si Si3 0.327565 0.722425 0.630426
Si Si4 0.583796 0.202537 0.296048
Si Si5 0.500000 0.500000 0.809572
Si Si6 0.243023 0.536659 0.721986
Si Si7 0.697036 0.158156 0.862105
O O1 0.803261 0.790298 0.355080
O O2 0.977763 0.759291 0.266186
O O3 0.020691 0.900279 0.350957
O O4 0.048422 0.704092 0.377293
O O5 0.278527 0.500000 0.500000
O O6 0.500000 0.394583 0.500000
O O7 0.307920 0.316668 0.442454
O O8 0.284039 0.349706 0.572623
O O9 0.466814 0.781263 0.649447
O O10 0.308186 0.623302 0.675833
O O11 0.633475 0.094118 0.268359
O O12 0.719684 0.261782 0.318352
O O13 0.366316 0.490982 0.764382
O O14 0.187275 0.446832 0.676776
#
# Coordination Sequence:
#
# PCOD9332133 Si02
#       7
#     8   8   8   8   4   8   8
#     4  11  24  38  62  92 130 167 215 273 338 386
#     4  11  23  38  65  95 128 177 220 265 335 407
#     4  11  22  41  58  95 132 172 213 265 332 403
#     4  11  21  38  60  94 131 173 215 259 339 400
#     4  12  20  38  62  94 122 168 204 266 326 394
#     4  11  22  36  64  92 134 168 211 272 325 408
#     4  12  22  41  63  97 133 171 219 267 332 411
#
# _framework density 19.399766
#
# number of rings (size 3 to 8) (size 9 to 14) (size 15 to 20)
#    0.000    0.769    7.692    0.923    0.000    3.077 
#    0.000    0.769    0.000    1.846    0.000    1.077 
#    0.000    0.000    0.000    0.000    0.000    0.000 
#
# Total GULP energy -145081.536566 kJ/mol
# GULP energy per Si atom -5580.059099 kJ/mol
# Density = 1.935561 g / cm^3
# Si number density = 19.399766 Si / 1000 Ang^3
#
#
#
# Elastic Constant Matrix: (Units=GPa)
#
#
# Indices 1 2 3 4 5 6 
#
# 1 78.6175 38.0196 17.6858 0.0000 0.0000 0.0000
# 2 38.0196 93.0451 41.6556 0.0000 0.0000 0.0000
# 3 17.6858 41.6556 87.8527 0.0000 0.0000 0.0000
# 4 0.0000 0.0000 0.0000 26.5960 0.0000 0.0000
# 5 0.0000 0.0000 0.0000 0.0000 21.6053 0.0000
# 6 0.0000 0.0000 0.0000 0.0000 0.0000 23.3811
#
#
#
# Elastic Compliance Matrix: (Units=1/GPa)
#
#
# Indices 1 2 3 4 5 6 
#
# 1 0.015854 -0.006410 -0.000152 0.000000 0.000000 0.000000
# 2 -0.006410 0.016235 -0.006408 0.000000 0.000000 0.000000
# 3 -0.000152 -0.006408 0.014452 0.000000 0.000000 0.000000
# 4 0.000000 0.000000 0.000000 0.037600 0.000000 0.000000
# 5 0.000000 0.000000 0.000000 0.000000 0.046285 0.000000
# 6 0.000000 0.000000 0.000000 0.000000 0.000000 0.042770
#
#
# Mechanical properties :
#
#
# Convention : Reuss Voigt Hill
#
# Bulk Modulus (GPa) = 48.54121 50.47081 49.50601
# Shear Modulus (GPa) = 24.27164 25.12676 24.69920
#
# Velocity S-wave (km/s) = 3.54097 3.60281 3.57202
# Velocity P-wave (km/s) = 6.46481 6.58632 6.52585
#
# Compressibility (1/GPa) = 0.02060105
#
# Stress axis : x y z
#
# Youngs Moduli (GPa) = 63.07574 61.59405 69.19676
#
# Poissons Ratio (x) = 0.39482 0.01054
# Poissons Ratio (y) = 0.40431 0.44339
# Poissons Ratio (z) = 0.00961 0.39467
#
# Static dielectric constant tensor:
#      x y z
#    x 1.701520 0.000000 0.000000 
#    y 0.000000 1.710800 0.000000 
#    z 0.000000 0.000000 1.690030 
# 
# From -- ./inp_files/26217.got.cif
#   From: 2010.05.17/outbox.cif.g08.bks.cpg/sg23_14_cif.got.tgz:26217.got - 2010.06.04 12:02:01.
