data_PCOD9332744
_publ_section_title
;
Structure prediction by ZEFSAII (Michael W. Deem and Ramdas Pophale) SiO2 
 PCOD9332744
Probable space group: I 21 21 21
;
_chemical_formula_sum "Si O2"
_cell_formula_units_Z 48
_cell_length_a 8.610590
_cell_length_b 27.002320
_cell_length_c 11.699430
_cell_angle_alpha 90.000000
_cell_angle_beta 90.000000
_cell_angle_gamma 90.000000
_cell_volume 2720.186578
_symmetry_space_group_name_H-M "I 21 21 21"
_symmetry_group_IT_number 24
_symmetry_cell_setting 'orthorhombic'
loop_
_space_group_symop_operation_xyz
x,y,z
-x,1/2-y,z
x,-y,1/2-z
1/2-x,y,-z
1/2+x,1/2+y,1/2+z
1/2-x,-y,1/2+z
1/2+x,1/2-y,-z
-x,1/2+y,1/2-z
loop_
_atom_site_type_symbol
_atom_site_label
_atom_site_fract_x
_atom_site_fract_y
_atom_site_fract_z
Si Si1 0.212376 0.835560 0.135776
Si Si2 0.986572 0.042216 0.841723
Si Si3 0.750000 0.016074 0.500000
Si Si4 0.750000 0.182354 0.500000
Si Si5 0.750000 0.519159 0.500000
Si Si6 0.038680 0.067494 0.430791
Si Si7 0.029673 0.377456 0.662796
Si Si8 0.500000 0.250000 0.624345
O O1 0.109107 0.886159 0.137920
O O2 0.381405 0.843039 0.189911
O O3 0.113774 0.789668 0.183629
O O4 0.250000 0.826068 0.000000
O O5 0.931455 0.089728 0.771777
O O6 0.028636 0.000000 0.750000
O O7 0.856685 0.018003 0.921655
O O8 0.136995 0.050431 0.920140
O O9 0.639086 0.049773 0.580521
O O10 0.829115 0.150425 0.600873
O O11 0.612233 0.215563 0.549131
O O12 0.855111 0.481127 0.425301
O O13 0.038074 0.086457 0.562838
#
# Coordination Sequence:
#
# PCOD9332744 Si02
#       8
#     8   8   4   4   4   8   8   4
#     4  10  18  30  49  75 108 147 170 202 264 333
#     4  11  21  35  54  73 105 146 187 228 261 304
#     4  10  21  32  52  77 104 139 194 224 250 301
#     4  12  21  33  54  78 116 146 168 213 266 345
#     4  10  18  33  54  73 104 143 192 221 240 304
#     4  10  16  32  49  69 106 143 175 208 256 303
#     4  11  20  34  53  72 106 154 174 209 271 315
#     4  12  20  30  50  82 114 142 164 214 272 328
#
# _framework density 17.645849999999999
#
# number of rings (size 3 to 8) (size 9 to 14) (size 15 to 20)
#    0.000    1.333   10.000    0.500    0.000    0.000 
#    0.000   10.000    0.000    0.000    0.000    0.000 
#    0.000   22.667    0.000    0.000    0.000    0.000 
#
# Total GULP energy -133759.293985 kJ/mol
# GULP energy per Si atom -5573.303916 kJ/mol
# Density = 1.760569 g / cm^3
# Si number density = 17.645850 Si / 1000 Ang^3
#
#
#
# Elastic Constant Matrix: (Units=GPa)
#
#
# Indices 1 2 3 4 5 6 
#
# 1 126.5552 54.6443 31.5517 0.0000 0.0000 0.0000
# 2 54.6443 90.0255 28.0623 -0.0001 0.0000 0.0000
# 3 31.5517 28.0623 44.0638 -0.0003 0.0000 0.0000
# 4 0.0000 -0.0001 -0.0003 12.7733 0.0000 0.0000
# 5 0.0000 0.0000 0.0000 0.0000 19.2969 0.0000
# 6 0.0000 0.0000 0.0000 0.0000 0.0000 20.5478
#
#
#
# Elastic Compliance Matrix: (Units=1/GPa)
#
#
# Indices 1 2 3 4 5 6 
#
# 1 0.011439 -0.005478 -0.004703 0.000000 0.000000 0.000000
# 2 -0.005478 0.016482 -0.006575 0.000000 0.000000 0.000000
# 3 -0.004703 -0.006575 0.030249 0.000001 0.000000 0.000000
# 4 0.000000 0.000000 0.000001 0.078288 0.000000 0.000000
# 5 0.000000 0.000000 0.000000 0.000000 0.051822 0.000000
# 6 0.000000 0.000000 0.000000 0.000000 0.000000 0.048667
#
#
# Mechanical properties :
#
#
# Convention : Reuss Voigt Hill
#
# Bulk Modulus (GPa) = 40.55051 54.35125 47.45088
# Shear Modulus (GPa) = 17.94193 20.28268 19.11231
#
# Velocity S-wave (km/s) = 3.19216 3.39400 3.29463
# Velocity P-wave (km/s) = 6.05116 6.79905 6.43598
#
# Compressibility (1/GPa) = 0.02466060
#
# Stress axis : x y z
#
# Youngs Moduli (GPa) = 87.41848 60.67152 33.05932
#
# Poissons Ratio (x) = 0.33233 0.15546
# Poissons Ratio (y) = 0.47884 0.21735
# Poissons Ratio (z) = 0.41109 0.39889
#
# Static dielectric constant tensor:
#      x y z
#    x 1.696000 0.000000 0.000000 
#    y 0.000000 1.659500 0.000000 
#    z 0.000000 0.000000 1.569420 
# 
# From -- ./inp_files/18735.got.cif
#   From: 2010.05.17/outbox.cif.g08.bks.cpg/sg24_10_cif.got.tgz:18735.got - 2010.06.04 00:33:39.
