data_PCOD9332016
_publ_section_title
;
Structure prediction by ZEFSAII (Michael W. Deem and Ramdas Pophale) SiO2 
 PCOD9332016
Probable space group: I 2 2 2
;
_chemical_formula_sum "Si O2"
_cell_formula_units_Z 32
_cell_length_a 16.045722
_cell_length_b 5.706904
_cell_length_c 16.826498
_cell_angle_alpha 90.000000
_cell_angle_beta 90.000000
_cell_angle_gamma 90.000000
_cell_volume 1540.825896
_symmetry_space_group_name_H-M "I 2 2 2"
_symmetry_group_IT_number 23
_symmetry_cell_setting 'orthorhombic'
loop_
_space_group_symop_operation_xyz
x,y,z
-x,-y,z
x,-y,-z
-x,y,-z
1/2+x,1/2+y,1/2+z
1/2-x,1/2-y,1/2+z
1/2+x,1/2-y,1/2-z
1/2-x,1/2+y,1/2-z
loop_
_atom_site_type_symbol
_atom_site_label
_atom_site_fract_x
_atom_site_fract_y
_atom_site_fract_z
Si Si1 0.858059 0.802894 0.442345
Si Si2 0.417304 0.649539 0.377157
Si Si3 0.500000 0.000000 0.500000
Si Si4 0.287375 0.500000 0.500000
Si Si5 0.702435 0.306050 0.235775
Si Si6 0.500000 0.000000 0.000000
O O1 0.776441 0.712954 0.489989
O O2 0.828857 0.852945 0.353612
O O3 0.934106 0.622975 0.441350
O O4 0.892794 0.000000 0.500000
O O5 0.500000 0.500000 0.361896
O O6 0.346814 0.505544 0.424209
O O7 0.374263 0.730353 0.296563
O O8 0.443762 0.846129 0.440949
O O9 0.748577 0.553429 0.260428
#
# Coordination Sequence:
#
# PCOD9332016 Si02
#       6
#     8   8   2   4   8   2
#     4  11  25  46  77 102 148 198 254 311 377 453
#     4  12  26  44  71 108 153 192 246 307 375 447
#     4  12  26  42  76 106 152 204 242 308 384 456
#     4  11  21  45  67 102 142 192 245 297 369 447
#     4  12  29  50  75 113 151 198 256 312 376 447
#     4  10  26  46  70 110 138 198 256 308 376 442
#
# _framework density 20.768080999999999
#
# number of rings (size 3 to 8) (size 9 to 14) (size 15 to 20)
#    0.000    0.500    5.000    1.875   12.250    3.000 
#    0.000    0.000    0.000    0.000    0.000    0.000 
#    0.000    0.000    0.000    0.000    0.000    0.000 
#
# Total GULP energy -89221.997477 kJ/mol
# GULP energy per Si atom -5576.374842 kJ/mol
# Density = 2.072081 g / cm^3
# Si number density = 20.768081 Si / 1000 Ang^3
#
#
#
# Elastic Constant Matrix: (Units=GPa)
#
#
# Indices 1 2 3 4 5 6 
#
# 1 133.8394 39.0631 39.6249 0.0000 0.0000 0.0000
# 2 39.0631 83.5271 31.7697 0.0000 0.0000 0.0000
# 3 39.6249 31.7697 138.6974 0.0000 0.0000 0.0000
# 4 0.0000 0.0000 0.0000 15.5115 0.0000 0.0000
# 5 0.0000 0.0000 0.0000 0.0000 49.3718 0.0000
# 6 0.0000 0.0000 0.0000 0.0000 0.0000 -49.6864
#
#
#
# Elastic Compliance Matrix: (Units=1/GPa)
#
#
# Indices 1 2 3 4 5 6 
#
# 1 0.009031 -0.003552 -0.001767 0.000000 0.000000 0.000000
# 2 -0.003552 0.014512 -0.002309 0.000000 0.000000 0.000000
# 3 -0.001767 -0.002309 0.008244 0.000000 0.000000 0.000000
# 4 0.000000 0.000000 0.000000 0.064468 0.000000 0.000000
# 5 0.000000 0.000000 0.000000 0.000000 0.020254 0.000000
# 6 0.000000 0.000000 0.000000 0.000000 0.000000 -0.020126
#
#
# Mechanical properties :
#
#
# Convention : Reuss Voigt Hill
#
# Bulk Modulus (GPa) = 60.49173 64.10881 62.30027
# Shear Modulus (GPa) = 42.68078 19.41311 31.04695
#
# Velocity S-wave (km/s) = 4.53826 3.06070 3.87063
# Velocity P-wave (km/s) = 7.52672 6.58987 7.07382
#
# Compressibility (1/GPa) = 0.01653118
#
# Stress axis : x y z
#
# Youngs Moduli (GPa) = 110.72602 68.91076 121.30607
#
# Poissons Ratio (x) = 0.24475 0.21430
# Poissons Ratio (y) = 0.39327 0.28013
# Poissons Ratio (z) = 0.19561 0.15913
#
# Static dielectric constant tensor:
#      x y z
#    x 1.752750 0.000000 0.000000 
#    y 0.000000 1.953320 0.000000 
#    z 0.000000 0.000000 1.830750 
# 
# From -- ./inp_files/2146.got.cif
#   From: 2010.05.17/outbox.cif.g08.bks.cpg/sg23_2_cif.got.tgz:2146.got - 2010.06.04 12:02:01.
