data_PCOD9332907
_publ_section_title
;
Structure prediction by ZEFSAII (Michael W. Deem and Ramdas Pophale) SiO2 
 PCOD9332907
Probable space group: I 21 21 21
;
_chemical_formula_sum "Si O2"
_cell_formula_units_Z 48
_cell_length_a 23.250803
_cell_length_b 11.388772
_cell_length_c 11.433145
_cell_angle_alpha 90.000000
_cell_angle_beta 90.000000
_cell_angle_gamma 90.000000
_cell_volume 3027.475007
_symmetry_space_group_name_H-M "I 21 21 21"
_symmetry_group_IT_number 24
_symmetry_cell_setting 'orthorhombic'
loop_
_space_group_symop_operation_xyz
x,y,z
-x,1/2-y,z
x,-y,1/2-z
1/2-x,y,-z
1/2+x,1/2+y,1/2+z
1/2-x,-y,1/2+z
1/2+x,1/2-y,-z
-x,1/2+y,1/2-z
loop_
_atom_site_type_symbol
_atom_site_label
_atom_site_fract_x
_atom_site_fract_y
_atom_site_fract_z
Si Si1 0.750000 0.190953 0.000000
Si Si2 0.685179 0.325126 0.371351
Si Si3 0.159954 0.624083 0.690729
Si Si4 0.817093 0.376628 0.373207
Si Si5 0.435441 0.793041 0.420168
Si Si6 0.347593 0.851254 0.618517
Si Si7 0.597565 0.500000 0.250000
O O1 0.789742 0.119889 0.908060
O O2 0.705195 0.274964 0.931902
O O3 0.681207 0.210428 0.292938
O O4 0.748696 0.376832 0.351979
O O5 0.674784 0.303705 0.508438
O O6 0.638700 0.418832 0.328509
O O7 0.147120 0.500000 0.750000
O O8 0.104604 0.691063 0.636843
O O9 0.849408 0.331635 0.258001
O O10 0.834571 0.510811 0.396552
O O11 0.500000 0.750000 0.435918
O O12 0.403497 0.822787 0.541913
O O13 0.434532 0.907641 0.334860
#
# Coordination Sequence:
#
# PCOD9332907 Si02
#       7
#     4   8   8   8   8   8   4
#     4  10  18  34  50  76 112 144 174 214 272 338
#     4  10  18  30  52  84 115 134 170 219 279 326
#     4  10  22  36  53  79 111 149 182 221 269 334
#     4  10  18  27  55  87 113 136 164 225 277 340
#     4  10  22  36  58  75 107 148 189 236 267 321
#     4  10  18  31  52  81 112 136 177 219 283 321
#     4  10  18  34  52  82 102 134 184 230 274 306
#
# _framework density 15.854796
#
# number of rings (size 3 to 8) (size 9 to 14) (size 15 to 20)
#    0.000    2.000    3.333    2.000    3.500    1.333 
#    0.000    0.000    0.000    8.000    0.000    0.000 
#    0.000    0.000    0.000    0.000    0.000    0.000 
#
# Total GULP energy -133750.085064 kJ/mol
# GULP energy per Si atom -5572.920211 kJ/mol
# Density = 1.581871 g / cm^3
# Si number density = 15.854796 Si / 1000 Ang^3
#
#
#
# Elastic Constant Matrix: (Units=GPa)
#
#
# Indices 1 2 3 4 5 6 
#
# 1 106.8532 42.3801 53.1104 0.0000 0.0000 0.0000
# 2 42.3801 81.6473 42.5953 0.0000 0.0000 0.0000
# 3 53.1104 42.5953 125.9502 0.0000 0.0000 0.0000
# 4 0.0000 0.0000 0.0000 22.7483 0.0000 0.0000
# 5 0.0000 0.0000 0.0000 0.0000 9.0036 0.0000
# 6 0.0000 0.0000 0.0000 0.0000 0.0000 10.3894
#
#
#
# Elastic Compliance Matrix: (Units=1/GPa)
#
#
# Indices 1 2 3 4 5 6 
#
# 1 0.013229 -0.004804 -0.003954 0.000000 0.000000 0.000000
# 2 -0.004804 0.016616 -0.003594 0.000000 0.000000 0.000000
# 3 -0.003954 -0.003594 0.010822 0.000000 0.000000 0.000000
# 4 0.000000 0.000000 0.000000 0.043959 0.000000 0.000000
# 5 0.000000 0.000000 0.000000 0.000000 0.111066 0.000000
# 6 0.000000 0.000000 0.000000 0.000000 0.000000 0.096252
#
#
# Mechanical properties :
#
#
# Convention : Reuss Voigt Hill
#
# Bulk Modulus (GPa) = 62.63876 65.62471 64.13174
# Shear Modulus (GPa) = 15.52941 20.18593 17.85767
#
# Velocity S-wave (km/s) = 3.13306 3.57203 3.35972
# Velocity P-wave (km/s) = 7.25821 7.64810 7.45570
#
# Compressibility (1/GPa) = 0.01596456
#
# Stress axis : x y z
#
# Youngs Moduli (GPa) = 75.59020 60.18200 92.40254
#
# Poissons Ratio (x) = 0.28912 0.36534
# Poissons Ratio (y) = 0.36315 0.33207
# Poissons Ratio (z) = 0.29887 0.21627
#
# Static dielectric constant tensor:
#      x y z
#    x 1.501620 0.000000 0.000000 
#    y 0.000000 1.521780 0.000000 
#    z 0.000000 0.000000 1.567330 
# 
# From -- ./inp_files/19895.got.cif
#   From: 2010.05.17/outbox.cif.g08.bks.cpg/sg24_10_cif.got.tgz:19895.got - 2010.06.04 00:33:39.
