data_PCOD9332637
_publ_section_title
;
Structure prediction by ZEFSAII (Michael W. Deem and Ramdas Pophale) SiO2 
 PCOD9332637
Probable space group: I 2 2 2
;
_chemical_formula_sum "Si O2"
_cell_formula_units_Z 28
_cell_length_a 21.000000
_cell_length_b 15.000000
_cell_length_c 9.000000
_cell_angle_alpha 90.000000
_cell_angle_beta 90.000000
_cell_angle_gamma 90.000000
_cell_volume 2835.000000
_symmetry_space_group_name_H-M "I 2 2 2"
_symmetry_group_IT_number 23
_symmetry_cell_setting 'orthorhombic'
loop_
_space_group_symop_operation_xyz
x,y,z
-x,-y,z
x,-y,-z
-x,y,-z
1/2+x,1/2+y,1/2+z
1/2-x,1/2-y,1/2+z
1/2+x,1/2-y,1/2-z
1/2-x,1/2+y,1/2-z
loop_
_atom_site_type_symbol
_atom_site_label
_atom_site_fract_x
_atom_site_fract_y
_atom_site_fract_z
Si Si1 0.000000 0.697800 0.000000
Si Si2 0.412967 0.228808 0.760340
Si Si3 0.412730 0.865001 0.747052
Si Si4 0.290821 0.332261 0.830434
Si Si5 0.207846 0.024707 0.830206
Si Si6 0.682214 0.707395 0.181641
Si Si7 0.355106 0.037164 0.835624
Si Si8 0.500000 0.817875 0.000000
O O1 0.948557 0.643189 0.907434
O O2 0.040387 0.747470 0.875521
O O3 0.352961 0.290890 0.754833
O O4 0.391327 0.124609 0.777315
O O5 0.450928 0.242968 0.911932
O O6 0.377952 0.773643 0.796305
O O7 0.367296 0.949688 0.738466
O O8 0.465855 0.876670 0.874793
O O9 0.289120 0.435697 0.774527
O O10 0.234830 0.269966 0.763873
O O11 0.298035 0.314126 0.009282
O O12 0.173039 0.111060 0.760360
O O13 0.280802 0.058744 0.842506
O O14 0.187786 0.000000 0.000000
O O15 0.372134 0.000000 0.000000
#
# Coordination Sequence:
#
# PCOD9332637 Si02
#       8
#     4   8   8   8   8   8   8   4
#     4  10  28  41  60  97 132 176 218 275 318 383
#     4  11  23  41  66  92 132 170 223 264 328 386
#     4  11  23  41  66  92 132 170 223 264 328 386
#     4  12  24  42  69  99 133 174 218 276 336 390
#     4  11  25  41  66 101 137 173 216 270 341 395
#     4  12  24  42  69  99 133 174 218 276 336 390
#     4  11  20  37  63  95 130 173 214 255 315 406
#     4  10  20  41  62  91 120 180 216 261 306 403
#
# _framework density 9.8765429999999999
#
# number of rings (size 3 to 8) (size 9 to 14) (size 15 to 20)
#    0.000    0.857    5.714    1.286    4.000    4.000 
#    2.571    0.000    0.000    5.143    0.000    0.000 
#    0.000    0.000    0.000    0.000    0.000    0.000 
#
# Total GULP energy -156100.804439 kJ/mol
# GULP energy per Si atom -5575.028730 kJ/mol
# Density = 0.985406 g / cm^3
# Si number density = 9.876543 Si / 1000 Ang^3
#
#
#
# Elastic Constant Matrix: (Units=GPa)
#
#
# Indices 1 2 3 4 5 6 
#
# 1 63.0155 25.7993 19.3381 0.0000 0.0000 0.0000
# 2 25.7993 130.7368 31.9306 0.0000 0.0000 0.0000
# 3 19.3381 31.9306 111.8138 0.0000 0.0000 0.0000
# 4 0.0000 0.0000 0.0000 18.2616 0.0000 0.0000
# 5 0.0000 0.0000 0.0000 0.0000 31.7254 0.0000
# 6 0.0000 0.0000 0.0000 0.0000 0.0000 593.7728
#
#
#
# Elastic Compliance Matrix: (Units=1/GPa)
#
#
# Indices 1 2 3 4 5 6 
#
# 1 0.017765 -0.002962 -0.002227 0.000000 0.000000 0.000000
# 2 -0.002962 0.008716 -0.001977 0.000000 0.000000 0.000000
# 3 -0.002227 -0.001977 0.009893 0.000000 0.000000 0.000000
# 4 0.000000 0.000000 0.000000 0.054760 0.000000 0.000000
# 5 0.000000 0.000000 0.000000 0.000000 0.031521 0.000000
# 6 0.000000 0.000000 0.000000 0.000000 0.000000 0.001684
#
#
# Mechanical properties :
#
#
# Convention : Reuss Voigt Hill
#
# Bulk Modulus (GPa) = 45.36450 51.07798 48.22124
# Shear Modulus (GPa) = 34.24253 143.98517 89.11385
#
# Velocity S-wave (km/s) = 4.16808 8.54697 6.72397
# Velocity P-wave (km/s) = 6.79555 11.10474 9.20584
#
# Compressibility (1/GPa) = 0.02204367
#
# Stress axis : x y z
#
# Youngs Moduli (GPa) = 56.29032 114.72804 101.08098
#
# Poissons Ratio (x) = 0.33981 0.22507
# Poissons Ratio (y) = 0.16673 0.19982
# Poissons Ratio (z) = 0.12534 0.22680
#
# Static dielectric constant tensor:
#      x y z
#    x 1.813510 0.000000 0.000000 
#    y 0.000000 1.666080 0.000000 
#    z 0.000000 0.000000 1.191630 
# 
# From -- ./inp_files/12091.got.cif
#   From: 2010.05.17/outbox.ucp.g08.bks.cvg/sg23_7_cif.got.tgz:12091.got - 2010.06.11 15:19:07.
