data_PCOD9332045
_publ_section_title
;
Structure prediction by ZEFSAII (Michael W. Deem and Ramdas Pophale) SiO2 
 PCOD9332045
Probable space group: I 2 2 2
;
_chemical_formula_sum "Si O2"
_cell_formula_units_Z 56
_cell_length_a 19.050731
_cell_length_b 15.339524
_cell_length_c 9.448738
_cell_angle_alpha 90.000000
_cell_angle_beta 90.000000
_cell_angle_gamma 90.000000
_cell_volume 2761.196631
_symmetry_space_group_name_H-M "I 2 2 2"
_symmetry_group_IT_number 23
_symmetry_cell_setting 'orthorhombic'
loop_
_space_group_symop_operation_xyz
x,y,z
-x,-y,z
x,-y,-z
-x,y,-z
1/2+x,1/2+y,1/2+z
1/2-x,1/2-y,1/2+z
1/2+x,1/2-y,1/2-z
1/2-x,1/2+y,1/2-z
loop_
_atom_site_type_symbol
_atom_site_label
_atom_site_fract_x
_atom_site_fract_y
_atom_site_fract_z
Si Si1 0.390713 0.538703 0.142906
Si Si2 0.834389 0.888108 0.843209
Si Si3 0.658232 0.799498 0.677782
Si Si4 0.265659 0.907886 0.560330
Si Si5 0.701966 0.793997 0.205863
Si Si6 0.323428 0.906629 0.065160
Si Si7 0.068131 0.148809 0.097036
O O1 0.369256 0.456568 0.239108
O O2 0.317758 0.583933 0.089764
O O3 0.433062 0.600872 0.250880
O O4 0.423725 0.500000 0.000000
O O5 0.835476 0.791818 0.770458
O O6 0.754834 0.916749 0.871018
O O7 0.870520 0.888204 0.996191
O O8 0.707924 0.840776 0.557368
O O9 0.715401 0.728291 0.730419
O O10 0.636899 0.867007 0.799438
O O11 0.591140 0.748341 0.621842
O O12 0.307161 0.879418 0.698676
O O13 0.287604 0.000000 0.500000
O O14 0.682472 0.828400 0.050786
O O15 0.345185 0.000000 0.000000
O O16 0.000000 0.139258 0.000000
#
# Coordination Sequence:
#
# PCOD9332045 Si02
#       7
#     8   8   8   8   8   8   8
#     4  11  23  38  64  93 124 156 211 263 314 375
#     4  11  22  37  59  91 128 167 202 259 315 385
#     4  11  21  36  58  89 129 160 204 254 315 377
#     4  11  19  33  57  94 125 157 194 256 323 377
#     4  11  18  32  56  89 127 158 202 252 325 369
#     4  11  20  32  58  95 129 157 196 261 338 381
#     4  12  25  43  62  85 124 181 219 248 301 372
#
# _framework density 20.281061000000001
#
# number of rings (size 3 to 8) (size 9 to 14) (size 15 to 20)
#    0.000    0.857    4.286    7.286    2.000    1.143 
#    0.000    1.429    0.000    0.429    0.000    1.000 
#    0.000    0.000    0.000    0.000    0.000    0.000 
#
# Total GULP energy -156205.067500 kJ/mol
# GULP energy per Si atom -5578.752411 kJ/mol
# Density = 2.023490 g / cm^3
# Si number density = 20.281061 Si / 1000 Ang^3
#
#
#
# Elastic Constant Matrix: (Units=GPa)
#
#
# Indices 1 2 3 4 5 6 
#
# 1 30.6083 29.0704 22.4331 0.0000 0.0000 0.0000
# 2 29.0704 89.5028 40.3363 0.0000 0.0000 0.0000
# 3 22.4331 40.3363 131.1937 0.0000 0.0000 0.0000
# 4 0.0000 0.0000 0.0000 49.2250 0.0000 0.0000
# 5 0.0000 0.0000 0.0000 0.0000 19.8751 0.0000
# 6 0.0000 0.0000 0.0000 0.0000 0.0000 -30.2194
#
#
#
# Elastic Compliance Matrix: (Units=1/GPa)
#
#
# Indices 1 2 3 4 5 6 
#
# 1 0.049030 -0.014100 -0.004048 0.000000 0.000000 0.000000
# 2 -0.014100 0.017025 -0.002823 0.000000 0.000000 0.000000
# 3 -0.004048 -0.002823 0.009183 0.000000 0.000000 0.000000
# 4 0.000000 0.000000 0.000000 0.020315 0.000000 0.000000
# 5 0.000000 0.000000 0.000000 0.000000 0.050314 0.000000
# 6 0.000000 0.000000 0.000000 0.000000 0.000000 -0.033091
#
#
# Mechanical properties :
#
#
# Convention : Reuss Voigt Hill
#
# Bulk Modulus (GPa) = 30.03620 48.33160 39.18390
# Shear Modulus (GPa) = 30.15362 18.40715 24.28039
#
# Velocity S-wave (km/s) = 3.86007 3.01591 3.46380
# Velocity P-wave (km/s) = 5.89143 6.00086 5.94640
#
# Compressibility (1/GPa) = 0.03329316
#
# Stress axis : x y z
#
# Youngs Moduli (GPa) = 20.39569 58.73695 108.90104
#
# Poissons Ratio (x) = 0.82821 0.44088
# Poissons Ratio (y) = 0.28759 0.30747
# Poissons Ratio (z) = 0.08257 0.16584
#
# Static dielectric constant tensor:
#      x y z
#    x 1.717670 0.000000 0.000000 
#    y 0.000000 1.837940 0.000000 
#    z 0.000000 0.000000 2.073000 
# 
# From -- ./inp_files/12073.got.cif
#   From: 2010.05.17/outbox.cif.g08.bks.cpg/sg23_7_cif.got.tgz:12073.got - 2010.06.04 12:02:01.
