data_PCOD9332967
_publ_section_title
;
Structure prediction by ZEFSAII (Michael W. Deem and Ramdas Pophale) SiO2 
 PCOD9332967
Probable space group: I 21 21 21
;
_chemical_formula_sum "Si O2"
_cell_formula_units_Z 44
_cell_length_a 17.873275
_cell_length_b 14.723350
_cell_length_c 6.741069
_cell_angle_alpha 90.000000
_cell_angle_beta 90.000000
_cell_angle_gamma 90.000000
_cell_volume 1773.942531
_symmetry_space_group_name_H-M "I 21 21 21"
_symmetry_group_IT_number 24
_symmetry_cell_setting 'orthorhombic'
loop_
_space_group_symop_operation_xyz
x,y,z
-x,1/2-y,z
x,-y,1/2-z
1/2-x,y,-z
1/2+x,1/2+y,1/2+z
1/2-x,-y,1/2+z
1/2+x,1/2-y,-z
-x,1/2+y,1/2-z
loop_
_atom_site_type_symbol
_atom_site_label
_atom_site_fract_x
_atom_site_fract_y
_atom_site_fract_z
Si Si1 0.250000 0.774176 0.000000
Si Si2 0.370399 0.085118 0.519283
Si Si3 0.469174 0.418182 0.406857
Si Si4 0.165725 0.486061 0.981342
Si Si5 0.139272 0.299749 0.841876
Si Si6 0.835981 0.610976 0.554683
O O1 0.312395 0.840605 0.896961
O O2 0.295750 0.719148 0.172671
O O3 0.457073 0.110738 0.523153
O O4 0.345396 0.091726 0.288157
O O5 0.364059 0.977449 0.559690
O O6 0.492467 0.500000 0.250000
O O7 0.404108 0.455715 0.555029
O O8 0.431826 0.338069 0.278509
O O9 0.151979 0.500000 0.750000
O O10 0.161905 0.378094 0.999028
O O11 0.250000 0.519461 0.000000
O O12 0.124084 0.207656 0.959548
O O13 0.750000 0.621634 0.500000
#
# Coordination Sequence:
#
# PCOD9332967 Si02
#       6
#     4   8   8   8   8   8
#     4  10  20  32  52  84 102 152 176 244 264 342
#     4  10  19  34  51  81 111 140 190 224 285 327
#     4   9  18  34  54  83 108 141 184 243 276 325
#     4   9  19  34  58  84 114 146 187 237 287 336
#     4   9  20  32  55  83 107 140 192 226 284 321
#     4  10  18  30  52  75 108 141 175 229 275 331
#
# _framework density 24.803511
#
# number of rings (size 3 to 8) (size 9 to 14) (size 15 to 20)
#    0.000    2.909    2.727    0.545    5.091    2.909 
#    0.000    0.000    0.000    4.364    0.000    0.000 
#    0.000    0.000    0.000    0.000    0.000    0.000 
#
# Total GULP energy -122612.999594 kJ/mol
# GULP energy per Si atom -5573.318163 kJ/mol
# Density = 2.474706 g / cm^3
# Si number density = 24.803511 Si / 1000 Ang^3
#
#
#
# Elastic Constant Matrix: (Units=GPa)
#
#
# Indices 1 2 3 4 5 6 
#
# 1 192.0383 72.3273 11.5451 0.0000 0.0000 0.0000
# 2 72.3273 127.1066 11.4441 0.0000 0.0000 0.0000
# 3 11.5451 11.4441 64.7870 0.0000 0.0000 0.0000
# 4 0.0000 0.0000 0.0000 16.4495 0.0000 0.0000
# 5 0.0000 0.0000 0.0000 0.0000 -138.7533 0.0000
# 6 0.0000 0.0000 0.0000 0.0000 0.0000 16.3979
#
#
#
# Elastic Compliance Matrix: (Units=1/GPa)
#
#
# Indices 1 2 3 4 5 6 
#
# 1 0.006645 -0.003734 -0.000525 0.000000 0.000000 0.000000
# 2 -0.003734 0.010093 -0.001117 0.000000 0.000000 0.000000
# 3 -0.000525 -0.001117 0.015726 0.000000 0.000000 0.000000
# 4 0.000000 0.000000 0.000000 0.060792 0.000000 0.000000
# 5 0.000000 0.000000 0.000000 0.000000 -0.007207 0.000000
# 6 0.000000 0.000000 0.000000 0.000000 0.000000 0.060983
#
#
# Mechanical properties :
#
#
# Convention : Reuss Voigt Hill
#
# Bulk Modulus (GPa) = 46.05761 63.84055 54.94908
# Shear Modulus (GPa) = 30.29898 -1.94015 14.17942
#
# Velocity S-wave (km/s) = 3.49887 -0.88538 2.39356
# Velocity P-wave (km/s) = 5.91034 4.97486 5.46266
#
# Compressibility (1/GPa) = 0.02171194
#
# Stress axis : x y z
#
# Youngs Moduli (GPa) = 150.48471 99.08038 63.58876
#
# Poissons Ratio (x) = 0.36997 0.03336
# Poissons Ratio (y) = 0.56192 0.07105
# Poissons Ratio (z) = 0.07894 0.11071
#
# Static dielectric constant tensor:
#      x y z
#    x 2.191110 0.000000 0.000000 
#    y 0.000000 2.325400 0.000000 
#    z 0.000000 0.000000 2.074800 
# 
# From -- ./inp_files/20683.got.cif
#   From: 2010.05.17/outbox.cif.g08.bks.cpg/sg24_11_cif.got.tgz:20683.got - 2010.06.04 00:33:39.
