data_PCOD9332461
_publ_section_title
;
Structure prediction by ZEFSAII (Michael W. Deem and Ramdas Pophale) SiO2 
 PCOD9332461
Probable space group: I 2 2 2
;
_chemical_formula_sum "Si O2"
_cell_formula_units_Z 24
_cell_length_a 12.424333
_cell_length_b 11.128397
_cell_length_c 7.876162
_cell_angle_alpha 90.000000
_cell_angle_beta 90.000000
_cell_angle_gamma 90.000000
_cell_volume 1088.981078
_symmetry_space_group_name_H-M "I 2 2 2"
_symmetry_group_IT_number 23
_symmetry_cell_setting 'orthorhombic'
loop_
_space_group_symop_operation_xyz
x,y,z
-x,-y,z
x,-y,-z
-x,y,-z
1/2+x,1/2+y,1/2+z
1/2-x,1/2-y,1/2+z
1/2+x,1/2-y,1/2-z
1/2-x,1/2+y,1/2-z
loop_
_atom_site_type_symbol
_atom_site_label
_atom_site_fract_x
_atom_site_fract_y
_atom_site_fract_z
Si Si1 0.523957 0.195985 0.691586
Si Si2 0.344558 0.972496 0.195362
Si Si3 0.394954 0.560743 0.814184
O O1 0.500000 0.237356 0.500000
O O2 0.410518 0.147197 0.760456
O O3 0.576543 0.298696 0.806576
O O4 0.604131 0.081228 0.695042
O O5 0.218439 0.960253 0.225487
O O6 0.366542 0.000000 0.000000
O O7 0.500000 0.500000 0.731290
O O8 0.385922 0.500000 0.000000
#
# Coordination Sequence:
#
# PCOD9332461 Si02
#       3
#     8   8   8
#     4  11  25  47  77 102 148 188 240 293 361 433
#     4  11  26  45  76 108 142 193 238 288 367 427
#     4  11  28  45  74 103 144 183 246 295 358 414
#
# _framework density 22.03895
#
# number of rings (size 3 to 8) (size 9 to 14) (size 15 to 20)
#    0.000    1.000    0.000    6.000   18.667    0.000 
#    0.000    0.000    0.000    0.000    0.000    0.000 
#    0.000    0.000    0.000    0.000    0.000    0.000 
#
# Total GULP energy -67126.734511 kJ/mol
# GULP energy per Si atom -5593.894543 kJ/mol
# Density = 2.198879 g / cm^3
# Si number density = 22.038950 Si / 1000 Ang^3
#
#
#
# Elastic Constant Matrix: (Units=GPa)
#
#
# Indices 1 2 3 4 5 6 
#
# 1 183.7620 30.4438 19.9393 0.0000 0.0000 0.0000
# 2 30.4438 101.5679 32.5306 0.0000 0.0000 0.0000
# 3 19.9393 32.5306 120.3793 0.0000 0.0000 0.0000
# 4 0.0000 0.0000 0.0000 29.5887 0.0000 0.0000
# 5 0.0000 0.0000 0.0000 0.0000 10.5272 0.0000
# 6 0.0000 0.0000 0.0000 0.0000 0.0000 20.2964
#
#
#
# Elastic Compliance Matrix: (Units=1/GPa)
#
#
# Indices 1 2 3 4 5 6 
#
# 1 0.005757 -0.001555 -0.000533 0.000000 0.000000 0.000000
# 2 -0.001555 0.011198 -0.002769 0.000000 0.000000 0.000000
# 3 -0.000533 -0.002769 0.009144 0.000000 0.000000 0.000000
# 4 0.000000 0.000000 0.000000 0.033797 0.000000 0.000000
# 5 0.000000 0.000000 0.000000 0.000000 0.094992 0.000000
# 6 0.000000 0.000000 0.000000 0.000000 0.000000 0.049270
#
#
# Mechanical properties :
#
#
# Convention : Reuss Voigt Hill
#
# Bulk Modulus (GPa) = 61.02971 63.50406 62.26689
# Shear Modulus (GPa) = 22.79630 33.60215 28.19922
#
# Velocity S-wave (km/s) = 3.21964 3.90894 3.58092
# Velocity P-wave (km/s) = 6.44774 7.01784 6.73882
#
# Compressibility (1/GPa) = 0.01638546
#
# Stress axis : x y z
#
# Youngs Moduli (GPa) = 173.69279 89.29823 109.36581
#
# Poissons Ratio (x) = 0.13884 0.05834
# Poissons Ratio (y) = 0.27006 0.30280
# Poissons Ratio (z) = 0.09266 0.24724
#
# Static dielectric constant tensor:
#      x y z
#    x 1.769840 0.000000 0.000000 
#    y 0.000000 1.847350 0.000000 
#    z 0.000000 0.000000 1.813220 
# 
# From -- ./inp_files/7598.got.cif
#   From: 2010.05.17/outbox.cif.g08.bks.cpg/sg23_4_cif.got.tgz:7598.got - 2010.06.04 12:02:01.
