data_PCOD9332511
_publ_section_title
;
Structure prediction by ZEFSAII (Michael W. Deem and Ramdas Pophale) SiO2 
 PCOD9332511
Probable space group: I 2 2 2
;
_chemical_formula_sum "Si O2"
_cell_formula_units_Z 26
_cell_length_a 27.746563
_cell_length_b 8.122807
_cell_length_c 4.851889
_cell_angle_alpha 90.000000
_cell_angle_beta 90.000000
_cell_angle_gamma 90.000000
_cell_volume 1093.518627
_symmetry_space_group_name_H-M "I 2 2 2"
_symmetry_group_IT_number 23
_symmetry_cell_setting 'orthorhombic'
loop_
_space_group_symop_operation_xyz
x,y,z
-x,-y,z
x,-y,-z
-x,y,-z
1/2+x,1/2+y,1/2+z
1/2-x,1/2-y,1/2+z
1/2+x,1/2-y,1/2-z
1/2-x,1/2+y,1/2-z
loop_
_atom_site_type_symbol
_atom_site_label
_atom_site_fract_x
_atom_site_fract_y
_atom_site_fract_z
Si Si1 0.615240 0.303179 0.434005
Si Si2 0.500000 0.500000 0.500000
Si Si3 0.276949 0.818715 0.373762
Si Si4 0.449134 0.756269 0.899168
O O1 0.620706 0.500000 0.500000
O O2 0.667706 0.236335 0.362072
O O3 0.592099 0.190117 0.680780
O O4 0.579865 0.286990 0.172822
O O5 0.469674 0.610646 0.707275
O O6 0.252112 0.800726 0.079377
O O7 0.273072 0.000000 0.500000
O O8 0.500000 0.834799 0.000000
#
# Coordination Sequence:
#
# PCOD9332511 Si02
#       4
#     8   2   8   8
#     4  12  22  36  63  98 135 177 229 282 346 397
#     4  12  18  32  54  92 152 168 238 272 336 372
#     4  12  27  50  75 102 138 180 232 292 353 421
#     4  12  21  33  57  96 141 180 226 283 327 389
#
# _framework density 23.77646
#
# number of rings (size 3 to 8) (size 9 to 14) (size 15 to 20)
#    0.000    0.000    4.615    7.846    0.000    0.000 
#    0.000    0.000    0.000    5.538    0.000    0.000 
#    0.000    0.000    0.000    0.000    0.000    0.000 
#
# Total GULP energy -72609.549574 kJ/mol
# GULP energy per Si atom -5585.349967 kJ/mol
# Density = 2.372234 g / cm^3
# Si number density = 23.776460 Si / 1000 Ang^3
#
#
#
# Elastic Constant Matrix: (Units=GPa)
#
#
# Indices 1 2 3 4 5 6 
#
# 1 189.8309 21.2665 48.4332 0.0002 0.0001 0.0000
# 2 21.2665 87.7417 17.0762 0.0007 0.0002 0.0001
# 3 48.4332 17.0762 174.8283 0.0014 0.0006 0.0002
# 4 0.0002 0.0007 0.0014 6.5581 0.0002 0.0002
# 5 0.0001 0.0002 0.0006 0.0002 49.4477 0.0000
# 6 0.0000 0.0001 0.0002 0.0002 0.0000 -6.0204
#
#
#
# Elastic Compliance Matrix: (Units=1/GPa)
#
#
# Indices 1 2 3 4 5 6 
#
# 1 0.005772 -0.001109 -0.001491 0.000000 0.000000 0.000000
# 2 -0.001109 0.011831 -0.000848 -0.000001 0.000000 0.000000
# 3 -0.001491 -0.000848 0.006216 -0.000001 0.000000 0.000000
# 4 0.000000 -0.000001 -0.000001 0.152482 -0.000001 0.000004
# 5 0.000000 0.000000 0.000000 -0.000001 0.020223 0.000000
# 6 0.000000 0.000000 0.000000 0.000004 0.000000 -0.166102
#
#
# Mechanical properties :
#
#
# Convention : Reuss Voigt Hill
#
# Bulk Modulus (GPa) = 59.09160 69.55031 64.32096
# Shear Modulus (GPa) = 116.38666 34.37207 75.37937
#
# Velocity S-wave (km/s) = 7.00404 3.80628 5.63668
# Velocity P-wave (km/s) = 9.50346 6.97368 8.33511
#
# Compressibility (1/GPa) = 0.01692288
#
# Stress axis : x y z
#
# Youngs Moduli (GPa) = 173.23653 84.52381 160.88100
#
# Poissons Ratio (x) = 0.09373 0.23985
# Poissons Ratio (y) = 0.19211 0.13649
# Poissons Ratio (z) = 0.25827 0.07171
#
# Static dielectric constant tensor:
#      x y z
#    x 1.970650 0.000000 0.000000 
#    y 0.000000 1.967960 0.000000 
#    z 0.000000 0.000000 1.872090 
# 
# From -- ./inp_files/4702.got.cif
#   From: 2010.05.17/outbox.cif.g08.bks.cpg/sg23_3_cif.got.tgz:4702.got - 2010.06.04 12:02:01.
