data_PCOD9332354
_publ_section_title
;
Structure prediction by ZEFSAII (Michael W. Deem and Ramdas Pophale) SiO2 
 PCOD9332354
Probable space group: I 2 2 2
;
_chemical_formula_sum "Si O2"
_cell_formula_units_Z 58
_cell_length_a 18.068708
_cell_length_b 8.993575
_cell_length_c 16.370628
_cell_angle_alpha 90.000000
_cell_angle_beta 90.000000
_cell_angle_gamma 90.000000
_cell_volume 2660.264384
_symmetry_space_group_name_H-M "I 2 2 2"
_symmetry_group_IT_number 23
_symmetry_cell_setting 'orthorhombic'
loop_
_space_group_symop_operation_xyz
x,y,z
-x,-y,z
x,-y,-z
-x,y,-z
1/2+x,1/2+y,1/2+z
1/2-x,1/2-y,1/2+z
1/2+x,1/2-y,1/2-z
1/2-x,1/2+y,1/2-z
loop_
_atom_site_type_symbol
_atom_site_label
_atom_site_fract_x
_atom_site_fract_y
_atom_site_fract_z
Si Si1 0.624303 0.253441 0.673250
Si Si2 0.500000 0.000000 0.000000
Si Si3 0.916194 0.987588 0.403368
Si Si4 0.701284 0.287544 0.836341
Si Si5 0.645703 0.075281 0.311094
Si Si6 0.982005 0.323047 0.906492
Si Si7 0.612173 0.847951 0.871761
Si Si8 0.731945 0.485789 0.591661
O O1 0.644266 0.238003 0.767292
O O2 0.538750 0.265444 0.650491
O O3 0.671045 0.391225 0.640126
O O4 0.647048 0.086597 0.645204
O O5 0.448703 0.094748 0.937413
O O6 0.889880 0.829248 0.370269
O O7 0.924771 0.000000 0.500000
O O8 0.851835 0.107751 0.388195
O O9 0.000000 0.000000 0.368392
O O10 0.769745 0.378488 0.798810
O O11 0.740718 0.145587 0.876053
O O12 0.601014 0.184497 0.372327
O O13 0.606728 0.088146 0.221432
O O14 0.000000 0.500000 0.897983
O O15 0.000000 0.283009 0.000000
O O16 0.691856 0.893701 0.906290
O O17 0.703977 0.500000 0.500000
#
# Coordination Sequence:
#
# PCOD9332354 Si02
#       8
#     8   2   8   8   8   8   8   8
#     4  11  23  45  72 101 142 185 240 303 366 441
#     4  12  28  40  78 104 154 196 244 300 384 448
#     4  11  27  46  71 106 152 195 246 302 372 451
#     4  12  25  45  70 106 141 193 244 300 369 441
#     4  11  25  43  74 104 141 188 251 305 369 444
#     4   9  22  44  69 100 135 183 240 299 367 436
#     4  12  25  44  71 105 146 191 245 301 374 447
#     4  12  26  44  70 105 145 189 242 304 373 447
#
# _framework density 21.802344000000002
#
# number of rings (size 3 to 8) (size 9 to 14) (size 15 to 20)
#    0.000    0.828    3.448    2.483   10.621    0.000 
#    2.483    0.690    0.000    0.000    0.000    0.000 
#    0.000    0.000    0.000    0.000    0.000    0.000 
#
# Total GULP energy -161795.455975 kJ/mol
# GULP energy per Si atom -5579.153654 kJ/mol
# Density = 2.175272 g / cm^3
# Si number density = 21.802344 Si / 1000 Ang^3
#
#
#
# Elastic Constant Matrix: (Units=GPa)
#
#
# Indices 1 2 3 4 5 6 
#
# 1 112.0956 37.9033 30.3648 0.0000 0.0000 0.0000
# 2 37.9033 115.2187 21.9400 0.0000 0.0000 0.0000
# 3 30.3648 21.9400 89.4523 0.0000 0.0000 0.0000
# 4 0.0000 0.0000 0.0000 52.0172 0.0000 0.0000
# 5 0.0000 0.0000 0.0000 0.0000 46.5520 0.0000
# 6 0.0000 0.0000 0.0000 0.0000 0.0000 7.9381
#
#
#
# Elastic Compliance Matrix: (Units=1/GPa)
#
#
# Indices 1 2 3 4 5 6 
#
# 1 0.010713 -0.002971 -0.002908 0.000000 0.000000 0.000000
# 2 -0.002971 0.009928 -0.001427 0.000000 0.000000 0.000000
# 3 -0.002908 -0.001427 0.012516 0.000000 0.000000 0.000000
# 4 0.000000 0.000000 0.000000 0.019224 0.000000 0.000000
# 5 0.000000 0.000000 0.000000 0.000000 0.021481 0.000000
# 6 0.000000 0.000000 0.000000 0.000000 0.000000 0.125975
#
#
# Mechanical properties :
#
#
# Convention : Reuss Voigt Hill
#
# Bulk Modulus (GPa) = 53.91745 55.24253 54.57999
# Shear Modulus (GPa) = 22.66226 36.40535 29.53380
#
# Velocity S-wave (km/s) = 3.22753 4.09074 3.68450
# Velocity P-wave (km/s) = 6.21877 6.90689 6.57184
#
# Compressibility (1/GPa) = 0.01854687
#
# Stress axis : x y z
#
# Youngs Moduli (GPa) = 93.34339 100.72492 79.89647
#
# Poissons Ratio (x) = 0.29921 0.23234
# Poissons Ratio (y) = 0.27728 0.11399
# Poissons Ratio (z) = 0.27144 0.14370
#
# Static dielectric constant tensor:
#      x y z
#    x 1.599120 0.000000 0.000000 
#    y 0.000000 2.385150 0.000000 
#    z 0.000000 0.000000 2.108300 
# 
# From -- ./inp_files/25094.got.cif
#   From: 2010.05.17/outbox.cif.g08.bks.cpg/sg23_13_cif.got.tgz:25094.got - 2010.06.04 12:02:01.
