data_PCOD9332631
_publ_section_title
;
Structure prediction by ZEFSAII (Michael W. Deem and Ramdas Pophale) SiO2 
 PCOD9332631
Probable space group: I 2 2 2
;
_chemical_formula_sum "Si O2"
_cell_formula_units_Z 32
_cell_length_a 9.000000
_cell_length_b 18.000000
_cell_length_c 21.000000
_cell_angle_alpha 90.000000
_cell_angle_beta 90.000000
_cell_angle_gamma 90.000000
_cell_volume 3402.000000
_symmetry_space_group_name_H-M "I 2 2 2"
_symmetry_group_IT_number 23
_symmetry_cell_setting 'orthorhombic'
loop_
_space_group_symop_operation_xyz
x,y,z
-x,-y,z
x,-y,-z
-x,y,-z
1/2+x,1/2+y,1/2+z
1/2-x,1/2-y,1/2+z
1/2+x,1/2-y,1/2-z
1/2-x,1/2+y,1/2-z
loop_
_atom_site_type_symbol
_atom_site_label
_atom_site_fract_x
_atom_site_fract_y
_atom_site_fract_z
Si Si1 0.495730 0.783951 0.673729
Si Si2 0.585452 0.924598 0.256740
Si Si3 0.950188 0.308809 0.350820
Si Si4 0.847368 0.660871 0.462575
Si Si5 0.347937 0.470706 0.266720
Si Si6 0.089185 0.071181 0.913279
Si Si7 0.348367 0.298914 0.571539
Si Si8 0.195434 0.806246 0.262887
O O1 0.423791 0.863965 0.687469
O O2 0.567695 0.769539 0.605030
O O3 0.641058 0.776505 0.719852
O O4 0.374506 0.723364 0.696620
O O5 0.523931 0.878019 0.196477
O O6 0.500000 0.000000 0.271957
O O7 0.742775 0.958011 0.236831
O O8 0.793356 0.324142 0.386177
O O9 0.913836 0.233128 0.313509
O O10 0.087180 0.303151 0.398661
O O11 0.745010 0.590492 0.446241
O O12 0.734187 0.711217 0.504109
O O13 0.000000 0.642557 0.500000
O O14 0.500000 0.500000 0.237993
O O15 0.375191 0.444973 0.339292
O O16 0.296878 0.394843 0.233171
O O17 0.973421 0.137886 0.925273
O O18 0.000000 0.000000 0.935330
#
# Coordination Sequence:
#
# PCOD9332631 Si02
#       8
#     8   8   8   8   8   8   8   8
#     4  10  21  35  54  81 115 154 196 242 294 354
#     4  11  20  34  54  82 117 156 191 239 299 360
#     4   9  20  35  55  81 114 154 202 242 291 351
#     4  10  22  39  57  79 111 155 207 253 282 345
#     4  11  22  35  54  82 121 158 189 234 295 358
#     4  11  22  37  55  80 114 153 198 245 290 345
#     4  10  20  37  54  77 114 157 200 249 289 338
#     4  10  20  34  55  82 113 155 191 235 295 358
#
# _framework density 9.4062319999999993
#
# number of rings (size 3 to 8) (size 9 to 14) (size 15 to 20)
#    0.000    1.750    2.500    2.625    5.250    1.000 
#    0.000    6.250    0.000    0.000    0.000    0.000 
#    0.000   24.500    0.000    0.000    0.000    0.000 
#
# Total GULP energy -178233.822318 kJ/mol
# GULP energy per Si atom -5569.806947 kJ/mol
# Density = 0.938482 g / cm^3
# Si number density = 9.406232 Si / 1000 Ang^3
#
#
#
# Elastic Constant Matrix: (Units=GPa)
#
#
# Indices 1 2 3 4 5 6 
#
# 1 88.5820 28.6161 49.4508 0.0000 0.0000 0.0000
# 2 28.6161 94.0519 47.3121 0.0000 0.0000 0.0000
# 3 49.4508 47.3121 61.5592 0.0000 0.0000 0.0000
# 4 0.0000 0.0000 0.0000 6.8663 0.0000 0.0000
# 5 0.0000 0.0000 0.0000 0.0000 -35.6079 0.0000
# 6 0.0000 0.0000 0.0000 0.0000 0.0000 28.1621
#
#
#
# Elastic Compliance Matrix: (Units=1/GPa)
#
#
# Indices 1 2 3 4 5 6 
#
# 1 0.021128 0.003439 -0.019616 0.000000 0.000000 0.000000
# 2 0.003439 0.017894 -0.016515 0.000000 0.000000 0.000000
# 3 -0.019616 -0.016515 0.044695 0.000000 0.000000 0.000000
# 4 0.000000 0.000000 0.000000 0.145638 0.000000 0.000000
# 5 0.000000 0.000000 0.000000 0.000000 -0.028084 0.000000
# 6 0.000000 0.000000 0.000000 0.000000 0.000000 0.035509
#
#
# Mechanical properties :
#
#
# Convention : Reuss Voigt Hill
#
# Bulk Modulus (GPa) = 54.54489 54.99457 54.76973
# Shear Modulus (GPa) = 16.21929 7.80504 12.01217
#
# Velocity S-wave (km/s) = 2.93944 2.03909 2.52964
# Velocity P-wave (km/s) = 6.37003 5.90257 6.14075
#
# Compressibility (1/GPa) = 0.01833352
#
# Stress axis : x y z
#
# Youngs Moduli (GPa) = 47.32963 55.88492 22.37397
#
# Poissons Ratio (x) = -0.19219 0.43888
# Poissons Ratio (y) = -0.16277 0.36951
# Poissons Ratio (z) = 0.92840 0.92295
#
# Static dielectric constant tensor:
#      x y z
#    x 1.744080 0.000000 0.000000 
#    y 0.000000 1.641840 0.000000 
#    z 0.000000 0.000000 1.750190 
# 
# From -- ./inp_files/26360.got.cif
#   From: 2010.05.17/outbox.ucp.g08.bks.cvg/sg23_14_cif.got.tgz:26360.got - 2010.06.11 15:19:07.
