data_PCOD9332804
_publ_section_title
;
Structure prediction by ZEFSAII (Michael W. Deem and Ramdas Pophale) SiO2 
 PCOD9332804
Probable space group: I 21 21 21
;
_chemical_formula_sum "Si O2"
_cell_formula_units_Z 48
_cell_length_a 18.444732
_cell_length_b 7.990547
_cell_length_c 14.242554
_cell_angle_alpha 90.000000
_cell_angle_beta 90.000000
_cell_angle_gamma 90.000000
_cell_volume 2099.117428
_symmetry_space_group_name_H-M "I 21 21 21"
_symmetry_group_IT_number 24
_symmetry_cell_setting 'orthorhombic'
loop_
_space_group_symop_operation_xyz
x,y,z
-x,1/2-y,z
x,-y,1/2-z
1/2-x,y,-z
1/2+x,1/2+y,1/2+z
1/2-x,-y,1/2+z
1/2+x,1/2-y,-z
-x,1/2+y,1/2-z
loop_
_atom_site_type_symbol
_atom_site_label
_atom_site_fract_x
_atom_site_fract_y
_atom_site_fract_z
Si Si1 0.409410 0.929603 0.905272
Si Si2 0.000000 0.250000 0.827239
Si Si3 0.000000 0.250000 0.249634
Si Si4 0.448923 0.532459 0.030044
Si Si5 0.121831 0.317812 0.124166
Si Si6 0.626745 0.817611 0.198404
Si Si7 0.287574 0.811655 0.791518
O O1 0.446826 0.859503 0.810958
O O2 0.334963 0.822437 0.888460
O O3 0.387053 0.124909 0.909951
O O4 0.477736 0.915453 0.975577
O O5 0.021801 0.398958 0.895142
O O6 0.069069 0.216364 0.761293
O O7 0.950614 0.142187 0.181661
O O8 0.407651 0.663798 0.095418
O O9 0.388379 0.444029 0.962452
O O10 0.182453 0.307659 0.206090
O O11 0.705246 0.737354 0.191718
O O12 0.633038 0.000000 0.250000
O O13 0.292006 0.000000 0.750000
#
# Coordination Sequence:
#
# PCOD9332804 Si02
#       7
#     8   4   4   8   8   8   8
#     4  10  19  35  65 103 137 170 226 279 352 406
#     4  10  21  43  72  92 128 178 234 297 329 410
#     4  10  17  29  56 102 140 168 206 271 347 410
#     4  11  20  39  74 104 130 174 242 292 329 409
#     4  10  18  35  67 101 135 174 224 280 346 412
#     4  10  24  44  70 101 131 189 241 275 350 408
#     4   9  21  41  70 104 142 184 218 280 362 425
#
# _framework density 22.866752999999999
#
# number of rings (size 3 to 8) (size 9 to 14) (size 15 to 20)
#    0.000    2.000    3.333    1.500    0.000    2.667 
#    6.000    3.333    7.333    8.000    0.000    0.000 
#    0.000    0.000    0.000    0.000    0.000    0.000 
#
# Total GULP energy -133779.383686 kJ/mol
# GULP energy per Si atom -5574.140987 kJ/mol
# Density = 2.281471 g / cm^3
# Si number density = 22.866753 Si / 1000 Ang^3
#
#
#
# Elastic Constant Matrix: (Units=GPa)
#
#
# Indices 1 2 3 4 5 6 
#
# 1 160.5381 26.9088 57.2592 0.0000 0.0000 0.0000
# 2 26.9088 64.8122 37.1919 0.0000 0.0000 0.0000
# 3 57.2592 37.1919 120.9489 0.0000 0.0000 0.0000
# 4 0.0000 0.0000 0.0000 20.8091 0.0000 0.0000
# 5 0.0000 0.0000 0.0000 0.0000 38.4844 0.0000
# 6 0.0000 0.0000 0.0000 0.0000 0.0000 40.0080
#
#
#
# Elastic Compliance Matrix: (Units=1/GPa)
#
#
# Indices 1 2 3 4 5 6 
#
# 1 0.007587 -0.001322 -0.003185 0.000000 0.000000 0.000000
# 2 -0.001322 0.018966 -0.005206 0.000000 0.000000 0.000000
# 3 -0.003185 -0.005206 0.011377 0.000000 0.000000 0.000000
# 4 0.000000 0.000000 0.000000 0.048056 0.000000 0.000000
# 5 0.000000 0.000000 0.000000 0.000000 0.025985 0.000000
# 6 0.000000 0.000000 0.000000 0.000000 0.000000 0.024995
#
#
# Mechanical properties :
#
#
# Convention : Reuss Voigt Hill
#
# Bulk Modulus (GPa) = 54.04686 65.44655 59.74671
# Shear Modulus (GPa) = 30.75818 34.85626 32.80722
#
# Velocity S-wave (km/s) = 3.67155 3.90849 3.79187
# Velocity P-wave (km/s) = 6.45450 7.00367 6.73468
#
# Compressibility (1/GPa) = 0.01850246
#
# Stress axis : x y z
#
# Youngs Moduli (GPa) = 131.80974 52.72720 87.89898
#
# Poissons Ratio (x) = 0.06971 0.27997
# Poissons Ratio (y) = 0.17426 0.45760
# Poissons Ratio (z) = 0.41983 0.27450
#
# Static dielectric constant tensor:
#      x y z
#    x 1.853800 0.000000 0.000000 
#    y 0.000000 1.562490 0.000000 
#    z 0.000000 0.000000 1.884830 
# 
# From -- ./inp_files/27085.got.cif
#   From: 2010.05.17/outbox.cif.g08.bks.cpg/sg24_14_cif.got.tgz:27085.got - 2010.06.04 00:33:39.
