data_PCOD9332603
_publ_section_title
;
Structure prediction by ZEFSAII (Michael W. Deem and Ramdas Pophale) SiO2 
 PCOD9332603
Probable space group: I 2 2 2
;
_chemical_formula_sum "Si O2"
_cell_formula_units_Z 26
_cell_length_a 4.916991
_cell_length_b 26.584169
_cell_length_c 8.190664
_cell_angle_alpha 90.000000
_cell_angle_beta 90.000000
_cell_angle_gamma 90.000000
_cell_volume 1070.635435
_symmetry_space_group_name_H-M "I 2 2 2"
_symmetry_group_IT_number 23
_symmetry_cell_setting 'orthorhombic'
loop_
_space_group_symop_operation_xyz
x,y,z
-x,-y,z
x,-y,-z
-x,y,-z
1/2+x,1/2+y,1/2+z
1/2-x,1/2-y,1/2+z
1/2+x,1/2-y,1/2-z
1/2-x,1/2+y,1/2-z
loop_
_atom_site_type_symbol
_atom_site_label
_atom_site_fract_x
_atom_site_fract_y
_atom_site_fract_z
Si Si1 0.102079 0.720639 0.815911
Si Si2 0.099399 0.942157 0.670545
Si Si3 0.500000 0.000000 0.500000
Si Si4 0.231951 0.129166 0.895795
O O1 0.374673 0.752871 0.795427
O O2 0.158674 0.665570 0.744036
O O3 0.000000 0.717897 0.000000
O O4 0.410347 0.956601 0.635495
O O5 0.000000 0.918031 0.500000
O O6 0.960976 0.913829 0.817956
O O7 0.000000 0.000000 0.667606
O O8 0.500000 0.113900 0.000000
O O9 0.000000 0.158683 0.000000
#
# Coordination Sequence:
#
# PCOD9332603 Si02
#       4
#     8   8   2   8
#     4  12  26  50  79 110 150 195 245 309 378 451
#     4   9  22  44  73 104 145 200 256 317 372 450
#     4   8  18  44  80 104 144 200 280 306 388 442
#     4  12  28  46  73 114 154 196 252 314 380 453
#
# _framework density 24.284644
#
# number of rings (size 3 to 8) (size 9 to 14) (size 15 to 20)
#    0.000    1.538    0.000    5.538    8.615    5.538 
#    2.769    1.538    0.000    0.000    0.000    0.000 
#    0.000    0.000    0.000    0.000    0.000    0.000 
#
# Total GULP energy -72393.409038 kJ/mol
# GULP energy per Si atom -5568.723772 kJ/mol
# Density = 2.422937 g / cm^3
# Si number density = 24.284644 Si / 1000 Ang^3
#
#
#
# Elastic Constant Matrix: (Units=GPa)
#
#
# Indices 1 2 3 4 5 6 
#
# 1 118.3281 26.8434 37.7305 0.0000 0.0000 0.0000
# 2 26.8434 92.4374 52.7576 0.0000 0.0000 0.0000
# 3 37.7305 52.7576 137.1740 0.0000 0.0000 0.0000
# 4 0.0000 0.0000 0.0000 27.6107 0.0000 0.0000
# 5 0.0000 0.0000 0.0000 0.0000 44.8899 0.0000
# 6 0.0000 0.0000 0.0000 0.0000 0.0000 51.5933
#
#
#
# Elastic Compliance Matrix: (Units=1/GPa)
#
#
# Indices 1 2 3 4 5 6 
#
# 1 0.009448 -0.001615 -0.001978 0.000000 0.000000 0.000000
# 2 -0.001615 0.014137 -0.004993 0.000000 0.000000 0.000000
# 3 -0.001978 -0.004993 0.009754 0.000000 0.000000 0.000000
# 4 0.000000 0.000000 0.000000 0.036218 0.000000 0.000000
# 5 0.000000 0.000000 0.000000 0.000000 0.022277 0.000000
# 6 0.000000 0.000000 0.000000 0.000000 0.000000 0.019382
#
#
# Mechanical properties :
#
#
# Convention : Reuss Voigt Hill
#
# Bulk Modulus (GPa) = 61.84996 64.73361 63.29178
# Shear Modulus (GPa) = 37.37592 40.19267 38.78429
#
# Velocity S-wave (km/s) = 3.92736 4.07266 4.00067
# Velocity P-wave (km/s) = 6.78893 6.98781 6.88909
#
# Compressibility (1/GPa) = 0.01616816
#
# Stress axis : x y z
#
# Youngs Moduli (GPa) = 105.84218 70.73790 102.51976
#
# Poissons Ratio (x) = 0.11424 0.20274
# Poissons Ratio (y) = 0.17093 0.51186
# Poissons Ratio (z) = 0.20932 0.35318
#
# Static dielectric constant tensor:
#      x y z
#    x 2.646590 0.000000 0.000000 
#    y 0.000000 1.890190 0.000000 
#    z 0.000000 0.000000 1.947840 
# 
# From -- ./inp_files/5638.got.cif
#   From: 2010.05.17/outbox.cif.g08.bks.cpg/sg23_3_cif.got.tgz:5638.got - 2010.06.04 12:02:01.
