data_PCOD9332345
_publ_section_title
;
Structure prediction by ZEFSAII (Michael W. Deem and Ramdas Pophale) SiO2 
 PCOD9332345
Probable space group: I 2 2 2
;
_chemical_formula_sum "Si O2"
_cell_formula_units_Z 48
_cell_length_a 11.533892
_cell_length_b 16.729449
_cell_length_c 11.231081
_cell_angle_alpha 90.000000
_cell_angle_beta 90.000000
_cell_angle_gamma 90.000000
_cell_volume 2167.100624
_symmetry_space_group_name_H-M "I 2 2 2"
_symmetry_group_IT_number 23
_symmetry_cell_setting 'orthorhombic'
loop_
_space_group_symop_operation_xyz
x,y,z
-x,-y,z
x,-y,-z
-x,y,-z
1/2+x,1/2+y,1/2+z
1/2-x,1/2-y,1/2+z
1/2+x,1/2-y,1/2-z
1/2-x,1/2+y,1/2-z
loop_
_atom_site_type_symbol
_atom_site_label
_atom_site_fract_x
_atom_site_fract_y
_atom_site_fract_z
Si Si1 0.388201 0.692912 0.740066
Si Si2 0.555780 0.413372 0.369749
Si Si3 0.330777 0.882070 0.184438
Si Si4 0.829569 0.437764 0.331210
Si Si5 0.039783 0.357414 0.865468
Si Si6 0.619945 0.785187 0.034860
O O1 0.513371 0.651296 0.726898
O O2 0.302934 0.618699 0.720338
O O3 0.402698 0.769994 0.653903
O O4 0.334102 0.730941 0.860254
O O5 0.500000 0.500000 0.346620
O O6 0.500000 0.389827 0.500000
O O7 0.695373 0.419642 0.365262
O O8 0.423100 0.861189 0.285378
O O9 0.356756 0.971001 0.139302
O O10 0.324557 0.811392 0.087278
O O11 0.869437 0.419975 0.194845
O O12 0.901768 0.371014 0.402402
O O13 0.000000 0.372016 0.000000
O O14 0.500000 0.745239 0.000000
#
# Coordination Sequence:
#
# PCOD9332345 Si02
#       6
#     8   8   8   8   8   8
#     4  11  25  43  67 100 141 185 229 295 357 430
#     4  11  23  44  69 109 143 183 240 293 364 430
#     4  12  24  44  69 102 141 180 245 296 358 424
#     4  11  24  43  74 104 138 183 232 309 350 422
#     4  11  27  45  70 103 144 195 238 295 367 440
#     4  11  24  42  67 103 134 182 228 293 351 418
#
# _framework density 22.14941
#
# number of rings (size 3 to 8) (size 9 to 14) (size 15 to 20)
#    0.000    0.833    5.000    2.500    9.333    2.000 
#    0.000    0.000    0.000    0.500    0.000    0.000 
#    0.000    0.000    0.000    0.000    0.000    0.000 
#
# Total GULP energy -133707.840358 kJ/mol
# GULP energy per Si atom -5571.160015 kJ/mol
# Density = 2.209900 g / cm^3
# Si number density = 22.149410 Si / 1000 Ang^3
#
#
#
# Elastic Constant Matrix: (Units=GPa)
#
#
# Indices 1 2 3 4 5 6 
#
# 1 93.6972 1.9703 37.5651 0.0005 0.0000 0.0000
# 2 1.9703 62.2015 11.4070 0.0000 0.0000 0.0000
# 3 37.5651 11.4070 110.7297 0.0011 0.0000 -0.0001
# 4 0.0005 0.0000 0.0011 153.2749 0.0000 -0.0004
# 5 0.0000 0.0000 0.0000 0.0000 13.6906 0.0000
# 6 0.0000 0.0000 -0.0001 -0.0004 0.0000 39.3637
#
#
#
# Elastic Compliance Matrix: (Units=1/GPa)
#
#
# Indices 1 2 3 4 5 6 
#
# 1 0.012362 0.000385 -0.004233 0.000000 0.000000 0.000000
# 2 0.000385 0.016398 -0.001820 0.000000 0.000000 0.000000
# 3 -0.004233 -0.001820 0.010655 0.000000 0.000000 0.000000
# 4 0.000000 0.000000 0.000000 0.006524 0.000000 0.000000
# 5 0.000000 0.000000 0.000000 0.000000 0.073043 0.000000
# 6 0.000000 0.000000 0.000000 0.000000 0.000000 0.025404
#
#
# Mechanical properties :
#
#
# Convention : Reuss Voigt Hill
#
# Bulk Modulus (GPa) = 35.61519 40.94591 38.28055
# Shear Modulus (GPa) = 30.28798 55.64492 42.96645
#
# Velocity S-wave (km/s) = 3.70190 5.01768 4.40915
# Velocity P-wave (km/s) = 5.86400 7.21774 6.57580
#
# Compressibility (1/GPa) = 0.02807791
#
# Stress axis : x y z
#
# Youngs Moduli (GPa) = 80.89412 60.98187 93.85573
#
# Poissons Ratio (x) = -0.02346 0.39733
# Poissons Ratio (y) = -0.03113 0.17080
# Poissons Ratio (z) = 0.34246 0.11098
#
# Static dielectric constant tensor:
#      x y z
#    x 1.488960 0.000000 0.000000 
#    y 0.000000 1.791010 0.000000 
#    z 0.000000 0.000000 2.006260 
# 
# From -- ./inp_files/15742.got.cif
#   From: 2010.05.17/outbox.cif.g08.bks.cpg/sg23_8_cif.got.tgz:15742.got - 2010.06.04 12:02:01.
