data_PCOD9332722
_publ_section_title
;
Structure prediction by ZEFSAII (Michael W. Deem and Ramdas Pophale) SiO2 
 PCOD9332722
Probable space group: I 21 21 21
;
_chemical_formula_sum "Si O2"
_cell_formula_units_Z 36
_cell_length_a 20.798903
_cell_length_b 5.330313
_cell_length_c 19.347279
_cell_angle_alpha 90.000000
_cell_angle_beta 90.000000
_cell_angle_gamma 90.000000
_cell_volume 2144.929567
_symmetry_space_group_name_H-M "I 21 21 21"
_symmetry_group_IT_number 24
_symmetry_cell_setting 'orthorhombic'
loop_
_space_group_symop_operation_xyz
x,y,z
-x,1/2-y,z
x,-y,1/2-z
1/2-x,y,-z
1/2+x,1/2+y,1/2+z
1/2-x,-y,1/2+z
1/2+x,1/2-y,-z
-x,1/2+y,1/2-z
loop_
_atom_site_type_symbol
_atom_site_label
_atom_site_fract_x
_atom_site_fract_y
_atom_site_fract_z
Si Si1 0.254114 0.748917 0.084326
Si Si2 0.071972 0.192923 0.029913
Si Si3 0.695687 0.257190 0.061243
Si Si4 0.962452 0.000000 0.250000
Si Si5 0.605968 0.807367 0.885732
O O1 0.298628 0.509919 0.097873
O O2 0.182697 0.720826 0.112919
O O3 0.283012 0.011439 0.107850
O O4 0.250000 0.767478 0.000000
O O5 0.090685 0.441949 0.071855
O O6 0.000000 0.250000 0.004436
O O7 0.076498 0.941407 0.077395
O O8 0.127353 0.177904 0.972186
O O9 0.750000 0.237560 0.000000
O O10 0.922087 0.132741 0.310637
O O11 0.000000 0.250000 0.221272
#
# Coordination Sequence:
#
# PCOD9332722 Si02
#       5
#     8   8   8   4   8
#     4  10  16  30  51  69  83 113 160 205 253 288
#     4  12  21  30  48  71  93 124 162 201 242 294
#     4  10  16  30  46  68  91 111 153 199 252 298
#     4  12  26  40  46  64 100 142 180 208 230 270
#     4  12  21  35  50  64  92 130 173 208 232 273
#
# _framework density 16.783768999999999
#
# number of rings (size 3 to 8) (size 9 to 14) (size 15 to 20)
#    0.000    0.889    8.889    4.000    0.000    0.000 
#    0.000    0.000    0.000    0.000    0.000    0.000 
#    0.000    0.000    0.000    4.000    0.000    2.889 
#
# Total GULP energy -100267.703693 kJ/mol
# GULP energy per Si atom -5570.427983 kJ/mol
# Density = 1.674557 g / cm^3
# Si number density = 16.783769 Si / 1000 Ang^3
#
#
#
# Elastic Constant Matrix: (Units=GPa)
#
#
# Indices 1 2 3 4 5 6 
#
# 1 74.8158 -13.2732 20.9014 0.0000 0.0000 0.0000
# 2 -13.2732 113.7049 0.4473 0.0000 0.0000 0.0000
# 3 20.9014 0.4473 14.5427 0.0000 0.0000 0.0000
# 4 0.0000 0.0000 0.0000 14.6717 0.0000 0.0000
# 5 0.0000 0.0000 0.0000 0.0000 16.9916 0.0000
# 6 0.0000 0.0000 0.0000 0.0000 0.0000 27.3469
#
#
#
# Elastic Compliance Matrix: (Units=1/GPa)
#
#
# Indices 1 2 3 4 5 6 
#
# 1 0.023217 0.002842 -0.033456 0.000000 0.000000 0.000000
# 2 0.002842 0.009144 -0.004366 0.000000 0.000000 0.000000
# 3 -0.033456 -0.004366 0.116982 0.000000 0.000000 0.000000
# 4 0.000000 0.000000 0.000000 0.068159 0.000000 0.000000
# 5 0.000000 0.000000 0.000000 0.000000 0.058853 0.000000
# 6 0.000000 0.000000 0.000000 0.000000 0.000000 0.036567
#
#
# Mechanical properties :
#
#
# Convention : Reuss Voigt Hill
#
# Bulk Modulus (GPa) = 12.59717 24.35715 18.47716
# Shear Modulus (GPa) = 12.21476 24.80123 18.50799
#
# Velocity S-wave (km/s) = 2.70065 3.84825 3.32434
# Velocity P-wave (km/s) = 4.15290 5.85569 5.07620
#
# Compressibility (1/GPa) = 0.07938291
#
# Stress axis : x y z
#
# Youngs Moduli (GPa) = 43.07203 109.36607 8.54835
#
# Poissons Ratio (x) = -0.31080 0.28599
# Poissons Ratio (y) = -0.12240 0.03732
# Poissons Ratio (z) = 1.44101 0.47745
#
# Static dielectric constant tensor:
#      x y z
#    x 1.624470 0.000000 0.000000 
#    y 0.000000 1.671930 0.000000 
#    z 0.000000 0.000000 1.543090 
# 
# From -- ./inp_files/5465.got.cif
#   From: 2010.05.17/outbox.cif.g08.bks.cpg/sg24_3_cif.got.tgz:5465.got - 2010.06.04 00:33:39.
