data_PCOD9332641
_publ_section_title
;
Structure prediction by ZEFSAII (Michael W. Deem and Ramdas Pophale) SiO2 
 PCOD9332641
Probable space group: I 2 2 2
;
_chemical_formula_sum "Si O2"
_cell_formula_units_Z 28
_cell_length_a 21.000000
_cell_length_b 15.000000
_cell_length_c 9.000000
_cell_angle_alpha 90.000000
_cell_angle_beta 90.000000
_cell_angle_gamma 90.000000
_cell_volume 2835.000000
_symmetry_space_group_name_H-M "I 2 2 2"
_symmetry_group_IT_number 23
_symmetry_cell_setting 'orthorhombic'
loop_
_space_group_symop_operation_xyz
x,y,z
-x,-y,z
x,-y,-z
-x,y,-z
1/2+x,1/2+y,1/2+z
1/2-x,1/2-y,1/2+z
1/2+x,1/2-y,1/2-z
1/2-x,1/2+y,1/2-z
loop_
_atom_site_type_symbol
_atom_site_label
_atom_site_fract_x
_atom_site_fract_y
_atom_site_fract_z
Si Si1 0.705713 0.132053 0.730635
Si Si2 0.000000 0.316375 0.000000
Si Si3 0.057717 0.577888 0.256320
Si Si4 0.588937 0.722113 0.739459
Si Si5 0.073936 0.984381 0.822964
Si Si6 0.000000 0.291907 0.500000
Si Si7 0.223339 0.708515 0.889735
Si Si8 0.199057 0.970650 0.330630
O O1 0.636562 0.082194 0.759848
O O2 0.729350 0.207263 0.851103
O O3 0.708381 0.182706 0.565661
O O4 0.758044 0.052461 0.731382
O O5 0.959324 0.257957 0.886579
O O6 0.044783 0.379455 0.903592
O O7 0.000000 0.500000 0.268592
O O8 0.037868 0.645550 0.385774
O O9 0.593090 0.616452 0.718219
O O10 0.553134 0.741900 0.897079
O O11 0.657322 0.768137 0.699909
O O12 0.130994 0.041805 0.750413
O O13 0.000000 0.000000 0.774682
O O14 0.075320 0.000000 0.000000
O O15 0.259029 0.619582 0.830721
O O16 0.185378 0.000000 0.500000
#
# Coordination Sequence:
#
# PCOD9332641 Si02
#       8
#     8   4   8   8   8   4   8   8
#     4  11  25  45  71 103 142 197 237 304 365 440
#     4  10  21  38  69  98 134 186 246 294 359 431
#     4  11  24  42  67 102 143 190 248 301 364 432
#     4  11  23  46  68 105 138 189 237 299 366 440
#     4  11  25  45  70  99 134 172 234 300 357 427
#     4  10  27  42  65 102 144 184 238 300 365 437
#     4  11  25  44  73 102 147 186 247 293 370 443
#     4  10  25  43  66 103 139 180 233 287 360 435
#
# _framework density 9.8765429999999999
#
# number of rings (size 3 to 8) (size 9 to 14) (size 15 to 20)
#    0.000    1.286    2.857    1.286    8.000    4.857 
#    0.000    0.000    0.000    0.000    0.000    0.000 
#    0.000    0.000    0.000    0.000    0.000    0.000 
#
# Total GULP energy -156042.765200 kJ/mol
# GULP energy per Si atom -5572.955900 kJ/mol
# Density = 0.985406 g / cm^3
# Si number density = 9.876543 Si / 1000 Ang^3
#
#
#
# Elastic Constant Matrix: (Units=GPa)
#
#
# Indices 1 2 3 4 5 6 
#
# 1 171.9717 31.1911 28.2197 0.0000 0.0000 0.0000
# 2 31.1911 93.7896 19.6973 0.0000 0.0000 0.0000
# 3 28.2197 19.6973 74.9937 0.0000 0.0000 0.0000
# 4 0.0000 0.0000 0.0000 23.2837 0.0000 0.0000
# 5 0.0000 0.0000 0.0000 0.0000 34.3360 0.0000
# 6 0.0000 0.0000 0.0000 0.0000 0.0000 40.3265
#
#
#
# Elastic Compliance Matrix: (Units=1/GPa)
#
#
# Indices 1 2 3 4 5 6 
#
# 1 0.006453 -0.001732 -0.001973 0.000000 0.000000 0.000000
# 2 -0.001732 0.011749 -0.002434 0.000000 0.000000 0.000000
# 3 -0.001973 -0.002434 0.014716 0.000000 0.000000 0.000000
# 4 0.000000 0.000000 0.000000 0.042949 0.000000 0.000000
# 5 0.000000 0.000000 0.000000 0.000000 0.029124 0.000000
# 6 0.000000 0.000000 0.000000 0.000000 0.000000 0.024798
#
#
# Mechanical properties :
#
#
# Convention : Reuss Voigt Hill
#
# Bulk Modulus (GPa) = 48.44990 55.44125 51.94557
# Shear Modulus (GPa) = 33.56895 37.03235 35.30065
#
# Velocity S-wave (km/s) = 4.12688 4.33455 4.23199
# Velocity P-wave (km/s) = 6.87672 7.29240 7.08761
#
# Compressibility (1/GPa) = 0.02063988
#
# Stress axis : x y z
#
# Youngs Moduli (GPa) = 154.97189 85.11159 67.95132
#
# Poissons Ratio (x) = 0.14737 0.13409
# Poissons Ratio (y) = 0.26834 0.16542
# Poissons Ratio (z) = 0.30581 0.20720
#
# Static dielectric constant tensor:
#      x y z
#    x 1.747650 0.000000 0.000000 
#    y 0.000000 1.718790 0.000000 
#    z 0.000000 0.000000 1.712730 
# 
# From -- ./inp_files/12094.got.cif
#   From: 2010.05.17/outbox.ucp.g08.bks.cvg/sg23_7_cif.got.tgz:12094.got - 2010.06.11 15:19:07.
