data_PCOD9332808
_publ_section_title
;
Structure prediction by ZEFSAII (Michael W. Deem and Ramdas Pophale) SiO2 
 PCOD9332808
Probable space group: I 21 21 21
;
_chemical_formula_sum "Si O2"
_cell_formula_units_Z 52
_cell_length_a 21.779058
_cell_length_b 5.577575
_cell_length_c 16.906354
_cell_angle_alpha 90.000000
_cell_angle_beta 90.000000
_cell_angle_gamma 90.000000
_cell_volume 2053.688015
_symmetry_space_group_name_H-M "I 21 21 21"
_symmetry_group_IT_number 24
_symmetry_cell_setting 'orthorhombic'
loop_
_space_group_symop_operation_xyz
x,y,z
-x,1/2-y,z
x,-y,1/2-z
1/2-x,y,-z
1/2+x,1/2+y,1/2+z
1/2-x,-y,1/2+z
1/2+x,1/2-y,-z
-x,1/2+y,1/2-z
loop_
_atom_site_type_symbol
_atom_site_label
_atom_site_fract_x
_atom_site_fract_y
_atom_site_fract_z
Si Si1 0.603129 0.463159 0.343677
Si Si2 0.556352 0.125754 0.567548
Si Si3 0.125500 0.242101 0.282231
Si Si4 0.000000 0.750000 0.316976
Si Si5 0.600873 0.041175 0.091464
Si Si6 0.755730 0.476380 0.594596
Si Si7 0.761273 0.976822 0.657061
O O1 0.605683 0.500000 0.250000
O O2 0.574272 0.704560 0.380183
O O3 0.673029 0.464619 0.377722
O O4 0.576993 0.202698 0.366745
O O5 0.500000 0.250000 0.521778
O O6 0.603329 0.260011 0.626255
O O7 0.515742 0.966487 0.626028
O O8 0.593578 0.983040 0.502189
O O9 0.151662 0.500000 0.250000
O O10 0.060501 0.233873 0.234800
O O11 0.157097 0.000000 0.250000
O O12 0.672972 0.038316 0.113276
O O13 0.750000 0.473577 0.500000
O O14 0.729890 0.226201 0.630279
O O15 0.730466 0.728593 0.628540
O O16 0.775904 0.000000 0.750000
#
# Coordination Sequence:
#
# PCOD9332808 Si02
#       7
#     8   8   8   4   8   8   8
#     4  10  20  39  59  80 106 143 188 214 257 339
#     4  11  21  31  51  77 110 129 181 243 285 316
#     4  10  17  30  47  68  95 126 160 213 273 311
#     4  10  18  32  48  70  98 128 172 220 274 328
#     4  10  21  32  54  83 104 142 177 234 274 314
#     4  10  18  30  55  90 115 132 171 238 271 298
#     4  10  19  36  56  81 112 149 192 215 257 334
#
# _framework density 25.3203
#
# number of rings (size 3 to 8) (size 9 to 14) (size 15 to 20)
#    0.000    1.846    2.308    5.538    2.154    0.000 
#    0.000    0.000    0.000    2.769    0.000  124.923 
#    0.000    0.000    0.000    0.000    0.000    0.000 
#
# Total GULP energy -145301.699254 kJ/mol
# GULP energy per Si atom -5588.526894 kJ/mol
# Density = 2.526267 g / cm^3
# Si number density = 25.320300 Si / 1000 Ang^3
#
#
#
# Elastic Constant Matrix: (Units=GPa)
#
#
# Indices 1 2 3 4 5 6 
#
# 1 73.8466 -0.5138 9.1327 0.0000 0.0000 0.0000
# 2 -0.5138 239.4023 52.3811 0.0000 0.0000 0.0000
# 3 9.1327 52.3811 171.2077 0.0000 0.0000 0.0000
# 4 0.0000 0.0000 0.0000 64.9886 0.0000 0.0000
# 5 0.0000 0.0000 0.0000 0.0000 13.2321 0.0000
# 6 0.0000 0.0000 0.0000 0.0000 0.0000 43.1836
#
#
#
# Elastic Compliance Matrix: (Units=1/GPa)
#
#
# Indices 1 2 3 4 5 6 
#
# 1 0.013641 0.000202 -0.000789 0.000000 0.000000 0.000000
# 2 0.000202 0.004480 -0.001381 0.000000 0.000000 0.000000
# 3 -0.000789 -0.001381 0.006306 0.000000 0.000000 0.000000
# 4 0.000000 0.000000 0.000000 0.015387 0.000000 0.000000
# 5 0.000000 0.000000 0.000000 0.000000 0.075574 0.000000
# 6 0.000000 0.000000 0.000000 0.000000 0.000000 0.023157
#
#
# Mechanical properties :
#
#
# Convention : Reuss Voigt Hill
#
# Bulk Modulus (GPa) = 48.80813 67.38407 58.09610
# Shear Modulus (GPa) = 33.48718 52.51131 42.99925
#
# Velocity S-wave (km/s) = 3.64062 4.55893 4.12541
# Velocity P-wave (km/s) = 6.08197 7.37443 6.75916
#
# Compressibility (1/GPa) = 0.02048839
#
# Stress axis : x y z
#
# Youngs Moduli (GPa) = 73.31042 223.22706 158.58928
#
# Poissons Ratio (x) = -0.04509 0.12520
# Poissons Ratio (y) = -0.01481 0.21907
# Poissons Ratio (z) = 0.05787 0.30836
#
# Static dielectric constant tensor:
#      x y z
#    x 1.624990 0.000000 0.000000 
#    y 0.000000 2.222360 0.000000 
#    z 0.000000 0.000000 1.914650 
# 
# From -- ./inp_files/28232.got.cif
#   From: 2010.05.17/outbox.cif.g08.bks.cpg/sg24_15_cif.got.tgz:28232.got - 2010.06.04 00:33:39.
