data_PCOD9332343
_publ_section_title
;
Structure prediction by ZEFSAII (Michael W. Deem and Ramdas Pophale) SiO2 
 PCOD9332343
Probable space group: I 2 2 2
;
_chemical_formula_sum "Si O2"
_cell_formula_units_Z 40
_cell_length_a 14.635962
_cell_length_b 14.996912
_cell_length_c 8.129819
_cell_angle_alpha 90.000000
_cell_angle_beta 90.000000
_cell_angle_gamma 90.000000
_cell_volume 1784.448395
_symmetry_space_group_name_H-M "I 2 2 2"
_symmetry_group_IT_number 23
_symmetry_cell_setting 'orthorhombic'
loop_
_space_group_symop_operation_xyz
x,y,z
-x,-y,z
x,-y,-z
-x,y,-z
1/2+x,1/2+y,1/2+z
1/2-x,1/2-y,1/2+z
1/2+x,1/2-y,1/2-z
1/2-x,1/2+y,1/2-z
loop_
_atom_site_type_symbol
_atom_site_label
_atom_site_fract_x
_atom_site_fract_y
_atom_site_fract_z
Si Si1 0.178326 0.369859 0.379919
Si Si2 0.652022 0.766997 0.404932
Si Si3 0.543516 0.257262 0.250185
Si Si4 0.711813 0.054787 0.761250
Si Si5 0.414768 0.546937 0.176414
O O1 0.264666 0.301013 0.363135
O O2 0.083705 0.319588 0.360423
O O3 0.177108 0.453160 0.253286
O O4 0.183699 0.406438 0.563605
O O5 0.562357 0.751263 0.293994
O O6 0.609559 0.749258 0.586617
O O7 0.685964 0.868827 0.371403
O O8 0.561393 0.350317 0.162861
O O9 0.820253 0.041167 0.767960
O O10 0.500000 0.500000 0.263937
O O11 0.403608 0.500000 0.000000
#
# Coordination Sequence:
#
# PCOD9332343 Si02
#       5
#     8   8   8   8   8
#     4  11  23  44  69 101 145 186 243 293 363 423
#     4  11  23  46  71 100 147 185 243 294 363 433
#     4  11  25  44  72 103 137 195 235 301 360 429
#     4  11  25  42  70 103 139 195 234 303 356 427
#     4  11  24  42  68 107 139 181 241 292 362 427
#
# _framework density 22.415890999999998
#
# number of rings (size 3 to 8) (size 9 to 14) (size 15 to 20)
#    0.000    1.000    4.000    1.200    2.800    6.400 
#    0.000    4.000    0.000    0.000    0.000    0.000 
#    0.000    0.000    0.000    0.000    0.000    0.000 
#
# Total GULP energy -111782.512558 kJ/mol
# GULP energy per Si atom -5589.125628 kJ/mol
# Density = 2.236487 g / cm^3
# Si number density = 22.415891 Si / 1000 Ang^3
#
#
#
# Elastic Constant Matrix: (Units=GPa)
#
#
# Indices 1 2 3 4 5 6 
#
# 1 63.4001 38.0869 21.3162 0.0000 0.0000 0.0000
# 2 38.0869 168.4482 41.8210 0.0000 0.0000 0.0000
# 3 21.3162 41.8210 76.5015 0.0000 0.0000 0.0000
# 4 0.0000 0.0000 0.0000 32.9066 0.0000 0.0000
# 5 0.0000 0.0000 0.0000 0.0000 -41.0337 0.0000
# 6 0.0000 0.0000 0.0000 0.0000 0.0000 44.0723
#
#
#
# Elastic Compliance Matrix: (Units=1/GPa)
#
#
# Indices 1 2 3 4 5 6 
#
# 1 0.018989 -0.003448 -0.003406 0.000000 0.000000 0.000000
# 2 -0.003448 0.007495 -0.003136 0.000000 0.000000 0.000000
# 3 -0.003406 -0.003136 0.015735 0.000000 0.000000 0.000000
# 4 0.000000 0.000000 0.000000 0.030389 0.000000 0.000000
# 5 0.000000 0.000000 0.000000 0.000000 -0.024370 0.000000
# 6 0.000000 0.000000 0.000000 0.000000 0.000000 0.022690
#
#
# Mechanical properties :
#
#
# Convention : Reuss Voigt Hill
#
# Bulk Modulus (GPa) = 44.96757 56.75534 50.86146
# Shear Modulus (GPa) = 50.85304 20.99742 35.92523
#
# Velocity S-wave (km/s) = 4.76817 3.06391 4.00768
# Velocity P-wave (km/s) = 7.10056 6.15556 6.64488
#
# Compressibility (1/GPa) = 0.02223825
#
# Stress axis : x y z
#
# Youngs Moduli (GPa) = 52.66096 133.42535 63.55104
#
# Poissons Ratio (x) = 0.46004 0.21647
# Poissons Ratio (y) = 0.18157 0.19933
# Poissons Ratio (z) = 0.17938 0.41849
#
# Static dielectric constant tensor:
#      x y z
#    x 1.800990 0.000000 0.000000 
#    y 0.000000 2.484330 0.000000 
#    z 0.000000 0.000000 1.877540 
# 
# From -- ./inp_files/9564.got.cif
#   From: 2010.05.17/outbox.cif.g08.bks.cpg/sg23_5_cif.got.tgz:9564.got - 2010.06.04 12:02:01.
