data_PCOD9332197
_publ_section_title
;
Structure prediction by ZEFSAII (Michael W. Deem and Ramdas Pophale) SiO2 
 PCOD9332197
Probable space group: I 2 2 2
;
_chemical_formula_sum "Si O2"
_cell_formula_units_Z 48
_cell_length_a 26.990640
_cell_length_b 12.486202
_cell_length_c 7.240502
_cell_angle_alpha 90.000000
_cell_angle_beta 90.000000
_cell_angle_gamma 90.000000
_cell_volume 2440.125801
_symmetry_space_group_name_H-M "I 2 2 2"
_symmetry_group_IT_number 23
_symmetry_cell_setting 'orthorhombic'
loop_
_space_group_symop_operation_xyz
x,y,z
-x,-y,z
x,-y,-z
-x,y,-z
1/2+x,1/2+y,1/2+z
1/2-x,1/2-y,1/2+z
1/2+x,1/2-y,1/2-z
1/2-x,1/2+y,1/2-z
loop_
_atom_site_type_symbol
_atom_site_label
_atom_site_fract_x
_atom_site_fract_y
_atom_site_fract_z
Si Si1 0.112535 0.568793 0.147102
Si Si2 0.641924 0.615681 0.580733
Si Si3 0.215733 0.116011 0.417694
Si Si4 0.077248 0.500000 0.500000
Si Si5 0.309883 0.756931 0.729557
Si Si6 0.500000 0.172665 0.000000
Si Si7 0.048617 0.727345 0.892419
O O1 0.105658 0.481757 0.312434
O O2 0.142616 0.665259 0.237343
O O3 0.143481 0.500000 0.000000
O O4 0.069087 0.623180 0.014806
O O5 0.628163 0.500000 0.500000
O O6 0.671551 0.603807 0.770790
O O7 0.678047 0.674235 0.434696
O O8 0.594015 0.690570 0.604884
O O9 0.262491 0.171624 0.320274
O O10 0.198649 0.192924 0.583389
O O11 0.228116 0.000000 0.500000
O O12 0.042753 0.405159 0.574798
O O13 0.472277 0.218658 0.819114
O O14 0.000000 0.765668 0.000000
#
# Coordination Sequence:
#
# PCOD9332197 Si02
#       7
#     8   8   8   4   8   4   8
#     4  11  23  40  62  99 139 182 218 274 339 414
#     4  11  25  46  70  96 132 181 229 280 343 400
#     4  12  24  45  74 100 136 182 227 281 344 414
#     4  11  22  36  62  92 134 172 218 264 337 408
#     4  11  25  43  68 101 138 176 227 279 341 411
#     4  11  22  38  62  95 124 178 217 268 332 401
#     4  11  24  41  68  94 135 173 230 276 339 397
#
# _framework density 19.671116000000001
#
# number of rings (size 3 to 8) (size 9 to 14) (size 15 to 20)
#    0.000    0.833    6.667    0.500    2.333    0.667 
#    4.500    0.000    0.000    0.000    0.000    0.000 
#    0.000    0.000    0.000    0.000    0.000    0.000 
#
# Total GULP energy -133639.855684 kJ/mol
# GULP energy per Si atom -5568.327320 kJ/mol
# Density = 1.962634 g / cm^3
# Si number density = 19.671116 Si / 1000 Ang^3
#
#
#
# Elastic Constant Matrix: (Units=GPa)
#
#
# Indices 1 2 3 4 5 6 
#
# 1 82.1494 30.9416 53.0936 0.0000 0.0000 0.0000
# 2 30.9416 86.5551 49.0059 0.0000 0.0000 0.0000
# 3 53.0936 49.0059 157.3842 0.0000 0.0000 0.0000
# 4 0.0000 0.0000 0.0000 36.3441 0.0000 0.0000
# 5 0.0000 0.0000 0.0000 0.0000 15.0758 0.0000
# 6 0.0000 0.0000 0.0000 0.0000 0.0000 5.2725
#
#
#
# Elastic Compliance Matrix: (Units=1/GPa)
#
#
# Indices 1 2 3 4 5 6 
#
# 1 0.016306 -0.003296 -0.004475 0.000000 0.000000 0.000000
# 2 -0.003296 0.014692 -0.003463 0.000000 0.000000 0.000000
# 3 -0.004475 -0.003463 0.008942 0.000000 0.000000 0.000000
# 4 0.000000 0.000000 0.000000 0.027515 0.000000 0.000000
# 5 0.000000 0.000000 0.000000 0.000000 0.066331 0.000000
# 6 0.000000 0.000000 0.000000 0.000000 0.000000 0.189664
#
#
# Mechanical properties :
#
#
# Convention : Reuss Voigt Hill
#
# Bulk Modulus (GPa) = 57.22992 65.79677 61.51335
# Shear Modulus (GPa) = 14.21497 24.20832 19.21165
#
# Velocity S-wave (km/s) = 2.69110 3.51187 3.12852
# Velocity P-wave (km/s) = 6.22997 7.06862 6.66250
#
# Compressibility (1/GPa) = 0.01747338
#
# Stress axis : x y z
#
# Youngs Moduli (GPa) = 61.32600 68.06353 111.83508
#
# Poissons Ratio (x) = 0.22431 0.50043
# Poissons Ratio (y) = 0.20211 0.38729
# Poissons Ratio (z) = 0.27442 0.23571
#
# Static dielectric constant tensor:
#      x y z
#    x 1.748710 0.000000 0.000000 
#    y 0.000000 1.755240 0.000000 
#    z 0.000000 0.000000 1.951300 
# 
# From -- ./inp_files/4931.got.cif
#   From: 2010.05.17/outbox.cif.g08.bks.cpg/sg23_3_cif.got.tgz:4931.got - 2010.06.04 12:02:01.
