data_PCOD9332191
_publ_section_title
;
Structure prediction by ZEFSAII (Michael W. Deem and Ramdas Pophale) SiO2 
 PCOD9332191
Probable space group: I 2 2 2
;
_chemical_formula_sum "Si O2"
_cell_formula_units_Z 52
_cell_length_a 6.543709
_cell_length_b 23.041144
_cell_length_c 19.430263
_cell_angle_alpha 90.000000
_cell_angle_beta 90.000000
_cell_angle_gamma 90.000000
_cell_volume 2929.588992
_symmetry_space_group_name_H-M "I 2 2 2"
_symmetry_group_IT_number 23
_symmetry_cell_setting 'orthorhombic'
loop_
_space_group_symop_operation_xyz
x,y,z
-x,-y,z
x,-y,-z
-x,y,-z
1/2+x,1/2+y,1/2+z
1/2-x,1/2-y,1/2+z
1/2+x,1/2-y,1/2-z
1/2-x,1/2+y,1/2-z
loop_
_atom_site_type_symbol
_atom_site_label
_atom_site_fract_x
_atom_site_fract_y
_atom_site_fract_z
Si Si1 0.376013 0.556997 0.608075
Si Si2 0.000000 0.500000 0.665610
Si Si3 0.221305 0.325426 0.805415
Si Si4 0.533237 0.731319 0.922509
Si Si5 0.644430 0.247188 0.323772
Si Si6 0.623998 0.445817 0.252563
Si Si7 0.118117 0.815256 0.067196
O O1 0.500000 0.500000 0.582951
O O2 0.139436 0.541329 0.618945
O O3 0.475735 0.569364 0.683269
O O4 0.394762 0.615776 0.567008
O O5 0.166375 0.468435 0.712999
O O6 0.312332 0.308052 0.879011
O O7 0.295135 0.279975 0.746380
O O8 0.309293 0.388602 0.787785
O O9 0.978269 0.312410 0.808297
O O10 0.334700 0.737164 0.874608
O O11 0.650619 0.792605 0.931075
O O12 0.500000 0.709533 0.000000
O O13 0.492507 0.289391 0.365728
O O14 0.500000 0.500000 0.217951
O O15 0.000000 0.791971 0.000000
#
# Coordination Sequence:
#
# PCOD9332191 Si02
#       7
#     8   4   8   8   8   8   8
#     4   9  19  33  53  78 114 150 200 246 288 339
#     4   8  18  32  52  79 110 147 186 250 300 342
#     4  11  22  35  62  88 117 153 199 251 291 364
#     4  11  24  40  56  86 124 156 191 243 315 364
#     4  11  22  36  54  90 117 149 201 245 299 350
#     4   9  19  35  55  84 118 149 194 246 301 348
#     4  11  22  36  58  75 115 164 198 245 294 358
#
# _framework density 17.749931
#
# number of rings (size 3 to 8) (size 9 to 14) (size 15 to 20)
#    0.000    2.154    4.615    0.000    2.154    2.769 
#    0.000    0.000    0.000    0.462    0.000    0.000 
#    0.000    0.000    0.000    0.000    0.000    0.000 
#
# Total GULP energy -144844.517903 kJ/mol
# GULP energy per Si atom -5570.942996 kJ/mol
# Density = 1.770953 g / cm^3
# Si number density = 17.749931 Si / 1000 Ang^3
#
#
#
# Elastic Constant Matrix: (Units=GPa)
#
#
# Indices 1 2 3 4 5 6 
#
# 1 100.2906 26.1446 17.4016 0.0000 0.0000 0.0000
# 2 26.1446 86.0615 16.5436 0.0000 0.0000 0.0000
# 3 17.4016 16.5436 82.4932 0.0000 0.0000 0.0000
# 4 0.0000 0.0000 0.0000 21.1563 0.0000 0.0000
# 5 0.0000 0.0000 0.0000 0.0000 22.9209 0.0000
# 6 0.0000 0.0000 0.0000 0.0000 0.0000 16.1509
#
#
#
# Elastic Compliance Matrix: (Units=1/GPa)
#
#
# Indices 1 2 3 4 5 6 
#
# 1 0.011060 -0.003028 -0.001726 0.000000 0.000000 0.000000
# 2 -0.003028 0.012915 -0.001951 0.000000 0.000000 0.000000
# 3 -0.001726 -0.001951 0.012878 0.000000 0.000000 0.000000
# 4 0.000000 0.000000 0.000000 0.047267 0.000000 0.000000
# 5 0.000000 0.000000 0.000000 0.000000 0.043628 0.000000
# 6 0.000000 0.000000 0.000000 0.000000 0.000000 0.061916
#
#
# Mechanical properties :
#
#
# Convention : Reuss Voigt Hill
#
# Bulk Modulus (GPa) = 42.65873 43.22500 42.94186
# Shear Modulus (GPa) = 23.70931 25.96266 24.83598
#
# Velocity S-wave (km/s) = 3.65874 3.82866 3.74467
# Velocity P-wave (km/s) = 6.47564 6.62948 6.55301
#
# Compressibility (1/GPa) = 0.02344186
#
# Stress axis : x y z
#
# Youngs Moduli (GPa) = 90.41705 77.43183 77.65447
#
# Poissons Ratio (x) = 0.23447 0.13401
# Poissons Ratio (y) = 0.27379 0.15152
# Poissons Ratio (z) = 0.15604 0.15108
#
# Static dielectric constant tensor:
#      x y z
#    x 1.657960 0.000000 0.000000 
#    y 0.000000 1.631980 0.000000 
#    z 0.000000 0.000000 1.599100 
# 
# From -- ./inp_files/25786.got.cif
#   From: 2010.05.17/outbox.cif.g08.bks.cpg/sg23_13_cif.got.tgz:25786.got - 2010.06.04 12:02:01.
