data_PCOD9332290
_publ_section_title
;
Structure prediction by ZEFSAII (Michael W. Deem and Ramdas Pophale) SiO2 
 PCOD9332290
Probable space group: I 2 2 2
;
_chemical_formula_sum "Si O2"
_cell_formula_units_Z 34
_cell_length_a 14.880298
_cell_length_b 7.512077
_cell_length_c 13.327786
_cell_angle_alpha 90.000000
_cell_angle_beta 90.000000
_cell_angle_gamma 90.000000
_cell_volume 1489.805833
_symmetry_space_group_name_H-M "I 2 2 2"
_symmetry_group_IT_number 23
_symmetry_cell_setting 'orthorhombic'
loop_
_space_group_symop_operation_xyz
x,y,z
-x,-y,z
x,-y,-z
-x,y,-z
1/2+x,1/2+y,1/2+z
1/2-x,1/2-y,1/2+z
1/2+x,1/2-y,1/2-z
1/2-x,1/2+y,1/2-z
loop_
_atom_site_type_symbol
_atom_site_label
_atom_site_fract_x
_atom_site_fract_y
_atom_site_fract_z
Si Si1 0.108384 0.703502 0.006596
Si Si2 0.500000 0.000000 0.000000
Si Si3 0.913862 0.882933 0.187067
Si Si4 0.620623 0.918318 0.815356
Si Si5 0.179627 0.209781 0.775592
O O1 0.139150 0.823204 0.912869
O O2 0.139186 0.500000 0.000000
O O3 0.141964 0.768021 0.112537
O O4 0.000000 0.704748 0.000000
O O5 0.430575 0.905984 0.078416
O O6 0.940999 0.695506 0.238203
O O7 0.860780 0.020230 0.258786
O O8 0.000000 0.000000 0.158456
O O9 0.714676 0.818505 0.792840
O O10 0.645574 0.122392 0.788571
#
# Coordination Sequence:
#
# PCOD9332290 Si02
#       5
#     8   2   8   8   8
#     4  11  23  39  70 115 146 177 238 319 378 435
#     4  12  32  52  74 106 174 206 244 324 402 470
#     4  12  24  44  76 108 146 192 244 315 389 446
#     4  12  28  52  73 108 150 207 256 308 381 474
#     4  12  25  46  77 108 146 195 259 314 373 456
#
# _framework density 22.821766
#
# number of rings (size 3 to 8) (size 9 to 14) (size 15 to 20)
#    0.000    0.235    7.059    2.118    3.294    0.000 
#    0.000    5.294    0.000    0.000    0.000    0.000 
#    0.000    0.000    0.000    0.000    0.000    0.000 
#
# Total GULP energy -94836.441927 kJ/mol
# GULP energy per Si atom -5578.614231 kJ/mol
# Density = 2.276982 g / cm^3
# Si number density = 22.821766 Si / 1000 Ang^3
#
#
#
# Elastic Constant Matrix: (Units=GPa)
#
#
# Indices 1 2 3 4 5 6 
#
# 1 79.3557 29.0653 3.4653 0.0000 0.0000 0.0000
# 2 29.0653 180.2642 23.8985 0.0000 0.0000 0.0000
# 3 3.4653 23.8985 91.3259 0.0000 0.0000 0.0000
# 4 0.0000 0.0000 0.0000 34.3154 0.0000 0.0000
# 5 0.0000 0.0000 0.0000 0.0000 30.1140 0.0000
# 6 0.0000 0.0000 0.0000 0.0000 0.0000 27.1075
#
#
#
# Elastic Compliance Matrix: (Units=1/GPa)
#
#
# Indices 1 2 3 4 5 6 
#
# 1 0.013393 -0.002167 0.000059 0.000000 0.000000 0.000000
# 2 -0.002167 0.006097 -0.001513 0.000000 0.000000 0.000000
# 3 0.000059 -0.001513 0.011344 0.000000 0.000000 0.000000
# 4 0.000000 0.000000 0.000000 0.029141 0.000000 0.000000
# 5 0.000000 0.000000 0.000000 0.000000 0.033207 0.000000
# 6 0.000000 0.000000 0.000000 0.000000 0.000000 0.036890
#
#
# Mechanical properties :
#
#
# Convention : Reuss Voigt Hill
#
# Bulk Modulus (GPa) = 42.39001 51.53379 46.96190
# Shear Modulus (GPa) = 34.44017 37.94182 36.19100
#
# Velocity S-wave (km/s) = 3.88892 4.08183 3.98654
# Velocity P-wave (km/s) = 6.22733 6.69665 6.46625
#
# Compressibility (1/GPa) = 0.02359046
#
# Stress axis : x y z
#
# Youngs Moduli (GPa) = 74.66758 164.00203 88.15551
#
# Poissons Ratio (x) = 0.35543 -0.00520
# Poissons Ratio (y) = 0.16182 0.13341
# Poissons Ratio (z) = -0.00440 0.24820
#
# Static dielectric constant tensor:
#      x y z
#    x 2.038340 0.000000 0.000000 
#    y 0.000000 1.986890 0.000000 
#    z 0.000000 0.000000 1.869920 
# 
# From -- ./inp_files/16359.got.cif
#   From: 2010.05.17/outbox.cif.g08.bks.cpg/sg23_9_cif.got.tgz:16359.got - 2010.06.04 12:02:01.
