data_PCOD9332270
_publ_section_title
;
Structure prediction by ZEFSAII (Michael W. Deem and Ramdas Pophale) SiO2 
 PCOD9332270
Probable space group: I 2 2 2
;
_chemical_formula_sum "Si O2"
_cell_formula_units_Z 48
_cell_length_a 13.439787
_cell_length_b 15.348372
_cell_length_c 9.401028
_cell_angle_alpha 90.000000
_cell_angle_beta 90.000000
_cell_angle_gamma 90.000000
_cell_volume 1939.233249
_symmetry_space_group_name_H-M "I 2 2 2"
_symmetry_group_IT_number 23
_symmetry_cell_setting 'orthorhombic'
loop_
_space_group_symop_operation_xyz
x,y,z
-x,-y,z
x,-y,-z
-x,y,-z
1/2+x,1/2+y,1/2+z
1/2-x,1/2-y,1/2+z
1/2+x,1/2-y,1/2-z
1/2-x,1/2+y,1/2-z
loop_
_atom_site_type_symbol
_atom_site_label
_atom_site_fract_x
_atom_site_fract_y
_atom_site_fract_z
Si Si1 0.349551 0.373932 0.868444
Si Si2 0.627924 0.897137 0.239905
Si Si3 0.114606 0.094496 0.951351
Si Si4 0.500000 0.890722 0.500000
Si Si5 0.635543 0.750334 0.649244
Si Si6 0.000000 0.000000 0.500000
Si Si7 0.155637 0.196514 0.687110
Si Si8 0.500000 0.000000 0.000000
O O1 0.245804 0.400927 0.789207
O O2 0.411722 0.307753 0.770893
O O3 0.424208 0.450596 0.898317
O O4 0.337344 0.329513 0.022201
O O5 0.569729 0.932136 0.379488
O O6 0.611237 0.792828 0.216103
O O7 0.575879 0.945476 0.104953
O O8 0.119476 0.118721 0.786729
O O9 0.163387 0.178406 0.029618
O O10 0.000000 0.096660 0.000000
O O11 0.154824 0.000000 0.000000
O O12 0.572779 0.826175 0.584083
O O13 0.729260 0.790809 0.726909
#
# Coordination Sequence:
#
# PCOD9332270 Si02
#       8
#     8   8   8   4   8   2   8   2
#     4  11  28  48  73 118 168 214 273 344 423 525
#     4  11  27  55  80 124 164 223 296 363 432 509
#     4  11  24  42  76 118 155 203 273 347 413 493
#     4  12  22  47  87 112 160 222 282 342 437 525
#     4  11  22  45  72 114 151 220 271 330 422 504
#     4  12  32  42  72 120 172 226 252 338 436 512
#     4  11  23  49  78 111 165 218 274 344 429 519
#     4  12  32  56  92 126 160 232 308 376 428 526
#
# _framework density 24.752050000000001
#
# number of rings (size 3 to 8) (size 9 to 14) (size 15 to 20)
#    0.000    0.833    4.167    1.000    9.333    1.667 
#    6.000    0.000    0.000    0.000    0.000    0.000 
#    0.000    0.000    0.000    0.000    0.000    0.000 
#
# Total GULP energy -134059.634240 kJ/mol
# GULP energy per Si atom -5585.818093 kJ/mol
# Density = 2.469571 g / cm^3
# Si number density = 24.752050 Si / 1000 Ang^3
#
#
#
# Elastic Constant Matrix: (Units=GPa)
#
#
# Indices 1 2 3 4 5 6 
#
# 1 120.6924 60.6564 44.5389 0.0000 0.0000 0.0000
# 2 60.6564 97.1432 43.4357 0.0000 0.0000 0.0000
# 3 44.5389 43.4357 156.4094 0.0000 0.0000 0.0000
# 4 0.0000 0.0000 0.0000 52.5239 0.0000 0.0000
# 5 0.0000 0.0000 0.0000 0.0000 44.9897 0.0000
# 6 0.0000 0.0000 0.0000 0.0000 0.0000 8.4465
#
#
#
# Elastic Compliance Matrix: (Units=1/GPa)
#
#
# Indices 1 2 3 4 5 6 
#
# 1 0.012406 -0.007041 -0.001577 0.000000 0.000000 0.000000
# 2 -0.007041 0.015750 -0.002369 0.000000 0.000000 0.000000
# 3 -0.001577 -0.002369 0.007500 0.000000 0.000000 0.000000
# 4 0.000000 0.000000 0.000000 0.019039 0.000000 0.000000
# 5 0.000000 0.000000 0.000000 0.000000 0.022227 0.000000
# 6 0.000000 0.000000 0.000000 0.000000 0.000000 0.118393
#
#
# Mechanical properties :
#
#
# Convention : Reuss Voigt Hill
#
# Bulk Modulus (GPa) = 73.08983 74.61190 73.85086
# Shear Modulus (GPa) = 22.53764 36.23294 29.38529
#
# Velocity S-wave (km/s) = 3.02078 3.83016 3.44929
# Velocity P-wave (km/s) = 6.46218 7.05474 6.76495
#
# Compressibility (1/GPa) = 0.01368179
#
# Stress axis : x y z
#
# Youngs Moduli (GPa) = 80.60384 63.49295 133.32495
#
# Poissons Ratio (x) = 0.44707 0.21031
# Poissons Ratio (y) = 0.56755 0.31581
# Poissons Ratio (z) = 0.12715 0.15040
#
# Static dielectric constant tensor:
#      x y z
#    x 2.076240 0.000000 0.000000 
#    y 0.000000 2.063570 0.000000 
#    z 0.000000 0.000000 2.158290 
# 
# From -- ./inp_files/10021.got.cif
#   From: 2010.05.17/outbox.cif.g08.bks.cpg/sg23_6_cif.got.tgz:10021.got - 2010.06.04 12:02:01.
