data_PCOD9332535
_publ_section_title
;
Structure prediction by ZEFSAII (Michael W. Deem and Ramdas Pophale) SiO2 
 PCOD9332535
Probable space group: I 2 2 2
;
_chemical_formula_sum "Si O2"
_cell_formula_units_Z 48
_cell_length_a 9.163353
_cell_length_b 17.941027
_cell_length_c 13.361854
_cell_angle_alpha 90.000000
_cell_angle_beta 90.000000
_cell_angle_gamma 90.000000
_cell_volume 2196.688311
_symmetry_space_group_name_H-M "I 2 2 2"
_symmetry_group_IT_number 23
_symmetry_cell_setting 'orthorhombic'
loop_
_space_group_symop_operation_xyz
x,y,z
-x,-y,z
x,-y,-z
-x,y,-z
1/2+x,1/2+y,1/2+z
1/2-x,1/2-y,1/2+z
1/2+x,1/2-y,1/2-z
1/2-x,1/2+y,1/2-z
loop_
_atom_site_type_symbol
_atom_site_label
_atom_site_fract_x
_atom_site_fract_y
_atom_site_fract_z
Si Si1 0.900262 0.761657 0.589804
Si Si2 0.507760 0.887005 0.185214
Si Si3 0.500000 0.000000 0.500000
Si Si4 0.310386 0.369942 0.263190
Si Si5 0.720425 0.091260 0.638578
Si Si6 0.000000 0.000000 0.698443
Si Si7 0.844418 0.755025 0.945609
Si Si8 0.500000 0.000000 0.000000
O O1 0.981160 0.699332 0.654202
O O2 0.848569 0.825582 0.662829
O O3 0.764934 0.722786 0.534530
O O4 0.000000 0.790175 0.500000
O O5 0.357515 0.894042 0.245357
O O6 0.648201 0.908401 0.250697
O O7 0.488648 0.935899 0.087219
O O8 0.393220 0.951029 0.567952
O O9 0.411346 0.441869 0.265556
O O10 0.340277 0.316683 0.358266
O O11 0.714444 0.177272 0.601679
O O12 0.876459 0.048765 0.639655
O O13 0.000000 0.744650 0.000000
#
# Coordination Sequence:
#
# PCOD9332535 Si02
#       8
#     8   8   2   8   8   4   8   2
#     4  12  25  45  77 113 145 206 270 318 386 475
#     4  12  25  49  76 108 151 214 258 319 396 481
#     4  12  26  50  72 106 152 204 266 312 392 488
#     4  12  27  51  75 112 163 199 261 335 394 471
#     4  12  27  48  75 111 155 206 260 324 403 469
#     4  12  30  47  75 118 154 202 250 339 405 448
#     4  12  26  46  79 115 152 208 265 324 396 479
#     4  12  22  44  80 104 148 190 278 306 376 478
#
# _framework density 21.851075999999999
#
# number of rings (size 3 to 8) (size 9 to 14) (size 15 to 20)
#    0.000    0.000    5.000    4.500    4.667    0.333 
#    3.000    0.000    0.000    0.000    0.000    0.000 
#    0.000    0.000    0.000    0.000    0.000    0.000 
#
# Total GULP energy -134090.488895 kJ/mol
# GULP energy per Si atom -5587.103704 kJ/mol
# Density = 2.180134 g / cm^3
# Si number density = 21.851076 Si / 1000 Ang^3
#
#
#
# Elastic Constant Matrix: (Units=GPa)
#
#
# Indices 1 2 3 4 5 6 
#
# 1 144.6916 37.7299 26.7642 0.0000 0.0000 0.0000
# 2 37.7299 106.1574 6.1763 0.0000 0.0000 0.0000
# 3 26.7642 6.1763 74.3679 0.0001 0.0000 0.0000
# 4 0.0000 0.0000 0.0001 31.8270 0.0000 0.0000
# 5 0.0000 0.0000 0.0000 0.0000 25.3858 0.0000
# 6 0.0000 0.0000 0.0000 0.0000 0.0000 19.9901
#
#
#
# Elastic Compliance Matrix: (Units=1/GPa)
#
#
# Indices 1 2 3 4 5 6 
#
# 1 0.008122 -0.002730 -0.002696 0.000000 0.000000 0.000000
# 2 -0.002730 0.010383 0.000120 0.000000 0.000000 0.000000
# 3 -0.002696 0.000120 0.014407 0.000000 0.000000 0.000000
# 4 0.000000 0.000000 0.000000 0.031420 0.000000 0.000000
# 5 0.000000 0.000000 0.000000 0.000000 0.039392 0.000000
# 6 0.000000 0.000000 0.000000 0.000000 0.000000 0.050025
#
#
# Mechanical properties :
#
#
# Convention : Reuss Voigt Hill
#
# Bulk Modulus (GPa) = 44.84264 51.83974 48.34119
# Shear Modulus (GPa) = 29.10464 32.41035 30.75749
#
# Velocity S-wave (km/s) = 3.65355 3.85546 3.75586
# Velocity P-wave (km/s) = 6.19390 6.60266 6.40154
#
# Compressibility (1/GPa) = 0.02230020
#
# Stress axis : x y z
#
# Youngs Moduli (GPa) = 123.12546 96.30962 69.41053
#
# Poissons Ratio (x) = 0.26290 0.18715
# Poissons Ratio (y) = 0.33610 -0.00833
# Poissons Ratio (z) = 0.33198 -0.01156
#
# Static dielectric constant tensor:
#      x y z
#    x 1.852630 0.000000 0.000000 
#    y 0.000000 1.814160 0.000000 
#    z 0.000000 0.000000 1.764960 
# 
# From -- ./inp_files/20058.got.cif
#   From: 2010.05.17/outbox.cif.g08.bks.cpg/sg23_11_cif.got.tgz:20058.got - 2010.06.04 12:02:01.
