data_PCOD9332675
_publ_section_title
;
Structure prediction by ZEFSAII (Michael W. Deem and Ramdas Pophale) SiO2 
 PCOD9332675
Probable space group: I 21 21 21
;
_chemical_formula_sum "Si O2"
_cell_formula_units_Z 48
_cell_length_a 6.943959
_cell_length_b 16.351619
_cell_length_c 17.669210
_cell_angle_alpha 90.000000
_cell_angle_beta 90.000000
_cell_angle_gamma 90.000000
_cell_volume 2006.249953
_symmetry_space_group_name_H-M "I 21 21 21"
_symmetry_group_IT_number 24
_symmetry_cell_setting 'orthorhombic'
loop_
_space_group_symop_operation_xyz
x,y,z
-x,1/2-y,z
x,-y,1/2-z
1/2-x,y,-z
1/2+x,1/2+y,1/2+z
1/2-x,-y,1/2+z
1/2+x,1/2-y,-z
-x,1/2+y,1/2-z
loop_
_atom_site_type_symbol
_atom_site_label
_atom_site_fract_x
_atom_site_fract_y
_atom_site_fract_z
Si Si1 0.535879 0.508685 0.487935
Si Si2 0.866243 0.543852 0.826943
Si Si3 0.143924 0.180820 0.068271
Si Si4 0.906498 0.984317 0.140005
Si Si5 0.775422 0.313341 0.771950
Si Si6 0.830965 0.862746 0.264214
O O1 0.750000 0.473047 0.500000
O O2 0.515775 0.488754 0.399531
O O3 0.556116 0.602090 0.522780
O O4 0.400405 0.470196 0.551162
O O5 0.928170 0.500000 0.750000
O O6 0.637567 0.520787 0.839275
O O7 0.870740 0.637617 0.797586
O O8 0.283073 0.157744 0.139068
O O9 0.000000 0.250000 0.098739
O O10 0.250000 0.226373 0.000000
O O11 0.800560 0.917198 0.190161
O O12 0.836472 0.073877 0.166236
O O13 0.549928 0.332200 0.756318
O O14 0.802413 0.215778 0.773459
#
# Coordination Sequence:
#
# PCOD9332675 Si02
#       6
#     8   8   8   8   8   8
#     4   9  16  24  39  62  99 127 159 205 261 312
#     4  10  15  23  36  59  97 124 159 204 254 308
#     4  11  19  29  46  71 111 143 169 214 272 328
#     4   9  13  23  35  59  91 126 153 198 261 324
#     4  10  15  25  39  64  99 131 163 210 263 306
#     4   9  14  21  40  58  95 130 153 203 264 322
#
# _framework density 23.925232999999999
#
# number of rings (size 3 to 8) (size 9 to 14) (size 15 to 20)
#    0.000    2.333    6.667    2.000    0.000    0.000 
#    0.000    0.000    0.000    0.000    0.000    0.000 
#  130.000   66.000    0.000    0.000    0.000    0.000 
#
# Total GULP energy -133780.817172 kJ/mol
# GULP energy per Si atom -5574.200716 kJ/mol
# Density = 2.387078 g / cm^3
# Si number density = 23.925233 Si / 1000 Ang^3
#
#
#
# Elastic Constant Matrix: (Units=GPa)
#
#
# Indices 1 2 3 4 5 6 
#
# 1 65.4632 20.9214 46.0514 0.0000 0.0000 0.0000
# 2 20.9214 136.7924 89.4843 0.0000 0.0000 0.0000
# 3 46.0514 89.4843 257.2985 0.0000 0.0000 0.0000
# 4 0.0000 0.0000 0.0000 29.4008 0.0000 0.0000
# 5 0.0000 0.0000 0.0000 0.0000 46.2355 0.0000
# 6 0.0000 0.0000 0.0000 0.0000 0.0000 25.9672
#
#
#
# Elastic Compliance Matrix: (Units=1/GPa)
#
#
# Indices 1 2 3 4 5 6 
#
# 1 0.017546 -0.000815 -0.002857 0.000000 0.000000 0.000000
# 2 -0.000815 0.009501 -0.003159 0.000000 0.000000 0.000000
# 3 -0.002857 -0.003159 0.005496 0.000000 0.000000 0.000000
# 4 0.000000 0.000000 0.000000 0.034013 0.000000 0.000000
# 5 0.000000 0.000000 0.000000 0.000000 0.021628 0.000000
# 6 0.000000 0.000000 0.000000 0.000000 0.000000 0.038510
#
#
# Mechanical properties :
#
#
# Convention : Reuss Voigt Hill
#
# Bulk Modulus (GPa) = 52.95733 85.82983 69.39358
# Shear Modulus (GPa) = 34.09490 40.52717 37.31104
#
# Velocity S-wave (km/s) = 3.77909 4.12018 3.95332
# Velocity P-wave (km/s) = 6.42064 7.65418 7.06439
#
# Compressibility (1/GPa) = 0.01888313
#
# Stress axis : x y z
#
# Youngs Moduli (GPa) = 56.99316 105.25064 181.93729
#
# Poissons Ratio (x) = 0.08573 0.51981
# Poissons Ratio (y) = 0.04642 0.57466
# Poissons Ratio (z) = 0.16284 0.33244
#
# Static dielectric constant tensor:
#      x y z
#    x 2.085540 0.000000 0.000000 
#    y 0.000000 1.981710 0.000000 
#    z 0.000000 0.000000 1.981320 
# 
# From -- ./inp_files/20942.got.cif
#   From: 2010.05.17/outbox.cif.g08.bks.cpg/sg24_11_cif.got.tgz:20942.got - 2010.06.04 00:33:39.
