data_PCOD9332676
_publ_section_title
;
Structure prediction by ZEFSAII (Michael W. Deem and Ramdas Pophale) SiO2 
 PCOD9332676
Probable space group: I 21 21 21
;
_chemical_formula_sum "Si O2"
_cell_formula_units_Z 48
_cell_length_a 28.730975
_cell_length_b 13.049809
_cell_length_c 5.439599
_cell_angle_alpha 90.000000
_cell_angle_beta 90.000000
_cell_angle_gamma 90.000000
_cell_volume 2039.489176
_symmetry_space_group_name_H-M "I 21 21 21"
_symmetry_group_IT_number 24
_symmetry_cell_setting 'orthorhombic'
loop_
_space_group_symop_operation_xyz
x,y,z
-x,1/2-y,z
x,-y,1/2-z
1/2-x,y,-z
1/2+x,1/2+y,1/2+z
1/2-x,-y,1/2+z
1/2+x,1/2-y,-z
-x,1/2+y,1/2-z
loop_
_atom_site_type_symbol
_atom_site_label
_atom_site_fract_x
_atom_site_fract_y
_atom_site_fract_z
Si Si1 0.199205 0.084482 0.071766
Si Si2 0.019278 0.632572 0.142675
Si Si3 0.517780 0.631433 0.355306
Si Si4 0.277923 0.314747 0.752918
Si Si5 0.378047 0.311438 0.733278
Si Si6 0.621238 0.679319 0.267186
O O1 0.210297 0.193168 0.205950
O O2 0.176590 0.000000 0.250000
O O3 0.250000 0.043573 0.000000
O O4 0.166180 0.112397 0.841743
O O5 0.991458 0.591138 0.374494
O O6 0.073836 0.629857 0.200076
O O7 0.000000 0.750000 0.121269
O O8 0.010664 0.590513 0.874101
O O9 0.500000 0.750000 0.376845
O O10 0.571692 0.624164 0.283025
O O11 0.250000 0.327419 0.500000
O O12 0.328352 0.367039 0.732712
O O13 0.250000 0.345306 0.000000
O O14 0.375864 0.234026 0.497327
O O15 0.381247 0.257703 0.000728
#
# Coordination Sequence:
#
# PCOD9332676 Si02
#       6
#     8   8   8   8   8   8
#     4  10  21  34  46  56  73 102 143 186 220 248
#     4  10  15  24  39  59  80  98 110 139 190 256
#     4  10  15  25  39  61  83  95 110 143 197 262
#     4  10  20  32  42  56  72  96 130 171 207 241
#     4  11  17  27  43  59  77  97 122 151 199 256
#     4  11  19  28  44  61  75  97 125 161 210 260
#
# _framework density 23.535305999999999
#
# number of rings (size 3 to 8) (size 9 to 14) (size 15 to 20)
#    0.000    1.667    6.667    3.500    0.000    1.333 
#    0.000    0.000    0.000    0.000    0.000    0.000 
#    0.000    0.000    0.000    0.000    0.000    0.000 
#
# Total GULP energy -134058.887530 kJ/mol
# GULP energy per Si atom -5585.786980 kJ/mol
# Density = 2.348174 g / cm^3
# Si number density = 23.535306 Si / 1000 Ang^3
#
#
#
# Elastic Constant Matrix: (Units=GPa)
#
#
# Indices 1 2 3 4 5 6 
#
# 1 166.5751 -8.4833 20.8579 0.0000 0.0000 0.0000
# 2 -8.4833 53.6164 19.0165 0.0000 0.0000 0.0000
# 3 20.8579 19.0165 154.0059 0.0002 0.0000 0.0000
# 4 0.0000 0.0000 0.0002 28.5039 0.0000 0.0000
# 5 0.0000 0.0000 0.0000 0.0000 52.8341 0.0000
# 6 0.0000 0.0000 0.0000 0.0000 0.0000 -59.4964
#
#
#
# Elastic Compliance Matrix: (Units=1/GPa)
#
#
# Indices 1 2 3 4 5 6 
#
# 1 0.006197 0.001337 -0.001004 0.000000 0.000000 0.000000
# 2 0.001337 0.019794 -0.002625 0.000000 0.000000 0.000000
# 3 -0.001004 -0.002625 0.006953 0.000000 0.000000 0.000000
# 4 0.000000 0.000000 0.000000 0.035083 0.000000 0.000000
# 5 0.000000 0.000000 0.000000 0.000000 0.018927 0.000000
# 6 0.000000 0.000000 0.000000 0.000000 0.000000 -0.016808
#
#
# Mechanical properties :
#
#
# Convention : Reuss Voigt Hill
#
# Bulk Modulus (GPa) = 35.26259 48.55329 41.90794
# Shear Modulus (GPa) = 59.39304 27.22206 43.30755
#
# Velocity S-wave (km/s) = 5.02897 3.40464 4.29430
# Velocity P-wave (km/s) = 6.98112 6.01084 6.51407
#
# Compressibility (1/GPa) = 0.02835867
#
# Stress axis : x y z
#
# Youngs Moduli (GPa) = 161.36475 50.52136 143.81374
#
# Poissons Ratio (x) = -0.06753 0.14444
# Poissons Ratio (y) = -0.21571 0.37753
# Poissons Ratio (z) = 0.16207 0.13263
#
# Static dielectric constant tensor:
#      x y z
#    x 1.901650 0.000000 0.000000 
#    y 0.000000 1.962660 0.000000 
#    z 0.000000 0.000000 1.882020 
# 
# From -- ./inp_files/7196.got.cif
#   From: 2010.05.17/outbox.cif.g08.bks.cpg/sg24_4_cif.got.tgz:7196.got - 2010.06.04 00:33:39.
