data_PCOD9332915
_publ_section_title
;
Structure prediction by ZEFSAII (Michael W. Deem and Ramdas Pophale) SiO2 
 PCOD9332915
Probable space group: I 21 21 21
;
_chemical_formula_sum "Si O2"
_cell_formula_units_Z 56
_cell_length_a 23.143880
_cell_length_b 30.050872
_cell_length_c 5.073208
_cell_angle_alpha 90.000000
_cell_angle_beta 90.000000
_cell_angle_gamma 90.000000
_cell_volume 3528.384586
_symmetry_space_group_name_H-M "I 21 21 21"
_symmetry_group_IT_number 24
_symmetry_cell_setting 'orthorhombic'
loop_
_space_group_symop_operation_xyz
x,y,z
-x,1/2-y,z
x,-y,1/2-z
1/2-x,y,-z
1/2+x,1/2+y,1/2+z
1/2-x,-y,1/2+z
1/2+x,1/2-y,-z
-x,1/2+y,1/2-z
loop_
_atom_site_type_symbol
_atom_site_label
_atom_site_fract_x
_atom_site_fract_y
_atom_site_fract_z
Si Si1 0.014629 0.029945 0.993931
Si Si2 0.038820 0.681829 0.853286
Si Si3 0.510089 0.871060 0.637538
Si Si4 0.883067 0.673427 0.395784
Si Si5 0.411056 0.774970 0.103442
Si Si6 0.812095 0.597014 0.136506
Si Si7 0.851237 0.453203 0.859626
O O1 0.082324 0.039759 0.939511
O O2 0.992875 0.000000 0.750000
O O3 0.986503 0.077471 0.058784
O O4 0.010664 0.000000 0.250000
O O5 0.084364 0.721937 0.871840
O O6 0.043606 0.657905 0.576196
O O7 0.976001 0.705716 0.863508
O O8 0.034225 0.644672 0.080983
O O9 0.442317 0.855955 0.614766
O O10 0.875893 0.696446 0.679586
O O11 0.833777 0.641734 0.278830
O O12 0.891789 0.712741 0.187967
O O13 0.817494 0.562438 0.379516
O O14 0.750000 0.600397 0.000000
O O15 0.850601 0.581106 0.886821
O O16 0.827921 0.500000 0.750000
#
# Coordination Sequence:
#
# PCOD9332915 Si02
#       7
#     8   8   8   8   8   8   8
#     4  11  21  32  47  63  82 109 144 178 216 267
#     4   9  17  27  43  67  85 105 126 160 199 259
#     4  10  18  28  46  62  85 106 136 165 212 255
#     4  10  19  30  47  61  82 108 131 165 217 268
#     4   9  17  29  44  64  87 104 126 155 204 266
#     4  12  24  37  50  65  81 105 142 185 234 283
#     4  11  23  37  51  61  78 102 141 188 236 281
#
# _framework density 15.871287000000001
#
# number of rings (size 3 to 8) (size 9 to 14) (size 15 to 20)
#    0.000    1.714    1.429    5.143    4.000    4.571 
#    0.000    0.714    0.000    0.000    0.000    0.000 
#    0.000    0.000    0.000    0.000    0.000    0.000 
#
# Total GULP energy -156137.636118 kJ/mol
# GULP energy per Si atom -5576.344147 kJ/mol
# Density = 1.583516 g / cm^3
# Si number density = 15.871287 Si / 1000 Ang^3
#
#
#
# Elastic Constant Matrix: (Units=GPa)
#
#
# Indices 1 2 3 4 5 6 
#
# 1 8.0736 18.8592 3.3160 0.0000 0.0000 0.0000
# 2 18.8592 90.6765 19.8700 0.0000 0.0000 0.0000
# 3 3.3160 19.8700 79.1798 0.0000 0.0000 0.0000
# 4 0.0000 0.0000 0.0000 24.9460 0.0000 0.0000
# 5 0.0000 0.0000 0.0000 0.0000 5.9041 0.0000
# 6 0.0000 0.0000 0.0000 0.0000 0.0000 6.7938
#
#
#
# Elastic Compliance Matrix: (Units=1/GPa)
#
#
# Indices 1 2 3 4 5 6 
#
# 1 0.241412 -0.050787 0.002635 0.000000 0.000000 0.000000
# 2 -0.050787 0.022354 -0.003483 0.000000 0.000000 0.000000
# 3 0.002635 -0.003483 0.013393 0.000000 0.000000 0.000000
# 4 0.000000 0.000000 0.000000 0.040087 0.000000 0.000000
# 5 0.000000 0.000000 0.000000 0.000000 0.169373 0.000000
# 6 0.000000 0.000000 0.000000 0.000000 0.000000 0.147194
#
#
# Mechanical properties :
#
#
# Convention : Reuss Voigt Hill
#
# Bulk Modulus (GPa) = 5.75078 29.11335 17.43207
# Shear Modulus (GPa) = 6.28894 16.58777 11.43835
#
# Velocity S-wave (km/s) = 1.99275 3.23637 2.68749
# Velocity P-wave (km/s) = 2.98764 5.68759 4.54284
#
# Compressibility (1/GPa) = 0.17388941
#
# Stress axis : x y z
#
# Youngs Moduli (GPa) = 4.14229 44.73428 74.66502
#
# Poissons Ratio (x) = 2.27192 -0.19672
# Poissons Ratio (y) = 0.21037 0.26004
# Poissons Ratio (z) = -0.01091 0.15580
#
# Static dielectric constant tensor:
#      x y z
#    x 1.519050 0.000000 0.000000 
#    y 0.000000 1.580320 0.000000 
#    z 0.000000 0.000000 1.496420 
# 
# From -- ./inp_files/7348.got.cif
#   From: 2010.05.17/outbox.cif.g08.bks.cpg/sg24_4_cif.got.tgz:7348.got - 2010.06.04 00:33:39.
