data_PCOD9332619
_publ_section_title
;
Structure prediction by ZEFSAII (Michael W. Deem and Ramdas Pophale) SiO2 
 PCOD9332619
Probable space group: I 2 2 2
;
_chemical_formula_sum "Si O2"
_cell_formula_units_Z 32
_cell_length_a 9.212839
_cell_length_b 19.530645
_cell_length_c 6.980616
_cell_angle_alpha 90.000000
_cell_angle_beta 90.000000
_cell_angle_gamma 90.000000
_cell_volume 1256.041000
_symmetry_space_group_name_H-M "I 2 2 2"
_symmetry_group_IT_number 23
_symmetry_cell_setting 'orthorhombic'
loop_
_space_group_symop_operation_xyz
x,y,z
-x,-y,z
x,-y,-z
-x,y,-z
1/2+x,1/2+y,1/2+z
1/2-x,1/2-y,1/2+z
1/2+x,1/2-y,1/2-z
1/2-x,1/2+y,1/2-z
loop_
_atom_site_type_symbol
_atom_site_label
_atom_site_fract_x
_atom_site_fract_y
_atom_site_fract_z
Si Si1 0.304723 0.161194 0.680183
Si Si2 0.973324 0.765668 0.728220
Si Si3 0.374817 0.603502 0.160280
Si Si4 0.666450 0.989883 0.731795
O O1 0.458381 0.197418 0.690176
O O2 0.246858 0.140266 0.471123
O O3 0.298961 0.088202 0.784443
O O4 0.193467 0.217081 0.763379
O O5 0.055442 0.835993 0.784131
O O6 0.000000 0.760293 0.500000
O O7 0.295693 0.543214 0.276359
O O8 0.500000 0.582139 0.000000
O O9 0.500000 0.000000 0.793718
O O10 0.662907 0.000000 0.500000
#
# Coordination Sequence:
#
# PCOD9332619 Si02
#       4
#     8   8   8   8
#     4   9  18  31  49  73 105 141 167 211 267 304
#     4   9  19  33  49  77 109 140 175 209 260 325
#     4   8  17  32  50  75 106 136 169 224 267 309
#     4   9  17  28  47  77 103 126 171 220 266 309
#
# _framework density 25.476876000000001
#
# number of rings (size 3 to 8) (size 9 to 14) (size 15 to 20)
#    0.000    3.750    0.000    0.000    3.500   12.500 
#    4.500    0.000    0.000    0.750    0.000    0.000 
#   30.000    0.000    0.000    0.000    0.000    0.000 
#
# Total GULP energy -89304.523319 kJ/mol
# GULP energy per Si atom -5581.532707 kJ/mol
# Density = 2.541889 g / cm^3
# Si number density = 25.476876 Si / 1000 Ang^3
#
#
#
# Elastic Constant Matrix: (Units=GPa)
#
#
# Indices 1 2 3 4 5 6 
#
# 1 128.5874 78.8894 23.5302 0.0004 0.0001 0.0000
# 2 78.8894 173.3470 29.0762 0.0004 -0.0001 -0.0002
# 3 23.5302 29.0762 75.0036 0.0027 -0.0006 -0.0011
# 4 0.0004 0.0004 0.0027 5.5683 -0.0003 -0.0003
# 5 0.0001 -0.0001 -0.0006 -0.0003 7.0211 0.0001
# 6 0.0000 -0.0002 -0.0011 -0.0003 0.0001 45.3191
#
#
#
# Elastic Compliance Matrix: (Units=1/GPa)
#
#
# Indices 1 2 3 4 5 6 
#
# 1 0.010968 -0.004721 -0.001611 0.000000 0.000000 0.000000
# 2 -0.004721 0.008202 -0.001699 0.000001 0.000000 0.000000
# 3 -0.001611 -0.001699 0.014496 -0.000007 0.000001 0.000000
# 4 0.000000 0.000001 -0.000007 0.179590 0.000007 0.000001
# 5 0.000000 0.000000 0.000001 0.000007 0.142427 0.000000
# 6 0.000000 0.000000 0.000000 0.000001 0.000000 0.022066
#
#
# Mechanical properties :
#
#
# Convention : Reuss Voigt Hill
#
# Bulk Modulus (GPa) = 56.79947 71.10330 63.95138
# Shear Modulus (GPa) = 12.51002 27.94451 20.22727
#
# Velocity S-wave (km/s) = 2.21833 3.31548 2.82076
# Velocity P-wave (km/s) = 5.37627 6.52886 5.98040
#
# Compressibility (1/GPa) = 0.01760580
#
# Stress axis : x y z
#
# Youngs Moduli (GPa) = 91.17310 121.91605 68.98244
#
# Poissons Ratio (x) = 0.57561 0.11110
# Poissons Ratio (y) = 0.43046 0.11717
# Poissons Ratio (z) = 0.14685 0.20708
#
# Static dielectric constant tensor:
#      x y z
#    x 2.020140 0.000000 0.000000 
#    y 0.000000 2.034510 0.000000 
#    z 0.000000 0.000000 2.109730 
# 
# From -- ./inp_files/14533.got.cif
#   From: 2010.05.17/outbox.cif.g08.bks.cpg/sg23_8_cif.got.tgz:14533.got - 2010.06.04 12:02:01.
