data_PCOD9332093
_publ_section_title
;
Structure prediction by ZEFSAII (Michael W. Deem and Ramdas Pophale) SiO2 
 PCOD9332093
Probable space group: I 2 2 2
;
_chemical_formula_sum "Si O2"
_cell_formula_units_Z 58
_cell_length_a 9.470862
_cell_length_b 15.933307
_cell_length_c 16.287034
_cell_angle_alpha 90.000000
_cell_angle_beta 90.000000
_cell_angle_gamma 90.000000
_cell_volume 2457.748477
_symmetry_space_group_name_H-M "I 2 2 2"
_symmetry_group_IT_number 23
_symmetry_cell_setting 'orthorhombic'
loop_
_space_group_symop_operation_xyz
x,y,z
-x,-y,z
x,-y,-z
-x,y,-z
1/2+x,1/2+y,1/2+z
1/2-x,1/2-y,1/2+z
1/2+x,1/2-y,1/2-z
1/2-x,1/2+y,1/2-z
loop_
_atom_site_type_symbol
_atom_site_label
_atom_site_fract_x
_atom_site_fract_y
_atom_site_fract_z
Si Si1 0.860462 0.134842 0.535058
Si Si2 0.630406 0.196108 0.403192
Si Si3 0.000000 0.000000 0.000000
Si Si4 0.973402 0.686187 0.407654
Si Si5 0.485286 0.624133 0.363506
Si Si6 0.710567 0.870856 0.216038
Si Si7 0.748348 0.813652 0.774988
Si Si8 0.894688 0.427993 0.123568
O O1 0.751549 0.171690 0.467086
O O2 0.928171 0.216352 0.580577
O O3 0.762057 0.073691 0.587634
O O4 0.000000 0.092763 0.500000
O O5 0.590370 0.294070 0.402949
O O6 0.687876 0.164822 0.314310
O O7 0.477237 0.153560 0.408583
O O8 0.057850 0.932845 0.067006
O O9 0.848793 0.653460 0.349030
O O10 0.000000 0.653410 0.500000
O O11 0.113196 0.666964 0.355692
O O12 0.349559 0.583735 0.318319
O O13 0.595476 0.655815 0.295987
O O14 0.751808 0.788217 0.269418
O O15 0.622815 0.926856 0.278600
O O16 0.000000 0.500000 0.096711
#
# Coordination Sequence:
#
# PCOD9332093 Si02
#       8
#     8   8   2   8   8   8   8   8
#     4  11  24  41  73 109 142 180 248 317 376 446
#     4  11  24  44  74 105 137 197 250 312 381 447
#     4  12  32  44  64 114 158 202 236 310 396 472
#     4  11  21  37  68 113 138 180 249 299 361 442
#     4  11  25  42  72  99 150 191 250 301 371 454
#     4  11  22  44  71 105 142 195 243 314 365 445
#     4  11  20  39  74 104 140 185 251 300 355 446
#     4  12  26  45  70 107 144 190 249 304 387 452
#
# _framework density 23.598834
#
# number of rings (size 3 to 8) (size 9 to 14) (size 15 to 20)
#    0.000    0.828    4.138    4.552    7.724    2.207 
#    0.000    1.379    0.000    0.828    0.000    0.000 
#    0.000    0.000    0.000    0.000    0.000    0.000 
#
# Total GULP energy -161902.457462 kJ/mol
# GULP energy per Si atom -5582.843361 kJ/mol
# Density = 2.354512 g / cm^3
# Si number density = 23.598834 Si / 1000 Ang^3
#
#
#
# Elastic Constant Matrix: (Units=GPa)
#
#
# Indices 1 2 3 4 5 6 
#
# 1 167.4811 20.2437 63.4319 0.0000 0.0000 0.0000
# 2 20.2437 30.5932 28.5939 0.0000 0.0000 0.0000
# 3 63.4319 28.5939 147.5632 0.0000 0.0000 0.0000
# 4 0.0000 0.0000 0.0000 2.1377 0.0000 0.0000
# 5 0.0000 0.0000 0.0000 0.0000 39.4359 0.0000
# 6 0.0000 0.0000 0.0000 0.0000 0.0000 12.2238
#
#
#
# Elastic Compliance Matrix: (Units=1/GPa)
#
#
# Indices 1 2 3 4 5 6 
#
# 1 0.007263 -0.002305 -0.002675 0.000000 0.000000 0.000000
# 2 -0.002305 0.040648 -0.006886 0.000000 0.000000 0.000000
# 3 -0.002675 -0.006886 0.009261 0.000000 0.000000 0.000000
# 4 0.000000 0.000000 0.000000 0.467798 0.000000 0.000000
# 5 0.000000 0.000000 0.000000 0.000000 0.025358 0.000000
# 6 0.000000 0.000000 0.000000 0.000000 0.000000 0.081808
#
#
# Mechanical properties :
#
#
# Convention : Reuss Voigt Hill
#
# Bulk Modulus (GPa) = 29.90479 63.35295 46.62887
# Shear Modulus (GPa) = 7.49610 26.31733 16.90672
#
# Velocity S-wave (km/s) = 1.78420 3.34308 2.67951
# Velocity P-wave (km/s) = 4.11633 6.46573 5.41986
#
# Compressibility (1/GPa) = 0.03343946
#
# Stress axis : x y z
#
# Youngs Moduli (GPa) = 137.68982 24.60139 107.97980
#
# Poissons Ratio (x) = 0.05671 0.28887
# Poissons Ratio (y) = 0.31742 0.74350
# Poissons Ratio (z) = 0.36835 0.16939
#
# Static dielectric constant tensor:
#      x y z
#    x 1.926420 0.000000 0.000000 
#    y 0.000000 2.004450 0.000000 
#    z 0.000000 0.000000 1.980750 
# 
# From -- ./inp_files/23899.got.cif
#   From: 2010.05.17/outbox.cif.g08.bks.cpg/sg23_12_cif.got.tgz:23899.got - 2010.06.04 12:02:01.
