data_PCOD9332763
_publ_section_title
;
Structure prediction by ZEFSAII (Michael W. Deem and Ramdas Pophale) SiO2 
 PCOD9332763
Probable space group: I 21 21 21
;
_chemical_formula_sum "Si O2"
_cell_formula_units_Z 48
_cell_length_a 21.217966
_cell_length_b 12.205229
_cell_length_c 8.503078
_cell_angle_alpha 90.000000
_cell_angle_beta 90.000000
_cell_angle_gamma 90.000000
_cell_volume 2202.043249
_symmetry_space_group_name_H-M "I 21 21 21"
_symmetry_group_IT_number 24
_symmetry_cell_setting 'orthorhombic'
loop_
_space_group_symop_operation_xyz
x,y,z
-x,1/2-y,z
x,-y,1/2-z
1/2-x,y,-z
1/2+x,1/2+y,1/2+z
1/2-x,-y,1/2+z
1/2+x,1/2-y,-z
-x,1/2+y,1/2-z
loop_
_atom_site_type_symbol
_atom_site_label
_atom_site_fract_x
_atom_site_fract_y
_atom_site_fract_z
Si Si1 0.606928 0.500000 0.250000
Si Si2 0.808647 0.715196 0.263032
Si Si3 0.988607 0.547227 0.986275
Si Si4 0.586370 0.129033 0.714834
Si Si5 0.173858 0.791612 0.638532
Si Si6 0.891157 0.500000 0.250000
Si Si7 0.555858 0.830405 0.430299
O O1 0.561078 0.422397 0.352980
O O2 0.649060 0.415881 0.153308
O O3 0.848301 0.810497 0.178520
O O4 0.812362 0.725638 0.453300
O O5 0.733297 0.717778 0.244731
O O6 0.845789 0.603494 0.222877
O O7 0.941011 0.486937 0.108366
O O8 0.031720 0.631245 0.083283
O O9 0.034960 0.455502 0.916875
O O10 0.596014 0.000000 0.750000
O O11 0.565544 0.182726 0.880346
O O12 0.117862 0.704775 0.663680
O O13 0.500000 0.750000 0.383808
#
# Coordination Sequence:
#
# PCOD9332763 Si02
#       7
#     4   8   8   8   8   4   8
#     4  12  21  38  56  96 137 156 212 268 350 397
#     4  10  21  37  60  95 125 174 221 255 324 391
#     4  11  21  34  62  93 123 161 204 278 325 367
#     4   9  19  34  61  92 114 152 223 272 302 369
#     4  10  21  35  60  90 128 176 204 264 328 398
#     4  12  19  38  60  94 125 166 216 268 316 387
#     4  10  16  34  60  88 118 157 211 256 319 385
#
# _framework density 21.797939
#
# number of rings (size 3 to 8) (size 9 to 14) (size 15 to 20)
#    0.000    1.667    5.833    1.500    0.000    0.000 
#    0.000    3.333    1.833    0.000   13.000    0.000 
#    0.000    0.000    0.000    0.000    0.000    0.000 
#
# Total GULP energy -133794.501720 kJ/mol
# GULP energy per Si atom -5574.770905 kJ/mol
# Density = 2.174833 g / cm^3
# Si number density = 21.797939 Si / 1000 Ang^3
#
#
#
# Elastic Constant Matrix: (Units=GPa)
#
#
# Indices 1 2 3 4 5 6 
#
# 1 168.6763 58.3773 20.2535 0.0000 0.0000 0.0000
# 2 58.3773 80.1400 3.0234 0.0000 0.0000 0.0000
# 3 20.2535 3.0234 26.7954 0.0000 0.0000 0.0000
# 4 0.0000 0.0000 0.0000 21.5814 0.0000 0.0000
# 5 0.0000 0.0000 0.0000 0.0000 12.9671 0.0000
# 6 0.0000 0.0000 0.0000 0.0000 0.0000 10.6639
#
#
#
# Elastic Compliance Matrix: (Units=1/GPa)
#
#
# Indices 1 2 3 4 5 6 
#
# 1 0.008777 -0.006169 -0.005938 0.000000 0.000000 0.000000
# 2 -0.006169 0.016868 0.002760 0.000000 0.000000 0.000000
# 3 -0.005938 0.002760 0.041497 0.000000 0.000000 0.000000
# 4 0.000000 0.000000 0.000000 0.046336 0.000000 0.000000
# 5 0.000000 0.000000 0.000000 0.000000 0.077118 0.000000
# 6 0.000000 0.000000 0.000000 0.000000 0.000000 0.093775
#
#
# Mechanical properties :
#
#
# Convention : Reuss Voigt Hill
#
# Bulk Modulus (GPa) = 20.64123 48.76889 34.70506
# Shear Modulus (GPa) = 15.66350 21.97298 18.81824
#
# Velocity S-wave (km/s) = 2.68354 3.17839 2.94139
# Velocity P-wave (km/s) = 4.36941 5.99094 5.24324
#
# Compressibility (1/GPa) = 0.04844671
#
# Stress axis : x y z
#
# Youngs Moduli (GPa) = 113.93948 59.28402 24.09839
#
# Poissons Ratio (x) = 0.36574 0.14309
# Poissons Ratio (y) = 0.70292 -0.06651
# Poissons Ratio (z) = 0.67654 -0.16361
#
# Static dielectric constant tensor:
#      x y z
#    x 1.866390 0.000000 0.000000 
#    y 0.000000 1.761420 0.000000 
#    z 0.000000 0.000000 1.867430 
# 
# From -- ./inp_files/15148.got.cif
#   From: 2010.05.17/outbox.cif.g08.bks.cpg/sg24_8_cif.got.tgz:15148.got - 2010.06.04 00:33:39.
