data_PCOD9332065
_publ_section_title
;
Structure prediction by ZEFSAII (Michael W. Deem and Ramdas Pophale) SiO2 
 PCOD9332065
Probable space group: I 2 2 2
;
_chemical_formula_sum "Si O2"
_cell_formula_units_Z 40
_cell_length_a 16.190143
_cell_length_b 13.521209
_cell_length_c 8.252722
_cell_angle_alpha 90.000000
_cell_angle_beta 90.000000
_cell_angle_gamma 90.000000
_cell_volume 1806.605909
_symmetry_space_group_name_H-M "I 2 2 2"
_symmetry_group_IT_number 23
_symmetry_cell_setting 'orthorhombic'
loop_
_space_group_symop_operation_xyz
x,y,z
-x,-y,z
x,-y,-z
-x,y,-z
1/2+x,1/2+y,1/2+z
1/2-x,1/2-y,1/2+z
1/2+x,1/2-y,1/2-z
1/2-x,1/2+y,1/2-z
loop_
_atom_site_type_symbol
_atom_site_label
_atom_site_fract_x
_atom_site_fract_y
_atom_site_fract_z
Si Si1 0.154021 0.724214 0.869061
Si Si2 0.616523 0.392722 0.566992
Si Si3 0.698604 0.054436 0.154424
Si Si4 0.584922 0.614228 0.056928
Si Si5 0.751027 0.862403 0.351239
O O1 0.141844 0.636069 0.740829
O O2 0.230323 0.785994 0.792048
O O3 0.094225 0.811631 0.930568
O O4 0.177018 0.670387 0.035540
O O5 0.592983 0.500000 0.500000
O O6 0.716741 0.396253 0.588036
O O7 0.587657 0.377774 0.749878
O O8 0.732359 0.971074 0.280376
O O9 0.659434 0.000000 0.000000
O O10 0.581624 0.500000 0.000000
O O11 0.500000 0.663860 0.000000
O O12 0.667414 0.647029 0.963874
#
# Coordination Sequence:
#
# PCOD9332065 Si02
#       5
#     8   8   8   8   8
#     4  12  20  31  57  76 111 160 172 234 292 329
#     4  11  20  35  52  80 114 145 193 230 273 334
#     4  11  20  33  49  81 118 143 182 227 276 339
#     4  11  21  35  52  73 108 157 191 224 271 327
#     4  12  19  34  51  80 116 143 184 227 280 338
#
# _framework density 22.140965999999999
#
# number of rings (size 3 to 8) (size 9 to 14) (size 15 to 20)
#    0.000    0.600   10.000    0.600    0.000    0.000 
#    0.000    8.000    0.000    0.000    0.000    0.000 
#    0.000   70.400    0.000    0.000    0.000    0.000 
#
# Total GULP energy -111608.862125 kJ/mol
# GULP energy per Si atom -5580.443106 kJ/mol
# Density = 2.209057 g / cm^3
# Si number density = 22.140966 Si / 1000 Ang^3
#
#
#
# Elastic Constant Matrix: (Units=GPa)
#
#
# Indices 1 2 3 4 5 6 
#
# 1 29.5326 19.9607 19.0753 0.0000 0.0000 0.0000
# 2 19.9607 126.6831 77.7434 0.0000 0.0000 0.0000
# 3 19.0753 77.7434 167.9477 0.0000 0.0000 0.0000
# 4 0.0000 0.0000 0.0000 65.3025 0.0000 0.0000
# 5 0.0000 0.0000 0.0000 0.0000 -1.0516 0.0000
# 6 0.0000 0.0000 0.0000 0.0000 0.0000 -16.1341
#
#
#
# Elastic Compliance Matrix: (Units=1/GPa)
#
#
# Indices 1 2 3 4 5 6 
#
# 1 0.038462 -0.004720 -0.002183 0.000000 0.000000 0.000000
# 2 -0.004720 0.011605 -0.004836 0.000000 0.000000 0.000000
# 3 -0.002183 -0.004836 0.008441 0.000000 0.000000 0.000000
# 4 0.000000 0.000000 0.000000 0.015313 0.000000 0.000000
# 5 0.000000 0.000000 0.000000 0.000000 -0.950893 0.000000
# 6 0.000000 0.000000 0.000000 0.000000 0.000000 -0.061981
#
#
# Mechanical properties :
#
#
# Convention : Reuss Voigt Hill
#
# Bulk Modulus (GPa) = 28.54832 61.96912 45.25872
# Shear Modulus (GPa) = -5.53160 23.44894 8.95867
#
# Velocity S-wave (km/s) = -1.58233 3.25787 2.01370
# Velocity P-wave (km/s) = 3.09572 6.49622 5.08844
#
# Compressibility (1/GPa) = 0.03502833
#
# Stress axis : x y z
#
# Youngs Moduli (GPa) = 26.00002 86.16821 118.47218
#
# Poissons Ratio (x) = 0.40673 0.25867
# Poissons Ratio (y) = 0.12273 0.57293
# Poissons Ratio (z) = 0.05677 0.41671
#
# Static dielectric constant tensor:
#      x y z
#    x 1.831960 0.000000 0.000000 
#    y 0.000000 1.910700 0.000000 
#    z 0.000000 0.000000 1.850000 
# 
# From -- ./inp_files/9744.got.cif
#   From: 2010.05.17/outbox.cif.g08.bks.cpg/sg23_5_cif.got.tgz:9744.got - 2010.06.04 12:02:01.
