data_PCOD9332866
_publ_section_title
;
Structure prediction by ZEFSAII (Michael W. Deem and Ramdas Pophale) SiO2 
 PCOD9332866
Probable space group: I 21 21 21
;
_chemical_formula_sum "Si O2"
_cell_formula_units_Z 60
_cell_length_a 10.591573
_cell_length_b 21.946956
_cell_length_c 11.579844
_cell_angle_alpha 90.000000
_cell_angle_beta 90.000000
_cell_angle_gamma 90.000000
_cell_volume 2691.767006
_symmetry_space_group_name_H-M "I 21 21 21"
_symmetry_group_IT_number 24
_symmetry_cell_setting 'orthorhombic'
loop_
_space_group_symop_operation_xyz
x,y,z
-x,1/2-y,z
x,-y,1/2-z
1/2-x,y,-z
1/2+x,1/2+y,1/2+z
1/2-x,-y,1/2+z
1/2+x,1/2-y,-z
-x,1/2+y,1/2-z
loop_
_atom_site_type_symbol
_atom_site_label
_atom_site_fract_x
_atom_site_fract_y
_atom_site_fract_z
Si Si1 0.250000 0.362230 0.500000
Si Si2 0.144578 0.567997 0.598535
Si Si3 0.474949 0.441085 0.406656
Si Si4 0.960660 0.623065 0.421805
Si Si5 0.361254 0.221795 0.791935
Si Si6 0.396010 0.005803 0.631824
Si Si7 0.275907 0.118602 0.363888
Si Si8 0.313118 0.651482 0.747463
O O1 0.356244 0.402163 0.441678
O O2 0.313355 0.333905 0.615334
O O3 0.250000 0.552356 0.500000
O O4 0.071625 0.507228 0.634352
O O5 0.046945 0.612092 0.532434
O O6 0.213223 0.601800 0.702886
O O7 0.537059 0.460114 0.528765
O O8 0.576302 0.397018 0.344363
O O9 0.055755 0.628103 0.310248
O O10 0.886054 0.685285 0.409866
O O11 0.874456 0.563168 0.408373
O O12 0.500000 0.250000 0.752943
O O13 0.292290 0.172133 0.708924
O O14 0.282347 0.283039 0.808128
O O15 0.474593 0.000000 0.750000
O O16 0.283421 0.051634 0.661261
O O17 0.250000 0.132089 0.500000
#
# Coordination Sequence:
#
# PCOD9332866 Si02
#       8
#     4   8   8   8   8   8   8   8
#     4  12  24  40  58  98 132 188 218 272 354 424
#     4   9  18  40  66  99 125 159 219 295 343 396
#     4  10  22  38  61  94 133 167 217 279 361 399
#     4   9  18  37  70  93 120 164 228 281 335 407
#     4  10  21  39  63  96 124 181 232 262 333 410
#     4  10  17  34  63  94 121 161 210 273 342 405
#     4  10  22  37  60  95 134 168 215 279 330 407
#     4  10  23  38  61  95 134 176 230 276 335 408
#
# _framework density 22.290191
#
# number of rings (size 3 to 8) (size 9 to 14) (size 15 to 20)
#    0.000    2.133    2.000    0.800    6.533    0.533 
#    2.400    0.667    0.000   42.400    0.000    0.000 
#    0.000    0.000    0.000    0.000    0.000    0.000 
#
# Total GULP energy -167078.956143 kJ/mol
# GULP energy per Si atom -5569.298538 kJ/mol
# Density = 2.223946 g / cm^3
# Si number density = 22.290191 Si / 1000 Ang^3
#
#
#
# Elastic Constant Matrix: (Units=GPa)
#
#
# Indices 1 2 3 4 5 6 
#
# 1 85.1275 48.5888 13.0942 0.0000 0.0000 0.0000
# 2 48.5888 100.5868 -14.4903 0.0001 -0.0001 0.0000
# 3 13.0942 -14.4903 58.6919 0.0003 0.0000 0.0000
# 4 0.0000 0.0001 0.0003 -6.5981 -0.0002 -0.0002
# 5 0.0000 -0.0001 0.0000 -0.0002 -44.2332 0.0000
# 6 0.0000 0.0000 0.0000 -0.0002 0.0000 60.0307
#
#
#
# Elastic Compliance Matrix: (Units=1/GPa)
#
#
# Indices 1 2 3 4 5 6 
#
# 1 0.018341 -0.009797 -0.006511 0.000000 0.000000 0.000000
# 2 -0.009797 0.015542 0.006023 0.000000 0.000000 0.000000
# 3 -0.006511 0.006023 0.019978 0.000001 0.000000 0.000000
# 4 0.000000 0.000000 0.000001 -0.151559 0.000001 0.000000
# 5 0.000000 0.000000 0.000000 0.000001 -0.022607 0.000000
# 6 0.000000 0.000000 0.000000 0.000000 0.000000 0.016658
#
#
# Mechanical properties :
#
#
# Convention : Reuss Voigt Hill
#
# Bulk Modulus (GPa) = 30.03909 37.64352 33.84130
# Shear Modulus (GPa) = -69.46336 14.98744 -27.23796
#
# Velocity S-wave (km/s) = -5.58846 2.59584 -3.49946
# Velocity P-wave (km/s) = 5.30429 5.09010 1.05508
#
# Compressibility (1/GPa) = 0.03328996
#
# Stress axis : x y z
#
# Youngs Moduli (GPa) = 54.52351 64.34175 50.05593
#
# Poissons Ratio (x) = 0.63039 0.32590
# Poissons Ratio (y) = 0.53419 -0.30148
# Poissons Ratio (z) = 0.35499 -0.38753
#
# Static dielectric constant tensor:
#      x y z
#    x 1.938940 0.000000 0.000000 
#    y 0.000000 1.837640 0.000000 
#    z 0.000000 0.000000 1.875090 
# 
# From -- ./inp_files/20002.got.cif
#   From: 2010.05.17/outbox.cif.g08.bks.cpg/sg24_11_cif.got.tgz:20002.got - 2010.06.04 00:33:39.
