data_PCOD9332188
_publ_section_title
;
Structure prediction by ZEFSAII (Michael W. Deem and Ramdas Pophale) SiO2 
 PCOD9332188
Probable space group: I 2 2 2
;
_chemical_formula_sum "Si O2"
_cell_formula_units_Z 64
_cell_length_a 9.932274
_cell_length_b 14.730421
_cell_length_c 21.613335
_cell_angle_alpha 90.000000
_cell_angle_beta 90.000000
_cell_angle_gamma 90.000000
_cell_volume 3162.173072
_symmetry_space_group_name_H-M "I 2 2 2"
_symmetry_group_IT_number 23
_symmetry_cell_setting 'orthorhombic'
loop_
_space_group_symop_operation_xyz
x,y,z
-x,-y,z
x,-y,-z
-x,y,-z
1/2+x,1/2+y,1/2+z
1/2-x,1/2-y,1/2+z
1/2+x,1/2-y,1/2-z
1/2-x,1/2+y,1/2-z
loop_
_atom_site_type_symbol
_atom_site_label
_atom_site_fract_x
_atom_site_fract_y
_atom_site_fract_z
Si Si1 0.113639 0.441820 0.298829
Si Si2 0.499661 0.710834 0.575992
Si Si3 0.990053 0.242199 0.711898
Si Si4 0.844167 0.900297 0.504709
Si Si5 0.256643 0.673156 0.119221
Si Si6 0.738768 0.304687 0.871315
Si Si7 0.850759 0.507830 0.168834
Si Si8 0.427826 0.406439 0.318154
O O1 0.140986 0.509274 0.241525
O O2 0.264946 0.417865 0.321035
O O3 0.000000 0.500000 0.336813
O O4 0.048135 0.346764 0.275778
O O5 0.500000 0.712650 0.500000
O O6 0.385099 0.775272 0.608543
O O7 0.642789 0.743033 0.602427
O O8 0.472135 0.617130 0.611740
O O9 0.124999 0.240855 0.670237
O O10 0.022955 0.173969 0.769798
O O11 0.863191 0.210120 0.669245
O O12 0.809988 0.831685 0.450162
O O13 0.821061 0.853275 0.569145
O O14 0.000000 0.915203 0.500000
O O15 0.774563 0.000000 0.500000
O O16 0.237002 0.568511 0.137707
O O17 0.797904 0.390857 0.835424
O O18 0.000000 0.500000 0.141344
O O19 0.500000 0.500000 0.297792
#
# Coordination Sequence:
#
# PCOD9332188 Si02
#       8
#     8   8   8   8   8   8   8   8
#     4  11  26  46  70 102 142 182 229 289 356 422
#     4  12  27  45  71 102 137 186 241 296 352 415
#     4  12  27  44  71 104 144 180 233 287 356 420
#     4  11  22  35  58  96 142 186 228 282 348 414
#     4  12  23  41  68  98 141 185 230 287 344 427
#     4  12  23  39  65 103 138 185 234 279 342 424
#     4  11  22  38  63  95 138 178 221 276 340 408
#     4  12  28  47  73 106 141 186 238 294 358 416
#
# _framework density 20.239246999999999
#
# number of rings (size 3 to 8) (size 9 to 14) (size 15 to 20)
#    0.000    0.375    7.500    1.500    3.500    0.250 
#    0.000    1.875    0.000    0.000    0.000    0.000 
#    0.000    0.000    0.000    0.000    0.000    0.000 
#
# Total GULP energy -178283.182236 kJ/mol
# GULP energy per Si atom -5571.349445 kJ/mol
# Density = 2.019318 g / cm^3
# Si number density = 20.239247 Si / 1000 Ang^3
#
#
#
# Elastic Constant Matrix: (Units=GPa)
#
#
# Indices 1 2 3 4 5 6 
#
# 1 129.3021 48.3815 43.7077 0.0000 0.0000 0.0000
# 2 48.3815 95.8692 29.6673 0.0000 0.0000 0.0000
# 3 43.7077 29.6673 106.1948 0.0000 0.0000 0.0000
# 4 0.0000 0.0000 0.0000 28.7406 0.0000 0.0000
# 5 0.0000 0.0000 0.0000 0.0000 -37.2686 0.0000
# 6 0.0000 0.0000 0.0000 0.0000 0.0000 39.7613
#
#
#
# Elastic Compliance Matrix: (Units=1/GPa)
#
#
# Indices 1 2 3 4 5 6 
#
# 1 0.010376 -0.004285 -0.003073 0.000000 0.000000 0.000000
# 2 -0.004285 0.013188 -0.001920 0.000000 0.000000 0.000000
# 3 -0.003073 -0.001920 0.011218 0.000000 0.000000 0.000000
# 4 0.000000 0.000000 0.000000 0.034794 0.000000 0.000000
# 5 0.000000 0.000000 0.000000 0.000000 -0.026832 0.000000
# 6 0.000000 0.000000 0.000000 0.000000 0.000000 0.025150
#
#
# Mechanical properties :
#
#
# Convention : Reuss Voigt Hill
#
# Bulk Modulus (GPa) = 61.63860 63.87546 62.75703
# Shear Modulus (GPa) = 54.43036 20.22064 37.32550
#
# Velocity S-wave (km/s) = 5.19152 3.16425 4.29909
# Velocity P-wave (km/s) = 8.15211 6.70662 7.46444
#
# Compressibility (1/GPa) = 0.01622360
#
# Stress axis : x y z
#
# Youngs Moduli (GPa) = 96.37422 75.82741 89.14132
#
# Poissons Ratio (x) = 0.32495 0.27397
# Poissons Ratio (y) = 0.41300 0.17119
# Poissons Ratio (z) = 0.29620 0.14562
#
# Static dielectric constant tensor:
#      x y z
#    x 1.831690 0.000000 0.000000 
#    y 0.000000 1.853860 0.000000 
#    z 0.000000 0.000000 1.705410 
# 
# From -- ./inp_files/28098.got.cif
#   From: 2010.05.17/outbox.cif.g08.bks.cpg/sg23_15_cif.got.tgz:28098.got - 2010.06.04 12:02:01.
