data_PCOD9332986
_publ_section_title
;
Structure prediction by ZEFSAII (Michael W. Deem and Ramdas Pophale) SiO2 
 PCOD9332986
Probable space group: I 21 21 21
;
_chemical_formula_sum "Si O2"
_cell_formula_units_Z 40
_cell_length_a 30.266891
_cell_length_b 13.544889
_cell_length_c 5.331774
_cell_angle_alpha 90.000000
_cell_angle_beta 90.000000
_cell_angle_gamma 90.000000
_cell_volume 2185.823021
_symmetry_space_group_name_H-M "I 21 21 21"
_symmetry_group_IT_number 24
_symmetry_cell_setting 'orthorhombic'
loop_
_space_group_symop_operation_xyz
x,y,z
-x,1/2-y,z
x,-y,1/2-z
1/2-x,y,-z
1/2+x,1/2+y,1/2+z
1/2-x,-y,1/2+z
1/2+x,1/2-y,-z
-x,1/2+y,1/2-z
loop_
_atom_site_type_symbol
_atom_site_label
_atom_site_fract_x
_atom_site_fract_y
_atom_site_fract_z
Si Si1 0.840169 0.604194 0.520147
Si Si2 0.550447 0.213468 0.625164
Si Si3 0.938642 0.402552 0.092368
Si Si4 0.302423 0.118284 0.512371
Si Si5 0.534073 0.892051 0.371959
O O1 0.891966 0.580921 0.539633
O O2 0.824429 0.656266 0.266150
O O3 0.815217 0.498312 0.502890
O O4 0.824060 0.661553 0.763112
O O5 0.500000 0.250000 0.628847
O O6 0.573136 0.313072 0.719088
O O7 0.556235 0.175920 0.342806
O O8 0.553648 0.132889 0.851730
O O9 0.951302 0.500000 0.250000
O O10 0.980764 0.377427 0.916597
O O11 0.250000 0.128113 0.500000
O O12 0.538594 0.000000 0.250000
#
# Coordination Sequence:
#
# PCOD9332986 Si02
#       5
#     8   8   8   8   8
#     4  10  19  29  44  68  90 124 170 204 236 272
#     4  10  21  36  48  70  93 122 159 208 266 310
#     4  11  22  34  52  75 102 128 167 224 253 295
#     4  10  18  31  45  63  97 132 174 203 224 286
#     4  11  22  36  53  66  88 126 167 213 267 307
#
# _framework density 18.299741999999998
#
# number of rings (size 3 to 8) (size 9 to 14) (size 15 to 20)
#    0.000    1.600    2.000    7.800    2.800    4.800 
#    0.000    0.000    0.000    0.000    0.000    0.000 
#    0.000    0.000    0.000    0.000    0.000   90.000 
#
# Total GULP energy -111395.704415 kJ/mol
# GULP energy per Si atom -5569.785221 kJ/mol
# Density = 1.825809 g / cm^3
# Si number density = 18.299742 Si / 1000 Ang^3
#
#
#
# Elastic Constant Matrix: (Units=GPa)
#
#
# Indices 1 2 3 4 5 6 
#
# 1 55.4400 6.0222 22.9514 0.0000 0.0002 0.0000
# 2 6.0222 47.4046 14.9367 0.0001 -0.0001 0.0000
# 3 22.9514 14.9367 154.3004 0.0004 -0.0041 -0.0006
# 4 0.0000 0.0001 0.0004 18.0449 0.0003 -0.0001
# 5 0.0002 -0.0001 -0.0041 0.0003 94.6291 -0.0002
# 6 0.0000 0.0000 -0.0006 -0.0001 -0.0002 -21.9451
#
#
#
# Elastic Compliance Matrix: (Units=1/GPa)
#
#
# Indices 1 2 3 4 5 6 
#
# 1 0.019338 -0.001599 -0.002722 0.000000 0.000000 0.000000
# 2 -0.001599 0.021891 -0.001881 0.000000 0.000000 0.000000
# 3 -0.002722 -0.001881 0.007068 0.000000 0.000000 0.000000
# 4 0.000000 0.000000 0.000000 0.055417 0.000000 0.000000
# 5 0.000000 0.000000 0.000000 0.000000 0.010568 0.000000
# 6 0.000000 0.000000 0.000000 0.000000 0.000000 -0.045568
#
#
# Mechanical properties :
#
#
# Convention : Reuss Voigt Hill
#
# Bulk Modulus (GPa) = 27.86083 38.32952 33.09517
# Shear Modulus (GPa) = 53.71633 32.36142 43.03888
#
# Velocity S-wave (km/s) = 5.42377 4.20981 4.85488
# Velocity P-wave (km/s) = 7.38111 6.67988 7.03924
#
# Compressibility (1/GPa) = 0.03589269
#
# Stress axis : x y z
#
# Youngs Moduli (GPa) = 51.71183 45.68104 141.48669
#
# Poissons Ratio (x) = 0.07305 0.38507
# Poissons Ratio (y) = 0.08269 0.26617
# Poissons Ratio (z) = 0.14074 0.08594
#
# Static dielectric constant tensor:
#      x y z
#    x 1.630800 0.000000 0.000000 
#    y 0.000000 1.557060 0.000000 
#    z 0.000000 0.000000 1.890470 
# 
# From -- ./inp_files/7011.got.cif
#   From: 2010.05.17/outbox.cif.g08.bks.cpg/sg24_4_cif.got.tgz:7011.got - 2010.06.04 00:33:39.
