data_PCOD9332404
_publ_section_title
;
Structure prediction by ZEFSAII (Michael W. Deem and Ramdas Pophale) SiO2 
 PCOD9332404
Probable space group: I 2 2 2
;
_chemical_formula_sum "Si O2"
_cell_formula_units_Z 40
_cell_length_a 13.437887
_cell_length_b 12.879868
_cell_length_c 9.483789
_cell_angle_alpha 90.000000
_cell_angle_beta 90.000000
_cell_angle_gamma 90.000000
_cell_volume 1641.437231
_symmetry_space_group_name_H-M "I 2 2 2"
_symmetry_group_IT_number 23
_symmetry_cell_setting 'orthorhombic'
loop_
_space_group_symop_operation_xyz
x,y,z
-x,-y,z
x,-y,-z
-x,y,-z
1/2+x,1/2+y,1/2+z
1/2-x,1/2-y,1/2+z
1/2+x,1/2-y,1/2-z
1/2-x,1/2+y,1/2-z
loop_
_atom_site_type_symbol
_atom_site_label
_atom_site_fract_x
_atom_site_fract_y
_atom_site_fract_z
Si Si1 0.902135 0.834515 0.943746
Si Si2 0.000000 0.000000 0.261299
Si Si3 0.111991 0.530567 0.836062
Si Si4 0.228894 0.812844 0.319493
Si Si5 0.728008 0.910906 0.108541
Si Si6 0.637605 0.500000 0.000000
O O1 0.815404 0.795102 0.838205
O O2 0.843928 0.890803 0.071106
O O3 0.949043 0.917667 0.838393
O O4 0.000000 0.773330 0.000000
O O5 0.925548 0.947880 0.373831
O O6 0.155187 0.647985 0.811715
O O7 0.191211 0.457954 0.754678
O O8 0.000000 0.500000 0.785695
O O9 0.113613 0.500000 0.000000
O O10 0.194861 0.707746 0.395798
O O11 0.188295 0.906548 0.415424
O O12 0.693678 0.000000 0.000000
#
# Coordination Sequence:
#
# PCOD9332404 Si02
#       6
#     8   4   8   8   8   4
#     4  11  24  43  73 113 149 195 252 327 400 475
#     4   9  19  38  72 110 148 188 244 316 400 462
#     4  11  27  51  78 107 158 215 271 318 394 497
#     4  11  25  45  78 112 158 210 256 329 397 481
#     4  12  27  50  76 114 155 204 263 335 399 473
#     4   9  20  42  69 110 154 194 243 308 391 484
#
# _framework density 24.368887999999998
#
# number of rings (size 3 to 8) (size 9 to 14) (size 15 to 20)
#    0.000    1.200    3.000    1.500    5.600    2.000 
#    0.000    8.000    0.000    0.000    0.000    0.000 
#    0.000    0.000    0.000    0.000    0.000    0.000 
#
# Total GULP energy -111360.164627 kJ/mol
# GULP energy per Si atom -5568.008231 kJ/mol
# Density = 2.431342 g / cm^3
# Si number density = 24.368888 Si / 1000 Ang^3
#
#
#
# Elastic Constant Matrix: (Units=GPa)
#
#
# Indices 1 2 3 4 5 6 
#
# 1 108.9946 18.4054 68.7042 0.0000 0.0000 0.0000
# 2 18.4054 134.5146 33.9096 0.0000 0.0000 0.0000
# 3 68.7042 33.9096 129.4717 0.0000 0.0000 0.0000
# 4 0.0000 0.0000 0.0000 1.7456 0.0000 0.0000
# 5 0.0000 0.0000 0.0000 0.0000 42.0852 0.0000
# 6 0.0000 0.0000 0.0000 0.0000 0.0000 13.6082
#
#
#
# Elastic Compliance Matrix: (Units=1/GPa)
#
#
# Indices 1 2 3 4 5 6 
#
# 1 0.013786 -0.000045 -0.007304 0.000000 0.000000 0.000000
# 2 -0.000045 0.007960 -0.002061 0.000000 0.000000 0.000000
# 3 -0.007304 -0.002061 0.012139 0.000000 0.000000 0.000000
# 4 0.000000 0.000000 0.000000 0.572875 0.000000 0.000000
# 5 0.000000 0.000000 0.000000 0.000000 0.023761 0.000000
# 6 0.000000 0.000000 0.000000 0.000000 0.000000 0.073485
#
#
# Mechanical properties :
#
#
# Convention : Reuss Voigt Hill
#
# Bulk Modulus (GPa) = 66.37566 68.33550 67.35558
# Shear Modulus (GPa) = 6.86957 28.28525 17.57741
#
# Velocity S-wave (km/s) = 1.68081 3.41062 2.68863
# Velocity P-wave (km/s) = 5.57349 6.60399 6.11051
#
# Compressibility (1/GPa) = 0.01506576
#
# Stress axis : x y z
#
# Youngs Moduli (GPa) = 72.53538 125.63113 82.37733
#
# Poissons Ratio (x) = 0.00567 0.60168
# Poissons Ratio (y) = 0.00327 0.16976
# Poissons Ratio (z) = 0.52979 0.25890
#
# Static dielectric constant tensor:
#      x y z
#    x 2.197390 0.000000 0.000000 
#    y 0.000000 1.964540 0.000000 
#    z 0.000000 0.000000 1.955610 
# 
# From -- ./inp_files/9624.got.cif
#   From: 2010.05.17/outbox.cif.g08.bks.cpg/sg23_5_cif.got.tgz:9624.got - 2010.06.04 12:02:01.
