data_PCOD9332576
_publ_section_title
;
Structure prediction by ZEFSAII (Michael W. Deem and Ramdas Pophale) SiO2 
 PCOD9332576
Probable space group: I 2 2 2
;
_chemical_formula_sum "Si O2"
_cell_formula_units_Z 40
_cell_length_a 6.540393
_cell_length_b 26.286387
_cell_length_c 10.973509
_cell_angle_alpha 90.000000
_cell_angle_beta 90.000000
_cell_angle_gamma 90.000000
_cell_volume 1886.601897
_symmetry_space_group_name_H-M "I 2 2 2"
_symmetry_group_IT_number 23
_symmetry_cell_setting 'orthorhombic'
loop_
_space_group_symop_operation_xyz
x,y,z
-x,-y,z
x,-y,-z
-x,y,-z
1/2+x,1/2+y,1/2+z
1/2-x,1/2-y,1/2+z
1/2+x,1/2-y,1/2-z
1/2-x,1/2+y,1/2-z
loop_
_atom_site_type_symbol
_atom_site_label
_atom_site_fract_x
_atom_site_fract_y
_atom_site_fract_z
Si Si1 0.000000 0.500000 0.000000
Si Si2 0.000000 0.854388 0.500000
Si Si3 0.358931 0.450855 0.859859
Si Si4 0.356897 0.210048 0.621370
Si Si5 0.179787 0.080163 0.097968
Si Si6 0.000000 0.500000 0.500000
Si Si7 0.609323 0.810831 0.131421
O O1 0.860908 0.467645 0.091363
O O2 0.118749 0.895223 0.581307
O O3 0.154888 0.821584 0.418130
O O4 0.500000 0.500000 0.886761
O O5 0.413080 0.439209 0.722332
O O6 0.500000 0.208612 0.500000
O O7 0.466238 0.191225 0.746771
O O8 0.280676 0.267377 0.646336
O O9 0.288589 0.134138 0.117253
O O10 0.350949 0.038151 0.069910
O O11 0.000000 0.083443 0.000000
O O12 0.500000 0.800474 0.000000
#
# Coordination Sequence:
#
# PCOD9332576 Si02
#       7
#     2   4   8   8   8   2   8
#     4  12  24  48  72 108 148 198 250 322 380 444
#     4  12  27  45  76 110 145 199 250 320 384 456
#     4  12  26  46  72 108 146 193 253 312 379 457
#     4  12  28  50  76 113 154 199 260 322 392 461
#     4  12  28  46  77 107 155 203 252 317 383 460
#     4  12  24  50  68 116 142 202 254 300 380 458
#     4  12  27  50  79 113 151 206 254 319 388 467
#
# _framework density 21.202141999999998
#
# number of rings (size 3 to 8) (size 9 to 14) (size 15 to 20)
#    0.000    0.000    4.000    5.100    9.800    1.600 
#    0.000    0.000    0.000    0.000    0.000    0.000 
#    0.000    0.000    0.000    0.000    0.000    0.000 
#
# Total GULP energy -111630.384770 kJ/mol
# GULP energy per Si atom -5581.519239 kJ/mol
# Density = 2.115388 g / cm^3
# Si number density = 21.202142 Si / 1000 Ang^3
#
#
#
# Elastic Constant Matrix: (Units=GPa)
#
#
# Indices 1 2 3 4 5 6 
#
# 1 104.1858 64.8617 60.7830 0.0000 0.0000 0.0000
# 2 64.8617 178.7730 49.7324 0.0000 0.0000 0.0000
# 3 60.7830 49.7324 180.6601 0.0001 0.0001 0.0000
# 4 0.0000 0.0000 0.0001 61.1264 0.0000 0.0000
# 5 0.0000 0.0000 0.0001 0.0000 115.0616 0.0000
# 6 0.0000 0.0000 0.0000 0.0000 0.0000 40.0733
#
#
#
# Elastic Compliance Matrix: (Units=1/GPa)
#
#
# Indices 1 2 3 4 5 6 
#
# 1 0.014346 -0.004183 -0.003675 0.000000 0.000000 0.000000
# 2 -0.004183 0.007277 -0.000596 0.000000 0.000000 0.000000
# 3 -0.003675 -0.000596 0.006936 0.000000 0.000000 0.000000
# 4 0.000000 0.000000 0.000000 0.016360 0.000000 0.000000
# 5 0.000000 0.000000 0.000000 0.000000 0.008691 0.000000
# 6 0.000000 0.000000 0.000000 0.000000 0.000000 0.024954
#
#
# Mechanical properties :
#
#
# Convention : Reuss Voigt Hill
#
# Bulk Modulus (GPa) = 85.82782 90.48589 88.15686
# Shear Modulus (GPa) = 50.32400 62.46838 56.39619
#
# Velocity S-wave (km/s) = 4.87718 5.43389 5.16305
# Velocity P-wave (km/s) = 8.50203 9.06311 8.78705
#
# Compressibility (1/GPa) = 0.01165123
#
# Stress axis : x y z
#
# Youngs Moduli (GPa) = 69.70349 137.41896 144.17695
#
# Poissons Ratio (x) = 0.57478 0.52992
# Poissons Ratio (y) = 0.29155 0.08593
# Poissons Ratio (z) = 0.25619 0.08190
#
# Static dielectric constant tensor:
#      x y z
#    x 1.694100 0.000000 0.000000 
#    y 0.000000 1.747970 0.000000 
#    z 0.000000 0.000000 1.818770 
# 
# From -- ./inp_files/13927.got.cif
#   From: 2010.05.17/outbox.cif.g08.bks.cpg/sg23_7_cif.got.tgz:13927.got - 2010.06.04 12:02:01.
