data_PCOD9332781
_publ_section_title
;
Structure prediction by ZEFSAII (Michael W. Deem and Ramdas Pophale) SiO2 
 PCOD9332781
Probable space group: I 21 21 21
;
_chemical_formula_sum "Si O2"
_cell_formula_units_Z 48
_cell_length_a 12.469983
_cell_length_b 9.412337
_cell_length_c 22.540647
_cell_angle_alpha 90.000000
_cell_angle_beta 90.000000
_cell_angle_gamma 90.000000
_cell_volume 2645.633660
_symmetry_space_group_name_H-M "I 21 21 21"
_symmetry_group_IT_number 24
_symmetry_cell_setting 'orthorhombic'
loop_
_space_group_symop_operation_xyz
x,y,z
-x,1/2-y,z
x,-y,1/2-z
1/2-x,y,-z
1/2+x,1/2+y,1/2+z
1/2-x,-y,1/2+z
1/2+x,1/2-y,-z
-x,1/2+y,1/2-z
loop_
_atom_site_type_symbol
_atom_site_label
_atom_site_fract_x
_atom_site_fract_y
_atom_site_fract_z
Si Si1 0.195875 0.500000 0.250000
Si Si2 0.618533 0.247331 0.662720
Si Si3 0.517502 0.057544 0.412996
Si Si4 0.000000 0.750000 0.803676
Si Si5 0.804655 0.270878 0.562414
Si Si6 0.000000 0.250000 0.893319
Si Si7 0.673489 0.500000 0.750000
Si Si8 0.322761 0.233779 0.205429
O O1 0.135755 0.605204 0.203316
O O2 0.265397 0.385891 0.212648
O O3 0.500000 0.250000 0.634009
O O4 0.716607 0.260602 0.615435
O O5 0.618676 0.382817 0.707652
O O6 0.526310 0.113638 0.344629
O O7 0.620783 0.130717 0.441791
O O8 0.398994 0.114722 0.427546
O O9 0.519791 0.893785 0.426984
O O10 0.101194 0.781814 0.762939
O O11 0.750000 0.297740 0.500000
O O12 0.101699 0.227668 0.850864
O O13 0.743185 0.601601 0.707448
#
# Coordination Sequence:
#
# PCOD9332781 Si02
#       8
#     4   8   8   4   8   4   4   8
#     4  10  19  33  48  80 114 151 184 226 271 338
#     4  11  22  35  57  81 115 148 190 231 282 331
#     4  10  20  35  56  80 108 130 185 225 284 322
#     4   9  16  28  46  80 108 148 178 219 250 332
#     4  10  22  40  61  81 105 147 196 242 269 327
#     4  11  18  28  50  84 110 144 162 225 284 338
#     4  10  19  33  48  80 114 151 184 226 271 338
#     4  10  17  26  49  74 118 146 180 205 273 323
#
# _framework density 18.143103
#
# number of rings (size 3 to 8) (size 9 to 14) (size 15 to 20)
#    0.000    2.000    0.000    8.500    2.333    2.667 
#    0.000    0.833    0.000    0.000    0.000    0.000 
#    0.000    0.000    0.000    0.000    0.000    0.000 
#
# Total GULP energy -133686.004952 kJ/mol
# GULP energy per Si atom -5570.250206 kJ/mol
# Density = 1.810181 g / cm^3
# Si number density = 18.143103 Si / 1000 Ang^3
#
#
#
# Elastic Constant Matrix: (Units=GPa)
#
#
# Indices 1 2 3 4 5 6 
#
# 1 69.5123 -20.3732 6.9172 0.0000 0.0000 0.0000
# 2 -20.3732 69.6593 -21.6214 0.0000 0.0000 0.0000
# 3 6.9172 -21.6214 38.4636 0.0000 0.0000 0.0000
# 4 0.0000 0.0000 0.0000 -3.9281 0.0000 0.0000
# 5 0.0000 0.0000 0.0000 0.0000 3.8281 0.0000
# 6 0.0000 0.0000 0.0000 0.0000 0.0000 -0.0123
#
#
#
# Elastic Compliance Matrix: (Units=1/GPa)
#
#
# Indices 1 2 3 4 5 6 
#
# 1 0.015737 0.004511 -0.000294 0.000000 0.000000 0.000000
# 2 0.004511 0.018683 0.009691 0.000000 0.000000 0.000000
# 3 -0.000294 0.009691 0.031499 0.000000 0.000000 0.000000
# 4 0.000000 0.000000 0.000000 -0.254574 0.000000 0.000000
# 5 0.000000 0.000000 0.000000 0.000000 0.261225 0.000000
# 6 0.000000 0.000000 0.000000 0.000000 0.000000-81.125655
#
#
# Mechanical properties :
#
#
# Convention : Reuss Voigt Hill
#
# Bulk Modulus (GPa) = 10.66829 11.94226 11.30528
# Shear Modulus (GPa) = -0.06169 14.15837 7.04834
#
# Velocity S-wave (km/s) = -0.18460 2.79654 1.97314
# Velocity P-wave (km/s) = 2.41814 4.12603 3.38168
#
# Compressibility (1/GPa) = 0.09373569
#
# Stress axis : x y z
#
# Youngs Moduli (GPa) = 63.54268 53.52468 31.74697
#
# Poissons Ratio (x) = -0.24147 0.00934
# Poissons Ratio (y) = -0.28667 -0.30766
# Poissons Ratio (z) = 0.01869 -0.51870
#
# Static dielectric constant tensor:
#      x y z
#    x 1.671180 0.000000 0.000000 
#    y 0.000000 1.643110 0.000000 
#    z 0.000000 0.000000 1.605170 
# 
# From -- ./inp_files/35587.got.cif
#   From: 2010.05.17/outbox.cif.g08.bks.cpg/sg24_18_cif.got.tgz:35587.got - 2010.06.04 00:33:39.
