data_PCOD9332799
_publ_section_title
;
Structure prediction by ZEFSAII (Michael W. Deem and Ramdas Pophale) SiO2 
 PCOD9332799
Probable space group: I 21 21 21
;
_chemical_formula_sum "Si O2"
_cell_formula_units_Z 40
_cell_length_a 5.333476
_cell_length_b 10.578775
_cell_length_c 31.198731
_cell_angle_alpha 90.000000
_cell_angle_beta 90.000000
_cell_angle_gamma 90.000000
_cell_volume 1760.283649
_symmetry_space_group_name_H-M "I 21 21 21"
_symmetry_group_IT_number 24
_symmetry_cell_setting 'orthorhombic'
loop_
_space_group_symop_operation_xyz
x,y,z
-x,1/2-y,z
x,-y,1/2-z
1/2-x,y,-z
1/2+x,1/2+y,1/2+z
1/2-x,-y,1/2+z
1/2+x,1/2-y,-z
-x,1/2+y,1/2-z
loop_
_atom_site_type_symbol
_atom_site_label
_atom_site_fract_x
_atom_site_fract_y
_atom_site_fract_z
Si Si1 0.500000 0.750000 0.738153
Si Si2 0.629384 0.361930 0.098646
Si Si3 0.884255 0.905581 0.789989
Si Si4 0.503374 0.988875 0.017891
Si Si5 0.000000 0.250000 0.034946
Si Si6 0.892261 0.484614 0.174971
O O1 0.741239 0.787862 0.766930
O O2 0.418948 0.869400 0.709155
O O3 0.500000 0.250000 0.126970
O O4 0.507521 0.470325 0.068003
O O5 0.830325 0.428606 0.128766
O O6 0.765685 0.268062 0.065505
O O7 0.902372 0.000000 0.750000
O O8 0.662395 0.949371 0.822334
O O9 0.151665 0.927431 0.813376
O O10 0.750000 0.921560 0.000000
O O11 0.507782 0.122624 0.991795
O O12 0.250000 0.926723 0.000000
#
# Coordination Sequence:
#
# PCOD9332799 Si02
#       6
#     4   8   8   8   4   8
#     4  10  23  46  66  76 118 162 184 252 314 338
#     4  11  21  29  48  70 110 145 181 225 270 306
#     4  10  23  41  57  82 106 139 194 238 285 359
#     4  10  17  29  42  63  96 140 192 199 238 335
#     4  10  17  30  42  68  98 150 196 192 254 348
#     4  11  25  36  56  88 108 141 199 235 281 346
#
# _framework density 22.723610000000001
#
# number of rings (size 3 to 8) (size 9 to 14) (size 15 to 20)
#    0.000    1.600    3.000    3.000    8.400    4.000 
#    0.000    0.000    0.000    0.000    0.000    0.000 
#    0.000    0.000    0.000   68.400    0.000    8.000 
#
# Total GULP energy -111372.936904 kJ/mol
# GULP energy per Si atom -5568.646845 kJ/mol
# Density = 2.267189 g / cm^3
# Si number density = 22.723610 Si / 1000 Ang^3
#
#
#
# Elastic Constant Matrix: (Units=GPa)
#
#
# Indices 1 2 3 4 5 6 
#
# 1 155.6116 10.4369 10.9678 0.0000 0.0000 0.0000
# 2 10.4369 37.5227 13.9524 0.0000 0.0000 0.0000
# 3 10.9678 13.9524 69.6146 0.0000 0.0000 0.0000
# 4 0.0000 0.0000 0.0000 -0.8828 0.0000 0.0000
# 5 0.0000 0.0000 0.0000 0.0000 31.0325 0.0000
# 6 0.0000 0.0000 0.0000 0.0000 0.0000 9.6617
#
#
#
# Elastic Compliance Matrix: (Units=1/GPa)
#
#
# Indices 1 2 3 4 5 6 
#
# 1 0.006582 -0.001562 -0.000724 0.000000 0.000000 0.000000
# 2 -0.001562 0.029167 -0.005600 0.000000 0.000000 0.000000
# 3 -0.000724 -0.005600 0.015601 0.000000 0.000000 0.000000
# 4 0.000000 0.000000 0.000000 -1.132807 0.000000 0.000000
# 5 0.000000 0.000000 0.000000 0.000000 0.032224 0.000000
# 6 0.000000 0.000000 0.000000 0.000000 0.000000 0.103502
#
#
# Mechanical properties :
#
#
# Convention : Reuss Voigt Hill
#
# Bulk Modulus (GPa) = 28.10596 37.05147 32.57872
# Shear Modulus (GPa) = -5.44603 23.12172 8.83785
#
# Velocity S-wave (km/s) = -1.54979 3.19332 1.97426
# Velocity P-wave (km/s) = 3.03200 5.47148 4.42324
#
# Compressibility (1/GPa) = 0.03557964
#
# Stress axis : x y z
#
# Youngs Moduli (GPa) = 151.92895 34.28517 64.09765
#
# Poissons Ratio (x) = 0.05354 0.04641
# Poissons Ratio (y) = 0.23725 0.35893
# Poissons Ratio (z) = 0.11000 0.19199
#
# Static dielectric constant tensor:
#      x y z
#    x 2.404870 0.000000 0.000000 
#    y 0.000000 2.000600 0.000000 
#    z 0.000000 0.000000 1.837730 
# 
# From -- ./inp_files/37841.got.cif
#   From: 2010.05.17/outbox.cif.g08.bks.cpg/sg24_19_cif.got.tgz:37841.got - 2010.06.04 00:33:39.
