data_PCOD9332556
_publ_section_title
;
Structure prediction by ZEFSAII (Michael W. Deem and Ramdas Pophale) SiO2 
 PCOD9332556
Probable space group: I 2 2 2
;
_chemical_formula_sum "Si O2"
_cell_formula_units_Z 40
_cell_length_a 26.271958
_cell_length_b 5.427718
_cell_length_c 11.656415
_cell_angle_alpha 90.000000
_cell_angle_beta 90.000000
_cell_angle_gamma 90.000000
_cell_volume 1662.167238
_symmetry_space_group_name_H-M "I 2 2 2"
_symmetry_group_IT_number 23
_symmetry_cell_setting 'orthorhombic'
loop_
_space_group_symop_operation_xyz
x,y,z
-x,-y,z
x,-y,-z
-x,y,-z
1/2+x,1/2+y,1/2+z
1/2-x,1/2-y,1/2+z
1/2+x,1/2-y,1/2-z
1/2-x,1/2+y,1/2-z
loop_
_atom_site_type_symbol
_atom_site_label
_atom_site_fract_x
_atom_site_fract_y
_atom_site_fract_z
Si Si1 0.799155 0.000000 0.500000
Si Si2 0.127791 0.000000 0.000000
Si Si3 0.687759 0.894033 0.154238
Si Si4 0.082731 0.454257 0.363972
Si Si5 0.716605 0.289157 0.610173
Si Si6 0.442748 0.468893 0.273371
O O1 0.830558 0.783600 0.553159
O O2 0.758916 0.919396 0.404053
O O3 0.171211 0.211316 0.982036
O O4 0.094818 0.993726 0.883784
O O5 0.689935 0.746458 0.270178
O O6 0.643064 0.087537 0.163701
O O7 0.744285 0.980508 0.119919
O O8 0.072320 0.500000 0.500000
O O9 0.066877 0.702633 0.290424
O O10 0.060394 0.198066 0.316147
O O11 0.500000 0.500000 0.320116
#
# Coordination Sequence:
#
# PCOD9332556 Si02
#       6
#     4   4   8   8   8   8
#     4  12  24  40  68  98 158 200 254 298 376 454
#     4  12  27  50  76 118 156 212 261 330 398 478
#     4  12  26  42  69 109 155 202 253 314 376 485
#     4  12  29  50  83 118 158 202 261 328 408 475
#     4  12  25  41  69 107 152 205 252 308 381 468
#     4  12  30  55  84 114 152 206 272 341 400 462
#
# _framework density 24.064966999999999
#
# number of rings (size 3 to 8) (size 9 to 14) (size 15 to 20)
#    0.000    0.000    6.000    2.700   11.200    3.200 
#    0.000    2.000    0.000    0.000    0.000    0.000 
#    0.000    0.000    0.000    0.000    0.000    0.000 
#
# Total GULP energy -111518.785105 kJ/mol
# GULP energy per Si atom -5575.939255 kJ/mol
# Density = 2.401019 g / cm^3
# Si number density = 24.064967 Si / 1000 Ang^3
#
#
#
# Elastic Constant Matrix: (Units=GPa)
#
#
# Indices 1 2 3 4 5 6 
#
# 1 114.5871 1.6363 14.2737 0.0000 0.0000 0.0000
# 2 1.6363 108.4041 26.0681 0.0000 0.0000 0.0000
# 3 14.2737 26.0681 95.2832 0.0000 0.0000 0.0000
# 4 0.0000 0.0000 0.0000 36.4356 0.0000 0.0000
# 5 0.0000 0.0000 0.0000 0.0000 36.9123 0.0000
# 6 0.0000 0.0000 0.0000 0.0000 0.0000 28.7513
#
#
#
# Elastic Compliance Matrix: (Units=1/GPa)
#
#
# Indices 1 2 3 4 5 6 
#
# 1 0.008897 0.000199 -0.001387 0.000000 0.000000 0.000000
# 2 0.000199 0.009879 -0.002733 0.000000 0.000000 0.000000
# 3 -0.001387 -0.002733 0.011450 0.000000 0.000000 0.000000
# 4 0.000000 0.000000 0.000000 0.027446 0.000000 0.000000
# 5 0.000000 0.000000 0.000000 0.000000 0.027091 0.000000
# 6 0.000000 0.000000 0.000000 0.000000 0.000000 0.034781
#
#
# Mechanical properties :
#
#
# Convention : Reuss Voigt Hill
#
# Bulk Modulus (GPa) = 44.67259 44.69231 44.68245
# Shear Modulus (GPa) = 37.07906 38.83959 37.95932
#
# Velocity S-wave (km/s) = 3.92955 4.02175 3.97592
# Velocity P-wave (km/s) = 6.26036 6.33860 6.29960
#
# Compressibility (1/GPa) = 0.02238509
#
# Stress axis : x y z
#
# Youngs Moduli (GPa) = 112.39800 101.22643 87.33288
#
# Poissons Ratio (x) = -0.02018 0.12116
# Poissons Ratio (y) = -0.02240 0.23864
# Poissons Ratio (z) = 0.15593 0.27661
#
# Static dielectric constant tensor:
#      x y z
#    x 1.897010 0.000000 0.000000 
#    y 0.000000 2.093190 0.000000 
#    z 0.000000 0.000000 1.605510 
# 
# From -- ./inp_files/18518.got.cif
#   From: 2010.05.17/outbox.cif.g08.bks.cpg/sg23_10_cif.got.tgz:18518.got - 2010.06.04 12:02:01.
