data_PCOD9332900
_publ_section_title
;
Structure prediction by ZEFSAII (Michael W. Deem and Ramdas Pophale) SiO2 
 PCOD9332900
Probable space group: I 21 21 21
;
_chemical_formula_sum "Si O2"
_cell_formula_units_Z 36
_cell_length_a 8.595592
_cell_length_b 8.246101
_cell_length_c 19.569376
_cell_angle_alpha 90.000000
_cell_angle_beta 90.000000
_cell_angle_gamma 90.000000
_cell_volume 1387.079715
_symmetry_space_group_name_H-M "I 21 21 21"
_symmetry_group_IT_number 24
_symmetry_cell_setting 'orthorhombic'
loop_
_space_group_symop_operation_xyz
x,y,z
-x,1/2-y,z
x,-y,1/2-z
1/2-x,y,-z
1/2+x,1/2+y,1/2+z
1/2-x,-y,1/2+z
1/2+x,1/2-y,-z
-x,1/2+y,1/2-z
loop_
_atom_site_type_symbol
_atom_site_label
_atom_site_fract_x
_atom_site_fract_y
_atom_site_fract_z
Si Si1 0.440089 0.922897 0.498146
Si Si2 0.750000 0.868280 0.000000
Si Si3 0.797427 0.117364 0.655226
Si Si4 0.565275 0.579868 0.337637
Si Si5 0.321897 0.730680 0.702794
O O1 0.500000 0.750000 0.527550
O O2 0.250000 0.951265 0.500000
O O3 0.461193 0.913384 0.417545
O O4 0.580446 0.047256 0.516719
O O5 0.714899 0.806877 0.078889
O O6 0.710612 0.203829 0.716922
O O7 0.734687 0.928620 0.659773
O O8 0.973811 0.080072 0.680597
O O9 0.500000 0.750000 0.309673
O O10 0.743408 0.602177 0.321333
O O11 0.500000 0.750000 0.691394
#
# Coordination Sequence:
#
# PCOD9332900 Si02
#       5
#     8   4   8   8   8
#     4  10  18  26  48  82 114 147 177 232 301 349
#     4  10  20  34  56  80 120 148 182 250 284 340
#     4   9  20  38  56  85 117 153 189 238 294 341
#     4   8  17  33  51  78 113 151 186 224 289 342
#     4  10  20  35  59  87 116 150 193 240 285 341
#
# _framework density 25.953809
#
# number of rings (size 3 to 8) (size 9 to 14) (size 15 to 20)
#    0.000    2.667    1.111    1.333    3.111    0.000 
#    0.000   13.333    0.000    6.667    0.000    0.000 
#    0.000    0.000    0.000    0.000    0.000    0.000 
#
# Total GULP energy -100208.222551 kJ/mol
# GULP energy per Si atom -5567.123475 kJ/mol
# Density = 2.589474 g / cm^3
# Si number density = 25.953809 Si / 1000 Ang^3
#
#
#
# Elastic Constant Matrix: (Units=GPa)
#
#
# Indices 1 2 3 4 5 6 
#
# 1 181.4186 35.0060 -7.9832 0.0000 0.0000 0.0000
# 2 35.0060 76.6386 22.6138 0.0000 0.0000 0.0000
# 3 -7.9832 22.6138 147.3740 0.0000 0.0000 0.0000
# 4 0.0000 0.0000 0.0000 23.6105 0.0000 0.0000
# 5 0.0000 0.0000 0.0000 0.0000 23.0648 0.0000
# 6 0.0000 0.0000 0.0000 0.0000 0.0000 -3.5652
#
#
#
# Elastic Compliance Matrix: (Units=1/GPa)
#
#
# Indices 1 2 3 4 5 6 
#
# 1 0.006133 -0.003037 0.000798 0.000000 0.000000 0.000000
# 2 -0.003037 0.015171 -0.002492 0.000000 0.000000 0.000000
# 3 0.000798 -0.002492 0.007211 0.000000 0.000000 0.000000
# 4 0.000000 0.000000 0.000000 0.042354 0.000000 0.000000
# 5 0.000000 0.000000 0.000000 0.000000 0.043356 0.000000
# 6 0.000000 0.000000 0.000000 0.000000 0.000000 -0.280485
#
#
# Mechanical properties :
#
#
# Convention : Reuss Voigt Hill
#
# Bulk Modulus (GPa) = 52.48530 56.07827 54.28179
# Shear Modulus (GPa) = -33.23439 32.34166 -0.44636
#
# Velocity S-wave (km/s) = -3.58232 3.53388 -0.41516
# Velocity P-wave (km/s) = 1.77646 6.18910 4.55306
#
# Compressibility (1/GPa) = 0.01905295
#
# Stress axis : x y z
#
# Youngs Moduli (GPa) = 163.04559 65.91567 138.67416
#
# Poissons Ratio (x) = 0.20019 -0.11070
# Poissons Ratio (y) = 0.49517 0.34563
# Poissons Ratio (z) = -0.13015 0.16429
#
# Static dielectric constant tensor:
#      x y z
#    x 2.263000 0.000000 0.000000 
#    y 0.000000 2.302500 0.000000 
#    z 0.000000 0.000000 1.988130 
# 
# From -- ./inp_files/32491.got.cif
#   From: 2010.05.17/outbox.cif.g08.bks.cpg/sg24_17_cif.got.tgz:32491.got - 2010.06.04 00:33:39.
