data_PCOD9332648
_publ_section_title
;
Structure prediction by ZEFSAII (Michael W. Deem and Ramdas Pophale) SiO2 
 PCOD9332648
Probable space group: I 2 2 2
;
_chemical_formula_sum "Si O2"
_cell_formula_units_Z 29
_cell_length_a 27.000000
_cell_length_b 12.000000
_cell_length_c 9.000000
_cell_angle_alpha 90.000000
_cell_angle_beta 90.000000
_cell_angle_gamma 90.000000
_cell_volume 2916.000000
_symmetry_space_group_name_H-M "I 2 2 2"
_symmetry_group_IT_number 23
_symmetry_cell_setting 'orthorhombic'
loop_
_space_group_symop_operation_xyz
x,y,z
-x,-y,z
x,-y,-z
-x,y,-z
1/2+x,1/2+y,1/2+z
1/2-x,1/2-y,1/2+z
1/2+x,1/2-y,1/2-z
1/2-x,1/2+y,1/2-z
loop_
_atom_site_type_symbol
_atom_site_label
_atom_site_fract_x
_atom_site_fract_y
_atom_site_fract_z
Si Si1 0.138878 0.598558 0.877114
Si Si2 0.217863 0.795854 0.900400
Si Si3 0.319730 0.427712 0.856729
Si Si4 0.941010 0.741260 0.959019
Si Si5 0.667296 0.240123 0.936970
Si Si6 0.910486 0.416480 0.318095
Si Si7 0.000000 0.500000 0.500000
Si Si8 0.356061 0.383218 0.350883
O O1 0.187346 0.679760 0.869499
O O2 0.117795 0.525799 0.741822
O O3 0.147932 0.500000 0.000000
O O4 0.093108 0.681133 0.916866
O O5 0.220202 0.868735 0.749288
O O6 0.274042 0.780719 0.955619
O O7 0.184268 0.863370 0.019362
O O8 0.351323 0.503184 0.743221
O O9 0.301646 0.500000 0.000000
O O10 0.348613 0.327366 0.936373
O O11 0.928183 0.659965 0.820464
O O12 0.910539 0.853952 0.914777
O O13 0.000000 0.749193 0.000000
O O14 0.629438 0.139804 0.926590
O O15 0.660248 0.294633 0.774586
O O16 0.961997 0.433335 0.399696
#
# Coordination Sequence:
#
# PCOD9332648 Si02
#       8
#     8   8   8   8   8   8   2   8
#     4   9  20  36  61  93 124 154 201 263 318 375
#     4  11  21  37  63  91 125 167 213 256 311 379
#     4  10  22  39  59  85 126 170 203 257 320 364
#     4   9  17  36  65  93 117 153 202 268 313 359
#     4  10  22  39  58  90 126 166 209 255 317 387
#     4  10  22  37  55  89 128 160 210 250 319 390
#     4  12  24  36  54  80 126 172 204 254 314 380
#     4   9  20  38  60  91 120 162 212 256 307 377
#
# _framework density 9.9451300000000007
#
# number of rings (size 3 to 8) (size 9 to 14) (size 15 to 20)
#    0.000    2.207    0.000    2.897    1.931    5.793 
#    2.483    0.000    0.000    6.621    7.172    0.000 
#    0.000    0.000    0.000    0.000    0.000    0.000 
#
# Total GULP energy -161533.548037 kJ/mol
# GULP energy per Si atom -5570.122346 kJ/mol
# Density = 0.992249 g / cm^3
# Si number density = 9.945130 Si / 1000 Ang^3
#
#
#
# Elastic Constant Matrix: (Units=GPa)
#
#
# Indices 1 2 3 4 5 6 
#
# 1 173.1434 64.5685 37.4919 0.0000 0.0000 0.0000
# 2 64.5685 106.4415 60.2109 0.0000 0.0000 0.0000
# 3 37.4919 60.2109 102.8999 0.0000 0.0000 0.0000
# 4 0.0000 0.0000 0.0000 19.1523 0.0000 0.0000
# 5 0.0000 0.0000 0.0000 0.0000 22.5264 0.0000
# 6 0.0000 0.0000 0.0000 0.0000 0.0000 22.1657
#
#
#
# Elastic Compliance Matrix: (Units=1/GPa)
#
#
# Indices 1 2 3 4 5 6 
#
# 1 0.007465 -0.004469 -0.000105 0.000000 0.000000 0.000000
# 2 -0.004469 0.016718 -0.008154 0.000000 0.000000 0.000000
# 3 -0.000105 -0.008154 0.014528 0.000000 0.000000 0.000000
# 4 0.000000 0.000000 0.000000 0.052213 0.000000 0.000000
# 5 0.000000 0.000000 0.000000 0.000000 0.044392 0.000000
# 6 0.000000 0.000000 0.000000 0.000000 0.000000 0.045115
#
#
# Mechanical properties :
#
#
# Convention : Reuss Voigt Hill
#
# Bulk Modulus (GPa) = 75.44459 78.55860 77.00159
# Shear Modulus (GPa) = 23.77493 27.44979 25.61236
#
# Velocity S-wave (km/s) = 3.46107 3.71895 3.59232
# Velocity P-wave (km/s) = 7.34743 7.61725 7.48356
#
# Compressibility (1/GPa) = 0.01325476
#
# Stress axis : x y z
#
# Youngs Moduli (GPa) = 133.96181 59.81443 68.83343
#
# Poissons Ratio (x) = 0.26730 0.00722
# Poissons Ratio (y) = 0.59866 0.56129
# Poissons Ratio (z) = 0.01405 0.48775
#
# Static dielectric constant tensor:
#      x y z
#    x 1.635040 0.000000 0.000000 
#    y 0.000000 1.800020 0.000000 
#    z 0.000000 0.000000 1.742680 
# 
# From -- ./inp_files/13066.got.cif
#   From: 2010.05.17/outbox.ucp.g08.bks.cvg/sg23_7_cif.got.tgz:13066.got - 2010.06.11 15:19:07.
