data_PCOD9332841
_publ_section_title
;
Structure prediction by ZEFSAII (Michael W. Deem and Ramdas Pophale) SiO2 
 PCOD9332841
Probable space group: I 21 21 21
;
_chemical_formula_sum "Si O2"
_cell_formula_units_Z 52
_cell_length_a 12.486399
_cell_length_b 18.985534
_cell_length_c 12.144002
_cell_angle_alpha 90.000000
_cell_angle_beta 90.000000
_cell_angle_gamma 90.000000
_cell_volume 2878.868684
_symmetry_space_group_name_H-M "I 21 21 21"
_symmetry_group_IT_number 24
_symmetry_cell_setting 'orthorhombic'
loop_
_space_group_symop_operation_xyz
x,y,z
-x,1/2-y,z
x,-y,1/2-z
1/2-x,y,-z
1/2+x,1/2+y,1/2+z
1/2-x,-y,1/2+z
1/2+x,1/2-y,-z
-x,1/2+y,1/2-z
loop_
_atom_site_type_symbol
_atom_site_label
_atom_site_fract_x
_atom_site_fract_y
_atom_site_fract_z
Si Si1 0.627897 0.430496 0.678221
Si Si2 0.030613 0.914758 0.542405
Si Si3 0.985130 0.332178 0.174035
Si Si4 0.062234 0.562377 0.008729
Si Si5 0.921695 0.084890 0.738385
Si Si6 0.680194 0.082182 0.719051
Si Si7 0.250000 0.000552 0.000000
O O1 0.600007 0.500000 0.750000
O O2 0.616886 0.365429 0.760879
O O3 0.539804 0.419587 0.583796
O O4 0.731179 0.452389 0.608055
O O5 0.146480 0.951679 0.526615
O O6 0.023308 0.853683 0.453015
O O7 0.000834 0.890205 0.665386
O O8 0.946832 0.977807 0.510675
O O9 0.087871 0.373206 0.222921
O O10 0.000000 0.250000 0.190870
O O11 0.160547 0.583175 0.087325
O O12 0.053690 0.598228 0.889813
O O13 0.798091 0.106331 0.754350
O O14 0.925012 0.000000 0.750000
O O15 0.668181 0.000000 0.750000
#
# Coordination Sequence:
#
# PCOD9332841 Si02
#       7
#     8   8   8   8   8   8   4
#     4  10  18  35  60  87 112 149 199 255 304 353
#     4  10  19  36  50  87 116 152 191 250 305 349
#     4  11  21  37  60  83 118 162 201 241 307 385
#     4   9  15  30  52  82 114 138 181 240 300 345
#     4   9  19  28  51  88 117 138 186 232 303 356
#     4  10  17  32  57  82 113 152 189 251 293 354
#     4  10  20  32  64  82 114 152 198 276 298 342
#
# _framework density 18.062650999999999
#
# number of rings (size 3 to 8) (size 9 to 14) (size 15 to 20)
#    0.000    2.154    4.615    1.385    0.000    3.692 
#    0.000    1.538    6.769    3.692    0.000    0.000 
#    0.000    0.000    0.000    0.000    0.000    0.000 
#
# Total GULP energy -144769.852630 kJ/mol
# GULP energy per Si atom -5568.071255 kJ/mol
# Density = 1.802154 g / cm^3
# Si number density = 18.062651 Si / 1000 Ang^3
#
#
#
# Elastic Constant Matrix: (Units=GPa)
#
#
# Indices 1 2 3 4 5 6 
#
# 1 60.8283 23.2523 43.3662 0.0000 0.0000 0.0000
# 2 23.2523 75.5337 31.1268 0.0001 0.0000 0.0000
# 3 43.3662 31.1268 152.0688 0.0002 0.0000 -0.0001
# 4 0.0000 0.0001 0.0002 14.7842 0.0000 -0.0001
# 5 0.0000 0.0000 0.0000 0.0000 27.1719 0.0000
# 6 0.0000 0.0000 -0.0001 -0.0001 0.0000 4.3229
#
#
#
# Elastic Compliance Matrix: (Units=1/GPa)
#
#
# Indices 1 2 3 4 5 6 
#
# 1 0.021991 -0.004571 -0.005336 0.000000 0.000000 0.000000
# 2 -0.004571 0.015409 -0.001851 0.000000 0.000000 0.000000
# 3 -0.005336 -0.001851 0.008476 0.000000 0.000000 0.000000
# 4 0.000000 0.000000 0.000000 0.067640 0.000000 0.000001
# 5 0.000000 0.000000 0.000000 0.000000 0.036803 0.000000
# 6 0.000000 0.000000 0.000000 0.000001 0.000000 0.231328
#
#
# Mechanical properties :
#
#
# Convention : Reuss Voigt Hill
#
# Bulk Modulus (GPa) = 44.71883 53.76905 49.24394
# Shear Modulus (GPa) = 12.11784 21.96816 17.04300
#
# Velocity S-wave (km/s) = 2.59294 3.49122 3.07506
# Velocity P-wave (km/s) = 5.81170 6.78853 6.31902
#
# Compressibility (1/GPa) = 0.02236195
#
# Stress axis : x y z
#
# Youngs Moduli (GPa) = 45.47333 64.89790 117.97546
#
# Poissons Ratio (x) = 0.29664 0.62947
# Poissons Ratio (y) = 0.20785 0.21831
# Poissons Ratio (z) = 0.24263 0.12009
#
# Static dielectric constant tensor:
#      x y z
#    x 1.676280 0.000000 0.000000 
#    y 0.000000 1.576990 0.000000 
#    z 0.000000 0.000000 1.677430 
# 
# From -- ./inp_files/21119.got.cif
#   From: 2010.05.17/outbox.cif.g08.bks.cpg/sg24_11_cif.got.tgz:21119.got - 2010.06.04 00:33:39.
