data_PCOD9332594
_publ_section_title
;
Structure prediction by ZEFSAII (Michael W. Deem and Ramdas Pophale) SiO2 
 PCOD9332594
Probable space group: I 2 2 2
;
_chemical_formula_sum "Si O2"
_cell_formula_units_Z 36
_cell_length_a 11.484519
_cell_length_b 24.213663
_cell_length_c 5.721671
_cell_angle_alpha 90.000000
_cell_angle_beta 90.000000
_cell_angle_gamma 90.000000
_cell_volume 1591.095276
_symmetry_space_group_name_H-M "I 2 2 2"
_symmetry_group_IT_number 23
_symmetry_cell_setting 'orthorhombic'
loop_
_space_group_symop_operation_xyz
x,y,z
-x,-y,z
x,-y,-z
-x,y,-z
1/2+x,1/2+y,1/2+z
1/2-x,1/2-y,1/2+z
1/2+x,1/2-y,1/2-z
1/2-x,1/2+y,1/2-z
loop_
_atom_site_type_symbol
_atom_site_label
_atom_site_fract_x
_atom_site_fract_y
_atom_site_fract_z
Si Si1 0.878529 0.779242 0.371258
Si Si2 0.707590 0.968948 0.254355
Si Si3 0.500000 0.914429 0.500000
Si Si4 0.628794 0.379697 0.449329
Si Si5 0.304695 0.164388 0.699317
O O1 0.884408 0.816895 0.141602
O O2 0.765913 0.802926 0.502088
O O3 0.860681 0.714091 0.347201
O O4 0.000000 0.790091 0.500000
O O5 0.576606 0.947914 0.311288
O O6 0.798470 0.918420 0.225202
O O7 0.737962 0.000000 0.500000
O O8 0.711424 0.000000 0.000000
O O9 0.593782 0.875393 0.620513
O O10 0.500000 0.401906 0.500000
O O11 0.709700 0.373147 0.673260
#
# Coordination Sequence:
#
# PCOD9332594 Si02
#       5
#     8   8   4   8   8
#     4  12  26  44  72 111 160 208 258 313 386 480
#     4  12  30  56  83 116 155 209 276 343 405 466
#     4  12  29  50  80 116 158 204 261 332 406 480
#     4  12  27  50  76 109 157 206 261 331 391 472
#     4  12  27  45  71 117 157 206 256 310 397 476
#
# _framework density 22.625921000000002
#
# number of rings (size 3 to 8) (size 9 to 14) (size 15 to 20)
#    0.000    0.000    6.667    1.667    7.778    5.778 
#    0.000    3.333    0.000    0.000    0.000    0.000 
#    0.000    0.000    0.000    0.000    0.000    0.000 
#
# Total GULP energy -100647.674146 kJ/mol
# GULP energy per Si atom -5591.537453 kJ/mol
# Density = 2.257442 g / cm^3
# Si number density = 22.625921 Si / 1000 Ang^3
#
#
#
# Elastic Constant Matrix: (Units=GPa)
#
#
# Indices 1 2 3 4 5 6 
#
# 1 160.0124 45.6554 39.2689 -13.1475 0.0015 0.0019
# 2 45.6554 103.6244 41.5066 -7.8094 -0.0024 -0.0028
# 3 39.2689 41.5066 89.7437 -47.5144 -0.0160 -0.0162
# 4 -13.1475 -7.8094 -47.5144********** 19.4144 9.8738
# 5 0.0015 -0.0024 -0.0160 19.4144 53.5836 0.0050
# 6 0.0019 -0.0028 -0.0162 9.8738 0.0050 46.1315
#
#
#
# Elastic Compliance Matrix: (Units=1/GPa)
#
#
# Indices 1 2 3 4 5 6 
#
# 1 0.007470 -0.002432 -0.002143 0.000000 -0.000001 -0.000001
# 2 -0.002432 0.012636 -0.004779 0.000001 -0.000001 -0.000001
# 3 -0.002143 -0.004779 0.014288 -0.000005 0.000006 0.000006
# 4 0.000000 0.000001 -0.000005 -0.000008 0.000003 0.000002
# 5 -0.000001 -0.000001 0.000006 0.000003 0.018661 -0.000003
# 6 -0.000001 -0.000001 0.000006 0.000002 -0.000003 0.021677
#
#
# Mechanical properties :
#
#
# Convention : Reuss Voigt Hill
#
# Bulk Modulus (GPa) = 63.75829 67.36025 65.55927
# Shear Modulus (GPa) = 50.67798 -23813.54390 -11881.43296
#
# Velocity S-wave (km/s) = 4.73781 -102.70221 -72.54411
# Velocity P-wave (km/s) = 7.62690 118.46443 83.59322
#
# Compressibility (1/GPa) = 0.01568423
#
# Stress axis : x y z
#
# Youngs Moduli (GPa) = 133.87660 79.13669 69.98694
#
# Poissons Ratio (x) = 0.19250 0.15000
# Poissons Ratio (y) = 0.32565 0.33449
# Poissons Ratio (z) = 0.28694 0.37821
#
# Static dielectric constant tensor:
#      x y z
#    x 149.672230 0.001390 0.044830 
#    y 0.001390 1.867790 0.000000 
#    z 0.044830 0.000000 1.918060 
# 
# From -- ./inp_files/1561.got.cif
#   From: 2010.05.17/outbox.cif.g08.bks.cpg/sg23_1_cif.got.tgz:1561.got - 2010.06.04 12:02:01.
