data_PCOD9332459
_publ_section_title
;
Structure prediction by ZEFSAII (Michael W. Deem and Ramdas Pophale) SiO2 
 PCOD9332459
Probable space group: I 2 2 2
;
_chemical_formula_sum "Si O2"
_cell_formula_units_Z 28
_cell_length_a 24.671714
_cell_length_b 7.116602
_cell_length_c 6.922901
_cell_angle_alpha 90.000000
_cell_angle_beta 90.000000
_cell_angle_gamma 90.000000
_cell_volume 1215.514437
_symmetry_space_group_name_H-M "I 2 2 2"
_symmetry_group_IT_number 23
_symmetry_cell_setting 'orthorhombic'
loop_
_space_group_symop_operation_xyz
x,y,z
-x,-y,z
x,-y,-z
-x,y,-z
1/2+x,1/2+y,1/2+z
1/2-x,1/2-y,1/2+z
1/2+x,1/2-y,1/2-z
1/2-x,1/2+y,1/2-z
loop_
_atom_site_type_symbol
_atom_site_label
_atom_site_fract_x
_atom_site_fract_y
_atom_site_fract_z
Si Si1 0.555710 0.822768 0.383614
Si Si2 0.866413 0.000000 0.000000
Si Si3 0.243469 0.500000 0.000000
Si Si4 0.680261 0.219007 0.194841
Si Si5 0.583753 0.000000 0.000000
O O1 0.500000 0.783273 0.500000
O O2 0.594976 0.647341 0.392019
O O3 0.580486 0.000000 0.500000
O O4 0.550512 0.892405 0.165005
O O5 0.831968 0.118426 0.849670
O O6 0.280168 0.682701 0.041700
O O7 0.207640 0.451149 0.187438
O O8 0.624620 0.148288 0.100436
#
# Coordination Sequence:
#
# PCOD9332459 Si02
#       5
#     8   4   4   8   4
#     4  11  25  47  74 105 144 181 239 302 354 425
#     4  12  23  47  72 106 144 194 236 299 355 426
#     4  12  24  42  64 110 144 190 234 302 344 418
#     4  12  24  42  71 102 149 187 245 287 359 425
#     4  12  24  48  76 106 140 200 232 297 367 424
#
# _framework density 23.035516000000001
#
# number of rings (size 3 to 8) (size 9 to 14) (size 15 to 20)
#    0.000    0.286    2.857    7.286    0.000    2.286 
#    0.000    0.000   12.571    0.000    0.000    0.000 
#    0.000    0.000    0.000    0.000    0.000    0.000 
#
# Total GULP energy -78432.495359 kJ/mol
# GULP energy per Si atom -5602.321097 kJ/mol
# Density = 2.298309 g / cm^3
# Si number density = 23.035516 Si / 1000 Ang^3
#
#
#
# Elastic Constant Matrix: (Units=GPa)
#
#
# Indices 1 2 3 4 5 6 
#
# 1 88.0882 11.2375 33.3878 0.0000 0.0000 0.0000
# 2 11.2375 73.1514 7.7081 0.0000 0.0000 0.0000
# 3 33.3878 7.7081 115.5599 0.0000 0.0000 0.0000
# 4 0.0000 0.0000 0.0000 59.7971 0.0000 0.0000
# 5 0.0000 0.0000 0.0000 0.0000 42.5858 0.0000
# 6 0.0000 0.0000 0.0000 0.0000 0.0000 35.9154
#
#
#
# Elastic Compliance Matrix: (Units=1/GPa)
#
#
# Indices 1 2 3 4 5 6 
#
# 1 0.012933 -0.001604 -0.003630 0.000000 0.000000 0.000000
# 2 -0.001604 0.013966 -0.000468 0.000000 0.000000 0.000000
# 3 -0.003630 -0.000468 0.009733 0.000000 0.000000 0.000000
# 4 0.000000 0.000000 0.000000 0.016723 0.000000 0.000000
# 5 0.000000 0.000000 0.000000 0.000000 0.023482 0.000000
# 6 0.000000 0.000000 0.000000 0.000000 0.000000 0.027843
#
#
# Mechanical properties :
#
#
# Convention : Reuss Voigt Hill
#
# Bulk Modulus (GPa) = 39.63787 42.38513 41.01150
# Shear Modulus (GPa) = 40.16269 42.62404 41.39337
#
# Velocity S-wave (km/s) = 4.18007 4.30625 4.24363
# Velocity P-wave (km/s) = 6.36725 6.57000 6.46942
#
# Compressibility (1/GPa) = 0.02522840
#
# Stress axis : x y z
#
# Youngs Moduli (GPa) = 77.32396 71.60220 102.73918
#
# Poissons Ratio (x) = 0.11487 0.37289
# Poissons Ratio (y) = 0.12405 0.04809
# Poissons Ratio (z) = 0.28065 0.03351
#
# Static dielectric constant tensor:
#      x y z
#    x 1.884800 0.000000 0.000000 
#    y 0.000000 1.815770 0.000000 
#    z 0.000000 0.000000 1.866490 
# 
# From -- ./inp_files/4724.got.cif
#   From: 2010.05.17/outbox.cif.g08.bks.cpg/sg23_3_cif.got.tgz:4724.got - 2010.06.04 12:02:01.
