data_PCOD9332137
_publ_section_title
;
Structure prediction by ZEFSAII (Michael W. Deem and Ramdas Pophale) SiO2 
 PCOD9332137
Probable space group: I 2 2 2
;
_chemical_formula_sum "Si O2"
_cell_formula_units_Z 48
_cell_length_a 18.638134
_cell_length_b 14.853340
_cell_length_c 8.848176
_cell_angle_alpha 90.000000
_cell_angle_beta 90.000000
_cell_angle_gamma 90.000000
_cell_volume 2449.516137
_symmetry_space_group_name_H-M "I 2 2 2"
_symmetry_group_IT_number 23
_symmetry_cell_setting 'orthorhombic'
loop_
_space_group_symop_operation_xyz
x,y,z
-x,-y,z
x,-y,-z
-x,y,-z
1/2+x,1/2+y,1/2+z
1/2-x,1/2-y,1/2+z
1/2+x,1/2-y,1/2-z
1/2-x,1/2+y,1/2-z
loop_
_atom_site_type_symbol
_atom_site_label
_atom_site_fract_x
_atom_site_fract_y
_atom_site_fract_z
Si Si1 0.457608 0.186105 0.357362
Si Si2 0.127715 0.000000 0.000000
Si Si3 0.538526 0.315905 0.142930
Si Si4 0.500000 0.500000 0.737442
Si Si5 0.583432 0.901526 0.044516
Si Si6 0.826081 0.207129 0.997129
Si Si7 0.324045 0.242046 0.849911
O O1 0.500000 0.141374 0.500000
O O2 0.517692 0.250011 0.279653
O O3 0.421378 0.126114 0.223332
O O4 0.395882 0.251977 0.420774
O O5 0.072190 0.000288 0.860883
O O6 0.168188 0.097052 0.007064
O O7 0.501483 0.409702 0.170224
O O8 0.623044 0.326269 0.117693
O O9 0.500000 0.274616 0.000000
O O10 0.500000 0.905210 0.000000
O O11 0.629942 0.834307 0.939069
O O12 0.612859 0.000000 0.000000
O O13 0.755160 0.236766 0.086325
O O14 0.820654 0.252791 0.831541
#
# Coordination Sequence:
#
# PCOD9332137 Si02
#       7
#     8   4   8   4   8   8   8
#     4  12  20  42  71  98 128 175 230 289 351 421
#     4  11  22  40  68 104 135 178 230 288 355 424
#     4  12  22  40  67 100 134 177 225 289 356 426
#     4  11  21  38  68 106 134 168 232 296 354 418
#     4  11  23  43  69  94 127 173 229 289 341 404
#     4  12  26  41  69  97 140 184 229 285 356 440
#     4  12  24  44  65  96 135 186 226 276 361 425
#
# _framework density 19.595707000000001
#
# number of rings (size 3 to 8) (size 9 to 14) (size 15 to 20)
#    0.000    0.333    8.333    1.250    1.167    0.000 
#    0.000    5.833    0.000    0.000    0.000    0.000 
#    0.000    0.000    0.000    0.000    0.000    0.000 
#
# Total GULP energy -133657.168143 kJ/mol
# GULP energy per Si atom -5569.048673 kJ/mol
# Density = 1.955111 g / cm^3
# Si number density = 19.595707 Si / 1000 Ang^3
#
#
#
# Elastic Constant Matrix: (Units=GPa)
#
#
# Indices 1 2 3 4 5 6 
#
# 1 120.5615 10.7172 47.1384 0.0000 0.0000 0.0000
# 2 10.7172 82.6477 52.9868 0.0000 0.0000 0.0000
# 3 47.1384 52.9868 144.5475 0.0000 0.0000 0.0000
# 4 0.0000 0.0000 0.0000 22.8132 0.0000 0.0000
# 5 0.0000 0.0000 0.0000 0.0000 18.8939 0.0000
# 6 0.0000 0.0000 0.0000 0.0000 0.0000 24.9110
#
#
#
# Elastic Compliance Matrix: (Units=1/GPa)
#
#
# Indices 1 2 3 4 5 6 
#
# 1 0.009569 0.000993 -0.003484 0.000000 0.000000 0.000000
# 2 0.000993 0.015920 -0.006160 0.000000 0.000000 0.000000
# 3 -0.003484 -0.006160 0.010312 0.000000 0.000000 0.000000
# 4 0.000000 0.000000 0.000000 0.043834 0.000000 0.000000
# 5 0.000000 0.000000 0.000000 0.000000 0.052927 0.000000
# 6 0.000000 0.000000 0.000000 0.000000 0.000000 0.040143
#
#
# Mechanical properties :
#
#
# Convention : Reuss Voigt Hill
#
# Bulk Modulus (GPa) = 54.05708 63.27128 58.66418
# Shear Modulus (GPa) = 25.48765 29.11790 27.30278
#
# Velocity S-wave (km/s) = 3.61040 3.85896 3.73675
# Velocity P-wave (km/s) = 6.71015 7.22592 6.97280
#
# Compressibility (1/GPa) = 0.01849896
#
# Stress axis : x y z
#
# Youngs Moduli (GPa) = 104.50812 62.81497 96.97076
#
# Poissons Ratio (x) = -0.06239 0.33789
# Poissons Ratio (y) = -0.10379 0.59730
# Poissons Ratio (z) = 0.36416 0.38691
#
# Static dielectric constant tensor:
#      x y z
#    x 1.688190 0.000000 0.000000 
#    y 0.000000 1.798460 0.000000 
#    z 0.000000 0.000000 1.740310 
# 
# From -- ./inp_files/11098.got.cif
#   From: 2010.05.17/outbox.cif.g08.bks.cpg/sg23_6_cif.got.tgz:11098.got - 2010.06.04 12:02:01.
