data_PCOD9332091
_publ_section_title
;
Structure prediction by ZEFSAII (Michael W. Deem and Ramdas Pophale) SiO2 
 PCOD9332091
Probable space group: I 2 2 2
;
_chemical_formula_sum "Si O2"
_cell_formula_units_Z 40
_cell_length_a 12.410176
_cell_length_b 17.820194
_cell_length_c 7.583420
_cell_angle_alpha 90.000000
_cell_angle_beta 90.000000
_cell_angle_gamma 90.000000
_cell_volume 1677.086558
_symmetry_space_group_name_H-M "I 2 2 2"
_symmetry_group_IT_number 23
_symmetry_cell_setting 'orthorhombic'
loop_
_space_group_symop_operation_xyz
x,y,z
-x,-y,z
x,-y,-z
-x,y,-z
1/2+x,1/2+y,1/2+z
1/2-x,1/2-y,1/2+z
1/2+x,1/2-y,1/2-z
1/2-x,1/2+y,1/2-z
loop_
_atom_site_type_symbol
_atom_site_label
_atom_site_fract_x
_atom_site_fract_y
_atom_site_fract_z
Si Si1 0.254494 0.073043 0.874887
Si Si2 0.545541 0.867062 0.695210
Si Si3 0.834462 0.316508 0.345629
Si Si4 0.021496 0.085907 0.788676
Si Si5 0.369296 0.713295 0.143082
O O1 0.362889 0.075446 0.758332
O O2 0.149498 0.090814 0.761174
O O3 0.263476 0.141657 0.010166
O O4 0.242089 0.000000 0.000000
O O5 0.500000 0.875830 0.500000
O O6 0.437142 0.868225 0.810573
O O7 0.594485 0.783560 0.732200
O O8 0.756575 0.302688 0.182687
O O9 0.877415 0.242635 0.443313
O O10 0.941837 0.142251 0.690555
O O11 0.000000 0.000000 0.741904
O O12 0.000000 0.095367 0.000000
#
# Coordination Sequence:
#
# PCOD9332091 Si02
#       5
#     8   8   8   8   8
#     4  11  22  43  71 103 142 188 237 294 373 447
#     4  11  26  44  67 104 138 187 248 299 372 435
#     4  11  24  42  66 102 135 189 232 298 366 436
#     4  11  20  39  71 106 140 188 240 297 372 448
#     4  11  22  39  68 101 144 179 242 305 366 439
#
# _framework density 23.850885000000002
#
# number of rings (size 3 to 8) (size 9 to 14) (size 15 to 20)
#    0.000    1.000    4.000    4.200    5.600    1.600 
#    3.600    2.000    0.000    7.200    0.000    1.400 
#    0.000    0.000    0.000    0.000    0.000    0.000 
#
# Total GULP energy -111936.723047 kJ/mol
# GULP energy per Si atom -5596.836152 kJ/mol
# Density = 2.379660 g / cm^3
# Si number density = 23.850885 Si / 1000 Ang^3
#
#
#
# Elastic Constant Matrix: (Units=GPa)
#
#
# Indices 1 2 3 4 5 6 
#
# 1 183.1266 34.3585 42.2880 0.0000 0.0000 0.0000
# 2 34.3585 111.1820 18.1572 0.0000 0.0000 0.0000
# 3 42.2880 18.1572 63.8938 0.0000 0.0000 0.0000
# 4 0.0000 0.0000 0.0000 21.2075 0.0000 0.0000
# 5 0.0000 0.0000 0.0000 0.0000 36.7248 0.0000
# 6 0.0000 0.0000 0.0000 0.0000 0.0000 30.5738
#
#
#
# Elastic Compliance Matrix: (Units=1/GPa)
#
#
# Indices 1 2 3 4 5 6 
#
# 1 0.006648 -0.001401 -0.004002 0.000000 0.000000 0.000000
# 2 -0.001401 0.009727 -0.001837 0.000000 0.000000 0.000000
# 3 -0.004002 -0.001837 0.018822 0.000000 0.000000 0.000000
# 4 0.000000 0.000000 0.000000 0.047153 0.000000 0.000000
# 5 0.000000 0.000000 0.000000 0.000000 0.027230 0.000000
# 6 0.000000 0.000000 0.000000 0.000000 0.000000 0.032708
#
#
# Mechanical properties :
#
#
# Convention : Reuss Voigt Hill
#
# Bulk Modulus (GPa) = 48.26913 60.86775 54.56844
# Shear Modulus (GPa) = 30.54899 35.26114 32.90506
#
# Velocity S-wave (km/s) = 3.58275 3.84917 3.71835
# Velocity P-wave (km/s) = 6.11528 6.73278 6.43144
#
# Compressibility (1/GPa) = 0.02071718
#
# Stress axis : x y z
#
# Youngs Moduli (GPa) = 150.43060 102.80476 53.13069
#
# Poissons Ratio (x) = 0.14401 0.21261
# Poissons Ratio (y) = 0.21072 0.09761
# Poissons Ratio (z) = 0.60197 0.18887
#
# Static dielectric constant tensor:
#      x y z
#    x 1.961910 0.000000 0.000000 
#    y 0.000000 1.906600 0.000000 
#    z 0.000000 0.000000 1.934580 
# 
# From -- ./inp_files/8200.got.cif
#   From: 2010.05.17/outbox.cif.g08.bks.cpg/sg23_5_cif.got.tgz:8200.got - 2010.06.04 12:02:01.
