data_PCOD9332698
_publ_section_title
;
Structure prediction by ZEFSAII (Michael W. Deem and Ramdas Pophale) SiO2 
 PCOD9332698
Probable space group: I 21 21 21
;
_chemical_formula_sum "Si O2"
_cell_formula_units_Z 36
_cell_length_a 20.808893
_cell_length_b 20.977631
_cell_length_c 5.417730
_cell_angle_alpha 90.000000
_cell_angle_beta 90.000000
_cell_angle_gamma 90.000000
_cell_volume 2364.954428
_symmetry_space_group_name_H-M "I 21 21 21"
_symmetry_group_IT_number 24
_symmetry_cell_setting 'orthorhombic'
loop_
_space_group_symop_operation_xyz
x,y,z
-x,1/2-y,z
x,-y,1/2-z
1/2-x,y,-z
1/2+x,1/2+y,1/2+z
1/2-x,-y,1/2+z
1/2+x,1/2-y,-z
-x,1/2+y,1/2-z
loop_
_atom_site_type_symbol
_atom_site_label
_atom_site_fract_x
_atom_site_fract_y
_atom_site_fract_z
Si Si1 0.078600 0.252172 0.240435
Si Si2 0.095051 0.401467 0.263023
Si Si3 0.438595 0.201066 0.259365
Si Si4 0.708595 0.000000 0.750000
Si Si5 0.515237 0.071597 0.237036
O O1 0.099724 0.325153 0.255312
O O2 0.097397 0.214532 0.485961
O O3 0.000000 0.250000 0.234273
O O4 0.099334 0.219996 0.985887
O O5 0.161791 0.438788 0.254417
O O6 0.059595 0.419284 0.519553
O O7 0.054801 0.421346 0.018838
O O8 0.500000 0.250000 0.265420
O O9 0.465294 0.129753 0.243632
O O10 0.750000 0.999108 0.500000
O O11 0.488233 0.000000 0.250000
#
# Coordination Sequence:
#
# PCOD9332698 Si02
#       5
#     8   8   8   4   8
#     4  10  16  28  45  68  84 102 142 192 237 282
#     4  12  20  32  50  61  82 119 156 207 236 268
#     4  10  16  26  42  62  93 107 134 190 220 280
#     4  12  26  40  46  62  90 130 178 214 232 256
#     4  12  19  28  43  69  88 116 151 187 229 285
#
# _framework density 15.222281000000001
#
# number of rings (size 3 to 8) (size 9 to 14) (size 15 to 20)
#    0.000    0.889   11.111    1.333    0.000    0.000 
#    0.000    0.000    0.000    0.000    0.000    0.000 
#    0.000    0.000    0.000    0.000    0.000   22.222 
#
# Total GULP energy -100308.876869 kJ/mol
# GULP energy per Si atom -5572.715382 kJ/mol
# Density = 1.518763 g / cm^3
# Si number density = 15.222281 Si / 1000 Ang^3
#
#
#
# Elastic Constant Matrix: (Units=GPa)
#
#
# Indices 1 2 3 4 5 6 
#
# 1 22.8427 18.7959 -1.8183 0.0000 0.0000 0.0000
# 2 18.7959 83.1909 -30.3802 0.0000 0.0000 0.0000
# 3 -1.8183 -30.3802 84.6375 0.0000 0.0000 0.0000
# 4 0.0000 0.0000 0.0000 15.0465 0.0000 0.0000
# 5 0.0000 0.0000 0.0000 0.0000 12.5145 0.0000
# 6 0.0000 0.0000 0.0000 0.0000 0.0000 14.6305
#
#
#
# Elastic Compliance Matrix: (Units=1/GPa)
#
#
# Indices 1 2 3 4 5 6 
#
# 1 0.054795 -0.013753 -0.003759 0.000000 0.000000 0.000000
# 2 -0.013753 0.017286 0.005909 0.000000 0.000000 0.000000
# 3 -0.003759 0.005909 0.013855 0.000000 0.000000 0.000000
# 4 0.000000 0.000000 0.000000 0.066461 0.000000 0.000000
# 5 0.000000 0.000000 0.000000 0.000000 0.079907 0.000000
# 6 0.000000 0.000000 0.000000 0.000000 0.000000 0.068350
#
#
# Mechanical properties :
#
#
# Convention : Reuss Voigt Hill
#
# Bulk Modulus (GPa) = 15.94147 18.20734 17.07441
# Shear Modulus (GPa) = 14.50240 22.04323 18.27282
#
# Velocity S-wave (km/s) = 3.08995 3.80951 3.46844
# Velocity P-wave (km/s) = 4.81929 5.59792 5.22314
#
# Compressibility (1/GPa) = 0.06272948
#
# Stress axis : x y z
#
# Youngs Moduli (GPa) = 18.24988 57.85085 72.17401
#
# Poissons Ratio (x) = 0.79563 0.27133
# Poissons Ratio (y) = 0.25099 -0.42649
# Poissons Ratio (z) = 0.06861 -0.34185
#
# Static dielectric constant tensor:
#      x y z
#    x 1.458100 0.000000 0.000000 
#    y 0.000000 1.516980 0.000000 
#    z 0.000000 0.000000 1.644820 
# 
# From -- ./inp_files/3344.got.cif
#   From: 2010.05.17/outbox.cif.g08.bks.cpg/sg24_2_cif.got.tgz:3344.got - 2010.06.04 00:33:39.
