data_PCOD9332469
_publ_section_title
;
Structure prediction by ZEFSAII (Michael W. Deem and Ramdas Pophale) SiO2 
 PCOD9332469
Probable space group: I 2 2 2
;
_chemical_formula_sum "Si O2"
_cell_formula_units_Z 32
_cell_length_a 5.148571
_cell_length_b 11.997841
_cell_length_c 21.114637
_cell_angle_alpha 90.000000
_cell_angle_beta 90.000000
_cell_angle_gamma 90.000000
_cell_volume 1304.287787
_symmetry_space_group_name_H-M "I 2 2 2"
_symmetry_group_IT_number 23
_symmetry_cell_setting 'orthorhombic'
loop_
_space_group_symop_operation_xyz
x,y,z
-x,-y,z
x,-y,-z
-x,y,-z
1/2+x,1/2+y,1/2+z
1/2-x,1/2-y,1/2+z
1/2+x,1/2-y,1/2-z
1/2-x,1/2+y,1/2-z
loop_
_atom_site_type_symbol
_atom_site_label
_atom_site_fract_x
_atom_site_fract_y
_atom_site_fract_z
Si Si1 0.905035 0.879246 0.097480
Si Si2 0.500000 0.195179 0.500000
Si Si3 0.000000 0.500000 0.912336
Si Si4 0.826065 0.096290 0.300769
Si Si5 0.917475 0.669708 0.322125
O O1 0.646822 0.889386 0.139118
O O2 0.143902 0.838974 0.141569
O O3 0.851703 0.783725 0.044836
O O4 0.000000 0.000000 0.072997
O O5 0.623245 0.102449 0.547237
O O6 0.208796 0.554025 0.866159
O O7 0.611279 0.125829 0.249070
O O8 0.997523 0.203159 0.314975
O O9 0.000000 0.000000 0.271390
#
# Coordination Sequence:
#
# PCOD9332469 Si02
#       5
#     8   4   4   8   8
#     4  12  27  50  81 120 160 215 268 336 412 485
#     4  11  25  54  78 116 163 219 280 328 406 485
#     4  11  26  52  82 114 162 217 276 346 400 497
#     4  12  28  48  79 122 163 215 273 343 426 481
#     4  12  28  49  80 120 164 205 271 339 415 495
#
# _framework density 24.534462000000001
#
# number of rings (size 3 to 8) (size 9 to 14) (size 15 to 20)
#    0.000    0.250    2.500    4.875   10.500    1.000 
#    4.500    3.750    0.000    0.000    0.000    0.000 
#    0.000    0.000    0.000    0.000    0.000    0.000 
#
# Total GULP energy -89618.521247 kJ/mol
# GULP energy per Si atom -5601.157578 kJ/mol
# Density = 2.447862 g / cm^3
# Si number density = 24.534462 Si / 1000 Ang^3
#
#
#
# Elastic Constant Matrix: (Units=GPa)
#
#
# Indices 1 2 3 4 5 6 
#
# 1 120.2092 39.4023 50.3305 0.0000 0.0000 0.0000
# 2 39.4023 208.0891 71.9623 0.0000 0.0000 0.0000
# 3 50.3305 71.9623 143.1503 0.0000 0.0000 0.0000
# 4 0.0000 0.0000 0.0000 55.9215 0.0000 0.0000
# 5 0.0000 0.0000 0.0000 0.0000 -13.0873 0.0000
# 6 0.0000 0.0000 0.0000 0.0000 0.0000 49.9901
#
#
#
# Elastic Compliance Matrix: (Units=1/GPa)
#
#
# Indices 1 2 3 4 5 6 
#
# 1 0.009866 -0.000809 -0.003062 0.000000 0.000000 0.000000
# 2 -0.000809 0.005883 -0.002673 0.000000 0.000000 0.000000
# 3 -0.003062 -0.002673 0.009406 0.000000 0.000000 0.000000
# 4 0.000000 0.000000 0.000000 0.017882 0.000000 0.000000
# 5 0.000000 0.000000 0.000000 0.000000 -0.076410 0.000000
# 6 0.000000 0.000000 0.000000 0.000000 0.000000 0.020004
#
#
# Mechanical properties :
#
#
# Convention : Reuss Voigt Hill
#
# Bulk Modulus (GPa) = 82.87217 88.31539 85.59378
# Shear Modulus (GPa) = 1336.06346 39.21510 687.63928
#
# Velocity S-wave (km/s) = 23.36125 4.00230 16.75957
# Velocity P-wave (km/s) = 27.59557 7.57842 20.23546
#
# Compressibility (1/GPa) = 0.01206678
#
# Stress axis : x y z
#
# Youngs Moduli (GPa) = 101.35677 169.97373 106.31523
#
# Poissons Ratio (x) = 0.13755 0.32554
# Poissons Ratio (y) = 0.08202 0.28418
# Poissons Ratio (z) = 0.31036 0.45434
#
# Static dielectric constant tensor:
#      x y z
#    x 1.912020 0.000000 0.000000 
#    y 0.000000 1.954260 0.000000 
#    z 0.000000 0.000000 1.970620 
# 
# From -- ./inp_files/13766.got.cif
#   From: 2010.05.17/outbox.cif.g08.bks.cpg/sg23_7_cif.got.tgz:13766.got - 2010.06.04 12:02:01.
