data_PCOD9332185
_publ_section_title
;
Structure prediction by ZEFSAII (Michael W. Deem and Ramdas Pophale) SiO2 
 PCOD9332185
Probable space group: I 2 2 2
;
_chemical_formula_sum "Si O2"
_cell_formula_units_Z 58
_cell_length_a 11.322836
_cell_length_b 9.317979
_cell_length_c 25.496022
_cell_angle_alpha 90.000000
_cell_angle_beta 90.000000
_cell_angle_gamma 90.000000
_cell_volume 2689.981973
_symmetry_space_group_name_H-M "I 2 2 2"
_symmetry_group_IT_number 23
_symmetry_cell_setting 'orthorhombic'
loop_
_space_group_symop_operation_xyz
x,y,z
-x,-y,z
x,-y,-z
-x,y,-z
1/2+x,1/2+y,1/2+z
1/2-x,1/2-y,1/2+z
1/2+x,1/2-y,1/2-z
1/2-x,1/2+y,1/2-z
loop_
_atom_site_type_symbol
_atom_site_label
_atom_site_fract_x
_atom_site_fract_y
_atom_site_fract_z
Si Si1 0.518106 0.664966 0.798902
Si Si2 0.078825 0.624269 0.374867
Si Si3 0.991256 0.330104 0.193984
Si Si4 0.267977 0.622950 0.461231
Si Si5 0.377325 0.758147 0.050701
Si Si6 0.107137 0.389424 0.088539
Si Si7 0.258103 0.847795 0.636276
Si Si8 0.500000 0.500000 0.000000
O O1 0.500000 0.500000 0.786403
O O2 0.416657 0.744811 0.833378
O O3 0.533039 0.746990 0.744495
O O4 0.633651 0.661809 0.835106
O O5 0.201233 0.587954 0.405210
O O6 0.000000 0.500000 0.346824
O O7 0.983384 0.669046 0.418840
O O8 0.061103 0.305537 0.139955
O O9 0.000000 0.500000 0.204111
O O10 0.856659 0.300553 0.177377
O O11 0.324024 0.500000 0.500000
O O12 0.158311 0.668176 0.497538
O O13 0.345639 0.767360 0.450841
O O14 0.260346 0.752903 0.086143
O O15 0.419636 0.599056 0.036338
O O16 0.205906 0.498354 0.111554
O O17 0.000000 0.500000 0.071701
#
# Coordination Sequence:
#
# PCOD9332185 Si02
#       8
#     8   8   8   8   8   8   8   2
#     4  11  23  37  63 100 128 168 228 283 343 415
#     4  11  22  38  58  94 146 178 207 273 343 425
#     4   9  21  45  65  88 124 170 224 285 351 409
#     4  12  22  38  63  99 136 184 227 276 354 404
#     4  11  22  34  56  96 135 172 217 267 335 402
#     4   9  21  44  68  90 129 181 238 289 338 416
#     4   9  21  39  62  88 128 170 218 274 341 406
#     4  12  20  28  58  88 134 172 218 272 312 400
#
# _framework density 21.561482000000002
#
# number of rings (size 3 to 8) (size 9 to 14) (size 15 to 20)
#    0.000    1.931    2.759    2.069    3.862    3.310 
#    2.483    5.517    0.000    3.310    0.000    0.000 
#    0.000    0.000    0.000    0.000    0.000    0.000 
#
# Total GULP energy -161556.927303 kJ/mol
# GULP energy per Si atom -5570.928528 kJ/mol
# Density = 2.151241 g / cm^3
# Si number density = 21.561482 Si / 1000 Ang^3
#
#
#
# Elastic Constant Matrix: (Units=GPa)
#
#
# Indices 1 2 3 4 5 6 
#
# 1 51.4497 22.6751 17.7011 0.0000 0.0000 0.0000
# 2 22.6751 97.5986 34.4186 0.0000 0.0000 0.0000
# 3 17.7011 34.4186 59.4171 0.0000 0.0000 0.0000
# 4 0.0000 0.0000 0.0000 35.0720 0.0000 0.0000
# 5 0.0000 0.0000 0.0000 0.0000 -15.4154 0.0000
# 6 0.0000 0.0000 0.0000 0.0000 0.0000 -4.0751
#
#
#
# Elastic Compliance Matrix: (Units=1/GPa)
#
#
# Indices 1 2 3 4 5 6 
#
# 1 0.022630 -0.003619 -0.004645 0.000000 0.000000 0.000000
# 2 -0.003619 0.013455 -0.006716 0.000000 0.000000 0.000000
# 3 -0.004645 -0.006716 0.022104 0.000000 0.000000 0.000000
# 4 0.000000 0.000000 0.000000 0.028513 0.000000 0.000000
# 5 0.000000 0.000000 0.000000 0.000000 -0.064870 0.000000
# 6 0.000000 0.000000 0.000000 0.000000 0.000000 -0.245395
#
#
# Mechanical properties :
#
#
# Convention : Reuss Voigt Hill
#
# Bulk Modulus (GPa) = 35.42525 39.78389 37.60457
# Shear Modulus (GPa) = -27.14557 12.02769 -7.55894
#
# Velocity S-wave (km/s) = -3.55207 2.36441 -1.87440
# Velocity P-wave (km/s) = 0.59780 5.09366 3.57687
#
# Compressibility (1/GPa) = 0.02822846
#
# Stress axis : x y z
#
# Youngs Moduli (GPa) = 44.18959 74.31957 45.23993
#
# Poissons Ratio (x) = 0.26900 0.21014
# Poissons Ratio (y) = 0.15994 0.30383
# Poissons Ratio (z) = 0.20526 0.49913
#
# Static dielectric constant tensor:
#      x y z
#    x 1.821420 0.000000 0.000000 
#    y 0.000000 1.860740 0.000000 
#    z 0.000000 0.000000 1.784410 
# 
# From -- ./inp_files/18628.got.cif
#   From: 2010.05.17/outbox.cif.g08.bks.cpg/sg23_10_cif.got.tgz:18628.got - 2010.06.04 12:02:01.
