data_PCOD9332890
_publ_section_title
;
Structure prediction by ZEFSAII (Michael W. Deem and Ramdas Pophale) SiO2 
 PCOD9332890
Probable space group: I 21 21 21
;
_chemical_formula_sum "Si O2"
_cell_formula_units_Z 32
_cell_length_a 8.806949
_cell_length_b 9.841371
_cell_length_c 13.616443
_cell_angle_alpha 90.000000
_cell_angle_beta 90.000000
_cell_angle_gamma 90.000000
_cell_volume 1180.170509
_symmetry_space_group_name_H-M "I 21 21 21"
_symmetry_group_IT_number 24
_symmetry_cell_setting 'orthorhombic'
loop_
_space_group_symop_operation_xyz
x,y,z
-x,1/2-y,z
x,-y,1/2-z
1/2-x,y,-z
1/2+x,1/2+y,1/2+z
1/2-x,-y,1/2+z
1/2+x,1/2-y,-z
-x,1/2+y,1/2-z
loop_
_atom_site_type_symbol
_atom_site_label
_atom_site_fract_x
_atom_site_fract_y
_atom_site_fract_z
Si Si1 0.492180 0.954166 0.443365
Si Si2 0.846132 0.498783 0.366526
Si Si3 0.000000 0.250000 0.634648
Si Si4 0.500000 0.250000 0.691569
Si Si5 0.707127 0.848887 0.289135
O O1 0.323490 0.954412 0.393929
O O2 0.458396 0.926295 0.557276
O O3 0.534270 0.113433 0.424946
O O4 0.620826 0.859507 0.393633
O O5 0.862902 0.500000 0.250000
O O6 0.899561 0.343264 0.380883
O O7 0.132538 0.238898 0.716120
O O8 0.382245 0.324693 0.764840
O O9 0.670790 0.000000 0.250000
#
# Coordination Sequence:
#
# PCOD9332890 Si02
#       5
#     8   8   4   4   8
#     4  10  22  41  73 110 146 202 254 311 395 462
#     4  11  23  43  70 107 153 194 257 323 380 461
#     4  10  17  40  69 104 142 194 257 294 385 462
#     4  12  23  42  71 110 146 200 249 322 383 454
#     4  10  22  40  69 109 149 197 241 321 387 455
#
# _framework density 27.114726999999998
#
# number of rings (size 3 to 8) (size 9 to 14) (size 15 to 20)
#    0.000    1.500    2.500    3.750    0.000    0.000 
#    0.000    7.500    0.000    0.000    0.000    0.000 
#    0.000    0.000    0.000    0.000    0.000    0.000 
#
# Total GULP energy -89214.488800 kJ/mol
# GULP energy per Si atom -5575.905550 kJ/mol
# Density = 2.705301 g / cm^3
# Si number density = 27.114727 Si / 1000 Ang^3
#
#
#
# Elastic Constant Matrix: (Units=GPa)
#
#
# Indices 1 2 3 4 5 6 
#
# 1 110.7006 13.1238 32.9160 0.0000 0.0000 0.0000
# 2 13.1238 80.8699 3.3155 0.0000 0.0000 0.0000
# 3 32.9160 3.3155 168.6952 0.0000 0.0000 0.0000
# 4 0.0000 0.0000 0.0000 32.6285 0.0000 0.0000
# 5 0.0000 0.0000 0.0000 0.0000 24.5290 0.0000
# 6 0.0000 0.0000 0.0000 0.0000 0.0000 53.6308
#
#
#
# Elastic Compliance Matrix: (Units=1/GPa)
#
#
# Indices 1 2 3 4 5 6 
#
# 1 0.009770 -0.001509 -0.001877 0.000000 0.000000 0.000000
# 2 -0.001509 0.012608 0.000047 0.000000 0.000000 0.000000
# 3 -0.001877 0.000047 0.006293 0.000000 0.000000 0.000000
# 4 0.000000 0.000000 0.000000 0.030648 0.000000 0.000000
# 5 0.000000 0.000000 0.000000 0.000000 0.040768 0.000000
# 6 0.000000 0.000000 0.000000 0.000000 0.000000 0.018646
#
#
# Mechanical properties :
#
#
# Convention : Reuss Voigt Hill
#
# Bulk Modulus (GPa) = 45.46638 50.99737 48.23187
# Shear Modulus (GPa) = 37.66680 42.88503 40.27591
#
# Velocity S-wave (km/s) = 3.73119 3.98127 3.85826
# Velocity P-wave (km/s) = 5.94701 6.32319 6.13799
#
# Compressibility (1/GPa) = 0.02199427
#
# Stress axis : x y z
#
# Youngs Moduli (GPa) = 102.35147 79.31192 158.90355
#
# Poissons Ratio (x) = 0.11965 0.29822
# Poissons Ratio (y) = 0.15441 -0.00740
# Poissons Ratio (z) = 0.19209 -0.00369
#
# Static dielectric constant tensor:
#      x y z
#    x 2.186870 0.000000 0.000000 
#    y 0.000000 2.305200 0.000000 
#    z 0.000000 0.000000 2.132490 
# 
# From -- ./inp_files/11925.got.cif
#   From: 2010.05.17/outbox.cif.g08.bks.cpg/sg24_6_cif.got.tgz:11925.got - 2010.06.04 00:33:39.
